=
 OpenBabel11072409243D

 39 42  0  0  1  0  0  0  0  0999 V2000
  190.6040  176.7850  146.9590 C   0  0  2  0  0  3  0  0  0  0  0  0
  190.9620  175.4810  147.6430 C   0  0  2  0  0  3  0  0  0  0  0  0
  191.2630  176.7980  148.3250 C   0  0  0  0  0  2  0  0  0  0  0  0
  189.2350  177.0130  147.1010 O   0  0  0  0  0  0  0  0  0  0  0  0
  188.6330  176.1120  146.2220 C   0  0  0  0  0  2  0  0  0  0  0  0
  187.2110  177.5260  140.9130 O   0  0  0  0  0  1  0  0  0  0  0  0
  189.2560  176.3190  143.7600 C   0  0  2  0  0  3  0  0  0  0  0  0
  188.3320  176.7950  144.8950 C   0  0  1  0  0  3  0  0  0  0  0  0
  187.5250  177.5350  142.2730 C   0  0  2  0  0  3  0  0  0  0  0  0
  188.9870  177.0970  142.4600 C   0  0  1  0  0  3  0  0  0  0  0  0
  189.8150  178.2190  142.4050 O   0  0  0  0  0  1  0  0  0  0  0  0
  185.2340  176.9770  142.7680 O   0  0  0  0  0  1  0  0  0  0  0  0
  186.8330  176.6900  144.5600 C   0  0  2  0  0  3  0  0  0  0  0  0
  186.5600  176.6340  143.0450 C   0  0  2  0  0  3  0  0  0  0  0  0
  190.5150  174.1630  143.6160 C   0  0  0  0  0  1  0  0  0  0  0  0
  189.1470  174.8130  143.5220 C   0  0  0  0  0  2  0  0  0  0  0  0
  186.1610  177.7690  145.1440 O   0  0  0  0  0  0  0  0  0  0  0  0
  185.3190  177.1940  146.0990 C   0  0  0  0  0  2  0  0  0  0  0  0
  184.0940  178.9200  145.4890 C   0  0  0  0  0  1  0  0  0  0  0  0
  184.4540  178.1650  146.6030 O   0  0  0  0  0  0  0  0  0  0  0  0
  192.2300  174.9250  147.0180 C   0  0  0  0  0  2  0  0  0  0  0  0
  192.7760  175.8800  145.9660 C   0  0  0  0  0  2  0  0  0  0  0  0
  194.2100  176.2160  146.2270 C   0  0  0  0  0  0  0  0  0  0  0  0
  194.5160  177.3270  146.6310 O   0  0  0  0  0  0  0  0  0  0  0  0
  195.2700  175.1960  145.9490 C   0  0  0  0  0  2  0  0  0  0  0  0
  194.9950  174.3130  144.7230 C   0  0  2  0  0  3  0  0  0  0  0  0
  194.9360  170.1090  146.4250 C   0  0  0  0  0  2  0  0  0  0  0  0
  194.2010  170.5410  145.1610 C   0  0  0  0  0  2  0  0  0  0  0  0
  195.2880  172.8120  144.8780 C   0  0  1  0  0  3  0  0  0  0  0  0
  196.2850  172.5670  145.9140 N   0  0  0  0  0  2  0  0  0  0  0  0
  193.9940  172.0520  145.1670 C   0  0  0  0  0  2  0  0  0  0  0  0
  196.4590  170.1330  146.2670 C   0  0  0  0  0  2  0  0  0  0  0  0
  197.0040  171.3590  145.5330 C   0  0  0  0  0  2  0  0  0  0  0  0
  196.4600  175.9910  143.5560 C   0  0  0  0  0  2  0  0  0  0  0  0
  196.7200  176.8020  142.2780 C   0  0  0  0  0  2  0  0  0  0  0  0
  196.0000  176.2530  141.1290 N   0  0  0  0  0  2  0  0  0  0  0  0
  194.1590  175.4910  142.6070 C   0  0  0  0  0  2  0  0  0  0  0  0
  195.3670  174.9340  143.3720 C   0  0  0  0  0  3  0  0  0  0  0  0
  194.5680  176.3530  141.4040 C   0  0  0  0  0  2  0  0  0  0  0  0
  1  4  1  1  0  0  0
  1  2  1  0  0  0  0
  1  3  1  0  0  0  0
  2 21  1  6  0  0  0
  2  3  1  0  0  0  0
  5  4  1  0  0  0  0
  7 16  1  6  0  0  0
  7  8  1  0  0  0  0
  8  5  1  1  0  0  0
  9  6  1  6  0  0  0
  9 10  1  0  0  0  0
  9 14  1  0  0  0  0
 10 11  1  1  0  0  0
 10  7  1  0  0  0  0
 13  8  1  0  0  0  0
 13 17  1  6  0  0  0
 14 12  1  1  0  0  0
 14 13  1  0  0  0  0
 16 15  1  0  0  0  0
 17 18  1  0  0  0  0
 18 20  1  0  0  0  0
 19 20  1  0  0  0  0
 22 23  1  0  0  0  0
 22 21  1  0  0  0  0
 23 24  2  0  0  0  0
 25 23  1  0  0  0  0
 26 25  1  1  0  0  0
 28 31  1  0  0  0  0
 28 27  1  0  0  0  0
 29 26  1  1  0  0  0
 29 31  1  0  0  0  0
 29 30  1  0  0  0  0
 32 27  1  0  0  0  0
 33 30  1  0  0  0  0
 33 32  1  0  0  0  0
 35 34  1  0  0  0  0
 36 39  1  0  0  0  0
 36 35  1  0  0  0  0
 37 38  1  0  0  0  0
 38 34  1  0  0  0  0
 38 26  1  0  0  0  0
 39 37  1  0  0  0  0
M  END
>  <MODEL>
1

>  <REMARK>
 VINA RESULT:      -7.1      0.000      0.000
  Name = 
  14 active torsions:
  status: ('A' for Active; 'I' for Inactive)
    1  A    between atoms: C_1  and  C_6
    2  A    between atoms: C_1  and  C_32
    3  A    between atoms: C_4  and  C_37
    4  A    between atoms: C_5  and  O_24
    5  A    between atoms: C_5  and  O_38
    6  A    between atoms: C_6  and  C_11
    7  A    between atoms: C_7  and  O_9
    8  A    between atoms: O_9  and  C_35
    9  A    between atoms: C_10  and  C_35
   10  A    between atoms: C_11  and  C_21
   11  A    between atoms: C_11  and  C_30
   12  A    between atoms: C_13  and  C_18
   13  A    between atoms: C_18  and  C_32
   14  A    between atoms: C_33  and  O_38
                            x       y       z     vdW  Elec       q    Type
                         _______ _______ _______ _____ _____    ______ ____

>  <TORSDO>
F 14

$$$$
=
 OpenBabel11072409243D

 39 42  0  0  1  0  0  0  0  0999 V2000
  188.3790  174.3290  142.4410 C   0  0  2  0  0  3  0  0  0  0  0  0
  188.7770  173.6690  141.1370 C   0  0  2  0  0  3  0  0  0  0  0  0
  188.5380  172.8230  142.3690 C   0  0  0  0  0  2  0  0  0  0  0  0
  187.0240  174.6560  142.3900 O   0  0  0  0  0  0  0  0  0  0  0  0
  186.9990  176.0440  142.2440 C   0  0  0  0  0  2  0  0  0  0  0  0
  185.9740  179.4050  146.7000 O   0  0  0  0  0  1  0  0  0  0  0  0
  187.6710  176.9120  144.5430 C   0  0  2  0  0  3  0  0  0  0  0  0
  186.5280  176.6990  143.5350 C   0  0  1  0  0  3  0  0  0  0  0  0
  185.9250  178.4130  145.7190 C   0  0  2  0  0  3  0  0  0  0  0  0
  187.1440  177.4870  145.8700 C   0  0  1  0  0  3  0  0  0  0  0  0
  186.8250  176.4440  146.7400 O   0  0  0  0  0  1  0  0  0  0  0  0
  184.8170  179.9720  144.2530 O   0  0  0  0  0  1  0  0  0  0  0  0
  185.7230  177.9750  143.2310 C   0  0  2  0  0  3  0  0  0  0  0  0
  185.8620  179.0480  144.3290 C   0  0  2  0  0  3  0  0  0  0  0  0
  189.9030  177.9500  144.9890 C   0  0  0  0  0  1  0  0  0  0  0  0
  188.7840  177.7930  143.9760 C   0  0  0  0  0  2  0  0  0  0  0  0
  184.3800  177.6320  143.0430 O   0  0  0  0  0  0  0  0  0  0  0  0
  184.0500  178.1440  141.7860 C   0  0  0  0  0  2  0  0  0  0  0  0
  182.3480  178.0160  140.3940 C   0  0  0  0  0  1  0  0  0  0  0  0
  182.6710  178.3380  141.7100 O   0  0  0  0  0  0  0  0  0  0  0  0
  190.2700  173.8530  140.9220 C   0  0  0  0  0  2  0  0  0  0  0  0
  190.7930  175.0200  141.7490 C   0  0  0  0  0  2  0  0  0  0  0  0
  192.1820  174.7620  142.2380 C   0  0  0  0  0  0  0  0  0  0  0  0
  193.1270  175.3520  141.7370 O   0  0  0  0  0  0  0  0  0  0  0  0
  192.4110  173.7460  143.3140 C   0  0  0  0  0  2  0  0  0  0  0  0
  192.9110  174.3330  144.6420 C   0  0  2  0  0  3  0  0  0  0  0  0
  197.0340  172.5760  145.3370 C   0  0  0  0  0  2  0  0  0  0  0  0
  196.4880  173.8070  146.0500 C   0  0  0  0  0  2  0  0  0  0  0  0
  194.0690  173.5900  145.3280 C   0  0  1  0  0  3  0  0  0  0  0  0
  194.2620  172.2610  144.7590 N   0  0  0  0  0  2  0  0  0  0  0  0
  195.3500  174.4180  145.2400 C   0  0  0  0  0  2  0  0  0  0  0  0
  196.3070  171.2860  145.7310 C   0  0  0  0  0  2  0  0  0  0  0  0
  194.7860  171.4160  145.8230 C   0  0  0  0  0  2  0  0  0  0  0  0
  192.3530  175.0070  147.0000 C   0  0  0  0  0  2  0  0  0  0  0  0
  191.2500  175.3360  148.0170 C   0  0  0  0  0  2  0  0  0  0  0  0
  189.9770  175.6360  147.3600 N   0  0  0  0  0  2  0  0  0  0  0  0
  190.5190  174.0630  145.5200 C   0  0  0  0  0  2  0  0  0  0  0  0
  191.8190  174.8770  145.5700 C   0  0  0  0  0  3  0  0  0  0  0  0
  189.5440  174.4360  146.6450 C   0  0  0  0  0  2  0  0  0  0  0  0
  1  4  1  6  0  0  0
  2 21  1  1  0  0  0
  2  3  1  0  0  0  0
  2  1  1  0  0  0  0
  3  1  1  0  0  0  0
  5  4  1  0  0  0  0
  7 16  1  6  0  0  0
  7 10  1  0  0  0  0
  8  5  1  6  0  0  0
  8  7  1  0  0  0  0
  9 10  1  0  0  0  0
  9  6  1  1  0  0  0
 10 11  1  1  0  0  0
 13 17  1  1  0  0  0
 13  8  1  0  0  0  0
 13 14  1  0  0  0  0
 14 12  1  1  0  0  0
 14  9  1  0  0  0  0
 16 15  1  0  0  0  0
 18 17  1  0  0  0  0
 19 20  1  0  0  0  0
 20 18  1  0  0  0  0
 21 22  1  0  0  0  0
 22 23  1  0  0  0  0
 23 25  1  0  0  0  0
 24 23  2  0  0  0  0
 26 25  1  6  0  0  0
 26 38  1  0  0  0  0
 27 32  1  0  0  0  0
 27 28  1  0  0  0  0
 29 26  1  6  0  0  0
 30 29  1  0  0  0  0
 30 33  1  0  0  0  0
 31 29  1  0  0  0  0
 31 28  1  0  0  0  0
 32 33  1  0  0  0  0
 34 35  1  0  0  0  0
 36 35  1  0  0  0  0
 37 38  1  0  0  0  0
 37 39  1  0  0  0  0
 38 34  1  0  0  0  0
 39 36  1  0  0  0  0
M  END
>  <MODEL>
2

>  <REMARK>
 VINA RESULT:      -6.8      2.408      4.781
  Name = 
  14 active torsions:
  status: ('A' for Active; 'I' for Inactive)
    1  A    between atoms: C_1  and  C_6
    2  A    between atoms: C_1  and  C_32
    3  A    between atoms: C_4  and  C_37
    4  A    between atoms: C_5  and  O_24
    5  A    between atoms: C_5  and  O_38
    6  A    between atoms: C_6  and  C_11
    7  A    between atoms: C_7  and  O_9
    8  A    between atoms: O_9  and  C_35
    9  A    between atoms: C_10  and  C_35
   10  A    between atoms: C_11  and  C_21
   11  A    between atoms: C_11  and  C_30
   12  A    between atoms: C_13  and  C_18
   13  A    between atoms: C_18  and  C_32
   14  A    between atoms: C_33  and  O_38
                            x       y       z     vdW  Elec       q    Type
                         _______ _______ _______ _____ _____    ______ ____

>  <TORSDO>
F 14

$$$$
=
 OpenBabel11072409243D

 39 42  0  0  1  0  0  0  0  0999 V2000
  190.9950  172.2630  143.9560 C   0  0  2  0  0  3  0  0  0  0  0  0
  190.0640  173.4560  143.8910 C   0  0  2  0  0  3  0  0  0  0  0  0
  189.7340  172.2900  144.7980 C   0  0  0  0  0  2  0  0  0  0  0  0
  192.0930  172.5860  144.7540 O   0  0  0  0  0  0  0  0  0  0  0  0
  193.1760  172.6060  143.8740 C   0  0  0  0  0  2  0  0  0  0  0  0
  196.6670  177.0690  143.5630 O   0  0  0  0  0  1  0  0  0  0  0  0
  195.0310  174.0220  144.8970 C   0  0  2  0  0  3  0  0  0  0  0  0
  193.8530  173.9690  143.9080 C   0  0  1  0  0  3  0  0  0  0  0  0
  195.5560  176.2300  143.6600 C   0  0  2  0  0  3  0  0  0  0  0  0
  195.6300  175.4370  144.9750 C   0  0  1  0  0  3  0  0  0  0  0  0
  194.9960  176.1610  145.9860 O   0  0  0  0  0  1  0  0  0  0  0  0
  195.5350  176.0440  141.2580 O   0  0  0  0  0  1  0  0  0  0  0  0
  194.2190  174.4270  142.4840 C   0  0  2  0  0  3  0  0  0  0  0  0
  195.4830  175.3070  142.4430 C   0  0  2  0  0  3  0  0  0  0  0  0
  196.6140  172.3240  145.8290 C   0  0  0  0  0  1  0  0  0  0  0  0
  196.1120  172.9940  144.5630 C   0  0  0  0  0  2  0  0  0  0  0  0
  193.1270  175.1040  141.9300 O   0  0  0  0  0  0  0  0  0  0  0  0
  192.5800  174.2090  141.0070 C   0  0  0  0  0  2  0  0  0  0  0  0
  193.1530  173.8310  138.9140 C   0  0  0  0  0  1  0  0  0  0  0  0
  193.5980  173.6680  140.2240 O   0  0  0  0  0  0  0  0  0  0  0  0
  189.2340  173.3700  142.6210 C   0  0  0  0  0  2  0  0  0  0  0  0
  189.1400  174.7310  141.9450 C   0  0  0  0  0  2  0  0  0  0  0  0
  188.1030  175.5910  142.5940 C   0  0  0  0  0  0  0  0  0  0  0  0
  186.9200  175.2980  142.5040 O   0  0  0  0  0  0  0  0  0  0  0  0
  188.5200  176.8330  143.3180 C   0  0  0  0  0  2  0  0  0  0  0  0
  188.0560  176.9000  144.7810 C   0  0  2  0  0  3  0  0  0  0  0  0
  183.9690  178.6260  145.7200 C   0  0  0  0  0  2  0  0  0  0  0  0
  185.0970  178.4760  146.7340 C   0  0  0  0  0  2  0  0  0  0  0  0
  186.9620  177.9280  145.1080 C   0  0  1  0  0  3  0  0  0  0  0  0
  186.1540  178.2400  143.9330 N   0  0  0  0  0  2  0  0  0  0  0  0
  186.0910  177.4220  146.2560 C   0  0  0  0  0  2  0  0  0  0  0  0
  184.2720  179.6670  144.6390 C   0  0  0  0  0  2  0  0  0  0  0  0
  185.6970  179.6150  144.0870 C   0  0  0  0  0  2  0  0  0  0  0  0
  190.5410  176.8320  145.1610 C   0  0  0  0  0  2  0  0  0  0  0  0
  191.6870  176.4650  146.1160 C   0  0  0  0  0  2  0  0  0  0  0  0
  191.2160  176.3000  147.4920 N   0  0  0  0  0  2  0  0  0  0  0  0
  189.0240  175.4730  146.6770 C   0  0  0  0  0  2  0  0  0  0  0  0
  189.1650  176.7440  145.8270 C   0  0  0  0  0  3  0  0  0  0  0  0
  190.2750  175.1810  147.5160 C   0  0  0  0  0  2  0  0  0  0  0  0
  1  4  1  1  0  0  0
  1  3  1  0  0  0  0
  2 21  1  6  0  0  0
  2  1  1  0  0  0  0
  2  3  1  0  0  0  0
  5  4  1  0  0  0  0
  7 16  1  6  0  0  0
  7 10  1  0  0  0  0
  8  5  1  6  0  0  0
  8  7  1  0  0  0  0
  9  6  1  6  0  0  0
  9 10  1  0  0  0  0
 10 11  1  1  0  0  0
 13 17  1  1  0  0  0
 13  8  1  0  0  0  0
 14 12  1  6  0  0  0
 14 13  1  0  0  0  0
 14  9  1  0  0  0  0
 16 15  1  0  0  0  0
 18 17  1  0  0  0  0
 19 20  1  0  0  0  0
 20 18  1  0  0  0  0
 22 23  1  0  0  0  0
 22 21  1  0  0  0  0
 23 25  1  0  0  0  0
 24 23  2  0  0  0  0
 26 25  1  6  0  0  0
 26 38  1  0  0  0  0
 27 28  1  0  0  0  0
 29 26  1  6  0  0  0
 29 31  1  0  0  0  0
 30 33  1  0  0  0  0
 30 29  1  0  0  0  0
 31 28  1  0  0  0  0
 32 27  1  0  0  0  0
 33 32  1  0  0  0  0
 34 38  1  0  0  0  0
 34 35  1  0  0  0  0
 35 36  1  0  0  0  0
 36 39  1  0  0  0  0
 37 39  1  0  0  0  0
 38 37  1  0  0  0  0
M  END
>  <MODEL>
3

>  <REMARK>
 VINA RESULT:      -6.7      3.065      8.769
  Name = 
  14 active torsions:
  status: ('A' for Active; 'I' for Inactive)
    1  A    between atoms: C_1  and  C_6
    2  A    between atoms: C_1  and  C_32
    3  A    between atoms: C_4  and  C_37
    4  A    between atoms: C_5  and  O_24
    5  A    between atoms: C_5  and  O_38
    6  A    between atoms: C_6  and  C_11
    7  A    between atoms: C_7  and  O_9
    8  A    between atoms: O_9  and  C_35
    9  A    between atoms: C_10  and  C_35
   10  A    between atoms: C_11  and  C_21
   11  A    between atoms: C_11  and  C_30
   12  A    between atoms: C_13  and  C_18
   13  A    between atoms: C_18  and  C_32
   14  A    between atoms: C_33  and  O_38
                            x       y       z     vdW  Elec       q    Type
                         _______ _______ _______ _____ _____    ______ ____

>  <TORSDO>
F 14

$$$$
=
 OpenBabel11072409243D

 39 42  0  0  1  0  0  0  0  0999 V2000
  190.4860  176.7410  146.7960 C   0  0  2  0  0  3  0  0  0  0  0  0
  190.9870  175.4750  147.4610 C   0  0  2  0  0  3  0  0  0  0  0  0
  191.2440  176.8200  148.1070 C   0  0  0  0  0  2  0  0  0  0  0  0
  189.1190  176.8730  147.0410 O   0  0  0  0  0  0  0  0  0  0  0  0
  188.5100  176.0180  146.1210 C   0  0  0  0  0  2  0  0  0  0  0  0
  187.3600  177.6010  140.7940 O   0  0  0  0  0  1  0  0  0  0  0  0
  189.2360  176.2440  143.6890 C   0  0  2  0  0  3  0  0  0  0  0  0
  188.2920  176.7410  144.7990 C   0  0  1  0  0  3  0  0  0  0  0  0
  187.6220  177.5680  142.1640 C   0  0  2  0  0  3  0  0  0  0  0  0
  189.0540  177.0600  142.3970 C   0  0  1  0  0  3  0  0  0  0  0  0
  189.9340  178.1430  142.3980 O   0  0  0  0  0  1  0  0  0  0  0  0
  185.2900  177.1080  142.5600 O   0  0  0  0  0  1  0  0  0  0  0  0
  186.8040  176.7120  144.4050 C   0  0  2  0  0  3  0  0  0  0  0  0
  186.5870  176.6990  142.8800 C   0  0  2  0  0  3  0  0  0  0  0  0
  190.4040  174.0400  143.5200 C   0  0  0  0  0  1  0  0  0  0  0  0
  189.0670  174.7500  143.4150 C   0  0  0  0  0  2  0  0  0  0  0  0
  186.1590  177.8100  144.9860 O   0  0  0  0  0  0  0  0  0  0  0  0
  185.2380  177.2550  145.8780 C   0  0  0  0  0  2  0  0  0  0  0  0
  185.4970  178.5520  147.6390 C   0  0  0  0  0  1  0  0  0  0  0  0
  184.6150  178.2740  146.5980 O   0  0  0  0  0  0  0  0  0  0  0  0
  192.2410  175.0030  146.7440 C   0  0  0  0  0  2  0  0  0  0  0  0
  192.8000  176.1030  145.8530 C   0  0  0  0  0  2  0  0  0  0  0  0
  194.2770  176.2530  146.0340 C   0  0  0  0  0  0  0  0  0  0  0  0
  194.8020  177.3490  145.9080 O   0  0  0  0  0  0  0  0  0  0  0  0
  195.1120  175.0450  146.3280 C   0  0  0  0  0  2  0  0  0  0  0  0
  195.7830  174.4230  145.0950 C   0  0  2  0  0  3  0  0  0  0  0  0
  195.4970  175.1000  140.6190 C   0  0  0  0  0  2  0  0  0  0  0  0
  194.2990  174.9710  141.5520 C   0  0  0  0  0  2  0  0  0  0  0  0
  195.5450  175.1330  143.7530 C   0  0  1  0  0  3  0  0  0  0  0  0
  196.8030  175.5110  143.1180 N   0  0  0  0  0  2  0  0  0  0  0  0
  194.7080  174.2480  142.8310 C   0  0  0  0  0  2  0  0  0  0  0  0
  196.3090  176.3750  140.8630 C   0  0  0  0  0  2  0  0  0  0  0  0
  196.5390  176.7120  142.3370 C   0  0  0  0  0  2  0  0  0  0  0  0
  194.4660  172.3430  145.6120 C   0  0  0  0  0  2  0  0  0  0  0  0
  194.4900  170.8200  145.8010 C   0  0  0  0  0  2  0  0  0  0  0  0
  195.6950  170.2190  145.2270 N   0  0  0  0  0  2  0  0  0  0  0  0
  197.0000  172.2640  145.7460 C   0  0  0  0  0  2  0  0  0  0  0  0
  195.7820  172.8910  145.0520 C   0  0  0  0  0  3  0  0  0  0  0  0
  196.8510  170.7500  145.9470 C   0  0  0  0  0  2  0  0  0  0  0  0
  1  4  1  1  0  0  0
  1  2  1  0  0  0  0
  1  3  1  0  0  0  0
  2 21  1  6  0  0  0
  2  3  1  0  0  0  0
  5  4  1  0  0  0  0
  7 16  1  6  0  0  0
  7  8  1  0  0  0  0
  8  5  1  1  0  0  0
  9  6  1  6  0  0  0
  9 10  1  0  0  0  0
  9 14  1  0  0  0  0
 10 11  1  1  0  0  0
 10  7  1  0  0  0  0
 13  8  1  0  0  0  0
 13 17  1  6  0  0  0
 14 12  1  1  0  0  0
 14 13  1  0  0  0  0
 16 15  1  0  0  0  0
 17 18  1  0  0  0  0
 18 20  1  0  0  0  0
 20 19  1  0  0  0  0
 22 23  1  0  0  0  0
 22 21  1  0  0  0  0
 23 25  1  0  0  0  0
 24 23  2  0  0  0  0
 26 25  1  1  0  0  0
 27 32  1  0  0  0  0
 27 28  1  0  0  0  0
 28 31  1  0  0  0  0
 29 26  1  1  0  0  0
 30 29  1  0  0  0  0
 31 29  1  0  0  0  0
 32 33  1  0  0  0  0
 33 30  1  0  0  0  0
 34 35  1  0  0  0  0
 36 35  1  0  0  0  0
 36 39  1  0  0  0  0
 37 39  1  0  0  0  0
 38 26  1  0  0  0  0
 38 34  1  0  0  0  0
 38 37  1  0  0  0  0
M  END
>  <MODEL>
4

>  <REMARK>
 VINA RESULT:      -6.7      0.865      3.445
  Name = 
  14 active torsions:
  status: ('A' for Active; 'I' for Inactive)
    1  A    between atoms: C_1  and  C_6
    2  A    between atoms: C_1  and  C_32
    3  A    between atoms: C_4  and  C_37
    4  A    between atoms: C_5  and  O_24
    5  A    between atoms: C_5  and  O_38
    6  A    between atoms: C_6  and  C_11
    7  A    between atoms: C_7  and  O_9
    8  A    between atoms: O_9  and  C_35
    9  A    between atoms: C_10  and  C_35
   10  A    between atoms: C_11  and  C_21
   11  A    between atoms: C_11  and  C_30
   12  A    between atoms: C_13  and  C_18
   13  A    between atoms: C_18  and  C_32
   14  A    between atoms: C_33  and  O_38
                            x       y       z     vdW  Elec       q    Type
                         _______ _______ _______ _____ _____    ______ ____

>  <TORSDO>
F 14

$$$$
=
 OpenBabel11072409243D

 39 42  0  0  1  0  0  0  0  0999 V2000
  190.5100  177.2300  143.1040 C   0  0  2  0  0  3  0  0  0  0  0  0
  191.1950  177.7850  144.3370 C   0  0  2  0  0  3  0  0  0  0  0  0
  191.8150  177.9920  142.9720 C   0  0  0  0  0  2  0  0  0  0  0  0
  189.4480  178.0660  142.7600 O   0  0  0  0  0  0  0  0  0  0  0  0
  188.3140  177.2580  142.8610 C   0  0  0  0  0  2  0  0  0  0  0  0
  183.7520  178.8060  145.8600 O   0  0  0  0  0  1  0  0  0  0  0  0
  186.1290  178.5590  143.0270 C   0  0  2  0  0  3  0  0  0  0  0  0
  187.2930  177.9010  143.7890 C   0  0  1  0  0  3  0  0  0  0  0  0
  185.0470  178.6220  145.3730 C   0  0  2  0  0  3  0  0  0  0  0  0
  185.1690  179.2790  143.9890 C   0  0  1  0  0  3  0  0  0  0  0  0
  185.5680  180.6080  144.1430 O   0  0  0  0  0  1  0  0  0  0  0  0
  185.1560  176.5310  146.5670 O   0  0  0  0  0  1  0  0  0  0  0  0
  186.8410  176.9030  144.8700 C   0  0  2  0  0  3  0  0  0  0  0  0
  185.3870  177.1310  145.3260 C   0  0  2  0  0  3  0  0  0  0  0  0
  185.1910  178.1080  140.7530 C   0  0  0  0  0  1  0  0  0  0  0  0
  185.3720  177.5570  142.1550 C   0  0  0  0  0  2  0  0  0  0  0  0
  187.7180  176.9820  145.9580 O   0  0  0  0  0  0  0  0  0  0  0  0
  188.5340  175.8540  145.8440 C   0  0  0  0  0  2  0  0  0  0  0  0
  188.9310  174.5400  147.5670 C   0  0  0  0  0  1  0  0  0  0  0  0
  189.3310  175.7400  146.9830 O   0  0  0  0  0  0  0  0  0  0  0  0
  191.9080  176.6540  145.0590 C   0  0  0  0  0  2  0  0  0  0  0  0
  193.4130  176.7400  144.8420 C   0  0  0  0  0  2  0  0  0  0  0  0
  194.1350  175.6750  145.6030 C   0  0  0  0  0  0  0  0  0  0  0  0
  195.3300  175.7860  145.8280 O   0  0  0  0  0  0  0  0  0  0  0  0
  193.3930  174.4540  146.0510 C   0  0  0  0  0  2  0  0  0  0  0  0
  193.5280  173.2500  145.1070 C   0  0  2  0  0  3  0  0  0  0  0  0
  189.9820  173.8170  142.3380 C   0  0  0  0  0  2  0  0  0  0  0  0
  191.3080  173.1890  141.9260 C   0  0  0  0  0  2  0  0  0  0  0  0
  192.3040  172.9160  144.2400 C   0  0  1  0  0  3  0  0  0  0  0  0
  191.0590  173.2640  144.9180 N   0  0  0  0  0  2  0  0  0  0  0  0
  192.4110  173.6200  142.8880 C   0  0  0  0  0  2  0  0  0  0  0  0
  189.1970  172.9550  143.3320 C   0  0  0  0  0  2  0  0  0  0  0  0
  190.0450  172.3340  144.4430 C   0  0  0  0  0  2  0  0  0  0  0  0
  195.7990  172.3190  145.6610 C   0  0  0  0  0  2  0  0  0  0  0  0
  196.6270  171.0760  146.0160 C   0  0  0  0  0  2  0  0  0  0  0  0
  195.7830  169.9730  146.4770 N   0  0  0  0  0  2  0  0  0  0  0  0
  193.9400  170.7230  144.9950 C   0  0  0  0  0  2  0  0  0  0  0  0
  194.2910  172.0500  145.6810 C   0  0  0  0  0  3  0  0  0  0  0  0
  194.9020  169.5890  145.3750 C   0  0  0  0  0  2  0  0  0  0  0  0
  1  4  1  6  0  0  0
  1  2  1  0  0  0  0
  2 21  1  1  0  0  0
  3  1  1  0  0  0  0
  3  2  1  0  0  0  0
  4  5  1  0  0  0  0
  7 16  1  1  0  0  0
  7  8  1  0  0  0  0
  7 10  1  0  0  0  0
  8  5  1  6  0  0  0
  8 13  1  0  0  0  0
  9  6  1  6  0  0  0
 10 11  1  1  0  0  0
 10  9  1  0  0  0  0
 13 14  1  0  0  0  0
 13 17  1  1  0  0  0
 14  9  1  0  0  0  0
 14 12  1  1  0  0  0
 15 16  1  0  0  0  0
 18 17  1  0  0  0  0
 18 20  1  0  0  0  0
 20 19  1  0  0  0  0
 22 21  1  0  0  0  0
 22 23  1  0  0  0  0
 23 24  2  0  0  0  0
 23 25  1  0  0  0  0
 26 38  1  0  0  0  0
 26 25  1  1  0  0  0
 27 32  1  0  0  0  0
 28 27  1  0  0  0  0
 28 31  1  0  0  0  0
 29 30  1  0  0  0  0
 29 26  1  1  0  0  0
 31 29  1  0  0  0  0
 32 33  1  0  0  0  0
 33 30  1  0  0  0  0
 34 38  1  0  0  0  0
 34 35  1  0  0  0  0
 35 36  1  0  0  0  0
 37 39  1  0  0  0  0
 37 38  1  0  0  0  0
 39 36  1  0  0  0  0
M  END
>  <MODEL>
5

>  <REMARK>
 VINA RESULT:      -6.7      2.234      4.844
  Name = 
  14 active torsions:
  status: ('A' for Active; 'I' for Inactive)
    1  A    between atoms: C_1  and  C_6
    2  A    between atoms: C_1  and  C_32
    3  A    between atoms: C_4  and  C_37
    4  A    between atoms: C_5  and  O_24
    5  A    between atoms: C_5  and  O_38
    6  A    between atoms: C_6  and  C_11
    7  A    between atoms: C_7  and  O_9
    8  A    between atoms: O_9  and  C_35
    9  A    between atoms: C_10  and  C_35
   10  A    between atoms: C_11  and  C_21
   11  A    between atoms: C_11  and  C_30
   12  A    between atoms: C_13  and  C_18
   13  A    between atoms: C_18  and  C_32
   14  A    between atoms: C_33  and  O_38
                            x       y       z     vdW  Elec       q    Type
                         _______ _______ _______ _____ _____    ______ ____

>  <TORSDO>
F 14

$$$$
=
 OpenBabel11072409243D

 39 42  0  0  1  0  0  0  0  0999 V2000
  190.5140  173.5400  141.4760 C   0  0  2  0  0  3  0  0  0  0  0  0
  189.2610  172.6980  141.6050 C   0  0  2  0  0  3  0  0  0  0  0  0
  190.0630  172.6660  140.3210 C   0  0  0  0  0  2  0  0  0  0  0  0
  191.5570  172.9110  142.1550 O   0  0  0  0  0  0  0  0  0  0  0  0
  191.8330  173.7510  143.2360 C   0  0  0  0  0  2  0  0  0  0  0  0
  196.6480  176.7300  143.6090 O   0  0  0  0  0  1  0  0  0  0  0  0
  193.1750  175.8410  142.6670 C   0  0  2  0  0  3  0  0  0  0  0  0
  193.2200  174.3600  143.0840 C   0  0  1  0  0  3  0  0  0  0  0  0
  195.6740  175.7720  143.3270 C   0  0  2  0  0  3  0  0  0  0  0  0
  194.5910  176.3960  142.4310 C   0  0  1  0  0  3  0  0  0  0  0  0
  194.9460  176.2260  141.0920 O   0  0  0  0  0  1  0  0  0  0  0  0
  196.1000  174.7610  145.4720 O   0  0  0  0  0  1  0  0  0  0  0  0
  194.0670  174.0960  144.3430 C   0  0  2  0  0  3  0  0  0  0  0  0
  195.0870  175.2160  144.6250 C   0  0  2  0  0  3  0  0  0  0  0  0
  191.3370  177.5080  142.9770 C   0  0  0  0  0  1  0  0  0  0  0  0
  192.4170  176.7020  143.6760 C   0  0  0  0  0  2  0  0  0  0  0  0
  194.7130  172.8630  144.2060 O   0  0  0  0  0  0  0  0  0  0  0  0
  194.1890  172.0670  145.2280 C   0  0  0  0  0  2  0  0  0  0  0  0
  194.8830  170.0880  145.9020 C   0  0  0  0  0  1  0  0  0  0  0  0
  195.2310  171.4370  145.9070 O   0  0  0  0  0  0  0  0  0  0  0  0
  188.0440  173.5890  141.4270 C   0  0  0  0  0  2  0  0  0  0  0  0
  188.4590  174.9890  140.9940 C   0  0  0  0  0  2  0  0  0  0  0  0
  187.9540  176.0260  141.9450 C   0  0  0  0  0  0  0  0  0  0  0  0
  188.0390  177.2110  141.6630 O   0  0  0  0  0  0  0  0  0  0  0  0
  187.3810  175.6040  143.2630 C   0  0  0  0  0  2  0  0  0  0  0  0
  187.4040  176.6970  144.3420 C   0  0  2  0  0  3  0  0  0  0  0  0
  191.0480  176.5450  147.0380 C   0  0  0  0  0  2  0  0  0  0  0  0
  189.8750  177.5010  147.2230 C   0  0  0  0  0  2  0  0  0  0  0  0
  188.2780  176.4240  145.5760 C   0  0  1  0  0  3  0  0  0  0  0  0
  189.1230  175.2500  145.3840 N   0  0  0  0  0  2  0  0  0  0  0  0
  189.1170  177.6570  145.9090 C   0  0  0  0  0  2  0  0  0  0  0  0
  190.6710  175.0830  147.2950 C   0  0  0  0  0  2  0  0  0  0  0  0
  189.3290  174.6570  146.6980 C   0  0  0  0  0  2  0  0  0  0  0  0
  186.1050  178.8420  144.1560 C   0  0  0  0  0  2  0  0  0  0  0  0
  184.8680  179.6390  144.5960 C   0  0  0  0  0  2  0  0  0  0  0  0
  183.8440  178.7730  145.1830 N   0  0  0  0  0  2  0  0  0  0  0  0
  185.5920  177.2510  146.0670 C   0  0  0  0  0  2  0  0  0  0  0  0
  186.0580  177.3800  144.6110 C   0  0  0  0  0  3  0  0  0  0  0  0
  184.4030  178.1670  146.3900 C   0  0  0  0  0  2  0  0  0  0  0  0
  1  2  1  0  0  0  0
  1  4  1  1  0  0  0
  2 21  1  6  0  0  0
  3  1  1  0  0  0  0
  3  2  1  0  0  0  0
  4  5  1  0  0  0  0
  7  8  1  0  0  0  0
  7 16  1  1  0  0  0
  8  5  1  1  0  0  0
  8 13  1  0  0  0  0
  9  6  1  1  0  0  0
  9 14  1  0  0  0  0
 10 11  1  6  0  0  0
 10  7  1  0  0  0  0
 10  9  1  0  0  0  0
 13 17  1  6  0  0  0
 13 14  1  0  0  0  0
 14 12  1  1  0  0  0
 15 16  1  0  0  0  0
 17 18  1  0  0  0  0
 18 20  1  0  0  0  0
 19 20  1  0  0  0  0
 22 21  1  0  0  0  0
 22 23  1  0  0  0  0
 23 25  1  0  0  0  0
 24 23  2  0  0  0  0
 26 25  1  1  0  0  0
 26 38  1  0  0  0  0
 27 28  1  0  0  0  0
 27 32  1  0  0  0  0
 29 26  1  6  0  0  0
 29 31  1  0  0  0  0
 30 29  1  0  0  0  0
 30 33  1  0  0  0  0
 31 28  1  0  0  0  0
 33 32  1  0  0  0  0
 34 35  1  0  0  0  0
 34 38  1  0  0  0  0
 35 36  1  0  0  0  0
 36 39  1  0  0  0  0
 37 39  1  0  0  0  0
 38 37  1  0  0  0  0
M  END
>  <MODEL>
6

>  <REMARK>
 VINA RESULT:      -6.6      3.446      8.651
  Name = 
  14 active torsions:
  status: ('A' for Active; 'I' for Inactive)
    1  A    between atoms: C_1  and  C_6
    2  A    between atoms: C_1  and  C_32
    3  A    between atoms: C_4  and  C_37
    4  A    between atoms: C_5  and  O_24
    5  A    between atoms: C_5  and  O_38
    6  A    between atoms: C_6  and  C_11
    7  A    between atoms: C_7  and  O_9
    8  A    between atoms: O_9  and  C_35
    9  A    between atoms: C_10  and  C_35
   10  A    between atoms: C_11  and  C_21
   11  A    between atoms: C_11  and  C_30
   12  A    between atoms: C_13  and  C_18
   13  A    between atoms: C_18  and  C_32
   14  A    between atoms: C_33  and  O_38
                            x       y       z     vdW  Elec       q    Type
                         _______ _______ _______ _____ _____    ______ ____

>  <TORSDO>
F 14

$$$$
=
 OpenBabel11072409243D

 39 42  0  0  1  0  0  0  0  0999 V2000
  191.1710  172.4460  143.7460 C   0  0  2  0  0  3  0  0  0  0  0  0
  190.2760  173.6600  143.8910 C   0  0  2  0  0  3  0  0  0  0  0  0
  189.9430  172.3830  144.6330 C   0  0  0  0  0  2  0  0  0  0  0  0
  192.3070  172.6210  144.5360 O   0  0  0  0  0  0  0  0  0  0  0  0
  193.3680  172.6550  143.6300 C   0  0  0  0  0  2  0  0  0  0  0  0
  196.8340  177.1470  143.5270 O   0  0  0  0  0  1  0  0  0  0  0  0
  194.9430  174.2450  144.8480 C   0  0  2  0  0  3  0  0  0  0  0  0
  194.0180  174.0320  143.6360 C   0  0  1  0  0  3  0  0  0  0  0  0
  195.7310  176.2940  143.4820 C   0  0  2  0  0  3  0  0  0  0  0  0
  195.5070  175.6770  144.8730 C   0  0  1  0  0  3  0  0  0  0  0  0
  194.6610  176.5030  145.6130 O   0  0  0  0  0  1  0  0  0  0  0  0
  196.2520  175.8040  141.1810 O   0  0  0  0  0  1  0  0  0  0  0  0
  194.6950  174.3160  142.2830 C   0  0  2  0  0  3  0  0  0  0  0  0
  195.9350  175.2220  142.4110 C   0  0  2  0  0  3  0  0  0  0  0  0
  197.0180  173.5290  146.0460 C   0  0  0  0  0  1  0  0  0  0  0  0
  196.0720  173.2170  144.9000 C   0  0  0  0  0  2  0  0  0  0  0  0
  193.7560  174.8840  141.4150 O   0  0  0  0  0  0  0  0  0  0  0  0
  193.6470  173.9760  140.3590 C   0  0  0  0  0  2  0  0  0  0  0  0
  191.8320  172.7740  140.0200 C   0  0  0  0  0  1  0  0  0  0  0  0
  192.3640  174.0450  139.8170 O   0  0  0  0  0  0  0  0  0  0  0  0
  189.3990  173.7800  142.6560 C   0  0  0  0  0  2  0  0  0  0  0  0
  189.5470  175.1560  142.0210 C   0  0  0  0  0  2  0  0  0  0  0  0
  188.2810  175.9440  142.1270 C   0  0  0  0  0  0  0  0  0  0  0  0
  187.9020  176.6250  141.1860 O   0  0  0  0  0  0  0  0  0  0  0  0
  187.5030  175.9260  143.4060 C   0  0  0  0  0  2  0  0  0  0  0  0
  187.8200  177.0900  144.3570 C   0  0  2  0  0  3  0  0  0  0  0  0
  191.4960  175.5580  146.5260 C   0  0  0  0  0  2  0  0  0  0  0  0
  191.2290  177.0240  146.2060 C   0  0  0  0  0  2  0  0  0  0  0  0
  188.8070  176.7970  145.4970 C   0  0  1  0  0  3  0  0  0  0  0  0
  188.7100  175.4120  145.9440 N   0  0  0  0  0  2  0  0  0  0  0  0
  190.2310  177.1350  145.0580 C   0  0  0  0  0  2  0  0  0  0  0  0
  190.5220  174.9860  147.5610 C   0  0  0  0  0  2  0  0  0  0  0  0
  189.0630  175.3980  147.3570 C   0  0  0  0  0  2  0  0  0  0  0  0
  185.7700  177.3220  145.7960 C   0  0  0  0  0  2  0  0  0  0  0  0
  184.4470  178.0630  146.0400 C   0  0  0  0  0  2  0  0  0  0  0  0
  184.3960  179.3360  145.3190 N   0  0  0  0  0  2  0  0  0  0  0  0
  185.7900  178.3960  143.4950 C   0  0  0  0  0  2  0  0  0  0  0  0
  186.6280  177.9860  144.7140 C   0  0  0  0  0  3  0  0  0  0  0  0
  184.4560  179.0460  143.8870 C   0  0  0  0  0  2  0  0  0  0  0  0
  1  2  1  0  0  0  0
  1  4  1  1  0  0  0
  1  3  1  0  0  0  0
  2 21  1  6  0  0  0
  2  3  1  0  0  0  0
  5  4  1  0  0  0  0
  7 10  1  0  0  0  0
  7 16  1  6  0  0  0
  8  5  1  6  0  0  0
  8  7  1  0  0  0  0
  9  6  1  1  0  0  0
  9 10  1  0  0  0  0
 10 11  1  1  0  0  0
 13 17  1  6  0  0  0
 13 14  1  0  0  0  0
 13  8  1  0  0  0  0
 14 12  1  6  0  0  0
 14  9  1  0  0  0  0
 16 15  1  0  0  0  0
 18 17  1  0  0  0  0
 20 19  1  0  0  0  0
 20 18  1  0  0  0  0
 22 23  1  0  0  0  0
 22 21  1  0  0  0  0
 23 25  1  0  0  0  0
 24 23  2  0  0  0  0
 26 25  1  1  0  0  0
 26 38  1  0  0  0  0
 27 32  1  0  0  0  0
 28 27  1  0  0  0  0
 29 26  1  6  0  0  0
 29 30  1  0  0  0  0
 30 33  1  0  0  0  0
 31 29  1  0  0  0  0
 31 28  1  0  0  0  0
 33 32  1  0  0  0  0
 34 35  1  0  0  0  0
 36 35  1  0  0  0  0
 37 39  1  0  0  0  0
 37 38  1  0  0  0  0
 38 34  1  0  0  0  0
 39 36  1  0  0  0  0
M  END
>  <MODEL>
7

>  <REMARK>
 VINA RESULT:      -6.4      3.380      8.427
  Name = 
  14 active torsions:
  status: ('A' for Active; 'I' for Inactive)
    1  A    between atoms: C_1  and  C_6
    2  A    between atoms: C_1  and  C_32
    3  A    between atoms: C_4  and  C_37
    4  A    between atoms: C_5  and  O_24
    5  A    between atoms: C_5  and  O_38
    6  A    between atoms: C_6  and  C_11
    7  A    between atoms: C_7  and  O_9
    8  A    between atoms: O_9  and  C_35
    9  A    between atoms: C_10  and  C_35
   10  A    between atoms: C_11  and  C_21
   11  A    between atoms: C_11  and  C_30
   12  A    between atoms: C_13  and  C_18
   13  A    between atoms: C_18  and  C_32
   14  A    between atoms: C_33  and  O_38
                            x       y       z     vdW  Elec       q    Type
                         _______ _______ _______ _____ _____    ______ ____

>  <TORSDO>
F 14

$$$$
=
 OpenBabel11072409243D

 39 42  0  0  1  0  0  0  0  0999 V2000
  191.0970  172.4660  143.0490 C   0  0  2  0  0  3  0  0  0  0  0  0
  189.6810  171.9460  142.9120 C   0  0  2  0  0  3  0  0  0  0  0  0
  190.7300  171.5550  141.8930 C   0  0  0  0  0  2  0  0  0  0  0  0
  191.7600  171.7270  144.0290 O   0  0  0  0  0  0  0  0  0  0  0  0
  192.2770  172.6830  144.9040 C   0  0  0  0  0  2  0  0  0  0  0  0
  197.7090  174.3080  144.6690 O   0  0  0  0  0  1  0  0  0  0  0  0
  194.0100  174.5240  144.5820 C   0  0  2  0  0  3  0  0  0  0  0  0
  193.7150  173.0140  144.5300 C   0  0  1  0  0  3  0  0  0  0  0  0
  196.4640  173.7260  144.4270 C   0  0  2  0  0  3  0  0  0  0  0  0
  195.4410  174.8290  144.1070 C   0  0  1  0  0  3  0  0  0  0  0  0
  195.4380  175.0700  142.7320 O   0  0  0  0  0  1  0  0  0  0  0  0
  197.0280  171.9650  145.9720 O   0  0  0  0  0  1  0  0  0  0  0  0
  194.6980  172.1620  145.3530 C   0  0  2  0  0  3  0  0  0  0  0  0
  196.0320  172.8820  145.6270 C   0  0  2  0  0  3  0  0  0  0  0  0
  194.5800  176.3770  146.1610 C   0  0  0  0  0  1  0  0  0  0  0  0
  193.7630  175.1110  145.9710 C   0  0  0  0  0  2  0  0  0  0  0  0
  194.9180  170.9510  144.6880 O   0  0  0  0  0  0  0  0  0  0  0  0
  194.5520  169.9640  145.6060 C   0  0  0  0  0  2  0  0  0  0  0  0
  193.3620  168.7280  144.2250 C   0  0  0  0  0  1  0  0  0  0  0  0
  194.5360  168.7220  144.9730 O   0  0  0  0  0  0  0  0  0  0  0  0
  188.8000  173.0470  142.3470 C   0  0  0  0  0  2  0  0  0  0  0  0
  189.6340  174.2670  141.9760 C   0  0  0  0  0  2  0  0  0  0  0  0
  188.7910  175.5000  141.8990 C   0  0  0  0  0  0  0  0  0  0  0  0
  188.0150  175.6550  140.9690 O   0  0  0  0  0  0  0  0  0  0  0  0
  188.9360  176.5600  142.9460 C   0  0  0  0  0  2  0  0  0  0  0  0
  188.0480  176.3550  144.1830 C   0  0  2  0  0  3  0  0  0  0  0  0
  185.1070  179.8020  144.3610 C   0  0  0  0  0  2  0  0  0  0  0  0
  185.4220  178.9990  143.1040 C   0  0  0  0  0  2  0  0  0  0  0  0
  186.7130  177.1160  144.2030 C   0  0  1  0  0  3  0  0  0  0  0  0
  186.3600  177.5380  145.5540 N   0  0  0  0  0  2  0  0  0  0  0  0
  186.7750  178.3090  143.2510 C   0  0  0  0  0  2  0  0  0  0  0  0
  184.3660  178.9830  145.4220 C   0  0  0  0  0  2  0  0  0  0  0  0
  184.9050  177.5660  145.6220 C   0  0  0  0  0  2  0  0  0  0  0  0
  189.9550  177.2720  145.5410 C   0  0  0  0  0  2  0  0  0  0  0  0
  190.8730  177.0870  146.7590 C   0  0  0  0  0  2  0  0  0  0  0  0
  190.3220  176.1250  147.7140 N   0  0  0  0  0  2  0  0  0  0  0  0
  189.2590  174.8520  145.8680 C   0  0  0  0  0  2  0  0  0  0  0  0
  188.7950  176.2730  145.5190 C   0  0  0  0  0  3  0  0  0  0  0  0
  190.2400  174.8250  147.0490 C   0  0  0  0  0  2  0  0  0  0  0  0
  1  4  1  1  0  0  0
  2 21  1  6  0  0  0
  2  1  1  0  0  0  0
  3  2  1  0  0  0  0
  3  1  1  0  0  0  0
  4  5  1  0  0  0  0
  7 16  1  1  0  0  0
  8  7  1  0  0  0  0
  8  5  1  1  0  0  0
  8 13  1  0  0  0  0
  9  6  1  1  0  0  0
  9 14  1  0  0  0  0
 10 11  1  6  0  0  0
 10  9  1  0  0  0  0
 10  7  1  0  0  0  0
 13 17  1  6  0  0  0
 13 14  1  0  0  0  0
 14 12  1  6  0  0  0
 16 15  1  0  0  0  0
 17 18  1  0  0  0  0
 19 20  1  0  0  0  0
 20 18  1  0  0  0  0
 22 21  1  0  0  0  0
 23 22  1  0  0  0  0
 23 25  1  0  0  0  0
 24 23  2  0  0  0  0
 26 25  1  6  0  0  0
 26 38  1  0  0  0  0
 27 32  1  0  0  0  0
 28 31  1  0  0  0  0
 28 27  1  0  0  0  0
 29 26  1  1  0  0  0
 29 30  1  0  0  0  0
 30 33  1  0  0  0  0
 31 29  1  0  0  0  0
 32 33  1  0  0  0  0
 34 35  1  0  0  0  0
 35 36  1  0  0  0  0
 37 39  1  0  0  0  0
 38 34  1  0  0  0  0
 38 37  1  0  0  0  0
 39 36  1  0  0  0  0
M  END
>  <MODEL>
8

>  <REMARK>
 VINA RESULT:      -6.3      3.521      9.273
  Name = 
  14 active torsions:
  status: ('A' for Active; 'I' for Inactive)
    1  A    between atoms: C_1  and  C_6
    2  A    between atoms: C_1  and  C_32
    3  A    between atoms: C_4  and  C_37
    4  A    between atoms: C_5  and  O_24
    5  A    between atoms: C_5  and  O_38
    6  A    between atoms: C_6  and  C_11
    7  A    between atoms: C_7  and  O_9
    8  A    between atoms: O_9  and  C_35
    9  A    between atoms: C_10  and  C_35
   10  A    between atoms: C_11  and  C_21
   11  A    between atoms: C_11  and  C_30
   12  A    between atoms: C_13  and  C_18
   13  A    between atoms: C_18  and  C_32
   14  A    between atoms: C_33  and  O_38
                            x       y       z     vdW  Elec       q    Type
                         _______ _______ _______ _____ _____    ______ ____

>  <TORSDO>
F 14

$$$$
=
 OpenBabel11072409243D

 39 42  0  0  1  0  0  0  0  0999 V2000
  190.3650  176.7740  146.7810 C   0  0  2  0  0  3  0  0  0  0  0  0
  191.5270  175.8090  146.6640 C   0  0  2  0  0  3  0  0  0  0  0  0
  191.3290  176.6000  147.9390 C   0  0  0  0  0  2  0  0  0  0  0  0
  189.1990  176.0520  147.0350 O   0  0  0  0  0  0  0  0  0  0  0  0
  188.8730  175.4630  145.8130 C   0  0  0  0  0  2  0  0  0  0  0  0
  186.4740  178.5020  141.6640 O   0  0  0  0  0  1  0  0  0  0  0  0
  188.8410  176.2230  143.3810 C   0  0  2  0  0  3  0  0  0  0  0  0
  188.4070  176.5250  144.8270 C   0  0  1  0  0  3  0  0  0  0  0  0
  187.1350  178.0830  142.8190 C   0  0  2  0  0  3  0  0  0  0  0  0
  188.4360  177.3620  142.4290 C   0  0  1  0  0  3  0  0  0  0  0  0
  189.4710  178.2940  142.3440 O   0  0  0  0  0  1  0  0  0  0  0  0
  184.9980  177.8210  143.9010 O   0  0  0  0  0  1  0  0  0  0  0  0
  186.8960  176.7790  144.9800 C   0  0  2  0  0  3  0  0  0  0  0  0
  186.2200  177.1890  143.6580 C   0  0  2  0  0  3  0  0  0  0  0  0
  188.1880  174.8870  141.3700 C   0  0  0  0  0  1  0  0  0  0  0  0
  188.2990  174.8830  142.8840 C   0  0  0  0  0  2  0  0  0  0  0  0
  186.6980  177.7580  145.9600 O   0  0  0  0  0  0  0  0  0  0  0  0
  185.7560  177.2070  146.8330 C   0  0  0  0  0  2  0  0  0  0  0  0
  186.3130  178.9950  147.9930 C   0  0  0  0  0  1  0  0  0  0  0  0
  185.2170  178.2140  147.6320 O   0  0  0  0  0  0  0  0  0  0  0  0
  192.6210  176.4510  145.8270 C   0  0  0  0  0  2  0  0  0  0  0  0
  193.9770  176.3000  146.5050 C   0  0  0  0  0  2  0  0  0  0  0  0
  195.0490  175.9800  145.5130 C   0  0  0  0  0  0  0  0  0  0  0  0
  195.3780  176.8080  144.6770 O   0  0  0  0  0  0  0  0  0  0  0  0
  195.6870  174.6250  145.5240 C   0  0  0  0  0  2  0  0  0  0  0  0
  195.3570  173.7590  144.2990 C   0  0  2  0  0  3  0  0  0  0  0  0
  191.2930  172.6200  142.6380 C   0  0  0  0  0  2  0  0  0  0  0  0
  191.5280  173.1930  144.0310 C   0  0  0  0  0  2  0  0  0  0  0  0
  193.9410  173.9020  143.7190 C   0  0  1  0  0  3  0  0  0  0  0  0
  193.9250  173.6540  142.2810 N   0  0  0  0  0  2  0  0  0  0  0  0
  192.9770  172.9690  144.4500 C   0  0  0  0  0  2  0  0  0  0  0  0
  191.5790  173.6280  141.5220 C   0  0  0  0  0  2  0  0  0  0  0  0
  192.8470  174.4600  141.7250 C   0  0  0  0  0  2  0  0  0  0  0  0
  196.3040  171.9440  145.7600 C   0  0  0  0  0  2  0  0  0  0  0  0
  197.0840  170.6230  145.8260 C   0  0  0  0  0  2  0  0  0  0  0  0
  197.1260  169.9500  144.5280 N   0  0  0  0  0  2  0  0  0  0  0  0
  197.1030  172.1380  143.3570 C   0  0  0  0  0  2  0  0  0  0  0  0
  195.9300  172.3380  144.3270 C   0  0  0  0  0  3  0  0  0  0  0  0
  197.8460  170.8150  143.5940 C   0  0  0  0  0  2  0  0  0  0  0  0
  1  4  1  1  0  0  0
  1  3  1  0  0  0  0
  2 21  1  6  0  0  0
  2  1  1  0  0  0  0
  2  3  1  0  0  0  0
  5  4  1  0  0  0  0
  7 16  1  6  0  0  0
  7  8  1  0  0  0  0
  8 13  1  0  0  0  0
  8  5  1  1  0  0  0
  9  6  1  6  0  0  0
  9 14  1  0  0  0  0
 10 11  1  1  0  0  0
 10  9  1  0  0  0  0
 10  7  1  0  0  0  0
 13 17  1  1  0  0  0
 14 12  1  1  0  0  0
 14 13  1  0  0  0  0
 15 16  1  0  0  0  0
 17 18  1  0  0  0  0
 18 20  1  0  0  0  0
 20 19  1  0  0  0  0
 21 22  1  0  0  0  0
 23 25  1  0  0  0  0
 23 22  1  0  0  0  0
 24 23  2  0  0  0  0
 26 38  1  0  0  0  0
 26 25  1  1  0  0  0
 27 28  1  0  0  0  0
 28 31  1  0  0  0  0
 29 26  1  1  0  0  0
 29 31  1  0  0  0  0
 30 29  1  0  0  0  0
 32 33  1  0  0  0  0
 32 27  1  0  0  0  0
 33 30  1  0  0  0  0
 34 35  1  0  0  0  0
 36 35  1  0  0  0  0
 37 39  1  0  0  0  0
 37 38  1  0  0  0  0
 38 34  1  0  0  0  0
 39 36  1  0  0  0  0
M  END
>  <MODEL>
9

>  <REMARK>
 VINA RESULT:      -6.3      1.625      3.302
  Name = 
  14 active torsions:
  status: ('A' for Active; 'I' for Inactive)
    1  A    between atoms: C_1  and  C_6
    2  A    between atoms: C_1  and  C_32
    3  A    between atoms: C_4  and  C_37
    4  A    between atoms: C_5  and  O_24
    5  A    between atoms: C_5  and  O_38
    6  A    between atoms: C_6  and  C_11
    7  A    between atoms: C_7  and  O_9
    8  A    between atoms: O_9  and  C_35
    9  A    between atoms: C_10  and  C_35
   10  A    between atoms: C_11  and  C_21
   11  A    between atoms: C_11  and  C_30
   12  A    between atoms: C_13  and  C_18
   13  A    between atoms: C_18  and  C_32
   14  A    between atoms: C_33  and  O_38
                            x       y       z     vdW  Elec       q    Type
                         _______ _______ _______ _____ _____    ______ ____

>  <TORSDO>
F 14

$$$$
