=
 OpenBabel11062422003D

 35 37  0  0  1  0  0  0  0  0999 V2000
  192.7070  174.7620  146.0120 C   0  0  2  0  0  3  0  0  0  0  0  0
  192.3850  174.0120  144.7020 C   0  0  1  0  0  0  0  0  0  0  0  0
  191.0410  176.9620  144.9610 C   0  0  0  0  0  2  0  0  0  0  0  0
  191.5620  175.0060  148.1030 O   0  0  0  0  0  1  0  0  0  0  0  0
  191.4180  175.2220  146.7230 C   0  0  1  0  0  3  0  0  0  0  0  0
  191.1590  176.7110  146.4590 C   0  0  2  0  0  3  0  0  0  0  0  0
  192.3880  176.6940  144.2730 C   0  0  0  0  0  2  0  0  0  0  0  0
  193.1060  175.3700  144.6610 C   0  0  1  0  0  0  0  0  0  0  0  0
  193.1560  172.7170  144.6650 C   0  0  0  0  0  0  0  0  0  0  0  0
  193.3090  172.0960  143.5800 O   0  0  0  0  0  0  0  0  0  0  0  0
  193.7420  172.2150  145.8340 O   0  0  0  0  0  1  0  0  0  0  0  0
  194.6240  175.3390  144.4940 C   0  0  2  0  0  3  0  0  0  0  0  0
  195.2350  175.8260  145.6440 O   0  0  0  0  0  1  0  0  0  0  0  0
  195.0280  176.1890  143.3080 C   0  0  0  0  0  1  0  0  0  0  0  0
  190.0760  172.9330  144.6700 C   0  0  0  0  0  1  0  0  0  0  0  0
  190.9570  174.0310  144.0760 C   0  0  2  0  0  3  0  0  0  0  0  0
  189.7960  175.1290  142.0990 C   0  0  0  0  0  1  0  0  0  0  0  0
  192.0630  174.4630  142.0060 O   0  0  0  0  0  1  0  0  0  0  0  0
  190.8210  174.1100  142.5470 C   0  0  1  0  0  0  0  0  0  0  0  0
  188.9080  172.8030  140.8950 S   0  0  0  0  0  1  0  0  0  0  0  0
  190.3950  172.7380  141.9790 C   0  0  0  0  0  2  0  0  0  0  0  0
  189.9110  177.2550  147.1760 C   0  0  0  0  0  2  0  0  0  0  0  0
  188.6810  176.6840  146.6960 O   0  0  0  0  0  0  0  0  0  0  0  0
  188.0190  177.9900  143.9600 Cl  0  0  0  0  0  0  0  0  0  0  0  0
  186.6950  177.4640  147.7490 C   0  0  0  0  0  3  0  0  0  0  0  0
  187.4680  177.3750  146.5940 C   0  0  0  0  0  0  0  0  0  0  0  0
  185.7250  178.6130  145.4090 C   0  0  0  0  0  0  0  0  0  0  0  0
  186.9940  177.9650  145.3970 C   0  0  0  0  0  0  0  0  0  0  0  0
  185.4780  178.0720  147.7350 N   0  0  0  0  0  0  0  0  0  0  0  0
  185.0010  178.6570  146.6140 C   0  0  0  0  0  3  0  0  0  0  0  0
  185.3670  180.4930  143.9900 O   0  0  0  0  0  0  0  0  0  0  0  0
  185.1210  179.2850  144.2370 C   0  0  0  0  0  0  0  0  0  0  0  0
  184.1320  178.5630  143.3670 C   0  0  0  0  0  2  0  0  0  0  0  0
  185.5030  177.1540  142.0130 O   0  0  0  0  0  1  0  0  0  0  0  0
  184.7320  178.3120  141.9860 C   0  0  0  0  0  2  0  0  0  0  0  0
  1  5  1  0  0  0  0
  2  1  1  0  0  0  0
  3  6  1  0  0  0  0
  5  4  1  0  0  0  0
  6  5  1  0  0  0  0
  6 22  1  0  0  0  0
  7  8  1  0  0  0  0
  7  3  1  0  0  0  0
  8  2  1  0  0  0  0
  8  1  1  0  0  0  0
  9  2  1  0  0  0  0
  9 11  1  0  0  0  0
 10  9  2  0  0  0  0
 12  8  1  0  0  0  0
 12 13  1  0  0  0  0
 14 12  1  0  0  0  0
 16 15  1  0  0  0  0
 16  2  1  0  0  0  0
 17 19  1  0  0  0  0
 18 19  1  0  0  0  0
 19 16  1  0  0  0  0
 20 21  1  0  0  0  0
 21 19  1  0  0  0  0
 23 22  1  0  0  0  0
 24 28  1  0  0  0  0
 26 23  1  0  0  0  0
 26 25  2  0  0  0  0
 27 30  1  0  0  0  0
 28 27  2  0  0  0  0
 28 26  1  0  0  0  0
 29 25  1  0  0  0  0
 30 29  2  0  0  0  0
 31 32  2  0  0  0  0
 32 27  1  0  0  0  0
 33 32  1  0  0  0  0
 35 34  1  0  0  0  0
 35 33  1  0  0  0  0
M  END
>  <MODEL>
1

>  <REMARK>
 VINA RESULT:      -6.5      0.000      0.000
  Name = 
  11 active torsions:
  status: ('A' for Active; 'I' for Inactive)
    1  A    between atoms: C_4  and  O_5
    2  A    between atoms: C_4  and  C_26
    3  A    between atoms: O_5  and  C_9
    4  A    between atoms: C_6  and  C_11
    5  A    between atoms: C_11  and  C_34
    6  A    between atoms: C_12  and  C_23
    7  A    between atoms: C_23  and  C_35
    8  A    between atoms: C_24  and  C_32
    9  A    between atoms: C_24  and  C_34
   10  A    between atoms: C_25  and  C_33
   11  A    between atoms: C_28  and  C_35
                            x       y       z     vdW  Elec       q    Type
                         _______ _______ _______ _____ _____    ______ ____

>  <TORSDO>
F 11

$$$$
=
 OpenBabel11062422003D

 35 37  0  0  1  0  0  0  0  0999 V2000
  191.9430  174.0150  144.8970 C   0  0  2  0  0  3  0  0  0  0  0  0
  193.3800  174.1270  144.3460 C   0  0  1  0  0  0  0  0  0  0  0  0
  191.2930  176.3380  143.1920 C   0  0  0  0  0  2  0  0  0  0  0  0
  189.9400  172.9730  144.0950 O   0  0  0  0  0  1  0  0  0  0  0  0
  190.9120  173.9260  143.7530 C   0  0  1  0  0  3  0  0  0  0  0  0
  190.2410  175.2870  143.5240 C   0  0  2  0  0  3  0  0  0  0  0  0
  192.2050  176.5750  144.4050 C   0  0  0  0  0  2  0  0  0  0  0  0
  192.7510  175.3020  145.1130 C   0  0  1  0  0  0  0  0  0  0  0  0
  194.2620  173.1220  145.0420 C   0  0  0  0  0  0  0  0  0  0  0  0
  195.3940  173.4600  145.4790 O   0  0  0  0  0  1  0  0  0  0  0  0
  193.8100  171.8120  145.2440 O   0  0  0  0  0  0  0  0  0  0  0  0
  193.1330  175.4470  146.5850 C   0  0  2  0  0  3  0  0  0  0  0  0
  191.9850  175.4690  147.3690 O   0  0  0  0  0  1  0  0  0  0  0  0
  193.9100  176.7300  146.7900 C   0  0  0  0  0  1  0  0  0  0  0  0
  193.5790  173.1560  141.9970 C   0  0  0  0  0  1  0  0  0  0  0  0
  193.6610  174.4270  142.8410 C   0  0  2  0  0  3  0  0  0  0  0  0
  194.5900  176.2950  141.3900 C   0  0  0  0  0  1  0  0  0  0  0  0
  195.3110  175.9660  143.6170 O   0  0  0  0  0  1  0  0  0  0  0  0
  194.8850  175.2810  142.4740 C   0  0  1  0  0  0  0  0  0  0  0  0
  197.1480  175.1920  140.7510 S   0  0  0  0  0  1  0  0  0  0  0  0
  196.0320  174.3780  141.9690 C   0  0  0  0  0  2  0  0  0  0  0  0
  189.1640  175.2650  142.4260 C   0  0  0  0  0  2  0  0  0  0  0  0
  188.9180  176.5560  141.8410 O   0  0  0  0  0  0  0  0  0  0  0  0
  187.9570  177.8840  144.4770 Cl  0  0  0  0  0  0  0  0  0  0  0  0
  186.9500  177.1270  140.6300 C   0  0  0  0  0  3  0  0  0  0  0  0
  187.6720  177.1960  141.8190 C   0  0  0  0  0  0  0  0  0  0  0  0
  185.8650  178.5450  142.7620 C   0  0  0  0  0  0  0  0  0  0  0  0
  187.1290  177.9030  142.9180 C   0  0  0  0  0  0  0  0  0  0  0  0
  185.7540  177.7600  140.4950 N   0  0  0  0  0  0  0  0  0  0  0  0
  185.2000  178.4340  141.5280 C   0  0  0  0  0  3  0  0  0  0  0  0
  185.5360  180.4660  144.1310 O   0  0  0  0  0  0  0  0  0  0  0  0
  185.1760  179.2990  143.8320 C   0  0  0  0  0  0  0  0  0  0  0  0
  184.0870  178.6560  144.6430 C   0  0  0  0  0  2  0  0  0  0  0  0
  184.8240  177.0700  146.2680 O   0  0  0  0  0  1  0  0  0  0  0  0
  184.5650  178.4230  146.0740 C   0  0  0  0  0  2  0  0  0  0  0  0
  1  8  1  0  0  0  0
  2  1  1  0  0  0  0
  2  9  1  0  0  0  0
  2  8  1  0  0  0  0
  3  6  1  0  0  0  0
  3  7  1  0  0  0  0
  5  4  1  0  0  0  0
  5  1  1  0  0  0  0
  6  5  1  0  0  0  0
  7  8  1  0  0  0  0
  8 12  1  0  0  0  0
  9 11  2  0  0  0  0
  9 10  1  0  0  0  0
 12 14  1  0  0  0  0
 12 13  1  0  0  0  0
 15 16  1  0  0  0  0
 16  2  1  0  0  0  0
 17 19  1  0  0  0  0
 19 16  1  0  0  0  0
 19 18  1  0  0  0  0
 20 21  1  0  0  0  0
 21 19  1  0  0  0  0
 22  6  1  0  0  0  0
 23 22  1  0  0  0  0
 25 26  1  0  0  0  0
 26 23  1  0  0  0  0
 26 28  2  0  0  0  0
 27 28  1  0  0  0  0
 27 32  1  0  0  0  0
 28 24  1  0  0  0  0
 29 25  2  0  0  0  0
 29 30  1  0  0  0  0
 30 27  2  0  0  0  0
 32 31  2  0  0  0  0
 32 33  1  0  0  0  0
 33 35  1  0  0  0  0
 35 34  1  0  0  0  0
M  END
>  <MODEL>
2

>  <REMARK>
 VINA RESULT:      -6.5      2.629      3.952
  Name = 
  11 active torsions:
  status: ('A' for Active; 'I' for Inactive)
    1  A    between atoms: C_4  and  O_5
    2  A    between atoms: C_4  and  C_26
    3  A    between atoms: O_5  and  C_9
    4  A    between atoms: C_6  and  C_11
    5  A    between atoms: C_11  and  C_34
    6  A    between atoms: C_12  and  C_23
    7  A    between atoms: C_23  and  C_35
    8  A    between atoms: C_24  and  C_32
    9  A    between atoms: C_24  and  C_34
   10  A    between atoms: C_25  and  C_33
   11  A    between atoms: C_28  and  C_35
                            x       y       z     vdW  Elec       q    Type
                         _______ _______ _______ _____ _____    ______ ____

>  <TORSDO>
F 11

$$$$
=
 OpenBabel11062422003D

 35 37  0  0  1  0  0  0  0  0999 V2000
  195.0750  175.9330  144.7770 C   0  0  2  0  0  3  0  0  0  0  0  0
  195.2730  174.4910  144.2630 C   0  0  1  0  0  0  0  0  0  0  0  0
  192.5770  175.9670  143.2020 C   0  0  0  0  0  2  0  0  0  0  0  0
  193.8400  176.8850  146.5970 O   0  0  0  0  0  1  0  0  0  0  0  0
  193.6930  176.1030  145.4400 C   0  0  1  0  0  3  0  0  0  0  0  0
  192.7130  176.7880  144.4780 C   0  0  2  0  0  3  0  0  0  0  0  0
  193.9060  175.9600  142.4330 C   0  0  0  0  0  2  0  0  0  0  0  0
  195.1820  175.6620  143.2700 C   0  0  1  0  0  0  0  0  0  0  0  0
  196.6060  173.9710  144.7370 C   0  0  0  0  0  0  0  0  0  0  0  0
  196.9290  174.0530  145.9520 O   0  0  0  0  0  1  0  0  0  0  0  0
  197.4800  173.3530  143.8340 O   0  0  0  0  0  0  0  0  0  0  0  0
  196.5020  176.2080  142.7270 C   0  0  2  0  0  3  0  0  0  0  0  0
  196.9320  177.2700  143.5160 O   0  0  0  0  0  1  0  0  0  0  0  0
  196.3140  176.6820  141.3010 C   0  0  0  0  0  1  0  0  0  0  0  0
  193.8030  172.8310  145.5200 C   0  0  0  0  0  1  0  0  0  0  0  0
  194.0870  173.4830  144.1680 C   0  0  2  0  0  3  0  0  0  0  0  0
  192.7150  172.2960  142.3890 C   0  0  0  0  0  1  0  0  0  0  0  0
  194.9800  172.8780  142.0400 O   0  0  0  0  0  1  0  0  0  0  0  0
  194.0790  172.4570  143.0240 C   0  0  1  0  0  0  0  0  0  0  0  0
  193.2460  169.7550  143.3420 S   0  0  0  0  0  1  0  0  0  0  0  0
  194.5170  171.0710  143.5490 C   0  0  0  0  0  2  0  0  0  0  0  0
  191.3230  177.0340  145.0880 C   0  0  0  0  0  2  0  0  0  0  0  0
  190.2600  176.3820  144.3700 O   0  0  0  0  0  0  0  0  0  0  0  0
  187.9050  177.2010  146.2190 Cl  0  0  0  0  0  0  0  0  0  0  0  0
  189.2310  177.2190  142.3940 C   0  0  0  0  0  3  0  0  0  0  0  0
  189.1780  177.0420  143.7740 C   0  0  0  0  0  0  0  0  0  0  0  0
  187.0390  178.2250  143.7790 C   0  0  0  0  0  0  0  0  0  0  0  0
  188.0630  177.5370  144.4930 C   0  0  0  0  0  0  0  0  0  0  0  0
  188.2520  177.8930  141.7330 N   0  0  0  0  0  0  0  0  0  0  0  0
  187.1670  178.3680  142.3860 C   0  0  0  0  0  3  0  0  0  0  0  0
  185.6180  180.0160  144.4460 O   0  0  0  0  0  0  0  0  0  0  0  0
  185.8150  178.7760  144.4010 C   0  0  0  0  0  0  0  0  0  0  0  0
  184.8220  177.8680  145.0700 C   0  0  0  0  0  2  0  0  0  0  0  0
  184.7660  178.4700  147.3790 O   0  0  0  0  0  1  0  0  0  0  0  0
  184.0840  178.6200  146.1750 C   0  0  0  0  0  2  0  0  0  0  0  0
  1  5  1  0  0  0  0
  2  9  1  0  0  0  0
  2  1  1  0  0  0  0
  3  6  1  0  0  0  0
  5  4  1  0  0  0  0
  6 22  1  0  0  0  0
  6  5  1  0  0  0  0
  7  3  1  0  0  0  0
  7  8  1  0  0  0  0
  8  2  1  0  0  0  0
  8  1  1  0  0  0  0
  9 10  1  0  0  0  0
 11  9  2  0  0  0  0
 12  8  1  0  0  0  0
 12 13  1  0  0  0  0
 14 12  1  0  0  0  0
 16  2  1  0  0  0  0
 16 15  1  0  0  0  0
 17 19  1  0  0  0  0
 18 19  1  0  0  0  0
 19 21  1  0  0  0  0
 19 16  1  0  0  0  0
 20 21  1  0  0  0  0
 23 22  1  0  0  0  0
 25 26  1  0  0  0  0
 26 23  1  0  0  0  0
 26 28  2  0  0  0  0
 27 32  1  0  0  0  0
 27 28  1  0  0  0  0
 28 24  1  0  0  0  0
 29 30  1  0  0  0  0
 29 25  2  0  0  0  0
 30 27  2  0  0  0  0
 32 31  2  0  0  0  0
 32 33  1  0  0  0  0
 33 35  1  0  0  0  0
 35 34  1  0  0  0  0
M  END
>  <MODEL>
3

>  <REMARK>
 VINA RESULT:      -6.2      2.639      3.607
  Name = 
  11 active torsions:
  status: ('A' for Active; 'I' for Inactive)
    1  A    between atoms: C_4  and  O_5
    2  A    between atoms: C_4  and  C_26
    3  A    between atoms: O_5  and  C_9
    4  A    between atoms: C_6  and  C_11
    5  A    between atoms: C_11  and  C_34
    6  A    between atoms: C_12  and  C_23
    7  A    between atoms: C_23  and  C_35
    8  A    between atoms: C_24  and  C_32
    9  A    between atoms: C_24  and  C_34
   10  A    between atoms: C_25  and  C_33
   11  A    between atoms: C_28  and  C_35
                            x       y       z     vdW  Elec       q    Type
                         _______ _______ _______ _____ _____    ______ ____

>  <TORSDO>
F 11

$$$$
=
 OpenBabel11062422003D

 35 37  0  0  1  0  0  0  0  0999 V2000
  195.0900  175.7300  144.8400 C   0  0  2  0  0  3  0  0  0  0  0  0
  195.2450  174.3250  144.2200 C   0  0  1  0  0  0  0  0  0  0  0  0
  192.4420  175.8260  143.5350 C   0  0  0  0  0  2  0  0  0  0  0  0
  194.0440  176.5530  146.8330 O   0  0  0  0  0  1  0  0  0  0  0  0
  193.7830  175.8410  145.6520 C   0  0  1  0  0  3  0  0  0  0  0  0
  192.7040  176.5700  144.8390 C   0  0  2  0  0  3  0  0  0  0  0  0
  193.6860  175.8840  142.6350 C   0  0  0  0  0  2  0  0  0  0  0  0
  195.0440  175.5530  143.3170 C   0  0  1  0  0  0  0  0  0  0  0  0
  196.6230  173.7950  144.5220 C   0  0  0  0  0  0  0  0  0  0  0  0
  197.2930  173.2120  143.6300 O   0  0  0  0  0  0  0  0  0  0  0  0
  197.1850  173.9830  145.7910 O   0  0  0  0  0  1  0  0  0  0  0  0
  196.2960  176.1490  142.6760 C   0  0  2  0  0  3  0  0  0  0  0  0
  196.7870  177.1790  143.4710 O   0  0  0  0  0  1  0  0  0  0  0  0
  195.9630  176.6870  141.3000 C   0  0  0  0  0  1  0  0  0  0  0  0
  193.9410  172.5520  145.5080 C   0  0  0  0  0  1  0  0  0  0  0  0
  194.0620  173.3090  144.1860 C   0  0  2  0  0  3  0  0  0  0  0  0
  192.5060  172.2660  142.4680 C   0  0  0  0  0  1  0  0  0  0  0  0
  194.7330  172.8610  141.9400 O   0  0  0  0  0  1  0  0  0  0  0  0
  193.9280  172.3720  142.9750 C   0  0  1  0  0  0  0  0  0  0  0  0
  193.1110  169.6500  143.1230 S   0  0  0  0  0  1  0  0  0  0  0  0
  194.3980  170.9480  143.3500 C   0  0  0  0  0  2  0  0  0  0  0  0
  191.3830  176.7600  145.6020 C   0  0  0  0  0  2  0  0  0  0  0  0
  190.2440  176.2000  144.9230 O   0  0  0  0  0  0  0  0  0  0  0  0
  188.8830  177.8790  142.6960 Cl  0  0  0  0  0  0  0  0  0  0  0  0
  188.3470  176.2410  146.3590 C   0  0  0  0  0  3  0  0  0  0  0  0
  188.9170  176.5910  145.1380 C   0  0  0  0  0  0  0  0  0  0  0  0
  186.7860  177.6120  144.5090 C   0  0  0  0  0  0  0  0  0  0  0  0
  188.1400  177.3000  144.1900 C   0  0  0  0  0  0  0  0  0  0  0  0
  187.0480  176.5320  146.6380 N   0  0  0  0  0  0  0  0  0  0  0  0
  186.2810  177.2190  145.7610 C   0  0  0  0  0  3  0  0  0  0  0  0
  185.7320  179.6050  143.7420 O   0  0  0  0  0  0  0  0  0  0  0  0
  185.8720  178.3620  143.6200 C   0  0  0  0  0  0  0  0  0  0  0  0
  185.0240  177.6410  142.6110 C   0  0  0  0  0  2  0  0  0  0  0  0
  184.6250  178.6270  140.4740 O   0  0  0  0  0  1  0  0  0  0  0  0
  185.5560  177.8930  141.2020 C   0  0  0  0  0  2  0  0  0  0  0  0
  1  5  1  0  0  0  0
  2  9  1  0  0  0  0
  2  1  1  0  0  0  0
  3  6  1  0  0  0  0
  5  4  1  0  0  0  0
  6 22  1  0  0  0  0
  6  5  1  0  0  0  0
  7  8  1  0  0  0  0
  7  3  1  0  0  0  0
  8  2  1  0  0  0  0
  8  1  1  0  0  0  0
  9 11  1  0  0  0  0
 10  9  2  0  0  0  0
 12  8  1  0  0  0  0
 12 13  1  0  0  0  0
 14 12  1  0  0  0  0
 16  2  1  0  0  0  0
 16 15  1  0  0  0  0
 17 19  1  0  0  0  0
 18 19  1  0  0  0  0
 19 21  1  0  0  0  0
 19 16  1  0  0  0  0
 20 21  1  0  0  0  0
 23 26  1  0  0  0  0
 23 22  1  0  0  0  0
 24 28  1  0  0  0  0
 25 29  1  0  0  0  0
 26 25  2  0  0  0  0
 27 30  1  0  0  0  0
 28 27  2  0  0  0  0
 28 26  1  0  0  0  0
 30 29  2  0  0  0  0
 32 31  2  0  0  0  0
 32 27  1  0  0  0  0
 33 32  1  0  0  0  0
 34 35  1  0  0  0  0
 35 33  1  0  0  0  0
M  END
>  <MODEL>
4

>  <REMARK>
 VINA RESULT:      -6.1      2.221      2.885
  Name = 
  11 active torsions:
  status: ('A' for Active; 'I' for Inactive)
    1  A    between atoms: C_4  and  O_5
    2  A    between atoms: C_4  and  C_26
    3  A    between atoms: O_5  and  C_9
    4  A    between atoms: C_6  and  C_11
    5  A    between atoms: C_11  and  C_34
    6  A    between atoms: C_12  and  C_23
    7  A    between atoms: C_23  and  C_35
    8  A    between atoms: C_24  and  C_32
    9  A    between atoms: C_24  and  C_34
   10  A    between atoms: C_25  and  C_33
   11  A    between atoms: C_28  and  C_35
                            x       y       z     vdW  Elec       q    Type
                         _______ _______ _______ _____ _____    ______ ____

>  <TORSDO>
F 11

$$$$
=
 OpenBabel11062422003D

 35 37  0  0  1  0  0  0  0  0999 V2000
  193.4910  173.3500  144.6460 C   0  0  2  0  0  3  0  0  0  0  0  0
  194.4730  173.8050  143.5460 C   0  0  1  0  0  0  0  0  0  0  0  0
  194.3920  175.7030  146.1860 C   0  0  0  0  0  2  0  0  0  0  0  0
  191.2400  173.9510  145.2060 O   0  0  0  0  0  1  0  0  0  0  0  0
  192.5260  174.4870  145.0390 C   0  0  1  0  0  3  0  0  0  0  0  0
  192.9800  175.1530  146.3450 C   0  0  2  0  0  3  0  0  0  0  0  0
  195.3890  174.5510  145.9910 C   0  0  0  0  0  2  0  0  0  0  0  0
  194.9900  173.4640  144.9540 C   0  0  1  0  0  0  0  0  0  0  0  0
  194.4920  172.7840  142.4380 C   0  0  0  0  0  0  0  0  0  0  0  0
  193.4150  172.3630  141.9380 O   0  0  0  0  0  1  0  0  0  0  0  0
  195.7120  172.3240  141.9270 O   0  0  0  0  0  0  0  0  0  0  0  0
  195.5980  172.0760  145.1460 C   0  0  2  0  0  3  0  0  0  0  0  0
  194.7000  171.2580  145.8230 O   0  0  0  0  0  1  0  0  0  0  0  0
  196.8830  172.1840  145.9410 C   0  0  0  0  0  1  0  0  0  0  0  0
  193.5390  175.7460  142.1820 C   0  0  0  0  0  1  0  0  0  0  0  0
  194.6300  175.3080  143.1580 C   0  0  2  0  0  3  0  0  0  0  0  0
  196.4760  177.0100  143.5520 C   0  0  0  0  0  1  0  0  0  0  0  0
  196.9430  174.7860  142.8970 O   0  0  0  0  0  1  0  0  0  0  0  0
  196.0160  175.8210  142.7350 C   0  0  1  0  0  0  0  0  0  0  0  0
  197.1530  175.3060  140.1780 S   0  0  0  0  0  1  0  0  0  0  0  0
  195.9940  176.2530  141.2520 C   0  0  0  0  0  2  0  0  0  0  0  0
  192.0390  176.2700  146.8260 C   0  0  0  0  0  2  0  0  0  0  0  0
  191.3880  176.9720  145.7520 O   0  0  0  0  0  0  0  0  0  0  0  0
  190.1950  177.1690  142.8940 Cl  0  0  0  0  0  0  0  0  0  0  0  0
  189.2990  177.3110  146.8390 C   0  0  0  0  0  3  0  0  0  0  0  0
  190.0060  177.1650  145.6480 C   0  0  0  0  0  0  0  0  0  0  0  0
  187.8890  177.3750  144.4420 C   0  0  0  0  0  0  0  0  0  0  0  0
  189.3050  177.2080  144.4180 C   0  0  0  0  0  0  0  0  0  0  0  0
  187.9460  177.4530  146.8420 N   0  0  0  0  0  0  0  0  0  0  0  0
  187.2470  177.5100  145.6850 C   0  0  0  0  0  3  0  0  0  0  0  0
  186.9310  176.4730  142.4570 O   0  0  0  0  0  0  0  0  0  0  0  0
  187.0390  177.4550  143.2340 C   0  0  0  0  0  0  0  0  0  0  0  0
  186.3560  178.7400  142.8630 C   0  0  0  0  0  2  0  0  0  0  0  0
  184.1070  178.6170  143.6550 O   0  0  0  0  0  1  0  0  0  0  0  0
  184.8930  178.4760  142.5140 C   0  0  0  0  0  2  0  0  0  0  0  0
  1  8  1  0  0  0  0
  1  5  1  0  0  0  0
  2  1  1  0  0  0  0
  2  8  1  0  0  0  0
  3  6  1  0  0  0  0
  5  4  1  0  0  0  0
  5  6  1  0  0  0  0
  6 22  1  0  0  0  0
  7  3  1  0  0  0  0
  8 12  1  0  0  0  0
  8  7  1  0  0  0  0
  9  2  1  0  0  0  0
 10  9  1  0  0  0  0
 11  9  2  0  0  0  0
 12 13  1  0  0  0  0
 12 14  1  0  0  0  0
 15 16  1  0  0  0  0
 16  2  1  0  0  0  0
 19 18  1  0  0  0  0
 19 16  1  0  0  0  0
 19 17  1  0  0  0  0
 20 21  1  0  0  0  0
 21 19  1  0  0  0  0
 23 22  1  0  0  0  0
 24 28  1  0  0  0  0
 25 29  1  0  0  0  0
 26 23  1  0  0  0  0
 26 25  2  0  0  0  0
 27 30  1  0  0  0  0
 28 27  2  0  0  0  0
 28 26  1  0  0  0  0
 30 29  2  0  0  0  0
 31 32  2  0  0  0  0
 32 27  1  0  0  0  0
 33 32  1  0  0  0  0
 35 33  1  0  0  0  0
 35 34  1  0  0  0  0
M  END
>  <MODEL>
5

>  <REMARK>
 VINA RESULT:      -6.1      2.520      3.884
  Name = 
  11 active torsions:
  status: ('A' for Active; 'I' for Inactive)
    1  A    between atoms: C_4  and  O_5
    2  A    between atoms: C_4  and  C_26
    3  A    between atoms: O_5  and  C_9
    4  A    between atoms: C_6  and  C_11
    5  A    between atoms: C_11  and  C_34
    6  A    between atoms: C_12  and  C_23
    7  A    between atoms: C_23  and  C_35
    8  A    between atoms: C_24  and  C_32
    9  A    between atoms: C_24  and  C_34
   10  A    between atoms: C_25  and  C_33
   11  A    between atoms: C_28  and  C_35
                            x       y       z     vdW  Elec       q    Type
                         _______ _______ _______ _____ _____    ______ ____

>  <TORSDO>
F 11

$$$$
=
 OpenBabel11062422003D

 35 37  0  0  1  0  0  0  0  0999 V2000
  193.5760  173.2140  144.3440 C   0  0  2  0  0  3  0  0  0  0  0  0
  194.6510  173.6920  143.3450 C   0  0  1  0  0  0  0  0  0  0  0  0
  194.2650  175.5880  145.9590 C   0  0  0  0  0  2  0  0  0  0  0  0
  191.2670  173.7610  144.6780 O   0  0  0  0  0  1  0  0  0  0  0  0
  192.5510  174.3280  144.6370 C   0  0  1  0  0  3  0  0  0  0  0  0
  192.8580  175.0040  145.9790 C   0  0  2  0  0  3  0  0  0  0  0  0
  195.3040  174.4610  145.8670 C   0  0  0  0  0  2  0  0  0  0  0  0
  195.0350  173.3640  144.7980 C   0  0  1  0  0  0  0  0  0  0  0  0
  194.8040  172.6710  142.2470 C   0  0  0  0  0  0  0  0  0  0  0  0
  193.8060  172.3070  141.5700 O   0  0  0  0  0  0  0  0  0  0  0  0
  196.0670  172.1490  141.9440 O   0  0  0  0  0  1  0  0  0  0  0  0
  195.6540  171.9910  145.0530 C   0  0  2  0  0  3  0  0  0  0  0  0
  194.7730  171.2060  145.7900 O   0  0  0  0  0  1  0  0  0  0  0  0
  196.9520  172.1470  145.8170 C   0  0  0  0  0  1  0  0  0  0  0  0
  193.7850  175.6200  141.9190 C   0  0  0  0  0  1  0  0  0  0  0  0
  194.8100  175.1980  142.9710 C   0  0  2  0  0  3  0  0  0  0  0  0
  196.5930  176.9320  143.4940 C   0  0  0  0  0  1  0  0  0  0  0  0
  197.1450  174.7170  142.8790 O   0  0  0  0  0  1  0  0  0  0  0  0
  196.2140  175.7350  142.6490 C   0  0  1  0  0  0  0  0  0  0  0  0
  197.3480  175.0750  140.1240 S   0  0  0  0  0  1  0  0  0  0  0  0
  196.2920  176.1660  141.1670 C   0  0  0  0  0  2  0  0  0  0  0  0
  191.8470  176.0980  146.3630 C   0  0  0  0  0  2  0  0  0  0  0  0
  191.6560  177.0860  145.3340 O   0  0  0  0  0  0  0  0  0  0  0  0
  189.0410  177.4850  146.9570 Cl  0  0  0  0  0  0  0  0  0  0  0  0
  190.5660  177.1780  143.2190 C   0  0  0  0  0  3  0  0  0  0  0  0
  190.4720  177.2590  144.6070 C   0  0  0  0  0  0  0  0  0  0  0  0
  188.0830  177.7140  144.3530 C   0  0  0  0  0  0  0  0  0  0  0  0
  189.2130  177.5190  145.2000 C   0  0  0  0  0  0  0  0  0  0  0  0
  189.4800  177.3840  142.4270 N   0  0  0  0  0  0  0  0  0  0  0  0
  188.2600  177.6210  142.9610 C   0  0  0  0  0  3  0  0  0  0  0  0
  186.2210  179.1310  144.7990 O   0  0  0  0  0  0  0  0  0  0  0  0
  186.7100  177.9740  144.8400 C   0  0  0  0  0  0  0  0  0  0  0  0
  185.9030  176.8770  145.4740 C   0  0  0  0  0  2  0  0  0  0  0  0
  185.6720  177.6390  147.7250 O   0  0  0  0  0  1  0  0  0  0  0  0
  184.9720  177.4570  146.5350 C   0  0  0  0  0  2  0  0  0  0  0  0
  1  5  1  0  0  0  0
  1  8  1  0  0  0  0
  2  1  1  0  0  0  0
  2  8  1  0  0  0  0
  3  6  1  0  0  0  0
  5  4  1  0  0  0  0
  5  6  1  0  0  0  0
  6 22  1  0  0  0  0
  7  3  1  0  0  0  0
  8 12  1  0  0  0  0
  8  7  1  0  0  0  0
  9  2  1  0  0  0  0
 10  9  2  0  0  0  0
 11  9  1  0  0  0  0
 12 13  1  0  0  0  0
 12 14  1  0  0  0  0
 15 16  1  0  0  0  0
 16  2  1  0  0  0  0
 19 18  1  0  0  0  0
 19 16  1  0  0  0  0
 19 17  1  0  0  0  0
 20 21  1  0  0  0  0
 21 19  1  0  0  0  0
 23 22  1  0  0  0  0
 25 26  1  0  0  0  0
 26 28  2  0  0  0  0
 26 23  1  0  0  0  0
 27 32  1  0  0  0  0
 27 28  1  0  0  0  0
 28 24  1  0  0  0  0
 29 30  1  0  0  0  0
 29 25  2  0  0  0  0
 30 27  2  0  0  0  0
 31 32  2  0  0  0  0
 32 33  1  0  0  0  0
 33 35  1  0  0  0  0
 35 34  1  0  0  0  0
M  END
>  <MODEL>
6

>  <REMARK>
 VINA RESULT:      -6.0      2.880      4.409
  Name = 
  11 active torsions:
  status: ('A' for Active; 'I' for Inactive)
    1  A    between atoms: C_4  and  O_5
    2  A    between atoms: C_4  and  C_26
    3  A    between atoms: O_5  and  C_9
    4  A    between atoms: C_6  and  C_11
    5  A    between atoms: C_11  and  C_34
    6  A    between atoms: C_12  and  C_23
    7  A    between atoms: C_23  and  C_35
    8  A    between atoms: C_24  and  C_32
    9  A    between atoms: C_24  and  C_34
   10  A    between atoms: C_25  and  C_33
   11  A    between atoms: C_28  and  C_35
                            x       y       z     vdW  Elec       q    Type
                         _______ _______ _______ _____ _____    ______ ____

>  <TORSDO>
F 11

$$$$
=
 OpenBabel11062422003D

 35 37  0  0  1  0  0  0  0  0999 V2000
  190.8500  175.7520  143.2170 C   0  0  2  0  0  3  0  0  0  0  0  0
  192.2390  175.0800  143.2100 C   0  0  1  0  0  0  0  0  0  0  0  0
  190.1780  173.9460  145.4550 C   0  0  0  0  0  2  0  0  0  0  0  0
  189.8850  177.5430  144.4830 O   0  0  0  0  0  1  0  0  0  0  0  0
  190.4960  176.2860  144.6200 C   0  0  1  0  0  3  0  0  0  0  0  0
  189.5400  175.3240  145.3380 C   0  0  2  0  0  3  0  0  0  0  0  0
  190.3510  173.3240  144.0620 C   0  0  0  0  0  2  0  0  0  0  0  0
  190.9720  174.2420  142.9710 C   0  0  1  0  0  0  0  0  0  0  0  0
  193.0490  175.6180  142.0580 C   0  0  0  0  0  0  0  0  0  0  0  0
  193.4420  176.8140  142.0570 O   0  0  0  0  0  1  0  0  0  0  0  0
  193.4040  174.7760  140.9960 O   0  0  0  0  0  0  0  0  0  0  0  0
  190.6280  173.9120  141.5200 C   0  0  2  0  0  3  0  0  0  0  0  0
  189.4420  174.5440  141.1620 O   0  0  0  0  0  1  0  0  0  0  0  0
  190.4720  172.4150  141.3560 C   0  0  0  0  0  1  0  0  0  0  0  0
  193.5870  175.9860  145.1750 C   0  0  0  0  0  1  0  0  0  0  0  0
  192.9900  174.7340  144.5330 C   0  0  2  0  0  3  0  0  0  0  0  0
  193.8470  172.6780  145.7560 C   0  0  0  0  0  1  0  0  0  0  0  0
  193.7530  172.7800  143.3960 O   0  0  0  0  0  1  0  0  0  0  0  0
  193.9820  173.5610  144.5340 C   0  0  1  0  0  0  0  0  0  0  0  0
  196.5600  173.2700  145.7030 S   0  0  0  0  0  1  0  0  0  0  0  0
  195.4330  174.0900  144.4990 C   0  0  0  0  0  2  0  0  0  0  0  0
  189.1040  175.8150  146.7290 C   0  0  0  0  0  2  0  0  0  0  0  0
  187.6760  175.9020  146.8830 O   0  0  0  0  0  0  0  0  0  0  0  0
  186.6500  176.2460  143.9740 Cl  0  0  0  0  0  0  0  0  0  0  0  0
  186.7330  177.9500  147.6460 C   0  0  0  0  0  3  0  0  0  0  0  0
  186.9130  177.0420  146.6050 C   0  0  0  0  0  0  0  0  0  0  0  0
  185.5330  178.4860  145.1940 C   0  0  0  0  0  0  0  0  0  0  0  0
  186.3190  177.3070  145.3470 C   0  0  0  0  0  0  0  0  0  0  0  0
  185.9650  179.0610  147.4860 N   0  0  0  0  0  0  0  0  0  0  0  0
  185.3940  179.3510  146.2950 C   0  0  0  0  0  3  0  0  0  0  0  0
  183.6290  179.0590  143.8840 O   0  0  0  0  0  0  0  0  0  0  0  0
  184.8730  178.8920  143.9340 C   0  0  0  0  0  0  0  0  0  0  0  0
  185.6660  179.0280  142.6650 C   0  0  0  0  0  2  0  0  0  0  0  0
  185.8610  178.0770  140.4840 O   0  0  0  0  0  1  0  0  0  0  0  0
  184.9630  178.2950  141.5250 C   0  0  0  0  0  2  0  0  0  0  0  0
  1  5  1  0  0  0  0
  2  1  1  0  0  0  0
  2 16  1  0  0  0  0
  4  5  1  0  0  0  0
  5  6  1  0  0  0  0
  6  3  1  0  0  0  0
  6 22  1  0  0  0  0
  7  3  1  0  0  0  0
  8  2  1  0  0  0  0
  8  1  1  0  0  0  0
  8  7  1  0  0  0  0
  9  2  1  0  0  0  0
 10  9  1  0  0  0  0
 11  9  2  0  0  0  0
 12  8  1  0  0  0  0
 13 12  1  0  0  0  0
 14 12  1  0  0  0  0
 16 19  1  0  0  0  0
 16 15  1  0  0  0  0
 18 19  1  0  0  0  0
 19 17  1  0  0  0  0
 21 19  1  0  0  0  0
 21 20  1  0  0  0  0
 22 23  1  0  0  0  0
 24 28  1  0  0  0  0
 26 23  1  0  0  0  0
 26 25  2  0  0  0  0
 27 28  2  0  0  0  0
 27 30  1  0  0  0  0
 28 26  1  0  0  0  0
 29 25  1  0  0  0  0
 30 29  2  0  0  0  0
 31 32  2  0  0  0  0
 32 27  1  0  0  0  0
 33 32  1  0  0  0  0
 34 35  1  0  0  0  0
 35 33  1  0  0  0  0
M  END
>  <MODEL>
7

>  <REMARK>
 VINA RESULT:      -6.0      2.258      3.781
  Name = 
  11 active torsions:
  status: ('A' for Active; 'I' for Inactive)
    1  A    between atoms: C_4  and  O_5
    2  A    between atoms: C_4  and  C_26
    3  A    between atoms: O_5  and  C_9
    4  A    between atoms: C_6  and  C_11
    5  A    between atoms: C_11  and  C_34
    6  A    between atoms: C_12  and  C_23
    7  A    between atoms: C_23  and  C_35
    8  A    between atoms: C_24  and  C_32
    9  A    between atoms: C_24  and  C_34
   10  A    between atoms: C_25  and  C_33
   11  A    between atoms: C_28  and  C_35
                            x       y       z     vdW  Elec       q    Type
                         _______ _______ _______ _____ _____    ______ ____

>  <TORSDO>
F 11

$$$$
=
 OpenBabel11062422003D

 35 37  0  0  1  0  0  0  0  0999 V2000
  192.3040  172.9750  143.4930 C   0  0  2  0  0  3  0  0  0  0  0  0
  193.6570  173.6150  143.1170 C   0  0  1  0  0  0  0  0  0  0  0  0
  192.3640  174.6770  145.9050 C   0  0  0  0  0  2  0  0  0  0  0  0
  190.0200  173.6320  143.1890 O   0  0  0  0  0  1  0  0  0  0  0  0
  191.2320  174.0510  143.7600 C   0  0  1  0  0  3  0  0  0  0  0  0
  191.0440  174.2620  145.2680 C   0  0  2  0  0  3  0  0  0  0  0  0
  193.3790  173.5280  145.8170 C   0  0  0  0  0  2  0  0  0  0  0  0
  193.5100  172.8320  144.4320 C   0  0  1  0  0  0  0  0  0  0  0  0
  194.1930  172.9570  141.8710 C   0  0  0  0  0  0  0  0  0  0  0  0
  195.4270  172.7390  141.7430 O   0  0  0  0  0  1  0  0  0  0  0  0
  193.3130  172.5440  140.8620 O   0  0  0  0  0  0  0  0  0  0  0  0
  194.0120  171.3890  144.4340 C   0  0  2  0  0  3  0  0  0  0  0  0
  192.9460  170.5190  144.2330 O   0  0  0  0  0  1  0  0  0  0  0  0
  194.6750  171.0780  145.7590 C   0  0  0  0  0  1  0  0  0  0  0  0
  193.4040  175.9500  142.1240 C   0  0  0  0  0  1  0  0  0  0  0  0
  193.9250  175.1400  143.3100 C   0  0  2  0  0  3  0  0  0  0  0  0
  195.2960  176.6950  144.7800 C   0  0  0  0  0  1  0  0  0  0  0  0
  196.0070  174.4960  144.2820 O   0  0  0  0  0  1  0  0  0  0  0  0
  195.3280  175.5940  143.7420 C   0  0  1  0  0  0  0  0  0  0  0  0
  197.8980  175.6640  142.5230 S   0  0  0  0  0  1  0  0  0  0  0  0
  196.1150  176.1240  142.5230 C   0  0  0  0  0  2  0  0  0  0  0  0
  189.9550  175.2910  145.6140 C   0  0  0  0  0  2  0  0  0  0  0  0
  190.1150  176.5460  144.9290 O   0  0  0  0  0  0  0  0  0  0  0  0
  187.5200  177.5600  146.2970 Cl  0  0  0  0  0  0  0  0  0  0  0  0
  189.4090  177.1560  142.7390 C   0  0  0  0  0  3  0  0  0  0  0  0
  189.1460  177.1330  144.1070 C   0  0  0  0  0  0  0  0  0  0  0  0
  187.0480  178.3060  143.6560 C   0  0  0  0  0  0  0  0  0  0  0  0
  187.9420  177.7030  144.5890 C   0  0  0  0  0  0  0  0  0  0  0  0
  188.5510  177.7510  141.8670 N   0  0  0  0  0  0  0  0  0  0  0  0
  187.3870  178.2930  142.2920 C   0  0  0  0  0  3  0  0  0  0  0  0
  185.5670  180.1560  143.8920 O   0  0  0  0  0  0  0  0  0  0  0  0
  185.7520  178.9200  144.0210 C   0  0  0  0  0  0  0  0  0  0  0  0
  184.6600  178.0920  144.6350 C   0  0  0  0  0  2  0  0  0  0  0  0
  184.2130  178.1600  146.9790 O   0  0  0  0  0  1  0  0  0  0  0  0
  184.0100  178.8520  145.7890 C   0  0  0  0  0  2  0  0  0  0  0  0
  1  5  1  0  0  0  0
  1  8  1  0  0  0  0
  2 16  1  0  0  0  0
  2  1  1  0  0  0  0
  2  8  1  0  0  0  0
  4  5  1  0  0  0  0
  5  6  1  0  0  0  0
  6 22  1  0  0  0  0
  6  3  1  0  0  0  0
  7  3  1  0  0  0  0
  8 12  1  0  0  0  0
  8  7  1  0  0  0  0
  9  2  1  0  0  0  0
 10  9  1  0  0  0  0
 11  9  2  0  0  0  0
 12 14  1  0  0  0  0
 13 12  1  0  0  0  0
 15 16  1  0  0  0  0
 16 19  1  0  0  0  0
 19 18  1  0  0  0  0
 19 17  1  0  0  0  0
 21 20  1  0  0  0  0
 21 19  1  0  0  0  0
 23 22  1  0  0  0  0
 25 26  1  0  0  0  0
 26 28  2  0  0  0  0
 26 23  1  0  0  0  0
 27 32  1  0  0  0  0
 27 28  1  0  0  0  0
 28 24  1  0  0  0  0
 29 30  1  0  0  0  0
 29 25  2  0  0  0  0
 30 27  2  0  0  0  0
 31 32  2  0  0  0  0
 32 33  1  0  0  0  0
 33 35  1  0  0  0  0
 35 34  1  0  0  0  0
M  END
>  <MODEL>
8

>  <REMARK>
 VINA RESULT:      -5.9      2.763      4.314
  Name = 
  11 active torsions:
  status: ('A' for Active; 'I' for Inactive)
    1  A    between atoms: C_4  and  O_5
    2  A    between atoms: C_4  and  C_26
    3  A    between atoms: O_5  and  C_9
    4  A    between atoms: C_6  and  C_11
    5  A    between atoms: C_11  and  C_34
    6  A    between atoms: C_12  and  C_23
    7  A    between atoms: C_23  and  C_35
    8  A    between atoms: C_24  and  C_32
    9  A    between atoms: C_24  and  C_34
   10  A    between atoms: C_25  and  C_33
   11  A    between atoms: C_28  and  C_35
                            x       y       z     vdW  Elec       q    Type
                         _______ _______ _______ _____ _____    ______ ____

>  <TORSDO>
F 11

$$$$
=
 OpenBabel11062422003D

 35 37  0  0  1  0  0  0  0  0999 V2000
  192.1240  173.7030  142.2560 C   0  0  2  0  0  3  0  0  0  0  0  0
  192.9160  174.5450  143.2790 C   0  0  1  0  0  0  0  0  0  0  0  0
  189.8180  173.9670  144.0830 C   0  0  0  0  0  2  0  0  0  0  0  0
  190.6480  174.2530  140.4500 O   0  0  0  0  0  1  0  0  0  0  0  0
  190.8240  174.4170  141.8330 C   0  0  1  0  0  3  0  0  0  0  0  0
  189.6180  173.8300  142.5780 C   0  0  2  0  0  3  0  0  0  0  0  0
  190.9970  173.0950  144.5410 C   0  0  0  0  0  2  0  0  0  0  0  0
  192.2980  173.2000  143.6950 C   0  0  1  0  0  0  0  0  0  0  0  0
  194.3550  174.6420  142.8400 C   0  0  0  0  0  0  0  0  0  0  0  0
  195.2880  174.4170  143.6550 O   0  0  0  0  0  1  0  0  0  0  0  0
  194.6630  174.9430  141.5070 O   0  0  0  0  0  0  0  0  0  0  0  0
  193.2330  171.9920  143.7250 C   0  0  2  0  0  3  0  0  0  0  0  0
  192.6250  170.9100  143.0960 O   0  0  0  0  0  1  0  0  0  0  0  0
  193.5570  171.6270  145.1580 C   0  0  0  0  0  1  0  0  0  0  0  0
  192.2630  177.0000  143.0660 C   0  0  0  0  0  1  0  0  0  0  0  0
  192.2830  175.7820  143.9880 C   0  0  2  0  0  3  0  0  0  0  0  0
  193.3590  174.9660  146.1410 C   0  0  0  0  0  1  0  0  0  0  0  0
  193.7260  177.1490  145.3090 O   0  0  0  0  0  1  0  0  0  0  0  0
  192.7570  176.1440  145.4050 C   0  0  1  0  0  0  0  0  0  0  0  0
  191.0510  175.5250  147.5960 S   0  0  0  0  0  1  0  0  0  0  0  0
  191.5710  176.6640  146.2460 C   0  0  0  0  0  2  0  0  0  0  0  0
  188.2760  174.4620  142.1730 C   0  0  0  0  0  2  0  0  0  0  0  0
  188.3890  175.8420  141.7830 O   0  0  0  0  0  0  0  0  0  0  0  0
  187.4760  177.1780  144.4310 Cl  0  0  0  0  0  0  0  0  0  0  0  0
  186.7190  176.9070  140.4630 C   0  0  0  0  0  3  0  0  0  0  0  0
  187.3170  176.7400  141.7100 C   0  0  0  0  0  0  0  0  0  0  0  0
  185.7530  178.3890  142.6100 C   0  0  0  0  0  0  0  0  0  0  0  0
  186.8300  177.4780  142.8160 C   0  0  0  0  0  0  0  0  0  0  0  0
  185.7040  177.7950  140.2830 N   0  0  0  0  0  0  0  0  0  0  0  0
  185.2060  178.5060  141.3200 C   0  0  0  0  0  3  0  0  0  0  0  0
  185.6780  180.2740  144.0640 O   0  0  0  0  0  0  0  0  0  0  0  0
  185.1380  179.2070  143.6780 C   0  0  0  0  0  0  0  0  0  0  0  0
  183.8990  178.7350  144.3850 C   0  0  0  0  0  2  0  0  0  0  0  0
  184.6400  177.4280  146.2400 O   0  0  0  0  0  1  0  0  0  0  0  0
  184.1430  178.6800  145.8910 C   0  0  0  0  0  2  0  0  0  0  0  0
  1  2  1  0  0  0  0
  1  8  1  0  0  0  0
  2  8  1  0  0  0  0
  2 16  1  0  0  0  0
  3  7  1  0  0  0  0
  4  5  1  0  0  0  0
  5  1  1  0  0  0  0
  5  6  1  0  0  0  0
  6  3  1  0  0  0  0
  8 12  1  0  0  0  0
  8  7  1  0  0  0  0
  9  2  1  0  0  0  0
  9 10  1  0  0  0  0
 11  9  2  0  0  0  0
 12 14  1  0  0  0  0
 13 12  1  0  0  0  0
 15 16  1  0  0  0  0
 16 19  1  0  0  0  0
 18 19  1  0  0  0  0
 19 17  1  0  0  0  0
 19 21  1  0  0  0  0
 21 20  1  0  0  0  0
 22  6  1  0  0  0  0
 23 22  1  0  0  0  0
 25 26  1  0  0  0  0
 26 23  1  0  0  0  0
 26 28  2  0  0  0  0
 27 28  1  0  0  0  0
 27 32  1  0  0  0  0
 28 24  1  0  0  0  0
 29 25  2  0  0  0  0
 29 30  1  0  0  0  0
 30 27  2  0  0  0  0
 32 31  2  0  0  0  0
 32 33  1  0  0  0  0
 33 35  1  0  0  0  0
 35 34  1  0  0  0  0
M  END
>  <MODEL>
9

>  <REMARK>
 VINA RESULT:      -5.9      2.641      4.611
  Name = 
  11 active torsions:
  status: ('A' for Active; 'I' for Inactive)
    1  A    between atoms: C_4  and  O_5
    2  A    between atoms: C_4  and  C_26
    3  A    between atoms: O_5  and  C_9
    4  A    between atoms: C_6  and  C_11
    5  A    between atoms: C_11  and  C_34
    6  A    between atoms: C_12  and  C_23
    7  A    between atoms: C_23  and  C_35
    8  A    between atoms: C_24  and  C_32
    9  A    between atoms: C_24  and  C_34
   10  A    between atoms: C_25  and  C_33
   11  A    between atoms: C_28  and  C_35
                            x       y       z     vdW  Elec       q    Type
                         _______ _______ _______ _____ _____    ______ ____

>  <TORSDO>
F 11

$$$$
