=
 OpenBabel11062419543D

 28 30  0  0  1  0  0  0  0  0999 V2000
  188.5350  176.4540  144.8420 N   0  0  0  0  0  0  0  0  0  0  0  0
  186.9280  178.0200  143.9800 C   0  0  0  0  0  0  0  0  0  0  0  0
  186.4590  177.9700  147.6160 C   0  0  0  0  0  3  0  0  0  0  0  0
  187.0800  177.5700  146.3390 C   0  0  0  0  0  0  0  0  0  0  0  0
  186.2480  178.7720  142.8860 C   0  0  0  0  0  1  0  0  0  0  0  0
  184.1360  178.6630  145.2970 N   0  0  0  0  0  1  0  0  0  0  0  0
  188.1180  176.6680  146.1210 C   0  0  0  0  0  0  0  0  0  0  0  0
  185.4400  178.9740  147.2700 N   0  0  0  0  0  0  0  0  0  0  0  0
  186.4980  178.2170  145.3000 C   0  0  0  0  0  0  0  0  0  0  0  0
  185.4240  179.1050  145.8050 C   0  0  1  0  0  3  0  0  0  0  0  0
  187.9980  177.1020  143.7590 C   0  0  0  0  0  0  0  0  0  0  0  0
  190.4540  174.0510  140.7650 C   0  0  0  0  0  2  0  0  0  0  0  0
  189.9910  176.2240  142.5110 C   0  0  0  0  0  2  0  0  0  0  0  0
  187.9300  174.3370  141.4590 C   0  0  0  0  0  2  0  0  0  0  0  0
  187.5720  175.8210  141.5900 C   0  0  0  0  0  2  0  0  0  0  0  0
  190.8020  173.9730  142.2660 C   0  0  0  0  0  2  0  0  0  0  0  0
  188.6590  174.0550  139.2490 O   0  0  0  0  0  0  0  0  0  0  0  0
  188.6280  177.9090  141.6280 O   0  0  0  0  0  1  0  0  0  0  0  0
  190.0560  174.9010  143.1210 N   0  0  0  0  0  2  0  0  0  0  0  0
  188.5460  176.7360  142.3810 C   0  0  1  0  0  0  0  0  0  0  0  0
  188.9890  174.1300  140.4210 C   0  0  0  0  0  0  0  0  0  0  0  0
  188.7400  175.9100  147.2460 C   0  0  0  0  0  2  0  0  0  0  0  0
  190.8050  177.0130  147.6590 O   0  0  0  0  0  0  0  0  0  0  0  0
  193.2850  175.9980  146.8220 C   0  0  0  0  0  1  0  0  0  0  0  0
  192.3830  174.9170  146.3310 C   0  0  0  0  0  0  0  0  0  0  0  0
  190.9630  174.9660  146.5180 N   0  0  0  0  0  2  0  0  0  0  0  0
  190.2240  176.0060  147.1720 C   0  0  0  0  0  0  0  0  0  0  0  0
  192.8880  173.9320  145.7330 O   0  0  0  0  0  0  0  0  0  0  0  0
  1  7  1  0  0  0  0
  2  9  2  0  0  0  0
  4  3  1  0  0  0  0
  5  2  1  0  0  0  0
  7  4  2  0  0  0  0
  7 22  1  0  0  0  0
  8  3  2  0  0  0  0
  9 10  1  0  0  0  0
  9  4  1  0  0  0  0
 10  6  1  6  0  0  0
 10  8  1  0  0  0  0
 11  2  1  0  0  0  0
 11  1  2  0  0  0  0
 12 16  1  0  0  0  0
 13 19  1  0  0  0  0
 14 15  1  0  0  0  0
 15 20  1  0  0  0  0
 16 19  1  0  0  0  0
 17 21  2  0  0  0  0
 20 18  1  6  0  0  0
 20 13  1  0  0  0  0
 20 11  1  0  0  0  0
 21 12  1  0  0  0  0
 21 14  1  0  0  0  0
 25 26  1  0  0  0  0
 25 24  1  0  0  0  0
 26 27  1  0  0  0  0
 27 22  1  0  0  0  0
 27 23  2  0  0  0  0
 28 25  2  0  0  0  0
M  END
>  <MODEL>
1

>  <REMARK>
 VINA RESULT:      -7.9      0.000      0.000
  Name = 
  3 active torsions:
  status: ('A' for Active; 'I' for Inactive)
    1  A    between atoms: C_11  and  C_17
    2  A    between atoms: C_17  and  C_25
    3  A    between atoms: C_22  and  C_27
                            x       y       z     vdW  Elec       q    Type
                         _______ _______ _______ _____ _____    ______ ____

>  <TORSDO>
F 3

$$$$
=
 OpenBabel11062419543D

 28 30  0  0  1  0  0  0  0  0999 V2000
  187.9060  176.0610  143.9550 N   0  0  0  0  0  0  0  0  0  0  0  0
  186.2770  177.3010  145.2150 C   0  0  0  0  0  0  0  0  0  0  0  0
  185.2310  177.5080  141.7070 C   0  0  0  0  0  3  0  0  0  0  0  0
  186.1020  177.0940  142.8240 C   0  0  0  0  0  0  0  0  0  0  0  0
  185.7000  177.8550  146.4740 C   0  0  0  0  0  1  0  0  0  0  0  0
  184.6250  179.7550  144.1240 N   0  0  0  0  0  1  0  0  0  0  0  0
  187.2590  176.3220  142.7860 C   0  0  0  0  0  0  0  0  0  0  0  0
  184.1350  178.2770  142.3160 N   0  0  0  0  0  0  0  0  0  0  0  0
  185.6330  177.5750  144.0010 C   0  0  0  0  0  0  0  0  0  0  0  0
  184.4010  178.3650  143.7610 C   0  0  1  0  0  3  0  0  0  0  0  0
  187.4590  176.5020  145.1750 C   0  0  0  0  0  0  0  0  0  0  0  0
  191.7610  175.2390  147.2250 C   0  0  0  0  0  2  0  0  0  0  0  0
  189.1890  174.9330  146.0970 C   0  0  0  0  0  2  0  0  0  0  0  0
  190.5490  177.5190  146.7090 C   0  0  0  0  0  2  0  0  0  0  0  0
  189.0440  177.3990  146.9650 C   0  0  0  0  0  2  0  0  0  0  0  0
  191.5660  174.8620  145.7420 C   0  0  0  0  0  2  0  0  0  0  0  0
  191.5820  177.0160  148.7520 O   0  0  0  0  0  0  0  0  0  0  0  0
  187.4410  175.7550  147.4190 O   0  0  0  0  0  1  0  0  0  0  0  0
  190.2720  175.2480  145.1720 N   0  0  0  0  0  2  0  0  0  0  0  0
  188.3060  176.1570  146.3980 C   0  0  1  0  0  0  0  0  0  0  0  0
  191.3230  176.6240  147.6260 C   0  0  0  0  0  0  0  0  0  0  0  0
  187.8190  175.8220  141.4960 C   0  0  0  0  0  2  0  0  0  0  0  0
  187.6800  173.4700  141.8050 O   0  0  0  0  0  0  0  0  0  0  0  0
  189.9320  171.8280  142.1450 C   0  0  0  0  0  1  0  0  0  0  0  0
  190.5990  173.1500  141.9730 C   0  0  0  0  0  0  0  0  0  0  0  0
  189.8540  174.3570  141.7620 N   0  0  0  0  0  2  0  0  0  0  0  0
  188.4280  174.4760  141.6850 C   0  0  0  0  0  0  0  0  0  0  0  0
  191.8540  173.2050  142.0180 O   0  0  0  0  0  0  0  0  0  0  0  0
  1 11  1  0  0  0  0
  2  5  1  0  0  0  0
  3  8  2  0  0  0  0
  3  4  1  0  0  0  0
  4  9  2  0  0  0  0
  7  4  1  0  0  0  0
  7  1  2  0  0  0  0
  8 10  1  0  0  0  0
  9  2  1  0  0  0  0
 10  9  1  0  0  0  0
 10  6  1  6  0  0  0
 11  2  2  0  0  0  0
 11 20  1  0  0  0  0
 12 21  1  0  0  0  0
 13 20  1  0  0  0  0
 14 15  1  0  0  0  0
 14 21  1  0  0  0  0
 16 12  1  0  0  0  0
 19 16  1  0  0  0  0
 19 13  1  0  0  0  0
 20 15  1  0  0  0  0
 20 18  1  1  0  0  0
 21 17  2  0  0  0  0
 22 27  1  0  0  0  0
 22  7  1  0  0  0  0
 25 28  2  0  0  0  0
 25 24  1  0  0  0  0
 26 25  1  0  0  0  0
 27 26  1  0  0  0  0
 27 23  2  0  0  0  0
M  END
>  <MODEL>
2

>  <REMARK>
 VINA RESULT:      -7.5      1.888      5.161
  Name = 
  3 active torsions:
  status: ('A' for Active; 'I' for Inactive)
    1  A    between atoms: C_11  and  C_17
    2  A    between atoms: C_17  and  C_25
    3  A    between atoms: C_22  and  C_27
                            x       y       z     vdW  Elec       q    Type
                         _______ _______ _______ _____ _____    ______ ____

>  <TORSDO>
F 3

$$$$
=
 OpenBabel11062419543D

 28 30  0  0  1  0  0  0  0  0999 V2000
  188.5500  176.5000  143.5450 N   0  0  0  0  0  0  0  0  0  0  0  0
  189.4230  174.5550  142.4350 C   0  0  0  0  0  0  0  0  0  0  0  0
  187.2910  176.2600  139.9870 C   0  0  0  0  0  3  0  0  0  0  0  0
  187.9380  176.0710  141.3000 C   0  0  0  0  0  0  0  0  0  0  0  0
  190.2360  173.3060  142.3670 C   0  0  0  0  0  1  0  0  0  0  0  0
  187.9630  172.9760  140.1280 N   0  0  0  0  0  1  0  0  0  0  0  0
  187.8570  176.8730  142.4340 C   0  0  0  0  0  0  0  0  0  0  0  0
  187.7470  175.1410  139.1490 N   0  0  0  0  0  0  0  0  0  0  0  0
  188.6900  174.9430  141.3040 C   0  0  0  0  0  0  0  0  0  0  0  0
  188.5970  174.2770  139.9840 C   0  0  1  0  0  3  0  0  0  0  0  0
  189.3450  175.3840  143.5940 C   0  0  0  0  0  0  0  0  0  0  0  0
  192.9210  176.2040  146.8880 C   0  0  0  0  0  2  0  0  0  0  0  0
  191.5620  175.0150  144.7140 C   0  0  0  0  0  2  0  0  0  0  0  0
  190.4780  177.1180  146.5350 C   0  0  0  0  0  2  0  0  0  0  0  0
  189.5450  175.9980  146.0650 C   0  0  0  0  0  2  0  0  0  0  0  0
  193.2230  176.6010  145.4280 C   0  0  0  0  0  2  0  0  0  0  0  0
  191.3270  176.4110  148.6020 O   0  0  0  0  0  0  0  0  0  0  0  0
  189.6610  173.7860  145.3090 O   0  0  0  0  0  1  0  0  0  0  0  0
  192.1380  176.3340  144.4790 N   0  0  0  0  0  2  0  0  0  0  0  0
  190.0380  175.0740  144.9200 C   0  0  1  0  0  0  0  0  0  0  0  0
  191.5620  176.5810  147.4170 C   0  0  0  0  0  0  0  0  0  0  0  0
  186.9990  178.0940  142.4650 C   0  0  0  0  0  2  0  0  0  0  0  0
  184.9800  177.3660  143.4860 O   0  0  0  0  0  0  0  0  0  0  0  0
  184.2160  178.1080  146.0830 C   0  0  0  0  0  1  0  0  0  0  0  0
  185.5280  178.8080  145.9900 C   0  0  0  0  0  0  0  0  0  0  0  0
  186.3450  178.7400  144.8140 N   0  0  0  0  0  2  0  0  0  0  0  0
  186.0470  178.0250  143.6080 C   0  0  0  0  0  0  0  0  0  0  0  0
  185.9280  179.4810  146.9740 O   0  0  0  0  0  0  0  0  0  0  0  0
  1 11  1  0  0  0  0
  2 11  2  0  0  0  0
  3  4  1  0  0  0  0
  4  9  2  0  0  0  0
  4  7  1  0  0  0  0
  5  2  1  0  0  0  0
  7 22  1  0  0  0  0
  7  1  2  0  0  0  0
  8 10  1  0  0  0  0
  8  3  2  0  0  0  0
  9  2  1  0  0  0  0
 10  6  1  1  0  0  0
 10  9  1  0  0  0  0
 11 20  1  0  0  0  0
 12 21  1  0  0  0  0
 13 20  1  0  0  0  0
 14 21  1  0  0  0  0
 15 14  1  0  0  0  0
 16 12  1  0  0  0  0
 19 13  1  0  0  0  0
 19 16  1  0  0  0  0
 20 18  1  1  0  0  0
 20 15  1  0  0  0  0
 21 17  2  0  0  0  0
 22 27  1  0  0  0  0
 23 27  2  0  0  0  0
 25 24  1  0  0  0  0
 25 28  2  0  0  0  0
 26 25  1  0  0  0  0
 27 26  1  0  0  0  0
M  END
>  <MODEL>
3

>  <REMARK>
 VINA RESULT:      -7.5      2.271      6.484
  Name = 
  3 active torsions:
  status: ('A' for Active; 'I' for Inactive)
    1  A    between atoms: C_11  and  C_17
    2  A    between atoms: C_17  and  C_25
    3  A    between atoms: C_22  and  C_27
                            x       y       z     vdW  Elec       q    Type
                         _______ _______ _______ _____ _____    ______ ____

>  <TORSDO>
F 3

$$$$
=
 OpenBabel11062419543D

 28 30  0  0  1  0  0  0  0  0999 V2000
  189.3290  175.3190  144.8370 N   0  0  0  0  0  0  0  0  0  0  0  0
  187.8970  175.5520  142.9200 C   0  0  0  0  0  0  0  0  0  0  0  0
  189.8550  172.5020  142.3690 C   0  0  0  0  0  3  0  0  0  0  0  0
  189.4290  173.7060  143.1080 C   0  0  0  0  0  0  0  0  0  0  0  0
  186.8490  176.2390  142.1090 C   0  0  0  0  0  1  0  0  0  0  0  0
  188.5700  174.5210  140.0180 N   0  0  0  0  0  1  0  0  0  0  0  0
  189.8720  174.1730  144.3420 C   0  0  0  0  0  0  0  0  0  0  0  0
  189.0390  172.4710  141.1450 N   0  0  0  0  0  0  0  0  0  0  0  0
  188.4780  174.3810  142.4160 C   0  0  0  0  0  0  0  0  0  0  0  0
  188.1960  173.6780  141.1420 C   0  0  1  0  0  3  0  0  0  0  0  0
  188.3460  176.0250  144.1890 C   0  0  0  0  0  0  0  0  0  0  0  0
  185.1700  178.4470  147.0800 C   0  0  0  0  0  2  0  0  0  0  0  0
  186.3260  177.4200  144.7150 C   0  0  0  0  0  2  0  0  0  0  0  0
  187.4720  177.2280  147.4650 C   0  0  0  0  0  2  0  0  0  0  0  0
  188.4190  177.4800  146.2880 C   0  0  0  0  0  2  0  0  0  0  0  0
  184.6540  177.1500  146.4220 C   0  0  0  0  0  2  0  0  0  0  0  0
  186.9500  179.3460  148.3230 O   0  0  0  0  0  0  0  0  0  0  0  0
  188.3750  178.3890  144.1310 O   0  0  0  0  0  1  0  0  0  0  0  0
  185.6260  176.4640  145.5650 N   0  0  0  0  0  2  0  0  0  0  0  0
  187.8550  177.3110  144.8520 C   0  0  1  0  0  0  0  0  0  0  0  0
  186.5530  178.3910  147.6740 C   0  0  0  0  0  0  0  0  0  0  0  0
  190.9510  173.4710  145.0980 C   0  0  0  0  0  2  0  0  0  0  0  0
  191.9460  174.8060  146.7940 O   0  0  0  0  0  0  0  0  0  0  0  0
  194.0980  176.5440  146.3180 C   0  0  0  0  0  1  0  0  0  0  0  0
  193.9200  175.9730  144.9530 C   0  0  0  0  0  0  0  0  0  0  0  0
  192.9090  175.0010  144.6600 N   0  0  0  0  0  2  0  0  0  0  0  0
  191.9600  174.4520  145.5850 C   0  0  0  0  0  0  0  0  0  0  0  0
  194.6820  176.3600  144.0300 O   0  0  0  0  0  0  0  0  0  0  0  0
  2 11  1  0  0  0  0
  3  4  1  0  0  0  0
  4  7  2  0  0  0  0
  5  2  1  0  0  0  0
  7  1  1  0  0  0  0
  7 22  1  0  0  0  0
  8  3  2  0  0  0  0
  9  2  2  0  0  0  0
  9  4  1  0  0  0  0
 10  6  1  6  0  0  0
 10  8  1  0  0  0  0
 10  9  1  0  0  0  0
 11  1  2  0  0  0  0
 11 20  1  0  0  0  0
 12 21  1  0  0  0  0
 13 20  1  0  0  0  0
 13 19  1  0  0  0  0
 14 21  1  0  0  0  0
 15 14  1  0  0  0  0
 16 12  1  0  0  0  0
 19 16  1  0  0  0  0
 20 18  1  6  0  0  0
 20 15  1  0  0  0  0
 21 17  2  0  0  0  0
 22 27  1  0  0  0  0
 25 24  1  0  0  0  0
 26 25  1  0  0  0  0
 26 27  1  0  0  0  0
 27 23  2  0  0  0  0
 28 25  2  0  0  0  0
M  END
>  <MODEL>
4

>  <REMARK>
 VINA RESULT:      -7.4      2.152      5.683
  Name = 
  3 active torsions:
  status: ('A' for Active; 'I' for Inactive)
    1  A    between atoms: C_11  and  C_17
    2  A    between atoms: C_17  and  C_25
    3  A    between atoms: C_22  and  C_27
                            x       y       z     vdW  Elec       q    Type
                         _______ _______ _______ _____ _____    ______ ____

>  <TORSDO>
F 3

$$$$
=
 OpenBabel11062419543D

 28 30  0  0  1  0  0  0  0  0999 V2000
  189.0250  175.8120  144.6430 N   0  0  0  0  0  0  0  0  0  0  0  0
  188.7580  174.9430  142.4180 C   0  0  0  0  0  0  0  0  0  0  0  0
  190.3560  172.2820  144.3700 C   0  0  0  0  0  3  0  0  0  0  0  0
  189.7680  173.6190  144.1540 C   0  0  0  0  0  0  0  0  0  0  0  0
  188.3330  175.0300  140.9900 C   0  0  0  0  0  1  0  0  0  0  0  0
  190.6410  172.8040  141.0680 N   0  0  0  0  0  1  0  0  0  0  0  0
  189.6010  174.6540  145.0690 C   0  0  0  0  0  0  0  0  0  0  0  0
  190.2480  171.5830  143.0800 N   0  0  0  0  0  0  0  0  0  0  0  0
  189.3680  173.7640  142.8680 C   0  0  0  0  0  0  0  0  0  0  0  0
  189.6660  172.5250  142.1100 C   0  0  1  0  0  3  0  0  0  0  0  0
  188.5790  176.0000  143.3590 C   0  0  0  0  0  0  0  0  0  0  0  0
  184.7070  179.0080  142.8430 C   0  0  0  0  0  2  0  0  0  0  0  0
  186.7420  177.1850  142.1240 C   0  0  0  0  0  2  0  0  0  0  0  0
  186.3600  178.4330  144.8090 C   0  0  0  0  0  2  0  0  0  0  0  0
  187.7850  178.2470  144.2780 C   0  0  0  0  0  2  0  0  0  0  0  0
  184.4300  177.4970  142.7050 C   0  0  0  0  0  2  0  0  0  0  0  0
  185.7400  180.6130  144.2120 O   0  0  0  0  0  0  0  0  0  0  0  0
  188.9120  178.0540  142.2360 O   0  0  0  0  0  1  0  0  0  0  0  0
  185.6070  176.6370  142.8570 N   0  0  0  0  0  2  0  0  0  0  0  0
  187.9820  177.3640  143.0170 C   0  0  1  0  0  0  0  0  0  0  0  0
  185.6030  179.4230  143.9810 C   0  0  0  0  0  0  0  0  0  0  0  0
  190.0770  174.5320  146.4780 C   0  0  0  0  0  2  0  0  0  0  0  0
  191.2720  176.4280  147.2680 O   0  0  0  0  0  0  0  0  0  0  0  0
  194.0280  176.7870  146.8660 C   0  0  0  0  0  1  0  0  0  0  0  0
  193.8400  175.4630  146.2060 C   0  0  0  0  0  0  0  0  0  0  0  0
  192.5600  174.8200  146.1400 N   0  0  0  0  0  2  0  0  0  0  0  0
  191.3260  175.3210  146.6700 C   0  0  0  0  0  0  0  0  0  0  0  0
  194.8360  174.8960  145.6910 O   0  0  0  0  0  0  0  0  0  0  0  0
  1  7  1  0  0  0  0
  2  9  2  0  0  0  0
  2 11  1  0  0  0  0
  4  3  1  0  0  0  0
  4  7  2  0  0  0  0
  5  2  1  0  0  0  0
  7 22  1  0  0  0  0
  8  3  2  0  0  0  0
  9  4  1  0  0  0  0
 10  6  1  6  0  0  0
 10  9  1  0  0  0  0
 10  8  1  0  0  0  0
 11  1  2  0  0  0  0
 12 21  1  0  0  0  0
 13 19  1  0  0  0  0
 13 20  1  0  0  0  0
 15 14  1  0  0  0  0
 16 12  1  0  0  0  0
 16 19  1  0  0  0  0
 20 18  1  6  0  0  0
 20 11  1  0  0  0  0
 20 15  1  0  0  0  0
 21 17  2  0  0  0  0
 21 14  1  0  0  0  0
 22 27  1  0  0  0  0
 25 24  1  0  0  0  0
 26 25  1  0  0  0  0
 26 27  1  0  0  0  0
 27 23  2  0  0  0  0
 28 25  2  0  0  0  0
M  END
>  <MODEL>
5

>  <REMARK>
 VINA RESULT:      -7.3      2.098      5.253
  Name = 
  3 active torsions:
  status: ('A' for Active; 'I' for Inactive)
    1  A    between atoms: C_11  and  C_17
    2  A    between atoms: C_17  and  C_25
    3  A    between atoms: C_22  and  C_27
                            x       y       z     vdW  Elec       q    Type
                         _______ _______ _______ _____ _____    ______ ____

>  <TORSDO>
F 3

$$$$
=
 OpenBabel11062419543D

 28 30  0  0  1  0  0  0  0  0999 V2000
  188.6970  176.9950  143.4810 N   0  0  0  0  0  0  0  0  0  0  0  0
  187.5100  177.4140  145.5290 C   0  0  0  0  0  0  0  0  0  0  0  0
  185.1020  177.9710  142.8210 C   0  0  0  0  0  3  0  0  0  0  0  0
  186.4190  177.6320  143.3960 C   0  0  0  0  0  0  0  0  0  0  0  0
  187.3990  177.5130  147.0140 C   0  0  0  0  0  1  0  0  0  0  0  0
  185.0940  179.4150  145.8490 N   0  0  0  0  0  1  0  0  0  0  0  0
  187.5900  177.2700  142.7370 C   0  0  0  0  0  0  0  0  0  0  0  0
  184.2200  178.2380  143.9670 N   0  0  0  0  0  0  0  0  0  0  0  0
  186.3840  177.7110  144.7490 C   0  0  0  0  0  0  0  0  0  0  0  0
  185.0300  178.1210  145.1900 C   0  0  1  0  0  3  0  0  0  0  0  0
  188.7080  177.0350  144.8520 C   0  0  0  0  0  0  0  0  0  0  0  0
  192.6590  174.1710  145.5580 C   0  0  0  0  0  2  0  0  0  0  0  0
  190.0800  175.2520  145.9670 C   0  0  0  0  0  2  0  0  0  0  0  0
  192.1040  176.2160  143.9950 C   0  0  0  0  0  2  0  0  0  0  0  0
  191.2510  177.2480  144.7390 C   0  0  0  0  0  2  0  0  0  0  0  0
  191.3930  173.4790  145.0120 C   0  0  0  0  0  2  0  0  0  0  0  0
  194.0810  176.0140  145.2380 O   0  0  0  0  0  0  0  0  0  0  0  0
  190.0620  177.4600  146.7440 O   0  0  0  0  0  1  0  0  0  0  0  0
  190.2390  174.3620  144.8230 N   0  0  0  0  0  2  0  0  0  0  0  0
  190.0320  176.7330  145.5510 C   0  0  1  0  0  0  0  0  0  0  0  0
  193.0190  175.4950  144.9360 C   0  0  0  0  0  0  0  0  0  0  0  0
  187.6610  177.2220  141.2470 C   0  0  0  0  0  2  0  0  0  0  0  0
  187.8110  175.5640  139.5510 O   0  0  0  0  0  0  0  0  0  0  0  0
  188.1920  172.8370  140.0960 C   0  0  0  0  0  1  0  0  0  0  0  0
  188.2050  173.3820  141.4840 C   0  0  0  0  0  0  0  0  0  0  0  0
  188.0410  174.7810  141.7530 N   0  0  0  0  0  2  0  0  0  0  0  0
  187.8510  175.8200  140.7840 C   0  0  0  0  0  0  0  0  0  0  0  0
  188.3630  172.5880  142.4450 O   0  0  0  0  0  0  0  0  0  0  0  0
  1 11  1  0  0  0  0
  2  5  1  0  0  0  0
  3  4  1  0  0  0  0
  3  8  2  0  0  0  0
  4  9  2  0  0  0  0
  7  4  1  0  0  0  0
  7  1  2  0  0  0  0
  8 10  1  0  0  0  0
  9 10  1  0  0  0  0
  9  2  1  0  0  0  0
 10  6  1  6  0  0  0
 11  2  2  0  0  0  0
 11 20  1  0  0  0  0
 14 15  1  0  0  0  0
 14 21  1  0  0  0  0
 15 20  1  0  0  0  0
 16 12  1  0  0  0  0
 19 16  1  0  0  0  0
 19 13  1  0  0  0  0
 20 13  1  0  0  0  0
 20 18  1  1  0  0  0
 21 17  2  0  0  0  0
 21 12  1  0  0  0  0
 22  7  1  0  0  0  0
 23 27  2  0  0  0  0
 24 25  1  0  0  0  0
 25 26  1  0  0  0  0
 25 28  2  0  0  0  0
 27 22  1  0  0  0  0
 27 26  1  0  0  0  0
M  END
>  <MODEL>
6

>  <REMARK>
 VINA RESULT:      -7.3      1.709      4.979
  Name = 
  3 active torsions:
  status: ('A' for Active; 'I' for Inactive)
    1  A    between atoms: C_11  and  C_17
    2  A    between atoms: C_17  and  C_25
    3  A    between atoms: C_22  and  C_27
                            x       y       z     vdW  Elec       q    Type
                         _______ _______ _______ _____ _____    ______ ____

>  <TORSDO>
F 3

$$$$
=
 OpenBabel11062419543D

 28 30  0  0  1  0  0  0  0  0999 V2000
  189.1160  176.0950  142.5230 N   0  0  0  0  0  0  0  0  0  0  0  0
  190.6510  174.3040  142.0630 C   0  0  0  0  0  0  0  0  0  0  0  0
  188.1880  174.2630  139.3470 C   0  0  0  0  0  3  0  0  0  0  0  0
  188.7970  174.7560  140.5980 C   0  0  0  0  0  0  0  0  0  0  0  0
  191.8430  173.4560  142.3560 C   0  0  0  0  0  1  0  0  0  0  0  0
  189.9310  171.6480  140.5230 N   0  0  0  0  0  1  0  0  0  0  0  0
  188.3920  175.8160  141.4040 C   0  0  0  0  0  0  0  0  0  0  0  0
  189.0390  173.1500  138.8980 N   0  0  0  0  0  0  0  0  0  0  0  0
  189.8860  174.0190  140.9230 C   0  0  0  0  0  0  0  0  0  0  0  0
  190.0900  172.9570  139.9100 C   0  0  1  0  0  3  0  0  0  0  0  0
  190.2400  175.3970  142.8830 C   0  0  0  0  0  0  0  0  0  0  0  0
  190.0710  177.0810  147.5140 C   0  0  0  0  0  2  0  0  0  0  0  0
  190.3380  177.1260  144.7010 C   0  0  0  0  0  2  0  0  0  0  0  0
  190.0270  174.6940  146.4050 C   0  0  0  0  0  2  0  0  0  0  0  0
  190.9800  174.6380  145.2070 C   0  0  0  0  0  2  0  0  0  0  0  0
  188.8960  177.4710  146.5940 C   0  0  0  0  0  2  0  0  0  0  0  0
  191.3590  175.2580  148.2490 O   0  0  0  0  0  0  0  0  0  0  0  0
  192.2680  176.0810  143.8890 O   0  0  0  0  0  1  0  0  0  0  0  0
  188.9870  176.9570  145.2240 N   0  0  0  0  0  2  0  0  0  0  0  0
  190.9310  175.8030  144.1840 C   0  0  1  0  0  0  0  0  0  0  0  0
  190.5270  175.6470  147.4460 C   0  0  0  0  0  0  0  0  0  0  0  0
  187.1690  176.6110  141.0880 C   0  0  0  0  0  2  0  0  0  0  0  0
  185.9850  176.0880  143.0810 O   0  0  0  0  0  0  0  0  0  0  0  0
  184.9860  178.0400  144.8340 C   0  0  0  0  0  1  0  0  0  0  0  0
  185.6340  178.9140  143.8160 C   0  0  0  0  0  0  0  0  0  0  0  0
  186.3100  178.3780  142.6710 N   0  0  0  0  0  2  0  0  0  0  0  0
  186.4630  176.9900  142.3440 C   0  0  0  0  0  0  0  0  0  0  0  0
  185.5830  180.1610  143.9670 O   0  0  0  0  0  0  0  0  0  0  0  0
  1 11  1  0  0  0  0
  2  5  1  0  0  0  0
  2 11  2  0  0  0  0
  3  4  1  0  0  0  0
  4  9  2  0  0  0  0
  4  7  1  0  0  0  0
  7  1  2  0  0  0  0
  8  3  2  0  0  0  0
  8 10  1  0  0  0  0
  9  2  1  0  0  0  0
 10  6  1  1  0  0  0
 10  9  1  0  0  0  0
 11 20  1  0  0  0  0
 13 19  1  0  0  0  0
 14 21  1  0  0  0  0
 15 14  1  0  0  0  0
 16 12  1  0  0  0  0
 19 16  1  0  0  0  0
 20 18  1  6  0  0  0
 20 13  1  0  0  0  0
 20 15  1  0  0  0  0
 21 12  1  0  0  0  0
 21 17  2  0  0  0  0
 22  7  1  0  0  0  0
 22 27  1  0  0  0  0
 25 28  2  0  0  0  0
 25 24  1  0  0  0  0
 26 25  1  0  0  0  0
 27 26  1  0  0  0  0
 27 23  2  0  0  0  0
M  END
>  <MODEL>
7

>  <REMARK>
 VINA RESULT:      -7.2      2.249      6.997
  Name = 
  3 active torsions:
  status: ('A' for Active; 'I' for Inactive)
    1  A    between atoms: C_11  and  C_17
    2  A    between atoms: C_17  and  C_25
    3  A    between atoms: C_22  and  C_27
                            x       y       z     vdW  Elec       q    Type
                         _______ _______ _______ _____ _____    ______ ____

>  <TORSDO>
F 3

$$$$
=
 OpenBabel11062419543D

 28 30  0  0  1  0  0  0  0  0999 V2000
  189.1300  174.8180  143.5430 N   0  0  0  0  0  0  0  0  0  0  0  0
  190.8690  176.4310  143.9340 C   0  0  0  0  0  0  0  0  0  0  0  0
  192.5100  173.1530  143.8780 C   0  0  0  0  0  3  0  0  0  0  0  0
  191.3640  174.0800  143.8000 C   0  0  0  0  0  0  0  0  0  0  0  0
  191.3880  177.8150  144.1340 C   0  0  0  0  0  1  0  0  0  0  0  0
  193.5240  175.8820  145.5440 N   0  0  0  0  0  1  0  0  0  0  0  0
  190.0220  173.7890  143.5770 C   0  0  0  0  0  0  0  0  0  0  0  0
  193.6960  173.9950  144.0940 N   0  0  0  0  0  0  0  0  0  0  0  0
  191.7720  175.3600  143.9830 C   0  0  0  0  0  0  0  0  0  0  0  0
  193.2370  175.3890  144.2070 C   0  0  1  0  0  3  0  0  0  0  0  0
  189.4940  176.1320  143.6960 C   0  0  0  0  0  0  0  0  0  0  0  0
  185.6640  178.2910  141.4650 C   0  0  0  0  0  2  0  0  0  0  0  0
  188.3320  177.8540  142.2860 C   0  0  0  0  0  2  0  0  0  0  0  0
  185.9410  176.2930  143.1580 C   0  0  0  0  0  2  0  0  0  0  0  0
  187.0320  176.6050  144.1860 C   0  0  0  0  0  2  0  0  0  0  0  0
  186.6880  177.5880  140.5510 C   0  0  0  0  0  2  0  0  0  0  0  0
  184.3470  177.9960  143.3890 O   0  0  0  0  0  0  0  0  0  0  0  0
  188.7150  178.1860  144.5710 O   0  0  0  0  0  1  0  0  0  0  0  0
  187.8150  176.9650  141.2510 N   0  0  0  0  0  2  0  0  0  0  0  0
  188.3790  177.1750  143.6660 C   0  0  1  0  0  0  0  0  0  0  0  0
  185.2530  177.5440  142.7080 C   0  0  0  0  0  0  0  0  0  0  0  0
  189.5460  172.3830  143.4210 C   0  0  0  0  0  2  0  0  0  0  0  0
  190.4200  171.0100  141.6900 O   0  0  0  0  0  0  0  0  0  0  0  0
  189.7450  171.3290  138.9840 C   0  0  0  0  0  1  0  0  0  0  0  0
  188.9090  172.4050  139.5880 C   0  0  0  0  0  0  0  0  0  0  0  0
  188.8990  172.6610  140.9980 N   0  0  0  0  0  2  0  0  0  0  0  0
  189.6500  171.9590  141.9970 C   0  0  0  0  0  0  0  0  0  0  0  0
  188.1920  173.1110  138.8330 O   0  0  0  0  0  0  0  0  0  0  0  0
  1  7  2  0  0  0  0
  1 11  1  0  0  0  0
  2  9  1  0  0  0  0
  2  5  1  0  0  0  0
  3  8  2  0  0  0  0
  4  3  1  0  0  0  0
  4  9  2  0  0  0  0
  7  4  1  0  0  0  0
  8 10  1  0  0  0  0
  9 10  1  0  0  0  0
 10  6  1  1  0  0  0
 11  2  2  0  0  0  0
 12 21  1  0  0  0  0
 13 20  1  0  0  0  0
 14 15  1  0  0  0  0
 16 19  1  0  0  0  0
 16 12  1  0  0  0  0
 19 13  1  0  0  0  0
 20 11  1  0  0  0  0
 20 15  1  0  0  0  0
 20 18  1  1  0  0  0
 21 14  1  0  0  0  0
 21 17  2  0  0  0  0
 22  7  1  0  0  0  0
 23 27  2  0  0  0  0
 24 25  1  0  0  0  0
 25 26  1  0  0  0  0
 26 27  1  0  0  0  0
 27 22  1  0  0  0  0
 28 25  2  0  0  0  0
M  END
>  <MODEL>
8

>  <REMARK>
 VINA RESULT:      -7.1      3.035      6.310
  Name = 
  3 active torsions:
  status: ('A' for Active; 'I' for Inactive)
    1  A    between atoms: C_11  and  C_17
    2  A    between atoms: C_17  and  C_25
    3  A    between atoms: C_22  and  C_27
                            x       y       z     vdW  Elec       q    Type
                         _______ _______ _______ _____ _____    ______ ____

>  <TORSDO>
F 3

$$$$
=
 OpenBabel11062419543D

 28 30  0  0  1  0  0  0  0  0999 V2000
  189.2830  174.6590  144.8630 N   0  0  0  0  0  0  0  0  0  0  0  0
  187.6970  175.9500  143.5980 C   0  0  0  0  0  0  0  0  0  0  0  0
  187.8390  177.4820  146.9250 C   0  0  0  0  0  3  0  0  0  0  0  0
  188.2010  176.5000  145.8850 C   0  0  0  0  0  0  0  0  0  0  0  0
  186.9130  176.2740  142.3700 C   0  0  0  0  0  1  0  0  0  0  0  0
  185.2310  177.4920  144.8150 N   0  0  0  0  0  1  0  0  0  0  0  0
  189.1050  175.4440  145.9610 C   0  0  0  0  0  0  0  0  0  0  0  0
  186.8690  178.3920  146.2980 N   0  0  0  0  0  0  0  0  0  0  0  0
  187.5130  176.7380  144.7420 C   0  0  0  0  0  0  0  0  0  0  0  0
  186.6200  177.9060  144.9320 C   0  0  1  0  0  3  0  0  0  0  0  0
  188.6310  174.8730  143.6740 C   0  0  0  0  0  0  0  0  0  0  0  0
  191.7320  172.6500  140.5520 C   0  0  0  0  0  2  0  0  0  0  0  0
  189.8550  174.5330  141.5090 C   0  0  0  0  0  2  0  0  0  0  0  0
  190.8020  172.0980  142.9520 C   0  0  0  0  0  2  0  0  0  0  0  0
  189.3270  172.4920  143.0630 C   0  0  0  0  0  2  0  0  0  0  0  0
  192.1690  174.0260  141.0960 C   0  0  0  0  0  2  0  0  0  0  0  0
  190.9130  170.5450  141.2000 O   0  0  0  0  0  0  0  0  0  0  0  0
  187.7050  173.6750  141.8580 O   0  0  0  0  0  1  0  0  0  0  0  0
  191.2170  174.6570  142.0150 N   0  0  0  0  0  2  0  0  0  0  0  0
  188.9070  173.8910  142.5370 C   0  0  1  0  0  0  0  0  0  0  0  0
  191.1460  171.6900  141.5540 C   0  0  0  0  0  0  0  0  0  0  0  0
  189.8380  175.1370  147.2240 C   0  0  0  0  0  2  0  0  0  0  0  0
  191.4710  176.7840  147.7420 O   0  0  0  0  0  0  0  0  0  0  0  0
  194.1240  176.6590  146.8330 C   0  0  0  0  0  1  0  0  0  0  0  0
  193.5900  175.3970  146.2470 C   0  0  0  0  0  0  0  0  0  0  0  0
  192.2280  174.9890  146.4300 N   0  0  0  0  0  2  0  0  0  0  0  0
  191.2190  175.6920  147.1670 C   0  0  0  0  0  0  0  0  0  0  0  0
  194.3600  174.6700  145.5690 O   0  0  0  0  0  0  0  0  0  0  0  0
  1  7  1  0  0  0  0
  2 11  1  0  0  0  0
  2  9  2  0  0  0  0
  4  7  2  0  0  0  0
  4  3  1  0  0  0  0
  5  2  1  0  0  0  0
  7 22  1  0  0  0  0
  8  3  2  0  0  0  0
  9 10  1  0  0  0  0
  9  4  1  0  0  0  0
 10  6  1  1  0  0  0
 10  8  1  0  0  0  0
 11  1  2  0  0  0  0
 12 16  1  0  0  0  0
 12 21  1  0  0  0  0
 13 19  1  0  0  0  0
 13 20  1  0  0  0  0
 14 15  1  0  0  0  0
 16 19  1  0  0  0  0
 17 21  2  0  0  0  0
 20 18  1  6  0  0  0
 20 15  1  0  0  0  0
 20 11  1  0  0  0  0
 21 14  1  0  0  0  0
 25 26  1  0  0  0  0
 25 24  1  0  0  0  0
 26 27  1  0  0  0  0
 27 22  1  0  0  0  0
 27 23  2  0  0  0  0
 28 25  2  0  0  0  0
M  END
>  <MODEL>
9

>  <REMARK>
 VINA RESULT:      -7.1      1.769      2.376
  Name = 
  3 active torsions:
  status: ('A' for Active; 'I' for Inactive)
    1  A    between atoms: C_11  and  C_17
    2  A    between atoms: C_17  and  C_25
    3  A    between atoms: C_22  and  C_27
                            x       y       z     vdW  Elec       q    Type
                         _______ _______ _______ _____ _____    ______ ____

>  <TORSDO>
F 3

$$$$
