=
 OpenBabel11062422303D

 43 49  0  0  1  0  0  0  0  0999 V2000
  195.3460  174.9090  138.2190 C   0  0  1  0  0  3  0  0  0  0  0  0
  188.6520  175.5880  142.7800 N   0  0  0  0  0  0  0  0  0  0  0  0
  193.3780  173.3870  140.7150 C   0  0  2  0  0  3  0  0  0  0  0  0
  189.5930  177.0500  145.3150 C   0  0  0  0  0  0  0  0  0  0  0  0
  190.6560  177.1280  144.5030 C   0  0  0  0  0  3  0  0  0  0  0  0
  192.0090  173.1470  141.1190 N   0  0  0  0  0  0  0  0  0  0  0  0
  192.3470  176.0460  145.8710 C   0  0  2  0  0  3  0  0  0  0  0  0
  194.1070  174.6050  137.3880 C   0  0  1  0  0  3  0  0  0  0  0  0
  192.0700  177.2040  144.9480 C   0  0  0  0  0  2  0  0  0  0  0  0
  189.0230  173.9910  141.0670 C   0  0  0  0  0  2  0  0  0  0  0  0
  193.5990  174.8340  143.6260 O   0  0  0  0  0  0  0  0  0  0  0  0
  194.3330  173.3740  141.8920 C   0  0  0  0  0  0  0  0  0  0  0  0
  194.1150  174.5620  144.8960 C   0  0  0  0  0  2  0  0  0  0  0  0
  194.8880  174.9770  139.5970 N   0  0  0  0  0  0  0  0  0  0  0  0
  194.9480  175.8820  141.9580 C   0  0  0  0  0  2  0  0  0  0  0  0
  194.4740  173.5320  136.4490 N   0  0  0  0  0  0  0  0  0  0  0  0
  191.9590  176.4250  147.2160 N   0  0  0  0  0  2  0  0  0  0  0  0
  193.3610  172.6510  136.1140 C   0  0  0  0  0  1  0  0  0  0  0  0
  187.8620  176.5090  143.5570 C   0  0  0  0  0  0  0  0  0  0  0  0
  196.7920  176.0380  140.4510 O   0  0  0  0  0  0  0  0  0  0  0  0
  196.2960  173.7330  137.9550 C   0  0  2  0  0  3  0  0  0  0  0  0
  187.1240  177.8280  145.3440 C   0  0  0  0  0  2  0  0  0  0  0  0
  194.6450  174.5920  142.7350 C   0  0  1  0  0  3  0  0  0  0  0  0
  193.0010  174.2170  138.3900 C   0  0  0  0  0  2  0  0  0  0  0  0
  189.9410  173.6700  142.2380 C   0  0  1  0  0  3  0  0  0  0  0  0
  185.9160  177.4710  144.4860 C   0  0  2  0  0  3  0  0  0  0  0  0
  190.6750  176.8660  147.5840 N   0  0  0  0  0  0  0  0  0  0  0  0
  195.5000  172.7550  137.1210 C   0  0  0  0  0  2  0  0  0  0  0  0
  188.3590  175.3160  141.3860 C   0  0  0  0  0  2  0  0  0  0  0  0
  195.6110  175.6450  140.6390 C   0  0  0  0  0  0  0  0  0  0  0  0
  193.5000  174.5930  139.7730 C   0  0  1  0  0  3  0  0  0  0  0  0
  191.3550  173.9660  141.8620 C   0  0  0  0  0  3  0  0  0  0  0  0
  186.4600  176.8640  143.1860 C   0  0  1  0  0  3  0  0  0  0  0  0
  186.4820  177.8460  142.0210 C   0  0  0  0  0  1  0  0  0  0  0  0
  196.8510  173.0430  139.1920 C   0  0  0  0  0  1  0  0  0  0  0  0
  188.2400  177.0700  144.7120 C   0  0  0  0  0  0  0  0  0  0  0  0
  194.8420  172.3110  142.2070 O   0  0  0  0  0  0  0  0  0  0  0  0
  189.5130  174.5820  143.3720 C   0  0  0  0  0  2  0  0  0  0  0  0
  189.6610  177.1130  146.7990 C   0  0  0  0  0  3  0  0  0  0  0  0
  193.8300  175.7200  145.8430 C   0  0  0  0  0  2  0  0  0  0  0  0
  184.8530  178.5730  144.3630 C   0  0  2  0  0  3  0  0  0  0  0  0
  185.4540  179.9620  144.2090 C   0  0  0  0  0  1  0  0  0  0  0  0
  183.9870  178.5500  145.5300 N   0  0  0  0  0  1  0  0  0  0  0  0
  1 14  1  1  0  0  0
  2 38  1  0  0  0  0
  2 19  1  0  0  0  0
  3  6  1  1  0  0  0
  3 12  1  0  0  0  0
  4 39  1  0  0  0  0
  5  9  1  0  0  0  0
  5  4  2  0  0  0  0
  6 32  2  0  0  0  0
  7  9  1  6  0  0  0
  7 17  1  0  0  0  0
  8  1  1  0  0  0  0
  8 24  1  1  0  0  0
 10 29  1  0  0  0  0
 11 13  1  0  0  0  0
 12 37  2  0  0  0  0
 12 23  1  0  0  0  0
 13 40  1  0  0  0  0
 14 31  1  0  0  0  0
 14 30  1  0  0  0  0
 16 28  1  0  0  0  0
 16  8  1  0  0  0  0
 17 27  1  0  0  0  0
 18 16  1  0  0  0  0
 19 36  2  0  0  0  0
 20 30  2  0  0  0  0
 21  1  1  0  0  0  0
 21 35  1  1  0  0  0
 23 15  1  6  0  0  0
 23 11  1  0  0  0  0
 25 10  1  6  0  0  0
 25 38  1  0  0  0  0
 26 41  1  6  0  0  0
 26 22  1  0  0  0  0
 28 21  1  0  0  0  0
 29  2  1  0  0  0  0
 30 15  1  0  0  0  0
 31 24  1  6  0  0  0
 31  3  1  0  0  0  0
 32 25  1  0  0  0  0
 33 34  1  6  0  0  0
 33 19  1  0  0  0  0
 33 26  1  0  0  0  0
 36  4  1  0  0  0  0
 36 22  1  0  0  0  0
 39 27  2  0  0  0  0
 40  7  1  0  0  0  0
 41 42  1  1  0  0  0
 41 43  1  0  0  0  0
M  END
>  <MODEL>
1

>  <REMARK>
 VINA RESULT:     -10.1      0.000      0.000
  Name = 
  1 active torsions:
  status: ('A' for Active; 'I' for Inactive)
    1  A    between atoms: C_13  and  C_27
                            x       y       z     vdW  Elec       q    Type
                         _______ _______ _______ _____ _____    ______ ____

>  <TORSDO>
F 1

$$$$
=
 OpenBabel11062422303D

 43 49  0  0  1  0  0  0  0  0999 V2000
  196.1130  175.2060  139.3630 C   0  0  1  0  0  3  0  0  0  0  0  0
  188.5580  175.6580  142.3300 N   0  0  0  0  0  0  0  0  0  0  0  0
  193.6810  173.6000  141.3440 C   0  0  2  0  0  3  0  0  0  0  0  0
  188.8760  177.1010  145.0260 C   0  0  0  0  0  0  0  0  0  0  0  0
  190.0890  177.2150  144.4720 C   0  0  0  0  0  3  0  0  0  0  0  0
  192.2630  173.3220  141.4310 N   0  0  0  0  0  0  0  0  0  0  0  0
  191.4630  176.1510  146.1700 C   0  0  2  0  0  3  0  0  0  0  0  0
  195.0970  174.8880  138.2750 C   0  0  1  0  0  3  0  0  0  0  0  0
  191.3670  177.3170  145.2210 C   0  0  0  0  0  2  0  0  0  0  0  0
  189.3420  174.0970  140.7260 C   0  0  0  0  0  2  0  0  0  0  0  0
  193.2130  175.0040  144.2470 O   0  0  0  0  0  0  0  0  0  0  0  0
  194.3510  173.5900  142.7040 C   0  0  0  0  0  0  0  0  0  0  0  0
  193.4410  174.7240  145.5960 C   0  0  0  0  0  2  0  0  0  0  0  0
  195.3590  175.2420  140.6060 N   0  0  0  0  0  0  0  0  0  0  0  0
  194.8700  176.1100  142.9310 C   0  0  0  0  0  2  0  0  0  0  0  0
  195.6920  173.8390  137.4290 N   0  0  0  0  0  0  0  0  0  0  0  0
  190.7770  176.4990  147.3980 N   0  0  0  0  0  2  0  0  0  0  0  0
  194.7040  172.9380  136.8470 C   0  0  0  0  0  1  0  0  0  0  0  0
  187.5930  176.5480  142.9220 C   0  0  0  0  0  0  0  0  0  0  0  0
  196.9980  176.3330  141.8730 O   0  0  0  0  0  0  0  0  0  0  0  0
  197.1280  174.0580  139.3040 C   0  0  2  0  0  3  0  0  0  0  0  0
  186.4420  177.8210  144.5150 C   0  0  0  0  0  2  0  0  0  0  0  0
  194.4360  174.8020  143.6070 C   0  0  1  0  0  3  0  0  0  0  0  0
  193.8070  174.4590  139.0020 C   0  0  0  0  0  2  0  0  0  0  0  0
  189.9850  173.7790  142.0680 C   0  0  1  0  0  3  0  0  0  0  0  0
  185.4640  177.4500  143.4060 C   0  0  2  0  0  3  0  0  0  0  0  0
  189.4320  176.9050  147.4770 N   0  0  0  0  0  0  0  0  0  0  0  0
  196.5620  173.0750  138.3050 C   0  0  0  0  0  2  0  0  0  0  0  0
  188.5890  175.4020  140.9040 C   0  0  0  0  0  2  0  0  0  0  0  0
  195.8150  175.9090  141.7890 C   0  0  0  0  0  0  0  0  0  0  0  0
  193.9770  174.8230  140.4650 C   0  0  1  0  0  3  0  0  0  0  0  0
  191.4400  174.1130  142.0190 C   0  0  0  0  0  3  0  0  0  0  0  0
  186.2990  176.8760  142.2530 C   0  0  1  0  0  3  0  0  0  0  0  0
  186.5530  177.8770  141.1320 C   0  0  0  0  0  1  0  0  0  0  0  0
  197.4120  173.3600  140.6270 C   0  0  0  0  0  1  0  0  0  0  0  0
  187.6900  177.0980  144.1380 C   0  0  0  0  0  0  0  0  0  0  0  0
  194.8040  172.5340  143.1130 O   0  0  0  0  0  0  0  0  0  0  0  0
  189.2930  174.6630  143.0880 C   0  0  0  0  0  2  0  0  0  0  0  0
  188.6110  177.1410  146.4890 C   0  0  0  0  0  3  0  0  0  0  0  0
  192.9230  175.8600  146.4680 C   0  0  0  0  0  2  0  0  0  0  0  0
  184.4260  178.5290  143.0620 C   0  0  2  0  0  3  0  0  0  0  0  0
  183.7520  179.1170  144.2920 C   0  0  0  0  0  1  0  0  0  0  0  0
  183.4160  177.9720  142.1800 N   0  0  0  0  0  1  0  0  0  0  0  0
  1 14  1  1  0  0  0
  2 19  1  0  0  0  0
  2 38  1  0  0  0  0
  3  6  1  1  0  0  0
  3 12  1  0  0  0  0
  4 39  1  0  0  0  0
  5  4  2  0  0  0  0
  5  9  1  0  0  0  0
  6 32  2  0  0  0  0
  7  9  1  6  0  0  0
  7 40  1  0  0  0  0
  7 17  1  0  0  0  0
  8 24  1  1  0  0  0
  8  1  1  0  0  0  0
 10 29  1  0  0  0  0
 11 13  1  0  0  0  0
 12 37  2  0  0  0  0
 12 23  1  0  0  0  0
 13 40  1  0  0  0  0
 14 30  1  0  0  0  0
 16  8  1  0  0  0  0
 16 28  1  0  0  0  0
 17 27  1  0  0  0  0
 18 16  1  0  0  0  0
 19 36  2  0  0  0  0
 21  1  1  0  0  0  0
 21 35  1  1  0  0  0
 23 15  1  6  0  0  0
 23 11  1  0  0  0  0
 25 10  1  6  0  0  0
 25 38  1  0  0  0  0
 26 41  1  6  0  0  0
 26 22  1  0  0  0  0
 28 21  1  0  0  0  0
 29  2  1  0  0  0  0
 30 20  2  0  0  0  0
 30 15  1  0  0  0  0
 31 24  1  6  0  0  0
 31 14  1  0  0  0  0
 31  3  1  0  0  0  0
 32 25  1  0  0  0  0
 33 34  1  6  0  0  0
 33 19  1  0  0  0  0
 33 26  1  0  0  0  0
 36 22  1  0  0  0  0
 36  4  1  0  0  0  0
 39 27  2  0  0  0  0
 41 42  1  1  0  0  0
 43 41  1  0  0  0  0
M  END
>  <MODEL>
2

>  <REMARK>
 VINA RESULT:      -9.9      1.075      1.186
  Name = 
  1 active torsions:
  status: ('A' for Active; 'I' for Inactive)
    1  A    between atoms: C_13  and  C_27
                            x       y       z     vdW  Elec       q    Type
                         _______ _______ _______ _____ _____    ______ ____

>  <TORSDO>
F 1

$$$$
=
 OpenBabel11062422303D

 43 49  0  0  1  0  0  0  0  0999 V2000
  193.5150  174.3010  137.2650 C   0  0  1  0  0  3  0  0  0  0  0  0
  188.5430  175.3010  143.6170 N   0  0  0  0  0  0  0  0  0  0  0  0
  192.3130  172.8700  140.2520 C   0  0  2  0  0  3  0  0  0  0  0  0
  190.2750  176.6990  145.7370 C   0  0  0  0  0  0  0  0  0  0  0  0
  191.0470  176.7260  144.6440 C   0  0  0  0  0  3  0  0  0  0  0  0
  191.1180  172.6990  141.0500 N   0  0  0  0  0  0  0  0  0  0  0  0
  193.0140  175.5500  145.4520 C   0  0  2  0  0  3  0  0  0  0  0  0
  192.0700  174.0660  136.8480 C   0  0  1  0  0  3  0  0  0  0  0  0
  192.5320  176.7270  144.6430 C   0  0  0  0  0  2  0  0  0  0  0  0
  188.3010  173.6960  141.8890 C   0  0  0  0  0  2  0  0  0  0  0  0
  193.4710  174.2880  142.9480 O   0  0  0  0  0  0  0  0  0  0  0  0
  193.5750  172.8010  141.0890 C   0  0  0  0  0  0  0  0  0  0  0  0
  194.3300  173.9830  144.0070 C   0  0  0  0  0  2  0  0  0  0  0  0
  193.4960  174.3860  138.7160 N   0  0  0  0  0  0  0  0  0  0  0  0
  194.3080  175.2730  140.9410 C   0  0  0  0  0  2  0  0  0  0  0  0
  192.0830  172.9810  135.8520 N   0  0  0  0  0  0  0  0  0  0  0  0
  193.0670  175.9420  146.8470 N   0  0  0  0  0  2  0  0  0  0  0  0
  190.8780  172.1600  135.8760 C   0  0  0  0  0  1  0  0  0  0  0  0
  188.0710  176.2580  144.5850 C   0  0  0  0  0  0  0  0  0  0  0  0
  195.6200  175.3420  138.9480 O   0  0  0  0  0  0  0  0  0  0  0  0
  194.2810  173.0790  136.7400 C   0  0  2  0  0  3  0  0  0  0  0  0
  187.9710  177.6040  146.4980 C   0  0  0  0  0  2  0  0  0  0  0  0
  194.1870  173.9970  141.7860 C   0  0  1  0  0  3  0  0  0  0  0  0
  191.2980  173.7310  138.1390 C   0  0  0  0  0  2  0  0  0  0  0  0
  189.5100  173.3220  142.7330 C   0  0  1  0  0  3  0  0  0  0  0  0
  186.5450  177.3140  146.0460 C   0  0  2  0  0  3  0  0  0  0  0  0
  191.9780  176.4470  147.5790 N   0  0  0  0  0  0  0  0  0  0  0  0
  193.2220  172.1480  136.1940 C   0  0  0  0  0  2  0  0  0  0  0  0
  187.8320  175.0520  142.3780 C   0  0  0  0  0  2  0  0  0  0  0  0
  194.5310  175.0090  139.4860 C   0  0  0  0  0  0  0  0  0  0  0  0
  192.2070  174.0730  139.3040 C   0  0  1  0  0  3  0  0  0  0  0  0
  190.7600  173.5460  141.9470 C   0  0  0  0  0  3  0  0  0  0  0  0
  186.6420  176.6860  144.6490 C   0  0  1  0  0  3  0  0  0  0  0  0
  186.3630  177.6720  143.5210 C   0  0  0  0  0  1  0  0  0  0  0  0
  195.1450  172.3540  137.7610 C   0  0  0  0  0  1  0  0  0  0  0  0
  188.8060  176.7920  145.5680 C   0  0  0  0  0  0  0  0  0  0  0  0
  194.1000  171.7110  141.2480 O   0  0  0  0  0  0  0  0  0  0  0  0
  189.4900  174.2490  143.9340 C   0  0  0  0  0  2  0  0  0  0  0  0
  190.7890  176.7500  147.1320 C   0  0  0  0  0  3  0  0  0  0  0  0
  194.4010  175.1490  144.9830 C   0  0  0  0  0  2  0  0  0  0  0  0
  185.5510  178.4700  146.2360 C   0  0  2  0  0  3  0  0  0  0  0  0
  185.8810  179.3430  147.4380 C   0  0  0  0  0  1  0  0  0  0  0  0
  184.2070  177.9410  146.3800 N   0  0  0  0  0  1  0  0  0  0  0  0
  1 14  1  1  0  0  0
  2 38  1  0  0  0  0
  2 19  1  0  0  0  0
  3  6  1  1  0  0  0
  3 12  1  0  0  0  0
  4 39  1  0  0  0  0
  5  4  2  0  0  0  0
  6 32  2  0  0  0  0
  7  9  1  6  0  0  0
  7 17  1  0  0  0  0
  8  1  1  0  0  0  0
  8 24  1  1  0  0  0
  9  5  1  0  0  0  0
 10 29  1  0  0  0  0
 11 13  1  0  0  0  0
 12 37  2  0  0  0  0
 12 23  1  0  0  0  0
 13 40  1  0  0  0  0
 14 31  1  0  0  0  0
 14 30  1  0  0  0  0
 16 18  1  0  0  0  0
 16 28  1  0  0  0  0
 16  8  1  0  0  0  0
 17 27  1  0  0  0  0
 19 33  1  0  0  0  0
 19 36  2  0  0  0  0
 20 30  2  0  0  0  0
 21  1  1  0  0  0  0
 21 35  1  1  0  0  0
 23 15  1  6  0  0  0
 23 11  1  0  0  0  0
 25 10  1  6  0  0  0
 25 38  1  0  0  0  0
 26 41  1  6  0  0  0
 26 22  1  0  0  0  0
 28 21  1  0  0  0  0
 29  2  1  0  0  0  0
 30 15  1  0  0  0  0
 31 24  1  6  0  0  0
 31  3  1  0  0  0  0
 32 25  1  0  0  0  0
 33 34  1  6  0  0  0
 33 26  1  0  0  0  0
 36  4  1  0  0  0  0
 36 22  1  0  0  0  0
 39 27  2  0  0  0  0
 40  7  1  0  0  0  0
 41 43  1  0  0  0  0
 41 42  1  1  0  0  0
M  END
>  <MODEL>
3

>  <REMARK>
 VINA RESULT:      -9.7      1.294      1.588
  Name = 
  1 active torsions:
  status: ('A' for Active; 'I' for Inactive)
    1  A    between atoms: C_13  and  C_27
                            x       y       z     vdW  Elec       q    Type
                         _______ _______ _______ _____ _____    ______ ____

>  <TORSDO>
F 1

$$$$
=
 OpenBabel11062422303D

 43 49  0  0  1  0  0  0  0  0999 V2000
  193.8360  168.8920  143.9940 C   0  0  1  0  0  3  0  0  0  0  0  0
  189.8140  175.8810  145.0220 N   0  0  0  0  0  0  0  0  0  0  0  0
  193.6630  172.2920  143.0840 C   0  0  2  0  0  3  0  0  0  0  0  0
  187.6460  175.8490  142.8420 C   0  0  0  0  0  0  0  0  0  0  0  0
  188.1600  174.6140  142.7820 C   0  0  0  0  0  3  0  0  0  0  0  0
  193.4000  173.6150  143.6090 N   0  0  0  0  0  0  0  0  0  0  0  0
  188.8880  174.5410  140.4650 C   0  0  2  0  0  3  0  0  0  0  0  0
  194.1890  169.5130  145.3380 C   0  0  1  0  0  3  0  0  0  0  0  0
  188.2110  173.7650  141.5650 C   0  0  0  0  0  2  0  0  0  0  0  0
  192.0310  175.4250  145.7260 C   0  0  0  0  0  2  0  0  0  0  0  0
  191.1900  172.9930  141.0810 O   0  0  0  0  0  0  0  0  0  0  0  0
  193.3750  172.1980  141.5990 C   0  0  0  0  0  0  0  0  0  0  0  0
  190.9930  173.3830  139.7550 C   0  0  0  0  0  2  0  0  0  0  0  0
  193.0820  169.9080  143.2780 N   0  0  0  0  0  0  0  0  0  0  0  0
  191.2860  170.6820  141.6740 C   0  0  0  0  0  2  0  0  0  0  0  0
  195.6140  169.2280  145.5800 N   0  0  0  0  0  0  0  0  0  0  0  0
  187.8920  175.3520  139.7930 N   0  0  0  0  0  2  0  0  0  0  0  0
  196.2860  170.2630  146.3570 C   0  0  0  0  0  1  0  0  0  0  0  0
  188.5000  176.4600  145.1390 C   0  0  0  0  0  0  0  0  0  0  0  0
  192.2010  168.4780  141.6480 O   0  0  0  0  0  0  0  0  0  0  0  0
  195.1870  168.5690  143.3410 C   0  0  2  0  0  3  0  0  0  0  0  0
  186.4130  177.3480  144.5560 C   0  0  0  0  0  2  0  0  0  0  0  0
  192.0140  171.8680  141.0260 C   0  0  1  0  0  3  0  0  0  0  0  0
  193.8560  171.0130  145.2210 C   0  0  0  0  0  2  0  0  0  0  0  0
  192.0080  175.4890  144.2060 C   0  0  1  0  0  3  0  0  0  0  0  0
  186.8320  177.9550  145.8900 C   0  0  2  0  0  3  0  0  0  0  0  0
  187.0660  176.2960  140.4300 N   0  0  0  0  0  0  0  0  0  0  0  0
  196.2280  169.1560  144.2660 C   0  0  0  0  0  2  0  0  0  0  0  0
  190.5880  175.5000  146.1870 C   0  0  0  0  0  2  0  0  0  0  0  0
  192.2060  169.6180  142.1810 C   0  0  0  0  0  0  0  0  0  0  0  0
  193.0390  171.1910  143.9540 C   0  0  1  0  0  3  0  0  0  0  0  0
  192.2200  174.1220  143.6440 C   0  0  0  0  0  3  0  0  0  0  0  0
  188.0430  177.1500  146.3820 C   0  0  1  0  0  3  0  0  0  0  0  0
  187.6900  176.1060  147.4350 C   0  0  0  0  0  1  0  0  0  0  0  0
  195.3790  169.0970  141.9270 C   0  0  0  0  0  1  0  0  0  0  0  0
  187.5940  176.5300  144.1560 C   0  0  0  0  0  0  0  0  0  0  0  0
  194.2810  172.4490  140.8220 O   0  0  0  0  0  0  0  0  0  0  0  0
  190.6270  175.9890  143.8260 C   0  0  0  0  0  2  0  0  0  0  0  0
  186.9670  176.5340  141.7100 C   0  0  0  0  0  3  0  0  0  0  0  0
  189.5090  173.5740  139.4730 C   0  0  0  0  0  2  0  0  0  0  0  0
  185.6880  178.1950  146.8870 C   0  0  2  0  0  3  0  0  0  0  0  0
  184.3270  178.2920  146.2140 C   0  0  0  0  0  1  0  0  0  0  0  0
  185.9410  179.4120  147.6380 N   0  0  0  0  0  1  0  0  0  0  0  0
  1 14  1  6  0  0  0
  1  8  1  0  0  0  0
  2 19  1  0  0  0  0
  2 29  1  0  0  0  0
  3 12  1  6  0  0  0
  3  6  1  0  0  0  0
  3 31  1  0  0  0  0
  4 36  1  0  0  0  0
  5  4  2  0  0  0  0
  6 32  2  0  0  0  0
  7 40  1  6  0  0  0
  7  9  1  0  0  0  0
  8 24  1  6  0  0  0
  8 16  1  0  0  0  0
  9  5  1  0  0  0  0
 10 29  1  0  0  0  0
 13 11  1  0  0  0  0
 14 31  1  0  0  0  0
 15 30  1  0  0  0  0
 16 18  1  0  0  0  0
 17 27  1  0  0  0  0
 17  7  1  0  0  0  0
 19 33  1  0  0  0  0
 20 30  2  0  0  0  0
 21 35  1  6  0  0  0
 21  1  1  0  0  0  0
 21 28  1  0  0  0  0
 22 26  1  0  0  0  0
 23 11  1  0  0  0  0
 23 12  1  0  0  0  0
 23 15  1  1  0  0  0
 25 32  1  6  0  0  0
 25 10  1  0  0  0  0
 26 33  1  0  0  0  0
 26 41  1  1  0  0  0
 27 39  2  0  0  0  0
 28 16  1  0  0  0  0
 30 14  1  0  0  0  0
 31 24  1  1  0  0  0
 33 34  1  1  0  0  0
 36 22  1  0  0  0  0
 36 19  2  0  0  0  0
 37 12  2  0  0  0  0
 38 25  1  0  0  0  0
 38  2  1  0  0  0  0
 39  4  1  0  0  0  0
 40 13  1  0  0  0  0
 41 42  1  6  0  0  0
 41 43  1  0  0  0  0
M  END
>  <MODEL>
4

>  <REMARK>
 VINA RESULT:      -9.2      3.053      5.764
  Name = 
  1 active torsions:
  status: ('A' for Active; 'I' for Inactive)
    1  A    between atoms: C_13  and  C_27
                            x       y       z     vdW  Elec       q    Type
                         _______ _______ _______ _____ _____    ______ ____

>  <TORSDO>
F 1

$$$$
=
 OpenBabel11062422303D

 43 49  0  0  1  0  0  0  0  0999 V2000
  195.1620  170.5760  144.5330 C   0  0  1  0  0  3  0  0  0  0  0  0
  189.8030  176.6600  143.9550 N   0  0  0  0  0  0  0  0  0  0  0  0
  194.3620  173.5800  142.8730 C   0  0  2  0  0  3  0  0  0  0  0  0
  187.7790  175.7050  141.8470 C   0  0  0  0  0  0  0  0  0  0  0  0
  188.5280  174.6180  142.0680 C   0  0  0  0  0  3  0  0  0  0  0  0
  193.8220  174.9060  143.0830 N   0  0  0  0  0  0  0  0  0  0  0  0
  189.3540  174.1750  139.8260 C   0  0  2  0  0  3  0  0  0  0  0  0
  195.3290  171.5400  145.6990 C   0  0  1  0  0  3  0  0  0  0  0  0
  188.7960  173.5460  141.0770 C   0  0  0  0  0  2  0  0  0  0  0  0
  192.0340  176.8300  144.7370 C   0  0  0  0  0  2  0  0  0  0  0  0
  191.8870  173.3010  140.7710 O   0  0  0  0  0  0  0  0  0  0  0  0
  194.1620  173.0990  141.4490 C   0  0  0  0  0  0  0  0  0  0  0  0
  191.6740  173.3360  139.3910 C   0  0  0  0  0  2  0  0  0  0  0  0
  194.2540  171.2330  143.6070 N   0  0  0  0  0  0  0  0  0  0  0  0
  192.4110  171.2500  141.8750 C   0  0  0  0  0  2  0  0  0  0  0  0
  196.7700  171.6100  145.9940 N   0  0  0  0  0  0  0  0  0  0  0  0
  188.2470  174.5980  138.9910 N   0  0  0  0  0  2  0  0  0  0  0  0
  197.1910  172.9060  146.5130 C   0  0  0  0  0  1  0  0  0  0  0  0
  188.3960  176.9740  143.9410 C   0  0  0  0  0  0  0  0  0  0  0  0
  193.7420  169.3260  142.3480 O   0  0  0  0  0  0  0  0  0  0  0  0
  196.5760  170.3940  143.9670 C   0  0  2  0  0  3  0  0  0  0  0  0
  186.2030  177.2700  143.1780 C   0  0  0  0  0  2  0  0  0  0  0  0
  192.9180  172.3820  140.9710 C   0  0  1  0  0  3  0  0  0  0  0  0
  194.7110  172.8770  145.2440 C   0  0  0  0  0  2  0  0  0  0  0  0
  192.0640  176.5460  143.2430 C   0  0  1  0  0  3  0  0  0  0  0  0
  186.4370  178.2320  144.3380 C   0  0  2  0  0  3  0  0  0  0  0  0
  187.2260  175.4750  139.3980 N   0  0  0  0  0  0  0  0  0  0  0  0
  197.4420  171.3700  144.7300 C   0  0  0  0  0  2  0  0  0  0  0  0
  190.5870  176.7140  145.1730 C   0  0  0  0  0  2  0  0  0  0  0  0
  193.5000  170.5340  142.6080 C   0  0  0  0  0  0  0  0  0  0  0  0
  193.9310  172.5990  143.9730 C   0  0  1  0  0  3  0  0  0  0  0  0
  192.5650  175.1590  143.0050 C   0  0  0  0  0  3  0  0  0  0  0  0
  187.7600  177.8180  144.9960 C   0  0  1  0  0  3  0  0  0  0  0  0
  187.5750  176.9880  146.2600 C   0  0  0  0  0  1  0  0  0  0  0  0
  196.7210  170.6190  142.4690 C   0  0  0  0  0  1  0  0  0  0  0  0
  187.5370  176.6390  142.9720 C   0  0  0  0  0  0  0  0  0  0  0  0
  195.0330  173.3470  140.6320 O   0  0  0  0  0  0  0  0  0  0  0  0
  190.6290  176.6590  142.7630 C   0  0  0  0  0  2  0  0  0  0  0  0
  187.0270  175.9680  140.5910 C   0  0  0  0  0  3  0  0  0  0  0  0
  190.1950  173.1560  139.0790 C   0  0  0  0  0  2  0  0  0  0  0  0
  185.2260  178.4530  145.2570 C   0  0  2  0  0  3  0  0  0  0  0  0
  183.9930  178.9330  144.5070 C   0  0  0  0  0  1  0  0  0  0  0  0
  185.5670  179.4170  146.2890 N   0  0  0  0  0  1  0  0  0  0  0  0
  1 14  1  6  0  0  0
  1  8  1  0  0  0  0
  2 29  1  0  0  0  0
  3 12  1  6  0  0  0
  3  6  1  0  0  0  0
  3 31  1  0  0  0  0
  4  5  2  0  0  0  0
  4 36  1  0  0  0  0
  7 40  1  6  0  0  0
  7  9  1  0  0  0  0
  8 24  1  6  0  0  0
  8 16  1  0  0  0  0
  9  5  1  0  0  0  0
 10 29  1  0  0  0  0
 11 23  1  0  0  0  0
 13 11  1  0  0  0  0
 14 31  1  0  0  0  0
 15 30  1  0  0  0  0
 16 18  1  0  0  0  0
 17 27  1  0  0  0  0
 17  7  1  0  0  0  0
 19  2  1  0  0  0  0
 19 33  1  0  0  0  0
 20 30  2  0  0  0  0
 21 35  1  6  0  0  0
 21  1  1  0  0  0  0
 21 28  1  0  0  0  0
 22 26  1  0  0  0  0
 23 12  1  0  0  0  0
 23 15  1  1  0  0  0
 25 38  1  1  0  0  0
 25 10  1  0  0  0  0
 26 33  1  0  0  0  0
 26 41  1  1  0  0  0
 27 39  2  0  0  0  0
 28 16  1  0  0  0  0
 30 14  1  0  0  0  0
 31 24  1  1  0  0  0
 32  6  2  0  0  0  0
 32 25  1  0  0  0  0
 33 34  1  1  0  0  0
 36 22  1  0  0  0  0
 36 19  2  0  0  0  0
 37 12  2  0  0  0  0
 38  2  1  0  0  0  0
 39  4  1  0  0  0  0
 40 13  1  0  0  0  0
 41 42  1  6  0  0  0
 41 43  1  0  0  0  0
M  END
>  <MODEL>
5

>  <REMARK>
 VINA RESULT:      -8.0      2.599      5.540
  Name = 
  1 active torsions:
  status: ('A' for Active; 'I' for Inactive)
    1  A    between atoms: C_13  and  C_27
                            x       y       z     vdW  Elec       q    Type
                         _______ _______ _______ _____ _____    ______ ____

>  <TORSDO>
F 1

$$$$
=
 OpenBabel11062422303D

 43 49  0  0  1  0  0  0  0  0999 V2000
  193.7000  168.4020  141.2020 C   0  0  1  0  0  3  0  0  0  0  0  0
  190.3710  175.1420  144.2940 N   0  0  0  0  0  0  0  0  0  0  0  0
  193.5860  171.9200  141.0190 C   0  0  2  0  0  3  0  0  0  0  0  0
  187.8580  175.6120  142.5860 C   0  0  0  0  0  0  0  0  0  0  0  0
  188.2740  174.4010  142.1930 C   0  0  0  0  0  3  0  0  0  0  0  0
  193.5040  173.1150  141.8300 N   0  0  0  0  0  0  0  0  0  0  0  0
  188.5780  174.7800  139.8130 C   0  0  2  0  0  3  0  0  0  0  0  0
  194.3220  168.7280  142.5520 C   0  0  1  0  0  3  0  0  0  0  0  0
  188.0560  173.8160  140.8470 C   0  0  0  0  0  2  0  0  0  0  0  0
  192.6440  174.4930  144.4750 C   0  0  0  0  0  2  0  0  0  0  0  0
  190.8500  173.0780  139.6810 O   0  0  0  0  0  0  0  0  0  0  0  0
  193.0370  172.1360  139.6230 C   0  0  0  0  0  0  0  0  0  0  0  0
  190.4490  173.7350  138.5150 C   0  0  0  0  0  2  0  0  0  0  0  0
  192.8980  169.5620  140.8490 N   0  0  0  0  0  0  0  0  0  0  0  0
  190.9010  170.6930  139.7850 C   0  0  0  0  0  2  0  0  0  0  0  0
  195.7460  168.3610  142.4670 N   0  0  0  0  0  0  0  0  0  0  0  0
  187.5330  175.7380  139.5070 N   0  0  0  0  0  2  0  0  0  0  0  0
  196.6080  169.1980  143.2930 C   0  0  0  0  0  1  0  0  0  0  0  0
  189.1370  175.7210  144.7610 C   0  0  0  0  0  0  0  0  0  0  0  0
  191.6560  168.5170  139.1620 O   0  0  0  0  0  0  0  0  0  0  0  0
  194.8920  168.1820  140.2610 C   0  0  2  0  0  3  0  0  0  0  0  0
  187.0410  176.7640  144.7570 C   0  0  0  0  0  2  0  0  0  0  0  0
  191.5780  171.9670  139.2580 C   0  0  1  0  0  3  0  0  0  0  0  0
  194.0680  170.2290  142.7930 C   0  0  0  0  0  2  0  0  0  0  0  0
  192.3590  174.8650  143.0270 C   0  0  1  0  0  3  0  0  0  0  0  0
  187.7250  177.0760  146.0830 C   0  0  2  0  0  3  0  0  0  0  0  0
  186.8940  176.5550  140.4570 N   0  0  0  0  0  0  0  0  0  0  0  0
  196.1150  168.5410  141.0740 C   0  0  0  0  0  2  0  0  0  0  0  0
  191.3120  174.5120  145.1990 C   0  0  0  0  0  2  0  0  0  0  0  0
  191.8280  169.5250  139.8970 C   0  0  0  0  0  0  0  0  0  0  0  0
  193.0560  170.6820  141.7580 C   0  0  1  0  0  3  0  0  0  0  0  0
  192.3820  173.6360  142.1800 C   0  0  0  0  0  3  0  0  0  0  0  0
  188.9500  176.1560  146.1770 C   0  0  1  0  0  3  0  0  0  0  0  0
  188.7210  174.9300  147.0530 C   0  0  0  0  0  1  0  0  0  0  0  0
  194.8670  168.9810  138.9660 C   0  0  0  0  0  1  0  0  0  0  0  0
  188.0790  176.0130  143.9950 C   0  0  0  0  0  0  0  0  0  0  0  0
  193.8070  172.5150  138.7560 O   0  0  0  0  0  0  0  0  0  0  0  0
  190.9670  175.4690  143.0120 C   0  0  0  0  0  2  0  0  0  0  0  0
  187.0350  176.5300  141.7550 C   0  0  0  0  0  3  0  0  0  0  0  0
  188.9530  174.0180  138.5540 C   0  0  0  0  0  2  0  0  0  0  0  0
  186.7900  177.1400  147.3010 C   0  0  2  0  0  3  0  0  0  0  0  0
  185.3520  176.7770  146.9630 C   0  0  0  0  0  1  0  0  0  0  0  0
  186.8280  178.4730  147.8770 N   0  0  0  0  0  1  0  0  0  0  0  0
  1 14  1  6  0  0  0
  1  8  1  0  0  0  0
  2 19  1  0  0  0  0
  2 29  1  0  0  0  0
  3 12  1  6  0  0  0
  3 31  1  0  0  0  0
  3  6  1  0  0  0  0
  4 36  1  0  0  0  0
  5  4  2  0  0  0  0
  6 32  2  0  0  0  0
  7 40  1  6  0  0  0
  7  9  1  0  0  0  0
  8 24  1  6  0  0  0
  9  5  1  0  0  0  0
 10 29  1  0  0  0  0
 13 40  1  0  0  0  0
 13 11  1  0  0  0  0
 14 31  1  0  0  0  0
 15 30  1  0  0  0  0
 16  8  1  0  0  0  0
 16 18  1  0  0  0  0
 17  7  1  0  0  0  0
 17 27  1  0  0  0  0
 19 33  1  0  0  0  0
 20 30  2  0  0  0  0
 21 35  1  6  0  0  0
 21 28  1  0  0  0  0
 21  1  1  0  0  0  0
 22 26  1  0  0  0  0
 23 12  1  0  0  0  0
 23 11  1  0  0  0  0
 23 15  1  1  0  0  0
 25 32  1  6  0  0  0
 25 10  1  0  0  0  0
 26 33  1  0  0  0  0
 26 41  1  1  0  0  0
 27 39  2  0  0  0  0
 28 16  1  0  0  0  0
 30 14  1  0  0  0  0
 31 24  1  1  0  0  0
 33 34  1  1  0  0  0
 36 22  1  0  0  0  0
 36 19  2  0  0  0  0
 37 12  2  0  0  0  0
 38 25  1  0  0  0  0
 38  2  1  0  0  0  0
 39  4  1  0  0  0  0
 41 42  1  6  0  0  0
 41 43  1  0  0  0  0
M  END
>  <MODEL>
6

>  <REMARK>
 VINA RESULT:      -7.7      3.171      5.545
  Name = 
  1 active torsions:
  status: ('A' for Active; 'I' for Inactive)
    1  A    between atoms: C_13  and  C_27
                            x       y       z     vdW  Elec       q    Type
                         _______ _______ _______ _____ _____    ______ ____

>  <TORSDO>
F 1

$$$$
