=
 OpenBabel11062419143D

 54 57  0  0  1  0  0  0  0  0999 V2000
  194.6380  170.7340  144.4910 O   0  0  0  0  0  0  0  0  0  0  0  0
  193.3260  170.2340  144.5120 C   0  0  0  0  0  2  0  0  0  0  0  0
  193.7380  172.8330  145.3280 C   0  0  0  0  0  0  0  0  0  0  0  0
  193.7520  173.8060  146.2470 C   0  0  0  0  0  3  0  0  0  0  0  0
  191.9360  173.6190  143.7760 C   0  0  0  0  0  3  0  0  0  0  0  0
  192.0560  175.0100  144.0890 N   0  0  0  0  0  0  0  0  0  0  0  0
  192.0700  175.4850  145.4460 C   0  0  0  0  0  0  0  0  0  0  0  0
  192.8490  174.9540  146.3850 C   0  0  0  0  0  3  0  0  0  0  0  0
  191.7430  175.9250  143.0300 C   0  0  0  0  0  0  0  0  0  0  0  0
  192.4010  171.2320  143.8090 C   0  0  1  0  0  3  0  0  0  0  0  0
  192.6820  176.5660  142.4780 O   0  0  0  0  0  0  0  0  0  0  0  0
  192.6490  172.6320  144.3290 C   0  0  0  0  0  0  0  0  0  0  0  0
  194.7210  171.6930  145.5210 C   0  0  2  0  0  3  0  0  0  0  0  0
  189.5210  175.1350  142.4600 C   0  0  0  0  0  2  0  0  0  0  0  0
  187.5030  176.7200  141.4000 C   0  0  2  0  0  3  0  0  0  0  0  0
  187.2270  175.4640  142.2590 C   0  0  0  0  0  2  0  0  0  0  0  0
  188.4010  174.5230  142.2640 C   0  0  0  0  0  2  0  0  0  0  0  0
  189.7370  177.4660  142.4680 C   0  0  0  0  0  3  0  0  0  0  0  0
  188.4930  177.7210  141.9970 C   0  0  0  0  0  2  0  0  0  0  0  0
  190.3480  176.1210  142.5890 C   0  0  0  0  0  0  0  0  0  0  0  0
  186.2500  177.3950  141.1170 N   0  0  0  0  0  1  0  0  0  0  0  0
  191.2670  176.6910  145.8220 C   0  0  0  0  0  2  0  0  0  0  0  0
  189.9140  176.2780  146.4070 C   0  0  2  0  0  3  0  0  0  0  0  0
  189.6060  174.9010  146.2910 O   0  0  0  0  0  0  0  0  0  0  0  0
  189.1580  174.4250  147.5330 C   0  0  0  0  0  1  0  0  0  0  0  0
  188.3640  177.8920  147.2660 O   0  0  0  0  0  1  0  0  0  0  0  0
  188.7490  177.2340  146.1000 C   0  0  2  0  0  3  0  0  0  0  0  0
  187.5380  176.5520  145.4710 C   0  0  0  0  0  2  0  0  0  0  0  0
  184.1450  178.0440  146.2480 C   0  0  0  0  0  3  0  0  0  0  0  0
  185.2530  177.1920  146.2630 C   0  0  0  0  0  3  0  0  0  0  0  0
  184.1470  179.1750  145.4280 C   0  0  0  0  0  3  0  0  0  0  0  0
  186.3600  177.4630  145.4510 C   0  0  0  0  0  0  0  0  0  0  0  0
  185.2560  179.4510  144.6210 C   0  0  0  0  0  3  0  0  0  0  0  0
  186.3600  178.5960  144.6300 C   0  0  0  0  0  3  0  0  0  0  0  0
  196.1540  172.2150  145.6110 C   0  0  0  0  0  2  0  0  0  0  0  0
  196.9350  171.6420  144.6060 O   0  0  0  0  0  0  0  0  0  0  0  0
  197.9180  172.5930  144.3260 C   0  0  0  0  0  2  0  0  0  0  0  0
  197.4310  173.9780  144.7260 C   0  0  0  0  0  2  0  0  0  0  0  0
  196.3830  175.8600  143.3940 C   0  0  0  0  0  0  0  0  0  0  0  0
  195.5260  176.0760  144.2940 O   0  0  0  0  0  0  0  0  0  0  0  0
  197.3910  174.8620  143.5680 N   0  0  0  0  0  2  0  0  0  0  0  0
  196.3890  176.6980  142.1640 C   0  0  0  0  0  2  0  0  0  0  0  0
  196.9430  175.9320  141.0580 N   0  0  0  0  0  2  0  0  0  0  0  0
  196.1390  175.4560  139.9780 C   0  0  0  0  0  0  0  0  0  0  0  0
  194.8980  175.6730  139.9600 O   0  0  0  0  0  0  0  0  0  0  0  0
  196.2680  175.1680  137.5380 C   0  0  0  0  0  1  0  0  0  0  0  0
  196.7690  174.6700  138.8780 C   0  0  0  0  0  2  0  0  0  0  0  0
  192.6090  171.1630  142.2910 C   0  0  0  0  0  2  0  0  0  0  0  0
  191.4820  169.3380  141.2800 O   0  0  0  0  0  1  0  0  0  0  0  0
  191.3630  170.7030  141.5370 C   0  0  0  0  0  0  0  0  0  0  0  0
  190.2300  170.9110  142.3310 O   0  0  0  0  0  1  0  0  0  0  0  0
  191.2640  171.3970  140.2910 O   0  0  0  0  0  0  0  0  0  0  0  0
  191.8750  173.8380  140.0220 N   0  0  0  0  0  0  0  0  0  0  0  0
  191.5950  172.7220  140.1470 C   0  0  0  0  0  0  0  0  0  0  0  0
  1  2  1  0  0  0  0
  1 13  1  0  0  0  0
  3 13  1  0  0  0  0
  3  4  2  0  0  0  0
  4  8  1  0  0  0  0
  5  6  1  0  0  0  0
  5 12  2  0  0  0  0
  6  7  1  0  0  0  0
  7 22  1  0  0  0  0
  7  8  2  0  0  0  0
  9  6  1  0  0  0  0
 10 48  1  6  0  0  0
 10 12  1  0  0  0  0
 10  2  1  0  0  0  0
 11  9  2  0  0  0  0
 12  3  1  0  0  0  0
 13 35  1  6  0  0  0
 14 20  1  0  0  0  0
 15 21  1  1  0  0  0
 15 19  1  0  0  0  0
 15 16  1  0  0  0  0
 16 17  1  0  0  0  0
 17 14  1  0  0  0  0
 18 20  2  0  0  0  0
 19 18  1  0  0  0  0
 20  9  1  0  0  0  0
 23 22  1  6  0  0  0
 24 23  1  0  0  0  0
 24 25  1  0  0  0  0
 27 23  1  0  0  0  0
 27 26  1  1  0  0  0
 28 27  1  0  0  0  0
 29 30  1  0  0  0  0
 31 29  2  0  0  0  0
 32 28  1  0  0  0  0
 32 30  2  0  0  0  0
 33 34  2  0  0  0  0
 33 31  1  0  0  0  0
 34 32  1  0  0  0  0
 36 35  1  0  0  0  0
 37 36  1  0  0  0  0
 37 38  1  0  0  0  0
 39 41  1  0  0  0  0
 39 40  2  0  0  0  0
 41 38  1  0  0  0  0
 42 39  1  0  0  0  0
 43 42  1  0  0  0  0
 44 43  1  0  0  0  0
 45 44  2  0  0  0  0
 46 47  1  0  0  0  0
 47 44  1  0  0  0  0
 49 50  1  0  0  0  0
 50 48  1  0  0  0  0
 50 51  1  0  0  0  0
 52 50  1  0  0  0  0
 53 54  3  0  0  0  0
 54 52  1  0  0  0  0
M  END
>  <MODEL>
1

>  <REMARK>
 VINA RESULT:      -7.3      0.000      0.000
  Name = 
  19 active torsions:
  status: ('A' for Active; 'I' for Inactive)
    1  A    between atoms: C_3  and  N_4
    2  A    between atoms: C_3  and  C_10
    3  A    between atoms: C_6  and  O_16
    4  A    between atoms: C_6  and  C_32
    5  A    between atoms: C_6  and  C_54
    6  A    between atoms: C_8  and  C_39
    7  A    between atoms: C_12  and  O_19
    8  A    between atoms: C_12  and  C_45
    9  A    between atoms: C_18  and  C_32
   10  A    between atoms: C_18  and  C_36
   11  A    between atoms: O_19  and  C_33
   12  A    between atoms: C_22  and  C_54
   13  A    between atoms: C_24  and  C_30
   14  A    between atoms: C_24  and  C_48
   15  A    between atoms: C_29  and  C_44
   16  A    between atoms: C_33  and  C_50
   17  A    between atoms: C_38  and  O_51
   18  A    between atoms: N_42  and  C_45
   19  A    between atoms: C_48  and  O_51
                            x       y       z     vdW  Elec       q    Type
                         _______ _______ _______ _____ _____    ______ ____

>  <TORSDO>
F 19

$$$$
=
 OpenBabel11062419143D

 54 57  0  0  1  0  0  0  0  0999 V2000
  188.5010  177.4490  144.3450 O   0  0  0  0  0  0  0  0  0  0  0  0
  188.4220  176.4780  145.3560 C   0  0  0  0  0  2  0  0  0  0  0  0
  189.6050  175.7740  142.9700 C   0  0  0  0  0  0  0  0  0  0  0  0
  189.6640  175.0800  141.8280 C   0  0  0  0  0  3  0  0  0  0  0  0
  191.6020  174.9000  144.2040 C   0  0  0  0  0  3  0  0  0  0  0  0
  192.3410  174.5040  143.0450 N   0  0  0  0  0  0  0  0  0  0  0  0
  191.7540  173.7040  142.0050 C   0  0  0  0  0  0  0  0  0  0  0  0
  190.5740  173.9900  141.4580 C   0  0  0  0  0  3  0  0  0  0  0  0
  193.7690  174.5710  143.1530 C   0  0  0  0  0  0  0  0  0  0  0  0
  189.8010  175.8380  145.5420 C   0  0  1  0  0  3  0  0  0  0  0  0
  194.3900  175.4750  142.5230 O   0  0  0  0  0  0  0  0  0  0  0  0
  190.3790  175.4390  144.2010 C   0  0  0  0  0  0  0  0  0  0  0  0
  188.4590  176.7580  143.1170 C   0  0  2  0  0  3  0  0  0  0  0  0
  195.7230  173.8200  144.3820 C   0  0  0  0  0  2  0  0  0  0  0  0
  195.9970  171.3100  145.5340 C   0  0  2  0  0  3  0  0  0  0  0  0
  196.7130  172.5700  146.0740 C   0  0  0  0  0  2  0  0  0  0  0  0
  196.8290  173.6390  145.0220 C   0  0  0  0  0  2  0  0  0  0  0  0
  193.8590  172.4220  144.5970 C   0  0  0  0  0  3  0  0  0  0  0  0
  194.4930  171.4550  145.3050 C   0  0  0  0  0  2  0  0  0  0  0  0
  194.5110  173.6020  143.9850 C   0  0  0  0  0  0  0  0  0  0  0  0
  196.2400  170.1960  146.4330 N   0  0  0  0  0  1  0  0  0  0  0  0
  192.5210  172.5600  141.4190 C   0  0  0  0  0  2  0  0  0  0  0  0
  192.4510  172.5900  139.8900 C   0  0  2  0  0  3  0  0  0  0  0  0
  191.7180  171.5320  139.3020 O   0  0  0  0  0  0  0  0  0  0  0  0
  190.5970  172.0610  138.6440 C   0  0  0  0  0  1  0  0  0  0  0  0
  193.7020  172.5530  137.8450 O   0  0  0  0  0  1  0  0  0  0  0  0
  193.7700  172.9410  139.1820 C   0  0  2  0  0  3  0  0  0  0  0  0
  195.0050  172.3250  139.8320 C   0  0  0  0  0  2  0  0  0  0  0  0
  196.8550  175.6260  139.9460 C   0  0  0  0  0  3  0  0  0  0  0  0
  195.9220  174.6420  139.6110 C   0  0  0  0  0  3  0  0  0  0  0  0
  197.8640  175.3460  140.8700 C   0  0  0  0  0  3  0  0  0  0  0  0
  196.0020  173.3710  140.1910 C   0  0  0  0  0  0  0  0  0  0  0  0
  197.9410  174.0780  141.4560 C   0  0  0  0  0  3  0  0  0  0  0  0
  197.0130  173.0910  141.1170 C   0  0  0  0  0  3  0  0  0  0  0  0
  188.4530  177.7670  141.9700 C   0  0  0  0  0  2  0  0  0  0  0  0
  187.4920  177.4080  141.0240 O   0  0  0  0  0  0  0  0  0  0  0  0
  186.3910  176.9830  141.7710 C   0  0  0  0  0  2  0  0  0  0  0  0
  185.2420  177.9660  141.6070 C   0  0  0  0  0  2  0  0  0  0  0  0
  184.7520  178.9900  143.8720 C   0  0  0  0  0  0  0  0  0  0  0  0
  185.6590  179.8540  143.7240 O   0  0  0  0  0  0  0  0  0  0  0  0
  184.4600  178.0510  142.8340 N   0  0  0  0  0  2  0  0  0  0  0  0
  183.9300  178.9870  145.1130 C   0  0  0  0  0  2  0  0  0  0  0  0
  184.8070  178.9540  146.2740 N   0  0  0  0  0  2  0  0  0  0  0  0
  185.2460  177.7310  146.8660 C   0  0  0  0  0  0  0  0  0  0  0  0
  184.8650  176.6220  146.4030 O   0  0  0  0  0  0  0  0  0  0  0  0
  186.8560  179.0990  148.1270 C   0  0  0  0  0  1  0  0  0  0  0  0
  186.1400  177.7660  148.0590 C   0  0  0  0  0  2  0  0  0  0  0  0
  190.7350  176.8060  146.2780 C   0  0  0  0  0  2  0  0  0  0  0  0
  191.4580  177.1720  148.5070 O   0  0  0  0  0  1  0  0  0  0  0  0
  191.3750  176.1900  147.5210 C   0  0  0  0  0  0  0  0  0  0  0  0
  190.5720  175.1470  147.9960 O   0  0  0  0  0  1  0  0  0  0  0  0
  192.6960  175.7360  147.2140 O   0  0  0  0  0  0  0  0  0  0  0  0
  194.4220  177.2050  146.0900 N   0  0  0  0  0  0  0  0  0  0  0  0
  193.6350  176.5310  146.6040 C   0  0  0  0  0  0  0  0  0  0  0  0
  1  2  1  0  0  0  0
  2 10  1  0  0  0  0
  3 13  1  0  0  0  0
  3 12  1  0  0  0  0
  4  3  2  0  0  0  0
  6  9  1  0  0  0  0
  6  5  1  0  0  0  0
  7  6  1  0  0  0  0
  8  4  1  0  0  0  0
  8  7  2  0  0  0  0
  9 20  1  0  0  0  0
 10 48  1  6  0  0  0
 11  9  2  0  0  0  0
 12  5  2  0  0  0  0
 12 10  1  0  0  0  0
 13 35  1  6  0  0  0
 13  1  1  0  0  0  0
 14 17  1  0  0  0  0
 15 16  1  0  0  0  0
 15 21  1  1  0  0  0
 17 16  1  0  0  0  0
 18 19  1  0  0  0  0
 19 15  1  0  0  0  0
 20 14  1  0  0  0  0
 20 18  2  0  0  0  0
 22  7  1  0  0  0  0
 23 22  1  1  0  0  0
 24 23  1  0  0  0  0
 25 24  1  0  0  0  0
 27 26  1  6  0  0  0
 27 28  1  0  0  0  0
 27 23  1  0  0  0  0
 28 32  1  0  0  0  0
 29 31  1  0  0  0  0
 30 29  2  0  0  0  0
 30 32  1  0  0  0  0
 31 33  2  0  0  0  0
 32 34  2  0  0  0  0
 34 33  1  0  0  0  0
 36 37  1  0  0  0  0
 36 35  1  0  0  0  0
 38 37  1  0  0  0  0
 38 41  1  0  0  0  0
 39 42  1  0  0  0  0
 40 39  2  0  0  0  0
 41 39  1  0  0  0  0
 42 43  1  0  0  0  0
 43 44  1  0  0  0  0
 44 47  1  0  0  0  0
 45 44  2  0  0  0  0
 47 46  1  0  0  0  0
 48 50  1  0  0  0  0
 50 51  1  0  0  0  0
 50 49  1  0  0  0  0
 52 50  1  0  0  0  0
 53 54  3  0  0  0  0
 54 52  1  0  0  0  0
M  END
>  <MODEL>
2

>  <REMARK>
 VINA RESULT:      -6.7      2.413      9.932
  Name = 
  19 active torsions:
  status: ('A' for Active; 'I' for Inactive)
    1  A    between atoms: C_3  and  N_4
    2  A    between atoms: C_3  and  C_10
    3  A    between atoms: C_6  and  O_16
    4  A    between atoms: C_6  and  C_32
    5  A    between atoms: C_6  and  C_54
    6  A    between atoms: C_8  and  C_39
    7  A    between atoms: C_12  and  O_19
    8  A    between atoms: C_12  and  C_45
    9  A    between atoms: C_18  and  C_32
   10  A    between atoms: C_18  and  C_36
   11  A    between atoms: O_19  and  C_33
   12  A    between atoms: C_22  and  C_54
   13  A    between atoms: C_24  and  C_30
   14  A    between atoms: C_24  and  C_48
   15  A    between atoms: C_29  and  C_44
   16  A    between atoms: C_33  and  C_50
   17  A    between atoms: C_38  and  O_51
   18  A    between atoms: N_42  and  C_45
   19  A    between atoms: C_48  and  O_51
                            x       y       z     vdW  Elec       q    Type
                         _______ _______ _______ _____ _____    ______ ____

>  <TORSDO>
F 19

$$$$
=
 OpenBabel11062419143D

 54 57  0  0  1  0  0  0  0  0999 V2000
  194.3080  170.9390  144.3230 O   0  0  0  0  0  0  0  0  0  0  0  0
  192.9940  170.4500  144.3960 C   0  0  0  0  0  2  0  0  0  0  0  0
  193.4640  173.0350  145.2220 C   0  0  0  0  0  0  0  0  0  0  0  0
  193.5270  173.9980  146.1500 C   0  0  0  0  0  3  0  0  0  0  0  0
  191.6030  173.8550  143.7590 C   0  0  0  0  0  3  0  0  0  0  0  0
  191.7490  175.2410  144.0820 N   0  0  0  0  0  0  0  0  0  0  0  0
  191.8270  175.7000  145.4420 C   0  0  0  0  0  0  0  0  0  0  0  0
  192.6420  175.1520  146.3410 C   0  0  0  0  0  3  0  0  0  0  0  0
  191.3990  176.1710  143.0490 C   0  0  0  0  0  0  0  0  0  0  0  0
  192.0480  171.4630  143.7460 C   0  0  1  0  0  3  0  0  0  0  0  0
  192.3180  176.8110  142.4630 O   0  0  0  0  0  0  0  0  0  0  0  0
  192.3310  172.8550  144.2690 C   0  0  0  0  0  0  0  0  0  0  0  0
  194.4450  171.8860  145.3590 C   0  0  2  0  0  3  0  0  0  0  0  0
  189.1680  175.4000  142.4830 C   0  0  0  0  0  2  0  0  0  0  0  0
  187.0970  177.0410  141.6310 C   0  0  2  0  0  3  0  0  0  0  0  0
  186.8650  175.7110  142.3860 C   0  0  0  0  0  2  0  0  0  0  0  0
  188.0500  174.7910  142.2700 C   0  0  0  0  0  2  0  0  0  0  0  0
  189.3560  177.7240  142.6880 C   0  0  0  0  0  3  0  0  0  0  0  0
  188.0930  178.0010  142.2820 C   0  0  0  0  0  2  0  0  0  0  0  0
  189.9870  176.3840  142.6710 C   0  0  0  0  0  0  0  0  0  0  0  0
  185.8270  177.7190  141.4490 N   0  0  0  0  0  1  0  0  0  0  0  0
  191.0520  176.9090  145.8670 C   0  0  0  0  0  2  0  0  0  0  0  0
  190.3310  176.6490  147.1930 C   0  0  2  0  0  3  0  0  0  0  0  0
  191.1730  176.2960  148.2740 O   0  0  0  0  0  0  0  0  0  0  0  0
  191.5460  177.4600  148.9650 C   0  0  0  0  0  1  0  0  0  0  0  0
  189.3370  174.4710  147.0770 O   0  0  0  0  0  1  0  0  0  0  0  0
  189.0340  175.8310  147.0820 C   0  0  2  0  0  3  0  0  0  0  0  0
  188.1890  176.1730  145.8590 C   0  0  0  0  0  2  0  0  0  0  0  0
  184.7130  177.6760  145.8750 C   0  0  0  0  0  3  0  0  0  0  0  0
  185.8160  176.8900  145.5270 C   0  0  0  0  0  3  0  0  0  0  0  0
  184.8070  178.5780  146.9370 C   0  0  0  0  0  3  0  0  0  0  0  0
  187.0170  177.0130  146.2330 C   0  0  0  0  0  0  0  0  0  0  0  0
  186.0060  178.6960  147.6480 C   0  0  0  0  0  3  0  0  0  0  0  0
  187.1110  177.9170  147.2970 C   0  0  0  0  0  3  0  0  0  0  0  0
  195.8850  172.3940  145.3920 C   0  0  0  0  0  2  0  0  0  0  0  0
  196.1750  173.0830  144.2140 O   0  0  0  0  0  0  0  0  0  0  0  0
  196.7300  174.2950  144.6310 C   0  0  0  0  0  2  0  0  0  0  0  0
  196.2640  175.4200  143.7210 C   0  0  0  0  0  2  0  0  0  0  0  0
  196.0300  175.8300  141.2320 C   0  0  0  0  0  0  0  0  0  0  0  0
  196.1670  177.0750  141.3820 O   0  0  0  0  0  0  0  0  0  0  0  0
  196.1170  174.9450  142.3510 N   0  0  0  0  0  2  0  0  0  0  0  0
  195.8410  175.2670  139.8670 C   0  0  0  0  0  2  0  0  0  0  0  0
  195.9400  173.8170  139.9230 N   0  0  0  0  0  2  0  0  0  0  0  0
  194.8010  172.9660  139.7840 C   0  0  0  0  0  0  0  0  0  0  0  0
  193.6510  173.4580  139.6250 O   0  0  0  0  0  0  0  0  0  0  0  0
  195.8550  171.1260  141.0320 C   0  0  0  0  0  1  0  0  0  0  0  0
  194.9690  171.4860  139.8570 C   0  0  0  0  0  2  0  0  0  0  0  0
  192.1880  171.4110  142.2190 C   0  0  0  0  0  2  0  0  0  0  0  0
  190.8820  170.1210  140.7170 O   0  0  0  0  0  1  0  0  0  0  0  0
  190.8480  171.2750  141.5000 C   0  0  0  0  0  0  0  0  0  0  0  0
  189.8210  171.1470  142.4410 O   0  0  0  0  0  1  0  0  0  0  0  0
  190.6380  172.4030  140.6450 O   0  0  0  0  0  0  0  0  0  0  0  0
  190.1480  172.1750  138.1730 N   0  0  0  0  0  0  0  0  0  0  0  0
  190.3710  172.2810  139.3040 C   0  0  0  0  0  0  0  0  0  0  0  0
  1  2  1  0  0  0  0
  1 13  1  0  0  0  0
  3 13  1  0  0  0  0
  3  4  2  0  0  0  0
  4  8  1  0  0  0  0
  5  6  1  0  0  0  0
  5 12  2  0  0  0  0
  6  7  1  0  0  0  0
  7 22  1  0  0  0  0
  7  8  2  0  0  0  0
  9  6  1  0  0  0  0
 10 48  1  6  0  0  0
 10 12  1  0  0  0  0
 10  2  1  0  0  0  0
 11  9  2  0  0  0  0
 12  3  1  0  0  0  0
 13 35  1  6  0  0  0
 14 20  1  0  0  0  0
 15 21  1  1  0  0  0
 15 19  1  0  0  0  0
 15 16  1  0  0  0  0
 17 16  1  0  0  0  0
 17 14  1  0  0  0  0
 19 18  1  0  0  0  0
 20 18  2  0  0  0  0
 20  9  1  0  0  0  0
 23 22  1  6  0  0  0
 23 24  1  0  0  0  0
 24 25  1  0  0  0  0
 27 26  1  6  0  0  0
 27 23  1  0  0  0  0
 28 32  1  0  0  0  0
 28 27  1  0  0  0  0
 29 31  1  0  0  0  0
 30 29  2  0  0  0  0
 30 32  1  0  0  0  0
 31 33  2  0  0  0  0
 32 34  2  0  0  0  0
 34 33  1  0  0  0  0
 36 37  1  0  0  0  0
 36 35  1  0  0  0  0
 38 37  1  0  0  0  0
 39 40  2  0  0  0  0
 39 41  1  0  0  0  0
 41 38  1  0  0  0  0
 42 43  1  0  0  0  0
 42 39  1  0  0  0  0
 44 47  1  0  0  0  0
 44 43  1  0  0  0  0
 45 44  2  0  0  0  0
 47 46  1  0  0  0  0
 49 50  1  0  0  0  0
 50 48  1  0  0  0  0
 50 51  1  0  0  0  0
 52 50  1  0  0  0  0
 53 54  3  0  0  0  0
 54 52  1  0  0  0  0
M  END
>  <MODEL>
3

>  <REMARK>
 VINA RESULT:      -6.6      1.453      1.867
  Name = 
  19 active torsions:
  status: ('A' for Active; 'I' for Inactive)
    1  A    between atoms: C_3  and  N_4
    2  A    between atoms: C_3  and  C_10
    3  A    between atoms: C_6  and  O_16
    4  A    between atoms: C_6  and  C_32
    5  A    between atoms: C_6  and  C_54
    6  A    between atoms: C_8  and  C_39
    7  A    between atoms: C_12  and  O_19
    8  A    between atoms: C_12  and  C_45
    9  A    between atoms: C_18  and  C_32
   10  A    between atoms: C_18  and  C_36
   11  A    between atoms: O_19  and  C_33
   12  A    between atoms: C_22  and  C_54
   13  A    between atoms: C_24  and  C_30
   14  A    between atoms: C_24  and  C_48
   15  A    between atoms: C_29  and  C_44
   16  A    between atoms: C_33  and  C_50
   17  A    between atoms: C_38  and  O_51
   18  A    between atoms: N_42  and  C_45
   19  A    between atoms: C_48  and  O_51
                            x       y       z     vdW  Elec       q    Type
                         _______ _______ _______ _____ _____    ______ ____

>  <TORSDO>
F 19

$$$$
=
 OpenBabel11062419143D

 54 57  0  0  1  0  0  0  0  0999 V2000
  192.0310  172.4430  137.9390 O   0  0  0  0  0  0  0  0  0  0  0  0
  192.7670  173.5870  138.2840 C   0  0  0  0  0  2  0  0  0  0  0  0
  190.1800  173.3800  139.2070 C   0  0  0  0  0  0  0  0  0  0  0  0
  188.8990  173.7640  139.2610 C   0  0  0  0  0  3  0  0  0  0  0  0
  190.9590  173.8690  141.5380 C   0  0  0  0  0  3  0  0  0  0  0  0
  189.6720  173.7700  142.1560 N   0  0  0  0  0  0  0  0  0  0  0  0
  188.5250  174.4650  141.6400 C   0  0  0  0  0  0  0  0  0  0  0  0
  188.1820  174.4300  140.3540 C   0  0  0  0  0  3  0  0  0  0  0  0
  189.6580  173.3080  143.5140 C   0  0  0  0  0  0  0  0  0  0  0  0
  192.6540  173.8150  139.7940 C   0  0  1  0  0  3  0  0  0  0  0  0
  189.2200  172.1480  143.7620 O   0  0  0  0  0  0  0  0  0  0  0  0
  191.2070  173.7270  140.2310 C   0  0  0  0  0  0  0  0  0  0  0  0
  190.6770  172.8340  137.8820 C   0  0  2  0  0  3  0  0  0  0  0  0
  191.0930  175.0320  144.4390 C   0  0  0  0  0  2  0  0  0  0  0  0
  191.2010  175.7260  147.1250 C   0  0  2  0  0  3  0  0  0  0  0  0
  191.5230  176.7180  145.9820 C   0  0  0  0  0  2  0  0  0  0  0  0
  191.8990  176.0020  144.7130 C   0  0  0  0  0  2  0  0  0  0  0  0
  189.4470  174.2610  145.9140 C   0  0  0  0  0  3  0  0  0  0  0  0
  189.8800  174.9690  146.9850 C   0  0  0  0  0  2  0  0  0  0  0  0
  190.1440  174.1690  144.6100 C   0  0  0  0  0  0  0  0  0  0  0  0
  191.2180  176.4310  148.3940 N   0  0  0  0  0  1  0  0  0  0  0  0
  187.5990  175.1770  142.5770 C   0  0  0  0  0  2  0  0  0  0  0  0
  187.3810  176.6230  142.1240 C   0  0  2  0  0  3  0  0  0  0  0  0
  187.2810  176.8050  140.7240 O   0  0  0  0  0  0  0  0  0  0  0  0
  186.3520  177.8230  140.4580 C   0  0  0  0  0  1  0  0  0  0  0  0
  189.5280  177.6660  142.3500 O   0  0  0  0  0  1  0  0  0  0  0  0
  188.2310  177.6740  142.8590 C   0  0  2  0  0  3  0  0  0  0  0  0
  188.2730  177.4860  144.3720 C   0  0  0  0  0  2  0  0  0  0  0  0
  184.9410  179.0720  145.2220 C   0  0  0  0  0  3  0  0  0  0  0  0
  186.2010  178.8590  144.6560 C   0  0  0  0  0  3  0  0  0  0  0  0
  184.4040  178.1310  146.1040 C   0  0  0  0  0  3  0  0  0  0  0  0
  186.9310  177.7100  144.9780 C   0  0  0  0  0  0  0  0  0  0  0  0
  185.1310  176.9780  146.4220 C   0  0  0  0  0  3  0  0  0  0  0  0
  186.3930  176.7670  145.8610 C   0  0  0  0  0  3  0  0  0  0  0  0
  189.8280  171.6510  137.4220 C   0  0  0  0  0  2  0  0  0  0  0  0
  189.8060  170.6660  138.4100 O   0  0  0  0  0  0  0  0  0  0  0  0
  189.9250  169.4590  137.7190 C   0  0  0  0  0  2  0  0  0  0  0  0
  190.9810  168.5850  138.3780 C   0  0  0  0  0  2  0  0  0  0  0  0
  191.9740  168.9550  140.6780 C   0  0  0  0  0  0  0  0  0  0  0  0
  193.0920  169.2750  140.1900 O   0  0  0  0  0  0  0  0  0  0  0  0
  190.8660  168.6470  139.8290 N   0  0  0  0  0  2  0  0  0  0  0  0
  191.7850  168.9610  142.1540 C   0  0  0  0  0  2  0  0  0  0  0  0
  192.0690  170.2900  142.6740 N   0  0  0  0  0  2  0  0  0  0  0  0
  192.7040  170.4990  143.9360 C   0  0  0  0  0  0  0  0  0  0  0  0
  193.0260  169.5190  144.6600 O   0  0  0  0  0  0  0  0  0  0  0  0
  194.2390  171.9240  145.2280 C   0  0  0  0  0  1  0  0  0  0  0  0
  192.9620  171.8880  144.4140 C   0  0  0  0  0  2  0  0  0  0  0  0
  193.5190  172.7960  140.5470 C   0  0  0  0  0  2  0  0  0  0  0  0
  194.3020  174.3740  142.1340 O   0  0  0  0  0  1  0  0  0  0  0  0
  194.7410  173.4240  141.2130 C   0  0  0  0  0  0  0  0  0  0  0  0
  195.4620  172.4390  141.8960 O   0  0  0  0  0  1  0  0  0  0  0  0
  195.5480  174.0780  140.2300 O   0  0  0  0  0  0  0  0  0  0  0  0
  197.5930  175.4470  140.8180 N   0  0  0  0  0  0  0  0  0  0  0  0
  196.6590  174.8200  140.5510 C   0  0  0  0  0  0  0  0  0  0  0  0
  1  2  1  0  0  0  0
  2 10  1  0  0  0  0
  3  4  2  0  0  0  0
  3 12  1  0  0  0  0
  4  8  1  0  0  0  0
  5  6  1  0  0  0  0
  6  9  1  0  0  0  0
  7  6  1  0  0  0  0
  7 22  1  0  0  0  0
  8  7  2  0  0  0  0
  9 11  2  0  0  0  0
  9 20  1  0  0  0  0
 10 12  1  0  0  0  0
 10 48  1  1  0  0  0
 12  5  2  0  0  0  0
 13 35  1  1  0  0  0
 13  1  1  0  0  0  0
 13  3  1  0  0  0  0
 14 20  1  0  0  0  0
 14 17  1  0  0  0  0
 15 21  1  1  0  0  0
 16 15  1  0  0  0  0
 17 16  1  0  0  0  0
 18 19  1  0  0  0  0
 19 15  1  0  0  0  0
 20 18  2  0  0  0  0
 23 22  1  6  0  0  0
 23 27  1  0  0  0  0
 24 23  1  0  0  0  0
 25 24  1  0  0  0  0
 27 26  1  6  0  0  0
 27 28  1  0  0  0  0
 28 32  1  0  0  0  0
 29 31  1  0  0  0  0
 30 32  1  0  0  0  0
 30 29  2  0  0  0  0
 31 33  2  0  0  0  0
 32 34  2  0  0  0  0
 34 33  1  0  0  0  0
 35 36  1  0  0  0  0
 37 38  1  0  0  0  0
 37 36  1  0  0  0  0
 38 41  1  0  0  0  0
 39 42  1  0  0  0  0
 40 39  2  0  0  0  0
 41 39  1  0  0  0  0
 42 43  1  0  0  0  0
 43 44  1  0  0  0  0
 44 47  1  0  0  0  0
 44 45  2  0  0  0  0
 47 46  1  0  0  0  0
 48 50  1  0  0  0  0
 50 51  1  0  0  0  0
 50 49  1  0  0  0  0
 52 54  1  0  0  0  0
 52 50  1  0  0  0  0
 54 53  3  0  0  0  0
M  END
>  <MODEL>
4

>  <REMARK>
 VINA RESULT:      -6.5      2.350      6.378
  Name = 
  19 active torsions:
  status: ('A' for Active; 'I' for Inactive)
    1  A    between atoms: C_3  and  N_4
    2  A    between atoms: C_3  and  C_10
    3  A    between atoms: C_6  and  O_16
    4  A    between atoms: C_6  and  C_32
    5  A    between atoms: C_6  and  C_54
    6  A    between atoms: C_8  and  C_39
    7  A    between atoms: C_12  and  O_19
    8  A    between atoms: C_12  and  C_45
    9  A    between atoms: C_18  and  C_32
   10  A    between atoms: C_18  and  C_36
   11  A    between atoms: O_19  and  C_33
   12  A    between atoms: C_22  and  C_54
   13  A    between atoms: C_24  and  C_30
   14  A    between atoms: C_24  and  C_48
   15  A    between atoms: C_29  and  C_44
   16  A    between atoms: C_33  and  C_50
   17  A    between atoms: C_38  and  O_51
   18  A    between atoms: N_42  and  C_45
   19  A    between atoms: C_48  and  O_51
                            x       y       z     vdW  Elec       q    Type
                         _______ _______ _______ _____ _____    ______ ____

>  <TORSDO>
F 19

$$$$
=
 OpenBabel11062419143D

 54 57  0  0  1  0  0  0  0  0999 V2000
  188.4890  177.4620  144.2750 O   0  0  0  0  0  0  0  0  0  0  0  0
  188.3820  176.4780  145.2700 C   0  0  0  0  0  2  0  0  0  0  0  0
  189.5990  175.7960  142.8940 C   0  0  0  0  0  0  0  0  0  0  0  0
  189.6700  175.1180  141.7420 C   0  0  0  0  0  3  0  0  0  0  0  0
  191.5650  174.8820  144.1490 C   0  0  0  0  0  3  0  0  0  0  0  0
  192.3200  174.4950  142.9960 N   0  0  0  0  0  0  0  0  0  0  0  0
  191.7410  173.7170  141.9340 C   0  0  0  0  0  0  0  0  0  0  0  0
  190.5750  174.0240  141.3720 C   0  0  0  0  0  3  0  0  0  0  0  0
  193.7460  174.5450  143.1290 C   0  0  0  0  0  0  0  0  0  0  0  0
  189.7510  175.8200  145.4700 C   0  0  1  0  0  3  0  0  0  0  0  0
  194.3870  175.4510  142.5230 O   0  0  0  0  0  0  0  0  0  0  0  0
  190.3470  175.4350  144.1330 C   0  0  0  0  0  0  0  0  0  0  0  0
  188.4610  176.7900  143.0360 C   0  0  2  0  0  3  0  0  0  0  0  0
  195.7280  173.6570  144.2130 C   0  0  0  0  0  2  0  0  0  0  0  0
  195.8480  171.2180  145.5340 C   0  0  2  0  0  3  0  0  0  0  0  0
  196.7530  172.4200  145.8940 C   0  0  0  0  0  2  0  0  0  0  0  0
  196.8700  173.3910  144.7510 C   0  0  0  0  0  2  0  0  0  0  0  0
  193.7550  172.5060  144.7290 C   0  0  0  0  0  3  0  0  0  0  0  0
  194.3530  171.5240  145.4460 C   0  0  0  0  0  2  0  0  0  0  0  0
  194.4630  173.5560  143.9590 C   0  0  0  0  0  0  0  0  0  0  0  0
  196.0630  170.1490  146.4920 N   0  0  0  0  0  1  0  0  0  0  0  0
  192.5060  172.5740  141.3450 C   0  0  0  0  0  2  0  0  0  0  0  0
  191.5900  171.3670  141.1250 C   0  0  2  0  0  3  0  0  0  0  0  0
  191.8020  170.2830  142.0110 O   0  0  0  0  0  0  0  0  0  0  0  0
  193.1680  169.9560  142.0150 C   0  0  0  0  0  1  0  0  0  0  0  0
  192.1630  171.7680  138.8320 O   0  0  0  0  0  1  0  0  0  0  0  0
  191.3660  170.9740  139.6560 C   0  0  2  0  0  3  0  0  0  0  0  0
  189.9120  171.0660  139.2050 C   0  0  0  0  0  2  0  0  0  0  0  0
  189.4990  173.3970  136.2490 C   0  0  0  0  0  3  0  0  0  0  0  0
  189.5900  172.9240  137.5610 C   0  0  0  0  0  3  0  0  0  0  0  0
  189.6410  172.5110  135.1770 C   0  0  0  0  0  3  0  0  0  0  0  0
  189.8140  171.5650  137.8050 C   0  0  0  0  0  0  0  0  0  0  0  0
  189.8720  171.1530  135.4200 C   0  0  0  0  0  3  0  0  0  0  0  0
  189.9570  170.6790  136.7310 C   0  0  0  0  0  3  0  0  0  0  0  0
  188.4850  177.8160  141.9040 C   0  0  0  0  0  2  0  0  0  0  0  0
  187.5080  177.5060  140.9580 O   0  0  0  0  0  0  0  0  0  0  0  0
  186.4180  177.0470  141.7010 C   0  0  0  0  0  2  0  0  0  0  0  0
  185.2310  177.9800  141.5110 C   0  0  0  0  0  2  0  0  0  0  0  0
  184.8180  178.9830  143.8000 C   0  0  0  0  0  0  0  0  0  0  0  0
  185.7790  179.7890  143.6660 O   0  0  0  0  0  0  0  0  0  0  0  0
  184.4620  178.0880  142.7440 N   0  0  0  0  0  2  0  0  0  0  0  0
  184.0030  179.0070  145.0450 C   0  0  0  0  0  2  0  0  0  0  0  0
  184.8850  178.9610  146.2020 N   0  0  0  0  0  2  0  0  0  0  0  0
  185.2600  177.7350  146.8310 C   0  0  0  0  0  0  0  0  0  0  0  0
  184.8130  176.6350  146.4050 O   0  0  0  0  0  0  0  0  0  0  0  0
  186.7480  179.1430  148.1930 C   0  0  0  0  0  1  0  0  0  0  0  0
  186.1630  177.7580  148.0170 C   0  0  0  0  0  2  0  0  0  0  0  0
  190.6830  176.7660  146.2360 C   0  0  0  0  0  2  0  0  0  0  0  0
  191.3530  177.1140  148.4840 O   0  0  0  0  0  1  0  0  0  0  0  0
  191.2740  176.1350  147.4950 C   0  0  0  0  0  0  0  0  0  0  0  0
  190.4330  175.1110  147.9450 O   0  0  0  0  0  1  0  0  0  0  0  0
  192.5920  175.6500  147.2230 O   0  0  0  0  0  0  0  0  0  0  0  0
  194.3640  177.0590  146.0940 N   0  0  0  0  0  0  0  0  0  0  0  0
  193.5550  176.4130  146.6100 C   0  0  0  0  0  0  0  0  0  0  0  0
  1  2  1  0  0  0  0
  2 10  1  0  0  0  0
  3 13  1  0  0  0  0
  3 12  1  0  0  0  0
  4  3  2  0  0  0  0
  6  9  1  0  0  0  0
  6  5  1  0  0  0  0
  7  6  1  0  0  0  0
  8  4  1  0  0  0  0
  8  7  2  0  0  0  0
  9 20  1  0  0  0  0
 10 48  1  6  0  0  0
 11  9  2  0  0  0  0
 12  5  2  0  0  0  0
 12 10  1  0  0  0  0
 13 35  1  6  0  0  0
 13  1  1  0  0  0  0
 14 17  1  0  0  0  0
 15 16  1  0  0  0  0
 15 21  1  1  0  0  0
 17 16  1  0  0  0  0
 18 19  1  0  0  0  0
 19 15  1  0  0  0  0
 20 14  1  0  0  0  0
 20 18  2  0  0  0  0
 22  7  1  0  0  0  0
 23 22  1  6  0  0  0
 23 24  1  0  0  0  0
 24 25  1  0  0  0  0
 27 26  1  6  0  0  0
 27 23  1  0  0  0  0
 28 27  1  0  0  0  0
 29 30  1  0  0  0  0
 30 32  2  0  0  0  0
 31 33  1  0  0  0  0
 31 29  2  0  0  0  0
 32 28  1  0  0  0  0
 33 34  2  0  0  0  0
 34 32  1  0  0  0  0
 36 37  1  0  0  0  0
 36 35  1  0  0  0  0
 38 37  1  0  0  0  0
 38 41  1  0  0  0  0
 39 42  1  0  0  0  0
 40 39  2  0  0  0  0
 41 39  1  0  0  0  0
 42 43  1  0  0  0  0
 43 44  1  0  0  0  0
 44 47  1  0  0  0  0
 45 44  2  0  0  0  0
 47 46  1  0  0  0  0
 48 50  1  0  0  0  0
 50 51  1  0  0  0  0
 50 49  1  0  0  0  0
 52 50  1  0  0  0  0
 53 54  3  0  0  0  0
 54 52  1  0  0  0  0
M  END
>  <MODEL>
5

>  <REMARK>
 VINA RESULT:      -6.4      2.673      9.606
  Name = 
  19 active torsions:
  status: ('A' for Active; 'I' for Inactive)
    1  A    between atoms: C_3  and  N_4
    2  A    between atoms: C_3  and  C_10
    3  A    between atoms: C_6  and  O_16
    4  A    between atoms: C_6  and  C_32
    5  A    between atoms: C_6  and  C_54
    6  A    between atoms: C_8  and  C_39
    7  A    between atoms: C_12  and  O_19
    8  A    between atoms: C_12  and  C_45
    9  A    between atoms: C_18  and  C_32
   10  A    between atoms: C_18  and  C_36
   11  A    between atoms: O_19  and  C_33
   12  A    between atoms: C_22  and  C_54
   13  A    between atoms: C_24  and  C_30
   14  A    between atoms: C_24  and  C_48
   15  A    between atoms: C_29  and  C_44
   16  A    between atoms: C_33  and  C_50
   17  A    between atoms: C_38  and  O_51
   18  A    between atoms: N_42  and  C_45
   19  A    between atoms: C_48  and  O_51
                            x       y       z     vdW  Elec       q    Type
                         _______ _______ _______ _____ _____    ______ ____

>  <TORSDO>
F 19

$$$$
=
 OpenBabel11062419143D

 54 57  0  0  1  0  0  0  0  0999 V2000
  193.0670  171.9590  139.2340 O   0  0  0  0  0  0  0  0  0  0  0  0
  193.7970  173.1250  139.5130 C   0  0  0  0  0  2  0  0  0  0  0  0
  191.1470  173.0440  140.2600 C   0  0  0  0  0  0  0  0  0  0  0  0
  189.8720  173.4450  140.1800 C   0  0  0  0  0  3  0  0  0  0  0  0
  191.7650  173.7640  142.5780 C   0  0  0  0  0  3  0  0  0  0  0  0
  190.4360  173.7450  143.1080 N   0  0  0  0  0  0  0  0  0  0  0  0
  189.3420  174.3940  142.4400 C   0  0  0  0  0  0  0  0  0  0  0  0
  189.0910  174.2290  141.1430 C   0  0  0  0  0  3  0  0  0  0  0  0
  190.3160  173.4280  144.5010 C   0  0  0  0  0  0  0  0  0  0  0  0
  193.5800  173.5100  140.9790 C   0  0  1  0  0  3  0  0  0  0  0  0
  189.8400  172.3050  144.8350 O   0  0  0  0  0  0  0  0  0  0  0  0
  192.1040  173.4850  141.3150 C   0  0  0  0  0  0  0  0  0  0  0  0
  191.7280  172.3570  139.0380 C   0  0  2  0  0  3  0  0  0  0  0  0
  191.9850  174.6280  145.7910 C   0  0  0  0  0  2  0  0  0  0  0  0
  191.4240  176.2950  147.9390 C   0  0  2  0  0  3  0  0  0  0  0  0
  192.6650  176.4730  147.0330 C   0  0  0  0  0  2  0  0  0  0  0  0
  193.0170  175.1990  146.3140 C   0  0  0  0  0  2  0  0  0  0  0  0
  189.7830  175.3110  146.1990 C   0  0  0  0  0  3  0  0  0  0  0  0
  190.0880  176.1650  147.2070 C   0  0  0  0  0  2  0  0  0  0  0  0
  190.7380  174.3930  145.5350 C   0  0  0  0  0  0  0  0  0  0  0  0
  191.3500  177.4010  148.8770 N   0  0  0  0  0  1  0  0  0  0  0  0
  188.3650  175.2100  143.2280 C   0  0  0  0  0  2  0  0  0  0  0  0
  188.4340  176.6830  142.8130 C   0  0  2  0  0  3  0  0  0  0  0  0
  189.2820  177.4910  143.6080 O   0  0  0  0  0  0  0  0  0  0  0  0
  190.5510  177.5500  143.0100 C   0  0  0  0  0  1  0  0  0  0  0  0
  187.0970  178.6730  142.7830 O   0  0  0  0  0  1  0  0  0  0  0  0
  187.0850  177.3220  142.4420 C   0  0  2  0  0  3  0  0  0  0  0  0
  185.8810  176.6400  143.0840 C   0  0  0  0  0  2  0  0  0  0  0  0
  184.1820  178.8360  145.6600 C   0  0  0  0  0  3  0  0  0  0  0  0
  184.5120  178.2350  144.4420 C   0  0  0  0  0  3  0  0  0  0  0  0
  184.8650  178.4750  146.8240 C   0  0  0  0  0  3  0  0  0  0  0  0
  185.5330  177.2790  144.3840 C   0  0  0  0  0  0  0  0  0  0  0  0
  185.8800  177.5150  146.7680 C   0  0  0  0  0  3  0  0  0  0  0  0
  186.2160  176.9180  145.5500 C   0  0  0  0  0  3  0  0  0  0  0  0
  190.8920  171.1420  138.6420 C   0  0  0  0  0  2  0  0  0  0  0  0
  191.7140  170.0230  138.5020 O   0  0  0  0  0  0  0  0  0  0  0  0
  190.8950  168.9330  138.8060 C   0  0  0  0  0  2  0  0  0  0  0  0
  190.7170  168.8210  140.3120 C   0  0  0  0  0  2  0  0  0  0  0  0
  192.4670  169.3060  142.0770 C   0  0  0  0  0  0  0  0  0  0  0  0
  191.7470  170.1960  142.6070 O   0  0  0  0  0  0  0  0  0  0  0  0
  191.9930  168.5500  140.9610 N   0  0  0  0  0  2  0  0  0  0  0  0
  193.8000  168.9920  142.6600 C   0  0  0  0  0  2  0  0  0  0  0  0
  193.8950  169.5710  143.9930 N   0  0  0  0  0  2  0  0  0  0  0  0
  195.0380  169.3860  144.8280 C   0  0  0  0  0  0  0  0  0  0  0  0
  196.0110  168.6860  144.4360 O   0  0  0  0  0  0  0  0  0  0  0  0
  194.8040  168.9430  147.2370 C   0  0  0  0  0  1  0  0  0  0  0  0
  195.0690  170.0010  146.1860 C   0  0  0  0  0  2  0  0  0  0  0  0
  194.3700  172.5670  141.8940 C   0  0  0  0  0  2  0  0  0  0  0  0
  195.2960  173.0990  144.0120 O   0  0  0  0  0  1  0  0  0  0  0  0
  195.5020  173.2670  142.6430 C   0  0  0  0  0  0  0  0  0  0  0  0
  196.7250  172.6800  142.2990 O   0  0  0  0  0  1  0  0  0  0  0  0
  195.4900  174.6660  142.3450 O   0  0  0  0  0  0  0  0  0  0  0  0
  195.6290  176.4530  144.1310 N   0  0  0  0  0  0  0  0  0  0  0  0
  195.5630  175.6350  143.3160 C   0  0  0  0  0  0  0  0  0  0  0  0
  1  2  1  0  0  0  0
  2 10  1  0  0  0  0
  3 12  1  0  0  0  0
  4  3  2  0  0  0  0
  4  8  1  0  0  0  0
  5  6  1  0  0  0  0
  6  9  1  0  0  0  0
  7  6  1  0  0  0  0
  7 22  1  0  0  0  0
  8  7  2  0  0  0  0
  9 11  2  0  0  0  0
  9 20  1  0  0  0  0
 10 12  1  0  0  0  0
 10 48  1  1  0  0  0
 12  5  2  0  0  0  0
 13 35  1  1  0  0  0
 13  1  1  0  0  0  0
 13  3  1  0  0  0  0
 14 17  1  0  0  0  0
 15 21  1  1  0  0  0
 16 15  1  0  0  0  0
 17 16  1  0  0  0  0
 18 19  1  0  0  0  0
 19 15  1  0  0  0  0
 20 14  1  0  0  0  0
 20 18  2  0  0  0  0
 23 22  1  1  0  0  0
 23 24  1  0  0  0  0
 25 24  1  0  0  0  0
 27 26  1  1  0  0  0
 27 23  1  0  0  0  0
 27 28  1  0  0  0  0
 28 32  1  0  0  0  0
 29 31  1  0  0  0  0
 30 29  2  0  0  0  0
 32 30  1  0  0  0  0
 32 34  2  0  0  0  0
 33 31  2  0  0  0  0
 34 33  1  0  0  0  0
 36 35  1  0  0  0  0
 36 37  1  0  0  0  0
 37 38  1  0  0  0  0
 38 41  1  0  0  0  0
 39 40  2  0  0  0  0
 39 42  1  0  0  0  0
 41 39  1  0  0  0  0
 42 43  1  0  0  0  0
 43 44  1  0  0  0  0
 44 47  1  0  0  0  0
 45 44  2  0  0  0  0
 47 46  1  0  0  0  0
 48 50  1  0  0  0  0
 50 49  1  0  0  0  0
 51 50  1  0  0  0  0
 52 50  1  0  0  0  0
 52 54  1  0  0  0  0
 54 53  3  0  0  0  0
M  END
>  <MODEL>
6

>  <REMARK>
 VINA RESULT:      -6.3      2.350      6.088
  Name = 
  19 active torsions:
  status: ('A' for Active; 'I' for Inactive)
    1  A    between atoms: C_3  and  N_4
    2  A    between atoms: C_3  and  C_10
    3  A    between atoms: C_6  and  O_16
    4  A    between atoms: C_6  and  C_32
    5  A    between atoms: C_6  and  C_54
    6  A    between atoms: C_8  and  C_39
    7  A    between atoms: C_12  and  O_19
    8  A    between atoms: C_12  and  C_45
    9  A    between atoms: C_18  and  C_32
   10  A    between atoms: C_18  and  C_36
   11  A    between atoms: O_19  and  C_33
   12  A    between atoms: C_22  and  C_54
   13  A    between atoms: C_24  and  C_30
   14  A    between atoms: C_24  and  C_48
   15  A    between atoms: C_29  and  C_44
   16  A    between atoms: C_33  and  C_50
   17  A    between atoms: C_38  and  O_51
   18  A    between atoms: N_42  and  C_45
   19  A    between atoms: C_48  and  O_51
                            x       y       z     vdW  Elec       q    Type
                         _______ _______ _______ _____ _____    ______ ____

>  <TORSDO>
F 19

$$$$
=
 OpenBabel11062419143D

 54 57  0  0  1  0  0  0  0  0999 V2000
  188.4790  176.4540  144.4750 O   0  0  0  0  0  0  0  0  0  0  0  0
  188.7120  175.7850  145.6870 C   0  0  0  0  0  2  0  0  0  0  0  0
  189.3700  174.4940  143.3450 C   0  0  0  0  0  0  0  0  0  0  0  0
  189.2220  173.5220  142.4370 C   0  0  0  0  0  3  0  0  0  0  0  0
  191.6610  174.0140  144.2390 C   0  0  0  0  0  3  0  0  0  0  0  0
  192.1440  173.3380  143.0740 N   0  0  0  0  0  0  0  0  0  0  0  0
  191.4010  172.2800  142.4450 C   0  0  0  0  0  0  0  0  0  0  0  0
  190.1080  172.3900  142.1460 C   0  0  0  0  0  3  0  0  0  0  0  0
  193.5490  173.4560  142.8120 C   0  0  0  0  0  0  0  0  0  0  0  0
  190.1440  175.2420  145.6900 C   0  0  1  0  0  3  0  0  0  0  0  0
  193.9330  174.1710  141.8420 O   0  0  0  0  0  0  0  0  0  0  0  0
  190.4300  174.5120  144.3950 C   0  0  0  0  0  0  0  0  0  0  0  0
  188.2130  175.4610  143.5100 C   0  0  2  0  0  3  0  0  0  0  0  0
  195.6600  173.3010  143.9990 C   0  0  0  0  0  2  0  0  0  0  0  0
  196.6060  171.0090  145.2490 C   0  0  2  0  0  3  0  0  0  0  0  0
  196.9820  172.4380  145.7060 C   0  0  0  0  0  2  0  0  0  0  0  0
  196.7910  173.4450  144.6040 C   0  0  0  0  0  2  0  0  0  0  0  0
  194.2290  171.4810  144.3450 C   0  0  0  0  0  3  0  0  0  0  0  0
  195.1100  170.7490  145.0690 C   0  0  0  0  0  2  0  0  0  0  0  0
  194.5370  172.7560  143.6570 C   0  0  0  0  0  0  0  0  0  0  0  0
  197.1510  170.0440  146.1850 N   0  0  0  0  0  1  0  0  0  0  0  0
  192.1040  171.0360  142.0010 C   0  0  0  0  0  2  0  0  0  0  0  0
  192.0410  170.8950  140.4770 C   0  0  2  0  0  3  0  0  0  0  0  0
  191.1140  169.9370  140.0010 O   0  0  0  0  0  0  0  0  0  0  0  0
  190.9210  168.9560  140.9870 C   0  0  0  0  0  1  0  0  0  0  0  0
  193.2670  170.3350  138.4950 O   0  0  0  0  0  1  0  0  0  0  0  0
  193.4030  170.8960  139.7640 C   0  0  2  0  0  3  0  0  0  0  0  0
  194.5030  170.1690  140.5310 C   0  0  0  0  0  2  0  0  0  0  0  0
  196.8470  173.1330  140.2980 C   0  0  0  0  0  3  0  0  0  0  0  0
  195.7290  172.3120  140.1290 C   0  0  0  0  0  3  0  0  0  0  0  0
  197.9320  172.6880  141.0570 C   0  0  0  0  0  3  0  0  0  0  0  0
  195.6970  171.0400  140.7120 C   0  0  0  0  0  0  0  0  0  0  0  0
  197.8980  171.4200  141.6450 C   0  0  0  0  0  3  0  0  0  0  0  0
  196.7840  170.5950  141.4720 C   0  0  0  0  0  3  0  0  0  0  0  0
  187.8620  176.1290  142.1820 C   0  0  0  0  0  2  0  0  0  0  0  0
  186.9030  177.1220  142.3850 O   0  0  0  0  0  0  0  0  0  0  0  0
  186.3210  177.3240  141.1330 C   0  0  0  0  0  2  0  0  0  0  0  0
  185.1800  178.3230  141.2450 C   0  0  0  0  0  2  0  0  0  0  0  0
  184.7350  178.9530  143.6580 C   0  0  0  0  0  0  0  0  0  0  0  0
  185.5490  179.9150  143.6010 O   0  0  0  0  0  0  0  0  0  0  0  0
  184.4690  178.1510  142.5060 N   0  0  0  0  0  2  0  0  0  0  0  0
  183.9930  178.6880  144.9210 C   0  0  0  0  0  2  0  0  0  0  0  0
  184.9130  178.7570  146.0470 N   0  0  0  0  0  2  0  0  0  0  0  0
  185.5050  177.5920  146.6230 C   0  0  0  0  0  0  0  0  0  0  0  0
  185.2280  176.4460  146.1780 O   0  0  0  0  0  0  0  0  0  0  0  0
  186.6120  179.1940  148.1270 C   0  0  0  0  0  1  0  0  0  0  0  0
  186.4360  177.7310  147.7800 C   0  0  0  0  0  2  0  0  0  0  0  0
  191.1410  176.3870  145.9080 C   0  0  0  0  0  2  0  0  0  0  0  0
  191.1130  177.1570  148.1510 O   0  0  0  0  0  1  0  0  0  0  0  0
  191.8210  176.3360  147.2740 C   0  0  0  0  0  0  0  0  0  0  0  0
  191.7910  175.0260  147.7650 O   0  0  0  0  0  1  0  0  0  0  0  0
  193.1610  176.8250  147.1690 O   0  0  0  0  0  0  0  0  0  0  0  0
  194.5840  176.4980  145.1030 N   0  0  0  0  0  0  0  0  0  0  0  0
  193.9330  176.6500  146.0470 C   0  0  0  0  0  0  0  0  0  0  0  0
  1  2  1  0  0  0  0
  2 10  1  0  0  0  0
  3 13  1  0  0  0  0
  3 12  1  0  0  0  0
  4  3  2  0  0  0  0
  5 12  2  0  0  0  0
  6  5  1  0  0  0  0
  7  6  1  0  0  0  0
  8  4  1  0  0  0  0
  8  7  2  0  0  0  0
  9  6  1  0  0  0  0
  9 20  1  0  0  0  0
 10 48  1  6  0  0  0
 11  9  2  0  0  0  0
 12 10  1  0  0  0  0
 13 35  1  6  0  0  0
 13  1  1  0  0  0  0
 14 17  1  0  0  0  0
 15 16  1  0  0  0  0
 15 21  1  1  0  0  0
 17 16  1  0  0  0  0
 18 19  1  0  0  0  0
 19 15  1  0  0  0  0
 20 14  1  0  0  0  0
 20 18  2  0  0  0  0
 22  7  1  0  0  0  0
 23 22  1  1  0  0  0
 24 23  1  0  0  0  0
 24 25  1  0  0  0  0
 27 26  1  6  0  0  0
 27 23  1  0  0  0  0
 27 28  1  0  0  0  0
 28 32  1  0  0  0  0
 29 31  1  0  0  0  0
 30 29  2  0  0  0  0
 30 32  1  0  0  0  0
 31 33  2  0  0  0  0
 32 34  2  0  0  0  0
 34 33  1  0  0  0  0
 35 36  1  0  0  0  0
 37 38  1  0  0  0  0
 37 36  1  0  0  0  0
 38 41  1  0  0  0  0
 39 42  1  0  0  0  0
 40 39  2  0  0  0  0
 41 39  1  0  0  0  0
 42 43  1  0  0  0  0
 43 44  1  0  0  0  0
 44 47  1  0  0  0  0
 45 44  2  0  0  0  0
 47 46  1  0  0  0  0
 48 50  1  0  0  0  0
 50 51  1  0  0  0  0
 50 49  1  0  0  0  0
 52 50  1  0  0  0  0
 53 54  3  0  0  0  0
 54 52  1  0  0  0  0
M  END
>  <MODEL>
7

>  <REMARK>
 VINA RESULT:      -6.1      2.525     10.060
  Name = 
  19 active torsions:
  status: ('A' for Active; 'I' for Inactive)
    1  A    between atoms: C_3  and  N_4
    2  A    between atoms: C_3  and  C_10
    3  A    between atoms: C_6  and  O_16
    4  A    between atoms: C_6  and  C_32
    5  A    between atoms: C_6  and  C_54
    6  A    between atoms: C_8  and  C_39
    7  A    between atoms: C_12  and  O_19
    8  A    between atoms: C_12  and  C_45
    9  A    between atoms: C_18  and  C_32
   10  A    between atoms: C_18  and  C_36
   11  A    between atoms: O_19  and  C_33
   12  A    between atoms: C_22  and  C_54
   13  A    between atoms: C_24  and  C_30
   14  A    between atoms: C_24  and  C_48
   15  A    between atoms: C_29  and  C_44
   16  A    between atoms: C_33  and  C_50
   17  A    between atoms: C_38  and  O_51
   18  A    between atoms: N_42  and  C_45
   19  A    between atoms: C_48  and  O_51
                            x       y       z     vdW  Elec       q    Type
                         _______ _______ _______ _____ _____    ______ ____

>  <TORSDO>
F 19

$$$$
=
 OpenBabel11062419143D

 54 57  0  0  1  0  0  0  0  0999 V2000
  188.6970  176.2080  143.8430 O   0  0  0  0  0  0  0  0  0  0  0  0
  188.7580  175.6730  145.1390 C   0  0  0  0  0  2  0  0  0  0  0  0
  189.4970  174.0590  143.0330 C   0  0  0  0  0  0  0  0  0  0  0  0
  189.3390  173.0000  142.2300 C   0  0  0  0  0  3  0  0  0  0  0  0
  191.6450  173.5020  144.1970 C   0  0  0  0  0  3  0  0  0  0  0  0
  192.1640  172.6530  143.1690 N   0  0  0  0  0  0  0  0  0  0  0  0
  191.3830  171.5920  142.5930 C   0  0  0  0  0  0  0  0  0  0  0  0
  190.1380  171.7710  142.1580 C   0  0  0  0  0  3  0  0  0  0  0  0
  193.5910  172.6220  143.0350 C   0  0  0  0  0  0  0  0  0  0  0  0
  190.1270  175.0180  145.3440 C   0  0  1  0  0  3  0  0  0  0  0  0
  194.1250  173.1800  142.0340 O   0  0  0  0  0  0  0  0  0  0  0  0
  190.4570  174.1150  144.1740 C   0  0  0  0  0  0  0  0  0  0  0  0
  188.4260  175.1310  142.9740 C   0  0  2  0  0  3  0  0  0  0  0  0
  195.6580  172.2970  144.2640 C   0  0  0  0  0  2  0  0  0  0  0  0
  196.1200  170.2330  146.0630 C   0  0  2  0  0  3  0  0  0  0  0  0
  196.8200  171.6090  146.1580 C   0  0  0  0  0  2  0  0  0  0  0  0
  196.8150  172.3300  144.8360 C   0  0  0  0  0  2  0  0  0  0  0  0
  193.8740  170.9860  145.0240 C   0  0  0  0  0  3  0  0  0  0  0  0
  194.5980  170.2780  145.9250 C   0  0  0  0  0  2  0  0  0  0  0  0
  194.4310  171.9500  144.0470 C   0  0  0  0  0  0  0  0  0  0  0  0
  196.4740  169.4320  147.2210 N   0  0  0  0  0  1  0  0  0  0  0  0
  192.0030  170.2490  142.3630 C   0  0  0  0  0  2  0  0  0  0  0  0
  192.1450  169.9700  140.8640 C   0  0  2  0  0  3  0  0  0  0  0  0
  193.0730  170.7950  140.1850 O   0  0  0  0  0  0  0  0  0  0  0  0
  194.3530  170.2270  140.2890 C   0  0  0  0  0  1  0  0  0  0  0  0
  190.4720  168.3790  140.2180 O   0  0  0  0  0  1  0  0  0  0  0  0
  190.8230  169.7240  140.1170 C   0  0  2  0  0  3  0  0  0  0  0  0
  190.8570  170.1360  138.6480 C   0  0  0  0  0  2  0  0  0  0  0  0
  190.4610  173.7970  137.7680 C   0  0  0  0  0  3  0  0  0  0  0  0
  191.0260  172.5330  137.9530 C   0  0  0  0  0  3  0  0  0  0  0  0
  189.1140  174.0110  138.0750 C   0  0  0  0  0  3  0  0  0  0  0  0
  190.2500  171.4820  138.4540 C   0  0  0  0  0  0  0  0  0  0  0  0
  188.3360  172.9590  138.5700 C   0  0  0  0  0  3  0  0  0  0  0  0
  188.9020  171.6970  138.7610 C   0  0  0  0  0  3  0  0  0  0  0  0
  188.2570  175.6600  141.5510 C   0  0  0  0  0  2  0  0  0  0  0  0
  187.9960  177.0300  141.5790 O   0  0  0  0  0  0  0  0  0  0  0  0
  187.2680  177.2830  140.4150 C   0  0  0  0  0  2  0  0  0  0  0  0
  185.9070  177.8640  140.7680 C   0  0  0  0  0  2  0  0  0  0  0  0
  185.0840  178.7300  143.0010 C   0  0  0  0  0  0  0  0  0  0  0  0
  184.1720  177.8600  143.0500 O   0  0  0  0  0  0  0  0  0  0  0  0
  186.0130  178.7560  141.9160 N   0  0  0  0  0  2  0  0  0  0  0  0
  185.2370  179.7010  144.1190 C   0  0  0  0  0  2  0  0  0  0  0  0
  185.9820  179.0770  145.2030 N   0  0  0  0  0  2  0  0  0  0  0  0
  185.3470  178.5800  146.3810 C   0  0  0  0  0  0  0  0  0  0  0  0
  184.0990  178.6860  146.5290 O   0  0  0  0  0  0  0  0  0  0  0  0
  186.7040  179.0300  148.3840 C   0  0  0  0  0  1  0  0  0  0  0  0
  186.1690  177.9570  147.4590 C   0  0  0  0  0  2  0  0  0  0  0  0
  191.2040  176.0940  145.5290 C   0  0  0  0  0  2  0  0  0  0  0  0
  190.8500  177.1360  147.6300 O   0  0  0  0  0  1  0  0  0  0  0  0
  191.6780  176.2240  146.9750 C   0  0  0  0  0  0  0  0  0  0  0  0
  191.5740  174.9860  147.6170 O   0  0  0  0  0  1  0  0  0  0  0  0
  193.0190  176.7190  147.0050 O   0  0  0  0  0  0  0  0  0  0  0  0
  194.9730  175.4400  146.0310 N   0  0  0  0  0  0  0  0  0  0  0  0
  194.0810  176.0260  146.4780 C   0  0  0  0  0  0  0  0  0  0  0  0
  1  2  1  0  0  0  0
  2 10  1  0  0  0  0
  3 12  1  0  0  0  0
  4  3  2  0  0  0  0
  6  5  1  0  0  0  0
  7  6  1  0  0  0  0
  8  4  1  0  0  0  0
  8  7  2  0  0  0  0
  9  6  1  0  0  0  0
  9 20  1  0  0  0  0
 10 48  1  6  0  0  0
 11  9  2  0  0  0  0
 12  5  2  0  0  0  0
 12 10  1  0  0  0  0
 13 35  1  6  0  0  0
 13  3  1  0  0  0  0
 13  1  1  0  0  0  0
 14 17  1  0  0  0  0
 15 16  1  0  0  0  0
 15 21  1  1  0  0  0
 17 16  1  0  0  0  0
 18 19  1  0  0  0  0
 19 15  1  0  0  0  0
 20 14  1  0  0  0  0
 20 18  2  0  0  0  0
 22  7  1  0  0  0  0
 23 22  1  1  0  0  0
 24 25  1  0  0  0  0
 24 23  1  0  0  0  0
 27 26  1  6  0  0  0
 27 23  1  0  0  0  0
 28 27  1  0  0  0  0
 29 30  2  0  0  0  0
 29 31  1  0  0  0  0
 30 32  1  0  0  0  0
 31 33  2  0  0  0  0
 32 28  1  0  0  0  0
 32 34  2  0  0  0  0
 33 34  1  0  0  0  0
 35 36  1  0  0  0  0
 37 38  1  0  0  0  0
 37 36  1  0  0  0  0
 38 41  1  0  0  0  0
 39 40  2  0  0  0  0
 39 42  1  0  0  0  0
 41 39  1  0  0  0  0
 42 43  1  0  0  0  0
 43 44  1  0  0  0  0
 44 45  2  0  0  0  0
 44 47  1  0  0  0  0
 47 46  1  0  0  0  0
 48 50  1  0  0  0  0
 50 52  1  0  0  0  0
 50 51  1  0  0  0  0
 50 49  1  0  0  0  0
 53 54  3  0  0  0  0
 54 52  1  0  0  0  0
M  END
>  <MODEL>
8

>  <REMARK>
 VINA RESULT:      -6.1      2.620      9.469
  Name = 
  19 active torsions:
  status: ('A' for Active; 'I' for Inactive)
    1  A    between atoms: C_3  and  N_4
    2  A    between atoms: C_3  and  C_10
    3  A    between atoms: C_6  and  O_16
    4  A    between atoms: C_6  and  C_32
    5  A    between atoms: C_6  and  C_54
    6  A    between atoms: C_8  and  C_39
    7  A    between atoms: C_12  and  O_19
    8  A    between atoms: C_12  and  C_45
    9  A    between atoms: C_18  and  C_32
   10  A    between atoms: C_18  and  C_36
   11  A    between atoms: O_19  and  C_33
   12  A    between atoms: C_22  and  C_54
   13  A    between atoms: C_24  and  C_30
   14  A    between atoms: C_24  and  C_48
   15  A    between atoms: C_29  and  C_44
   16  A    between atoms: C_33  and  C_50
   17  A    between atoms: C_38  and  O_51
   18  A    between atoms: N_42  and  C_45
   19  A    between atoms: C_48  and  O_51
                            x       y       z     vdW  Elec       q    Type
                         _______ _______ _______ _____ _____    ______ ____

>  <TORSDO>
F 19

$$$$
=
 OpenBabel11062419143D

 54 57  0  0  1  0  0  0  0  0999 V2000
  188.2400  173.6290  139.9090 O   0  0  0  0  0  0  0  0  0  0  0  0
  189.2910  173.5870  138.9800 C   0  0  0  0  0  2  0  0  0  0  0  0
  189.8800  174.3040  141.5730 C   0  0  0  0  0  0  0  0  0  0  0  0
  190.2800  175.1740  142.5080 C   0  0  0  0  0  3  0  0  0  0  0  0
  191.7150  172.5990  141.6410 C   0  0  0  0  0  3  0  0  0  0  0  0
  192.1140  172.8530  142.9910 N   0  0  0  0  0  0  0  0  0  0  0  0
  192.3740  174.1840  143.4700 C   0  0  0  0  0  0  0  0  0  0  0  0
  191.5350  175.1970  143.2680 C   0  0  0  0  0  3  0  0  0  0  0  0
  192.6420  171.7340  143.7150 C   0  0  0  0  0  0  0  0  0  0  0  0
  190.4480  172.7770  139.5720 C   0  0  1  0  0  3  0  0  0  0  0  0
  191.9470  171.2150  144.6350 O   0  0  0  0  0  0  0  0  0  0  0  0
  190.7480  173.2450  140.9810 C   0  0  0  0  0  0  0  0  0  0  0  0
  188.5790  174.6160  140.8580 C   0  0  2  0  0  3  0  0  0  0  0  0
  195.0140  171.4380  144.1340 C   0  0  0  0  0  2  0  0  0  0  0  0
  196.7740  170.1500  142.4150 C   0  0  2  0  0  3  0  0  0  0  0  0
  196.9820  170.2120  143.9470 C   0  0  0  0  0  2  0  0  0  0  0  0
  196.2280  171.3580  144.5660 C   0  0  0  0  0  2  0  0  0  0  0  0
  194.1890  170.1650  142.3510 C   0  0  0  0  0  3  0  0  0  0  0  0
  195.3920  169.6820  141.9570 C   0  0  0  0  0  2  0  0  0  0  0  0
  193.9780  171.1920  143.3980 C   0  0  0  0  0  0  0  0  0  0  0  0
  197.7890  169.2970  141.8250 N   0  0  0  0  0  1  0  0  0  0  0  0
  193.5750  174.4480  144.3240 C   0  0  0  0  0  2  0  0  0  0  0  0
  193.9880  175.9200  144.2330 C   0  0  2  0  0  3  0  0  0  0  0  0
  195.3120  176.1450  143.7840 O   0  0  0  0  0  0  0  0  0  0  0  0
  195.2970  176.3540  142.3960 C   0  0  0  0  0  1  0  0  0  0  0  0
  194.6100  177.5810  145.8450 O   0  0  0  0  0  1  0  0  0  0  0  0
  193.5410  176.7990  145.4130 C   0  0  2  0  0  3  0  0  0  0  0  0
  192.9720  176.0120  146.5890 C   0  0  0  0  0  2  0  0  0  0  0  0
  189.3720  174.9220  147.0200 C   0  0  0  0  0  3  0  0  0  0  0  0
  190.7690  174.9120  147.0300 C   0  0  0  0  0  3  0  0  0  0  0  0
  188.6850  176.0510  146.5650 C   0  0  0  0  0  3  0  0  0  0  0  0
  191.4830  176.0270  146.5760 C   0  0  0  0  0  0  0  0  0  0  0  0
  189.3980  177.1680  146.1170 C   0  0  0  0  0  3  0  0  0  0  0  0
  190.7950  177.1570  146.1210 C   0  0  0  0  0  3  0  0  0  0  0  0
  187.4310  174.7750  141.8520 C   0  0  0  0  0  2  0  0  0  0  0  0
  187.1550  176.1290  142.0500 O   0  0  0  0  0  0  0  0  0  0  0  0
  187.1180  176.6810  140.7680 C   0  0  0  0  0  2  0  0  0  0  0  0
  186.0570  177.7690  140.7020 C   0  0  0  0  0  2  0  0  0  0  0  0
  185.0960  178.7610  142.8250 C   0  0  0  0  0  0  0  0  0  0  0  0
  184.0690  178.0320  142.7500 O   0  0  0  0  0  0  0  0  0  0  0  0
  186.1470  178.6450  141.8640 N   0  0  0  0  0  2  0  0  0  0  0  0
  185.2470  179.7070  143.9640 C   0  0  0  0  0  2  0  0  0  0  0  0
  185.7830  178.9960  145.1160 N   0  0  0  0  0  2  0  0  0  0  0  0
  184.9490  178.4910  146.1590 C   0  0  0  0  0  0  0  0  0  0  0  0
  183.7010  178.6660  146.1230 O   0  0  0  0  0  0  0  0  0  0  0  0
  186.5510  178.6850  148.0170 C   0  0  0  0  0  1  0  0  0  0  0  0
  185.5630  177.7770  147.3160 C   0  0  0  0  0  2  0  0  0  0  0  0
  190.1110  171.2810  139.5490 C   0  0  0  0  0  2  0  0  0  0  0  0
  191.2530  169.2450  139.1310 O   0  0  0  0  0  1  0  0  0  0  0  0
  190.9710  170.4890  138.5670 C   0  0  0  0  0  0  0  0  0  0  0  0
  190.2640  170.2900  137.3770 O   0  0  0  0  0  1  0  0  0  0  0  0
  192.2040  171.1770  138.3360 O   0  0  0  0  0  0  0  0  0  0  0  0
  194.4570  170.0370  138.4860 N   0  0  0  0  0  0  0  0  0  0  0  0
  193.4280  170.5600  138.4160 C   0  0  0  0  0  0  0  0  0  0  0  0
  1 13  1  0  0  0  0
  2 10  1  0  0  0  0
  2  1  1  0  0  0  0
  3  4  2  0  0  0  0
  4  8  1  0  0  0  0
  5  6  1  0  0  0  0
  6  7  1  0  0  0  0
  6  9  1  0  0  0  0
  7 22  1  0  0  0  0
  8  7  2  0  0  0  0
  9 11  2  0  0  0  0
 10 48  1  1  0  0  0
 10 12  1  0  0  0  0
 12  3  1  0  0  0  0
 12  5  2  0  0  0  0
 13  3  1  0  0  0  0
 13 35  1  1  0  0  0
 14 17  1  0  0  0  0
 15 21  1  6  0  0  0
 15 16  1  0  0  0  0
 16 17  1  0  0  0  0
 18 20  2  0  0  0  0
 19 18  1  0  0  0  0
 19 15  1  0  0  0  0
 20  9  1  0  0  0  0
 20 14  1  0  0  0  0
 23 22  1  1  0  0  0
 23 27  1  0  0  0  0
 24 23  1  0  0  0  0
 25 24  1  0  0  0  0
 27 26  1  1  0  0  0
 27 28  1  0  0  0  0
 29 30  1  0  0  0  0
 31 29  2  0  0  0  0
 32 28  1  0  0  0  0
 32 30  2  0  0  0  0
 33 34  2  0  0  0  0
 33 31  1  0  0  0  0
 34 32  1  0  0  0  0
 35 36  1  0  0  0  0
 37 36  1  0  0  0  0
 38 37  1  0  0  0  0
 38 41  1  0  0  0  0
 39 42  1  0  0  0  0
 40 39  2  0  0  0  0
 41 39  1  0  0  0  0
 42 43  1  0  0  0  0
 43 44  1  0  0  0  0
 44 47  1  0  0  0  0
 45 44  2  0  0  0  0
 47 46  1  0  0  0  0
 50 49  1  0  0  0  0
 50 48  1  0  0  0  0
 51 50  1  0  0  0  0
 52 54  1  0  0  0  0
 52 50  1  0  0  0  0
 54 53  3  0  0  0  0
M  END
>  <MODEL>
9

>  <REMARK>
 VINA RESULT:      -6.1      2.514      8.265
  Name = 
  19 active torsions:
  status: ('A' for Active; 'I' for Inactive)
    1  A    between atoms: C_3  and  N_4
    2  A    between atoms: C_3  and  C_10
    3  A    between atoms: C_6  and  O_16
    4  A    between atoms: C_6  and  C_32
    5  A    between atoms: C_6  and  C_54
    6  A    between atoms: C_8  and  C_39
    7  A    between atoms: C_12  and  O_19
    8  A    between atoms: C_12  and  C_45
    9  A    between atoms: C_18  and  C_32
   10  A    between atoms: C_18  and  C_36
   11  A    between atoms: O_19  and  C_33
   12  A    between atoms: C_22  and  C_54
   13  A    between atoms: C_24  and  C_30
   14  A    between atoms: C_24  and  C_48
   15  A    between atoms: C_29  and  C_44
   16  A    between atoms: C_33  and  C_50
   17  A    between atoms: C_38  and  O_51
   18  A    between atoms: N_42  and  C_45
   19  A    between atoms: C_48  and  O_51
                            x       y       z     vdW  Elec       q    Type
                         _______ _______ _______ _____ _____    ______ ____

>  <TORSDO>
F 19

$$$$
