=
 OpenBabel11062419513D

 30 35  0  0  1  0  0  0  0  0999 V2000
  188.1760  173.8110  141.9060 N   0  0  0  0  0  1  0  0  0  0  0  0
  188.7240  174.8460  143.9020 C   0  0  0  0  0  2  0  0  0  0  0  0
  190.9060  176.0130  142.7650 C   0  0  0  0  0  2  0  0  0  0  0  0
  188.6920  176.3810  143.7810 C   0  0  1  0  0  3  0  0  0  0  0  0
  189.9940  176.9700  143.4020 N   0  0  0  0  0  0  0  0  0  0  0  0
  189.2650  174.1670  142.7110 N   0  0  0  0  0  0  0  0  0  0  0  0
  190.1400  175.0190  141.8970 C   0  0  0  0  0  2  0  0  0  0  0  0
  185.3130  178.9120  145.2510 C   0  0  2  0  0  3  0  0  0  0  0  0
  186.4160  177.2340  146.0230 C   0  0  0  0  0  2  0  0  0  0  0  0
  187.5780  176.8260  142.8310 C   0  0  2  0  0  3  0  0  0  0  0  0
  186.6820  178.2810  144.9540 C   0  0  1  0  0  3  0  0  0  0  0  0
  187.5580  178.3350  142.6370 C   0  0  0  0  0  2  0  0  0  0  0  0
  186.5520  177.6890  143.5630 C   0  0  1  0  0  0  0  0  0  0  0  0
  185.1820  177.9020  143.0750 C   0  0  0  0  0  0  0  0  0  0  0  0
  185.0700  177.8680  146.3270 C   0  0  1  0  0  3  0  0  0  0  0  0
  184.3740  178.6670  144.0540 C   0  0  0  0  0  2  0  0  0  0  0  0
  185.1160  178.5000  147.6340 N   0  0  0  0  0  1  0  0  0  0  0  0
  184.7480  177.4840  142.0130 O   0  0  0  0  0  0  0  0  0  0  0  0
  190.6570  177.4310  144.6170 C   0  0  0  0  0  2  0  0  0  0  0  0
  191.8330  176.7040  144.8330 O   0  0  0  0  0  0  0  0  0  0  0  0
  194.4090  175.1300  146.0890 C   0  0  0  0  0  0  0  0  0  0  0  0
  191.9050  174.6750  146.1160 C   0  0  0  0  0  2  0  0  0  0  0  0
  192.7910  176.8220  147.0310 C   0  0  0  0  0  2  0  0  0  0  0  0
  195.9510  173.3830  145.4130 C   0  0  0  0  0  3  0  0  0  0  0  0
  195.7160  174.6870  145.8560 C   0  0  0  0  0  3  0  0  0  0  0  0
  194.8790  172.5150  145.1930 C   0  0  0  0  0  3  0  0  0  0  0  0
  194.1970  176.5640  146.4850 C   0  0  0  0  0  2  0  0  0  0  0  0
  191.7290  176.1940  146.1310 C   0  0  1  0  0  3  0  0  0  0  0  0
  193.5700  172.9520  145.4110 C   0  0  0  0  0  3  0  0  0  0  0  0
  193.3240  174.2590  145.8430 C   0  0  0  0  0  0  0  0  0  0  0  0
  1  6  1  0  0  0  0
  3  5  1  0  0  0  0
  4  2  1  6  0  0  0
  5  4  1  0  0  0  0
  5 19  1  0  0  0  0
  6  2  1  0  0  0  0
  7  6  1  0  0  0  0
  7  3  1  0  0  0  0
  8 16  1  6  0  0  0
  8 15  1  0  0  0  0
  9 15  1  0  0  0  0
 10 12  1  6  0  0  0
 10 13  1  0  0  0  0
 10  4  1  0  0  0  0
 11  8  1  0  0  0  0
 11  9  1  1  0  0  0
 13 12  1  6  0  0  0
 13 11  1  0  0  0  0
 14 13  1  0  0  0  0
 14 16  1  0  0  0  0
 15 17  1  1  0  0  0
 18 14  2  0  0  0  0
 19 20  1  0  0  0  0
 21 27  1  0  0  0  0
 22 28  1  0  0  0  0
 24 25  2  0  0  0  0
 25 21  1  0  0  0  0
 26 29  2  0  0  0  0
 26 24  1  0  0  0  0
 27 23  1  0  0  0  0
 28 20  1  6  0  0  0
 28 23  1  0  0  0  0
 29 30  1  0  0  0  0
 30 21  2  0  0  0  0
 30 22  1  0  0  0  0
M  END
>  <MODEL>
1

>  <REMARK>
 VINA RESULT:      -8.3      0.000      0.000
  Name = 
  4 active torsions:
  status: ('A' for Active; 'I' for Inactive)
    1  A    between atoms: C_7  and  C_17
    2  A    between atoms: C_9  and  O_16
    3  A    between atoms: C_9  and  N_19
    4  A    between atoms: O_16  and  C_27
                            x       y       z     vdW  Elec       q    Type
                         _______ _______ _______ _____ _____    ______ ____

>  <TORSDO>
F 4

$$$$
=
 OpenBabel11062419513D

 30 35  0  0  1  0  0  0  0  0999 V2000
  191.1090  172.0550  140.1010 N   0  0  0  0  0  1  0  0  0  0  0  0
  190.7720  174.1740  140.9700 C   0  0  0  0  0  2  0  0  0  0  0  0
  188.1370  173.6420  141.4010 C   0  0  0  0  0  2  0  0  0  0  0  0
  190.3180  174.1250  142.4410 C   0  0  1  0  0  3  0  0  0  0  0  0
  188.8480  174.0940  142.6020 N   0  0  0  0  0  0  0  0  0  0  0  0
  190.1890  173.1110  140.1320 N   0  0  0  0  0  0  0  0  0  0  0  0
  188.9320  172.5700  140.6630 C   0  0  0  0  0  2  0  0  0  0  0  0
  193.1670  174.8910  145.7990 C   0  0  2  0  0  3  0  0  0  0  0  0
  192.7870  175.7880  143.8800 C   0  0  0  0  0  2  0  0  0  0  0  0
  190.9870  172.9640  143.1770 C   0  0  2  0  0  3  0  0  0  0  0  0
  191.9860  174.8990  144.8170 C   0  0  1  0  0  3  0  0  0  0  0  0
  190.5560  172.8840  144.6350 C   0  0  0  0  0  2  0  0  0  0  0  0
  191.9020  173.4790  144.2870 C   0  0  1  0  0  0  0  0  0  0  0  0
  192.9920  172.6820  144.8690 C   0  0  0  0  0  0  0  0  0  0  0  0
  193.9490  175.7930  144.8590 C   0  0  1  0  0  3  0  0  0  0  0  0
  193.7940  173.4830  145.8250 C   0  0  0  0  0  2  0  0  0  0  0  0
  194.0780  177.1130  145.4500 N   0  0  0  0  0  1  0  0  0  0  0  0
  193.2300  171.5180  144.5890 O   0  0  0  0  0  0  0  0  0  0  0  0
  188.3890  175.4520  142.8720 C   0  0  0  0  0  2  0  0  0  0  0  0
  188.3790  175.6960  144.2500 O   0  0  0  0  0  0  0  0  0  0  0  0
  186.7850  177.6480  146.3340 C   0  0  0  0  0  0  0  0  0  0  0  0
  187.7360  177.9970  143.9990 C   0  0  0  0  0  2  0  0  0  0  0  0
  189.2330  177.2610  145.8570 C   0  0  0  0  0  2  0  0  0  0  0  0
  184.4900  178.2710  146.8130 C   0  0  0  0  0  3  0  0  0  0  0  0
  185.7160  177.7480  147.2310 C   0  0  0  0  0  3  0  0  0  0  0  0
  184.3220  178.6890  145.4910 C   0  0  0  0  0  3  0  0  0  0  0  0
  188.0590  177.0040  146.8030 C   0  0  0  0  0  2  0  0  0  0  0  0
  188.8320  177.0100  144.4050 C   0  0  1  0  0  3  0  0  0  0  0  0
  185.3790  178.5810  144.5840 C   0  0  0  0  0  3  0  0  0  0  0  0
  186.6070  178.0480  144.9900 C   0  0  0  0  0  0  0  0  0  0  0  0
  1  6  1  0  0  0  0
  3  5  1  0  0  0  0
  4  2  1  6  0  0  0
  4  5  1  0  0  0  0
  4 10  1  0  0  0  0
  5 19  1  0  0  0  0
  6  7  1  0  0  0  0
  6  2  1  0  0  0  0
  7  3  1  0  0  0  0
  8 16  1  6  0  0  0
  9 15  1  0  0  0  0
 10 13  1  0  0  0  0
 10 12  1  1  0  0  0
 11  9  1  6  0  0  0
 11  8  1  0  0  0  0
 13 12  1  1  0  0  0
 13 11  1  0  0  0  0
 13 14  1  0  0  0  0
 14 16  1  0  0  0  0
 15 17  1  1  0  0  0
 15  8  1  0  0  0  0
 18 14  2  0  0  0  0
 19 20  1  0  0  0  0
 21 27  1  0  0  0  0
 21 25  1  0  0  0  0
 22 28  1  0  0  0  0
 22 30  1  0  0  0  0
 23 27  1  0  0  0  0
 24 25  2  0  0  0  0
 26 24  1  0  0  0  0
 28 20  1  1  0  0  0
 28 23  1  0  0  0  0
 29 30  1  0  0  0  0
 29 26  2  0  0  0  0
 30 21  2  0  0  0  0
M  END
>  <MODEL>
2

>  <REMARK>
 VINA RESULT:      -8.0      2.287      7.356
  Name = 
  4 active torsions:
  status: ('A' for Active; 'I' for Inactive)
    1  A    between atoms: C_7  and  C_17
    2  A    between atoms: C_9  and  O_16
    3  A    between atoms: C_9  and  N_19
    4  A    between atoms: O_16  and  C_27
                            x       y       z     vdW  Elec       q    Type
                         _______ _______ _______ _____ _____    ______ ____

>  <TORSDO>
F 4

$$$$
=
 OpenBabel11062419513D

 30 35  0  0  1  0  0  0  0  0999 V2000
  195.7770  173.4180  144.4960 N   0  0  0  0  0  1  0  0  0  0  0  0
  193.6590  173.4330  145.4300 C   0  0  0  0  0  2  0  0  0  0  0  0
  194.0650  175.9220  146.4560 C   0  0  0  0  0  2  0  0  0  0  0  0
  192.7850  174.5600  144.8510 C   0  0  1  0  0  3  0  0  0  0  0  0
  192.8640  175.8220  145.6190 N   0  0  0  0  0  0  0  0  0  0  0  0
  195.0670  173.8190  145.6350 N   0  0  0  0  0  0  0  0  0  0  0  0
  195.2630  175.2660  145.7760 C   0  0  0  0  0  2  0  0  0  0  0  0
  189.6540  173.9140  141.7260 C   0  0  2  0  0  3  0  0  0  0  0  0
  190.2480  172.9010  143.5290 C   0  0  0  0  0  2  0  0  0  0  0  0
  193.1000  174.7850  143.3710 C   0  0  2  0  0  3  0  0  0  0  0  0
  190.4450  174.3060  142.9830 C   0  0  1  0  0  3  0  0  0  0  0  0
  192.2980  175.9370  142.7820 C   0  0  0  0  0  2  0  0  0  0  0  0
  191.8700  174.5140  142.5060 C   0  0  1  0  0  0  0  0  0  0  0  0
  191.9450  174.2160  141.0680 C   0  0  0  0  0  0  0  0  0  0  0  0
  189.4520  172.5200  142.2930 C   0  0  1  0  0  3  0  0  0  0  0  0
  190.6140  173.8630  140.5210 C   0  0  0  0  0  2  0  0  0  0  0  0
  188.0570  172.3400  142.6520 N   0  0  0  0  0  1  0  0  0  0  0  0
  192.9710  174.2290  140.4070 O   0  0  0  0  0  0  0  0  0  0  0  0
  191.7210  175.8770  146.5240 C   0  0  0  0  0  2  0  0  0  0  0  0
  190.5280  175.9360  145.7950 O   0  0  0  0  0  0  0  0  0  0  0  0
  187.7730  176.7770  144.2480 C   0  0  0  0  0  0  0  0  0  0  0  0
  190.0040  177.9510  144.5970 C   0  0  0  0  0  2  0  0  0  0  0  0
  188.6570  177.2240  146.5690 C   0  0  0  0  0  2  0  0  0  0  0  0
  186.8370  176.5920  142.0170 C   0  0  0  0  0  3  0  0  0  0  0  0
  186.7550  176.3460  143.3900 C   0  0  0  0  0  3  0  0  0  0  0  0
  187.9440  177.2630  141.4920 C   0  0  0  0  0  3  0  0  0  0  0  0
  187.6840  176.4200  145.7050 C   0  0  0  0  0  2  0  0  0  0  0  0
  190.0530  177.2420  145.9510 C   0  0  1  0  0  3  0  0  0  0  0  0
  188.9720  177.6850  142.3380 C   0  0  0  0  0  3  0  0  0  0  0  0
  188.9040  177.4340  143.7130 C   0  0  0  0  0  0  0  0  0  0  0  0
  1  6  1  0  0  0  0
  2  6  1  0  0  0  0
  4  2  1  1  0  0  0
  4  5  1  0  0  0  0
  5  3  1  0  0  0  0
  5 19  1  0  0  0  0
  6  7  1  0  0  0  0
  7  3  1  0  0  0  0
  8 16  1  6  0  0  0
  8 15  1  0  0  0  0
  8 11  1  0  0  0  0
 10 12  1  1  0  0  0
 10  4  1  0  0  0  0
 11  9  1  1  0  0  0
 13 12  1  6  0  0  0
 13 11  1  0  0  0  0
 13 10  1  0  0  0  0
 14 13  1  0  0  0  0
 15 17  1  1  0  0  0
 15  9  1  0  0  0  0
 16 14  1  0  0  0  0
 18 14  2  0  0  0  0
 20 19  1  0  0  0  0
 21 27  1  0  0  0  0
 22 28  1  0  0  0  0
 24 25  1  0  0  0  0
 25 21  2  0  0  0  0
 26 24  2  0  0  0  0
 26 29  1  0  0  0  0
 27 23  1  0  0  0  0
 28 20  1  6  0  0  0
 28 23  1  0  0  0  0
 29 30  2  0  0  0  0
 30 21  1  0  0  0  0
 30 22  1  0  0  0  0
M  END
>  <MODEL>
3

>  <REMARK>
 VINA RESULT:      -8.0      2.702      6.658
  Name = 
  4 active torsions:
  status: ('A' for Active; 'I' for Inactive)
    1  A    between atoms: C_7  and  C_17
    2  A    between atoms: C_9  and  O_16
    3  A    between atoms: C_9  and  N_19
    4  A    between atoms: O_16  and  C_27
                            x       y       z     vdW  Elec       q    Type
                         _______ _______ _______ _____ _____    ______ ____

>  <TORSDO>
F 4

$$$$
=
 OpenBabel11062419513D

 30 35  0  0  1  0  0  0  0  0999 V2000
  189.7920  178.0280  147.8580 N   0  0  0  0  0  1  0  0  0  0  0  0
  189.9990  177.5960  145.5930 C   0  0  0  0  0  2  0  0  0  0  0  0
  189.7220  174.9210  146.0190 C   0  0  0  0  0  2  0  0  0  0  0  0
  188.7310  176.9410  145.0160 C   0  0  1  0  0  3  0  0  0  0  0  0
  188.7630  175.4630  145.0500 N   0  0  0  0  0  0  0  0  0  0  0  0
  190.3490  177.1230  146.9450 N   0  0  0  0  0  0  0  0  0  0  0  0
  189.8010  175.8000  147.2630 C   0  0  0  0  0  2  0  0  0  0  0  0
  184.9840  177.6560  142.6850 C   0  0  2  0  0  3  0  0  0  0  0  0
  187.0860  177.9560  142.3330 C   0  0  0  0  0  2  0  0  0  0  0  0
  187.4770  177.4900  145.7000 C   0  0  2  0  0  3  0  0  0  0  0  0
  186.2790  177.0880  143.2860 C   0  0  1  0  0  3  0  0  0  0  0  0
  186.3320  176.4880  145.6890 C   0  0  0  0  0  2  0  0  0  0  0  0
  186.3310  177.6330  144.7010 C   0  0  1  0  0  0  0  0  0  0  0  0
  185.1740  178.5120  144.9210 C   0  0  0  0  0  0  0  0  0  0  0  0
  185.8040  178.5040  141.7290 C   0  0  1  0  0  3  0  0  0  0  0  0
  184.2930  178.5530  143.7300 C   0  0  0  0  0  2  0  0  0  0  0  0
  185.6510  177.9970  140.3770 N   0  0  0  0  0  1  0  0  0  0  0  0
  184.9690  179.1510  145.9410 O   0  0  0  0  0  0  0  0  0  0  0  0
  189.1830  174.9860  143.7370 C   0  0  0  0  0  2  0  0  0  0  0  0
  190.2830  174.1300  143.8610 O   0  0  0  0  0  0  0  0  0  0  0  0
  193.4920  174.3140  144.4630 C   0  0  0  0  0  0  0  0  0  0  0  0
  191.8870  175.7550  143.1120 C   0  0  0  0  0  2  0  0  0  0  0  0
  192.1420  173.3310  142.5700 C   0  0  0  0  0  2  0  0  0  0  0  0
  194.9560  175.3410  146.1020 C   0  0  0  0  0  3  0  0  0  0  0  0
  194.4900  174.2040  145.4380 C   0  0  0  0  0  3  0  0  0  0  0  0
  194.4200  176.5950  145.8030 C   0  0  0  0  0  3  0  0  0  0  0  0
  192.9630  173.0570  143.8320 C   0  0  0  0  0  2  0  0  0  0  0  0
  191.1380  174.4570  142.8040 C   0  0  1  0  0  3  0  0  0  0  0  0
  193.4130  176.7140  144.8410 C   0  0  0  0  0  3  0  0  0  0  0  0
  192.9330  175.5800  144.1780 C   0  0  0  0  0  0  0  0  0  0  0  0
  2  6  1  0  0  0  0
  3  7  1  0  0  0  0
  4  5  1  0  0  0  0
  4  2  1  1  0  0  0
  4 10  1  0  0  0  0
  5  3  1  0  0  0  0
  6  7  1  0  0  0  0
  6  1  1  0  0  0  0
  8 11  1  0  0  0  0
  8 16  1  1  0  0  0
 10 12  1  1  0  0  0
 11  9  1  6  0  0  0
 11 13  1  0  0  0  0
 13 14  1  0  0  0  0
 13 12  1  1  0  0  0
 13 10  1  0  0  0  0
 14 18  2  0  0  0  0
 15 17  1  6  0  0  0
 15  9  1  0  0  0  0
 15  8  1  0  0  0  0
 16 14  1  0  0  0  0
 19 20  1  0  0  0  0
 19  5  1  0  0  0  0
 21 25  1  0  0  0  0
 22 30  1  0  0  0  0
 23 28  1  0  0  0  0
 23 27  1  0  0  0  0
 25 24  2  0  0  0  0
 26 24  1  0  0  0  0
 27 21  1  0  0  0  0
 28 22  1  0  0  0  0
 28 20  1  1  0  0  0
 29 26  2  0  0  0  0
 30 21  2  0  0  0  0
 30 29  1  0  0  0  0
M  END
>  <MODEL>
4

>  <REMARK>
 VINA RESULT:      -7.9      2.164      3.831
  Name = 
  4 active torsions:
  status: ('A' for Active; 'I' for Inactive)
    1  A    between atoms: C_7  and  C_17
    2  A    between atoms: C_9  and  O_16
    3  A    between atoms: C_9  and  N_19
    4  A    between atoms: O_16  and  C_27
                            x       y       z     vdW  Elec       q    Type
                         _______ _______ _______ _____ _____    ______ ____

>  <TORSDO>
F 4

$$$$
=
 OpenBabel11062419513D

 30 35  0  0  1  0  0  0  0  0999 V2000
  191.1020  175.2250  148.0300 N   0  0  0  0  0  1  0  0  0  0  0  0
  190.4340  174.9740  145.8280 C   0  0  0  0  0  2  0  0  0  0  0  0
  189.7260  177.5990  145.6820 C   0  0  0  0  0  2  0  0  0  0  0  0
  191.2640  175.8530  144.8730 C   0  0  1  0  0  3  0  0  0  0  0  0
  190.6750  177.1890  144.6410 N   0  0  0  0  0  0  0  0  0  0  0  0
  190.1220  175.6250  147.1130 N   0  0  0  0  0  0  0  0  0  0  0  0
  190.1620  177.0900  147.0530 C   0  0  0  0  0  2  0  0  0  0  0  0
  194.6460  175.7140  141.9530 C   0  0  2  0  0  3  0  0  0  0  0  0
  192.7750  174.6740  142.1790 C   0  0  0  0  0  2  0  0  0  0  0  0
  192.7140  175.9540  145.3510 C   0  0  2  0  0  3  0  0  0  0  0  0
  193.3310  175.9910  142.6970 C   0  0  1  0  0  3  0  0  0  0  0  0
  193.3970  177.2180  144.8480 C   0  0  0  0  0  2  0  0  0  0  0  0
  193.6810  175.8970  144.1700 C   0  0  1  0  0  0  0  0  0  0  0  0
  195.0990  175.5340  144.3060 C   0  0  0  0  0  0  0  0  0  0  0  0
  194.0710  174.4090  141.4310 C   0  0  1  0  0  3  0  0  0  0  0  0
  195.7580  175.4290  142.9820 C   0  0  0  0  0  2  0  0  0  0  0  0
  193.8370  174.5210  140.0020 N   0  0  0  0  0  1  0  0  0  0  0  0
  195.6650  175.3210  145.3660 O   0  0  0  0  0  0  0  0  0  0  0  0
  189.9280  177.1470  143.3890 C   0  0  0  0  0  2  0  0  0  0  0  0
  188.7490  177.8940  143.5030 O   0  0  0  0  0  0  0  0  0  0  0  0
  185.6130  178.4920  144.2070 C   0  0  0  0  0  0  0  0  0  0  0  0
  186.9380  176.3520  143.8360 C   0  0  0  0  0  2  0  0  0  0  0  0
  186.8520  178.0900  142.0450 C   0  0  0  0  0  2  0  0  0  0  0  0
  184.2310  178.7340  146.1860 C   0  0  0  0  0  3  0  0  0  0  0  0
  184.7300  179.2480  144.9870 C   0  0  0  0  0  3  0  0  0  0  0  0
  184.6180  177.4640  146.6180 C   0  0  0  0  0  3  0  0  0  0  0  0
  186.1890  179.1150  142.9670 C   0  0  0  0  0  2  0  0  0  0  0  0
  187.7680  177.1560  142.8340 C   0  0  1  0  0  3  0  0  0  0  0  0
  185.5090  176.7070  145.8530 C   0  0  0  0  0  3  0  0  0  0  0  0
  186.0230  177.2170  144.6560 C   0  0  0  0  0  0  0  0  0  0  0  0
  2  6  1  0  0  0  0
  3  7  1  0  0  0  0
  4 10  1  0  0  0  0
  4  2  1  1  0  0  0
  5  4  1  0  0  0  0
  5  3  1  0  0  0  0
  6  1  1  0  0  0  0
  7  6  1  0  0  0  0
  8 11  1  0  0  0  0
  8 16  1  1  0  0  0
 10 12  1  6  0  0  0
 11  9  1  6  0  0  0
 11 13  1  0  0  0  0
 13 14  1  0  0  0  0
 13 12  1  1  0  0  0
 13 10  1  0  0  0  0
 14 18  2  0  0  0  0
 15 17  1  6  0  0  0
 15  8  1  0  0  0  0
 15  9  1  0  0  0  0
 16 14  1  0  0  0  0
 19 20  1  0  0  0  0
 19  5  1  0  0  0  0
 21 30  2  0  0  0  0
 21 25  1  0  0  0  0
 22 30  1  0  0  0  0
 23 28  1  0  0  0  0
 23 27  1  0  0  0  0
 24 26  1  0  0  0  0
 25 24  2  0  0  0  0
 27 21  1  0  0  0  0
 28 20  1  1  0  0  0
 28 22  1  0  0  0  0
 29 26  2  0  0  0  0
 30 29  1  0  0  0  0
M  END
>  <MODEL>
5

>  <REMARK>
 VINA RESULT:      -7.9      2.508      8.220
  Name = 
  4 active torsions:
  status: ('A' for Active; 'I' for Inactive)
    1  A    between atoms: C_7  and  C_17
    2  A    between atoms: C_9  and  O_16
    3  A    between atoms: C_9  and  N_19
    4  A    between atoms: O_16  and  C_27
                            x       y       z     vdW  Elec       q    Type
                         _______ _______ _______ _____ _____    ______ ____

>  <TORSDO>
F 4

$$$$
=
 OpenBabel11062419513D

 30 35  0  0  1  0  0  0  0  0999 V2000
  183.7540  179.0140  144.9460 N   0  0  0  0  0  1  0  0  0  0  0  0
  185.9340  179.4150  145.6140 C   0  0  0  0  0  2  0  0  0  0  0  0
  185.7960  177.4190  147.4610 C   0  0  0  0  0  2  0  0  0  0  0  0
  186.8420  178.1950  145.3690 C   0  0  1  0  0  3  0  0  0  0  0  0
  186.9170  177.2760  146.5260 N   0  0  0  0  0  0  0  0  0  0  0  0
  184.5790  179.0640  146.0760 N   0  0  0  0  0  0  0  0  0  0  0  0
  184.5030  177.7480  146.7210 C   0  0  0  0  0  2  0  0  0  0  0  0
  189.9040  176.2130  142.7850 C   0  0  2  0  0  3  0  0  0  0  0  0
  189.7900  178.0640  143.8780 C   0  0  0  0  0  2  0  0  0  0  0  0
  186.4290  177.4580  144.0940 C   0  0  2  0  0  3  0  0  0  0  0  0
  189.0540  176.7360  143.9530 C   0  0  1  0  0  3  0  0  0  0  0  0
  186.7100  175.9650  144.1770 C   0  0  0  0  0  2  0  0  0  0  0  0
  187.6480  176.8570  143.3950 C   0  0  1  0  0  0  0  0  0  0  0  0
  187.6590  176.4840  141.9730 C   0  0  0  0  0  0  0  0  0  0  0  0
  190.6420  177.5410  142.7340 C   0  0  1  0  0  3  0  0  0  0  0  0
  189.0110  176.0560  141.5390 C   0  0  0  0  0  2  0  0  0  0  0  0
  192.0070  177.3540  143.1930 N   0  0  0  0  0  1  0  0  0  0  0  0
  186.6920  176.5390  141.2310 O   0  0  0  0  0  0  0  0  0  0  0  0
  188.1290  177.5860  147.2770 C   0  0  0  0  0  2  0  0  0  0  0  0
  189.2270  176.9180  146.7230 O   0  0  0  0  0  0  0  0  0  0  0  0
  191.4110  174.6590  145.8180 C   0  0  0  0  0  0  0  0  0  0  0  0
  189.1980  174.5410  147.0690 C   0  0  0  0  0  2  0  0  0  0  0  0
  191.0530  175.9600  147.9510 C   0  0  0  0  0  2  0  0  0  0  0  0
  191.8080  173.2040  143.9180 C   0  0  0  0  0  3  0  0  0  0  0  0
  192.2430  174.2080  144.7870 C   0  0  0  0  0  3  0  0  0  0  0  0
  190.5340  172.6520  144.0680 C   0  0  0  0  0  3  0  0  0  0  0  0
  191.8860  175.7960  146.6780 C   0  0  0  0  0  2  0  0  0  0  0  0
  189.5590  175.9130  147.6380 C   0  0  1  0  0  3  0  0  0  0  0  0
  189.6910  173.1050  145.0860 C   0  0  0  0  0  3  0  0  0  0  0  0
  190.1130  174.1170  145.9550 C   0  0  0  0  0  0  0  0  0  0  0  0
  1  6  1  0  0  0  0
  2  6  1  0  0  0  0
  4  2  1  1  0  0  0
  4  5  1  0  0  0  0
  5 19  1  0  0  0  0
  5  3  1  0  0  0  0
  6  7  1  0  0  0  0
  7  3  1  0  0  0  0
  8 16  1  6  0  0  0
  8 11  1  0  0  0  0
 10 12  1  1  0  0  0
 10  4  1  0  0  0  0
 11  9  1  6  0  0  0
 13 11  1  0  0  0  0
 13 10  1  0  0  0  0
 13 12  1  1  0  0  0
 14 13  1  0  0  0  0
 15  8  1  0  0  0  0
 15 17  1  1  0  0  0
 15  9  1  0  0  0  0
 16 14  1  0  0  0  0
 18 14  2  0  0  0  0
 20 19  1  0  0  0  0
 21 30  1  0  0  0  0
 21 27  1  0  0  0  0
 22 28  1  0  0  0  0
 24 26  2  0  0  0  0
 24 25  1  0  0  0  0
 25 21  2  0  0  0  0
 26 29  1  0  0  0  0
 27 23  1  0  0  0  0
 28 20  1  6  0  0  0
 28 23  1  0  0  0  0
 29 30  2  0  0  0  0
 30 22  1  0  0  0  0
M  END
>  <MODEL>
6

>  <REMARK>
 VINA RESULT:      -7.8      2.263      4.688
  Name = 
  4 active torsions:
  status: ('A' for Active; 'I' for Inactive)
    1  A    between atoms: C_7  and  C_17
    2  A    between atoms: C_9  and  O_16
    3  A    between atoms: C_9  and  N_19
    4  A    between atoms: O_16  and  C_27
                            x       y       z     vdW  Elec       q    Type
                         _______ _______ _______ _____ _____    ______ ____

>  <TORSDO>
F 4

$$$$
=
 OpenBabel11062419513D

 30 35  0  0  1  0  0  0  0  0999 V2000
  187.6840  177.3730  141.0970 N   0  0  0  0  0  1  0  0  0  0  0  0
  189.4820  177.9460  142.4390 C   0  0  0  0  0  2  0  0  0  0  0  0
  188.0120  177.5220  144.6910 C   0  0  0  0  0  2  0  0  0  0  0  0
  189.9270  176.7750  143.3330 C   0  0  1  0  0  3  0  0  0  0  0  0
  189.2630  176.7570  144.6550 N   0  0  0  0  0  0  0  0  0  0  0  0
  188.0200  178.0490  142.2770 N   0  0  0  0  0  0  0  0  0  0  0  0
  187.2650  177.4160  143.3650 C   0  0  0  0  0  2  0  0  0  0  0  0
  193.4900  174.3140  142.2210 C   0  0  2  0  0  3  0  0  0  0  0  0
  193.0150  176.4130  142.2070 C   0  0  0  0  0  2  0  0  0  0  0  0
  189.7580  175.4400  142.6040 C   0  0  2  0  0  3  0  0  0  0  0  0
  192.4530  175.2000  142.9310 C   0  0  1  0  0  3  0  0  0  0  0  0
  190.2200  174.2620  143.4490 C   0  0  0  0  0  2  0  0  0  0  0  0
  191.1150  174.7850  142.3490 C   0  0  1  0  0  0  0  0  0  0  0  0
  191.3330  173.7580  141.3200 C   0  0  0  0  0  0  0  0  0  0  0  0
  194.0490  175.5400  141.5190 C   0  0  1  0  0  3  0  0  0  0  0  0
  192.7690  173.4060  141.2070 C   0  0  0  0  0  2  0  0  0  0  0  0
  195.3670  175.8420  142.0490 N   0  0  0  0  0  1  0  0  0  0  0  0
  190.4560  173.2710  140.6250 O   0  0  0  0  0  0  0  0  0  0  0  0
  190.1590  177.3780  145.6240 C   0  0  0  0  0  2  0  0  0  0  0  0
  191.4280  176.7920  145.5560 O   0  0  0  0  0  0  0  0  0  0  0  0
  194.3210  175.3750  146.1140 C   0  0  0  0  0  0  0  0  0  0  0  0
  191.9440  174.8260  146.8370 C   0  0  0  0  0  2  0  0  0  0  0  0
  192.9370  177.0450  147.4050 C   0  0  0  0  0  2  0  0  0  0  0  0
  195.7060  173.6600  145.1020 C   0  0  0  0  0  3  0  0  0  0  0  0
  195.5360  174.9730  145.5480 C   0  0  0  0  0  3  0  0  0  0  0  0
  194.6590  172.7420  145.2100 C   0  0  0  0  0  3  0  0  0  0  0  0
  194.1540  176.8160  146.5050 C   0  0  0  0  0  2  0  0  0  0  0  0
  191.7040  176.3370  146.8490 C   0  0  1  0  0  3  0  0  0  0  0  0
  193.4380  173.1380  145.7620 C   0  0  0  0  0  3  0  0  0  0  0  0
  193.2540  174.4530  146.2020 C   0  0  0  0  0  0  0  0  0  0  0  0
  1  6  1  0  0  0  0
  4  2  1  6  0  0  0
  4  5  1  0  0  0  0
  5  3  1  0  0  0  0
  5 19  1  0  0  0  0
  6  2  1  0  0  0  0
  6  7  1  0  0  0  0
  7  3  1  0  0  0  0
  8 16  1  6  0  0  0
  8 11  1  0  0  0  0
 10  4  1  0  0  0  0
 10 12  1  1  0  0  0
 11  9  1  6  0  0  0
 13 10  1  0  0  0  0
 13 11  1  0  0  0  0
 13 12  1  1  0  0  0
 14 13  1  0  0  0  0
 15 17  1  1  0  0  0
 15  9  1  0  0  0  0
 15  8  1  0  0  0  0
 16 14  1  0  0  0  0
 18 14  2  0  0  0  0
 20 19  1  0  0  0  0
 21 30  1  0  0  0  0
 21 27  1  0  0  0  0
 22 28  1  0  0  0  0
 24 26  2  0  0  0  0
 24 25  1  0  0  0  0
 25 21  2  0  0  0  0
 26 29  1  0  0  0  0
 27 23  1  0  0  0  0
 28 20  1  6  0  0  0
 28 23  1  0  0  0  0
 29 30  2  0  0  0  0
 30 22  1  0  0  0  0
M  END
>  <MODEL>
7

>  <REMARK>
 VINA RESULT:      -7.8      2.343      5.213
  Name = 
  4 active torsions:
  status: ('A' for Active; 'I' for Inactive)
    1  A    between atoms: C_7  and  C_17
    2  A    between atoms: C_9  and  O_16
    3  A    between atoms: C_9  and  N_19
    4  A    between atoms: O_16  and  C_27
                            x       y       z     vdW  Elec       q    Type
                         _______ _______ _______ _____ _____    ______ ____

>  <TORSDO>
F 4

$$$$
=
 OpenBabel11062419513D

 30 35  0  0  1  0  0  0  0  0999 V2000
  190.4320  176.1710  147.5960 N   0  0  0  0  0  1  0  0  0  0  0  0
  189.2200  175.2530  145.8510 C   0  0  0  0  0  2  0  0  0  0  0  0
  189.5230  177.5190  144.3720 C   0  0  0  0  0  2  0  0  0  0  0  0
  190.0660  175.1240  144.5700 C   0  0  1  0  0  3  0  0  0  0  0  0
  189.9780  176.3060  143.6850 N   0  0  0  0  0  0  0  0  0  0  0  0
  189.4830  176.4860  146.6150 N   0  0  0  0  0  0  0  0  0  0  0  0
  190.0480  177.5690  145.8030 C   0  0  0  0  0  2  0  0  0  0  0  0
  192.2250  171.8690  142.3970 C   0  0  2  0  0  3  0  0  0  0  0  0
  190.2360  172.1300  143.1780 C   0  0  0  0  0  2  0  0  0  0  0  0
  191.5190  174.7870  144.9110 C   0  0  2  0  0  3  0  0  0  0  0  0
  191.3630  173.0770  142.7950 C   0  0  1  0  0  3  0  0  0  0  0  0
  192.4620  175.0780  143.7540 C   0  0  0  0  0  2  0  0  0  0  0  0
  192.0350  173.6540  144.0260 C   0  0  1  0  0  0  0  0  0  0  0  0
  193.1940  172.8200  144.3790 C   0  0  0  0  0  0  0  0  0  0  0  0
  191.0830  170.9370  142.7680 C   0  0  1  0  0  3  0  0  0  0  0  0
  193.3810  171.7180  143.4050 C   0  0  0  0  0  2  0  0  0  0  0  0
  190.5320  170.3430  141.5640 N   0  0  0  0  0  1  0  0  0  0  0  0
  193.9010  172.9890  145.3590 O   0  0  0  0  0  0  0  0  0  0  0  0
  188.9960  176.0230  142.6440 C   0  0  0  0  0  2  0  0  0  0  0  0
  188.2880  177.1850  142.3170 O   0  0  0  0  0  0  0  0  0  0  0  0
  185.7940  178.4870  143.9850 C   0  0  0  0  0  0  0  0  0  0  0  0
  186.3390  176.1190  143.2300 C   0  0  0  0  0  2  0  0  0  0  0  0
  186.1470  177.9500  141.5440 C   0  0  0  0  0  2  0  0  0  0  0  0
  185.2130  178.9180  146.3000 C   0  0  0  0  0  3  0  0  0  0  0  0
  185.4260  179.3790  144.9990 C   0  0  0  0  0  3  0  0  0  0  0  0
  185.3750  177.5640  146.5980 C   0  0  0  0  0  3  0  0  0  0  0  0
  186.0940  179.0380  142.6190 C   0  0  0  0  0  2  0  0  0  0  0  0
  186.9910  176.7640  142.0070 C   0  0  1  0  0  3  0  0  0  0  0  0
  185.7550  176.6680  145.5960 C   0  0  0  0  0  3  0  0  0  0  0  0
  185.9820  177.1210  144.2920 C   0  0  0  0  0  0  0  0  0  0  0  0
  2  6  1  0  0  0  0
  3  7  1  0  0  0  0
  4 10  1  0  0  0  0
  4  2  1  1  0  0  0
  5  3  1  0  0  0  0
  5  4  1  0  0  0  0
  6  1  1  0  0  0  0
  7  6  1  0  0  0  0
  8 15  1  0  0  0  0
  8 11  1  0  0  0  0
  8 16  1  1  0  0  0
 10 12  1  6  0  0  0
 11  9  1  1  0  0  0
 11 13  1  0  0  0  0
 13 12  1  6  0  0  0
 13 14  1  0  0  0  0
 13 10  1  0  0  0  0
 14 18  2  0  0  0  0
 15 17  1  6  0  0  0
 15  9  1  0  0  0  0
 16 14  1  0  0  0  0
 19  5  1  0  0  0  0
 20 19  1  0  0  0  0
 21 30  2  0  0  0  0
 21 25  1  0  0  0  0
 22 30  1  0  0  0  0
 23 28  1  0  0  0  0
 23 27  1  0  0  0  0
 24 26  1  0  0  0  0
 25 24  2  0  0  0  0
 27 21  1  0  0  0  0
 28 20  1  1  0  0  0
 28 22  1  0  0  0  0
 29 26  2  0  0  0  0
 30 29  1  0  0  0  0
M  END
>  <MODEL>
8

>  <REMARK>
 VINA RESULT:      -7.7      2.355      7.907
  Name = 
  4 active torsions:
  status: ('A' for Active; 'I' for Inactive)
    1  A    between atoms: C_7  and  C_17
    2  A    between atoms: C_9  and  O_16
    3  A    between atoms: C_9  and  N_19
    4  A    between atoms: O_16  and  C_27
                            x       y       z     vdW  Elec       q    Type
                         _______ _______ _______ _____ _____    ______ ____

>  <TORSDO>
F 4

$$$$
=
 OpenBabel11062419513D

 30 35  0  0  1  0  0  0  0  0999 V2000
  191.0120  171.4040  139.1400 N   0  0  0  0  0  1  0  0  0  0  0  0
  190.9880  173.5630  139.9780 C   0  0  0  0  0  2  0  0  0  0  0  0
  188.2660  173.6010  139.9630 C   0  0  0  0  0  2  0  0  0  0  0  0
  190.2990  173.6360  141.3530 C   0  0  1  0  0  3  0  0  0  0  0  0
  188.8490  173.9160  141.2710 N   0  0  0  0  0  0  0  0  0  0  0  0
  190.3400  172.6290  139.0380 N   0  0  0  0  0  0  0  0  0  0  0  0
  188.9290  172.3720  139.3470 C   0  0  0  0  0  2  0  0  0  0  0  0
  193.0600  173.7610  144.8670 C   0  0  2  0  0  3  0  0  0  0  0  0
  193.0480  174.6310  142.8980 C   0  0  0  0  0  2  0  0  0  0  0  0
  190.5820  172.3740  142.1700 C   0  0  2  0  0  3  0  0  0  0  0  0
  191.9820  174.0420  143.8080 C   0  0  1  0  0  3  0  0  0  0  0  0
  190.0660  172.4870  143.5970 C   0  0  0  0  0  2  0  0  0  0  0  0
  191.5400  172.6750  143.3210 C   0  0  1  0  0  0  0  0  0  0  0  0
  192.3350  171.6410  144.0000 C   0  0  0  0  0  0  0  0  0  0  0  0
  194.1100  174.3680  143.9520 C   0  0  1  0  0  3  0  0  0  0  0  0
  193.2730  172.2390  144.9800 C   0  0  0  0  0  2  0  0  0  0  0  0
  194.5650  175.6300  144.5070 N   0  0  0  0  0  1  0  0  0  0  0  0
  192.2580  170.4440  143.7740 O   0  0  0  0  0  0  0  0  0  0  0  0
  188.6470  175.3440  141.4840 C   0  0  0  0  0  2  0  0  0  0  0  0
  189.4960  175.8090  142.4950 O   0  0  0  0  0  0  0  0  0  0  0  0
  190.5230  176.7110  145.4660 C   0  0  0  0  0  0  0  0  0  0  0  0
  188.2230  176.2290  144.4880 C   0  0  0  0  0  2  0  0  0  0  0  0
  189.6640  177.9960  143.4700 C   0  0  0  0  0  2  0  0  0  0  0  0
  191.2120  175.6390  147.5300 C   0  0  0  0  0  3  0  0  0  0  0  0
  191.4790  176.5040  146.4660 C   0  0  0  0  0  3  0  0  0  0  0  0
  189.9890  174.9660  147.5940 C   0  0  0  0  0  3  0  0  0  0  0  0
  190.8840  177.5850  144.2980 C   0  0  0  0  0  2  0  0  0  0  0  0
  188.7720  176.7920  143.1760 C   0  0  1  0  0  3  0  0  0  0  0  0
  189.0340  175.1560  146.5930 C   0  0  0  0  0  3  0  0  0  0  0  0
  189.2970  176.0120  145.5180 C   0  0  0  0  0  0  0  0  0  0  0  0
  3  5  1  0  0  0  0
  4  2  1  6  0  0  0
  4 10  1  0  0  0  0
  5  4  1  0  0  0  0
  5 19  1  0  0  0  0
  6  1  1  0  0  0  0
  6  7  1  0  0  0  0
  6  2  1  0  0  0  0
  7  3  1  0  0  0  0
  8 16  1  6  0  0  0
  9 15  1  0  0  0  0
 10 13  1  0  0  0  0
 10 12  1  1  0  0  0
 11  9  1  6  0  0  0
 11  8  1  0  0  0  0
 13 12  1  1  0  0  0
 13 11  1  0  0  0  0
 13 14  1  0  0  0  0
 14 16  1  0  0  0  0
 15 17  1  1  0  0  0
 15  8  1  0  0  0  0
 18 14  2  0  0  0  0
 19 20  1  0  0  0  0
 21 30  2  0  0  0  0
 21 25  1  0  0  0  0
 22 30  1  0  0  0  0
 23 27  1  0  0  0  0
 24 26  1  0  0  0  0
 25 24  2  0  0  0  0
 27 21  1  0  0  0  0
 28 20  1  1  0  0  0
 28 23  1  0  0  0  0
 28 22  1  0  0  0  0
 29 26  2  0  0  0  0
 30 29  1  0  0  0  0
M  END
>  <MODEL>
9

>  <REMARK>
 VINA RESULT:      -7.6      2.997      6.408
  Name = 
  4 active torsions:
  status: ('A' for Active; 'I' for Inactive)
    1  A    between atoms: C_7  and  C_17
    2  A    between atoms: C_9  and  O_16
    3  A    between atoms: C_9  and  N_19
    4  A    between atoms: O_16  and  C_27
                            x       y       z     vdW  Elec       q    Type
                         _______ _______ _______ _____ _____    ______ ____

>  <TORSDO>
F 4

$$$$
