=
 OpenBabel11062421013D

 38 42  0  0  1  0  0  0  0  0999 V2000
  192.8100  176.2460  145.9070 C   0  0  0  0  0  2  0  0  0  0  0  0
  191.6820  176.6140  142.3470 N   0  0  0  0  0  2  0  0  0  0  0  0
  192.9380  176.0100  142.7850 C   0  0  0  0  0  2  0  0  0  0  0  0
  190.6540  176.1670  144.5570 C   0  0  2  0  0  3  0  0  0  0  0  0
  191.9080  175.3970  145.0040 C   0  0  1  0  0  3  0  0  0  0  0  0
  195.0170  175.0180  146.1860 C   0  0  0  0  0  2  0  0  0  0  0  0
  193.9050  174.0300  144.0490 C   0  0  1  0  0  3  0  0  0  0  0  0
  193.6440  175.3280  146.7810 C   0  0  0  0  0  2  0  0  0  0  0  0
  191.0080  177.2350  143.4900 C   0  0  2  0  0  3  0  0  0  0  0  0
  192.6520  174.8720  143.7640 C   0  0  2  0  0  3  0  0  0  0  0  0
  195.0560  174.8440  144.6610 C   0  0  0  0  0  2  0  0  0  0  0  0
  193.5860  172.7410  144.8170 C   0  0  1  0  0  3  0  0  0  0  0  0
  192.9590  171.9160  142.2870 O   0  0  0  0  0  0  0  0  0  0  0  0
  196.7530  170.8980  144.4990 C   0  0  0  0  0  0  0  0  0  0  0  0
  196.1670  170.2330  145.6080 N   0  0  0  0  0  0  0  0  0  0  0  0
  194.8050  170.7010  145.7890 C   0  0  0  0  0  3  0  0  0  0  0  0
  193.1170  171.3870  143.6850 S   0  0  0  0  0  0  0  0  0  0  0  0
  195.8590  171.8640  143.8220 C   0  0  0  0  0  2  0  0  0  0  0  0
  194.5980  171.6960  144.6580 C   0  0  1  0  0  0  0  0  0  0  0  0
  191.9180  170.6920  144.2640 O   0  0  0  0  0  0  0  0  0  0  0  0
  197.9360  170.6780  144.1320 O   0  0  0  0  0  0  0  0  0  0  0  0
  188.0900  175.9840  147.2070 C   0  0  0  0  0  2  0  0  0  0  0  0
  189.4160  175.5330  146.6680 C   0  0  0  0  0  2  0  0  0  0  0  0
  188.6620  177.4280  145.3670 N   0  0  0  0  0  2  0  0  0  0  0  0
  189.8460  176.6690  145.7670 C   0  0  2  0  0  3  0  0  0  0  0  0
  187.5410  176.8870  146.1260 C   0  0  2  0  0  3  0  0  0  0  0  0
  186.5850  178.2430  146.8640 S   0  0  0  0  0  0  0  0  0  0  0  0
  184.2930  177.0100  146.4170 O   0  0  0  0  0  0  0  0  0  0  0  0
  185.1100  177.8340  145.9290 C   0  0  0  0  0  0  0  0  0  0  0  0
  185.5970  176.4980  143.3830 O   0  0  0  0  0  1  0  0  0  0  0  0
  185.1220  177.7670  143.3810 N   0  0  0  0  0  0  0  0  0  0  0  0
  184.8650  178.4610  144.6140 C   0  0  0  0  0  0  0  0  0  0  0  0
  184.4170  179.6400  144.5800 O   0  0  0  0  0  0  0  0  0  0  0  0
  184.8610  178.4270  142.1050 C   0  0  0  0  0  3  0  0  0  0  0  0
  183.4330  178.1710  141.6630 C   0  0  0  0  0  1  0  0  0  0  0  0
  185.8270  177.9310  141.0470 C   0  0  0  0  0  1  0  0  0  0  0  0
  189.7830  177.9960  142.9900 C   0  0  0  0  0  2  0  0  0  0  0  0
  189.0860  177.2430  142.0430 O   0  0  0  0  0  1  0  0  0  0  0  0
  1  8  1  0  0  0  0
  2  3  1  0  0  0  0
  2  9  1  0  0  0  0
  4  5  1  0  0  0  0
  4 25  1  1  0  0  0
  5  1  1  6  0  0  0
  6  8  1  0  0  0  0
  7 11  1  1  0  0  0
  7 12  1  0  0  0  0
  9 37  1  6  0  0  0
  9  4  1  0  0  0  0
 10  3  1  6  0  0  0
 10  7  1  0  0  0  0
 10  5  1  0  0  0  0
 11  6  1  0  0  0  0
 12 17  1  6  0  0  0
 13 17  2  0  0  0  0
 14 15  1  0  0  0  0
 15 16  2  0  0  0  0
 17 20  2  0  0  0  0
 17 19  1  0  0  0  0
 18 14  1  0  0  0  0
 19 18  1  6  0  0  0
 19 12  1  0  0  0  0
 19 16  1  0  0  0  0
 21 14  2  0  0  0  0
 23 22  1  0  0  0  0
 24 25  1  0  0  0  0
 24 26  1  0  0  0  0
 25 23  1  6  0  0  0
 26 27  1  1  0  0  0
 26 22  1  0  0  0  0
 29 28  2  0  0  0  0
 29 27  1  0  0  0  0
 31 30  1  0  0  0  0
 31 32  1  0  0  0  0
 32 29  1  0  0  0  0
 33 32  2  0  0  0  0
 34 31  1  0  0  0  0
 35 34  1  0  0  0  0
 36 34  1  0  0  0  0
 38 37  1  0  0  0  0
M  END
>  <MODEL>
1

>  <REMARK>
 VINA RESULT:      -7.2      0.000      0.000
  Name = 
  7 active torsions:
  status: ('A' for Active; 'I' for Inactive)
    1  A    between atoms: C_1  and  C_27
    2  A    between atoms: C_6  and  CA_32
    3  A    between atoms: S_8  and  C_18
    4  A    between atoms: S_8  and  C_35
    5  A    between atoms: N_11  and  C_13
    6  A    between atoms: C_12  and  C_18
    7  A    between atoms: C_21  and  C_23
                            x       y       z     vdW  Elec       q    Type
                         _______ _______ _______ _____ _____    ______ ____

>  <TORSDO>
F 7

$$$$
=
 OpenBabel11062421013D

 38 42  0  0  1  0  0  0  0  0999 V2000
  191.6550  175.7720  145.2040 C   0  0  0  0  0  2  0  0  0  0  0  0
  190.4350  172.3770  144.1720 N   0  0  0  0  0  2  0  0  0  0  0  0
  189.6840  173.3490  144.9630 C   0  0  0  0  0  2  0  0  0  0  0  0
  191.8430  174.1820  143.2260 C   0  0  2  0  0  3  0  0  0  0  0  0
  190.9850  175.2460  143.9310 C   0  0  1  0  0  3  0  0  0  0  0  0
  189.9460  177.1600  146.4720 C   0  0  0  0  0  2  0  0  0  0  0  0
  188.5860  175.6370  144.8570 C   0  0  1  0  0  3  0  0  0  0  0  0
  191.1290  177.1630  145.5050 C   0  0  0  0  0  2  0  0  0  0  0  0
  191.8140  172.8400  144.0010 C   0  0  2  0  0  3  0  0  0  0  0  0
  189.5840  174.6700  144.2020 C   0  0  2  0  0  3  0  0  0  0  0  0
  188.9540  176.0010  146.3050 C   0  0  0  0  0  2  0  0  0  0  0  0
  188.2790  176.8530  143.9750 C   0  0  1  0  0  3  0  0  0  0  0  0
  186.8660  174.9520  142.6120 O   0  0  0  0  0  0  0  0  0  0  0  0
  185.0970  178.0140  145.4090 C   0  0  0  0  0  0  0  0  0  0  0  0
  185.5230  179.1810  144.7240 N   0  0  0  0  0  0  0  0  0  0  0  0
  186.6970  178.8740  143.9270 C   0  0  0  0  0  3  0  0  0  0  0  0
  187.0980  176.4360  142.6460 S   0  0  0  0  0  0  0  0  0  0  0  0
  185.9220  176.8130  145.1440 C   0  0  0  0  0  2  0  0  0  0  0  0
  186.9310  177.3910  144.1620 C   0  0  1  0  0  0  0  0  0  0  0  0
  187.5970  177.0530  141.3710 O   0  0  0  0  0  0  0  0  0  0  0  0
  184.1000  178.0100  146.1770 O   0  0  0  0  0  0  0  0  0  0  0  0
  195.1230  174.2270  141.5300 C   0  0  0  0  0  2  0  0  0  0  0  0
  193.6360  174.4140  141.4580 C   0  0  0  0  0  2  0  0  0  0  0  0
  194.2730  174.2160  143.7830 N   0  0  0  0  0  2  0  0  0  0  0  0
  193.2410  174.7290  142.8840 C   0  0  2  0  0  3  0  0  0  0  0  0
  195.3640  173.7400  142.9410 C   0  0  2  0  0  3  0  0  0  0  0  0
  196.9460  174.3780  143.5640 S   0  0  0  0  0  0  0  0  0  0  0  0
  196.6390  174.1180  146.1740 O   0  0  0  0  0  0  0  0  0  0  0  0
  196.8090  173.4730  145.1060 C   0  0  0  0  0  0  0  0  0  0  0  0
  194.6600  171.7410  146.0490 O   0  0  0  0  0  1  0  0  0  0  0  0
  195.8060  171.1810  145.5910 N   0  0  0  0  0  0  0  0  0  0  0  0
  196.8890  171.9980  145.1140 C   0  0  0  0  0  0  0  0  0  0  0  0
  197.9410  171.4470  144.6880 O   0  0  0  0  0  0  0  0  0  0  0  0
  195.9310  169.7260  145.5770 C   0  0  0  0  0  3  0  0  0  0  0  0
  194.6000  169.0880  145.2250 C   0  0  0  0  0  1  0  0  0  0  0  0
  196.4040  169.2240  146.9260 C   0  0  0  0  0  1  0  0  0  0  0  0
  192.6240  171.7440  143.3130 C   0  0  0  0  0  2  0  0  0  0  0  0
  191.9900  171.3230  142.1420 O   0  0  0  0  0  1  0  0  0  0  0  0
  1  8  1  0  0  0  0
  2  3  1  0  0  0  0
  4 25  1  1  0  0  0
  4  5  1  0  0  0  0
  4  9  1  0  0  0  0
  5 10  1  0  0  0  0
  5  1  1  1  0  0  0
  7 11  1  1  0  0  0
  8  6  1  0  0  0  0
  9 37  1  6  0  0  0
  9  2  1  0  0  0  0
 10  7  1  0  0  0  0
 10  3  1  1  0  0  0
 11  6  1  0  0  0  0
 12 17  1  6  0  0  0
 12 19  1  0  0  0  0
 12  7  1  0  0  0  0
 13 17  2  0  0  0  0
 14 21  2  0  0  0  0
 15 14  1  0  0  0  0
 16 15  2  0  0  0  0
 17 19  1  0  0  0  0
 18 14  1  0  0  0  0
 19 16  1  6  0  0  0
 19 18  1  0  0  0  0
 20 17  2  0  0  0  0
 22 26  1  0  0  0  0
 23 22  1  0  0  0  0
 25 23  1  6  0  0  0
 25 24  1  0  0  0  0
 26 27  1  1  0  0  0
 26 24  1  0  0  0  0
 27 29  1  0  0  0  0
 29 32  1  0  0  0  0
 29 28  2  0  0  0  0
 31 30  1  0  0  0  0
 32 31  1  0  0  0  0
 33 32  2  0  0  0  0
 34 31  1  0  0  0  0
 34 36  1  0  0  0  0
 35 34  1  0  0  0  0
 38 37  1  0  0  0  0
M  END
>  <MODEL>
2

>  <REMARK>
 VINA RESULT:      -7.0      2.336      9.722
  Name = 
  7 active torsions:
  status: ('A' for Active; 'I' for Inactive)
    1  A    between atoms: C_1  and  C_27
    2  A    between atoms: C_6  and  CA_32
    3  A    between atoms: S_8  and  C_18
    4  A    between atoms: S_8  and  C_35
    5  A    between atoms: N_11  and  C_13
    6  A    between atoms: C_12  and  C_18
    7  A    between atoms: C_21  and  C_23
                            x       y       z     vdW  Elec       q    Type
                         _______ _______ _______ _____ _____    ______ ____

>  <TORSDO>
F 7

$$$$
=
 OpenBabel11062421013D

 38 42  0  0  1  0  0  0  0  0999 V2000
  191.5130  172.6200  142.5590 C   0  0  0  0  0  2  0  0  0  0  0  0
  189.8520  173.8130  139.4140 N   0  0  0  0  0  2  0  0  0  0  0  0
  189.2570  173.8210  140.7480 C   0  0  0  0  0  2  0  0  0  0  0  0
  192.1290  173.8000  140.3910 C   0  0  2  0  0  3  0  0  0  0  0  0
  191.5420  173.9520  141.8040 C   0  0  1  0  0  3  0  0  0  0  0  0
  190.1270  172.9430  144.6650 C   0  0  0  0  0  2  0  0  0  0  0  0
  189.4530  174.8720  143.0520 C   0  0  1  0  0  3  0  0  0  0  0  0
  191.5270  172.8930  144.0520 C   0  0  0  0  0  2  0  0  0  0  0  0
  191.1260  173.0900  139.4460 C   0  0  2  0  0  3  0  0  0  0  0  0
  190.1510  174.6020  141.7100 C   0  0  2  0  0  3  0  0  0  0  0  0
  189.0420  173.5890  143.7920 C   0  0  0  0  0  2  0  0  0  0  0  0
  190.2260  175.8680  143.9270 C   0  0  1  0  0  3  0  0  0  0  0  0
  189.1360  177.6130  142.1280 O   0  0  0  0  0  0  0  0  0  0  0  0
  187.6320  176.9060  146.3180 C   0  0  0  0  0  0  0  0  0  0  0  0
  188.8070  177.2810  147.0200 N   0  0  0  0  0  0  0  0  0  0  0  0
  189.9610  177.1150  146.1550 C   0  0  0  0  0  3  0  0  0  0  0  0
  189.9150  177.5920  143.4130 S   0  0  0  0  0  0  0  0  0  0  0  0
  187.8650  176.4630  144.9260 C   0  0  0  0  0  2  0  0  0  0  0  0
  189.3750  176.6350  144.8370 C   0  0  1  0  0  0  0  0  0  0  0  0
  191.2310  178.3160  143.3970 O   0  0  0  0  0  0  0  0  0  0  0  0
  186.4900  176.9500  146.8470 O   0  0  0  0  0  0  0  0  0  0  0  0
  194.8380  171.6450  141.6740 C   0  0  0  0  0  2  0  0  0  0  0  0
  193.5390  171.7730  140.9340 C   0  0  0  0  0  2  0  0  0  0  0  0
  194.4550  173.9870  141.2690 N   0  0  0  0  0  2  0  0  0  0  0  0
  193.5460  173.2010  140.4350 C   0  0  2  0  0  3  0  0  0  0  0  0
  195.1250  173.0480  142.1600 C   0  0  2  0  0  3  0  0  0  0  0  0
  196.9130  173.3610  142.1530 S   0  0  0  0  0  0  0  0  0  0  0  0
  197.0300  175.9910  142.3590 O   0  0  0  0  0  0  0  0  0  0  0  0
  196.7320  174.9400  142.9840 C   0  0  0  0  0  0  0  0  0  0  0  0
  194.2590  176.2730  143.7650 O   0  0  0  0  0  1  0  0  0  0  0  0
  195.0110  175.6690  144.7170 N   0  0  0  0  0  0  0  0  0  0  0  0
  196.2360  174.9970  144.3740 C   0  0  0  0  0  0  0  0  0  0  0  0
  196.9120  174.4390  145.2820 O   0  0  0  0  0  0  0  0  0  0  0  0
  194.5600  175.6970  146.1050 C   0  0  0  0  0  3  0  0  0  0  0  0
  193.2370  174.9680  146.2420 C   0  0  0  0  0  1  0  0  0  0  0  0
  194.4140  177.1280  146.5840 C   0  0  0  0  0  1  0  0  0  0  0  0
  191.6550  172.9530  138.0200 C   0  0  0  0  0  2  0  0  0  0  0  0
  191.7050  174.1990  137.3910 O   0  0  0  0  0  1  0  0  0  0  0  0
  1  8  1  0  0  0  0
  2  9  1  0  0  0  0
  2  3  1  0  0  0  0
  4 25  1  1  0  0  0
  4  5  1  0  0  0  0
  5  1  1  6  0  0  0
  7 11  1  1  0  0  0
  8  6  1  0  0  0  0
  9 37  1  6  0  0  0
  9  4  1  0  0  0  0
 10  3  1  6  0  0  0
 10  5  1  0  0  0  0
 10  7  1  0  0  0  0
 11  6  1  0  0  0  0
 12  7  1  6  0  0  0
 12 19  1  0  0  0  0
 13 17  2  0  0  0  0
 14 21  2  0  0  0  0
 14 15  1  0  0  0  0
 16 15  2  0  0  0  0
 17 12  1  0  0  0  0
 17 19  1  0  0  0  0
 18 14  1  0  0  0  0
 19 18  1  1  0  0  0
 19 16  1  0  0  0  0
 20 17  2  0  0  0  0
 22 26  1  0  0  0  0
 23 22  1  0  0  0  0
 24 26  1  0  0  0  0
 25 23  1  1  0  0  0
 25 24  1  0  0  0  0
 26 27  1  6  0  0  0
 27 29  1  0  0  0  0
 28 29  2  0  0  0  0
 29 32  1  0  0  0  0
 30 31  1  0  0  0  0
 31 34  1  0  0  0  0
 32 31  1  0  0  0  0
 32 33  2  0  0  0  0
 34 35  1  0  0  0  0
 34 36  1  0  0  0  0
 38 37  1  0  0  0  0
M  END
>  <MODEL>
3

>  <REMARK>
 VINA RESULT:      -7.0      3.312      8.642
  Name = 
  7 active torsions:
  status: ('A' for Active; 'I' for Inactive)
    1  A    between atoms: C_1  and  C_27
    2  A    between atoms: C_6  and  CA_32
    3  A    between atoms: S_8  and  C_18
    4  A    between atoms: S_8  and  C_35
    5  A    between atoms: N_11  and  C_13
    6  A    between atoms: C_12  and  C_18
    7  A    between atoms: C_21  and  C_23
                            x       y       z     vdW  Elec       q    Type
                         _______ _______ _______ _____ _____    ______ ____

>  <TORSDO>
F 7

$$$$
=
 OpenBabel11062421013D

 38 42  0  0  1  0  0  0  0  0999 V2000
  191.4380  176.2810  143.2890 C   0  0  0  0  0  2  0  0  0  0  0  0
  189.7750  173.0410  144.1900 N   0  0  0  0  0  2  0  0  0  0  0  0
  189.5290  174.3310  144.8290 C   0  0  0  0  0  2  0  0  0  0  0  0
  190.5980  174.1700  142.1440 C   0  0  2  0  0  3  0  0  0  0  0  0
  190.2200  175.5420  142.7270 C   0  0  1  0  0  3  0  0  0  0  0  0
  190.5980  178.2910  144.5990 C   0  0  0  0  0  2  0  0  0  0  0  0
  188.5830  176.6530  144.4170 C   0  0  1  0  0  3  0  0  0  0  0  0
  191.1630  177.7740  143.2760 C   0  0  0  0  0  2  0  0  0  0  0  0
  190.9100  173.1530  143.2710 C   0  0  2  0  0  3  0  0  0  0  0  0
  189.1100  175.3580  143.7780 C   0  0  2  0  0  3  0  0  0  0  0  0
  189.6160  177.3520  145.3140 C   0  0  0  0  0  2  0  0  0  0  0  0
  187.9220  177.5860  143.3950 C   0  0  1  0  0  3  0  0  0  0  0  0
  186.6360  175.2580  142.7630 O   0  0  0  0  0  0  0  0  0  0  0  0
  184.8920  178.6230  145.2040 C   0  0  0  0  0  0  0  0  0  0  0  0
  184.9840  179.6490  144.2280 N   0  0  0  0  0  0  0  0  0  0  0  0
  186.0340  179.3220  143.2800 C   0  0  0  0  0  3  0  0  0  0  0  0
  186.6140  176.7290  142.4530 S   0  0  0  0  0  0  0  0  0  0  0  0
  185.8500  177.5100  145.0160 C   0  0  0  0  0  2  0  0  0  0  0  0
  186.5560  177.9740  143.7490 C   0  0  1  0  0  0  0  0  0  0  0  0
  186.7670  177.0980  141.0050 O   0  0  0  0  0  0  0  0  0  0  0  0
  184.0620  178.6660  146.1490 O   0  0  0  0  0  0  0  0  0  0  0  0
  192.7360  173.0230  139.3610 C   0  0  0  0  0  2  0  0  0  0  0  0
  191.3770  173.4160  139.8600 C   0  0  0  0  0  2  0  0  0  0  0  0
  193.0120  174.0040  141.5430 N   0  0  0  0  0  2  0  0  0  0  0  0
  191.6700  174.3050  141.0470 C   0  0  2  0  0  3  0  0  0  0  0  0
  193.6090  173.0700  140.5950 C   0  0  2  0  0  3  0  0  0  0  0  0
  195.2830  173.6210  140.1590 S   0  0  0  0  0  0  0  0  0  0  0  0
  196.1640  171.6450  141.6720 O   0  0  0  0  0  0  0  0  0  0  0  0
  196.0050  172.8930  141.6300 C   0  0  0  0  0  0  0  0  0  0  0  0
  194.6310  172.9200  144.2020 O   0  0  0  0  0  1  0  0  0  0  0  0
  195.6990  173.7340  144.0160 N   0  0  0  0  0  0  0  0  0  0  0  0
  196.4070  173.7490  142.7650 C   0  0  0  0  0  0  0  0  0  0  0  0
  197.4010  174.5140  142.6240 O   0  0  0  0  0  0  0  0  0  0  0  0
  196.1350  174.5960  145.1110 C   0  0  0  0  0  3  0  0  0  0  0  0
  196.9040  173.7910  146.1410 C   0  0  0  0  0  1  0  0  0  0  0  0
  194.9410  175.2660  145.7630 C   0  0  0  0  0  1  0  0  0  0  0  0
  191.2540  171.7650  142.7350 C   0  0  0  0  0  2  0  0  0  0  0  0
  190.1090  171.1230  142.2600 O   0  0  0  0  0  1  0  0  0  0  0  0
  2  3  1  0  0  0  0
  4 25  1  6  0  0  0
  4  5  1  0  0  0  0
  4  9  1  0  0  0  0
  5  1  1  1  0  0  0
  5 10  1  0  0  0  0
  6 11  1  0  0  0  0
  7 11  1  6  0  0  0
  8  1  1  0  0  0  0
  8  6  1  0  0  0  0
  9 37  1  6  0  0  0
  9  2  1  0  0  0  0
 10  7  1  0  0  0  0
 10  3  1  1  0  0  0
 12 17  1  6  0  0  0
 12 19  1  0  0  0  0
 12  7  1  0  0  0  0
 14 21  2  0  0  0  0
 15 14  1  0  0  0  0
 16 15  2  0  0  0  0
 17 13  2  0  0  0  0
 17 19  1  0  0  0  0
 18 14  1  0  0  0  0
 19 16  1  6  0  0  0
 19 18  1  0  0  0  0
 20 17  2  0  0  0  0
 22 23  1  0  0  0  0
 22 26  1  0  0  0  0
 25 23  1  6  0  0  0
 25 24  1  0  0  0  0
 26 27  1  6  0  0  0
 26 24  1  0  0  0  0
 27 29  1  0  0  0  0
 29 28  2  0  0  0  0
 29 32  1  0  0  0  0
 31 30  1  0  0  0  0
 31 34  1  0  0  0  0
 32 31  1  0  0  0  0
 33 32  2  0  0  0  0
 34 36  1  0  0  0  0
 34 35  1  0  0  0  0
 38 37  1  0  0  0  0
M  END
>  <MODEL>
4

>  <REMARK>
 VINA RESULT:      -7.0      2.720      9.599
  Name = 
  7 active torsions:
  status: ('A' for Active; 'I' for Inactive)
    1  A    between atoms: C_1  and  C_27
    2  A    between atoms: C_6  and  CA_32
    3  A    between atoms: S_8  and  C_18
    4  A    between atoms: S_8  and  C_35
    5  A    between atoms: N_11  and  C_13
    6  A    between atoms: C_12  and  C_18
    7  A    between atoms: C_21  and  C_23
                            x       y       z     vdW  Elec       q    Type
                         _______ _______ _______ _____ _____    ______ ____

>  <TORSDO>
F 7

$$$$
=
 OpenBabel11062421013D

 38 42  0  0  1  0  0  0  0  0999 V2000
  190.9580  173.7380  143.8500 C   0  0  0  0  0  2  0  0  0  0  0  0
  191.5370  176.1030  146.7040 N   0  0  0  0  0  2  0  0  0  0  0  0
  192.1810  174.8030  146.5310 C   0  0  0  0  0  2  0  0  0  0  0  0
  191.0840  176.2430  144.2730 C   0  0  2  0  0  3  0  0  0  0  0  0
  191.8780  174.9490  144.0320 C   0  0  1  0  0  3  0  0  0  0  0  0
  192.3970  171.6440  143.9140 C   0  0  0  0  0  2  0  0  0  0  0  0
  193.7990  173.5210  145.0500 C   0  0  1  0  0  3  0  0  0  0  0  0
  191.6840  172.6780  143.0420 C   0  0  0  0  0  2  0  0  0  0  0  0
  190.4830  176.2700  145.7010 C   0  0  2  0  0  3  0  0  0  0  0  0
  192.8870  174.7510  145.1770 C   0  0  2  0  0  3  0  0  0  0  0  0
  193.0450  172.1890  145.1940 C   0  0  0  0  0  2  0  0  0  0  0  0
  194.7060  173.5850  143.8160 C   0  0  1  0  0  3  0  0  0  0  0  0
  196.0500  175.3210  145.4430 O   0  0  0  0  0  0  0  0  0  0  0  0
  197.2400  171.0480  144.6380 C   0  0  0  0  0  0  0  0  0  0  0  0
  197.4080  171.1480  143.2320 N   0  0  0  0  0  0  0  0  0  0  0  0
  196.6070  172.2480  142.7250 C   0  0  0  0  0  3  0  0  0  0  0  0
  196.1810  174.6170  144.1220 S   0  0  0  0  0  0  0  0  0  0  0  0
  196.3290  172.0600  145.2190 C   0  0  0  0  0  2  0  0  0  0  0  0
  195.9570  172.8400  143.9650 C   0  0  1  0  0  0  0  0  0  0  0  0
  196.3870  175.4990  142.9230 O   0  0  0  0  0  0  0  0  0  0  0  0
  197.8210  170.1680  145.3240 O   0  0  0  0  0  0  0  0  0  0  0  0
  188.7150  178.2420  142.2660 C   0  0  0  0  0  2  0  0  0  0  0  0
  190.1290  177.9600  142.6810 C   0  0  0  0  0  2  0  0  0  0  0  0
  188.7210  176.1630  143.4790 N   0  0  0  0  0  2  0  0  0  0  0  0
  190.0950  176.5150  143.1240 C   0  0  2  0  0  3  0  0  0  0  0  0
  187.8890  177.3020  143.1130 C   0  0  2  0  0  3  0  0  0  0  0  0
  186.4370  176.7310  142.1840 S   0  0  0  0  0  0  0  0  0  0  0  0
  184.4700  178.4920  142.1280 O   0  0  0  0  0  0  0  0  0  0  0  0
  185.3870  178.0220  142.8520 C   0  0  0  0  0  0  0  0  0  0  0  0
  185.2350  176.3270  145.2190 O   0  0  0  0  0  1  0  0  0  0  0  0
  185.5110  177.6450  145.3690 N   0  0  0  0  0  0  0  0  0  0  0  0
  185.5980  178.5160  144.2280 C   0  0  0  0  0  0  0  0  0  0  0  0
  185.8610  179.7380  144.3990 O   0  0  0  0  0  0  0  0  0  0  0  0
  185.7290  178.1780  146.7110 C   0  0  0  0  0  3  0  0  0  0  0  0
  186.3350  177.1150  147.6070 C   0  0  0  0  0  1  0  0  0  0  0  0
  184.4230  178.6710  147.3020 C   0  0  0  0  0  1  0  0  0  0  0  0
  189.7180  177.5580  145.9950 C   0  0  0  0  0  2  0  0  0  0  0  0
  189.6470  177.7860  147.3710 O   0  0  0  0  0  1  0  0  0  0  0  0
  3  2  1  0  0  0  0
  4 25  1  6  0  0  0
  4  9  1  0  0  0  0
  5  1  1  1  0  0  0
  5  4  1  0  0  0  0
  5 10  1  0  0  0  0
  6 11  1  0  0  0  0
  7 10  1  0  0  0  0
  7 11  1  6  0  0  0
  8  1  1  0  0  0  0
  8  6  1  0  0  0  0
  9 37  1  1  0  0  0
  9  2  1  0  0  0  0
 10  3  1  1  0  0  0
 12 19  1  0  0  0  0
 12 17  1  1  0  0  0
 12  7  1  0  0  0  0
 14 18  1  0  0  0  0
 14 21  2  0  0  0  0
 15 14  1  0  0  0  0
 16 15  2  0  0  0  0
 17 13  2  0  0  0  0
 19 16  1  6  0  0  0
 19 17  1  0  0  0  0
 19 18  1  0  0  0  0
 20 17  2  0  0  0  0
 22 23  1  0  0  0  0
 22 26  1  0  0  0  0
 25 23  1  1  0  0  0
 25 24  1  0  0  0  0
 26 27  1  6  0  0  0
 26 24  1  0  0  0  0
 27 29  1  0  0  0  0
 28 29  2  0  0  0  0
 29 32  1  0  0  0  0
 30 31  1  0  0  0  0
 31 34  1  0  0  0  0
 32 33  2  0  0  0  0
 32 31  1  0  0  0  0
 34 36  1  0  0  0  0
 34 35  1  0  0  0  0
 37 38  1  0  0  0  0
M  END
>  <MODEL>
5

>  <REMARK>
 VINA RESULT:      -6.9      2.400      3.752
  Name = 
  7 active torsions:
  status: ('A' for Active; 'I' for Inactive)
    1  A    between atoms: C_1  and  C_27
    2  A    between atoms: C_6  and  CA_32
    3  A    between atoms: S_8  and  C_18
    4  A    between atoms: S_8  and  C_35
    5  A    between atoms: N_11  and  C_13
    6  A    between atoms: C_12  and  C_18
    7  A    between atoms: C_21  and  C_23
                            x       y       z     vdW  Elec       q    Type
                         _______ _______ _______ _____ _____    ______ ____

>  <TORSDO>
F 7

$$$$
=
 OpenBabel11062421013D

 38 42  0  0  1  0  0  0  0  0999 V2000
  189.3190  174.2460  141.8640 C   0  0  0  0  0  2  0  0  0  0  0  0
  192.5560  175.6200  143.1710 N   0  0  0  0  0  2  0  0  0  0  0  0
  191.3330  176.3870  142.9480 C   0  0  0  0  0  2  0  0  0  0  0  0
  191.2500  173.5220  143.3540 C   0  0  2  0  0  3  0  0  0  0  0  0
  189.9340  174.3130  143.2650 C   0  0  1  0  0  3  0  0  0  0  0  0
  187.4270  175.9400  141.7570 C   0  0  0  0  0  2  0  0  0  0  0  0
  188.9380  176.6670  143.7480 C   0  0  1  0  0  3  0  0  0  0  0  0
  187.8230  174.4780  141.9650 C   0  0  0  0  0  2  0  0  0  0  0  0
  192.3980  174.2690  142.6270 C   0  0  2  0  0  3  0  0  0  0  0  0
  190.1780  175.7600  143.7280 C   0  0  2  0  0  3  0  0  0  0  0  0
  188.3910  176.9790  142.3460 C   0  0  0  0  0  2  0  0  0  0  0  0
  187.8680  176.1800  144.7330 C   0  0  1  0  0  3  0  0  0  0  0  0
  189.4250  177.6250  146.4520 O   0  0  0  0  0  0  0  0  0  0  0  0
  185.5050  178.9980  144.7000 C   0  0  0  0  0  0  0  0  0  0  0  0
  184.6810  177.9640  145.2160 N   0  0  0  0  0  0  0  0  0  0  0  0
  185.4890  176.7870  145.4800 C   0  0  0  0  0  3  0  0  0  0  0  0
  188.1150  176.8910  146.3960 S   0  0  0  0  0  0  0  0  0  0  0  0
  186.9340  178.6340  144.5700 C   0  0  0  0  0  2  0  0  0  0  0  0
  186.9010  177.2110  145.1080 C   0  0  1  0  0  0  0  0  0  0  0  0
  187.9320  175.7930  147.4040 O   0  0  0  0  0  0  0  0  0  0  0  0
  185.0480  180.1260  144.3800 O   0  0  0  0  0  0  0  0  0  0  0  0
  192.2600  170.0240  142.7440 C   0  0  0  0  0  2  0  0  0  0  0  0
  191.9610  171.1240  143.7200 C   0  0  0  0  0  2  0  0  0  0  0  0
  191.2510  171.8340  141.5190 N   0  0  0  0  0  2  0  0  0  0  0  0
  191.0460  172.0510  142.9500 C   0  0  2  0  0  3  0  0  0  0  0  0
  192.1460  170.6900  141.3920 C   0  0  2  0  0  3  0  0  0  0  0  0
  191.4820  169.5220  140.1700 S   0  0  0  0  0  0  0  0  0  0  0  0
  192.9180  170.9540  138.4800 O   0  0  0  0  0  0  0  0  0  0  0  0
  191.7390  170.6590  138.8080 C   0  0  0  0  0  0  0  0  0  0  0  0
  191.1570  173.5130  138.6830 O   0  0  0  0  0  1  0  0  0  0  0  0
  190.3310  172.6440  138.0510 N   0  0  0  0  0  0  0  0  0  0  0  0
  190.5840  171.2290  138.0850 C   0  0  0  0  0  0  0  0  0  0  0  0
  189.7990  170.4450  137.4830 O   0  0  0  0  0  0  0  0  0  0  0  0
  189.1770  173.1610  137.3220 C   0  0  0  0  0  3  0  0  0  0  0  0
  189.6310  174.0740  136.1980 C   0  0  0  0  0  1  0  0  0  0  0  0
  188.2540  173.9140  138.2600 C   0  0  0  0  0  1  0  0  0  0  0  0
  193.7330  173.5350  142.7250 C   0  0  0  0  0  2  0  0  0  0  0  0
  194.3450  173.7860  143.9550 O   0  0  0  0  0  1  0  0  0  0  0  0
  1  8  1  0  0  0  0
  3  2  1  0  0  0  0
  4 25  1  6  0  0  0
  5  1  1  6  0  0  0
  5  4  1  0  0  0  0
  5 10  1  0  0  0  0
  6  8  1  0  0  0  0
  6 11  1  0  0  0  0
  7 11  1  6  0  0  0
  9 37  1  1  0  0  0
  9  2  1  0  0  0  0
  9  4  1  0  0  0  0
 10  3  1  6  0  0  0
 10  7  1  0  0  0  0
 12  7  1  6  0  0  0
 12 19  1  0  0  0  0
 12 17  1  0  0  0  0
 14 15  1  0  0  0  0
 15 16  2  0  0  0  0
 17 13  2  0  0  0  0
 17 20  2  0  0  0  0
 18 14  1  0  0  0  0
 19 18  1  6  0  0  0
 19 16  1  0  0  0  0
 19 17  1  0  0  0  0
 21 14  2  0  0  0  0
 22 23  1  0  0  0  0
 24 25  1  0  0  0  0
 25 23  1  1  0  0  0
 26 27  1  6  0  0  0
 26 24  1  0  0  0  0
 26 22  1  0  0  0  0
 28 29  2  0  0  0  0
 29 27  1  0  0  0  0
 31 32  1  0  0  0  0
 31 30  1  0  0  0  0
 32 29  1  0  0  0  0
 33 32  2  0  0  0  0
 34 31  1  0  0  0  0
 34 36  1  0  0  0  0
 35 34  1  0  0  0  0
 37 38  1  0  0  0  0
M  END
>  <MODEL>
6

>  <REMARK>
 VINA RESULT:      -6.6      3.774      8.784
  Name = 
  7 active torsions:
  status: ('A' for Active; 'I' for Inactive)
    1  A    between atoms: C_1  and  C_27
    2  A    between atoms: C_6  and  CA_32
    3  A    between atoms: S_8  and  C_18
    4  A    between atoms: S_8  and  C_35
    5  A    between atoms: N_11  and  C_13
    6  A    between atoms: C_12  and  C_18
    7  A    between atoms: C_21  and  C_23
                            x       y       z     vdW  Elec       q    Type
                         _______ _______ _______ _____ _____    ______ ____

>  <TORSDO>
F 7

$$$$
=
 OpenBabel11062421013D

 38 42  0  0  1  0  0  0  0  0999 V2000
  192.5770  176.2350  142.9340 C   0  0  0  0  0  2  0  0  0  0  0  0
  194.7400  176.2550  146.0000 N   0  0  0  0  0  2  0  0  0  0  0  0
  193.5400  177.0630  145.7990 C   0  0  0  0  0  2  0  0  0  0  0  0
  193.9570  174.6090  144.3220 C   0  0  2  0  0  3  0  0  0  0  0  0
  192.6190  175.3550  144.1880 C   0  0  1  0  0  3  0  0  0  0  0  0
  190.5230  177.7230  143.0900 C   0  0  0  0  0  2  0  0  0  0  0  0
  191.0190  176.9180  145.5160 C   0  0  1  0  0  3  0  0  0  0  0  0
  191.1320  176.4420  142.5200 C   0  0  0  0  0  2  0  0  0  0  0  0
  195.0920  175.5730  144.7520 C   0  0  2  0  0  3  0  0  0  0  0  0
  192.3530  176.1570  145.4740 C   0  0  2  0  0  3  0  0  0  0  0  0
  190.9550  178.0850  144.5180 C   0  0  0  0  0  2  0  0  0  0  0  0
  189.8050  175.9830  145.4500 C   0  0  1  0  0  3  0  0  0  0  0  0
  190.8180  175.2220  147.8710 O   0  0  0  0  0  0  0  0  0  0  0  0
  187.2740  177.9410  147.2640 C   0  0  0  0  0  0  0  0  0  0  0  0
  186.4490  177.0370  146.5450 N   0  0  0  0  0  0  0  0  0  0  0  0
  187.2760  176.0410  145.8900 C   0  0  0  0  0  3  0  0  0  0  0  0
  189.6200  175.0170  146.9880 S   0  0  0  0  0  0  0  0  0  0  0  0
  188.7230  177.6490  147.1760 C   0  0  0  0  0  2  0  0  0  0  0  0
  188.6940  176.4000  146.3060 C   0  0  1  0  0  0  0  0  0  0  0  0
  189.3160  173.5960  146.6100 O   0  0  0  0  0  0  0  0  0  0  0  0
  186.8040  178.9080  147.9180 O   0  0  0  0  0  0  0  0  0  0  0  0
  194.0610  173.8280  140.7150 C   0  0  0  0  0  2  0  0  0  0  0  0
  194.6130  174.5950  141.8800 C   0  0  0  0  0  2  0  0  0  0  0  0
  193.1130  172.8940  142.7210 N   0  0  0  0  0  2  0  0  0  0  0  0
  194.2440  173.7480  143.0780 C   0  0  2  0  0  3  0  0  0  0  0  0
  192.8830  173.0770  141.2930 C   0  0  2  0  0  3  0  0  0  0  0  0
  192.7100  171.4610  140.4850 S   0  0  0  0  0  0  0  0  0  0  0  0
  190.9610  170.2460  142.0460 O   0  0  0  0  0  0  0  0  0  0  0  0
  191.0920  171.1720  141.2030 C   0  0  0  0  0  0  0  0  0  0  0  0
  189.8180  173.0990  142.9830 O   0  0  0  0  0  1  0  0  0  0  0  0
  189.3420  172.9500  141.7230 N   0  0  0  0  0  0  0  0  0  0  0  0
  189.9430  172.0130  140.8120 C   0  0  0  0  0  0  0  0  0  0  0  0
  189.4800  171.9010  139.6430 O   0  0  0  0  0  0  0  0  0  0  0  0
  188.2080  173.7620  141.2900 C   0  0  0  0  0  3  0  0  0  0  0  0
  188.5670  174.5410  140.0390 C   0  0  0  0  0  1  0  0  0  0  0  0
  187.7910  174.7160  142.3920 C   0  0  0  0  0  1  0  0  0  0  0  0
  196.4310  174.8640  144.9340 C   0  0  0  0  0  2  0  0  0  0  0  0
  196.4460  174.1380  146.1270 O   0  0  0  0  0  1  0  0  0  0  0  0
  3  2  1  0  0  0  0
  4 25  1  6  0  0  0
  4  9  1  0  0  0  0
  5  1  1  6  0  0  0
  5  4  1  0  0  0  0
  5 10  1  0  0  0  0
  6 11  1  0  0  0  0
  7 11  1  6  0  0  0
  8  1  1  0  0  0  0
  8  6  1  0  0  0  0
  9 37  1  1  0  0  0
  9  2  1  0  0  0  0
 10  7  1  0  0  0  0
 10  3  1  6  0  0  0
 12  7  1  1  0  0  0
 12 19  1  0  0  0  0
 12 17  1  0  0  0  0
 14 21  2  0  0  0  0
 15 14  1  0  0  0  0
 16 15  2  0  0  0  0
 17 13  2  0  0  0  0
 18 14  1  0  0  0  0
 19 16  1  6  0  0  0
 19 17  1  0  0  0  0
 19 18  1  0  0  0  0
 20 17  2  0  0  0  0
 22 26  1  0  0  0  0
 22 23  1  0  0  0  0
 24 25  1  0  0  0  0
 25 23  1  6  0  0  0
 26 27  1  6  0  0  0
 26 24  1  0  0  0  0
 27 29  1  0  0  0  0
 29 28  2  0  0  0  0
 31 30  1  0  0  0  0
 32 29  1  0  0  0  0
 32 31  1  0  0  0  0
 33 32  2  0  0  0  0
 34 31  1  0  0  0  0
 34 36  1  0  0  0  0
 35 34  1  0  0  0  0
 37 38  1  0  0  0  0
M  END
>  <MODEL>
7

>  <REMARK>
 VINA RESULT:      -6.6      3.104      7.555
  Name = 
  7 active torsions:
  status: ('A' for Active; 'I' for Inactive)
    1  A    between atoms: C_1  and  C_27
    2  A    between atoms: C_6  and  CA_32
    3  A    between atoms: S_8  and  C_18
    4  A    between atoms: S_8  and  C_35
    5  A    between atoms: N_11  and  C_13
    6  A    between atoms: C_12  and  C_18
    7  A    between atoms: C_21  and  C_23
                            x       y       z     vdW  Elec       q    Type
                         _______ _______ _______ _____ _____    ______ ____

>  <TORSDO>
F 7

$$$$
=
 OpenBabel11062421013D

 38 42  0  0  1  0  0  0  0  0999 V2000
  191.6190  175.5730  145.1550 C   0  0  0  0  0  2  0  0  0  0  0  0
  190.2440  172.3360  143.8490 N   0  0  0  0  0  2  0  0  0  0  0  0
  189.5510  173.2560  144.7470 C   0  0  0  0  0  2  0  0  0  0  0  0
  191.6960  174.1700  143.0340 C   0  0  2  0  0  3  0  0  0  0  0  0
  190.8970  175.1930  143.8580 C   0  0  1  0  0  3  0  0  0  0  0  0
  189.9960  176.8970  146.5950 C   0  0  0  0  0  2  0  0  0  0  0  0
  188.5390  175.5820  144.8850 C   0  0  1  0  0  3  0  0  0  0  0  0
  191.1540  176.9480  145.5980 C   0  0  0  0  0  2  0  0  0  0  0  0
  191.6350  172.7640  143.6820 C   0  0  2  0  0  3  0  0  0  0  0  0
  189.4830  174.6450  144.1150 C   0  0  2  0  0  3  0  0  0  0  0  0
  188.9570  175.7950  146.3490 C   0  0  0  0  0  2  0  0  0  0  0  0
  188.2570  176.8860  144.1290 C   0  0  1  0  0  3  0  0  0  0  0  0
  186.7930  175.1600  142.5960 O   0  0  0  0  0  0  0  0  0  0  0  0
  185.1100  177.9730  145.6910 C   0  0  0  0  0  0  0  0  0  0  0  0
  185.5600  179.1920  145.1210 N   0  0  0  0  0  0  0  0  0  0  0  0
  186.7230  178.9380  144.2900 C   0  0  0  0  0  3  0  0  0  0  0  0
  187.0610  176.6280  142.7740 S   0  0  0  0  0  0  0  0  0  0  0  0
  185.9050  176.7860  145.3050 C   0  0  0  0  0  2  0  0  0  0  0  0
  186.9230  177.4330  144.3760 C   0  0  1  0  0  0  0  0  0  0  0  0
  187.5680  177.3560  141.5610 O   0  0  0  0  0  0  0  0  0  0  0  0
  184.1170  177.9170  146.4620 O   0  0  0  0  0  0  0  0  0  0  0  0
  194.1750  176.4160  141.4690 C   0  0  0  0  0  2  0  0  0  0  0  0
  193.1140  176.1960  142.5080 C   0  0  0  0  0  2  0  0  0  0  0  0
  193.6710  174.0610  141.5150 N   0  0  0  0  0  2  0  0  0  0  0  0
  193.1050  174.6970  142.7040 C   0  0  2  0  0  3  0  0  0  0  0  0
  194.1730  175.1350  140.6660 C   0  0  2  0  0  3  0  0  0  0  0  0
  195.8560  174.7410  140.1070 S   0  0  0  0  0  0  0  0  0  0  0  0
  197.0990  176.2450  141.8860 O   0  0  0  0  0  0  0  0  0  0  0  0
  196.5730  175.1160  141.7080 C   0  0  0  0  0  0  0  0  0  0  0  0
  195.9650  175.7610  144.4860 O   0  0  0  0  0  1  0  0  0  0  0  0
  196.2360  174.4750  144.1510 N   0  0  0  0  0  0  0  0  0  0  0  0
  196.5370  174.1140  142.7920 C   0  0  0  0  0  0  0  0  0  0  0  0
  196.7800  172.9080  142.5110 O   0  0  0  0  0  0  0  0  0  0  0  0
  196.2100  173.4490  145.1900 C   0  0  0  0  0  3  0  0  0  0  0  0
  194.8110  173.3170  145.7630 C   0  0  0  0  0  1  0  0  0  0  0  0
  197.1910  173.7910  146.2930 C   0  0  0  0  0  1  0  0  0  0  0  0
  192.3850  171.7090  142.8730 C   0  0  0  0  0  2  0  0  0  0  0  0
  193.3410  171.0670  143.6640 O   0  0  0  0  0  1  0  0  0  0  0  0
  1  8  1  0  0  0  0
  2  3  1  0  0  0  0
  4 25  1  1  0  0  0
  4  9  1  0  0  0  0
  4  5  1  0  0  0  0
  5 10  1  0  0  0  0
  5  1  1  1  0  0  0
  7 11  1  1  0  0  0
  8  6  1  0  0  0  0
  9 37  1  6  0  0  0
  9  2  1  0  0  0  0
 10  3  1  1  0  0  0
 10  7  1  0  0  0  0
 11  6  1  0  0  0  0
 12 17  1  6  0  0  0
 12 19  1  0  0  0  0
 12  7  1  0  0  0  0
 13 17  2  0  0  0  0
 14 21  2  0  0  0  0
 15 14  1  0  0  0  0
 16 15  2  0  0  0  0
 17 19  1  0  0  0  0
 18 14  1  0  0  0  0
 19 16  1  6  0  0  0
 19 18  1  0  0  0  0
 20 17  2  0  0  0  0
 22 23  1  0  0  0  0
 24 25  1  0  0  0  0
 25 23  1  6  0  0  0
 26 27  1  1  0  0  0
 26 22  1  0  0  0  0
 26 24  1  0  0  0  0
 27 29  1  0  0  0  0
 29 28  2  0  0  0  0
 29 32  1  0  0  0  0
 31 30  1  0  0  0  0
 31 34  1  0  0  0  0
 32 31  1  0  0  0  0
 33 32  2  0  0  0  0
 34 35  1  0  0  0  0
 34 36  1  0  0  0  0
 37 38  1  0  0  0  0
M  END
>  <MODEL>
8

>  <REMARK>
 VINA RESULT:      -6.6      2.733      9.415
  Name = 
  7 active torsions:
  status: ('A' for Active; 'I' for Inactive)
    1  A    between atoms: C_1  and  C_27
    2  A    between atoms: C_6  and  CA_32
    3  A    between atoms: S_8  and  C_18
    4  A    between atoms: S_8  and  C_35
    5  A    between atoms: N_11  and  C_13
    6  A    between atoms: C_12  and  C_18
    7  A    between atoms: C_21  and  C_23
                            x       y       z     vdW  Elec       q    Type
                         _______ _______ _______ _____ _____    ______ ____

>  <TORSDO>
F 7

$$$$
=
 OpenBabel11062421013D

 38 42  0  0  1  0  0  0  0  0999 V2000
  190.6330  174.8230  142.6090 C   0  0  0  0  0  2  0  0  0  0  0  0
  192.9290  177.2240  144.3530 N   0  0  0  0  0  2  0  0  0  0  0  0
  191.6240  177.5530  143.7840 C   0  0  0  0  0  2  0  0  0  0  0  0
  192.2850  174.8390  144.5450 C   0  0  2  0  0  3  0  0  0  0  0  0
  190.8550  175.1700  144.0850 C   0  0  1  0  0  3  0  0  0  0  0  0
  188.4110  175.8280  141.8940 C   0  0  0  0  0  2  0  0  0  0  0  0
  189.1340  177.1200  144.0350 C   0  0  1  0  0  3  0  0  0  0  0  0
  189.1540  174.5800  142.3720 C   0  0  0  0  0  2  0  0  0  0  0  0
  193.3030  175.8590  143.9740 C   0  0  2  0  0  3  0  0  0  0  0  0
  190.5520  176.6480  144.3900 C   0  0  2  0  0  3  0  0  0  0  0  0
  188.8650  177.1530  142.5220 C   0  0  0  0  0  2  0  0  0  0  0  0
  188.0520  176.3870  144.8380 C   0  0  1  0  0  3  0  0  0  0  0  0
  189.2470  177.7700  146.8690 O   0  0  0  0  0  0  0  0  0  0  0  0
  185.3560  178.8890  144.8870 C   0  0  0  0  0  0  0  0  0  0  0  0
  184.6300  177.7070  145.1890 N   0  0  0  0  0  0  0  0  0  0  0  0
  185.5560  176.6090  145.3970 C   0  0  0  0  0  3  0  0  0  0  0  0
  188.0540  176.9010  146.5900 S   0  0  0  0  0  0  0  0  0  0  0  0
  186.8260  178.7160  144.8670 C   0  0  0  0  0  2  0  0  0  0  0  0
  186.9290  177.2400  145.2280 C   0  0  1  0  0  0  0  0  0  0  0  0
  187.9250  175.6670  147.4360 O   0  0  0  0  0  0  0  0  0  0  0  0
  184.7880  179.9870  144.6560 O   0  0  0  0  0  0  0  0  0  0  0  0
  194.3140  171.7630  144.7740 C   0  0  0  0  0  2  0  0  0  0  0  0
  193.4300  172.7730  145.4450 C   0  0  0  0  0  2  0  0  0  0  0  0
  193.3390  173.1400  143.0560 N   0  0  0  0  0  2  0  0  0  0  0  0
  192.6180  173.3550  144.3090 C   0  0  2  0  0  3  0  0  0  0  0  0
  194.4890  172.3020  143.3720 C   0  0  2  0  0  3  0  0  0  0  0  0
  194.6010  170.9350  142.1820 S   0  0  0  0  0  0  0  0  0  0  0  0
  194.2190  172.1900  139.8910 O   0  0  0  0  0  0  0  0  0  0  0  0
  195.0420  172.0260  140.8300 C   0  0  0  0  0  0  0  0  0  0  0  0
  195.3360  174.9160  141.0900 O   0  0  0  0  0  1  0  0  0  0  0  0
  196.4450  174.1490  140.9550 N   0  0  0  0  0  0  0  0  0  0  0  0
  196.3450  172.7210  140.8270 C   0  0  0  0  0  0  0  0  0  0  0  0
  197.3970  172.0340  140.7090 O   0  0  0  0  0  0  0  0  0  0  0  0
  197.7570  174.7910  140.9500 C   0  0  0  0  0  3  0  0  0  0  0  0
  197.9110  175.6810  142.1690 C   0  0  0  0  0  1  0  0  0  0  0  0
  197.9390  175.6090  139.6860 C   0  0  0  0  0  1  0  0  0  0  0  0
  194.7320  175.5880  144.4390 C   0  0  0  0  0  2  0  0  0  0  0  0
  195.2890  176.7340  145.0120 O   0  0  0  0  0  1  0  0  0  0  0  0
  3  2  1  0  0  0  0
  4 25  1  6  0  0  0
  5  1  1  6  0  0  0
  5 10  1  0  0  0  0
  5  4  1  0  0  0  0
  6  8  1  0  0  0  0
  6 11  1  0  0  0  0
  7 11  1  6  0  0  0
  7 10  1  0  0  0  0
  8  1  1  0  0  0  0
  9  2  1  0  0  0  0
  9 37  1  1  0  0  0
  9  4  1  0  0  0  0
 10  3  1  6  0  0  0
 12  7  1  6  0  0  0
 12 19  1  0  0  0  0
 12 17  1  0  0  0  0
 14 15  1  0  0  0  0
 15 16  2  0  0  0  0
 17 13  2  0  0  0  0
 17 20  2  0  0  0  0
 18 14  1  0  0  0  0
 19 18  1  6  0  0  0
 19 16  1  0  0  0  0
 19 17  1  0  0  0  0
 21 14  2  0  0  0  0
 22 23  1  0  0  0  0
 24 26  1  0  0  0  0
 24 25  1  0  0  0  0
 25 23  1  1  0  0  0
 26 27  1  6  0  0  0
 26 22  1  0  0  0  0
 28 29  2  0  0  0  0
 29 27  1  0  0  0  0
 31 30  1  0  0  0  0
 32 29  1  0  0  0  0
 32 31  1  0  0  0  0
 33 32  2  0  0  0  0
 34 31  1  0  0  0  0
 34 35  1  0  0  0  0
 36 34  1  0  0  0  0
 37 38  1  0  0  0  0
M  END
>  <MODEL>
9

>  <REMARK>
 VINA RESULT:      -6.5      2.865      9.514
  Name = 
  7 active torsions:
  status: ('A' for Active; 'I' for Inactive)
    1  A    between atoms: C_1  and  C_27
    2  A    between atoms: C_6  and  CA_32
    3  A    between atoms: S_8  and  C_18
    4  A    between atoms: S_8  and  C_35
    5  A    between atoms: N_11  and  C_13
    6  A    between atoms: C_12  and  C_18
    7  A    between atoms: C_21  and  C_23
                            x       y       z     vdW  Elec       q    Type
                         _______ _______ _______ _____ _____    ______ ____

>  <TORSDO>
F 7

$$$$
