=
 OpenBabel11062418333D

 54 56  0  0  1  0  0  0  0  0999 V2000
  189.3190  176.7960  144.6500 C   0  0  2  0  0  3  0  0  0  0  0  0
  191.9690  176.5800  143.2100 C   0  0  0  0  0  2  0  0  0  0  0  0
  192.9690  176.0660  145.4390 C   0  0  0  0  0  0  0  0  0  0  0  0
  189.4560  176.7510  143.0990 C   0  0  2  0  0  3  0  0  0  0  0  0
  191.8510  176.2760  144.6910 C   0  0  0  0  0  0  0  0  0  0  0  0
  190.8080  177.4460  142.7460 C   0  0  0  0  0  2  0  0  0  0  0  0
  192.7680  175.6150  146.7470 O   0  0  0  0  0  1  0  0  0  0  0  0
  190.5010  176.1440  145.4110 C   0  0  0  0  0  2  0  0  0  0  0  0
  188.3570  177.2360  142.0970 C   0  0  0  0  0  0  0  0  0  0  0  0
  188.1370  178.4420  141.9330 O   0  0  0  0  0  0  0  0  0  0  0  0
  187.6340  176.2230  141.3590 O   0  0  0  0  0  0  0  0  0  0  0  0
  188.2560  175.0060  140.9520 C   0  0  0  0  0  2  0  0  0  0  0  0
  187.9420  173.8760  141.7540 O   0  0  0  0  0  0  0  0  0  0  0  0
  188.8910  172.8340  141.5590 C   0  0  0  0  0  2  0  0  0  0  0  0
  189.5970  172.8920  140.3260 O   0  0  0  0  0  0  0  0  0  0  0  0
  190.2200  171.6480  140.6290 C   0  0  2  0  0  3  0  0  0  0  0  0
  191.6290  171.7010  141.2020 C   0  0  2  0  0  3  0  0  0  0  0  0
  191.4180  171.0170  139.8890 C   0  0  2  0  0  3  0  0  0  0  0  0
  193.0850  171.2630  138.0400 C   0  0  0  0  0  0  0  0  0  0  0  0
  192.0880  171.6790  138.7800 C   0  0  0  0  0  3  0  0  0  0  0  0
  194.2540  170.1490  136.2930 O   0  0  0  0  0  1  0  0  0  0  0  0
  194.1190  171.1710  137.2400 C   0  0  0  0  0  0  0  0  0  0  0  0
  194.9920  172.3990  137.1410 C   0  0  0  0  0  2  0  0  0  0  0  0
  195.5550  173.0110  138.4030 C   0  0  1  0  0  3  0  0  0  0  0  0
  196.7390  172.3330  138.7590 O   0  0  0  0  0  1  0  0  0  0  0  0
  197.1710  175.1270  139.3230 O   0  0  0  0  0  1  0  0  0  0  0  0
  196.7250  174.7680  136.7900 O   0  0  0  0  0  1  0  0  0  0  0  0
  195.8130  174.8320  138.2710 P   0  0  0  0  0  0  0  0  0  0  0  0
  191.8240  169.4100  141.5690 O   0  0  0  0  0  1  0  0  0  0  0  0
  192.1960  170.5860  142.1550 C   0  0  2  0  0  3  0  0  0  0  0  0
  191.9090  170.6880  143.5940 O   0  0  0  0  0  0  0  0  0  0  0  0
  193.9480  169.8140  144.5330 O   0  0  0  0  0  1  0  0  0  0  0  0
  193.0650  170.9630  144.4360 C   0  0  0  0  0  2  0  0  0  0  0  0
  187.0470  176.5540  145.8780 C   0  0  0  0  0  3  0  0  0  0  0  0
  188.1390  177.2600  145.5320 C   0  0  0  0  0  3  0  0  0  0  0  0
  186.0780  177.0610  146.9260 C   0  0  0  0  0  2  0  0  0  0  0  0
  185.8270  178.5230  146.5900 C   0  0  2  0  0  3  0  0  0  0  0  0
  185.9370  179.4060  147.8480 C   0  0  0  0  0  1  0  0  0  0  0  0
  184.4130  178.6110  146.0490 C   0  0  0  0  0  2  0  0  0  0  0  0
  184.4710  179.1750  144.6940 C   0  0  0  0  0  0  0  0  0  0  0  0
  185.6370  179.8440  144.3610 O   0  0  0  0  0  1  0  0  0  0  0  0
  183.5270  179.0120  143.8640 O   0  0  0  0  0  0  0  0  0  0  0  0
  194.4430  176.2640  144.9750 C   0  0  0  0  0  2  0  0  0  0  0  0
  194.8890  175.2350  143.8360 C   0  0  2  0  0  3  0  0  0  0  0  0
  197.1530  171.2810  145.3530 S   0  0  0  0  0  0  0  0  0  0  0  0
  197.2000  171.9320  143.6480 C   0  0  0  0  0  2  0  0  0  0  0  0
  195.6560  173.5520  145.7270 C   0  0  0  0  0  2  0  0  0  0  0  0
  195.6310  173.9110  144.2540 C   0  0  0  0  0  3  0  0  0  0  0  0
  196.9890  172.9450  146.0920 C   0  0  0  0  0  2  0  0  0  0  0  0
  195.9670  172.7880  143.2970 C   0  0  0  0  0  2  0  0  0  0  0  0
  195.6760  175.9740  142.7850 C   0  0  0  0  0  0  0  0  0  0  0  0
  195.1450  176.2590  141.7120 O   0  0  0  0  0  0  0  0  0  0  0  0
  197.1560  176.1630  142.9750 C   0  0  0  0  0  2  0  0  0  0  0  0
  197.4600  177.4650  143.3700 O   0  0  0  0  0  1  0  0  0  0  0  0
  1  8  1  0  0  0  0
  1 35  1  6  0  0  0
  2  5  1  0  0  0  0
  3  7  1  0  0  0  0
  4  9  1  6  0  0  0
  4  1  1  0  0  0  0
  5  8  1  0  0  0  0
  5  3  2  0  0  0  0
  6  4  1  0  0  0  0
  6  2  1  0  0  0  0
 10  9  2  0  0  0  0
 11  9  1  0  0  0  0
 12 11  1  0  0  0  0
 12 13  1  0  0  0  0
 14 13  1  0  0  0  0
 15 14  1  0  0  0  0
 16 15  1  6  0  0  0
 16 17  1  0  0  0  0
 17 30  1  1  0  0  0
 18 20  1  6  0  0  0
 18 16  1  0  0  0  0
 18 17  1  0  0  0  0
 19 20  2  0  0  0  0
 21 22  1  0  0  0  0
 22 19  2  0  0  0  0
 23 22  1  0  0  0  0
 23 24  1  0  0  0  0
 24 25  1  6  0  0  0
 27 28  1  0  0  0  0
 28 24  1  0  0  0  0
 28 26  1  0  0  0  0
 30 29  1  6  0  0  0
 30 31  1  0  0  0  0
 31 33  1  0  0  0  0
 33 32  1  0  0  0  0
 34 36  1  0  0  0  0
 35 34  2  0  0  0  0
 37 36  1  0  0  0  0
 37 38  1  1  0  0  0
 39 37  1  0  0  0  0
 40 39  1  0  0  0  0
 41 40  1  0  0  0  0
 42 40  2  0  0  0  0
 43  3  1  0  0  0  0
 44 48  1  0  0  0  0
 44 43  1  1  0  0  0
 45 49  1  0  0  0  0
 46 45  1  0  0  0  0
 47 49  1  0  0  0  0
 48 47  1  0  0  0  0
 50 46  1  0  0  0  0
 50 48  1  0  0  0  0
 51 53  1  0  0  0  0
 51 44  1  0  0  0  0
 52 51  2  0  0  0  0
 53 54  1  0  0  0  0
M  END
>  <MODEL>
1

>  <REMARK>
 VINA RESULT:      -5.9      0.000      0.000
  Name = 
  24 active torsions:
  status: ('A' for Active; 'I' for Inactive)
    1  A    between atoms: C_4  and  C_11
    2  A    between atoms: C_4  and  C_31
    3  A    between atoms: C_6  and  C_38
    4  A    between atoms: C_6  and  C_46
    5  A    between atoms: C_8  and  C_38
    6  A    between atoms: C_9  and  O_12
    7  A    between atoms: C_9  and  O_29
    8  A    between atoms: O_10  and  C_22
    9  A    between atoms: O_10  and  C_41
   10  A    between atoms: O_12  and  C_42
   11  A    between atoms: C_14  and  P_26
   12  A    between atoms: C_14  and  C_52
   13  A    between atoms: C_17  and  C_31
   14  A    between atoms: O_19  and  C_33
   15  A    between atoms: O_19  and  C_50
   16  A    between atoms: C_20  and  C_45
   17  A    between atoms: C_25  and  C_37
   18  A    between atoms: C_27  and  C_42
   19  A    between atoms: C_28  and  C_46
   20  A    between atoms: O_29  and  C_41
   21  A    between atoms: C_31  and  C_37
   22  A    between atoms: C_36  and  C_50
   23  A    between atoms: C_39  and  C_43
   24  A    between atoms: C_51  and  C_52
                            x       y       z     vdW  Elec       q    Type
                         _______ _______ _______ _____ _____    ______ ____

>  <TORSDO>
F 24

$$$$
=
 OpenBabel11062418333D

 54 56  0  0  1  0  0  0  0  0999 V2000
  191.3630  173.3720  141.0350 C   0  0  2  0  0  3  0  0  0  0  0  0
  188.3420  173.4520  141.1240 C   0  0  0  0  0  2  0  0  0  0  0  0
  188.5810  175.6820  142.2210 C   0  0  0  0  0  0  0  0  0  0  0  0
  190.4500  172.3690  140.2680 C   0  0  2  0  0  3  0  0  0  0  0  0
  189.1730  174.6300  141.5910 C   0  0  0  0  0  0  0  0  0  0  0  0
  189.1670  172.1750  141.1330 C   0  0  0  0  0  2  0  0  0  0  0  0
  189.3850  176.8010  142.4550 O   0  0  0  0  0  1  0  0  0  0  0  0
  190.6870  174.7310  141.3500 C   0  0  0  0  0  2  0  0  0  0  0  0
  190.9190  170.9760  139.7320 C   0  0  0  0  0  0  0  0  0  0  0  0
  190.6600  170.6230  138.5750 O   0  0  0  0  0  0  0  0  0  0  0  0
  191.6820  170.1380  140.6310 O   0  0  0  0  0  0  0  0  0  0  0  0
  191.0660  169.0950  141.3860 C   0  0  0  0  0  2  0  0  0  0  0  0
  191.7040  168.7920  142.6180 O   0  0  0  0  0  0  0  0  0  0  0  0
  192.6400  169.8040  142.9700 C   0  0  0  0  0  2  0  0  0  0  0  0
  192.4800  170.3370  144.2780 O   0  0  0  0  0  0  0  0  0  0  0  0
  193.8830  170.5660  144.3520 C   0  0  2  0  0  3  0  0  0  0  0  0
  194.4900  170.6990  145.7420 C   0  0  2  0  0  3  0  0  0  0  0  0
  194.5790  171.8650  144.8100 C   0  0  2  0  0  3  0  0  0  0  0  0
  192.6360  173.4360  144.9420 C   0  0  0  0  0  0  0  0  0  0  0  0
  193.8360  173.0290  145.2700 C   0  0  0  0  0  3  0  0  0  0  0  0
  190.2650  173.6250  144.9480 O   0  0  0  0  0  1  0  0  0  0  0  0
  191.5490  174.1350  144.7230 C   0  0  0  0  0  0  0  0  0  0  0  0
  191.7410  175.6220  144.5460 C   0  0  0  0  0  2  0  0  0  0  0  0
  191.4540  176.5480  145.7040 C   0  0  1  0  0  3  0  0  0  0  0  0
  190.0600  176.6330  145.8960 O   0  0  0  0  0  1  0  0  0  0  0  0
  193.8660  176.8930  147.1180 O   0  0  0  0  0  1  0  0  0  0  0  0
  191.5640  177.2550  148.2630 O   0  0  0  0  0  1  0  0  0  0  0  0
  192.3370  176.0690  147.2510 P   0  0  0  0  0  0  0  0  0  0  0  0
  196.7160  171.3610  145.5780 O   0  0  0  0  0  1  0  0  0  0  0  0
  195.9820  170.3130  146.0540 C   0  0  2  0  0  3  0  0  0  0  0  0
  196.4550  168.9810  145.6470 O   0  0  0  0  0  0  0  0  0  0  0  0
  196.6870  168.6690  143.2700 O   0  0  0  0  0  1  0  0  0  0  0  0
  197.3710  168.9700  144.5150 C   0  0  0  0  0  2  0  0  0  0  0  0
  193.9090  173.2350  140.5630 C   0  0  0  0  0  3  0  0  0  0  0  0
  192.8590  173.2760  141.4030 C   0  0  0  0  0  3  0  0  0  0  0  0
  195.3310  173.3620  141.0690 C   0  0  0  0  0  2  0  0  0  0  0  0
  195.3540  174.6080  141.9410 C   0  0  2  0  0  3  0  0  0  0  0  0
  195.2490  175.8840  141.0830 C   0  0  0  0  0  1  0  0  0  0  0  0
  196.6870  174.6110  142.6650 C   0  0  0  0  0  2  0  0  0  0  0  0
  196.4770  175.1460  144.0170 C   0  0  0  0  0  0  0  0  0  0  0  0
  197.1330  174.4860  145.0430 O   0  0  0  0  0  1  0  0  0  0  0  0
  195.7760  176.1800  144.2220 O   0  0  0  0  0  0  0  0  0  0  0  0
  187.0980  175.7630  142.6890 C   0  0  0  0  0  2  0  0  0  0  0  0
  186.5850  177.2630  142.9040 C   0  0  2  0  0  3  0  0  0  0  0  0
  185.2610  178.4140  147.3730 S   0  0  0  0  0  0  0  0  0  0  0  0
  185.0420  179.4750  145.9050 C   0  0  0  0  0  2  0  0  0  0  0  0
  186.2360  176.6990  145.4650 C   0  0  0  0  0  2  0  0  0  0  0  0
  186.1550  177.7210  144.3480 C   0  0  0  0  0  3  0  0  0  0  0  0
  185.0740  176.8710  146.4120 C   0  0  0  0  0  2  0  0  0  0  0  0
  186.0530  179.1670  144.7830 C   0  0  0  0  0  2  0  0  0  0  0  0
  185.4930  177.5570  141.9070 C   0  0  0  0  0  0  0  0  0  0  0  0
  185.7640  177.6350  140.7100 O   0  0  0  0  0  0  0  0  0  0  0  0
  184.1340  177.9620  142.4080 C   0  0  0  0  0  2  0  0  0  0  0  0
  183.2060  178.0350  141.3690 O   0  0  0  0  0  1  0  0  0  0  0  0
  1  8  1  0  0  0  0
  1 35  1  6  0  0  0
  2  6  1  0  0  0  0
  2  5  1  0  0  0  0
  3  7  1  0  0  0  0
  3 43  1  0  0  0  0
  4  9  1  1  0  0  0
  4  1  1  0  0  0  0
  4  6  1  0  0  0  0
  5  3  2  0  0  0  0
  8  5  1  0  0  0  0
  9 11  1  0  0  0  0
 10  9  2  0  0  0  0
 11 12  1  0  0  0  0
 12 13  1  0  0  0  0
 13 14  1  0  0  0  0
 14 15  1  0  0  0  0
 16 15  1  1  0  0  0
 16 18  1  0  0  0  0
 16 17  1  0  0  0  0
 17 30  1  6  0  0  0
 18 20  1  1  0  0  0
 18 17  1  0  0  0  0
 19 20  2  0  0  0  0
 22 19  2  0  0  0  0
 22 21  1  0  0  0  0
 23 22  1  0  0  0  0
 23 24  1  0  0  0  0
 24 25  1  1  0  0  0
 24 28  1  0  0  0  0
 26 28  1  0  0  0  0
 28 27  1  0  0  0  0
 30 29  1  6  0  0  0
 31 30  1  0  0  0  0
 32 33  1  0  0  0  0
 33 31  1  0  0  0  0
 34 36  1  0  0  0  0
 34 35  2  0  0  0  0
 36 37  1  0  0  0  0
 37 38  1  6  0  0  0
 37 39  1  0  0  0  0
 39 40  1  0  0  0  0
 40 42  2  0  0  0  0
 40 41  1  0  0  0  0
 44 43  1  1  0  0  0
 44 48  1  0  0  0  0
 46 45  1  0  0  0  0
 47 49  1  0  0  0  0
 48 50  1  0  0  0  0
 48 47  1  0  0  0  0
 49 45  1  0  0  0  0
 50 46  1  0  0  0  0
 51 53  1  0  0  0  0
 51 44  1  0  0  0  0
 52 51  2  0  0  0  0
 54 53  1  0  0  0  0
M  END
>  <MODEL>
2

>  <REMARK>
 VINA RESULT:      -5.6      3.437      9.101
  Name = 
  24 active torsions:
  status: ('A' for Active; 'I' for Inactive)
    1  A    between atoms: C_4  and  C_11
    2  A    between atoms: C_4  and  C_31
    3  A    between atoms: C_6  and  C_38
    4  A    between atoms: C_6  and  C_46
    5  A    between atoms: C_8  and  C_38
    6  A    between atoms: C_9  and  O_12
    7  A    between atoms: C_9  and  O_29
    8  A    between atoms: O_10  and  C_22
    9  A    between atoms: O_10  and  C_41
   10  A    between atoms: O_12  and  C_42
   11  A    between atoms: C_14  and  P_26
   12  A    between atoms: C_14  and  C_52
   13  A    between atoms: C_17  and  C_31
   14  A    between atoms: O_19  and  C_33
   15  A    between atoms: O_19  and  C_50
   16  A    between atoms: C_20  and  C_45
   17  A    between atoms: C_25  and  C_37
   18  A    between atoms: C_27  and  C_42
   19  A    between atoms: C_28  and  C_46
   20  A    between atoms: O_29  and  C_41
   21  A    between atoms: C_31  and  C_37
   22  A    between atoms: C_36  and  C_50
   23  A    between atoms: C_39  and  C_43
   24  A    between atoms: C_51  and  C_52
                            x       y       z     vdW  Elec       q    Type
                         _______ _______ _______ _____ _____    ______ ____

>  <TORSDO>
F 24

$$$$
=
 OpenBabel11062418333D

 54 56  0  0  1  0  0  0  0  0999 V2000
  189.8600  177.0340  144.8070 C   0  0  2  0  0  3  0  0  0  0  0  0
  192.4340  176.4880  143.3180 C   0  0  0  0  0  2  0  0  0  0  0  0
  193.4190  175.8980  145.5350 C   0  0  0  0  0  0  0  0  0  0  0  0
  189.9560  176.9480  143.2550 C   0  0  2  0  0  3  0  0  0  0  0  0
  192.3160  176.2240  144.8060 C   0  0  0  0  0  0  0  0  0  0  0  0
  191.3710  177.4750  142.8610 C   0  0  0  0  0  2  0  0  0  0  0  0
  193.1960  175.4950  146.8540 O   0  0  0  0  0  1  0  0  0  0  0  0
  190.9760  176.2610  145.5560 C   0  0  0  0  0  2  0  0  0  0  0  0
  188.8990  177.5410  142.2670 C   0  0  0  0  0  0  0  0  0  0  0  0
  188.9310  178.7350  141.9460 O   0  0  0  0  0  0  0  0  0  0  0  0
  187.9060  176.6350  141.7310 O   0  0  0  0  0  0  0  0  0  0  0  0
  188.2590  175.3460  141.2330 C   0  0  0  0  0  2  0  0  0  0  0  0
  187.8340  174.2560  142.0390 O   0  0  0  0  0  0  0  0  0  0  0  0
  188.2010  173.0140  141.4500 C   0  0  0  0  0  2  0  0  0  0  0  0
  188.0290  172.9480  140.0390 O   0  0  0  0  0  0  0  0  0  0  0  0
  189.2250  172.1840  139.9330 C   0  0  2  0  0  3  0  0  0  0  0  0
  190.4760  172.9170  139.4670 C   0  0  2  0  0  3  0  0  0  0  0  0
  189.9530  171.7940  138.6300 C   0  0  2  0  0  3  0  0  0  0  0  0
  190.0390  173.0500  136.4680 C   0  0  0  0  0  0  0  0  0  0  0  0
  189.4900  172.2200  137.3180 C   0  0  0  0  0  3  0  0  0  0  0  0
  191.4400  173.8520  134.7210 O   0  0  0  0  0  1  0  0  0  0  0  0
  190.2790  173.9020  135.5010 C   0  0  0  0  0  0  0  0  0  0  0  0
  189.1030  174.7260  135.0360 C   0  0  0  0  0  2  0  0  0  0  0  0
  188.9780  176.1610  135.4920 C   0  0  1  0  0  3  0  0  0  0  0  0
  189.5340  177.0090  134.5130 O   0  0  0  0  0  1  0  0  0  0  0  0
  186.3020  175.9100  134.6460 O   0  0  0  0  0  1  0  0  0  0  0  0
  187.0050  175.3710  137.0870 O   0  0  0  0  0  1  0  0  0  0  0  0
  187.2470  176.6370  135.9170 P   0  0  0  0  0  0  0  0  0  0  0  0
  192.6940  172.7180  138.7900 O   0  0  0  0  0  1  0  0  0  0  0  0
  191.9230  172.4700  139.8890 C   0  0  2  0  0  3  0  0  0  0  0  0
  192.0940  171.1370  140.4860 O   0  0  0  0  0  0  0  0  0  0  0  0
  194.4830  170.8430  140.5820 O   0  0  0  0  0  1  0  0  0  0  0  0
  193.2380  170.3820  139.9940 C   0  0  0  0  0  2  0  0  0  0  0  0
  187.8270  176.9930  146.4170 C   0  0  0  0  0  3  0  0  0  0  0  0
  188.7620  177.6460  145.7050 C   0  0  0  0  0  3  0  0  0  0  0  0
  186.9540  177.7130  147.4230 C   0  0  0  0  0  2  0  0  0  0  0  0
  185.6010  177.8880  146.7500 C   0  0  2  0  0  3  0  0  0  0  0  0
  185.1330  176.5720  146.0990 C   0  0  0  0  0  1  0  0  0  0  0  0
  185.7830  178.9350  145.6680 C   0  0  0  0  0  2  0  0  0  0  0  0
  184.5240  179.0510  144.9190 C   0  0  0  0  0  0  0  0  0  0  0  0
  183.3690  179.1440  145.6790 O   0  0  0  0  0  1  0  0  0  0  0  0
  184.5050  179.1110  143.6550 O   0  0  0  0  0  0  0  0  0  0  0  0
  194.8940  175.9160  145.0370 C   0  0  0  0  0  2  0  0  0  0  0  0
  195.1560  174.9300  143.8050 C   0  0  2  0  0  3  0  0  0  0  0  0
  196.0220  170.3250  144.8560 S   0  0  0  0  0  0  0  0  0  0  0  0
  197.2610  171.5150  144.2410 C   0  0  0  0  0  2  0  0  0  0  0  0
  194.4410  172.5670  144.7550 C   0  0  0  0  0  2  0  0  0  0  0  0
  195.5060  173.4230  144.0990 C   0  0  0  0  0  3  0  0  0  0  0  0
  195.0740  171.6140  145.7390 C   0  0  0  0  0  2  0  0  0  0  0  0
  196.6380  172.6710  143.4330 C   0  0  0  0  0  2  0  0  0  0  0  0
  196.1860  175.5450  142.8930 C   0  0  0  0  0  0  0  0  0  0  0  0
  197.1900  176.0690  143.3710 O   0  0  0  0  0  0  0  0  0  0  0  0
  195.8710  175.6980  141.4300 C   0  0  0  0  0  2  0  0  0  0  0  0
  196.9270  176.2900  140.7390 O   0  0  0  0  0  1  0  0  0  0  0  0
  1  8  1  0  0  0  0
  1 35  1  1  0  0  0
  2  5  1  0  0  0  0
  3  7  1  0  0  0  0
  4  9  1  6  0  0  0
  4  1  1  0  0  0  0
  5  3  2  0  0  0  0
  5  8  1  0  0  0  0
  6  4  1  0  0  0  0
  6  2  1  0  0  0  0
 10  9  2  0  0  0  0
 11  9  1  0  0  0  0
 12 11  1  0  0  0  0
 12 13  1  0  0  0  0
 14 13  1  0  0  0  0
 15 14  1  0  0  0  0
 16 15  1  6  0  0  0
 17 30  1  1  0  0  0
 17 16  1  0  0  0  0
 18 20  1  6  0  0  0
 18 17  1  0  0  0  0
 18 16  1  0  0  0  0
 19 20  2  0  0  0  0
 21 22  1  0  0  0  0
 22 19  2  0  0  0  0
 23 24  1  0  0  0  0
 23 22  1  0  0  0  0
 24 25  1  6  0  0  0
 24 28  1  0  0  0  0
 26 28  1  0  0  0  0
 28 27  1  0  0  0  0
 30 29  1  6  0  0  0
 30 31  1  0  0  0  0
 33 31  1  0  0  0  0
 33 32  1  0  0  0  0
 34 36  1  0  0  0  0
 35 34  2  0  0  0  0
 37 38  1  6  0  0  0
 37 36  1  0  0  0  0
 39 37  1  0  0  0  0
 40 39  1  0  0  0  0
 40 41  1  0  0  0  0
 42 40  2  0  0  0  0
 43  3  1  0  0  0  0
 44 48  1  0  0  0  0
 44 43  1  1  0  0  0
 45 49  1  0  0  0  0
 46 45  1  0  0  0  0
 47 49  1  0  0  0  0
 48 47  1  0  0  0  0
 50 48  1  0  0  0  0
 50 46  1  0  0  0  0
 51 52  2  0  0  0  0
 51 44  1  0  0  0  0
 53 51  1  0  0  0  0
 54 53  1  0  0  0  0
M  END
>  <MODEL>
3

>  <REMARK>
 VINA RESULT:      -5.1      2.739      3.709
  Name = 
  24 active torsions:
  status: ('A' for Active; 'I' for Inactive)
    1  A    between atoms: C_4  and  C_11
    2  A    between atoms: C_4  and  C_31
    3  A    between atoms: C_6  and  C_38
    4  A    between atoms: C_6  and  C_46
    5  A    between atoms: C_8  and  C_38
    6  A    between atoms: C_9  and  O_12
    7  A    between atoms: C_9  and  O_29
    8  A    between atoms: O_10  and  C_22
    9  A    between atoms: O_10  and  C_41
   10  A    between atoms: O_12  and  C_42
   11  A    between atoms: C_14  and  P_26
   12  A    between atoms: C_14  and  C_52
   13  A    between atoms: C_17  and  C_31
   14  A    between atoms: O_19  and  C_33
   15  A    between atoms: O_19  and  C_50
   16  A    between atoms: C_20  and  C_45
   17  A    between atoms: C_25  and  C_37
   18  A    between atoms: C_27  and  C_42
   19  A    between atoms: C_28  and  C_46
   20  A    between atoms: O_29  and  C_41
   21  A    between atoms: C_31  and  C_37
   22  A    between atoms: C_36  and  C_50
   23  A    between atoms: C_39  and  C_43
   24  A    between atoms: C_51  and  C_52
                            x       y       z     vdW  Elec       q    Type
                         _______ _______ _______ _____ _____    ______ ____

>  <TORSDO>
F 24

$$$$
=
 OpenBabel11062418333D

 54 56  0  0  1  0  0  0  0  0999 V2000
  195.0880  170.8310  141.8310 C   0  0  2  0  0  3  0  0  0  0  0  0
  192.8570  169.4840  140.3000 C   0  0  0  0  0  2  0  0  0  0  0  0
  194.3970  169.4960  138.3350 C   0  0  0  0  0  0  0  0  0  0  0  0
  193.8120  170.2450  142.5050 C   0  0  2  0  0  3  0  0  0  0  0  0
  194.2110  169.7250  139.6650 C   0  0  0  0  0  0  0  0  0  0  0  0
  192.6450  170.4140  141.4840 C   0  0  0  0  0  2  0  0  0  0  0  0
  195.7130  169.5680  137.8690 O   0  0  0  0  0  1  0  0  0  0  0  0
  195.4380  170.1870  140.4660 C   0  0  0  0  0  2  0  0  0  0  0  0
  193.3030  170.6360  143.9310 C   0  0  0  0  0  0  0  0  0  0  0  0
  194.1000  170.8300  144.8570 O   0  0  0  0  0  0  0  0  0  0  0  0
  191.8750  170.7840  144.1110 O   0  0  0  0  0  0  0  0  0  0  0  0
  191.2840  172.0500  144.3990 C   0  0  0  0  0  2  0  0  0  0  0  0
  189.9190  172.1720  144.0260 O   0  0  0  0  0  0  0  0  0  0  0  0
  189.7970  172.5590  142.6620 C   0  0  0  0  0  2  0  0  0  0  0  0
  188.5450  173.1390  142.3160 O   0  0  0  0  0  0  0  0  0  0  0  0
  189.2190  174.3020  141.8470 C   0  0  2  0  0  3  0  0  0  0  0  0
  189.4830  175.4070  142.8610 C   0  0  2  0  0  3  0  0  0  0  0  0
  188.6140  175.7120  141.6830 C   0  0  2  0  0  3  0  0  0  0  0  0
  186.4970  177.0460  141.7150 C   0  0  0  0  0  0  0  0  0  0  0  0
  187.2380  176.0180  142.0450 C   0  0  0  0  0  3  0  0  0  0  0  0
  185.0280  178.4210  140.4470 O   0  0  0  0  0  1  0  0  0  0  0  0
  185.5860  177.9860  141.6550 C   0  0  0  0  0  0  0  0  0  0  0  0
  184.9130  178.3410  142.9580 C   0  0  0  0  0  2  0  0  0  0  0  0
  185.7610  178.6780  144.1620 C   0  0  1  0  0  3  0  0  0  0  0  0
  185.5600  180.0290  144.5080 O   0  0  0  0  0  1  0  0  0  0  0  0
  186.4870  178.2070  146.8430 O   0  0  0  0  0  1  0  0  0  0  0  0
  183.9970  178.3080  146.1140 O   0  0  0  0  0  1  0  0  0  0  0  0
  185.4720  177.5470  145.5900 P   0  0  0  0  0  0  0  0  0  0  0  0
  191.7280  175.6220  142.2850 O   0  0  0  0  0  1  0  0  0  0  0  0
  190.6980  176.3960  142.7370 C   0  0  2  0  0  3  0  0  0  0  0  0
  191.0180  177.2540  143.8880 O   0  0  0  0  0  0  0  0  0  0  0  0
  189.5460  177.2050  145.7940 O   0  0  0  0  0  1  0  0  0  0  0  0
  189.8680  177.8640  144.5410 C   0  0  0  0  0  2  0  0  0  0  0  0
  195.9030  173.1140  142.7520 C   0  0  0  0  0  3  0  0  0  0  0  0
  196.1220  171.8440  142.3700 C   0  0  0  0  0  3  0  0  0  0  0  0
  196.9690  173.9210  143.4650 C   0  0  0  0  0  2  0  0  0  0  0  0
  196.2420  174.7140  144.5400 C   0  0  2  0  0  3  0  0  0  0  0  0
  196.3350  174.0060  145.9060 C   0  0  0  0  0  1  0  0  0  0  0  0
  194.7860  174.7870  144.1210 C   0  0  0  0  0  2  0  0  0  0  0  0
  194.0990  175.7420  145.0010 C   0  0  0  0  0  0  0  0  0  0  0  0
  193.0100  175.2500  145.7020 O   0  0  0  0  0  1  0  0  0  0  0  0
  194.5130  176.9300  145.1470 O   0  0  0  0  0  0  0  0  0  0  0  0
  193.2920  169.1470  137.2940 C   0  0  0  0  0  2  0  0  0  0  0  0
  192.6170  170.4380  136.6350 C   0  0  2  0  0  3  0  0  0  0  0  0
  193.7960  174.7850  138.3000 S   0  0  0  0  0  0  0  0  0  0  0  0
  192.8870  173.5100  139.2370 C   0  0  0  0  0  2  0  0  0  0  0  0
  193.8380  172.7760  136.4300 C   0  0  0  0  0  2  0  0  0  0  0  0
  192.9410  171.8570  137.2360 C   0  0  0  0  0  3  0  0  0  0  0  0
  194.7500  173.5500  137.3490 C   0  0  0  0  0  2  0  0  0  0  0  0
  192.1320  172.5200  138.3300 C   0  0  0  0  0  2  0  0  0  0  0  0
  191.1270  170.2260  136.5510 C   0  0  0  0  0  0  0  0  0  0  0  0
  190.5750  169.4570  137.3370 O   0  0  0  0  0  0  0  0  0  0  0  0
  190.3710  170.7890  135.3790 C   0  0  0  0  0  2  0  0  0  0  0  0
  189.8050  172.0260  135.6810 O   0  0  0  0  0  1  0  0  0  0  0  0
  1 35  1  1  0  0  0
  1  4  1  0  0  0  0
  2  6  1  0  0  0  0
  3  5  2  0  0  0  0
  4  9  1  1  0  0  0
  5  2  1  0  0  0  0
  5  8  1  0  0  0  0
  6  4  1  0  0  0  0
  7  3  1  0  0  0  0
  8  1  1  0  0  0  0
  9 11  1  0  0  0  0
  9 10  2  0  0  0  0
 11 12  1  0  0  0  0
 13 12  1  0  0  0  0
 14 13  1  0  0  0  0
 15 14  1  0  0  0  0
 16 15  1  1  0  0  0
 16 17  1  0  0  0  0
 17 30  1  6  0  0  0
 18 16  1  0  0  0  0
 18 20  1  1  0  0  0
 18 17  1  0  0  0  0
 19 20  2  0  0  0  0
 21 22  1  0  0  0  0
 22 19  2  0  0  0  0
 22 23  1  0  0  0  0
 23 24  1  0  0  0  0
 24 25  1  1  0  0  0
 24 28  1  0  0  0  0
 28 27  1  0  0  0  0
 28 26  1  0  0  0  0
 30 29  1  1  0  0  0
 30 31  1  0  0  0  0
 31 33  1  0  0  0  0
 33 32  1  0  0  0  0
 34 36  1  0  0  0  0
 35 34  2  0  0  0  0
 36 37  1  0  0  0  0
 37 38  1  1  0  0  0
 39 37  1  0  0  0  0
 39 40  1  0  0  0  0
 40 42  2  0  0  0  0
 40 41  1  0  0  0  0
 43  3  1  0  0  0  0
 44 48  1  0  0  0  0
 44 43  1  1  0  0  0
 45 46  1  0  0  0  0
 47 48  1  0  0  0  0
 47 49  1  0  0  0  0
 48 50  1  0  0  0  0
 49 45  1  0  0  0  0
 50 46  1  0  0  0  0
 51 44  1  0  0  0  0
 51 52  2  0  0  0  0
 53 54  1  0  0  0  0
 53 51  1  0  0  0  0
M  END
>  <MODEL>
4

>  <REMARK>
 VINA RESULT:      -5.1      3.050      9.544
  Name = 
  24 active torsions:
  status: ('A' for Active; 'I' for Inactive)
    1  A    between atoms: C_4  and  C_11
    2  A    between atoms: C_4  and  C_31
    3  A    between atoms: C_6  and  C_38
    4  A    between atoms: C_6  and  C_46
    5  A    between atoms: C_8  and  C_38
    6  A    between atoms: C_9  and  O_12
    7  A    between atoms: C_9  and  O_29
    8  A    between atoms: O_10  and  C_22
    9  A    between atoms: O_10  and  C_41
   10  A    between atoms: O_12  and  C_42
   11  A    between atoms: C_14  and  P_26
   12  A    between atoms: C_14  and  C_52
   13  A    between atoms: C_17  and  C_31
   14  A    between atoms: O_19  and  C_33
   15  A    between atoms: O_19  and  C_50
   16  A    between atoms: C_20  and  C_45
   17  A    between atoms: C_25  and  C_37
   18  A    between atoms: C_27  and  C_42
   19  A    between atoms: C_28  and  C_46
   20  A    between atoms: O_29  and  C_41
   21  A    between atoms: C_31  and  C_37
   22  A    between atoms: C_36  and  C_50
   23  A    between atoms: C_39  and  C_43
   24  A    between atoms: C_51  and  C_52
                            x       y       z     vdW  Elec       q    Type
                         _______ _______ _______ _____ _____    ______ ____

>  <TORSDO>
F 24

$$$$
=
 OpenBabel11062418333D

 54 56  0  0  1  0  0  0  0  0999 V2000
  192.7290  175.4660  143.1170 C   0  0  2  0  0  3  0  0  0  0  0  0
  190.1090  175.5700  144.6230 C   0  0  0  0  0  2  0  0  0  0  0  0
  188.9960  175.2330  142.4140 C   0  0  0  0  0  0  0  0  0  0  0  0
  192.6250  175.4110  144.6710 C   0  0  2  0  0  3  0  0  0  0  0  0
  190.1500  175.2810  143.1360 C   0  0  0  0  0  0  0  0  0  0  0  0
  191.3840  176.2680  145.0700 C   0  0  0  0  0  2  0  0  0  0  0  0
  189.1050  174.7830  141.0950 O   0  0  0  0  0  1  0  0  0  0  0  0
  191.4530  174.9870  142.3780 C   0  0  0  0  0  2  0  0  0  0  0  0
  193.8010  175.7300  145.6500 C   0  0  0  0  0  0  0  0  0  0  0  0
  193.9380  176.8620  146.1280 O   0  0  0  0  0  0  0  0  0  0  0  0
  194.6990  174.6460  145.9890 O   0  0  0  0  0  0  0  0  0  0  0  0
  196.0480  174.6190  145.5250 C   0  0  0  0  0  2  0  0  0  0  0  0
  196.4520  173.3920  144.9340 O   0  0  0  0  0  0  0  0  0  0  0  0
  196.1930  173.3910  143.5350 C   0  0  0  0  0  2  0  0  0  0  0  0
  196.1800  172.1040  142.9310 O   0  0  0  0  0  0  0  0  0  0  0  0
  195.3350  171.6290  143.9740 C   0  0  2  0  0  3  0  0  0  0  0  0
  194.7280  170.2440  143.7960 C   0  0  2  0  0  3  0  0  0  0  0  0
  193.8080  171.4190  143.8960 C   0  0  2  0  0  3  0  0  0  0  0  0
  191.7910  171.4060  142.4170 C   0  0  0  0  0  0  0  0  0  0  0  0
  193.0480  171.6610  142.6800 C   0  0  0  0  0  3  0  0  0  0  0  0
  189.4310  171.6880  142.3180 O   0  0  0  0  0  1  0  0  0  0  0  0
  190.6380  171.1660  141.8400 C   0  0  0  0  0  0  0  0  0  0  0  0
  190.7020  170.5870  140.4470 C   0  0  0  0  0  2  0  0  0  0  0  0
  191.3800  171.3730  139.3500 C   0  0  1  0  0  3  0  0  0  0  0  0
  192.3680  170.5690  138.7470 O   0  0  0  0  0  1  0  0  0  0  0  0
  188.6950  172.1490  138.9930 O   0  0  0  0  0  1  0  0  0  0  0  0
  190.6560  173.7220  138.3410 O   0  0  0  0  0  1  0  0  0  0  0  0
  190.1960  172.0590  138.1120 P   0  0  0  0  0  0  0  0  0  0  0  0
  193.0460  168.9790  144.7920 O   0  0  0  0  0  1  0  0  0  0  0  0
  194.3470  169.3250  145.0140 C   0  0  2  0  0  3  0  0  0  0  0  0
  194.6440  169.8090  146.3710 O   0  0  0  0  0  0  0  0  0  0  0  0
  196.3530  168.8460  147.7700 O   0  0  0  0  0  1  0  0  0  0  0  0
  194.9680  168.7700  147.3390 C   0  0  0  0  0  2  0  0  0  0  0  0
  194.2010  175.2930  140.9900 C   0  0  0  0  0  3  0  0  0  0  0  0
  193.9370  175.7880  142.2110 C   0  0  0  0  0  3  0  0  0  0  0  0
  195.3080  175.8630  140.1270 C   0  0  0  0  0  2  0  0  0  0  0  0
  195.4840  174.8850  138.9750 C   0  0  2  0  0  3  0  0  0  0  0  0
  195.1460  173.4470  139.4150 C   0  0  0  0  0  1  0  0  0  0  0  0
  196.9450  174.9450  138.5700 C   0  0  0  0  0  2  0  0  0  0  0  0
  197.4940  173.5840  138.6190 C   0  0  0  0  0  0  0  0  0  0  0  0
  197.5460  172.9030  137.4140 O   0  0  0  0  0  0  0  0  0  0  0  0
  197.9410  173.0850  139.6940 O   0  0  0  0  0  1  0  0  0  0  0  0
  187.5730  175.6120  142.9200 C   0  0  0  0  0  2  0  0  0  0  0  0
  187.4910  177.0920  143.5220 C   0  0  2  0  0  3  0  0  0  0  0  0
  185.5360  177.6610  147.8700 S   0  0  0  0  0  0  0  0  0  0  0  0
  187.1550  178.3220  147.3500 C   0  0  0  0  0  2  0  0  0  0  0  0
  185.5060  176.8380  145.2520 C   0  0  0  0  0  2  0  0  0  0  0  0
  186.9270  177.2910  144.9780 C   0  0  0  0  0  3  0  0  0  0  0  0
  184.8250  177.8020  146.1920 C   0  0  0  0  0  2  0  0  0  0  0  0
  187.7920  177.5190  146.1990 C   0  0  0  0  0  2  0  0  0  0  0  0
  186.7650  177.9810  142.5460 C   0  0  0  0  0  0  0  0  0  0  0  0
  186.6250  179.1770  142.7970 O   0  0  0  0  0  0  0  0  0  0  0  0
  186.0370  177.3570  141.3870 C   0  0  0  0  0  2  0  0  0  0  0  0
  186.6560  177.6530  140.1740 O   0  0  0  0  0  1  0  0  0  0  0  0
  1 35  1  6  0  0  0
  1  4  1  0  0  0  0
  2  6  1  0  0  0  0
  3 43  1  0  0  0  0
  3  5  2  0  0  0  0
  4  6  1  0  0  0  0
  4  9  1  1  0  0  0
  5  2  1  0  0  0  0
  7  3  1  0  0  0  0
  8  1  1  0  0  0  0
  8  5  1  0  0  0  0
  9 11  1  0  0  0  0
  9 10  2  0  0  0  0
 12 11  1  0  0  0  0
 13 12  1  0  0  0  0
 14 13  1  0  0  0  0
 15 14  1  0  0  0  0
 16 15  1  6  0  0  0
 17 18  1  0  0  0  0
 17 16  1  0  0  0  0
 17 30  1  1  0  0  0
 18 20  1  6  0  0  0
 18 16  1  0  0  0  0
 19 20  2  0  0  0  0
 22 21  1  0  0  0  0
 22 19  2  0  0  0  0
 23 22  1  0  0  0  0
 24 25  1  6  0  0  0
 24 23  1  0  0  0  0
 28 27  1  0  0  0  0
 28 26  1  0  0  0  0
 28 24  1  0  0  0  0
 30 29  1  1  0  0  0
 30 31  1  0  0  0  0
 31 33  1  0  0  0  0
 33 32  1  0  0  0  0
 34 35  2  0  0  0  0
 36 34  1  0  0  0  0
 37 38  1  1  0  0  0
 37 36  1  0  0  0  0
 39 40  1  0  0  0  0
 39 37  1  0  0  0  0
 40 42  1  0  0  0  0
 41 40  2  0  0  0  0
 44 43  1  6  0  0  0
 44 48  1  0  0  0  0
 46 45  1  0  0  0  0
 47 49  1  0  0  0  0
 48 47  1  0  0  0  0
 48 50  1  0  0  0  0
 49 45  1  0  0  0  0
 50 46  1  0  0  0  0
 51 52  2  0  0  0  0
 51 44  1  0  0  0  0
 53 51  1  0  0  0  0
 54 53  1  0  0  0  0
M  END
>  <MODEL>
5

>  <REMARK>
 VINA RESULT:      -5.1      2.825      8.622
  Name = 
  24 active torsions:
  status: ('A' for Active; 'I' for Inactive)
    1  A    between atoms: C_4  and  C_11
    2  A    between atoms: C_4  and  C_31
    3  A    between atoms: C_6  and  C_38
    4  A    between atoms: C_6  and  C_46
    5  A    between atoms: C_8  and  C_38
    6  A    between atoms: C_9  and  O_12
    7  A    between atoms: C_9  and  O_29
    8  A    between atoms: O_10  and  C_22
    9  A    between atoms: O_10  and  C_41
   10  A    between atoms: O_12  and  C_42
   11  A    between atoms: C_14  and  P_26
   12  A    between atoms: C_14  and  C_52
   13  A    between atoms: C_17  and  C_31
   14  A    between atoms: O_19  and  C_33
   15  A    between atoms: O_19  and  C_50
   16  A    between atoms: C_20  and  C_45
   17  A    between atoms: C_25  and  C_37
   18  A    between atoms: C_27  and  C_42
   19  A    between atoms: C_28  and  C_46
   20  A    between atoms: O_29  and  C_41
   21  A    between atoms: C_31  and  C_37
   22  A    between atoms: C_36  and  C_50
   23  A    between atoms: C_39  and  C_43
   24  A    between atoms: C_51  and  C_52
                            x       y       z     vdW  Elec       q    Type
                         _______ _______ _______ _____ _____    ______ ____

>  <TORSDO>
F 24

$$$$
=
 OpenBabel11062418333D

 54 56  0  0  1  0  0  0  0  0999 V2000
  195.5270  174.3660  139.0440 C   0  0  2  0  0  3  0  0  0  0  0  0
  193.3620  175.2650  140.9530 C   0  0  0  0  0  2  0  0  0  0  0  0
  195.1880  176.3040  142.3020 C   0  0  0  0  0  0  0  0  0  0  0  0
  194.0050  174.2880  138.7200 C   0  0  2  0  0  3  0  0  0  0  0  0
  194.8080  175.6700  141.1580 C   0  0  0  0  0  0  0  0  0  0  0  0
  193.2690  174.0300  140.0720 C   0  0  0  0  0  2  0  0  0  0  0  0
  196.4940  176.8030  142.3330 O   0  0  0  0  0  1  0  0  0  0  0  0
  195.8970  175.4390  140.0990 C   0  0  0  0  0  2  0  0  0  0  0  0
  193.3790  173.3740  137.6160 C   0  0  0  0  0  0  0  0  0  0  0  0
  193.6020  173.5850  136.4180 O   0  0  0  0  0  0  0  0  0  0  0  0
  192.5560  172.2670  138.0550 O   0  0  0  0  0  0  0  0  0  0  0  0
  191.1620  172.2070  137.7580 C   0  0  0  0  0  2  0  0  0  0  0  0
  190.3650  173.1740  138.4270 O   0  0  0  0  0  0  0  0  0  0  0  0
  189.2690  172.5570  139.0910 C   0  0  0  0  0  2  0  0  0  0  0  0
  188.5800  173.3950  140.0110 O   0  0  0  0  0  0  0  0  0  0  0  0
  189.6230  173.2020  140.9610 C   0  0  2  0  0  3  0  0  0  0  0  0
  189.2060  172.8890  142.3920 C   0  0  2  0  0  3  0  0  0  0  0  0
  189.9830  174.1400  142.1320 C   0  0  2  0  0  3  0  0  0  0  0  0
  189.0150  175.9470  143.5670 C   0  0  0  0  0  0  0  0  0  0  0  0
  189.2350  175.3540  142.4200 C   0  0  0  0  0  3  0  0  0  0  0  0
  189.3640  177.3470  145.4570 O   0  0  0  0  0  1  0  0  0  0  0  0
  188.5390  176.6720  144.5490 C   0  0  0  0  0  0  0  0  0  0  0  0
  187.0760  177.0320  144.4600 C   0  0  0  0  0  2  0  0  0  0  0  0
  186.6520  178.4670  144.6680 C   0  0  1  0  0  3  0  0  0  0  0  0
  186.0930  178.9630  143.4720 O   0  0  0  0  0  1  0  0  0  0  0  0
  184.6830  177.1600  146.2000 O   0  0  0  0  0  1  0  0  0  0  0  0
  186.7120  178.3310  147.3200 O   0  0  0  0  0  1  0  0  0  0  0  0
  185.5180  178.6860  146.1050 P   0  0  0  0  0  0  0  0  0  0  0  0
  189.7090  172.4280  144.6180 O   0  0  0  0  0  1  0  0  0  0  0  0
  190.1060  172.0470  143.3680 C   0  0  2  0  0  3  0  0  0  0  0  0
  191.5600  172.0430  143.1470 O   0  0  0  0  0  0  0  0  0  0  0  0
  192.2350  170.8410  141.1720 O   0  0  0  0  0  1  0  0  0  0  0  0
  192.1000  170.7990  142.6180 C   0  0  0  0  0  2  0  0  0  0  0  0
  196.7460  172.4070  137.8600 C   0  0  0  0  0  3  0  0  0  0  0  0
  196.7230  173.6450  138.3850 C   0  0  0  0  0  3  0  0  0  0  0  0
  197.9280  171.9140  137.0510 C   0  0  0  0  0  2  0  0  0  0  0  0
  197.3380  171.1610  135.8680 C   0  0  2  0  0  3  0  0  0  0  0  0
  197.3510  172.0340  134.5970 C   0  0  0  0  0  1  0  0  0  0  0  0
  195.9010  170.8380  136.2280 C   0  0  0  0  0  2  0  0  0  0  0  0
  195.2350  170.2980  135.0340 C   0  0  0  0  0  0  0  0  0  0  0  0
  195.7310  169.0990  134.5500 O   0  0  0  0  0  1  0  0  0  0  0  0
  194.2350  170.8740  134.5130 O   0  0  0  0  0  0  0  0  0  0  0  0
  194.3070  176.5400  143.5640 C   0  0  0  0  0  2  0  0  0  0  0  0
  194.9910  176.0260  144.9150 C   0  0  2  0  0  3  0  0  0  0  0  0
  196.4990  171.4940  145.4130 S   0  0  0  0  0  0  0  0  0  0  0  0
  195.6990  172.1790  143.9220 C   0  0  0  0  0  2  0  0  0  0  0  0
  196.2280  174.0970  146.2390 C   0  0  0  0  0  2  0  0  0  0  0  0
  195.4320  174.5170  145.0190 C   0  0  0  0  0  3  0  0  0  0  0  0
  197.2800  173.0870  145.8500 C   0  0  0  0  0  2  0  0  0  0  0  0
  194.8000  173.3940  144.2260 C   0  0  0  0  0  2  0  0  0  0  0  0
  194.1180  176.4040  146.0840 C   0  0  0  0  0  0  0  0  0  0  0  0
  194.5350  177.1990  146.9250 O   0  0  0  0  0  0  0  0  0  0  0  0
  192.8410  175.6460  146.3210 C   0  0  0  0  0  2  0  0  0  0  0  0
  192.1050  176.1980  147.3690 O   0  0  0  0  0  1  0  0  0  0  0  0
  1 35  1  6  0  0  0
  1  8  1  0  0  0  0
  2  5  1  0  0  0  0
  3  7  1  0  0  0  0
  3 43  1  0  0  0  0
  4  9  1  6  0  0  0
  4  1  1  0  0  0  0
  4  6  1  0  0  0  0
  5  3  2  0  0  0  0
  6  2  1  0  0  0  0
  8  5  1  0  0  0  0
  9 11  1  0  0  0  0
 10  9  2  0  0  0  0
 12 11  1  0  0  0  0
 12 13  1  0  0  0  0
 13 14  1  0  0  0  0
 14 15  1  0  0  0  0
 16 15  1  6  0  0  0
 16 18  1  0  0  0  0
 16 17  1  0  0  0  0
 17 30  1  1  0  0  0
 18 17  1  0  0  0  0
 18 20  1  6  0  0  0
 19 22  2  0  0  0  0
 20 19  2  0  0  0  0
 22 21  1  0  0  0  0
 23 22  1  0  0  0  0
 23 24  1  0  0  0  0
 24 25  1  6  0  0  0
 24 28  1  0  0  0  0
 28 26  1  0  0  0  0
 28 27  1  0  0  0  0
 30 29  1  1  0  0  0
 31 30  1  0  0  0  0
 32 33  1  0  0  0  0
 33 31  1  0  0  0  0
 34 35  2  0  0  0  0
 36 34  1  0  0  0  0
 37 38  1  6  0  0  0
 37 39  1  0  0  0  0
 37 36  1  0  0  0  0
 40 39  1  0  0  0  0
 41 40  1  0  0  0  0
 42 40  2  0  0  0  0
 44 43  1  6  0  0  0
 44 48  1  0  0  0  0
 44 51  1  0  0  0  0
 45 49  1  0  0  0  0
 46 50  1  0  0  0  0
 46 45  1  0  0  0  0
 48 47  1  0  0  0  0
 49 47  1  0  0  0  0
 50 48  1  0  0  0  0
 51 53  1  0  0  0  0
 51 52  2  0  0  0  0
 53 54  1  0  0  0  0
M  END
>  <MODEL>
6

>  <REMARK>
 VINA RESULT:      -4.9      2.728      9.227
  Name = 
  24 active torsions:
  status: ('A' for Active; 'I' for Inactive)
    1  A    between atoms: C_4  and  C_11
    2  A    between atoms: C_4  and  C_31
    3  A    between atoms: C_6  and  C_38
    4  A    between atoms: C_6  and  C_46
    5  A    between atoms: C_8  and  C_38
    6  A    between atoms: C_9  and  O_12
    7  A    between atoms: C_9  and  O_29
    8  A    between atoms: O_10  and  C_22
    9  A    between atoms: O_10  and  C_41
   10  A    between atoms: O_12  and  C_42
   11  A    between atoms: C_14  and  P_26
   12  A    between atoms: C_14  and  C_52
   13  A    between atoms: C_17  and  C_31
   14  A    between atoms: O_19  and  C_33
   15  A    between atoms: O_19  and  C_50
   16  A    between atoms: C_20  and  C_45
   17  A    between atoms: C_25  and  C_37
   18  A    between atoms: C_27  and  C_42
   19  A    between atoms: C_28  and  C_46
   20  A    between atoms: O_29  and  C_41
   21  A    between atoms: C_31  and  C_37
   22  A    between atoms: C_36  and  C_50
   23  A    between atoms: C_39  and  C_43
   24  A    between atoms: C_51  and  C_52
                            x       y       z     vdW  Elec       q    Type
                         _______ _______ _______ _____ _____    ______ ____

>  <TORSDO>
F 24

$$$$
=
 OpenBabel11062418333D

 54 56  0  0  1  0  0  0  0  0999 V2000
  190.6520  171.9340  140.4310 C   0  0  2  0  0  3  0  0  0  0  0  0
  190.9720  173.6690  142.8860 C   0  0  0  0  0  2  0  0  0  0  0  0
  188.8970  174.8440  142.1450 C   0  0  0  0  0  0  0  0  0  0  0  0
  191.6520  171.6200  141.5830 C   0  0  2  0  0  3  0  0  0  0  0  0
  189.7710  173.8130  141.9730 C   0  0  0  0  0  0  0  0  0  0  0  0
  192.1230  172.9930  142.1570 C   0  0  0  0  0  2  0  0  0  0  0  0
  187.7260  174.8000  141.3830 O   0  0  0  0  0  1  0  0  0  0  0  0
  189.4460  172.8080  140.8580 C   0  0  0  0  0  2  0  0  0  0  0  0
  192.8880  170.6720  141.4510 C   0  0  0  0  0  0  0  0  0  0  0  0
  193.3470  170.3800  140.3400 O   0  0  0  0  0  0  0  0  0  0  0  0
  193.4810  170.1750  142.6750 O   0  0  0  0  0  0  0  0  0  0  0  0
  194.8400  169.7430  142.7270 C   0  0  0  0  0  2  0  0  0  0  0  0
  195.7950  170.7260  142.3510 O   0  0  0  0  0  0  0  0  0  0  0  0
  196.3570  171.3530  143.4980 C   0  0  0  0  0  2  0  0  0  0  0  0
  197.4860  172.1760  143.2340 O   0  0  0  0  0  0  0  0  0  0  0  0
  197.1390  173.0010  144.3410 C   0  0  2  0  0  3  0  0  0  0  0  0
  195.8140  173.7470  144.2590 C   0  0  2  0  0  3  0  0  0  0  0  0
  197.0760  174.5430  144.3550 C   0  0  2  0  0  3  0  0  0  0  0  0
  196.6480  175.4620  142.0670 C   0  0  0  0  0  0  0  0  0  0  0  0
  197.3430  175.3460  143.1710 C   0  0  0  0  0  3  0  0  0  0  0  0
  194.9930  176.2360  140.5440 O   0  0  0  0  0  1  0  0  0  0  0  0
  196.2430  175.6790  140.8400 C   0  0  0  0  0  0  0  0  0  0  0  0
  197.3080  175.6270  139.7710 C   0  0  0  0  0  2  0  0  0  0  0  0
  197.2720  174.5190  138.7440 C   0  0  1  0  0  3  0  0  0  0  0  0
  196.9400  173.3070  139.3810 O   0  0  0  0  0  1  0  0  0  0  0  0
  197.1010  175.9490  136.3230 O   0  0  0  0  0  1  0  0  0  0  0  0
  196.5090  173.4250  136.4470 O   0  0  0  0  0  1  0  0  0  0  0  0
  196.1530  174.8850  137.3240 P   0  0  0  0  0  0  0  0  0  0  0  0
  193.6910  173.8670  145.2070 O   0  0  0  0  0  1  0  0  0  0  0  0
  194.9860  174.1430  145.5360 C   0  0  2  0  0  3  0  0  0  0  0  0
  195.2130  175.4700  146.1290 O   0  0  0  0  0  0  0  0  0  0  0  0
  194.1910  177.5270  146.8560 O   0  0  0  0  0  1  0  0  0  0  0  0
  194.1530  176.4400  145.8930 C   0  0  0  0  0  2  0  0  0  0  0  0
  189.8200  170.4240  138.4940 C   0  0  0  0  0  3  0  0  0  0  0  0
  190.6040  171.4010  138.9820 C   0  0  0  0  0  3  0  0  0  0  0  0
  189.7250  170.1560  137.0060 C   0  0  0  0  0  2  0  0  0  0  0  0
  190.2950  171.3900  136.3230 C   0  0  2  0  0  3  0  0  0  0  0  0
  189.3130  171.9430  135.2720 C   0  0  0  0  0  1  0  0  0  0  0  0
  191.5690  170.9530  135.6250 C   0  0  0  0  0  2  0  0  0  0  0  0
  192.6420  171.8850  135.9970 C   0  0  0  0  0  0  0  0  0  0  0  0
  192.3300  173.2330  135.9320 O   0  0  0  0  0  0  0  0  0  0  0  0
  193.7700  171.4740  136.4010 O   0  0  0  0  0  1  0  0  0  0  0  0
  189.0710  176.0500  143.1140 C   0  0  0  0  0  2  0  0  0  0  0  0
  188.2620  175.8800  144.4830 C   0  0  2  0  0  3  0  0  0  0  0  0
  184.8480  178.9820  145.8160 S   0  0  0  0  0  0  0  0  0  0  0  0
  185.5160  178.8150  144.1260 C   0  0  0  0  0  2  0  0  0  0  0  0
  186.5680  176.8870  146.2480 C   0  0  0  0  0  2  0  0  0  0  0  0
  187.1630  176.9440  144.8550 C   0  0  0  0  0  3  0  0  0  0  0  0
  185.0950  177.2120  146.1980 C   0  0  0  0  0  2  0  0  0  0  0  0
  186.9440  178.2370  144.0980 C   0  0  0  0  0  2  0  0  0  0  0  0
  189.2410  175.7120  145.6170 C   0  0  0  0  0  0  0  0  0  0  0  0
  189.0330  174.8630  146.4820 O   0  0  0  0  0  0  0  0  0  0  0  0
  190.3400  176.7230  145.7910 C   0  0  0  0  0  2  0  0  0  0  0  0
  190.1250  177.5250  146.9110 O   0  0  0  0  0  1  0  0  0  0  0  0
  1 35  1  1  0  0  0
  1  8  1  0  0  0  0
  1  4  1  0  0  0  0
  3 43  1  0  0  0  0
  4  9  1  6  0  0  0
  4  6  1  0  0  0  0
  5  3  2  0  0  0  0
  5  2  1  0  0  0  0
  6  2  1  0  0  0  0
  7  3  1  0  0  0  0
  8  5  1  0  0  0  0
  9 11  1  0  0  0  0
 10  9  2  0  0  0  0
 11 12  1  0  0  0  0
 13 12  1  0  0  0  0
 13 14  1  0  0  0  0
 15 14  1  0  0  0  0
 16 15  1  6  0  0  0
 16 18  1  0  0  0  0
 17 16  1  0  0  0  0
 17 18  1  0  0  0  0
 17 30  1  1  0  0  0
 18 20  1  6  0  0  0
 19 20  2  0  0  0  0
 21 22  1  0  0  0  0
 22 19  2  0  0  0  0
 23 22  1  0  0  0  0
 24 25  1  1  0  0  0
 24 23  1  0  0  0  0
 26 28  1  0  0  0  0
 27 28  1  0  0  0  0
 28 24  1  0  0  0  0
 30 29  1  6  0  0  0
 30 31  1  0  0  0  0
 33 31  1  0  0  0  0
 33 32  1  0  0  0  0
 34 35  2  0  0  0  0
 36 34  1  0  0  0  0
 37 38  1  6  0  0  0
 37 36  1  0  0  0  0
 39 40  1  0  0  0  0
 39 37  1  0  0  0  0
 40 42  1  0  0  0  0
 41 40  2  0  0  0  0
 44 43  1  6  0  0  0
 44 48  1  0  0  0  0
 44 51  1  0  0  0  0
 45 49  1  0  0  0  0
 46 45  1  0  0  0  0
 48 47  1  0  0  0  0
 49 47  1  0  0  0  0
 50 46  1  0  0  0  0
 50 48  1  0  0  0  0
 51 53  1  0  0  0  0
 51 52  2  0  0  0  0
 53 54  1  0  0  0  0
M  END
>  <MODEL>
7

>  <REMARK>
 VINA RESULT:      -4.9      2.877      8.658
  Name = 
  24 active torsions:
  status: ('A' for Active; 'I' for Inactive)
    1  A    between atoms: C_4  and  C_11
    2  A    between atoms: C_4  and  C_31
    3  A    between atoms: C_6  and  C_38
    4  A    between atoms: C_6  and  C_46
    5  A    between atoms: C_8  and  C_38
    6  A    between atoms: C_9  and  O_12
    7  A    between atoms: C_9  and  O_29
    8  A    between atoms: O_10  and  C_22
    9  A    between atoms: O_10  and  C_41
   10  A    between atoms: O_12  and  C_42
   11  A    between atoms: C_14  and  P_26
   12  A    between atoms: C_14  and  C_52
   13  A    between atoms: C_17  and  C_31
   14  A    between atoms: O_19  and  C_33
   15  A    between atoms: O_19  and  C_50
   16  A    between atoms: C_20  and  C_45
   17  A    between atoms: C_25  and  C_37
   18  A    between atoms: C_27  and  C_42
   19  A    between atoms: C_28  and  C_46
   20  A    between atoms: O_29  and  C_41
   21  A    between atoms: C_31  and  C_37
   22  A    between atoms: C_36  and  C_50
   23  A    between atoms: C_39  and  C_43
   24  A    between atoms: C_51  and  C_52
                            x       y       z     vdW  Elec       q    Type
                         _______ _______ _______ _____ _____    ______ ____

>  <TORSDO>
F 24

$$$$
=
 OpenBabel11062418333D

 54 56  0  0  1  0  0  0  0  0999 V2000
  191.1330  173.4110  141.1220 C   0  0  2  0  0  3  0  0  0  0  0  0
  188.1440  173.5520  141.5530 C   0  0  0  0  0  2  0  0  0  0  0  0
  188.5300  175.8490  142.4500 C   0  0  0  0  0  0  0  0  0  0  0  0
  190.1280  172.3720  140.5400 C   0  0  2  0  0  3  0  0  0  0  0  0
  189.0350  174.7450  141.8340 C   0  0  0  0  0  0  0  0  0  0  0  0
  188.9520  172.2640  141.5590 C   0  0  0  0  0  2  0  0  0  0  0  0
  189.3660  176.9670  142.5070 O   0  0  0  0  0  1  0  0  0  0  0  0
  190.5110  174.8010  141.4130 C   0  0  0  0  0  2  0  0  0  0  0  0
  190.5180  170.9370  140.0560 C   0  0  0  0  0  0  0  0  0  0  0  0
  190.1190  170.5060  138.9670 O   0  0  0  0  0  0  0  0  0  0  0  0
  191.3770  170.1530  140.9180 O   0  0  0  0  0  0  0  0  0  0  0  0
  190.9060  168.9800  141.5770 C   0  0  0  0  0  2  0  0  0  0  0  0
  191.7140  168.5360  142.6580 O   0  0  0  0  0  0  0  0  0  0  0  0
  192.6670  169.5270  143.0220 C   0  0  0  0  0  2  0  0  0  0  0  0
  192.6720  169.8720  144.4020 O   0  0  0  0  0  0  0  0  0  0  0  0
  193.9240  170.5270  144.2290 C   0  0  2  0  0  3  0  0  0  0  0  0
  194.5180  171.2190  145.4480 C   0  0  2  0  0  3  0  0  0  0  0  0
  194.1750  172.0500  144.2530 C   0  0  2  0  0  3  0  0  0  0  0  0
  193.0550  173.9780  145.3880 C   0  0  0  0  0  0  0  0  0  0  0  0
  193.1140  173.0130  144.5050 C   0  0  0  0  0  3  0  0  0  0  0  0
  193.3630  176.1190  146.3760 O   0  0  0  0  0  1  0  0  0  0  0  0
  192.6700  174.9140  146.2210 C   0  0  0  0  0  0  0  0  0  0  0  0
  191.2630  174.7880  146.7540 C   0  0  0  0  0  2  0  0  0  0  0  0
  190.1160  175.3760  145.9650 C   0  0  1  0  0  3  0  0  0  0  0  0
  189.0340  174.4720  145.9770 O   0  0  0  0  0  1  0  0  0  0  0  0
  190.7930  177.4160  147.7850 O   0  0  0  0  0  1  0  0  0  0  0  0
  190.4220  177.9200  145.2650 O   0  0  0  0  0  1  0  0  0  0  0  0
  189.6230  177.0550  146.5460 P   0  0  0  0  0  0  0  0  0  0  0  0
  196.4350  170.3870  146.4730 O   0  0  0  0  0  1  0  0  0  0  0  0
  196.0660  171.4070  145.6440 C   0  0  2  0  0  3  0  0  0  0  0  0
  196.5640  172.7370  146.0260 O   0  0  0  0  0  0  0  0  0  0  0  0
  197.3280  173.7060  143.9570 O   0  0  0  0  0  1  0  0  0  0  0  0
  197.7130  173.2080  145.2660 C   0  0  0  0  0  2  0  0  0  0  0  0
  193.6170  173.3820  140.3770 C   0  0  0  0  0  3  0  0  0  0  0  0
  192.6610  173.3150  141.3210 C   0  0  0  0  0  3  0  0  0  0  0  0
  195.0830  173.4920  140.7420 C   0  0  0  0  0  2  0  0  0  0  0  0
  195.5780  174.7780  140.0970 C   0  0  2  0  0  3  0  0  0  0  0  0
  194.9700  176.0120  140.7900 C   0  0  0  0  0  1  0  0  0  0  0  0
  195.1180  174.7470  138.6520 C   0  0  0  0  0  2  0  0  0  0  0  0
  196.2740  174.4240  137.8060 C   0  0  0  0  0  0  0  0  0  0  0  0
  196.1030  173.3770  136.9150 O   0  0  0  0  0  0  0  0  0  0  0  0
  197.3450  175.0980  137.8550 O   0  0  0  0  0  1  0  0  0  0  0  0
  187.1120  175.9900  143.0780 C   0  0  0  0  0  2  0  0  0  0  0  0
  186.6450  177.5100  143.2480 C   0  0  2  0  0  3  0  0  0  0  0  0
  184.6790  178.6440  147.4790 S   0  0  0  0  0  0  0  0  0  0  0  0
  184.7340  179.7370  146.0180 C   0  0  0  0  0  2  0  0  0  0  0  0
  185.8770  176.9210  145.7100 C   0  0  0  0  0  2  0  0  0  0  0  0
  186.0110  177.9620  144.6170 C   0  0  0  0  0  3  0  0  0  0  0  0
  184.5870  177.1260  146.4670 C   0  0  0  0  0  2  0  0  0  0  0  0
  185.8970  179.4040  145.0620 C   0  0  0  0  0  2  0  0  0  0  0  0
  185.7440  177.8800  142.0990 C   0  0  0  0  0  0  0  0  0  0  0  0
  184.5240  177.8970  142.2600 O   0  0  0  0  0  0  0  0  0  0  0  0
  186.3300  178.0140  140.7200 C   0  0  0  0  0  2  0  0  0  0  0  0
  185.7750  177.0890  139.8360 O   0  0  0  0  0  1  0  0  0  0  0  0
  1 35  1  6  0  0  0
  1  8  1  0  0  0  0
  2  6  1  0  0  0  0
  2  5  1  0  0  0  0
  3  7  1  0  0  0  0
  3 43  1  0  0  0  0
  4  9  1  1  0  0  0
  4  1  1  0  0  0  0
  4  6  1  0  0  0  0
  5  3  2  0  0  0  0
  8  5  1  0  0  0  0
  9 11  1  0  0  0  0
 10  9  2  0  0  0  0
 11 12  1  0  0  0  0
 12 13  1  0  0  0  0
 13 14  1  0  0  0  0
 14 15  1  0  0  0  0
 16 18  1  0  0  0  0
 16 15  1  1  0  0  0
 16 17  1  0  0  0  0
 17 30  1  6  0  0  0
 18 20  1  1  0  0  0
 18 17  1  0  0  0  0
 19 22  2  0  0  0  0
 20 19  2  0  0  0  0
 22 21  1  0  0  0  0
 22 23  1  0  0  0  0
 24 25  1  1  0  0  0
 24 28  1  0  0  0  0
 24 23  1  0  0  0  0
 27 28  1  0  0  0  0
 28 26  1  0  0  0  0
 30 31  1  0  0  0  0
 30 29  1  1  0  0  0
 32 33  1  0  0  0  0
 33 31  1  0  0  0  0
 34 36  1  0  0  0  0
 34 35  2  0  0  0  0
 37 36  1  0  0  0  0
 37 38  1  1  0  0  0
 39 37  1  0  0  0  0
 40 42  1  0  0  0  0
 40 39  1  0  0  0  0
 41 40  2  0  0  0  0
 44 43  1  1  0  0  0
 44 48  1  0  0  0  0
 46 45  1  0  0  0  0
 47 49  1  0  0  0  0
 48 50  1  0  0  0  0
 48 47  1  0  0  0  0
 49 45  1  0  0  0  0
 50 46  1  0  0  0  0
 51 52  2  0  0  0  0
 51 44  1  0  0  0  0
 53 51  1  0  0  0  0
 54 53  1  0  0  0  0
M  END
>  <MODEL>
8

>  <REMARK>
 VINA RESULT:      -4.9      3.271      9.409
  Name = 
  24 active torsions:
  status: ('A' for Active; 'I' for Inactive)
    1  A    between atoms: C_4  and  C_11
    2  A    between atoms: C_4  and  C_31
    3  A    between atoms: C_6  and  C_38
    4  A    between atoms: C_6  and  C_46
    5  A    between atoms: C_8  and  C_38
    6  A    between atoms: C_9  and  O_12
    7  A    between atoms: C_9  and  O_29
    8  A    between atoms: O_10  and  C_22
    9  A    between atoms: O_10  and  C_41
   10  A    between atoms: O_12  and  C_42
   11  A    between atoms: C_14  and  P_26
   12  A    between atoms: C_14  and  C_52
   13  A    between atoms: C_17  and  C_31
   14  A    between atoms: O_19  and  C_33
   15  A    between atoms: O_19  and  C_50
   16  A    between atoms: C_20  and  C_45
   17  A    between atoms: C_25  and  C_37
   18  A    between atoms: C_27  and  C_42
   19  A    between atoms: C_28  and  C_46
   20  A    between atoms: O_29  and  C_41
   21  A    between atoms: C_31  and  C_37
   22  A    between atoms: C_36  and  C_50
   23  A    between atoms: C_39  and  C_43
   24  A    between atoms: C_51  and  C_52
                            x       y       z     vdW  Elec       q    Type
                         _______ _______ _______ _____ _____    ______ ____

>  <TORSDO>
F 24

$$$$
=
 OpenBabel11062418333D

 54 56  0  0  1  0  0  0  0  0999 V2000
  186.4120  177.4090  141.4010 C   0  0  2  0  0  3  0  0  0  0  0  0
  188.2390  175.0230  141.7350 C   0  0  0  0  0  2  0  0  0  0  0  0
  188.0190  174.6970  139.2690 C   0  0  0  0  0  0  0  0  0  0  0  0
  187.2040  177.1060  142.7080 C   0  0  2  0  0  3  0  0  0  0  0  0
  187.7680  175.4670  140.3640 C   0  0  0  0  0  0  0  0  0  0  0  0
  187.3130  175.5530  142.8180 C   0  0  0  0  0  2  0  0  0  0  0  0
  187.7140  175.2610  138.0280 O   0  0  0  0  0  1  0  0  0  0  0  0
  187.0390  176.7970  140.1220 C   0  0  0  0  0  2  0  0  0  0  0  0
  186.8530  177.6930  144.1140 C   0  0  0  0  0  0  0  0  0  0  0  0
  186.4380  178.8530  144.2300 O   0  0  0  0  0  0  0  0  0  0  0  0
  187.0090  176.8220  145.2590 O   0  0  0  0  0  0  0  0  0  0  0  0
  187.4430  177.3180  146.5230 C   0  0  0  0  0  2  0  0  0  0  0  0
  188.2940  176.4420  147.2490 O   0  0  0  0  0  0  0  0  0  0  0  0
  188.9090  175.4950  146.3830 C   0  0  0  0  0  2  0  0  0  0  0  0
  190.1270  174.9450  146.8690 O   0  0  0  0  0  0  0  0  0  0  0  0
  190.8340  176.0660  146.3480 C   0  0  2  0  0  3  0  0  0  0  0  0
  191.4510  175.9130  144.9640 C   0  0  2  0  0  3  0  0  0  0  0  0
  192.3580  176.1670  146.1250 C   0  0  2  0  0  3  0  0  0  0  0  0
  193.8670  174.2490  145.5720 C   0  0  0  0  0  0  0  0  0  0  0  0
  193.2630  175.0620  146.4020 C   0  0  0  0  0  3  0  0  0  0  0  0
  195.5030  173.4150  144.0600 O   0  0  0  0  0  1  0  0  0  0  0  0
  194.4890  173.2420  145.0090 C   0  0  0  0  0  0  0  0  0  0  0  0
  194.3090  171.8980  145.6720 C   0  0  0  0  0  2  0  0  0  0  0  0
  195.1930  170.7440  145.2580 C   0  0  1  0  0  3  0  0  0  0  0  0
  195.6470  170.0720  146.4110 O   0  0  0  0  0  1  0  0  0  0  0  0
  193.5940  168.4310  145.0940 O   0  0  0  0  0  1  0  0  0  0  0  0
  192.9760  170.5970  143.8020 O   0  0  0  0  0  1  0  0  0  0  0  0
  194.3770  169.5990  144.0650 P   0  0  0  0  0  0  0  0  0  0  0  0
  190.4270  177.6570  143.8110 O   0  0  0  0  0  1  0  0  0  0  0  0
  191.6740  177.1340  143.9990 C   0  0  2  0  0  3  0  0  0  0  0  0
  192.4540  176.9170  142.7710 O   0  0  0  0  0  0  0  0  0  0  0  0
  192.3990  174.9800  141.3400 O   0  0  0  0  0  1  0  0  0  0  0  0
  192.9200  175.5520  142.5690 C   0  0  0  0  0  2  0  0  0  0  0  0
  183.9100  177.9590  141.0000 C   0  0  0  0  0  3  0  0  0  0  0  0
  185.1920  178.3270  141.1660 C   0  0  0  0  0  3  0  0  0  0  0  0
  182.7890  178.9790  140.9970 C   0  0  0  0  0  2  0  0  0  0  0  0
  181.5050  178.1870  141.1960 C   0  0  2  0  0  3  0  0  0  0  0  0
  180.8030  177.9270  139.8490 C   0  0  0  0  0  1  0  0  0  0  0  0
  180.5990  179.0340  142.0680 C   0  0  0  0  0  2  0  0  0  0  0  0
  179.2480  178.4590  142.0270 C   0  0  0  0  0  0  0  0  0  0  0  0
  178.2450  179.2890  141.5550 O   0  0  0  0  0  0  0  0  0  0  0  0
  179.0260  177.2560  142.3570 O   0  0  0  0  0  1  0  0  0  0  0  0
  188.6260  173.2620  139.2680 C   0  0  0  0  0  2  0  0  0  0  0  0
  190.2210  173.2520  139.1530 C   0  0  2  0  0  3  0  0  0  0  0  0
  192.4160  173.6480  134.9010 S   0  0  0  0  0  0  0  0  0  0  0  0
  190.6530  173.2410  135.1410 C   0  0  0  0  0  2  0  0  0  0  0  0
  192.3100  173.8340  137.6380 C   0  0  0  0  0  2  0  0  0  0  0  0
  190.8820  173.3330  137.7260 C   0  0  0  0  0  3  0  0  0  0  0  0
  192.4870  174.6850  136.4040 C   0  0  0  0  0  2  0  0  0  0  0  0
  190.3660  172.5940  136.5100 C   0  0  0  0  0  2  0  0  0  0  0  0
  190.7620  172.0740  139.9210 C   0  0  0  0  0  0  0  0  0  0  0  0
  191.6380  171.3690  139.4210 O   0  0  0  0  0  0  0  0  0  0  0  0
  190.0780  171.6490  141.1910 C   0  0  0  0  0  2  0  0  0  0  0  0
  190.4620  170.3650  141.5750 O   0  0  0  0  0  1  0  0  0  0  0  0
  1 35  1  6  0  0  0
  1  4  1  0  0  0  0
  2  6  1  0  0  0  0
  3  5  2  0  0  0  0
  4  6  1  0  0  0  0
  4  9  1  1  0  0  0
  5  2  1  0  0  0  0
  7  3  1  0  0  0  0
  8  5  1  0  0  0  0
  8  1  1  0  0  0  0
  9 10  2  0  0  0  0
  9 11  1  0  0  0  0
 11 12  1  0  0  0  0
 12 13  1  0  0  0  0
 14 15  1  0  0  0  0
 14 13  1  0  0  0  0
 16 15  1  1  0  0  0
 17 30  1  6  0  0  0
 17 18  1  0  0  0  0
 17 16  1  0  0  0  0
 18 16  1  0  0  0  0
 18 20  1  1  0  0  0
 19 20  2  0  0  0  0
 21 22  1  0  0  0  0
 22 19  2  0  0  0  0
 22 23  1  0  0  0  0
 24 23  1  0  0  0  0
 24 25  1  1  0  0  0
 27 28  1  0  0  0  0
 28 26  1  0  0  0  0
 28 24  1  0  0  0  0
 30 29  1  6  0  0  0
 31 30  1  0  0  0  0
 32 33  1  0  0  0  0
 33 31  1  0  0  0  0
 34 35  2  0  0  0  0
 36 34  1  0  0  0  0
 36 37  1  0  0  0  0
 37 38  1  6  0  0  0
 37 39  1  0  0  0  0
 40 39  1  0  0  0  0
 40 42  1  0  0  0  0
 41 40  2  0  0  0  0
 43  3  1  0  0  0  0
 44 43  1  6  0  0  0
 44 51  1  0  0  0  0
 45 46  1  0  0  0  0
 45 49  1  0  0  0  0
 46 50  1  0  0  0  0
 47 48  1  0  0  0  0
 48 44  1  0  0  0  0
 49 47  1  0  0  0  0
 50 48  1  0  0  0  0
 51 53  1  0  0  0  0
 52 51  2  0  0  0  0
 53 54  1  0  0  0  0
M  END
>  <MODEL>
9

>  <REMARK>
 VINA RESULT:      -4.9      3.467      7.388
  Name = 
  24 active torsions:
  status: ('A' for Active; 'I' for Inactive)
    1  A    between atoms: C_4  and  C_11
    2  A    between atoms: C_4  and  C_31
    3  A    between atoms: C_6  and  C_38
    4  A    between atoms: C_6  and  C_46
    5  A    between atoms: C_8  and  C_38
    6  A    between atoms: C_9  and  O_12
    7  A    between atoms: C_9  and  O_29
    8  A    between atoms: O_10  and  C_22
    9  A    between atoms: O_10  and  C_41
   10  A    between atoms: O_12  and  C_42
   11  A    between atoms: C_14  and  P_26
   12  A    between atoms: C_14  and  C_52
   13  A    between atoms: C_17  and  C_31
   14  A    between atoms: O_19  and  C_33
   15  A    between atoms: O_19  and  C_50
   16  A    between atoms: C_20  and  C_45
   17  A    between atoms: C_25  and  C_37
   18  A    between atoms: C_27  and  C_42
   19  A    between atoms: C_28  and  C_46
   20  A    between atoms: O_29  and  C_41
   21  A    between atoms: C_31  and  C_37
   22  A    between atoms: C_36  and  C_50
   23  A    between atoms: C_39  and  C_43
   24  A    between atoms: C_51  and  C_52
                            x       y       z     vdW  Elec       q    Type
                         _______ _______ _______ _____ _____    ______ ____

>  <TORSDO>
F 24

$$$$
