=
 OpenBabel11062419523D

 30 33  0  0  1  0  0  0  0  0999 V2000
  193.2190  176.6700  144.2980 O   0  0  0  0  0  0  0  0  0  0  0  0
  193.5440  175.2930  144.0990 C   0  0  0  0  0  2  0  0  0  0  0  0
  192.4620  177.0210  143.1620 C   0  0  2  0  0  3  0  0  0  0  0  0
  190.0000  177.1810  142.9290 C   0  0  2  0  0  3  0  0  0  0  0  0
  192.5630  174.7270  143.2370 O   0  0  0  0  0  0  0  0  0  0  0  0
  190.5220  175.8150  142.5430 C   0  0  1  0  0  3  0  0  0  0  0  0
  191.2540  177.8420  143.4380 C   0  0  0  0  0  0  0  0  0  0  0  0
  191.2900  178.9590  143.9320 O   0  0  0  0  0  0  0  0  0  0  0  0
  191.8250  175.7800  142.7980 C   0  0  1  0  0  3  0  0  0  0  0  0
  188.9090  174.5850  140.9060 C   0  0  2  0  0  3  0  0  0  0  0  0
  188.0100  172.9420  139.4140 O   0  0  0  0  0  0  0  0  0  0  0  0
  187.7510  175.5690  140.9580 C   0  0  0  0  0  1  0  0  0  0  0  0
  189.5620  173.6440  143.1120 C   0  0  0  0  0  3  0  0  0  0  0  0
  188.3800  173.2140  140.5850 C   0  0  0  0  0  0  0  0  0  0  0  0
  189.6840  174.6330  142.2110 C   0  0  0  0  0  0  0  0  0  0  0  0
  188.2410  172.2080  141.6450 C   0  0  0  0  0  3  0  0  0  0  0  0
  188.7870  172.4220  142.8400 C   0  0  0  0  0  3  0  0  0  0  0  0
  186.0060  176.9560  146.9880 O   0  0  0  0  0  1  0  0  0  0  0  0
  188.1780  176.2920  146.1680 C   0  0  0  0  0  0  0  0  0  0  0  0
  189.1630  176.3460  145.1750 C   0  0  0  0  0  3  0  0  0  0  0  0
  186.7760  177.7810  144.8480 C   0  0  0  0  0  0  0  0  0  0  0  0
  186.9850  177.0100  146.0020 C   0  0  0  0  0  0  0  0  0  0  0  0
  187.7730  177.8250  143.8630 C   0  0  0  0  0  3  0  0  0  0  0  0
  188.9630  177.1120  144.0170 C   0  0  0  0  0  0  0  0  0  0  0  0
  184.7550  177.4190  142.6420 O   0  0  0  0  0  0  0  0  0  0  0  0
  184.5760  178.3490  143.6590 C   0  0  0  0  0  0  0  0  0  0  0  0
  183.5430  179.0660  143.6630 O   0  0  0  0  0  1  0  0  0  0  0  0
  185.5450  178.5070  144.7030 N   0  0  0  0  0  2  0  0  0  0  0  0
  188.3720  175.5300  147.3210 O   0  0  0  0  0  0  0  0  0  0  0  0
  189.0480  174.3730  147.2830 O   0  0  0  0  0  1  0  0  0  0  0  0
  2  1  1  0  0  0  0
  3  7  1  1  0  0  0
  3  1  1  0  0  0  0
  4  7  1  0  0  0  0
  4 24  1  1  0  0  0
  5  2  1  0  0  0  0
  6 15  1  1  0  0  0
  6  9  1  0  0  0  0
  6  4  1  0  0  0  0
  7  8  2  0  0  0  0
  9  3  1  0  0  0  0
  9  5  1  1  0  0  0
 10 12  1  1  0  0  0
 10 15  1  0  0  0  0
 11 14  2  0  0  0  0
 14 10  1  0  0  0  0
 14 16  1  0  0  0  0
 15 13  2  0  0  0  0
 16 17  2  0  0  0  0
 17 13  1  0  0  0  0
 19 29  1  0  0  0  0
 20 19  2  0  0  0  0
 21 22  2  0  0  0  0
 22 19  1  0  0  0  0
 22 18  1  0  0  0  0
 23 24  2  0  0  0  0
 23 21  1  0  0  0  0
 24 20  1  0  0  0  0
 25 26  2  0  0  0  0
 26 27  1  0  0  0  0
 26 28  1  0  0  0  0
 28 21  1  0  0  0  0
 30 29  1  0  0  0  0
M  END
>  <MODEL>
1

>  <REMARK>
 VINA RESULT:      -7.4      0.000      0.000
  Name = 
  4 active torsions:
  status: ('A' for Active; 'I' for Inactive)
    1  A    between atoms: O_6  and  C_14
    2  A    between atoms: C_12  and  C_29
    3  A    between atoms: C_16  and  C_18
    4  A    between atoms: C_19  and  N_30
                            x       y       z     vdW  Elec       q    Type
                         _______ _______ _______ _____ _____    ______ ____

>  <TORSDO>
F 4

$$$$
=
 OpenBabel11062419523D

 30 33  0  0  1  0  0  0  0  0999 V2000
  185.2030  177.0760  145.0520 O   0  0  0  0  0  0  0  0  0  0  0  0
  185.1450  176.7000  146.4290 C   0  0  0  0  0  2  0  0  0  0  0  0
  186.1810  178.0900  145.0050 C   0  0  2  0  0  3  0  0  0  0  0  0
  188.5650  177.9160  144.3500 C   0  0  2  0  0  3  0  0  0  0  0  0
  186.3930  177.0260  147.0300 O   0  0  0  0  0  0  0  0  0  0  0  0
  188.3670  177.7440  145.8390 C   0  0  1  0  0  3  0  0  0  0  0  0
  187.1380  177.9910  143.8720 C   0  0  0  0  0  0  0  0  0  0  0  0
  186.8100  178.0590  142.6970 O   0  0  0  0  0  0  0  0  0  0  0  0
  187.0630  177.7430  146.0900 C   0  0  1  0  0  3  0  0  0  0  0  0
  190.0570  175.9780  146.7460 C   0  0  2  0  0  3  0  0  0  0  0  0
  192.1090  174.9150  147.3780 O   0  0  0  0  0  0  0  0  0  0  0  0
  189.0550  174.9290  147.2030 C   0  0  0  0  0  1  0  0  0  0  0  0
  189.7570  178.2140  147.7910 C   0  0  0  0  0  3  0  0  0  0  0  0
  191.3060  175.8640  147.5780 C   0  0  0  0  0  0  0  0  0  0  0  0
  189.4250  177.3580  146.8110 C   0  0  0  0  0  0  0  0  0  0  0  0
  191.5670  176.8240  148.6570 C   0  0  0  0  0  3  0  0  0  0  0  0
  190.8240  177.9220  148.7640 C   0  0  0  0  0  3  0  0  0  0  0  0
  191.3110  173.5080  142.0020 O   0  0  0  0  0  1  0  0  0  0  0  0
  189.2920  174.4360  142.9460 C   0  0  0  0  0  0  0  0  0  0  0  0
  188.6120  175.5170  143.5210 C   0  0  0  0  0  3  0  0  0  0  0  0
  191.2990  175.8020  142.7720 C   0  0  0  0  0  0  0  0  0  0  0  0
  190.6350  174.5810  142.5720 C   0  0  0  0  0  0  0  0  0  0  0  0
  190.6040  176.8740  143.3480 C   0  0  0  0  0  3  0  0  0  0  0  0
  189.2670  176.7400  143.7260 C   0  0  0  0  0  0  0  0  0  0  0  0
  193.6730  175.8280  144.6280 O   0  0  0  0  0  1  0  0  0  0  0  0
  193.8140  175.9410  143.2510 C   0  0  0  0  0  0  0  0  0  0  0  0
  194.9650  176.0600  142.7570 O   0  0  0  0  0  0  0  0  0  0  0  0
  192.6750  175.9230  142.3810 N   0  0  0  0  0  2  0  0  0  0  0  0
  188.6440  173.2170  142.7420 O   0  0  0  0  0  0  0  0  0  0  0  0
  187.7920  173.0460  141.7220 O   0  0  0  0  0  1  0  0  0  0  0  0
  1  2  1  0  0  0  0
  2  5  1  0  0  0  0
  3  7  1  6  0  0  0
  3  1  1  0  0  0  0
  3  9  1  0  0  0  0
  4 24  1  6  0  0  0
  4  6  1  0  0  0  0
  6  9  1  0  0  0  0
  6 15  1  6  0  0  0
  7  4  1  0  0  0  0
  8  7  2  0  0  0  0
  9  5  1  6  0  0  0
 10 15  1  0  0  0  0
 10 12  1  1  0  0  0
 10 14  1  0  0  0  0
 11 14  2  0  0  0  0
 13 17  1  0  0  0  0
 14 16  1  0  0  0  0
 15 13  2  0  0  0  0
 16 17  2  0  0  0  0
 18 22  1  0  0  0  0
 19 20  1  0  0  0  0
 20 24  2  0  0  0  0
 21 23  2  0  0  0  0
 22 21  1  0  0  0  0
 22 19  2  0  0  0  0
 23 24  1  0  0  0  0
 26 25  1  0  0  0  0
 27 26  2  0  0  0  0
 28 21  1  0  0  0  0
 28 26  1  0  0  0  0
 29 19  1  0  0  0  0
 30 29  1  0  0  0  0
M  END
>  <MODEL>
2

>  <REMARK>
 VINA RESULT:      -7.4      2.513      6.805
  Name = 
  4 active torsions:
  status: ('A' for Active; 'I' for Inactive)
    1  A    between atoms: O_6  and  C_14
    2  A    between atoms: C_12  and  C_29
    3  A    between atoms: C_16  and  C_18
    4  A    between atoms: C_19  and  N_30
                            x       y       z     vdW  Elec       q    Type
                         _______ _______ _______ _____ _____    ______ ____

>  <TORSDO>
F 4

$$$$
=
 OpenBabel11062419523D

 30 33  0  0  1  0  0  0  0  0999 V2000
  185.6270  177.6760  142.8810 O   0  0  0  0  0  0  0  0  0  0  0  0
  185.1800  177.4150  144.2130 C   0  0  0  0  0  2  0  0  0  0  0  0
  186.8940  178.2700  143.0450 C   0  0  2  0  0  3  0  0  0  0  0  0
  189.1340  177.2250  142.8610 C   0  0  2  0  0  3  0  0  0  0  0  0
  186.3250  177.3050  145.0500 O   0  0  0  0  0  0  0  0  0  0  0  0
  188.6120  177.2100  144.2800 C   0  0  1  0  0  3  0  0  0  0  0  0
  187.9470  177.7790  142.1170 C   0  0  0  0  0  0  0  0  0  0  0  0
  187.8930  177.9010  140.9030 O   0  0  0  0  0  0  0  0  0  0  0  0
  187.3720  177.6870  144.2730 C   0  0  1  0  0  3  0  0  0  0  0  0
  190.4210  177.1730  146.1570 C   0  0  2  0  0  3  0  0  0  0  0  0
  191.4440  177.1080  148.3210 O   0  0  0  0  0  0  0  0  0  0  0  0
  191.6570  177.1550  145.2710 C   0  0  0  0  0  1  0  0  0  0  0  0
  188.8470  175.2890  145.7670 C   0  0  0  0  0  3  0  0  0  0  0  0
  190.7420  176.5070  147.4670 C   0  0  0  0  0  0  0  0  0  0  0  0
  189.2560  176.5220  145.4300 C   0  0  0  0  0  0  0  0  0  0  0  0
  190.2860  175.1370  147.7320 C   0  0  0  0  0  3  0  0  0  0  0  0
  189.4050  174.5610  146.9190 C   0  0  0  0  0  3  0  0  0  0  0  0
  190.4940  172.0080  141.0120 O   0  0  0  0  0  1  0  0  0  0  0  0
  188.8330  173.7290  141.3450 C   0  0  0  0  0  0  0  0  0  0  0  0
  188.4950  175.0110  141.7950 C   0  0  0  0  0  3  0  0  0  0  0  0
  191.1410  174.1100  142.0200 C   0  0  0  0  0  0  0  0  0  0  0  0
  190.1570  173.2810  141.4590 C   0  0  0  0  0  0  0  0  0  0  0  0
  190.7860  175.3910  142.4660 C   0  0  0  0  0  3  0  0  0  0  0  0
  189.4710  175.8460  142.3600 C   0  0  0  0  0  0  0  0  0  0  0  0
  192.4080  172.9150  144.4790 O   0  0  0  0  0  1  0  0  0  0  0  0
  193.1070  173.0590  143.2870 C   0  0  0  0  0  0  0  0  0  0  0  0
  194.3050  172.6830  143.2270 O   0  0  0  0  0  0  0  0  0  0  0  0
  192.4890  173.6260  142.1250 N   0  0  0  0  0  2  0  0  0  0  0  0
  187.8660  172.8950  140.7850 O   0  0  0  0  0  0  0  0  0  0  0  0
  187.8430  172.6430  139.4690 O   0  0  0  0  0  1  0  0  0  0  0  0
  1  3  1  0  0  0  0
  1  2  1  0  0  0  0
  2  5  1  0  0  0  0
  3  7  1  6  0  0  0
  3  9  1  0  0  0  0
  4 24  1  6  0  0  0
  4  6  1  0  0  0  0
  6 15  1  6  0  0  0
  7  4  1  0  0  0  0
  8  7  2  0  0  0  0
  9  6  1  0  0  0  0
  9  5  1  6  0  0  0
 10 12  1  6  0  0  0
 10 14  1  0  0  0  0
 13 17  1  0  0  0  0
 14 16  1  0  0  0  0
 14 11  2  0  0  0  0
 15 13  2  0  0  0  0
 15 10  1  0  0  0  0
 17 16  2  0  0  0  0
 18 22  1  0  0  0  0
 19 22  2  0  0  0  0
 19 20  1  0  0  0  0
 20 24  2  0  0  0  0
 21 28  1  0  0  0  0
 21 23  2  0  0  0  0
 22 21  1  0  0  0  0
 24 23  1  0  0  0  0
 26 25  1  0  0  0  0
 27 26  2  0  0  0  0
 28 26  1  0  0  0  0
 29 19  1  0  0  0  0
 30 29  1  0  0  0  0
M  END
>  <MODEL>
3

>  <REMARK>
 VINA RESULT:      -7.0      2.577      6.812
  Name = 
  4 active torsions:
  status: ('A' for Active; 'I' for Inactive)
    1  A    between atoms: O_6  and  C_14
    2  A    between atoms: C_12  and  C_29
    3  A    between atoms: C_16  and  C_18
    4  A    between atoms: C_19  and  N_30
                            x       y       z     vdW  Elec       q    Type
                         _______ _______ _______ _____ _____    ______ ____

>  <TORSDO>
F 4

$$$$
=
 OpenBabel11062419523D

 30 33  0  0  1  0  0  0  0  0999 V2000
  189.9160  172.9850  140.0540 O   0  0  0  0  0  0  0  0  0  0  0  0
  191.2940  173.3340  139.9010 C   0  0  0  0  0  2  0  0  0  0  0  0
  189.7740  172.7070  141.4280 C   0  0  2  0  0  3  0  0  0  0  0  0
  188.8960  174.1700  143.2250 C   0  0  2  0  0  3  0  0  0  0  0  0
  191.7720  173.8080  141.1550 O   0  0  0  0  0  0  0  0  0  0  0  0
  190.3970  174.2780  143.0840 C   0  0  1  0  0  3  0  0  0  0  0  0
  188.5550  173.2720  142.0640 C   0  0  0  0  0  0  0  0  0  0  0  0
  187.4170  172.9680  141.7420 O   0  0  0  0  0  0  0  0  0  0  0  0
  190.7720  173.5510  142.0370 C   0  0  1  0  0  3  0  0  0  0  0  0
  191.8520  174.8900  145.1590 C   0  0  2  0  0  3  0  0  0  0  0  0
  193.7320  175.4950  146.5140 O   0  0  0  0  0  0  0  0  0  0  0  0
  190.7520  174.8770  146.2090 C   0  0  0  0  0  1  0  0  0  0  0  0
  191.4600  176.4670  143.2770 C   0  0  0  0  0  3  0  0  0  0  0  0
  192.9410  175.8320  145.5950 C   0  0  0  0  0  0  0  0  0  0  0  0
  191.2650  175.2470  143.8040 C   0  0  0  0  0  0  0  0  0  0  0  0
  193.0520  177.1650  144.9910 C   0  0  0  0  0  3  0  0  0  0  0  0
  192.3400  177.4660  143.9080 C   0  0  0  0  0  3  0  0  0  0  0  0
  186.3170  179.2320  142.7630 O   0  0  0  0  0  1  0  0  0  0  0  0
  187.2780  177.2830  141.7090 C   0  0  0  0  0  0  0  0  0  0  0  0
  187.9100  176.0390  141.8170 C   0  0  0  0  0  3  0  0  0  0  0  0
  187.2380  177.4650  144.1360 C   0  0  0  0  0  0  0  0  0  0  0  0
  186.9440  177.9950  142.8700 C   0  0  0  0  0  0  0  0  0  0  0  0
  187.8700  176.2170  144.2270 C   0  0  0  0  0  3  0  0  0  0  0  0
  188.2090  175.5010  143.0780 C   0  0  0  0  0  0  0  0  0  0  0  0
  185.0290  176.7900  146.0720 O   0  0  0  0  0  0  0  0  0  0  0  0
  185.8350  177.9090  146.2360 C   0  0  0  0  0  0  0  0  0  0  0  0
  185.6410  178.6700  147.2190 O   0  0  0  0  0  1  0  0  0  0  0  0
  186.8840  178.2150  145.3090 N   0  0  0  0  0  2  0  0  0  0  0  0
  186.9800  177.8220  140.4570 O   0  0  0  0  0  0  0  0  0  0  0  0
  185.8250  177.5410  139.8380 O   0  0  0  0  0  1  0  0  0  0  0  0
  2  1  1  0  0  0  0
  2  5  1  0  0  0  0
  3  1  1  6  0  0  0
  3  9  1  0  0  0  0
  3  7  1  0  0  0  0
  4 24  1  6  0  0  0
  6  4  1  0  0  0  0
  6 15  1  6  0  0  0
  7  4  1  0  0  0  0
  8  7  2  0  0  0  0
  9  5  1  6  0  0  0
  9  6  1  0  0  0  0
 10 14  1  0  0  0  0
 10 12  1  1  0  0  0
 13 15  2  0  0  0  0
 13 17  1  0  0  0  0
 14 11  2  0  0  0  0
 15 10  1  0  0  0  0
 16 14  1  0  0  0  0
 17 16  2  0  0  0  0
 18 22  1  0  0  0  0
 19 20  2  0  0  0  0
 19 22  1  0  0  0  0
 20 24  1  0  0  0  0
 21 23  1  0  0  0  0
 21 28  1  0  0  0  0
 22 21  2  0  0  0  0
 24 23  2  0  0  0  0
 25 26  2  0  0  0  0
 26 27  1  0  0  0  0
 28 26  1  0  0  0  0
 29 19  1  0  0  0  0
 30 29  1  0  0  0  0
M  END
>  <MODEL>
4

>  <REMARK>
 VINA RESULT:      -7.0      2.140      5.089
  Name = 
  4 active torsions:
  status: ('A' for Active; 'I' for Inactive)
    1  A    between atoms: O_6  and  C_14
    2  A    between atoms: C_12  and  C_29
    3  A    between atoms: C_16  and  C_18
    4  A    between atoms: C_19  and  N_30
                            x       y       z     vdW  Elec       q    Type
                         _______ _______ _______ _____ _____    ______ ____

>  <TORSDO>
F 4

$$$$
=
 OpenBabel11062419523D

 30 33  0  0  1  0  0  0  0  0999 V2000
  192.1410  176.7600  145.9060 O   0  0  0  0  0  0  0  0  0  0  0  0
  192.3710  175.3580  146.0600 C   0  0  0  0  0  2  0  0  0  0  0  0
  192.3130  176.9940  144.5270 C   0  0  2  0  0  3  0  0  0  0  0  0
  190.5860  177.2100  142.7620 C   0  0  2  0  0  3  0  0  0  0  0  0
  192.1030  174.7250  144.8150 O   0  0  0  0  0  0  0  0  0  0  0  0
  191.0870  175.7900  142.9000 C   0  0  1  0  0  3  0  0  0  0  0  0
  191.2970  177.8850  143.9060 C   0  0  0  0  0  0  0  0  0  0  0  0
  191.1300  179.0520  144.2260 O   0  0  0  0  0  0  0  0  0  0  0  0
  191.9240  175.7410  143.9310 C   0  0  1  0  0  3  0  0  0  0  0  0
  189.2250  173.9810  142.6640 C   0  0  2  0  0  3  0  0  0  0  0  0
  187.4410  172.6660  141.7570 O   0  0  0  0  0  0  0  0  0  0  0  0
  189.4420  173.2680  143.9900 C   0  0  0  0  0  1  0  0  0  0  0  0
  191.2280  174.0510  141.1930 C   0  0  0  0  0  3  0  0  0  0  0  0
  188.6480  173.0100  141.6700 C   0  0  0  0  0  0  0  0  0  0  0  0
  190.5290  174.6050  142.1960 C   0  0  0  0  0  0  0  0  0  0  0  0
  189.5000  172.4210  140.6300 C   0  0  0  0  0  3  0  0  0  0  0  0
  190.7220  172.9040  140.4190 C   0  0  0  0  0  3  0  0  0  0  0  0
  184.9500  177.5900  143.5220 O   0  0  0  0  0  1  0  0  0  0  0  0
  186.8730  177.7990  142.0760 C   0  0  0  0  0  0  0  0  0  0  0  0
  188.2560  177.7040  141.8840 C   0  0  0  0  0  3  0  0  0  0  0  0
  187.1550  177.1000  144.3910 C   0  0  0  0  0  0  0  0  0  0  0  0
  186.3250  177.4960  143.3310 C   0  0  0  0  0  0  0  0  0  0  0  0
  188.5380  177.0100  144.1820 C   0  0  0  0  0  3  0  0  0  0  0  0
  189.0950  177.3110  142.9380 C   0  0  0  0  0  0  0  0  0  0  0  0
  186.0640  179.1020  146.3610 O   0  0  0  0  0  0  0  0  0  0  0  0
  186.0480  177.7370  146.6150 C   0  0  0  0  0  0  0  0  0  0  0  0
  185.5670  177.3170  147.6980 O   0  0  0  0  0  1  0  0  0  0  0  0
  186.5670  176.7960  145.6650 N   0  0  0  0  0  2  0  0  0  0  0  0
  186.0350  178.1910  141.0310 O   0  0  0  0  0  0  0  0  0  0  0  0
  186.0360  177.5410  139.8590 O   0  0  0  0  0  1  0  0  0  0  0  0
  1  2  1  0  0  0  0
  3  7  1  6  0  0  0
  3  1  1  0  0  0  0
  4  6  1  0  0  0  0
  4 24  1  1  0  0  0
  4  7  1  0  0  0  0
  5  2  1  0  0  0  0
  6 15  1  1  0  0  0
  6  9  1  0  0  0  0
  7  8  2  0  0  0  0
  9  3  1  0  0  0  0
  9  5  1  1  0  0  0
 10 12  1  1  0  0  0
 13 15  2  0  0  0  0
 14 11  2  0  0  0  0
 14 10  1  0  0  0  0
 15 10  1  0  0  0  0
 16 14  1  0  0  0  0
 17 16  2  0  0  0  0
 17 13  1  0  0  0  0
 19 22  1  0  0  0  0
 20 19  2  0  0  0  0
 20 24  1  0  0  0  0
 21 28  1  0  0  0  0
 22 18  1  0  0  0  0
 22 21  2  0  0  0  0
 23 21  1  0  0  0  0
 24 23  2  0  0  0  0
 25 26  2  0  0  0  0
 26 27  1  0  0  0  0
 28 26  1  0  0  0  0
 29 19  1  0  0  0  0
 30 29  1  0  0  0  0
M  END
>  <MODEL>
5

>  <REMARK>
 VINA RESULT:      -7.0      1.677      3.200
  Name = 
  4 active torsions:
  status: ('A' for Active; 'I' for Inactive)
    1  A    between atoms: O_6  and  C_14
    2  A    between atoms: C_12  and  C_29
    3  A    between atoms: C_16  and  C_18
    4  A    between atoms: C_19  and  N_30
                            x       y       z     vdW  Elec       q    Type
                         _______ _______ _______ _____ _____    ______ ____

>  <TORSDO>
F 4

$$$$
=
 OpenBabel11062419523D

 30 33  0  0  1  0  0  0  0  0999 V2000
  190.6200  172.1500  141.2260 O   0  0  0  0  0  0  0  0  0  0  0  0
  189.5410  171.5980  141.9840 C   0  0  0  0  0  2  0  0  0  0  0  0
  190.3740  173.5370  141.2240 C   0  0  2  0  0  3  0  0  0  0  0  0
  191.3820  175.2930  142.6540 C   0  0  2  0  0  3  0  0  0  0  0  0
  189.0480  172.6090  142.8540 O   0  0  0  0  0  0  0  0  0  0  0  0
  190.0950  174.7510  143.2360 C   0  0  1  0  0  3  0  0  0  0  0  0
  191.5690  174.3900  141.4630 C   0  0  0  0  0  0  0  0  0  0  0  0
  192.5410  174.4200  140.7250 O   0  0  0  0  0  0  0  0  0  0  0  0
  189.6810  173.7480  142.4700 C   0  0  1  0  0  3  0  0  0  0  0  0
  188.6770  176.3190  144.7620 C   0  0  2  0  0  3  0  0  0  0  0  0
  186.9700  177.1020  146.2480 O   0  0  0  0  0  0  0  0  0  0  0  0
  189.5300  177.5730  144.6420 C   0  0  0  0  0  1  0  0  0  0  0  0
  189.8880  174.3290  145.6310 C   0  0  0  0  0  3  0  0  0  0  0  0
  187.9550  176.3370  146.0820 C   0  0  0  0  0  0  0  0  0  0  0  0
  189.5450  175.0860  144.5760 C   0  0  0  0  0  0  0  0  0  0  0  0
  188.4270  175.5050  147.1950 C   0  0  0  0  0  3  0  0  0  0  0  0
  189.3500  174.5700  146.9810 C   0  0  0  0  0  3  0  0  0  0  0  0
  195.7870  174.6890  146.2200 O   0  0  0  0  0  1  0  0  0  0  0  0
  194.2310  176.1270  145.0610 C   0  0  0  0  0  0  0  0  0  0  0  0
  193.1470  176.2800  144.1880 C   0  0  0  0  0  3  0  0  0  0  0  0
  194.1090  173.7130  144.7750 C   0  0  0  0  0  0  0  0  0  0  0  0
  194.7100  174.8420  145.3530 C   0  0  0  0  0  0  0  0  0  0  0  0
  193.0250  173.8830  143.9030 C   0  0  0  0  0  3  0  0  0  0  0  0
  192.5410  175.1580  143.6040 C   0  0  0  0  0  0  0  0  0  0  0  0
  196.3070  172.2670  143.3040 O   0  0  0  0  0  0  0  0  0  0  0  0
  195.6620  171.7070  144.3990 C   0  0  0  0  0  0  0  0  0  0  0  0
  195.9990  170.5610  144.7920 O   0  0  0  0  0  1  0  0  0  0  0  0
  194.6210  172.4090  145.0910 N   0  0  0  0  0  2  0  0  0  0  0  0
  194.8370  177.2410  145.6430 O   0  0  0  0  0  0  0  0  0  0  0  0
  194.5200  177.6360  146.8830 O   0  0  0  0  0  1  0  0  0  0  0  0
  1  2  1  0  0  0  0
  2  5  1  0  0  0  0
  3  1  1  1  0  0  0
  3  7  1  0  0  0  0
  3  9  1  0  0  0  0
  4  6  1  0  0  0  0
  4 24  1  1  0  0  0
  6 15  1  1  0  0  0
  7  4  1  0  0  0  0
  8  7  2  0  0  0  0
  9  5  1  1  0  0  0
  9  6  1  0  0  0  0
 10 12  1  1  0  0  0
 10 14  1  0  0  0  0
 13 17  1  0  0  0  0
 14 11  2  0  0  0  0
 14 16  1  0  0  0  0
 15 10  1  0  0  0  0
 15 13  2  0  0  0  0
 17 16  2  0  0  0  0
 19 22  1  0  0  0  0
 19 29  1  0  0  0  0
 20 19  2  0  0  0  0
 21 28  1  0  0  0  0
 21 22  2  0  0  0  0
 22 18  1  0  0  0  0
 23 21  1  0  0  0  0
 24 23  2  0  0  0  0
 24 20  1  0  0  0  0
 25 26  2  0  0  0  0
 26 27  1  0  0  0  0
 26 28  1  0  0  0  0
 29 30  1  0  0  0  0
M  END
>  <MODEL>
6

>  <REMARK>
 VINA RESULT:      -6.8      3.100      7.092
  Name = 
  4 active torsions:
  status: ('A' for Active; 'I' for Inactive)
    1  A    between atoms: O_6  and  C_14
    2  A    between atoms: C_12  and  C_29
    3  A    between atoms: C_16  and  C_18
    4  A    between atoms: C_19  and  N_30
                            x       y       z     vdW  Elec       q    Type
                         _______ _______ _______ _____ _____    ______ ____

>  <TORSDO>
F 4

$$$$
=
 OpenBabel11062419523D

 30 33  0  0  1  0  0  0  0  0999 V2000
  185.9050  177.1970  143.6840 O   0  0  0  0  0  0  0  0  0  0  0  0
  185.6420  176.7230  145.0060 C   0  0  0  0  0  2  0  0  0  0  0  0
  186.9700  178.1050  143.8410 C   0  0  2  0  0  3  0  0  0  0  0  0
  189.3910  177.7400  143.4570 C   0  0  2  0  0  3  0  0  0  0  0  0
  186.8300  176.8730  145.7750 O   0  0  0  0  0  0  0  0  0  0  0  0
  188.9950  177.4760  144.8920 C   0  0  1  0  0  3  0  0  0  0  0  0
  188.0490  177.9970  142.8230 C   0  0  0  0  0  0  0  0  0  0  0  0
  187.8780  178.1880  141.6290 O   0  0  0  0  0  0  0  0  0  0  0  0
  187.6750  177.5880  144.9870 C   0  0  1  0  0  3  0  0  0  0  0  0
  190.5550  175.5640  145.7340 C   0  0  2  0  0  3  0  0  0  0  0  0
  192.4980  174.3920  146.5010 O   0  0  0  0  0  0  0  0  0  0  0  0
  189.5190  174.4530  145.8110 C   0  0  0  0  0  1  0  0  0  0  0  0
  190.0210  177.5680  147.1050 C   0  0  0  0  0  3  0  0  0  0  0  0
  191.6480  175.2910  146.7310 C   0  0  0  0  0  0  0  0  0  0  0  0
  189.8820  176.9100  145.9420 C   0  0  0  0  0  0  0  0  0  0  0  0
  191.6950  176.0320  147.9970 C   0  0  0  0  0  3  0  0  0  0  0  0
  190.9150  177.0950  148.1760 C   0  0  0  0  0  3  0  0  0  0  0  0
  191.8220  173.2120  140.9920 O   0  0  0  0  0  1  0  0  0  0  0  0
  192.0440  175.3280  142.1350 C   0  0  0  0  0  0  0  0  0  0  0  0
  191.4520  176.4410  142.7440 C   0  0  0  0  0  3  0  0  0  0  0  0
  189.8350  174.4180  141.6670 C   0  0  0  0  0  0  0  0  0  0  0  0
  191.2340  174.3170  141.5980 C   0  0  0  0  0  0  0  0  0  0  0  0
  189.2580  175.5380  142.2800 C   0  0  0  0  0  3  0  0  0  0  0  0
  190.0550  176.5510  142.8170 C   0  0  0  0  0  0  0  0  0  0  0  0
  188.9300  174.2160  138.8000 O   0  0  0  0  0  0  0  0  0  0  0  0
  188.5870  173.2610  139.7490 C   0  0  0  0  0  0  0  0  0  0  0  0
  187.8760  172.2820  139.4090 O   0  0  0  0  0  1  0  0  0  0  0  0
  189.0290  173.3690  141.1080 N   0  0  0  0  0  2  0  0  0  0  0  0
  193.4330  175.2150  142.0590 O   0  0  0  0  0  0  0  0  0  0  0  0
  194.1340  174.5990  143.0210 O   0  0  0  0  0  1  0  0  0  0  0  0
  1  3  1  0  0  0  0
  1  2  1  0  0  0  0
  2  5  1  0  0  0  0
  3  7  1  6  0  0  0
  3  9  1  0  0  0  0
  4 24  1  6  0  0  0
  4  6  1  0  0  0  0
  6  9  1  0  0  0  0
  6 15  1  6  0  0  0
  7  4  1  0  0  0  0
  8  7  2  0  0  0  0
  9  5  1  6  0  0  0
 10 12  1  1  0  0  0
 10 15  1  0  0  0  0
 10 14  1  0  0  0  0
 11 14  2  0  0  0  0
 13 17  1  0  0  0  0
 14 16  1  0  0  0  0
 15 13  2  0  0  0  0
 16 17  2  0  0  0  0
 18 22  1  0  0  0  0
 19 20  1  0  0  0  0
 20 24  2  0  0  0  0
 21 23  2  0  0  0  0
 22 21  1  0  0  0  0
 22 19  2  0  0  0  0
 23 24  1  0  0  0  0
 25 26  2  0  0  0  0
 26 28  1  0  0  0  0
 27 26  1  0  0  0  0
 28 21  1  0  0  0  0
 29 19  1  0  0  0  0
 29 30  1  0  0  0  0
M  END
>  <MODEL>
7

>  <REMARK>
 VINA RESULT:      -6.8      2.299      6.218
  Name = 
  4 active torsions:
  status: ('A' for Active; 'I' for Inactive)
    1  A    between atoms: O_6  and  C_14
    2  A    between atoms: C_12  and  C_29
    3  A    between atoms: C_16  and  C_18
    4  A    between atoms: C_19  and  N_30
                            x       y       z     vdW  Elec       q    Type
                         _______ _______ _______ _____ _____    ______ ____

>  <TORSDO>
F 4

$$$$
=
 OpenBabel11062419523D

 30 33  0  0  1  0  0  0  0  0999 V2000
  186.6350  176.9800  145.5560 O   0  0  0  0  0  0  0  0  0  0  0  0
  187.1850  176.9090  146.8730 C   0  0  0  0  0  2  0  0  0  0  0  0
  187.6070  177.6710  144.8060 C   0  0  2  0  0  3  0  0  0  0  0  0
  189.3420  176.7510  143.2930 C   0  0  2  0  0  3  0  0  0  0  0  0
  188.6000  177.0060  146.7680 O   0  0  0  0  0  0  0  0  0  0  0  0
  189.8530  176.9320  144.7040 C   0  0  1  0  0  3  0  0  0  0  0  0
  187.8870  177.1040  143.4600 C   0  0  0  0  0  0  0  0  0  0  0  0
  187.0540  177.0250  142.5700 O   0  0  0  0  0  0  0  0  0  0  0  0
  188.8390  177.3230  145.4690 C   0  0  1  0  0  3  0  0  0  0  0  0
  192.4540  177.1100  144.6800 C   0  0  2  0  0  3  0  0  0  0  0  0
  194.7110  177.4590  145.4000 O   0  0  0  0  0  0  0  0  0  0  0  0
  192.6910  176.6710  143.2440 C   0  0  0  0  0  1  0  0  0  0  0  0
  191.2310  175.4550  146.0760 C   0  0  0  0  0  3  0  0  0  0  0  0
  193.6640  176.7700  145.5080 C   0  0  0  0  0  0  0  0  0  0  0  0
  191.1770  176.4790  145.2080 C   0  0  0  0  0  0  0  0  0  0  0  0
  193.6460  175.6050  146.4000 C   0  0  0  0  0  3  0  0  0  0  0  0
  192.5000  174.9790  146.6530 C   0  0  0  0  0  3  0  0  0  0  0  0
  189.9400  171.4150  141.3800 O   0  0  0  0  0  1  0  0  0  0  0  0
  189.3940  172.9310  143.1780 C   0  0  0  0  0  0  0  0  0  0  0  0
  189.2430  174.2400  143.6520 C   0  0  0  0  0  3  0  0  0  0  0  0
  190.0340  173.8030  140.9980 C   0  0  0  0  0  0  0  0  0  0  0  0
  189.7890  172.7150  141.8510 C   0  0  0  0  0  0  0  0  0  0  0  0
  189.8780  175.1070  141.4880 C   0  0  0  0  0  3  0  0  0  0  0  0
  189.4860  175.3340  142.8080 C   0  0  0  0  0  0  0  0  0  0  0  0
  188.1990  173.2370  138.6760 O   0  0  0  0  0  1  0  0  0  0  0  0
  189.5790  173.2790  138.5290 C   0  0  0  0  0  0  0  0  0  0  0  0
  190.0850  173.0730  137.3960 O   0  0  0  0  0  0  0  0  0  0  0  0
  190.4390  173.5540  139.6430 N   0  0  0  0  0  2  0  0  0  0  0  0
  189.1530  171.8410  144.0150 O   0  0  0  0  0  0  0  0  0  0  0  0
  189.4250  171.8970  145.3260 O   0  0  0  0  0  1  0  0  0  0  0  0
  1  2  1  0  0  0  0
  3  7  1  6  0  0  0
  3  9  1  0  0  0  0
  3  1  1  0  0  0  0
  4 24  1  1  0  0  0
  4  7  1  0  0  0  0
  4  6  1  0  0  0  0
  5  2  1  0  0  0  0
  6 15  1  1  0  0  0
  6  9  1  0  0  0  0
  8  7  2  0  0  0  0
  9  5  1  1  0  0  0
 10 12  1  6  0  0  0
 10 15  1  0  0  0  0
 10 14  1  0  0  0  0
 11 14  2  0  0  0  0
 13 17  1  0  0  0  0
 14 16  1  0  0  0  0
 15 13  2  0  0  0  0
 16 17  2  0  0  0  0
 18 22  1  0  0  0  0
 19 20  1  0  0  0  0
 19 29  1  0  0  0  0
 21 23  2  0  0  0  0
 21 22  1  0  0  0  0
 22 19  2  0  0  0  0
 23 24  1  0  0  0  0
 24 20  2  0  0  0  0
 26 25  1  0  0  0  0
 26 28  1  0  0  0  0
 27 26  2  0  0  0  0
 28 21  1  0  0  0  0
 29 30  1  0  0  0  0
M  END
>  <MODEL>
8

>  <REMARK>
 VINA RESULT:      -6.7      2.512      6.157
  Name = 
  4 active torsions:
  status: ('A' for Active; 'I' for Inactive)
    1  A    between atoms: O_6  and  C_14
    2  A    between atoms: C_12  and  C_29
    3  A    between atoms: C_16  and  C_18
    4  A    between atoms: C_19  and  N_30
                            x       y       z     vdW  Elec       q    Type
                         _______ _______ _______ _____ _____    ______ ____

>  <TORSDO>
F 4

$$$$
=
 OpenBabel11062419523D

 30 33  0  0  1  0  0  0  0  0999 V2000
  186.2740  176.8640  143.3770 O   0  0  0  0  0  0  0  0  0  0  0  0
  185.9170  176.3410  144.6580 C   0  0  0  0  0  2  0  0  0  0  0  0
  187.1570  177.9240  143.6640 C   0  0  2  0  0  3  0  0  0  0  0  0
  189.6350  177.9390  143.5990 C   0  0  2  0  0  3  0  0  0  0  0  0
  186.9590  176.6620  145.5730 O   0  0  0  0  0  0  0  0  0  0  0  0
  189.1010  177.6000  144.9730 C   0  0  1  0  0  3  0  0  0  0  0  0
  188.3620  177.9940  142.7950 C   0  0  0  0  0  0  0  0  0  0  0  0
  188.3200  178.1700  141.5880 O   0  0  0  0  0  0  0  0  0  0  0  0
  187.7790  177.5070  144.8960 C   0  0  1  0  0  3  0  0  0  0  0  0
  190.6710  175.8440  146.0910 C   0  0  2  0  0  3  0  0  0  0  0  0
  192.5940  174.8400  147.1060 O   0  0  0  0  0  0  0  0  0  0  0  0
  189.6850  174.6890  146.1740 C   0  0  0  0  0  1  0  0  0  0  0  0
  189.9300  177.9160  147.2470 C   0  0  0  0  0  3  0  0  0  0  0  0
  191.6870  175.7070  147.1930 C   0  0  0  0  0  0  0  0  0  0  0  0
  189.9220  177.1650  146.1350 C   0  0  0  0  0  0  0  0  0  0  0  0
  191.5920  176.5450  148.3940 C   0  0  0  0  0  3  0  0  0  0  0  0
  190.7510  177.5760  148.4220 C   0  0  0  0  0  3  0  0  0  0  0  0
  193.0270  173.8530  141.5270 O   0  0  0  0  0  1  0  0  0  0  0  0
  192.7590  176.0840  142.4120 C   0  0  0  0  0  0  0  0  0  0  0  0
  191.9300  177.0900  142.9240 C   0  0  0  0  0  3  0  0  0  0  0  0
  190.8250  174.6250  142.1710 C   0  0  0  0  0  0  0  0  0  0  0  0
  192.2040  174.8530  142.0360 C   0  0  0  0  0  0  0  0  0  0  0  0
  190.0090  175.6420  142.6850 C   0  0  0  0  0  3  0  0  0  0  0  0
  190.5510  176.8730  143.0610 C   0  0  0  0  0  0  0  0  0  0  0  0
  190.6300  172.1680  143.9050 O   0  0  0  0  0  1  0  0  0  0  0  0
  190.1870  172.1770  142.5880 C   0  0  0  0  0  0  0  0  0  0  0  0
  189.6910  171.1300  142.0990 O   0  0  0  0  0  0  0  0  0  0  0  0
  190.2830  173.3550  141.7770 N   0  0  0  0  0  2  0  0  0  0  0  0
  194.1310  176.2970  142.2740 O   0  0  0  0  0  0  0  0  0  0  0  0
  194.9760  176.0590  143.2860 O   0  0  0  0  0  1  0  0  0  0  0  0
  1  3  1  0  0  0  0
  1  2  1  0  0  0  0
  2  5  1  0  0  0  0
  3  7  1  6  0  0  0
  3  9  1  0  0  0  0
  4 24  1  6  0  0  0
  4  6  1  0  0  0  0
  6 15  1  6  0  0  0
  7  4  1  0  0  0  0
  8  7  2  0  0  0  0
  9  6  1  0  0  0  0
  9  5  1  6  0  0  0
 10 15  1  0  0  0  0
 10 12  1  1  0  0  0
 10 14  1  0  0  0  0
 11 14  2  0  0  0  0
 13 17  1  0  0  0  0
 14 16  1  0  0  0  0
 15 13  2  0  0  0  0
 16 17  2  0  0  0  0
 18 22  1  0  0  0  0
 19 20  1  0  0  0  0
 20 24  2  0  0  0  0
 21 23  2  0  0  0  0
 22 21  1  0  0  0  0
 22 19  2  0  0  0  0
 23 24  1  0  0  0  0
 26 25  1  0  0  0  0
 27 26  2  0  0  0  0
 28 21  1  0  0  0  0
 28 26  1  0  0  0  0
 29 19  1  0  0  0  0
 29 30  1  0  0  0  0
M  END
>  <MODEL>
9

>  <REMARK>
 VINA RESULT:      -6.7      2.579      6.537
  Name = 
  4 active torsions:
  status: ('A' for Active; 'I' for Inactive)
    1  A    between atoms: O_6  and  C_14
    2  A    between atoms: C_12  and  C_29
    3  A    between atoms: C_16  and  C_18
    4  A    between atoms: C_19  and  N_30
                            x       y       z     vdW  Elec       q    Type
                         _______ _______ _______ _____ _____    ______ ____

>  <TORSDO>
F 4

$$$$
