=
 OpenBabel11062419483D

 46 48  0  0  1  0  0  0  0  0999 V2000
  192.4280  170.5990  143.8100 C   0  0  2  0  0  3  0  0  0  0  0  0
  195.5510  173.0050  143.9960 C   0  0  1  0  0  3  0  0  0  0  0  0
  196.4540  171.9080  143.9910 O   0  0  0  0  0  0  0  0  0  0  0  0
  193.8650  171.1230  143.9450 C   0  0  2  0  0  3  0  0  0  0  0  0
  196.1300  171.0280  145.0450 C   0  0  1  0  0  3  0  0  0  0  0  0
  194.8500  170.2410  144.7320 C   0  0  1  0  0  3  0  0  0  0  0  0
  194.0500  172.6310  144.1820 C   0  0  1  0  0  3  0  0  0  0  0  0
  197.2810  170.0710  145.2820 C   0  0  0  0  0  1  0  0  0  0  0  0
  194.2810  169.7910  145.9260 O   0  0  0  0  0  1  0  0  0  0  0  0
  196.0730  174.1680  144.7910 C   0  0  0  0  0  3  0  0  0  0  0  0
  197.3820  174.4150  144.8540 C   0  0  0  0  0  2  0  0  0  0  0  0
  193.3710  173.1530  145.4610 C   0  0  0  0  0  2  0  0  0  0  0  0
  192.3820  174.2800  145.2010 C   0  0  0  0  0  2  0  0  0  0  0  0
  192.4180  175.3280  146.3190 C   0  0  1  0  0  3  0  0  0  0  0  0
  194.3970  176.8460  146.6660 C   0  0  0  0  0  1  0  0  0  0  0  0
  193.4500  176.6420  144.3870 C   0  0  0  0  0  1  0  0  0  0  0  0
  193.1270  176.6190  145.8720 C   0  0  0  0  0  3  0  0  0  0  0  0
  191.1380  175.1940  148.3380 O   0  0  0  0  0  1  0  0  0  0  0  0
  189.9630  174.7420  146.3070 C   0  0  0  0  0  1  0  0  0  0  0  0
  191.0470  175.5780  146.9920 C   0  0  2  0  0  0  0  0  0  0  0  0
  190.7480  176.9610  146.8970 O   0  0  0  0  0  0  0  0  0  0  0  0
  189.4590  177.1380  146.3550 C   0  0  0  0  0  2  0  0  0  0  0  0
  188.6190  177.6970  147.3160 O   0  0  0  0  0  1  0  0  0  0  0  0
  192.5220  168.1660  143.2740 C   0  0  0  0  0  1  0  0  0  0  0  0
  192.3120  169.5520  142.7100 C   0  0  0  0  0  2  0  0  0  0  0  0
  191.5230  171.6350  143.5820 O   0  0  0  0  0  0  0  0  0  0  0  0
  190.6770  171.1360  142.5900 C   0  0  0  0  0  2  0  0  0  0  0  0
  189.3700  171.9070  142.5680 C   0  0  0  0  0  2  0  0  0  0  0  0
  189.3400  172.9180  141.4620 C   0  0  0  0  0  0  0  0  0  0  0  0
  189.4880  172.5570  140.3040 O   0  0  0  0  0  0  0  0  0  0  0  0
  189.1860  174.3830  141.7550 C   0  0  2  0  0  3  0  0  0  0  0  0
  189.2340  176.9980  142.7550 C   0  0  0  0  0  2  0  0  0  0  0  0
  188.1080  176.0960  143.2970 C   0  0  2  0  0  3  0  0  0  0  0  0
  190.4940  175.0890  142.0040 C   0  0  0  0  0  0  0  0  0  0  0  0
  191.7450  174.4770  141.7070 N   0  0  0  0  0  1  0  0  0  0  0  0
  190.4830  176.2770  142.5140 N   0  0  0  0  0  0  0  0  0  0  0  0
  188.2740  174.6070  142.9570 C   0  0  0  0  0  2  0  0  0  0  0  0
  186.8550  176.5580  142.8030 O   0  0  0  0  0  0  0  0  0  0  0  0
  185.9260  177.2470  143.5940 C   0  0  0  0  0  0  0  0  0  0  0  0
  185.0130  177.7040  147.1160 F   0  0  0  0  0  0  0  0  0  0  0  0
  185.9170  177.1130  144.9900 C   0  0  0  0  0  3  0  0  0  0  0  0
  184.0730  178.6680  145.1530 C   0  0  0  0  0  3  0  0  0  0  0  0
  184.0710  178.8050  143.7630 C   0  0  0  0  0  3  0  0  0  0  0  0
  184.9940  178.1000  142.9820 C   0  0  0  0  0  0  0  0  0  0  0  0
  184.9960  177.8230  145.7660 C   0  0  0  0  0  0  0  0  0  0  0  0
  184.9900  178.3260  141.2450 Cl  0  0  0  0  0  0  0  0  0  0  0  0
  1 25  1  6  0  0  0
  2  7  1  0  0  0  0
  2 10  1  1  0  0  0
  3  2  1  0  0  0  0
  3  5  1  0  0  0  0
  4  1  1  1  0  0  0
  4  7  1  0  0  0  0
  4  6  1  0  0  0  0
  5  8  1  6  0  0  0
  6  5  1  0  0  0  0
  6  9  1  1  0  0  0
  7 12  1  1  0  0  0
 10 11  2  0  0  0  0
 13 12  1  0  0  0  0
 14 13  1  6  0  0  0
 14 20  1  0  0  0  0
 16 17  1  0  0  0  0
 17 14  1  0  0  0  0
 17 15  1  0  0  0  0
 20 19  1  6  0  0  0
 20 18  1  0  0  0  0
 21 20  1  0  0  0  0
 22 21  1  0  0  0  0
 22 23  1  0  0  0  0
 25 24  1  0  0  0  0
 26  1  1  0  0  0  0
 27 26  1  0  0  0  0
 28 27  1  0  0  0  0
 29 28  1  0  0  0  0
 30 29  2  0  0  0  0
 31 29  1  1  0  0  0
 31 34  1  0  0  0  0
 31 37  1  0  0  0  0
 32 33  1  0  0  0  0
 33 38  1  6  0  0  0
 34 36  2  0  0  0  0
 35 34  1  0  0  0  0
 36 32  1  0  0  0  0
 37 33  1  0  0  0  0
 38 39  1  0  0  0  0
 39 41  1  0  0  0  0
 41 45  2  0  0  0  0
 42 45  1  0  0  0  0
 43 42  2  0  0  0  0
 44 39  2  0  0  0  0
 44 43  1  0  0  0  0
 45 40  1  0  0  0  0
 46 44  1  0  0  0  0
M  END
>  <MODEL>
1

>  <REMARK>
 VINA RESULT:      -6.5      0.000      0.000
  Name = 
  17 active torsions:
  status: ('A' for Active; 'I' for Inactive)
    1  A    between atoms: C_1  and  C_10
    2  A    between atoms: C_2  and  C_37
    3  A    between atoms: C_3  and  O_36
    4  A    between atoms: C_4  and  C_22
    5  A    between atoms: C_4  and  C_38
    6  A    between atoms: C_7  and  C_24
    7  A    between atoms: C_7  and  C_37
    8  A    between atoms: C_11  and  O_36
    9  A    between atoms: C_15  and  C_29
   10  A    between atoms: O_23  and  C_24
   11  A    between atoms: O_23  and  C_29
   12  A    between atoms: C_27  and  C_38
   13  A    between atoms: C_27  and  C_43
   14  A    between atoms: C_27  and  C_44
   15  A    between atoms: C_29  and  C_35
   16  A    between atoms: O_30  and  C_34
   17  A    between atoms: O_30  and  C_43
                            x       y       z     vdW  Elec       q    Type
                         _______ _______ _______ _____ _____    ______ ____

>  <TORSDO>
F 17

$$$$
=
 OpenBabel11062419483D

 46 48  0  0  1  0  0  0  0  0999 V2000
  190.6650  174.3560  145.3500 C   0  0  2  0  0  3  0  0  0  0  0  0
  194.5420  173.9300  145.9590 C   0  0  1  0  0  3  0  0  0  0  0  0
  194.6770  175.2920  146.3400 O   0  0  0  0  0  0  0  0  0  0  0  0
  192.1440  174.6590  145.6310 C   0  0  2  0  0  3  0  0  0  0  0  0
  194.1730  176.1200  145.3150 C   0  0  1  0  0  3  0  0  0  0  0  0
  192.6390  176.0710  145.2730 C   0  0  1  0  0  3  0  0  0  0  0  0
  193.1640  173.5470  145.3400 C   0  0  1  0  0  3  0  0  0  0  0  0
  194.6390  177.5450  145.5340 C   0  0  0  0  0  1  0  0  0  0  0  0
  192.2000  176.4510  144.0010 O   0  0  0  0  0  1  0  0  0  0  0  0
  195.7720  173.4060  145.2750 C   0  0  0  0  0  3  0  0  0  0  0  0
  196.8640  173.1020  145.9790 C   0  0  0  0  0  2  0  0  0  0  0  0
  193.1820  173.0800  143.8730 C   0  0  0  0  0  2  0  0  0  0  0  0
  192.9780  171.5800  143.7160 C   0  0  0  0  0  2  0  0  0  0  0  0
  193.5260  171.0770  142.3760 C   0  0  1  0  0  3  0  0  0  0  0  0
  196.0050  171.1870  141.9470 C   0  0  0  0  0  1  0  0  0  0  0  0
  195.2090  170.0290  143.9870 C   0  0  0  0  0  1  0  0  0  0  0  0
  194.8800  170.3640  142.5410 C   0  0  0  0  0  3  0  0  0  0  0  0
  191.2120  170.6750  141.9120 O   0  0  0  0  0  1  0  0  0  0  0  0
  192.6560  168.7730  141.8200 C   0  0  0  0  0  1  0  0  0  0  0  0
  192.5030  170.2710  141.5400 C   0  0  2  0  0  0  0  0  0  0  0  0
  192.7260  170.5500  140.1680 O   0  0  0  0  0  0  0  0  0  0  0  0
  191.5560  170.2890  139.4270 C   0  0  0  0  0  2  0  0  0  0  0  0
  191.1390  171.4530  138.7830 O   0  0  0  0  0  1  0  0  0  0  0  0
  189.2130  174.5820  147.3630 C   0  0  0  0  0  1  0  0  0  0  0  0
  189.7420  175.2800  146.1320 C   0  0  0  0  0  2  0  0  0  0  0  0
  190.3540  173.0240  145.6230 O   0  0  0  0  0  0  0  0  0  0  0  0
  189.5480  172.6360  144.5520 C   0  0  0  0  0  2  0  0  0  0  0  0
  189.6950  173.6080  143.3960 C   0  0  0  0  0  2  0  0  0  0  0  0
  188.5570  173.4960  142.4260 C   0  0  0  0  0  0  0  0  0  0  0  0
  188.3460  172.4350  141.8580 O   0  0  0  0  0  0  0  0  0  0  0  0
  187.7010  174.6840  142.0950 C   0  0  2  0  0  3  0  0  0  0  0  0
  186.6050  177.1470  141.3400 C   0  0  0  0  0  2  0  0  0  0  0  0
  187.0170  177.0250  142.8200 C   0  0  2  0  0  3  0  0  0  0  0  0
  187.9780  175.2650  140.7320 C   0  0  0  0  0  0  0  0  0  0  0  0
  188.7650  174.5740  139.7670 N   0  0  0  0  0  1  0  0  0  0  0  0
  187.4980  176.4280  140.4330 N   0  0  0  0  0  0  0  0  0  0  0  0
  187.8670  175.7850  143.1380 C   0  0  0  0  0  2  0  0  0  0  0  0
  185.8500  177.0210  143.6360 O   0  0  0  0  0  0  0  0  0  0  0  0
  185.8420  177.4680  144.9640 C   0  0  0  0  0  0  0  0  0  0  0  0
  186.2830  176.1860  148.3710 F   0  0  0  0  0  0  0  0  0  0  0  0
  186.0490  176.5820  146.0310 C   0  0  0  0  0  3  0  0  0  0  0  0
  185.8520  178.4010  147.6120 C   0  0  0  0  0  3  0  0  0  0  0  0
  185.6410  179.2900  146.5560 C   0  0  0  0  0  3  0  0  0  0  0  0
  185.6360  178.8300  145.2350 C   0  0  0  0  0  0  0  0  0  0  0  0
  186.0570  177.0480  147.3490 C   0  0  0  0  0  0  0  0  0  0  0  0
  185.4080  179.9780  143.9320 Cl  0  0  0  0  0  0  0  0  0  0  0  0
  1 26  1  0  0  0  0
  1 25  1  1  0  0  0
  2 10  1  6  0  0  0
  2  3  1  0  0  0  0
  4  1  1  6  0  0  0
  5  8  1  1  0  0  0
  5  3  1  0  0  0  0
  6  9  1  6  0  0  0
  6  5  1  0  0  0  0
  6  4  1  0  0  0  0
  7 12  1  6  0  0  0
  7  4  1  0  0  0  0
  7  2  1  0  0  0  0
 10 11  2  0  0  0  0
 13 12  1  0  0  0  0
 14 17  1  0  0  0  0
 14 13  1  1  0  0  0
 15 17  1  0  0  0  0
 17 16  1  0  0  0  0
 20 19  1  1  0  0  0
 20 18  1  0  0  0  0
 20 14  1  0  0  0  0
 21 20  1  0  0  0  0
 22 21  1  0  0  0  0
 23 22  1  0  0  0  0
 25 24  1  0  0  0  0
 27 26  1  0  0  0  0
 28 27  1  0  0  0  0
 29 28  1  0  0  0  0
 30 29  2  0  0  0  0
 31 29  1  1  0  0  0
 31 37  1  0  0  0  0
 32 33  1  0  0  0  0
 33 37  1  0  0  0  0
 33 38  1  1  0  0  0
 34 31  1  0  0  0  0
 35 34  1  0  0  0  0
 36 34  2  0  0  0  0
 36 32  1  0  0  0  0
 38 39  1  0  0  0  0
 39 44  2  0  0  0  0
 39 41  1  0  0  0  0
 41 45  2  0  0  0  0
 43 42  2  0  0  0  0
 44 43  1  0  0  0  0
 45 42  1  0  0  0  0
 45 40  1  0  0  0  0
 46 44  1  0  0  0  0
M  END
>  <MODEL>
2

>  <REMARK>
 VINA RESULT:      -6.1      2.160      5.099
  Name = 
  17 active torsions:
  status: ('A' for Active; 'I' for Inactive)
    1  A    between atoms: C_1  and  C_10
    2  A    between atoms: C_2  and  C_37
    3  A    between atoms: C_3  and  O_36
    4  A    between atoms: C_4  and  C_22
    5  A    between atoms: C_4  and  C_38
    6  A    between atoms: C_7  and  C_24
    7  A    between atoms: C_7  and  C_37
    8  A    between atoms: C_11  and  O_36
    9  A    between atoms: C_15  and  C_29
   10  A    between atoms: O_23  and  C_24
   11  A    between atoms: O_23  and  C_29
   12  A    between atoms: C_27  and  C_38
   13  A    between atoms: C_27  and  C_43
   14  A    between atoms: C_27  and  C_44
   15  A    between atoms: C_29  and  C_35
   16  A    between atoms: O_30  and  C_34
   17  A    between atoms: O_30  and  C_43
                            x       y       z     vdW  Elec       q    Type
                         _______ _______ _______ _____ _____    ______ ____

>  <TORSDO>
F 17

$$$$
=
 OpenBabel11062419483D

 46 48  0  0  1  0  0  0  0  0999 V2000
  191.2270  175.5930  144.3670 C   0  0  2  0  0  3  0  0  0  0  0  0
  193.1340  172.1690  144.8340 C   0  0  1  0  0  3  0  0  0  0  0  0
  194.0860  172.7660  145.7050 O   0  0  0  0  0  0  0  0  0  0  0  0
  192.2760  174.5450  144.7670 C   0  0  2  0  0  3  0  0  0  0  0  0
  194.6860  173.8690  145.0610 C   0  0  1  0  0  3  0  0  0  0  0  0
  193.7130  175.0540  144.9780 C   0  0  1  0  0  3  0  0  0  0  0  0
  192.1940  173.1660  144.0940 C   0  0  1  0  0  3  0  0  0  0  0  0
  195.9380  174.2790  145.8110 C   0  0  0  0  0  1  0  0  0  0  0  0
  194.1050  175.9010  143.9380 O   0  0  0  0  0  1  0  0  0  0  0  0
  193.7270  171.0530  144.0230 C   0  0  0  0  0  3  0  0  0  0  0  0
  193.1990  169.8290  144.0630 C   0  0  0  0  0  2  0  0  0  0  0  0
  192.3170  173.2090  142.5600 C   0  0  0  0  0  2  0  0  0  0  0  0
  191.2370  172.4100  141.8460 C   0  0  0  0  0  2  0  0  0  0  0  0
  191.6950  171.9660  140.4530 C   0  0  1  0  0  3  0  0  0  0  0  0
  193.0560  169.8530  140.3070 C   0  0  0  0  0  1  0  0  0  0  0  0
  190.8160  169.7450  141.3580 C   0  0  0  0  0  1  0  0  0  0  0  0
  191.6570  170.4350  140.2970 C   0  0  0  0  0  3  0  0  0  0  0  0
  190.5770  171.7800  138.3430 O   0  0  0  0  0  1  0  0  0  0  0  0
  191.9870  173.6870  138.6290 C   0  0  0  0  0  1  0  0  0  0  0  0
  191.0020  172.7210  139.2920 C   0  0  2  0  0  0  0  0  0  0  0  0
  189.8880  173.4240  139.8180 O   0  0  0  0  0  0  0  0  0  0  0  0
  188.7250  173.0900  139.0950 C   0  0  0  0  0  2  0  0  0  0  0  0
  188.1030  174.2540  138.6440 O   0  0  0  0  0  1  0  0  0  0  0  0
  189.8150  175.1290  146.3690 C   0  0  0  0  0  1  0  0  0  0  0  0
  190.5420  176.1970  145.5860 C   0  0  0  0  0  2  0  0  0  0  0  0
  190.2760  175.0600  143.4980 O   0  0  0  0  0  0  0  0  0  0  0  0
  190.1390  176.0320  142.5060 C   0  0  0  0  0  2  0  0  0  0  0  0
  188.7570  175.9660  141.8830 C   0  0  0  0  0  2  0  0  0  0  0  0
  188.1160  177.3190  141.8060 C   0  0  0  0  0  0  0  0  0  0  0  0
  188.8120  178.3140  141.6760 O   0  0  0  0  0  0  0  0  0  0  0  0
  186.6290  177.4810  141.9430 C   0  0  2  0  0  3  0  0  0  0  0  0
  183.9370  178.2460  141.8690 C   0  0  0  0  0  2  0  0  0  0  0  0
  184.7740  178.8600  143.0080 C   0  0  2  0  0  3  0  0  0  0  0  0
  185.9190  177.6730  140.6280 C   0  0  0  0  0  0  0  0  0  0  0  0
  186.5690  177.4380  139.3830 N   0  0  0  0  0  1  0  0  0  0  0  0
  184.6900  178.0760  140.6270 N   0  0  0  0  0  0  0  0  0  0  0  0
  186.2890  178.6530  142.8580 C   0  0  0  0  0  2  0  0  0  0  0  0
  184.3440  178.3200  144.2530 O   0  0  0  0  0  0  0  0  0  0  0  0
  185.1560  178.2830  145.3940 C   0  0  0  0  0  0  0  0  0  0  0  0
  186.1000  180.3780  148.2520 F   0  0  0  0  0  0  0  0  0  0  0  0
  185.2430  179.3810  146.2620 C   0  0  0  0  0  3  0  0  0  0  0  0
  186.7680  178.1630  147.6890 C   0  0  0  0  0  3  0  0  0  0  0  0
  186.6930  177.0660  146.8280 C   0  0  0  0  0  3  0  0  0  0  0  0
  185.8890  177.1210  145.6840 C   0  0  0  0  0  0  0  0  0  0  0  0
  186.0440  179.3200  147.4070 C   0  0  0  0  0  0  0  0  0  0  0  0
  185.7850  175.7130  144.6470 Cl  0  0  0  0  0  0  0  0  0  0  0  0
  1 25  1  1  0  0  0
  2 10  1  6  0  0  0
  2  3  1  0  0  0  0
  4  1  1  6  0  0  0
  4  6  1  0  0  0  0
  5  3  1  0  0  0  0
  5  8  1  1  0  0  0
  6  9  1  6  0  0  0
  6  5  1  0  0  0  0
  7 12  1  6  0  0  0
  7  4  1  0  0  0  0
  7  2  1  0  0  0  0
 10 11  2  0  0  0  0
 13 12  1  0  0  0  0
 14 13  1  1  0  0  0
 17 15  1  0  0  0  0
 17 14  1  0  0  0  0
 17 16  1  0  0  0  0
 18 20  1  0  0  0  0
 20 19  1  6  0  0  0
 20 21  1  0  0  0  0
 20 14  1  0  0  0  0
 22 21  1  0  0  0  0
 23 22  1  0  0  0  0
 25 24  1  0  0  0  0
 26  1  1  0  0  0  0
 27 26  1  0  0  0  0
 28 27  1  0  0  0  0
 29 28  1  0  0  0  0
 30 29  2  0  0  0  0
 31 29  1  6  0  0  0
 31 37  1  0  0  0  0
 32 33  1  0  0  0  0
 33 38  1  1  0  0  0
 34 31  1  0  0  0  0
 35 34  1  0  0  0  0
 36 34  2  0  0  0  0
 36 32  1  0  0  0  0
 37 33  1  0  0  0  0
 38 39  1  0  0  0  0
 39 44  2  0  0  0  0
 39 41  1  0  0  0  0
 41 45  2  0  0  0  0
 43 42  2  0  0  0  0
 44 43  1  0  0  0  0
 45 42  1  0  0  0  0
 45 40  1  0  0  0  0
 46 44  1  0  0  0  0
M  END
>  <MODEL>
3

>  <REMARK>
 VINA RESULT:      -6.1      2.519      5.718
  Name = 
  17 active torsions:
  status: ('A' for Active; 'I' for Inactive)
    1  A    between atoms: C_1  and  C_10
    2  A    between atoms: C_2  and  C_37
    3  A    between atoms: C_3  and  O_36
    4  A    between atoms: C_4  and  C_22
    5  A    between atoms: C_4  and  C_38
    6  A    between atoms: C_7  and  C_24
    7  A    between atoms: C_7  and  C_37
    8  A    between atoms: C_11  and  O_36
    9  A    between atoms: C_15  and  C_29
   10  A    between atoms: O_23  and  C_24
   11  A    between atoms: O_23  and  C_29
   12  A    between atoms: C_27  and  C_38
   13  A    between atoms: C_27  and  C_43
   14  A    between atoms: C_27  and  C_44
   15  A    between atoms: C_29  and  C_35
   16  A    between atoms: O_30  and  C_34
   17  A    between atoms: O_30  and  C_43
                            x       y       z     vdW  Elec       q    Type
                         _______ _______ _______ _____ _____    ______ ____

>  <TORSDO>
F 17

$$$$
=
 OpenBabel11062419483D

 46 48  0  0  1  0  0  0  0  0999 V2000
  195.2260  174.5900  144.2210 C   0  0  2  0  0  3  0  0  0  0  0  0
  194.5640  172.8170  140.7570 C   0  0  1  0  0  3  0  0  0  0  0  0
  195.8190  173.2460  140.2470 O   0  0  0  0  0  0  0  0  0  0  0  0
  195.3610  174.1360  142.7600 C   0  0  2  0  0  3  0  0  0  0  0  0
  195.9170  174.6490  140.3570 C   0  0  1  0  0  3  0  0  0  0  0  0
  196.1350  175.0730  141.8160 C   0  0  1  0  0  3  0  0  0  0  0  0
  194.1420  173.4620  142.1110 C   0  0  1  0  0  3  0  0  0  0  0  0
  197.0610  175.1490  139.4970 C   0  0  0  0  0  1  0  0  0  0  0  0
  195.7270  176.4000  141.9770 O   0  0  0  0  0  1  0  0  0  0  0  0
  193.5160  172.7230  139.6850 C   0  0  0  0  0  3  0  0  0  0  0  0
  193.5170  173.5740  138.6570 C   0  0  0  0  0  2  0  0  0  0  0  0
  192.8800  174.3430  142.0820 C   0  0  0  0  0  2  0  0  0  0  0  0
  191.7310  173.7770  142.9040 C   0  0  0  0  0  2  0  0  0  0  0  0
  190.9830  172.6780  142.1400 C   0  0  1  0  0  3  0  0  0  0  0  0
  191.8740  170.3340  141.9150 C   0  0  0  0  0  1  0  0  0  0  0  0
  191.8380  171.3730  144.1630 C   0  0  0  0  0  1  0  0  0  0  0  0
  191.1370  171.3040  142.8160 C   0  0  0  0  0  3  0  0  0  0  0  0
  188.6710  172.2430  142.5870 O   0  0  0  0  0  1  0  0  0  0  0  0
  189.2350  172.7480  140.3200 C   0  0  0  0  0  1  0  0  0  0  0  0
  189.5170  173.0360  141.7970 C   0  0  2  0  0  0  0  0  0  0  0  0
  189.3120  174.4090  142.0880 O   0  0  0  0  0  0  0  0  0  0  0  0
  187.9640  174.7530  141.8590 C   0  0  0  0  0  2  0  0  0  0  0  0
  187.9000  175.8420  140.9900 O   0  0  0  0  0  1  0  0  0  0  0  0
  197.1550  173.1600  144.8930 C   0  0  0  0  0  1  0  0  0  0  0  0
  196.5630  174.5490  144.9490 C   0  0  0  0  0  2  0  0  0  0  0  0
  194.2830  173.8270  144.9100 O   0  0  0  0  0  0  0  0  0  0  0  0
  194.0120  174.5750  146.0560 C   0  0  0  0  0  2  0  0  0  0  0  0
  192.5250  174.5690  146.3560 C   0  0  0  0  0  2  0  0  0  0  0  0
  191.9520  175.9550  146.3630 C   0  0  0  0  0  0  0  0  0  0  0  0
  192.1360  176.6830  147.3270 O   0  0  0  0  0  0  0  0  0  0  0  0
  191.1060  176.4490  145.2260 C   0  0  2  0  0  3  0  0  0  0  0  0
  189.7710  177.8770  143.2210 C   0  0  0  0  0  2  0  0  0  0  0  0
  189.0760  177.8480  144.5950 C   0  0  2  0  0  3  0  0  0  0  0  0
  191.8770  177.2340  144.1960 C   0  0  0  0  0  0  0  0  0  0  0  0
  193.3010  177.2500  144.1760 N   0  0  0  0  0  1  0  0  0  0  0  0
  191.2300  177.9240  143.3140 N   0  0  0  0  0  0  0  0  0  0  0  0
  189.9540  177.3110  145.7360 C   0  0  0  0  0  2  0  0  0  0  0  0
  187.8870  177.0700  144.5060 O   0  0  0  0  0  0  0  0  0  0  0  0
  186.6430  177.5150  144.9730 C   0  0  0  0  0  0  0  0  0  0  0  0
  183.7320  179.4390  143.8440 F   0  0  0  0  0  0  0  0  0  0  0  0
  185.7980  178.2910  144.1670 C   0  0  0  0  0  3  0  0  0  0  0  0
  184.1430  178.3630  145.9280 C   0  0  0  0  0  3  0  0  0  0  0  0
  184.9790  177.5940  146.7400 C   0  0  0  0  0  3  0  0  0  0  0  0
  186.2260  177.1690  146.2680 C   0  0  0  0  0  0  0  0  0  0  0  0
  184.5510  178.7100  144.6420 C   0  0  0  0  0  0  0  0  0  0  0  0
  187.2330  176.1720  147.2980 Cl  0  0  0  0  0  0  0  0  0  0  0  0
  1 26  1  0  0  0  0
  1 25  1  1  0  0  0
  2 10  1  6  0  0  0
  2  7  1  0  0  0  0
  3  5  1  0  0  0  0
  3  2  1  0  0  0  0
  4  1  1  1  0  0  0
  5  8  1  6  0  0  0
  5  6  1  0  0  0  0
  6  9  1  6  0  0  0
  6  4  1  0  0  0  0
  7 12  1  6  0  0  0
  7  4  1  0  0  0  0
 11 10  2  0  0  0  0
 12 13  1  0  0  0  0
 14 17  1  0  0  0  0
 14 13  1  1  0  0  0
 15 17  1  0  0  0  0
 17 16  1  0  0  0  0
 20 19  1  6  0  0  0
 20 21  1  0  0  0  0
 20 14  1  0  0  0  0
 20 18  1  0  0  0  0
 22 21  1  0  0  0  0
 23 22  1  0  0  0  0
 24 25  1  0  0  0  0
 26 27  1  0  0  0  0
 27 28  1  0  0  0  0
 28 29  1  0  0  0  0
 29 30  2  0  0  0  0
 31 37  1  0  0  0  0
 31 29  1  1  0  0  0
 32 36  1  0  0  0  0
 32 33  1  0  0  0  0
 33 38  1  6  0  0  0
 33 37  1  0  0  0  0
 34 31  1  0  0  0  0
 35 34  1  0  0  0  0
 36 34  2  0  0  0  0
 38 39  1  0  0  0  0
 39 44  1  0  0  0  0
 40 45  1  0  0  0  0
 41 45  1  0  0  0  0
 41 39  2  0  0  0  0
 42 43  1  0  0  0  0
 44 43  2  0  0  0  0
 44 46  1  0  0  0  0
 45 42  2  0  0  0  0
M  END
>  <MODEL>
4

>  <REMARK>
 VINA RESULT:      -6.0      2.593      5.169
  Name = 
  17 active torsions:
  status: ('A' for Active; 'I' for Inactive)
    1  A    between atoms: C_1  and  C_10
    2  A    between atoms: C_2  and  C_37
    3  A    between atoms: C_3  and  O_36
    4  A    between atoms: C_4  and  C_22
    5  A    between atoms: C_4  and  C_38
    6  A    between atoms: C_7  and  C_24
    7  A    between atoms: C_7  and  C_37
    8  A    between atoms: C_11  and  O_36
    9  A    between atoms: C_15  and  C_29
   10  A    between atoms: O_23  and  C_24
   11  A    between atoms: O_23  and  C_29
   12  A    between atoms: C_27  and  C_38
   13  A    between atoms: C_27  and  C_43
   14  A    between atoms: C_27  and  C_44
   15  A    between atoms: C_29  and  C_35
   16  A    between atoms: O_30  and  C_34
   17  A    between atoms: O_30  and  C_43
                            x       y       z     vdW  Elec       q    Type
                         _______ _______ _______ _____ _____    ______ ____

>  <TORSDO>
F 17

$$$$
=
 OpenBabel11062419483D

 46 48  0  0  1  0  0  0  0  0999 V2000
  193.8320  175.7490  144.2620 C   0  0  2  0  0  3  0  0  0  0  0  0
  193.5190  171.8830  144.9930 C   0  0  1  0  0  3  0  0  0  0  0  0
  194.7230  171.8830  145.7470 O   0  0  0  0  0  0  0  0  0  0  0  0
  194.1440  174.3160  144.7180 C   0  0  2  0  0  3  0  0  0  0  0  0
  195.7710  172.4080  144.9620 C   0  0  1  0  0  3  0  0  0  0  0  0
  195.6310  173.9280  144.8030 C   0  0  1  0  0  3  0  0  0  0  0  0
  193.2330  173.1930  144.1990 C   0  0  1  0  0  3  0  0  0  0  0  0
  197.1040  172.0750  145.6020 C   0  0  0  0  0  1  0  0  0  0  0  0
  196.3250  174.3380  143.6610 O   0  0  0  0  0  1  0  0  0  0  0  0
  193.2960  170.5830  144.2760 C   0  0  0  0  0  3  0  0  0  0  0  0
  194.1700  169.5820  144.3960 C   0  0  0  0  0  2  0  0  0  0  0  0
  193.2040  173.0670  142.6650 C   0  0  0  0  0  2  0  0  0  0  0  0
  191.8070  173.1970  142.0760 C   0  0  0  0  0  2  0  0  0  0  0  0
  191.4980  172.0510  141.1070 C   0  0  1  0  0  3  0  0  0  0  0  0
  190.8040  169.7410  141.8280 C   0  0  0  0  0  1  0  0  0  0  0  0
  189.7030  171.6900  142.8880 C   0  0  0  0  0  1  0  0  0  0  0  0
  190.3430  171.1680  141.6120 C   0  0  0  0  0  3  0  0  0  0  0  0
  192.0170  171.5900  138.8150 O   0  0  0  0  0  1  0  0  0  0  0  0
  191.9300  173.8950  139.4380 C   0  0  0  0  0  1  0  0  0  0  0  0
  191.3320  172.4990  139.6350 C   0  0  2  0  0  0  0  0  0  0  0  0
  189.9500  172.4980  139.3190 O   0  0  0  0  0  0  0  0  0  0  0  0
  189.5530  173.7800  138.8890 C   0  0  0  0  0  2  0  0  0  0  0  0
  189.0020  173.6960  137.6110 O   0  0  0  0  0  1  0  0  0  0  0  0
  194.2180  176.6900  146.5390 C   0  0  0  0  0  1  0  0  0  0  0  0
  194.6000  176.7800  145.0800 C   0  0  0  0  0  2  0  0  0  0  0  0
  192.4650  176.0180  144.3150 O   0  0  0  0  0  0  0  0  0  0  0  0
  192.2210  176.7720  143.1660 C   0  0  0  0  0  2  0  0  0  0  0  0
  191.4500  178.0330  143.5100 C   0  0  0  0  0  2  0  0  0  0  0  0
  190.1970  177.7280  144.2740 C   0  0  0  0  0  0  0  0  0  0  0  0
  190.2110  177.7470  145.4960 O   0  0  0  0  0  0  0  0  0  0  0  0
  188.9320  177.3400  143.5650 C   0  0  2  0  0  3  0  0  0  0  0  0
  186.9100  176.2420  141.9700 C   0  0  0  0  0  2  0  0  0  0  0  0
  187.6700  177.4340  141.3570 C   0  0  2  0  0  3  0  0  0  0  0  0
  188.6660  175.8570  143.5720 C   0  0  0  0  0  0  0  0  0  0  0  0
  189.3970  174.9680  144.4100 N   0  0  0  0  0  1  0  0  0  0  0  0
  187.7590  175.3750  142.7860 N   0  0  0  0  0  0  0  0  0  0  0  0
  188.9440  177.8280  142.1190 C   0  0  0  0  0  2  0  0  0  0  0  0
  186.7990  178.5580  141.2770 O   0  0  0  0  0  0  0  0  0  0  0  0
  185.4160  178.4710  141.4790 C   0  0  0  0  0  0  0  0  0  0  0  0
  182.3460  177.6540  139.6470 F   0  0  0  0  0  0  0  0  0  0  0  0
  184.5480  178.1200  140.4340 C   0  0  0  0  0  3  0  0  0  0  0  0
  182.6510  178.2740  141.9250 C   0  0  0  0  0  3  0  0  0  0  0  0
  183.5060  178.6290  142.9710 C   0  0  0  0  0  3  0  0  0  0  0  0
  184.8850  178.7270  142.7530 C   0  0  0  0  0  0  0  0  0  0  0  0
  183.1710  178.0190  140.6580 C   0  0  0  0  0  0  0  0  0  0  0  0
  185.9330  179.1360  144.0950 Cl  0  0  0  0  0  0  0  0  0  0  0  0
  1 26  1  0  0  0  0
  1 25  1  1  0  0  0
  2 10  1  6  0  0  0
  2  3  1  0  0  0  0
  4  1  1  6  0  0  0
  4  6  1  0  0  0  0
  5  8  1  1  0  0  0
  5  3  1  0  0  0  0
  6  9  1  6  0  0  0
  6  5  1  0  0  0  0
  7 12  1  6  0  0  0
  7  4  1  0  0  0  0
  7  2  1  0  0  0  0
 10 11  2  0  0  0  0
 13 12  1  0  0  0  0
 14 17  1  0  0  0  0
 14 13  1  1  0  0  0
 17 15  1  0  0  0  0
 17 16  1  0  0  0  0
 18 20  1  0  0  0  0
 20 19  1  6  0  0  0
 20 14  1  0  0  0  0
 21 20  1  0  0  0  0
 22 21  1  0  0  0  0
 23 22  1  0  0  0  0
 25 24  1  0  0  0  0
 27 28  1  0  0  0  0
 27 26  1  0  0  0  0
 28 29  1  0  0  0  0
 29 30  2  0  0  0  0
 31 34  1  0  0  0  0
 31 29  1  6  0  0  0
 32 36  1  0  0  0  0
 33 38  1  1  0  0  0
 33 32  1  0  0  0  0
 33 37  1  0  0  0  0
 34 35  1  0  0  0  0
 36 34  2  0  0  0  0
 37 31  1  0  0  0  0
 38 39  1  0  0  0  0
 39 44  1  0  0  0  0
 40 45  1  0  0  0  0
 41 45  1  0  0  0  0
 41 39  2  0  0  0  0
 42 43  1  0  0  0  0
 44 43  2  0  0  0  0
 44 46  1  0  0  0  0
 45 42  2  0  0  0  0
M  END
>  <MODEL>
5

>  <REMARK>
 VINA RESULT:      -6.0      2.383      5.563
  Name = 
  17 active torsions:
  status: ('A' for Active; 'I' for Inactive)
    1  A    between atoms: C_1  and  C_10
    2  A    between atoms: C_2  and  C_37
    3  A    between atoms: C_3  and  O_36
    4  A    between atoms: C_4  and  C_22
    5  A    between atoms: C_4  and  C_38
    6  A    between atoms: C_7  and  C_24
    7  A    between atoms: C_7  and  C_37
    8  A    between atoms: C_11  and  O_36
    9  A    between atoms: C_15  and  C_29
   10  A    between atoms: O_23  and  C_24
   11  A    between atoms: O_23  and  C_29
   12  A    between atoms: C_27  and  C_38
   13  A    between atoms: C_27  and  C_43
   14  A    between atoms: C_27  and  C_44
   15  A    between atoms: C_29  and  C_35
   16  A    between atoms: O_30  and  C_34
   17  A    between atoms: O_30  and  C_43
                            x       y       z     vdW  Elec       q    Type
                         _______ _______ _______ _____ _____    ______ ____

>  <TORSDO>
F 17

$$$$
=
 OpenBabel11062419483D

 46 48  0  0  1  0  0  0  0  0999 V2000
  193.3470  175.4520  145.7470 C   0  0  2  0  0  3  0  0  0  0  0  0
  194.4880  171.6740  145.7010 C   0  0  1  0  0  3  0  0  0  0  0  0
  195.8490  172.0400  145.5150 O   0  0  0  0  0  0  0  0  0  0  0  0
  194.1990  174.1820  145.6010 C   0  0  2  0  0  3  0  0  0  0  0  0
  195.9620  172.8650  144.3750 C   0  0  1  0  0  3  0  0  0  0  0  0
  195.4090  174.2690  144.6550 C   0  0  1  0  0  3  0  0  0  0  0  0
  193.4610  172.8350  145.5500 C   0  0  1  0  0  3  0  0  0  0  0  0
  197.4160  172.9560  143.9540 C   0  0  0  0  0  1  0  0  0  0  0  0
  195.0610  174.8770  143.4460 O   0  0  0  0  0  1  0  0  0  0  0  0
  194.1540  170.3700  145.0340 C   0  0  0  0  0  3  0  0  0  0  0  0
  194.7330  169.2360  145.4310 C   0  0  0  0  0  2  0  0  0  0  0  0
  192.4590  172.7120  144.3880 C   0  0  0  0  0  2  0  0  0  0  0  0
  193.0210  171.9700  143.1840 C   0  0  0  0  0  2  0  0  0  0  0  0
  192.3000  172.3700  141.8920 C   0  0  1  0  0  3  0  0  0  0  0  0
  193.3860  174.1190  140.4430 C   0  0  0  0  0  1  0  0  0  0  0  0
  194.6800  172.0840  141.0070 C   0  0  0  0  0  1  0  0  0  0  0  0
  193.2890  172.6370  140.7430 C   0  0  0  0  0  3  0  0  0  0  0  0
  189.9570  171.9140  142.0710 O   0  0  0  0  0  1  0  0  0  0  0  0
  191.4050  170.0140  142.0360 C   0  0  0  0  0  1  0  0  0  0  0  0
  191.1400  171.4230  141.5000 C   0  0  2  0  0  0  0  0  0  0  0  0
  191.0330  171.4090  140.0860 O   0  0  0  0  0  0  0  0  0  0  0  0
  189.7990  171.9660  139.6920 C   0  0  0  0  0  2  0  0  0  0  0  0
  189.9910  173.2820  139.2760 O   0  0  0  0  0  1  0  0  0  0  0  0
  194.6620  177.5690  145.7080 C   0  0  0  0  0  1  0  0  0  0  0  0
  194.0490  176.5070  146.5910 C   0  0  0  0  0  2  0  0  0  0  0  0
  192.0910  175.1680  146.2830 O   0  0  0  0  0  0  0  0  0  0  0  0
  191.7450  176.3300  146.9750 C   0  0  0  0  0  2  0  0  0  0  0  0
  190.3460  176.7780  146.5960 C   0  0  0  0  0  2  0  0  0  0  0  0
  190.2480  177.1250  145.1410 C   0  0  0  0  0  0  0  0  0  0  0  0
  190.9500  178.0120  144.6790 O   0  0  0  0  0  0  0  0  0  0  0  0
  189.2560  176.4380  144.2460 C   0  0  2  0  0  3  0  0  0  0  0  0
  187.6470  175.4790  142.1660 C   0  0  0  0  0  2  0  0  0  0  0  0
  187.1200  176.7300  142.8940 C   0  0  2  0  0  3  0  0  0  0  0  0
  189.8740  175.8430  143.0070 C   0  0  0  0  0  0  0  0  0  0  0  0
  191.2840  175.7070  142.8620 N   0  0  0  0  0  1  0  0  0  0  0  0
  189.1040  175.4550  142.0430 N   0  0  0  0  0  0  0  0  0  0  0  0
  188.1450  177.3950  143.8260 C   0  0  0  0  0  2  0  0  0  0  0  0
  185.9560  176.3870  143.6390 O   0  0  0  0  0  0  0  0  0  0  0  0
  185.5090  177.1220  144.7440 C   0  0  0  0  0  0  0  0  0  0  0  0
  185.9580  177.2990  148.3800 F   0  0  0  0  0  0  0  0  0  0  0  0
  185.9480  176.8240  146.0430 C   0  0  0  0  0  3  0  0  0  0  0  0
  184.6200  178.6370  146.9340 C   0  0  0  0  0  3  0  0  0  0  0  0
  184.1730  178.9380  145.6460 C   0  0  0  0  0  3  0  0  0  0  0  0
  184.6150  178.1870  144.5520 C   0  0  0  0  0  0  0  0  0  0  0  0
  185.5070  177.5810  147.1330 C   0  0  0  0  0  0  0  0  0  0  0  0
  184.0670  178.6180  142.9440 Cl  0  0  0  0  0  0  0  0  0  0  0  0
  1 26  1  0  0  0  0
  1 25  1  1  0  0  0
  2 10  1  6  0  0  0
  3  2  1  0  0  0  0
  4  1  1  6  0  0  0
  5  8  1  1  0  0  0
  5  6  1  0  0  0  0
  5  3  1  0  0  0  0
  6  9  1  6  0  0  0
  6  4  1  0  0  0  0
  7 12  1  6  0  0  0
  7  4  1  0  0  0  0
  7  2  1  0  0  0  0
 10 11  2  0  0  0  0
 13 12  1  0  0  0  0
 14 13  1  1  0  0  0
 15 17  1  0  0  0  0
 17 16  1  0  0  0  0
 17 14  1  0  0  0  0
 20 14  1  0  0  0  0
 20 19  1  1  0  0  0
 20 18  1  0  0  0  0
 21 20  1  0  0  0  0
 22 21  1  0  0  0  0
 23 22  1  0  0  0  0
 24 25  1  0  0  0  0
 26 27  1  0  0  0  0
 28 27  1  0  0  0  0
 29 28  1  0  0  0  0
 30 29  2  0  0  0  0
 31 29  1  6  0  0  0
 32 33  1  0  0  0  0
 33 38  1  1  0  0  0
 33 37  1  0  0  0  0
 34 31  1  0  0  0  0
 35 34  1  0  0  0  0
 36 32  1  0  0  0  0
 36 34  2  0  0  0  0
 37 31  1  0  0  0  0
 38 39  1  0  0  0  0
 39 41  1  0  0  0  0
 41 45  2  0  0  0  0
 42 45  1  0  0  0  0
 43 42  2  0  0  0  0
 44 39  2  0  0  0  0
 44 43  1  0  0  0  0
 45 40  1  0  0  0  0
 46 44  1  0  0  0  0
M  END
>  <MODEL>
6

>  <REMARK>
 VINA RESULT:      -5.8      1.687      4.932
  Name = 
  17 active torsions:
  status: ('A' for Active; 'I' for Inactive)
    1  A    between atoms: C_1  and  C_10
    2  A    between atoms: C_2  and  C_37
    3  A    between atoms: C_3  and  O_36
    4  A    between atoms: C_4  and  C_22
    5  A    between atoms: C_4  and  C_38
    6  A    between atoms: C_7  and  C_24
    7  A    between atoms: C_7  and  C_37
    8  A    between atoms: C_11  and  O_36
    9  A    between atoms: C_15  and  C_29
   10  A    between atoms: O_23  and  C_24
   11  A    between atoms: O_23  and  C_29
   12  A    between atoms: C_27  and  C_38
   13  A    between atoms: C_27  and  C_43
   14  A    between atoms: C_27  and  C_44
   15  A    between atoms: C_29  and  C_35
   16  A    between atoms: O_30  and  C_34
   17  A    between atoms: O_30  and  C_43
                            x       y       z     vdW  Elec       q    Type
                         _______ _______ _______ _____ _____    ______ ____

>  <TORSDO>
F 17

$$$$
=
 OpenBabel11062419483D

 46 48  0  0  1  0  0  0  0  0999 V2000
  195.3680  174.3820  142.7660 C   0  0  2  0  0  3  0  0  0  0  0  0
  193.5610  171.3210  144.4830 C   0  0  1  0  0  3  0  0  0  0  0  0
  194.4980  171.3100  145.5520 O   0  0  0  0  0  0  0  0  0  0  0  0
  195.0490  173.2120  143.7080 C   0  0  2  0  0  3  0  0  0  0  0  0
  195.8050  171.2050  145.0310 C   0  0  1  0  0  3  0  0  0  0  0  0
  196.2480  172.5250  144.3850 C   0  0  1  0  0  3  0  0  0  0  0  0
  193.9320  172.2440  143.2840 C   0  0  1  0  0  3  0  0  0  0  0  0
  196.7660  170.8230  146.1390 C   0  0  0  0  0  1  0  0  0  0  0  0
  197.2680  172.2690  143.4640 O   0  0  0  0  0  1  0  0  0  0  0  0
  193.0510  169.9470  144.1600 C   0  0  0  0  0  3  0  0  0  0  0  0
  193.1210  168.9660  145.0610 C   0  0  0  0  0  2  0  0  0  0  0  0
  194.1870  171.5430  141.9380 C   0  0  0  0  0  2  0  0  0  0  0  0
  192.9090  171.1320  141.2200 C   0  0  0  0  0  2  0  0  0  0  0  0
  192.0290  172.3460  140.9030 C   0  0  1  0  0  3  0  0  0  0  0  0
  193.0060  173.7820  139.0810 C   0  0  0  0  0  1  0  0  0  0  0  0
  192.3210  171.4690  138.5220 C   0  0  0  0  0  1  0  0  0  0  0  0
  192.0240  172.6740  139.4000 C   0  0  0  0  0  3  0  0  0  0  0  0
  190.3640  170.9500  141.9100 O   0  0  0  0  0  1  0  0  0  0  0  0
  189.5630  172.7000  140.4930 C   0  0  0  0  0  1  0  0  0  0  0  0
  190.6130  172.2760  141.5240 C   0  0  2  0  0  0  0  0  0  0  0  0
  190.5770  173.1300  142.6550 O   0  0  0  0  0  0  0  0  0  0  0  0
  189.7060  172.6020  143.6300 C   0  0  0  0  0  2  0  0  0  0  0  0
  190.3400  172.5960  144.8710 O   0  0  0  0  0  1  0  0  0  0  0  0
  197.4340  175.7700  142.8930 C   0  0  0  0  0  1  0  0  0  0  0  0
  196.0730  175.5170  143.4970 C   0  0  0  0  0  2  0  0  0  0  0  0
  194.2190  174.8600  142.1350 O   0  0  0  0  0  0  0  0  0  0  0  0
  193.8890  176.0090  142.8540 C   0  0  0  0  0  2  0  0  0  0  0  0
  192.5020  175.8790  143.4560 C   0  0  0  0  0  2  0  0  0  0  0  0
  192.3650  176.6830  144.7150 C   0  0  0  0  0  0  0  0  0  0  0  0
  193.3380  177.2590  145.1760 O   0  0  0  0  0  0  0  0  0  0  0  0
  191.0600  176.7470  145.4550 C   0  0  2  0  0  3  0  0  0  0  0  0
  188.5900  176.3100  146.6980 C   0  0  0  0  0  2  0  0  0  0  0  0
  188.5260  176.7200  145.2140 C   0  0  2  0  0  3  0  0  0  0  0  0
  190.9010  175.6660  146.4930 C   0  0  0  0  0  0  0  0  0  0  0  0
  191.9980  174.8590  146.9090 N   0  0  0  0  0  1  0  0  0  0  0  0
  189.7350  175.4570  147.0120 N   0  0  0  0  0  0  0  0  0  0  0  0
  189.8800  176.6740  144.4890 C   0  0  0  0  0  2  0  0  0  0  0  0
  187.9770  178.0290  145.1100 O   0  0  0  0  0  0  0  0  0  0  0  0
  186.6690  178.2790  144.6730 C   0  0  0  0  0  0  0  0  0  0  0  0
  183.3410  179.0210  146.0230 F   0  0  0  0  0  0  0  0  0  0  0  0
  185.6290  178.5080  145.5850 C   0  0  0  0  0  3  0  0  0  0  0  0
  184.0660  178.8090  143.7650 C   0  0  0  0  0  3  0  0  0  0  0  0
  185.0940  178.5770  142.8490 C   0  0  0  0  0  3  0  0  0  0  0  0
  186.3940  178.3130  143.2970 C   0  0  0  0  0  0  0  0  0  0  0  0
  184.3330  178.7760  145.1320 C   0  0  0  0  0  0  0  0  0  0  0  0
  187.6680  178.0670  142.1210 Cl  0  0  0  0  0  0  0  0  0  0  0  0
  1 25  1  1  0  0  0
  2 10  1  6  0  0  0
  2  3  1  0  0  0  0
  4  1  1  6  0  0  0
  4  6  1  0  0  0  0
  5  3  1  0  0  0  0
  5  8  1  1  0  0  0
  6  9  1  6  0  0  0
  6  5  1  0  0  0  0
  7 12  1  6  0  0  0
  7  4  1  0  0  0  0
  7  2  1  0  0  0  0
 10 11  2  0  0  0  0
 13 12  1  0  0  0  0
 14 13  1  6  0  0  0
 14 20  1  0  0  0  0
 15 17  1  0  0  0  0
 16 17  1  0  0  0  0
 17 14  1  0  0  0  0
 20 19  1  6  0  0  0
 20 18  1  0  0  0  0
 20 21  1  0  0  0  0
 21 22  1  0  0  0  0
 22 23  1  0  0  0  0
 24 25  1  0  0  0  0
 26  1  1  0  0  0  0
 26 27  1  0  0  0  0
 27 28  1  0  0  0  0
 28 29  1  0  0  0  0
 29 30  2  0  0  0  0
 31 29  1  6  0  0  0
 31 34  1  0  0  0  0
 32 36  1  0  0  0  0
 33 38  1  1  0  0  0
 33 32  1  0  0  0  0
 34 35  1  0  0  0  0
 34 36  2  0  0  0  0
 37 33  1  0  0  0  0
 37 31  1  0  0  0  0
 39 38  1  0  0  0  0
 39 41  1  0  0  0  0
 42 45  1  0  0  0  0
 43 44  1  0  0  0  0
 43 42  2  0  0  0  0
 44 39  2  0  0  0  0
 45 41  2  0  0  0  0
 45 40  1  0  0  0  0
 46 44  1  0  0  0  0
M  END
>  <MODEL>
7

>  <REMARK>
 VINA RESULT:      -5.8      2.185      4.933
  Name = 
  17 active torsions:
  status: ('A' for Active; 'I' for Inactive)
    1  A    between atoms: C_1  and  C_10
    2  A    between atoms: C_2  and  C_37
    3  A    between atoms: C_3  and  O_36
    4  A    between atoms: C_4  and  C_22
    5  A    between atoms: C_4  and  C_38
    6  A    between atoms: C_7  and  C_24
    7  A    between atoms: C_7  and  C_37
    8  A    between atoms: C_11  and  O_36
    9  A    between atoms: C_15  and  C_29
   10  A    between atoms: O_23  and  C_24
   11  A    between atoms: O_23  and  C_29
   12  A    between atoms: C_27  and  C_38
   13  A    between atoms: C_27  and  C_43
   14  A    between atoms: C_27  and  C_44
   15  A    between atoms: C_29  and  C_35
   16  A    between atoms: O_30  and  C_34
   17  A    between atoms: O_30  and  C_43
                            x       y       z     vdW  Elec       q    Type
                         _______ _______ _______ _____ _____    ______ ____

>  <TORSDO>
F 17

$$$$
=
 OpenBabel11062419483D

 46 48  0  0  1  0  0  0  0  0999 V2000
  191.2190  175.3800  143.2010 C   0  0  2  0  0  3  0  0  0  0  0  0
  193.1850  172.3730  144.8350 C   0  0  1  0  0  3  0  0  0  0  0  0
  193.8390  173.2400  145.7520 O   0  0  0  0  0  0  0  0  0  0  0  0
  192.2040  174.5670  144.0530 C   0  0  2  0  0  3  0  0  0  0  0  0
  194.5020  174.2620  145.0400 C   0  0  1  0  0  3  0  0  0  0  0  0
  193.5000  175.2790  144.4770 C   0  0  1  0  0  3  0  0  0  0  0  0
  192.3940  173.0830  143.6970 C   0  0  1  0  0  3  0  0  0  0  0  0
  195.4900  174.9600  145.9540 C   0  0  0  0  0  1  0  0  0  0  0  0
  194.0820  175.9510  143.3980 O   0  0  0  0  0  1  0  0  0  0  0  0
  194.0420  171.2020  144.4490 C   0  0  0  0  0  3  0  0  0  0  0  0
  193.6050  169.9530  144.6200 C   0  0  0  0  0  2  0  0  0  0  0  0
  192.8990  172.8430  142.2630 C   0  0  0  0  0  2  0  0  0  0  0  0
  191.9780  171.9520  141.4410 C   0  0  0  0  0  2  0  0  0  0  0  0
  192.7300  171.2790  140.2880 C   0  0  1  0  0  3  0  0  0  0  0  0
  194.2940  169.4210  140.9510 C   0  0  0  0  0  1  0  0  0  0  0  0
  191.8920  169.2010  141.5140 C   0  0  0  0  0  1  0  0  0  0  0  0
  192.8860  169.7640  140.5110 C   0  0  0  0  0  3  0  0  0  0  0  0
  193.2790  171.8790  138.0350 O   0  0  0  0  0  1  0  0  0  0  0  0
  191.3350  172.9130  138.9620 C   0  0  0  0  0  1  0  0  0  0  0  0
  192.1880  171.6440  138.8850 C   0  0  2  0  0  0  0  0  0  0  0  0
  191.4190  170.5530  138.4050 O   0  0  0  0  0  0  0  0  0  0  0  0
  190.0640  170.9280  138.3010 C   0  0  0  0  0  2  0  0  0  0  0  0
  189.3440  169.9140  137.6720 O   0  0  0  0  0  1  0  0  0  0  0  0
  191.2720  177.8550  142.9150 C   0  0  0  0  0  1  0  0  0  0  0  0
  190.8950  176.7230  143.8420 C   0  0  0  0  0  2  0  0  0  0  0  0
  190.0430  174.6690  142.9590 O   0  0  0  0  0  0  0  0  0  0  0  0
  189.6980  175.0180  141.6520 C   0  0  0  0  0  2  0  0  0  0  0  0
  188.1970  175.2110  141.5320 C   0  0  0  0  0  2  0  0  0  0  0  0
  187.7560  176.5200  142.1150 C   0  0  0  0  0  0  0  0  0  0  0  0
  188.0110  177.5620  141.5300 O   0  0  0  0  0  0  0  0  0  0  0  0
  187.0510  176.5790  143.4390 C   0  0  2  0  0  3  0  0  0  0  0  0
  185.6760  177.2480  145.7850 C   0  0  0  0  0  2  0  0  0  0  0  0
  187.2100  177.3840  145.8480 C   0  0  2  0  0  3  0  0  0  0  0  0
  185.7060  177.2570  143.3770 C   0  0  0  0  0  0  0  0  0  0  0  0
  185.0680  177.5450  142.1370 N   0  0  0  0  0  1  0  0  0  0  0  0
  185.1200  177.5980  144.4780 N   0  0  0  0  0  0  0  0  0  0  0  0
  187.9080  177.2900  144.4830 C   0  0  0  0  0  2  0  0  0  0  0  0
  187.7360  176.3890  146.7190 O   0  0  0  0  0  0  0  0  0  0  0  0
  189.0510  176.4090  147.2000 C   0  0  0  0  0  0  0  0  0  0  0  0
  191.3210  178.5630  149.1130 F   0  0  0  0  0  0  0  0  0  0  0  0
  189.5490  177.5090  147.9140 C   0  0  0  0  0  3  0  0  0  0  0  0
  191.6830  176.4030  148.1780 C   0  0  0  0  0  3  0  0  0  0  0  0
  191.1990  175.3050  147.4640 C   0  0  0  0  0  3  0  0  0  0  0  0
  189.8870  175.3030  146.9760 C   0  0  0  0  0  0  0  0  0  0  0  0
  190.8590  177.5040  148.4030 C   0  0  0  0  0  0  0  0  0  0  0  0
  189.2970  173.8930  146.1200 Cl  0  0  0  0  0  0  0  0  0  0  0  0
  1 25  1  1  0  0  0
  2 10  1  6  0  0  0
  2  3  1  0  0  0  0
  4  1  1  6  0  0  0
  4  6  1  0  0  0  0
  5  3  1  0  0  0  0
  5  8  1  1  0  0  0
  6  9  1  6  0  0  0
  6  5  1  0  0  0  0
  7 12  1  6  0  0  0
  7  4  1  0  0  0  0
  7  2  1  0  0  0  0
 10 11  2  0  0  0  0
 13 12  1  0  0  0  0
 14 17  1  0  0  0  0
 14 13  1  1  0  0  0
 17 15  1  0  0  0  0
 17 16  1  0  0  0  0
 18 20  1  0  0  0  0
 20 19  1  1  0  0  0
 20 14  1  0  0  0  0
 21 20  1  0  0  0  0
 22 21  1  0  0  0  0
 23 22  1  0  0  0  0
 24 25  1  0  0  0  0
 26  1  1  0  0  0  0
 27 26  1  0  0  0  0
 28 27  1  0  0  0  0
 28 29  1  0  0  0  0
 30 29  2  0  0  0  0
 31 29  1  6  0  0  0
 31 37  1  0  0  0  0
 32 33  1  0  0  0  0
 33 38  1  1  0  0  0
 34 31  1  0  0  0  0
 34 36  2  0  0  0  0
 35 34  1  0  0  0  0
 36 32  1  0  0  0  0
 37 33  1  0  0  0  0
 38 39  1  0  0  0  0
 39 41  1  0  0  0  0
 41 45  2  0  0  0  0
 42 45  1  0  0  0  0
 43 42  2  0  0  0  0
 44 39  2  0  0  0  0
 44 43  1  0  0  0  0
 45 40  1  0  0  0  0
 46 44  1  0  0  0  0
M  END
>  <MODEL>
8

>  <REMARK>
 VINA RESULT:      -5.7      2.922      6.564
  Name = 
  17 active torsions:
  status: ('A' for Active; 'I' for Inactive)
    1  A    between atoms: C_1  and  C_10
    2  A    between atoms: C_2  and  C_37
    3  A    between atoms: C_3  and  O_36
    4  A    between atoms: C_4  and  C_22
    5  A    between atoms: C_4  and  C_38
    6  A    between atoms: C_7  and  C_24
    7  A    between atoms: C_7  and  C_37
    8  A    between atoms: C_11  and  O_36
    9  A    between atoms: C_15  and  C_29
   10  A    between atoms: O_23  and  C_24
   11  A    between atoms: O_23  and  C_29
   12  A    between atoms: C_27  and  C_38
   13  A    between atoms: C_27  and  C_43
   14  A    between atoms: C_27  and  C_44
   15  A    between atoms: C_29  and  C_35
   16  A    between atoms: O_30  and  C_34
   17  A    between atoms: O_30  and  C_43
                            x       y       z     vdW  Elec       q    Type
                         _______ _______ _______ _____ _____    ______ ____

>  <TORSDO>
F 17

$$$$
=
 OpenBabel11062419483D

 46 48  0  0  1  0  0  0  0  0999 V2000
  190.3590  176.0840  143.3310 C   0  0  2  0  0  3  0  0  0  0  0  0
  192.7100  173.1760  144.5940 C   0  0  1  0  0  3  0  0  0  0  0  0
  193.5230  174.0870  145.3200 O   0  0  0  0  0  0  0  0  0  0  0  0
  191.5260  175.3210  143.9750 C   0  0  2  0  0  3  0  0  0  0  0  0
  193.9900  175.0960  144.4510 C   0  0  1  0  0  3  0  0  0  0  0  0
  192.8640  176.0730  144.0860 C   0  0  1  0  0  3  0  0  0  0  0  0
  191.6740  173.8300  143.6320 C   0  0  1  0  0  3  0  0  0  0  0  0
  195.1330  175.8450  145.1080 C   0  0  0  0  0  1  0  0  0  0  0  0
  193.1820  176.7160  142.8870 O   0  0  0  0  0  1  0  0  0  0  0  0
  193.4940  172.0080  144.0670 C   0  0  0  0  0  3  0  0  0  0  0  0
  194.7600  171.8150  144.4420 C   0  0  0  0  0  2  0  0  0  0  0  0
  191.8650  173.5480  142.1300 C   0  0  0  0  0  2  0  0  0  0  0  0
  190.7750  172.6650  141.5400 C   0  0  0  0  0  2  0  0  0  0  0  0
  191.3050  171.8230  140.3750 C   0  0  1  0  0  3  0  0  0  0  0  0
  192.6450  169.7300  140.7760 C   0  0  0  0  0  1  0  0  0  0  0  0
  190.4840  169.9920  141.9560 C   0  0  0  0  0  1  0  0  0  0  0  0
  191.2510  170.3160  140.6850 C   0  0  0  0  0  3  0  0  0  0  0  0
  189.9920  171.0780  138.5160 O   0  0  0  0  0  1  0  0  0  0  0  0
  191.8010  172.5540  138.0090 C   0  0  0  0  0  1  0  0  0  0  0  0
  190.6920  172.1920  139.0020 C   0  0  2  0  0  0  0  0  0  0  0  0
  189.8070  173.2850  139.1860 O   0  0  0  0  0  0  0  0  0  0  0  0
  188.7520  173.2110  138.2550 C   0  0  0  0  0  2  0  0  0  0  0  0
  187.8440  174.2410  138.4920 O   0  0  0  0  0  1  0  0  0  0  0  0
  189.9950  178.5090  142.8860 C   0  0  0  0  0  1  0  0  0  0  0  0
  190.1720  177.4590  143.9570 C   0  0  0  0  0  2  0  0  0  0  0  0
  189.1700  175.3590  143.4030 O   0  0  0  0  0  0  0  0  0  0  0  0
  188.5620  175.5770  142.1670 C   0  0  0  0  0  2  0  0  0  0  0  0
  187.0550  175.6550  142.3210 C   0  0  0  0  0  2  0  0  0  0  0  0
  186.6010  177.0430  142.6620 C   0  0  0  0  0  0  0  0  0  0  0  0
  186.8230  177.9620  141.8890 O   0  0  0  0  0  0  0  0  0  0  0  0
  185.9240  177.3370  143.9700 C   0  0  2  0  0  3  0  0  0  0  0  0
  184.6500  178.4250  146.2130 C   0  0  0  0  0  2  0  0  0  0  0  0
  186.1910  178.4260  146.2540 C   0  0  2  0  0  3  0  0  0  0  0  0
  184.6460  178.1220  143.8240 C   0  0  0  0  0  0  0  0  0  0  0  0
  184.0180  178.3060  142.5590 N   0  0  0  0  0  1  0  0  0  0  0  0
  184.1090  178.6540  144.8740 N   0  0  0  0  0  0  0  0  0  0  0  0
  186.8570  178.0930  144.9100 C   0  0  0  0  0  2  0  0  0  0  0  0
  186.6370  177.5070  147.2450 O   0  0  0  0  0  0  0  0  0  0  0  0
  187.9100  176.9220  147.2300 C   0  0  0  0  0  0  0  0  0  0  0  0
  189.5590  173.7800  146.3060 F   0  0  0  0  0  0  0  0  0  0  0  0
  188.1020  175.6060  146.7870 C   0  0  0  0  0  3  0  0  0  0  0  0
  190.4800  175.7930  147.1830 C   0  0  0  0  0  3  0  0  0  0  0  0
  190.2990  177.1030  147.6300 C   0  0  0  0  0  3  0  0  0  0  0  0
  189.0190  177.6700  147.6550 C   0  0  0  0  0  0  0  0  0  0  0  0
  189.3820  175.0450  146.7600 C   0  0  0  0  0  0  0  0  0  0  0  0
  188.8320  179.3300  148.1840 Cl  0  0  0  0  0  0  0  0  0  0  0  0
  1 26  1  0  0  0  0
  1 25  1  1  0  0  0
  2 10  1  6  0  0  0
  2  3  1  0  0  0  0
  4  1  1  6  0  0  0
  4  6  1  0  0  0  0
  5  8  1  1  0  0  0
  5  3  1  0  0  0  0
  6  9  1  6  0  0  0
  6  5  1  0  0  0  0
  7 12  1  6  0  0  0
  7  4  1  0  0  0  0
  7  2  1  0  0  0  0
 10 11  2  0  0  0  0
 13 12  1  0  0  0  0
 14 17  1  0  0  0  0
 14 13  1  1  0  0  0
 17 15  1  0  0  0  0
 17 16  1  0  0  0  0
 18 20  1  0  0  0  0
 20 19  1  6  0  0  0
 20 21  1  0  0  0  0
 20 14  1  0  0  0  0
 22 23  1  0  0  0  0
 22 21  1  0  0  0  0
 24 25  1  0  0  0  0
 27 28  1  0  0  0  0
 27 26  1  0  0  0  0
 28 29  1  0  0  0  0
 30 29  2  0  0  0  0
 31 29  1  6  0  0  0
 31 37  1  0  0  0  0
 32 33  1  0  0  0  0
 33 38  1  1  0  0  0
 34 31  1  0  0  0  0
 34 36  2  0  0  0  0
 35 34  1  0  0  0  0
 36 32  1  0  0  0  0
 37 33  1  0  0  0  0
 39 38  1  0  0  0  0
 39 44  1  0  0  0  0
 40 45  1  0  0  0  0
 41 39  2  0  0  0  0
 42 43  1  0  0  0  0
 43 44  2  0  0  0  0
 44 46  1  0  0  0  0
 45 41  1  0  0  0  0
 45 42  2  0  0  0  0
M  END
>  <MODEL>
9

>  <REMARK>
 VINA RESULT:      -5.7      2.947      6.571
  Name = 
  17 active torsions:
  status: ('A' for Active; 'I' for Inactive)
    1  A    between atoms: C_1  and  C_10
    2  A    between atoms: C_2  and  C_37
    3  A    between atoms: C_3  and  O_36
    4  A    between atoms: C_4  and  C_22
    5  A    between atoms: C_4  and  C_38
    6  A    between atoms: C_7  and  C_24
    7  A    between atoms: C_7  and  C_37
    8  A    between atoms: C_11  and  O_36
    9  A    between atoms: C_15  and  C_29
   10  A    between atoms: O_23  and  C_24
   11  A    between atoms: O_23  and  C_29
   12  A    between atoms: C_27  and  C_38
   13  A    between atoms: C_27  and  C_43
   14  A    between atoms: C_27  and  C_44
   15  A    between atoms: C_29  and  C_35
   16  A    between atoms: O_30  and  C_34
   17  A    between atoms: O_30  and  C_43
                            x       y       z     vdW  Elec       q    Type
                         _______ _______ _______ _____ _____    ______ ____

>  <TORSDO>
F 17

$$$$
