=
 OpenBabel11062422443D

 29 31  0  0  1  0  0  0  0  0999 V2000
  188.4100  176.5270  144.3580 C   0  0  1  0  0  3  0  0  0  0  0  0
  188.9590  176.2640  142.9450 C   0  0  2  0  0  3  0  0  0  0  0  0
  188.5650  178.4470  141.9080 O   0  0  0  0  0  0  0  0  0  0  0  0
  186.8340  177.1240  139.8880 C   0  0  0  0  0  1  0  0  0  0  0  0
  188.3500  177.2070  141.9490 C   0  0  0  0  0  0  0  0  0  0  0  0
  187.5330  176.5250  141.0100 N   0  0  0  0  0  0  0  0  0  0  0  0
  188.7120  173.8310  142.8290 O   0  0  0  0  0  0  0  0  0  0  0  0
  187.5720  175.1570  141.2570 N   0  0  0  0  0  2  0  0  0  0  0  0
  188.4190  174.9720  142.3860 C   0  0  0  0  0  0  0  0  0  0  0  0
  189.7030  174.8940  147.5460 C   0  0  0  0  0  3  0  0  0  0  0  0
  191.0810  175.0640  147.4030 C   0  0  0  0  0  3  0  0  0  0  0  0
  188.8370  175.3730  146.5630 C   0  0  0  0  0  3  0  0  0  0  0  0
  189.3430  176.0270  145.4300 C   0  0  0  0  0  0  0  0  0  0  0  0
  190.7310  176.1960  145.2890 C   0  0  0  0  0  0  0  0  0  0  0  0
  191.2440  176.8400  144.1660 O   0  0  0  0  0  1  0  0  0  0  0  0
  191.6060  175.7130  146.2760 C   0  0  0  0  0  0  0  0  0  0  0  0
  193.6140  173.8030  145.2710 O   0  0  0  0  0  0  0  0  0  0  0  0
  193.0200  175.9110  146.1170 N   0  0  0  0  0  2  0  0  0  0  0  0
  193.9790  174.9390  145.6710 C   0  0  0  0  0  0  0  0  0  0  0  0
  195.8260  175.8810  144.3300 C   0  0  0  0  0  1  0  0  0  0  0  0
  195.4320  175.2770  145.6640 C   0  0  0  0  0  3  0  0  0  0  0  0
  196.2690  174.0440  145.9390 C   0  0  0  0  0  1  0  0  0  0  0  0
  188.1060  178.0110  144.5730 C   0  0  0  0  0  2  0  0  0  0  0  0
  184.7920  177.7200  146.3900 C   0  0  0  0  0  3  0  0  0  0  0  0
  186.6770  178.2160  144.9490 C   0  0  0  0  0  0  0  0  0  0  0  0
  186.1250  177.5080  146.0240 C   0  0  0  0  0  3  0  0  0  0  0  0
  184.0110  178.6420  145.6860 C   0  0  0  0  0  3  0  0  0  0  0  0
  185.8950  179.1430  144.2500 C   0  0  0  0  0  3  0  0  0  0  0  0
  184.5630  179.3540  144.6170 C   0  0  0  0  0  3  0  0  0  0  0  0
  1 23  1  1  0  0  0
  1 13  1  0  0  0  0
  2  1  1  1  0  0  0
  3  5  2  0  0  0  0
  4  6  1  0  0  0  0
  5  2  1  0  0  0  0
  6  8  1  0  0  0  0
  6  5  1  0  0  0  0
  8  9  1  0  0  0  0
  9  7  2  0  0  0  0
  9  2  1  0  0  0  0
 11 10  1  0  0  0  0
 12 10  2  0  0  0  0
 13 12  1  0  0  0  0
 14 13  2  0  0  0  0
 14 16  1  0  0  0  0
 15 14  1  0  0  0  0
 16 11  2  0  0  0  0
 17 19  2  0  0  0  0
 18 16  1  0  0  0  0
 19 18  1  0  0  0  0
 20 21  1  0  0  0  0
 21 19  1  0  0  0  0
 21 22  1  0  0  0  0
 23 25  1  0  0  0  0
 25 26  2  0  0  0  0
 26 24  1  0  0  0  0
 27 24  2  0  0  0  0
 28 29  2  0  0  0  0
 28 25  1  0  0  0  0
 29 27  1  0  0  0  0
M  END
>  <MODEL>
1

>  <REMARK>
 VINA RESULT:      -8.0      0.000      0.000
  Name = 
  6 active torsions:
  status: ('A' for Active; 'I' for Inactive)
    1  A    between atoms: C_2  and  C_5
    2  A    between atoms: C_3  and  C_25
    3  A    between atoms: C_5  and  C_25
    4  A    between atoms: C_8  and  C_27
    5  A    between atoms: C_15  and  C_25
    6  A    between atoms: N_26  and  C_29
                            x       y       z     vdW  Elec       q    Type
                         _______ _______ _______ _____ _____    ______ ____

>  <TORSDO>
F 6

$$$$
=
 OpenBabel11062422443D

 29 31  0  0  1  0  0  0  0  0999 V2000
  188.8970  176.6400  145.0760 C   0  0  1  0  0  3  0  0  0  0  0  0
  190.1940  177.3930  145.4170 C   0  0  2  0  0  3  0  0  0  0  0  0
  191.0390  177.8550  143.1660 O   0  0  0  0  0  0  0  0  0  0  0  0
  193.4950  176.3170  143.8210 C   0  0  0  0  0  1  0  0  0  0  0  0
  191.1800  177.3030  144.2890 C   0  0  0  0  0  0  0  0  0  0  0  0
  192.3310  176.5580  144.6530 N   0  0  0  0  0  0  0  0  0  0  0  0
  190.6280  176.5180  147.6620 O   0  0  0  0  0  0  0  0  0  0  0  0
  192.2360  176.1640  145.9840 N   0  0  0  0  0  2  0  0  0  0  0  0
  190.9900  176.6560  146.4650 C   0  0  0  0  0  0  0  0  0  0  0  0
  189.8300  172.9500  144.9520 C   0  0  0  0  0  3  0  0  0  0  0  0
  189.6330  172.6620  143.6000 C   0  0  0  0  0  3  0  0  0  0  0  0
  189.5970  174.2400  145.4290 C   0  0  0  0  0  3  0  0  0  0  0  0
  189.1680  175.2510  144.5570 C   0  0  0  0  0  0  0  0  0  0  0  0
  188.9680  174.9570  143.1970 C   0  0  0  0  0  0  0  0  0  0  0  0
  188.5370  175.9530  142.3250 O   0  0  0  0  0  1  0  0  0  0  0  0
  189.2000  173.6590  142.7140 C   0  0  0  0  0  0  0  0  0  0  0  0
  191.1770  173.8070  140.5320 O   0  0  0  0  0  0  0  0  0  0  0  0
  189.0040  173.3870  141.3170 N   0  0  0  0  0  2  0  0  0  0  0  0
  189.9790  173.5180  140.2710 C   0  0  0  0  0  0  0  0  0  0  0  0
  188.3110  174.0600  138.5330 C   0  0  0  0  0  1  0  0  0  0  0  0
  189.5810  173.2960  138.8500 C   0  0  0  0  0  3  0  0  0  0  0  0
  189.3780  171.8190  138.5770 C   0  0  0  0  0  1  0  0  0  0  0  0
  187.9520  176.5790  146.2790 C   0  0  0  0  0  2  0  0  0  0  0  0
  184.3890  177.8400  146.5620 C   0  0  0  0  0  3  0  0  0  0  0  0
  186.6950  177.3360  146.0110 C   0  0  0  0  0  0  0  0  0  0  0  0
  185.5590  177.1120  146.8000 C   0  0  0  0  0  3  0  0  0  0  0  0
  184.3540  178.7950  145.5420 C   0  0  0  0  0  3  0  0  0  0  0  0
  186.6590  178.2960  144.9940 C   0  0  0  0  0  3  0  0  0  0  0  0
  185.4900  179.0240  144.7580 C   0  0  0  0  0  3  0  0  0  0  0  0
  1 23  1  1  0  0  0
  2  1  1  6  0  0  0
  2  9  1  0  0  0  0
  3  5  2  0  0  0  0
  4  6  1  0  0  0  0
  5  6  1  0  0  0  0
  5  2  1  0  0  0  0
  6  8  1  0  0  0  0
  8  9  1  0  0  0  0
  9  7  2  0  0  0  0
 10 12  1  0  0  0  0
 11 10  2  0  0  0  0
 13  1  1  0  0  0  0
 13 12  2  0  0  0  0
 14 13  1  0  0  0  0
 15 14  1  0  0  0  0
 16 14  2  0  0  0  0
 16 11  1  0  0  0  0
 18 16  1  0  0  0  0
 19 17  2  0  0  0  0
 19 18  1  0  0  0  0
 20 21  1  0  0  0  0
 21 19  1  0  0  0  0
 22 21  1  0  0  0  0
 24 26  1  0  0  0  0
 25 23  1  0  0  0  0
 25 26  2  0  0  0  0
 27 24  2  0  0  0  0
 28 25  1  0  0  0  0
 29 28  2  0  0  0  0
 29 27  1  0  0  0  0
M  END
>  <MODEL>
2

>  <REMARK>
 VINA RESULT:      -7.9      2.246      5.021
  Name = 
  6 active torsions:
  status: ('A' for Active; 'I' for Inactive)
    1  A    between atoms: C_2  and  C_5
    2  A    between atoms: C_3  and  C_25
    3  A    between atoms: C_5  and  C_25
    4  A    between atoms: C_8  and  C_27
    5  A    between atoms: C_15  and  C_25
    6  A    between atoms: N_26  and  C_29
                            x       y       z     vdW  Elec       q    Type
                         _______ _______ _______ _____ _____    ______ ____

>  <TORSDO>
F 6

$$$$
=
 OpenBabel11062422443D

 29 31  0  0  1  0  0  0  0  0999 V2000
  190.4460  174.3390  143.8670 C   0  0  1  0  0  3  0  0  0  0  0  0
  189.5930  173.4780  142.9200 C   0  0  2  0  0  3  0  0  0  0  0  0
  189.3890  171.4310  144.2480 O   0  0  0  0  0  0  0  0  0  0  0  0
  190.7070  169.9280  142.0510 C   0  0  0  0  0  1  0  0  0  0  0  0
  189.7820  172.0170  143.2050 C   0  0  0  0  0  0  0  0  0  0  0  0
  190.4150  171.3480  142.1260 N   0  0  0  0  0  0  0  0  0  0  0  0
  190.1450  174.5180  140.7730 O   0  0  0  0  0  0  0  0  0  0  0  0
  190.6370  172.2400  141.0820 N   0  0  0  0  0  2  0  0  0  0  0  0
  190.1470  173.5030  141.5180 C   0  0  0  0  0  0  0  0  0  0  0  0
  188.9690  174.6400  147.3640 C   0  0  0  0  0  3  0  0  0  0  0  0
  188.2060  175.8030  147.2420 C   0  0  0  0  0  3  0  0  0  0  0  0
  189.6900  174.1620  146.2700 C   0  0  0  0  0  3  0  0  0  0  0  0
  189.6520  174.8430  145.0440 C   0  0  0  0  0  0  0  0  0  0  0  0
  188.8840  176.0140  144.9250 C   0  0  0  0  0  0  0  0  0  0  0  0
  188.8430  176.7000  143.7140 O   0  0  0  0  0  1  0  0  0  0  0  0
  188.1580  176.4990  146.0250 C   0  0  0  0  0  0  0  0  0  0  0  0
  185.2220  176.7390  145.9100 O   0  0  0  0  0  0  0  0  0  0  0  0
  187.3690  177.6890  145.8750 N   0  0  0  0  0  2  0  0  0  0  0  0
  185.9390  177.7650  145.7710 C   0  0  0  0  0  0  0  0  0  0  0  0
  183.7730  178.9380  145.5980 C   0  0  0  0  0  1  0  0  0  0  0  0
  185.2800  179.0780  145.5100 C   0  0  0  0  0  3  0  0  0  0  0  0
  185.6690  179.6090  144.1440 C   0  0  0  0  0  1  0  0  0  0  0  0
  191.6830  173.5790  144.3520 C   0  0  0  0  0  2  0  0  0  0  0  0
  194.4350  176.1390  143.8610 C   0  0  0  0  0  3  0  0  0  0  0  0
  192.8110  174.5150  144.6340 C   0  0  0  0  0  0  0  0  0  0  0  0
  193.3950  175.2440  143.5910 C   0  0  0  0  0  3  0  0  0  0  0  0
  194.8890  176.3090  145.1720 C   0  0  0  0  0  3  0  0  0  0  0  0
  193.2630  174.6910  145.9460 C   0  0  0  0  0  3  0  0  0  0  0  0
  194.3010  175.5850  146.2160 C   0  0  0  0  0  3  0  0  0  0  0  0
  1 23  1  1  0  0  0
  1 13  1  0  0  0  0
  2  5  1  0  0  0  0
  2  1  1  1  0  0  0
  4  6  1  0  0  0  0
  5  3  2  0  0  0  0
  6  5  1  0  0  0  0
  7  9  2  0  0  0  0
  8  9  1  0  0  0  0
  8  6  1  0  0  0  0
  9  2  1  0  0  0  0
 11 10  1  0  0  0  0
 12 10  2  0  0  0  0
 13 12  1  0  0  0  0
 14 13  2  0  0  0  0
 14 16  1  0  0  0  0
 15 14  1  0  0  0  0
 16 11  2  0  0  0  0
 18 16  1  0  0  0  0
 19 18  1  0  0  0  0
 19 17  2  0  0  0  0
 21 20  1  0  0  0  0
 21 19  1  0  0  0  0
 22 21  1  0  0  0  0
 23 25  1  0  0  0  0
 24 27  1  0  0  0  0
 25 28  2  0  0  0  0
 26 24  2  0  0  0  0
 26 25  1  0  0  0  0
 27 29  2  0  0  0  0
 28 29  1  0  0  0  0
M  END
>  <MODEL>
3

>  <REMARK>
 VINA RESULT:      -7.8      2.663      7.064
  Name = 
  6 active torsions:
  status: ('A' for Active; 'I' for Inactive)
    1  A    between atoms: C_2  and  C_5
    2  A    between atoms: C_3  and  C_25
    3  A    between atoms: C_5  and  C_25
    4  A    between atoms: C_8  and  C_27
    5  A    between atoms: C_15  and  C_25
    6  A    between atoms: N_26  and  C_29
                            x       y       z     vdW  Elec       q    Type
                         _______ _______ _______ _____ _____    ______ ____

>  <TORSDO>
F 6

$$$$
=
 OpenBabel11062422443D

 29 31  0  0  1  0  0  0  0  0999 V2000
  191.8560  175.7920  144.5560 C   0  0  1  0  0  3  0  0  0  0  0  0
  193.1070  176.6550  144.7980 C   0  0  2  0  0  3  0  0  0  0  0  0
  194.3270  176.2550  142.7130 O   0  0  0  0  0  0  0  0  0  0  0  0
  196.5840  175.1500  144.2990 C   0  0  0  0  0  1  0  0  0  0  0  0
  194.2610  176.1730  143.9680 C   0  0  0  0  0  0  0  0  0  0  0  0
  195.3080  175.6550  144.7730 N   0  0  0  0  0  0  0  0  0  0  0  0
  193.1320  176.7070  147.2460 O   0  0  0  0  0  0  0  0  0  0  0  0
  194.9800  175.7900  146.1180 N   0  0  0  0  0  2  0  0  0  0  0  0
  193.6910  176.3920  146.1630 C   0  0  0  0  0  0  0  0  0  0  0  0
  189.5260  177.9480  142.4550 C   0  0  0  0  0  3  0  0  0  0  0  0
  188.4500  178.1240  143.3280 C   0  0  0  0  0  3  0  0  0  0  0  0
  190.6310  177.1990  142.8540 C   0  0  0  0  0  3  0  0  0  0  0  0
  190.6710  176.6190  144.1310 C   0  0  0  0  0  0  0  0  0  0  0  0
  189.5860  176.7960  145.0070 C   0  0  0  0  0  0  0  0  0  0  0  0
  189.6130  176.2210  146.2750 O   0  0  0  0  0  1  0  0  0  0  0  0
  188.4700  177.5490  144.6070 C   0  0  0  0  0  0  0  0  0  0  0  0
  185.7160  176.5180  144.3950 O   0  0  0  0  0  0  0  0  0  0  0  0
  187.3800  177.7290  145.5260 N   0  0  0  0  0  2  0  0  0  0  0  0
  186.0350  177.2540  145.3650 C   0  0  0  0  0  0  0  0  0  0  0  0
  184.0870  178.7040  145.8180 C   0  0  0  0  0  1  0  0  0  0  0  0
  184.9920  177.6200  146.3680 C   0  0  0  0  0  3  0  0  0  0  0  0
  185.6340  178.0900  147.6590 C   0  0  0  0  0  1  0  0  0  0  0  0
  192.1270  174.6900  143.5280 C   0  0  0  0  0  2  0  0  0  0  0  0
  189.2940  172.5250  142.2440 C   0  0  0  0  0  3  0  0  0  0  0  0
  191.0040  173.7080  143.4880 C   0  0  0  0  0  0  0  0  0  0  0  0
  190.3290  173.4640  142.2850 C   0  0  0  0  0  3  0  0  0  0  0  0
  188.9350  171.8270  143.4010 C   0  0  0  0  0  3  0  0  0  0  0  0
  190.6470  173.0050  144.6430 C   0  0  0  0  0  3  0  0  0  0  0  0
  189.6130  172.0660  144.6010 C   0  0  0  0  0  3  0  0  0  0  0  0
  1 23  1  6  0  0  0
  2  1  1  6  0  0  0
  2  9  1  0  0  0  0
  3  5  2  0  0  0  0
  4  6  1  0  0  0  0
  5  6  1  0  0  0  0
  5  2  1  0  0  0  0
  6  8  1  0  0  0  0
  8  9  1  0  0  0  0
  9  7  2  0  0  0  0
 10 12  2  0  0  0  0
 10 11  1  0  0  0  0
 11 16  2  0  0  0  0
 12 13  1  0  0  0  0
 13  1  1  0  0  0  0
 13 14  2  0  0  0  0
 14 15  1  0  0  0  0
 16 14  1  0  0  0  0
 16 18  1  0  0  0  0
 17 19  2  0  0  0  0
 19 18  1  0  0  0  0
 19 21  1  0  0  0  0
 20 21  1  0  0  0  0
 21 22  1  0  0  0  0
 24 26  2  0  0  0  0
 24 27  1  0  0  0  0
 25 23  1  0  0  0  0
 25 28  2  0  0  0  0
 26 25  1  0  0  0  0
 27 29  2  0  0  0  0
 29 28  1  0  0  0  0
M  END
>  <MODEL>
4

>  <REMARK>
 VINA RESULT:      -7.8      2.519      7.335
  Name = 
  6 active torsions:
  status: ('A' for Active; 'I' for Inactive)
    1  A    between atoms: C_2  and  C_5
    2  A    between atoms: C_3  and  C_25
    3  A    between atoms: C_5  and  C_25
    4  A    between atoms: C_8  and  C_27
    5  A    between atoms: C_15  and  C_25
    6  A    between atoms: N_26  and  C_29
                            x       y       z     vdW  Elec       q    Type
                         _______ _______ _______ _____ _____    ______ ____

>  <TORSDO>
F 6

$$$$
=
 OpenBabel11062422443D

 29 31  0  0  1  0  0  0  0  0999 V2000
  189.7200  176.1920  144.2720 C   0  0  1  0  0  3  0  0  0  0  0  0
  189.5060  175.9710  142.7650 C   0  0  2  0  0  3  0  0  0  0  0  0
  189.3160  178.2910  142.0030 O   0  0  0  0  0  0  0  0  0  0  0  0
  186.5910  177.6870  140.9860 C   0  0  0  0  0  1  0  0  0  0  0  0
  188.8090  177.1470  142.1440 C   0  0  0  0  0  0  0  0  0  0  0  0
  187.5140  176.8050  141.6770 N   0  0  0  0  0  0  0  0  0  0  0  0
  188.5760  173.7060  142.7850 O   0  0  0  0  0  0  0  0  0  0  0  0
  187.2790  175.4500  141.8870 N   0  0  0  0  0  2  0  0  0  0  0  0
  188.4450  174.9290  142.5150 C   0  0  0  0  0  0  0  0  0  0  0  0
  193.3570  177.0400  145.0130 C   0  0  0  0  0  3  0  0  0  0  0  0
  193.8490  175.8010  145.4310 C   0  0  0  0  0  3  0  0  0  0  0  0
  192.0220  177.1650  144.6310 C   0  0  0  0  0  3  0  0  0  0  0  0
  191.1680  176.0530  144.6640 C   0  0  0  0  0  0  0  0  0  0  0  0
  191.6660  174.8080  145.0880 C   0  0  0  0  0  0  0  0  0  0  0  0
  190.8250  173.6990  145.1290 O   0  0  0  0  0  1  0  0  0  0  0  0
  193.0100  174.6790  145.4740 C   0  0  0  0  0  0  0  0  0  0  0  0
  194.6360  172.7620  143.9330 O   0  0  0  0  0  0  0  0  0  0  0  0
  193.4990  173.3930  145.8880 N   0  0  0  0  0  2  0  0  0  0  0  0
  194.2470  172.4620  145.0920 C   0  0  0  0  0  0  0  0  0  0  0  0
  196.0910  170.9620  145.7620 C   0  0  0  0  0  1  0  0  0  0  0  0
  194.5880  171.1180  145.6440 C   0  0  0  0  0  3  0  0  0  0  0  0
  194.0230  170.0200  144.7650 C   0  0  0  0  0  1  0  0  0  0  0  0
  189.1800  177.5520  144.7210 C   0  0  0  0  0  2  0  0  0  0  0  0
  186.5820  176.4760  147.2620 C   0  0  0  0  0  3  0  0  0  0  0  0
  187.8790  177.4020  145.4370 C   0  0  0  0  0  0  0  0  0  0  0  0
  187.7960  176.5960  146.5790 C   0  0  0  0  0  3  0  0  0  0  0  0
  185.4520  177.1640  146.8080 C   0  0  0  0  0  3  0  0  0  0  0  0
  186.7490  178.0930  144.9870 C   0  0  0  0  0  3  0  0  0  0  0  0
  185.5360  177.9740  145.6710 C   0  0  0  0  0  3  0  0  0  0  0  0
  1 13  1  0  0  0  0
  1 23  1  6  0  0  0
  2  1  1  1  0  0  0
  3  5  2  0  0  0  0
  4  6  1  0  0  0  0
  5  2  1  0  0  0  0
  6  8  1  0  0  0  0
  6  5  1  0  0  0  0
  8  9  1  0  0  0  0
  9  2  1  0  0  0  0
  9  7  2  0  0  0  0
 10 11  1  0  0  0  0
 11 16  2  0  0  0  0
 12 13  1  0  0  0  0
 12 10  2  0  0  0  0
 13 14  2  0  0  0  0
 14 15  1  0  0  0  0
 14 16  1  0  0  0  0
 16 18  1  0  0  0  0
 17 19  2  0  0  0  0
 19 21  1  0  0  0  0
 19 18  1  0  0  0  0
 21 20  1  0  0  0  0
 22 21  1  0  0  0  0
 23 25  1  0  0  0  0
 25 26  1  0  0  0  0
 26 24  2  0  0  0  0
 27 24  1  0  0  0  0
 28 25  2  0  0  0  0
 28 29  1  0  0  0  0
 29 27  2  0  0  0  0
M  END
>  <MODEL>
5

>  <REMARK>
 VINA RESULT:      -7.6      1.825      2.559
  Name = 
  6 active torsions:
  status: ('A' for Active; 'I' for Inactive)
    1  A    between atoms: C_2  and  C_5
    2  A    between atoms: C_3  and  C_25
    3  A    between atoms: C_5  and  C_25
    4  A    between atoms: C_8  and  C_27
    5  A    between atoms: C_15  and  C_25
    6  A    between atoms: N_26  and  C_29
                            x       y       z     vdW  Elec       q    Type
                         _______ _______ _______ _____ _____    ______ ____

>  <TORSDO>
F 6

$$$$
=
 OpenBabel11062422443D

 29 31  0  0  1  0  0  0  0  0999 V2000
  187.9680  177.2410  143.9110 C   0  0  1  0  0  3  0  0  0  0  0  0
  187.3080  178.2810  142.9890 C   0  0  2  0  0  3  0  0  0  0  0  0
  185.7930  179.3730  144.5730 O   0  0  0  0  0  0  0  0  0  0  0  0
  183.5000  178.5690  142.8650 C   0  0  0  0  0  1  0  0  0  0  0  0
  185.9690  178.7000  143.5240 C   0  0  0  0  0  0  0  0  0  0  0  0
  184.9110  178.2900  142.6730 N   0  0  0  0  0  0  0  0  0  0  0  0
  187.6150  177.1950  140.8160 O   0  0  0  0  0  0  0  0  0  0  0  0
  185.4290  177.6550  141.5490 N   0  0  0  0  0  2  0  0  0  0  0  0
  186.8440  177.6480  141.7020 C   0  0  0  0  0  0  0  0  0  0  0  0
  191.6480  177.5230  142.9720 C   0  0  0  0  0  3  0  0  0  0  0  0
  191.9490  176.2000  142.6400 C   0  0  0  0  0  3  0  0  0  0  0  0
  190.3570  177.8610  143.3770 C   0  0  0  0  0  3  0  0  0  0  0  0
  189.3580  176.8800  143.4530 C   0  0  0  0  0  0  0  0  0  0  0  0
  189.6650  175.5490  143.1200 C   0  0  0  0  0  0  0  0  0  0  0  0
  188.6820  174.5670  143.1970 O   0  0  0  0  0  1  0  0  0  0  0  0
  190.9640  175.2050  142.7130 C   0  0  0  0  0  0  0  0  0  0  0  0
  191.5810  172.9510  144.5110 O   0  0  0  0  0  0  0  0  0  0  0  0
  191.2500  173.8410  142.3630 N   0  0  0  0  0  2  0  0  0  0  0  0
  191.5980  172.7780  143.2640 C   0  0  0  0  0  0  0  0  0  0  0  0
  190.7490  170.7350  142.1660 C   0  0  0  0  0  1  0  0  0  0  0  0
  191.9710  171.4380  142.7240 C   0  0  0  0  0  3  0  0  0  0  0  0
  192.6080  170.5850  143.8040 C   0  0  0  0  0  1  0  0  0  0  0  0
  187.9990  177.7200  145.3640 C   0  0  0  0  0  2  0  0  0  0  0  0
  190.8720  176.5010  147.5150 C   0  0  0  0  0  3  0  0  0  0  0  0
  188.8640  176.8380  146.2010 C   0  0  0  0  0  0  0  0  0  0  0  0
  190.0750  177.3220  146.7110 C   0  0  0  0  0  3  0  0  0  0  0  0
  190.4580  175.1990  147.8140 C   0  0  0  0  0  3  0  0  0  0  0  0
  188.4490  175.5370  146.5060 C   0  0  0  0  0  3  0  0  0  0  0  0
  189.2450  174.7180  147.3100 C   0  0  0  0  0  3  0  0  0  0  0  0
  1 23  1  1  0  0  0
  2  5  1  0  0  0  0
  2  1  1  1  0  0  0
  5  3  2  0  0  0  0
  6  4  1  0  0  0  0
  6  5  1  0  0  0  0
  7  9  2  0  0  0  0
  8  9  1  0  0  0  0
  8  6  1  0  0  0  0
  9  2  1  0  0  0  0
 10 12  1  0  0  0  0
 11 16  1  0  0  0  0
 11 10  2  0  0  0  0
 12 13  2  0  0  0  0
 13  1  1  0  0  0  0
 14 15  1  0  0  0  0
 14 13  1  0  0  0  0
 16 14  2  0  0  0  0
 18 16  1  0  0  0  0
 18 19  1  0  0  0  0
 19 17  2  0  0  0  0
 20 21  1  0  0  0  0
 21 19  1  0  0  0  0
 21 22  1  0  0  0  0
 23 25  1  0  0  0  0
 24 27  1  0  0  0  0
 25 28  2  0  0  0  0
 25 26  1  0  0  0  0
 26 24  2  0  0  0  0
 28 29  1  0  0  0  0
 29 27  2  0  0  0  0
M  END
>  <MODEL>
6

>  <REMARK>
 VINA RESULT:      -7.4      2.617      4.478
  Name = 
  6 active torsions:
  status: ('A' for Active; 'I' for Inactive)
    1  A    between atoms: C_2  and  C_5
    2  A    between atoms: C_3  and  C_25
    3  A    between atoms: C_5  and  C_25
    4  A    between atoms: C_8  and  C_27
    5  A    between atoms: C_15  and  C_25
    6  A    between atoms: N_26  and  C_29
                            x       y       z     vdW  Elec       q    Type
                         _______ _______ _______ _____ _____    ______ ____

>  <TORSDO>
F 6

$$$$
=
 OpenBabel11062422443D

 29 31  0  0  1  0  0  0  0  0999 V2000
  188.7180  176.3740  144.5110 C   0  0  1  0  0  3  0  0  0  0  0  0
  188.8050  175.7690  145.9230 C   0  0  2  0  0  3  0  0  0  0  0  0
  188.9380  177.8110  147.2680 O   0  0  0  0  0  0  0  0  0  0  0  0
  191.5660  176.8990  148.3110 C   0  0  0  0  0  1  0  0  0  0  0  0
  189.4510  176.7290  146.8790 C   0  0  0  0  0  0  0  0  0  0  0  0
  190.7010  176.2470  147.3440 N   0  0  0  0  0  0  0  0  0  0  0  0
  189.7250  173.5630  145.3940 O   0  0  0  0  0  0  0  0  0  0  0  0
  190.9480  174.9850  146.8120 N   0  0  0  0  0  2  0  0  0  0  0  0
  189.8370  174.6720  145.9800 C   0  0  0  0  0  0  0  0  0  0  0  0
  190.1750  174.0340  141.8840 C   0  0  0  0  0  3  0  0  0  0  0  0
  191.4700  174.5410  141.7520 C   0  0  0  0  0  3  0  0  0  0  0  0
  189.2860  174.6240  142.7820 C   0  0  0  0  0  3  0  0  0  0  0  0
  189.6840  175.7240  143.5550 C   0  0  0  0  0  0  0  0  0  0  0  0
  190.9880  176.2320  143.4190 C   0  0  0  0  0  0  0  0  0  0  0  0
  191.3920  177.3270  144.1790 O   0  0  0  0  0  1  0  0  0  0  0  0
  191.8860  175.6420  142.5150 C   0  0  0  0  0  0  0  0  0  0  0  0
  194.3570  174.6360  143.7690 O   0  0  0  0  0  0  0  0  0  0  0  0
  193.2170  176.1700  142.4040 N   0  0  0  0  0  2  0  0  0  0  0  0
  194.3920  175.6840  143.0710 C   0  0  0  0  0  0  0  0  0  0  0  0
  196.0000  176.6490  141.4650 C   0  0  0  0  0  1  0  0  0  0  0  0
  195.6850  176.4160  142.9290 C   0  0  0  0  0  3  0  0  0  0  0  0
  196.8120  175.6410  143.5830 C   0  0  0  0  0  1  0  0  0  0  0  0
  187.2940  176.2960  143.9550 C   0  0  0  0  0  2  0  0  0  0  0  0
  185.4680  179.4740  144.9220 C   0  0  0  0  0  3  0  0  0  0  0  0
  186.3890  177.2470  144.6650 C   0  0  0  0  0  0  0  0  0  0  0  0
  186.3350  178.5900  144.2720 C   0  0  0  0  0  3  0  0  0  0  0  0
  184.6530  179.0170  145.9620 C   0  0  0  0  0  3  0  0  0  0  0  0
  185.5680  176.7910  145.7020 C   0  0  0  0  0  3  0  0  0  0  0  0
  184.7020  177.6740  146.3510 C   0  0  0  0  0  3  0  0  0  0  0  0
  1 23  1  6  0  0  0
  2  1  1  6  0  0  0
  2  9  1  0  0  0  0
  2  5  1  0  0  0  0
  5  3  2  0  0  0  0
  5  6  1  0  0  0  0
  6  4  1  0  0  0  0
  7  9  2  0  0  0  0
  8  6  1  0  0  0  0
  9  8  1  0  0  0  0
 10 12  1  0  0  0  0
 11 10  2  0  0  0  0
 11 16  1  0  0  0  0
 12 13  2  0  0  0  0
 13  1  1  0  0  0  0
 14 13  1  0  0  0  0
 14 15  1  0  0  0  0
 16 14  2  0  0  0  0
 18 16  1  0  0  0  0
 18 19  1  0  0  0  0
 19 17  2  0  0  0  0
 20 21  1  0  0  0  0
 21 19  1  0  0  0  0
 21 22  1  0  0  0  0
 23 25  1  0  0  0  0
 24 27  1  0  0  0  0
 25 28  2  0  0  0  0
 26 25  1  0  0  0  0
 26 24  2  0  0  0  0
 27 29  2  0  0  0  0
 28 29  1  0  0  0  0
M  END
>  <MODEL>
7

>  <REMARK>
 VINA RESULT:      -7.4      2.433      3.963
  Name = 
  6 active torsions:
  status: ('A' for Active; 'I' for Inactive)
    1  A    between atoms: C_2  and  C_5
    2  A    between atoms: C_3  and  C_25
    3  A    between atoms: C_5  and  C_25
    4  A    between atoms: C_8  and  C_27
    5  A    between atoms: C_15  and  C_25
    6  A    between atoms: N_26  and  C_29
                            x       y       z     vdW  Elec       q    Type
                         _______ _______ _______ _____ _____    ______ ____

>  <TORSDO>
F 6

$$$$
=
 OpenBabel11062422443D

 29 31  0  0  1  0  0  0  0  0999 V2000
  190.0650  176.3010  144.3300 C   0  0  1  0  0  3  0  0  0  0  0  0
  189.2220  177.5730  144.5240 C   0  0  2  0  0  3  0  0  0  0  0  0
  188.1760  177.0810  146.6830 O   0  0  0  0  0  0  0  0  0  0  0  0
  185.5100  177.2850  145.3860 C   0  0  0  0  0  1  0  0  0  0  0  0
  188.0690  177.3170  145.4500 C   0  0  0  0  0  0  0  0  0  0  0  0
  186.8230  177.4250  144.7820 N   0  0  0  0  0  0  0  0  0  0  0  0
  188.9540  178.2770  142.1940 O   0  0  0  0  0  0  0  0  0  0  0  0
  187.0300  177.7910  143.4550 N   0  0  0  0  0  2  0  0  0  0  0  0
  188.4380  177.9000  143.2790 C   0  0  0  0  0  0  0  0  0  0  0  0
  192.5180  176.4220  147.2390 C   0  0  0  0  0  3  0  0  0  0  0  0
  193.7420  176.3950  146.5680 C   0  0  0  0  0  3  0  0  0  0  0  0
  191.3270  176.3980  146.5140 C   0  0  0  0  0  3  0  0  0  0  0  0
  191.3510  176.3470  145.1130 C   0  0  0  0  0  0  0  0  0  0  0  0
  192.5850  176.3180  144.4400 C   0  0  0  0  0  0  0  0  0  0  0  0
  192.6200  176.2640  143.0500 O   0  0  0  0  0  1  0  0  0  0  0  0
  193.7870  176.3410  145.1670 C   0  0  0  0  0  0  0  0  0  0  0  0
  195.4200  174.0110  144.3980 O   0  0  0  0  0  0  0  0  0  0  0  0
  195.0350  176.3260  144.4580 N   0  0  0  0  0  2  0  0  0  0  0  0
  195.8310  175.1730  144.1440 C   0  0  0  0  0  0  0  0  0  0  0  0
  197.3770  176.7920  143.0990 C   0  0  0  0  0  1  0  0  0  0  0  0
  197.1620  175.3430  143.4910 C   0  0  0  0  0  3  0  0  0  0  0  0
  197.2740  174.4550  142.2670 C   0  0  0  0  0  1  0  0  0  0  0  0
  189.2710  175.0430  144.6930 C   0  0  0  0  0  2  0  0  0  0  0  0
  189.8600  171.8390  142.7560 C   0  0  0  0  0  3  0  0  0  0  0  0
  189.3050  174.0490  143.5810 C   0  0  0  0  0  0  0  0  0  0  0  0
  189.8520  172.7770  143.7930 C   0  0  0  0  0  3  0  0  0  0  0  0
  189.3180  172.1670  141.5100 C   0  0  0  0  0  3  0  0  0  0  0  0
  188.7580  174.3740  142.3340 C   0  0  0  0  0  3  0  0  0  0  0  0
  188.7660  173.4350  141.3000 C   0  0  0  0  0  3  0  0  0  0  0  0
  1 23  1  1  0  0  0
  1 13  1  0  0  0  0
  2  1  1  6  0  0  0
  2  5  1  0  0  0  0
  5  3  2  0  0  0  0
  6  4  1  0  0  0  0
  6  5  1  0  0  0  0
  7  9  2  0  0  0  0
  8  6  1  0  0  0  0
  9  8  1  0  0  0  0
  9  2  1  0  0  0  0
 11 10  1  0  0  0  0
 12 10  2  0  0  0  0
 13 12  1  0  0  0  0
 14 13  2  0  0  0  0
 14 16  1  0  0  0  0
 15 14  1  0  0  0  0
 16 11  2  0  0  0  0
 18 16  1  0  0  0  0
 19 17  2  0  0  0  0
 19 18  1  0  0  0  0
 20 21  1  0  0  0  0
 21 19  1  0  0  0  0
 22 21  1  0  0  0  0
 24 26  1  0  0  0  0
 25 26  2  0  0  0  0
 25 23  1  0  0  0  0
 27 24  2  0  0  0  0
 28 25  1  0  0  0  0
 29 27  1  0  0  0  0
 29 28  2  0  0  0  0
M  END
>  <MODEL>
8

>  <REMARK>
 VINA RESULT:      -7.4      2.108      4.393
  Name = 
  6 active torsions:
  status: ('A' for Active; 'I' for Inactive)
    1  A    between atoms: C_2  and  C_5
    2  A    between atoms: C_3  and  C_25
    3  A    between atoms: C_5  and  C_25
    4  A    between atoms: C_8  and  C_27
    5  A    between atoms: C_15  and  C_25
    6  A    between atoms: N_26  and  C_29
                            x       y       z     vdW  Elec       q    Type
                         _______ _______ _______ _____ _____    ______ ____

>  <TORSDO>
F 6

$$$$
=
 OpenBabel11062422443D

 29 31  0  0  1  0  0  0  0  0999 V2000
  191.1130  175.1530  142.9630 C   0  0  1  0  0  3  0  0  0  0  0  0
  191.9940  174.7880  141.7560 C   0  0  2  0  0  3  0  0  0  0  0  0
  191.3290  172.4560  141.4150 O   0  0  0  0  0  0  0  0  0  0  0  0
  194.1500  171.6340  141.8570 C   0  0  0  0  0  1  0  0  0  0  0  0
  192.2190  173.3060  141.6840 C   0  0  0  0  0  0  0  0  0  0  0  0
  193.5790  172.9680  141.9030 N   0  0  0  0  0  0  0  0  0  0  0  0
  193.8020  176.4170  142.0300 O   0  0  0  0  0  0  0  0  0  0  0  0
  194.3310  174.1260  142.0750 N   0  0  0  0  0  2  0  0  0  0  0  0
  193.4230  175.2180  141.9780 C   0  0  0  0  0  0  0  0  0  0  0  0
  187.8100  175.3800  141.0820 C   0  0  0  0  0  3  0  0  0  0  0  0
  187.1570  176.3890  141.7930 C   0  0  0  0  0  3  0  0  0  0  0  0
  189.0930  174.9840  141.4570 C   0  0  0  0  0  3  0  0  0  0  0  0
  189.7340  175.5940  142.5450 C   0  0  0  0  0  0  0  0  0  0  0  0
  189.0730  176.6080  143.2600 C   0  0  0  0  0  0  0  0  0  0  0  0
  189.6980  177.2170  144.3450 O   0  0  0  0  0  1  0  0  0  0  0  0
  187.7800  177.0080  142.8860 C   0  0  0  0  0  0  0  0  0  0  0  0
  186.1050  176.7750  145.3010 O   0  0  0  0  0  0  0  0  0  0  0  0
  187.1310  178.0570  143.6220 N   0  0  0  0  0  2  0  0  0  0  0  0
  186.2790  177.9020  144.7680 C   0  0  0  0  0  0  0  0  0  0  0  0
  184.3720  178.6650  146.1390 C   0  0  0  0  0  1  0  0  0  0  0  0
  185.5950  179.0930  145.3530 C   0  0  0  0  0  3  0  0  0  0  0  0
  185.1930  180.0670  144.2630 C   0  0  0  0  0  1  0  0  0  0  0  0
  191.0170  173.9930  143.9570 C   0  0  0  0  0  2  0  0  0  0  0  0
  189.9490  174.9150  147.4740 C   0  0  0  0  0  3  0  0  0  0  0  0
  191.0600  174.4870  145.3640 C   0  0  0  0  0  0  0  0  0  0  0  0
  189.9000  174.4740  146.1490 C   0  0  0  0  0  3  0  0  0  0  0  0
  191.1560  175.3650  148.0190 C   0  0  0  0  0  3  0  0  0  0  0  0
  192.2680  174.9330  145.9120 C   0  0  0  0  0  3  0  0  0  0  0  0
  192.3160  175.3730  147.2370 C   0  0  0  0  0  3  0  0  0  0  0  0
  1 23  1  1  0  0  0
  2  9  1  0  0  0  0
  2  1  1  1  0  0  0
  3  5  2  0  0  0  0
  4  6  1  0  0  0  0
  5  2  1  0  0  0  0
  5  6  1  0  0  0  0
  6  8  1  0  0  0  0
  9  7  2  0  0  0  0
  9  8  1  0  0  0  0
 10 12  2  0  0  0  0
 10 11  1  0  0  0  0
 11 16  2  0  0  0  0
 12 13  1  0  0  0  0
 13  1  1  0  0  0  0
 13 14  2  0  0  0  0
 14 15  1  0  0  0  0
 16 14  1  0  0  0  0
 16 18  1  0  0  0  0
 18 19  1  0  0  0  0
 19 17  2  0  0  0  0
 19 21  1  0  0  0  0
 21 20  1  0  0  0  0
 22 21  1  0  0  0  0
 23 25  1  0  0  0  0
 24 27  1  0  0  0  0
 25 28  2  0  0  0  0
 25 26  1  0  0  0  0
 26 24  2  0  0  0  0
 28 29  1  0  0  0  0
 29 27  2  0  0  0  0
M  END
>  <MODEL>
9

>  <REMARK>
 VINA RESULT:      -7.2      2.639      7.026
  Name = 
  6 active torsions:
  status: ('A' for Active; 'I' for Inactive)
    1  A    between atoms: C_2  and  C_5
    2  A    between atoms: C_3  and  C_25
    3  A    between atoms: C_5  and  C_25
    4  A    between atoms: C_8  and  C_27
    5  A    between atoms: C_15  and  C_25
    6  A    between atoms: N_26  and  C_29
                            x       y       z     vdW  Elec       q    Type
                         _______ _______ _______ _____ _____    ______ ____

>  <TORSDO>
F 6

$$$$
