=
 OpenBabel11062422213D

 41 45  0  0  1  0  0  0  0  0999 V2000
  183.4640  179.0380  145.2490 F   0  0  0  0  0  0  0  0  0  0  0  0
  185.6110  178.3300  144.6080 C   0  0  0  0  0  0  0  0  0  0  0  0
  187.2040  177.6210  146.3680 C   0  0  2  0  0  3  0  0  0  0  0  0
  184.6100  177.3440  146.6370 C   0  0  0  0  0  2  0  0  0  0  0  0
  186.0040  177.3320  147.3040 C   0  0  2  0  0  3  0  0  0  0  0  0
  184.5620  178.2600  145.4440 C   0  0  0  0  0  0  0  0  0  0  0  0
  186.8340  177.5020  144.8870 C   0  0  0  0  0  2  0  0  0  0  0  0
  186.5000  179.3540  148.2490 C   0  0  0  0  0  1  0  0  0  0  0  0
  186.0530  178.0510  148.5180 O   0  0  0  0  0  0  0  0  0  0  0  0
  185.5980  179.2550  143.4300 C   0  0  0  0  0  2  0  0  0  0  0  0
  185.5610  178.4800  142.1550 C   0  0  0  0  0  0  0  0  0  0  0  0
  186.7560  178.3090  141.3940 N   0  0  0  0  0  2  0  0  0  0  0  0
  184.4710  177.9880  141.7590 O   0  0  0  0  0  0  0  0  0  0  0  0
  186.7830  177.5630  140.1450 C   0  0  0  0  0  2  0  0  0  0  0  0
  187.4630  176.2260  140.3680 C   0  0  0  0  0  2  0  0  0  0  0  0
  186.8560  175.0840  142.3790 O   0  0  0  0  0  1  0  0  0  0  0  0
  187.7540  176.0120  141.8500 C   0  0  1  0  0  3  0  0  0  0  0  0
  190.0390  176.6210  142.8220 C   0  0  0  0  0  1  0  0  0  0  0  0
  189.1950  175.5630  142.1130 C   0  0  1  0  0  3  0  0  0  0  0  0
  189.7960  171.7200  144.0120 C   0  0  0  0  0  2  0  0  0  0  0  0
  190.0040  171.7800  142.4910 C   0  0  1  0  0  3  0  0  0  0  0  0
  189.7440  174.2360  144.2420 C   0  0  0  0  0  2  0  0  0  0  0  0
  190.4020  172.9330  144.7140 C   0  0  0  0  0  2  0  0  0  0  0  0
  189.2650  174.1820  142.7780 C   0  0  2  0  0  3  0  0  0  0  0  0
  190.1010  173.2140  141.9430 C   0  0  0  0  0  2  0  0  0  0  0  0
  191.2430  170.9850  142.1090 C   0  0  0  0  0  2  0  0  0  0  0  0
  190.8200  169.8820  139.9110 O   0  0  0  0  0  0  0  0  0  0  0  0
  190.5890  168.7050  141.8680 O   0  0  0  0  0  1  0  0  0  0  0  0
  190.8770  169.7890  141.2970 C   0  0  0  0  0  0  0  0  0  0  0  0
  188.3990  176.7420  146.7100 C   0  0  0  0  0  2  0  0  0  0  0  0
  189.5430  177.5550  147.1000 N   0  0  0  0  0  2  0  0  0  0  0  0
  190.6390  177.0960  146.3610 N   0  0  0  0  0  2  0  0  0  0  0  0
  192.8880  176.0640  146.6530 C   0  0  2  0  0  3  0  0  0  0  0  0
  191.8190  175.1640  147.2390 C   0  0  0  0  0  2  0  0  0  0  0  0
  191.6470  176.6680  147.3230 C   0  0  2  0  0  3  0  0  0  0  0  0
  195.0920  175.2970  144.7260 O   0  0  0  0  0  0  0  0  0  0  0  0
  193.7420  174.9170  144.6260 C   0  0  1  0  0  0  0  0  0  0  0  0
  192.8200  176.0030  145.1290 C   0  0  2  0  0  3  0  0  0  0  0  0
  194.1720  176.3440  144.5430 C   0  0  1  0  0  3  0  0  0  0  0  0
  194.2030  173.2570  142.8420 C   0  0  0  0  0  1  0  0  0  0  0  0
  193.3890  174.4800  143.2170 C   0  0  0  0  0  2  0  0  0  0  0  0
  1  6  1  0  0  0  0
  2  7  1  0  0  0  0
  2  6  2  0  0  0  0
  3 30  1  1  0  0  0
  3  5  1  0  0  0  0
  4  5  1  0  0  0  0
  5  9  1  1  0  0  0
  6  4  1  0  0  0  0
  7  3  1  0  0  0  0
  8  9  1  0  0  0  0
 10  2  1  0  0  0  0
 11 10  1  0  0  0  0
 12 11  1  0  0  0  0
 13 11  2  0  0  0  0
 14 15  1  0  0  0  0
 14 12  1  0  0  0  0
 15 17  1  0  0  0  0
 17 19  1  0  0  0  0
 17 16  1  6  0  0  0
 19 18  1  1  0  0  0
 20 23  1  0  0  0  0
 21 26  1  1  0  0  0
 21 20  1  0  0  0  0
 22 23  1  0  0  0  0
 24 19  1  6  0  0  0
 24 22  1  0  0  0  0
 25 21  1  0  0  0  0
 25 24  1  0  0  0  0
 27 29  2  0  0  0  0
 29 28  1  0  0  0  0
 29 26  1  0  0  0  0
 30 31  1  0  0  0  0
 32 31  1  0  0  0  0
 33 34  1  1  0  0  0
 33 35  1  0  0  0  0
 34 35  1  0  0  0  0
 35 32  1  6  0  0  0
 37 41  1  6  0  0  0
 37 36  1  0  0  0  0
 37 38  1  0  0  0  0
 38 33  1  1  0  0  0
 39 37  1  0  0  0  0
 39 36  1  1  0  0  0
 39 38  1  0  0  0  0
 40 41  1  0  0  0  0
M  END
>  <MODEL>
1

>  <REMARK>
 VINA RESULT:      -6.7      0.000      0.000
  Name = 
  16 active torsions:
  status: ('A' for Active; 'I' for Inactive)
    1  A    between atoms: C_1  and  C_28
    2  A    between atoms: C_2  and  C_8
    3  A    between atoms: C_2  and  N_40
    4  A    between atoms: C_5  and  C_28
    5  A    between atoms: C_7  and  C_27
    6  A    between atoms: C_10  and  C_23
    7  A    between atoms: C_17  and  O_37
    8  A    between atoms: C_18  and  C_24
    9  A    between atoms: C_18  and  C_36
   10  A    between atoms: C_20  and  C_34
   11  A    between atoms: C_22  and  C_34
   12  A    between atoms: C_24  and  C_32
   13  A    between atoms: C_29  and  C_32
   14  A    between atoms: N_31  and  C_36
   15  A    between atoms: N_33  and  C_38
   16  A    between atoms: N_33  and  N_40
                            x       y       z     vdW  Elec       q    Type
                         _______ _______ _______ _____ _____    ______ ____

>  <TORSDO>
F 16

$$$$
=
 OpenBabel11062422213D

 41 45  0  0  1  0  0  0  0  0999 V2000
  190.4120  171.6590  145.0410 F   0  0  0  0  0  0  0  0  0  0  0  0
  191.0200  172.9410  143.1680 C   0  0  0  0  0  0  0  0  0  0  0  0
  193.3590  172.8300  142.3600 C   0  0  2  0  0  3  0  0  0  0  0  0
  192.1970  170.8070  143.5590 C   0  0  0  0  0  2  0  0  0  0  0  0
  193.5070  171.4510  143.0500 C   0  0  2  0  0  3  0  0  0  0  0  0
  191.1640  171.8390  143.9240 C   0  0  0  0  0  0  0  0  0  0  0  0
  191.9100  173.1390  141.9740 C   0  0  0  0  0  2  0  0  0  0  0  0
  195.1450  170.1300  143.9440 C   0  0  0  0  0  1  0  0  0  0  0  0
  194.5580  171.4040  143.9910 O   0  0  0  0  0  0  0  0  0  0  0  0
  190.0180  173.9950  143.5270 C   0  0  0  0  0  2  0  0  0  0  0  0
  188.9830  174.1200  142.4590 C   0  0  0  0  0  0  0  0  0  0  0  0
  188.8340  175.3530  141.7560 N   0  0  0  0  0  2  0  0  0  0  0  0
  188.2440  173.1350  142.1920 O   0  0  0  0  0  0  0  0  0  0  0  0
  187.8450  175.5350  140.7050 C   0  0  0  0  0  2  0  0  0  0  0  0
  187.2930  176.9470  140.7660 C   0  0  0  0  0  2  0  0  0  0  0  0
  188.7660  178.6800  141.5020 O   0  0  0  0  0  1  0  0  0  0  0  0
  187.8810  177.7010  141.9540 C   0  0  1  0  0  3  0  0  0  0  0  0
  185.4460  178.4530  142.1620 C   0  0  0  0  0  1  0  0  0  0  0  0
  186.8070  178.3310  142.8470 C   0  0  1  0  0  3  0  0  0  0  0  0
  186.8280  176.7830  146.8890 C   0  0  0  0  0  2  0  0  0  0  0  0
  188.0540  176.4650  146.0200 C   0  0  1  0  0  3  0  0  0  0  0  0
  185.9510  178.5060  145.2610 C   0  0  0  0  0  2  0  0  0  0  0  0
  186.3690  178.2280  146.7110 C   0  0  0  0  0  2  0  0  0  0  0  0
  186.7350  177.6720  144.2290 C   0  0  2  0  0  3  0  0  0  0  0  0
  188.1300  177.3100  144.7370 C   0  0  0  0  0  2  0  0  0  0  0  0
  189.3240  176.6360  146.8390 C   0  0  0  0  0  2  0  0  0  0  0  0
  191.0490  175.2450  147.9870 O   0  0  0  0  0  1  0  0  0  0  0  0
  189.2500  174.2560  146.9610 O   0  0  0  0  0  0  0  0  0  0  0  0
  189.8590  175.3130  147.2720 C   0  0  0  0  0  0  0  0  0  0  0  0
  194.2880  172.9510  141.1590 C   0  0  0  0  0  2  0  0  0  0  0  0
  195.5320  173.6080  141.5340 N   0  0  0  0  0  2  0  0  0  0  0  0
  195.1870  174.7080  142.3290 N   0  0  0  0  0  2  0  0  0  0  0  0
  195.9800  175.3700  144.5960 C   0  0  2  0  0  3  0  0  0  0  0  0
  196.2880  176.4640  143.5940 C   0  0  0  0  0  2  0  0  0  0  0  0
  196.3510  175.0160  143.1500 C   0  0  2  0  0  3  0  0  0  0  0  0
  194.4430  177.1610  146.4900 O   0  0  0  0  0  0  0  0  0  0  0  0
  194.0190  176.7600  145.2110 C   0  0  1  0  0  0  0  0  0  0  0  0
  194.4810  175.3580  144.8870 C   0  0  2  0  0  3  0  0  0  0  0  0
  194.2350  175.7820  146.3180 C   0  0  1  0  0  3  0  0  0  0  0  0
  192.1570  176.8560  143.5760 C   0  0  0  0  0  1  0  0  0  0  0  0
  192.5200  176.9160  145.0460 C   0  0  0  0  0  2  0  0  0  0  0  0
  2 10  1  0  0  0  0
  2  6  2  0  0  0  0
  3 30  1  6  0  0  0
  3  5  1  0  0  0  0
  4  6  1  0  0  0  0
  5  4  1  0  0  0  0
  5  9  1  1  0  0  0
  6  1  1  0  0  0  0
  7  3  1  0  0  0  0
  7  2  1  0  0  0  0
  8  9  1  0  0  0  0
 11 10  1  0  0  0  0
 12 11  1  0  0  0  0
 13 11  2  0  0  0  0
 14 15  1  0  0  0  0
 14 12  1  0  0  0  0
 15 17  1  0  0  0  0
 17 16  1  6  0  0  0
 17 19  1  0  0  0  0
 19 18  1  6  0  0  0
 21 26  1  1  0  0  0
 21 20  1  0  0  0  0
 22 23  1  0  0  0  0
 23 20  1  0  0  0  0
 24 19  1  6  0  0  0
 24 25  1  0  0  0  0
 24 22  1  0  0  0  0
 25 21  1  0  0  0  0
 26 29  1  0  0  0  0
 28 29  2  0  0  0  0
 29 27  1  0  0  0  0
 30 31  1  0  0  0  0
 31 32  1  0  0  0  0
 33 34  1  6  0  0  0
 35 32  1  6  0  0  0
 35 34  1  0  0  0  0
 35 33  1  0  0  0  0
 37 41  1  6  0  0  0
 37 39  1  0  0  0  0
 37 36  1  0  0  0  0
 38 33  1  1  0  0  0
 38 37  1  0  0  0  0
 38 39  1  0  0  0  0
 39 36  1  1  0  0  0
 40 41  1  0  0  0  0
M  END
>  <MODEL>
2

>  <REMARK>
 VINA RESULT:      -6.3      3.090      6.880
  Name = 
  16 active torsions:
  status: ('A' for Active; 'I' for Inactive)
    1  A    between atoms: C_1  and  C_28
    2  A    between atoms: C_2  and  C_8
    3  A    between atoms: C_2  and  N_40
    4  A    between atoms: C_5  and  C_28
    5  A    between atoms: C_7  and  C_27
    6  A    between atoms: C_10  and  C_23
    7  A    between atoms: C_17  and  O_37
    8  A    between atoms: C_18  and  C_24
    9  A    between atoms: C_18  and  C_36
   10  A    between atoms: C_20  and  C_34
   11  A    between atoms: C_22  and  C_34
   12  A    between atoms: C_24  and  C_32
   13  A    between atoms: C_29  and  C_32
   14  A    between atoms: N_31  and  C_36
   15  A    between atoms: N_33  and  C_38
   16  A    between atoms: N_33  and  N_40
                            x       y       z     vdW  Elec       q    Type
                         _______ _______ _______ _____ _____    ______ ____

>  <TORSDO>
F 16

$$$$
=
 OpenBabel11062422213D

 41 45  0  0  1  0  0  0  0  0999 V2000
  197.5850  173.8610  146.0390 F   0  0  0  0  0  0  0  0  0  0  0  0
  195.2480  173.8770  145.8020 C   0  0  0  0  0  0  0  0  0  0  0  0
  194.1780  172.1050  144.4410 C   0  0  2  0  0  3  0  0  0  0  0  0
  196.4140  171.7030  145.7500 C   0  0  0  0  0  2  0  0  0  0  0  0
  195.4190  171.2080  144.6770 C   0  0  2  0  0  3  0  0  0  0  0  0
  196.4070  173.2030  145.8800 C   0  0  0  0  0  0  0  0  0  0  0  0
  193.9700  173.1230  145.5650 C   0  0  0  0  0  2  0  0  0  0  0  0
  197.0390  169.8530  143.8020 C   0  0  0  0  0  1  0  0  0  0  0  0
  196.0420  170.7870  143.4820 O   0  0  0  0  0  0  0  0  0  0  0  0
  195.2170  175.3710  145.9010 C   0  0  0  0  0  2  0  0  0  0  0  0
  194.2630  175.9430  144.9060 C   0  0  0  0  0  0  0  0  0  0  0  0
  193.0690  176.5850  145.3550 N   0  0  0  0  0  2  0  0  0  0  0  0
  194.5180  175.8480  143.6760 O   0  0  0  0  0  0  0  0  0  0  0  0
  192.1030  177.1620  144.4340 C   0  0  0  0  0  2  0  0  0  0  0  0
  190.8200  177.4790  145.1780 C   0  0  0  0  0  2  0  0  0  0  0  0
  190.6730  177.1100  147.5360 O   0  0  0  0  0  1  0  0  0  0  0  0
  190.5860  176.4710  146.2980 C   0  0  1  0  0  3  0  0  0  0  0  0
  189.0160  174.6970  147.2610 C   0  0  0  0  0  1  0  0  0  0  0  0
  189.2420  175.7450  146.1720 C   0  0  1  0  0  3  0  0  0  0  0  0
  185.6920  178.1600  145.6260 C   0  0  0  0  0  2  0  0  0  0  0  0
  186.4600  177.7630  144.3570 C   0  0  1  0  0  3  0  0  0  0  0  0
  186.9700  176.5300  147.0740 C   0  0  0  0  0  2  0  0  0  0  0  0
  185.5850  176.9960  146.6090 C   0  0  0  0  0  2  0  0  0  0  0  0
  188.0670  176.7160  146.0070 C   0  0  2  0  0  3  0  0  0  0  0  0
  187.4970  176.6510  144.5910 C   0  0  0  0  0  2  0  0  0  0  0  0
  185.4810  177.3500  143.2690 C   0  0  0  0  0  2  0  0  0  0  0  0
  187.1260  178.5390  141.8180 O   0  0  0  0  0  1  0  0  0  0  0  0
  185.2020  177.6650  140.9230 O   0  0  0  0  0  0  0  0  0  0  0  0
  185.9270  177.8460  141.9350 C   0  0  0  0  0  0  0  0  0  0  0  0
  192.9250  171.2700  144.2130 C   0  0  0  0  0  2  0  0  0  0  0  0
  192.1630  171.7800  143.0810 N   0  0  0  0  0  2  0  0  0  0  0  0
  190.9580  172.2760  143.5930 N   0  0  0  0  0  2  0  0  0  0  0  0
  190.0900  174.4710  142.7960 C   0  0  2  0  0  3  0  0  0  0  0  0
  191.5150  174.2700  142.3240 C   0  0  0  0  0  2  0  0  0  0  0  0
  191.1010  173.7240  143.6760 C   0  0  2  0  0  3  0  0  0  0  0  0
  187.9830  175.2930  140.7850 O   0  0  0  0  0  0  0  0  0  0  0  0
  188.8650  174.2060  140.6550 C   0  0  1  0  0  0  0  0  0  0  0  0
  189.1590  173.5660  141.9920 C   0  0  2  0  0  3  0  0  0  0  0  0
  187.8470  174.2750  141.7440 C   0  0  1  0  0  3  0  0  0  0  0  0
  188.5440  173.7450  138.2400 C   0  0  0  0  0  1  0  0  0  0  0  0
  188.3600  173.1980  139.6410 C   0  0  0  0  0  2  0  0  0  0  0  0
  2  6  2  0  0  0  0
  2 10  1  0  0  0  0
  3 30  1  1  0  0  0
  3  5  1  0  0  0  0
  3  7  1  0  0  0  0
  4  6  1  0  0  0  0
  5  9  1  6  0  0  0
  5  4  1  0  0  0  0
  6  1  1  0  0  0  0
  7  2  1  0  0  0  0
  9  8  1  0  0  0  0
 11 12  1  0  0  0  0
 11 10  1  0  0  0  0
 13 11  2  0  0  0  0
 14 15  1  0  0  0  0
 14 12  1  0  0  0  0
 15 17  1  0  0  0  0
 17 16  1  1  0  0  0
 19 17  1  0  0  0  0
 19 18  1  1  0  0  0
 20 23  1  0  0  0  0
 21 26  1  6  0  0  0
 21 25  1  0  0  0  0
 21 20  1  0  0  0  0
 23 22  1  0  0  0  0
 24 19  1  6  0  0  0
 24 22  1  0  0  0  0
 25 24  1  0  0  0  0
 27 29  1  0  0  0  0
 28 29  2  0  0  0  0
 29 26  1  0  0  0  0
 31 32  1  0  0  0  0
 31 30  1  0  0  0  0
 33 34  1  6  0  0  0
 33 35  1  0  0  0  0
 34 35  1  0  0  0  0
 35 32  1  6  0  0  0
 37 41  1  6  0  0  0
 37 36  1  0  0  0  0
 37 39  1  0  0  0  0
 37 38  1  0  0  0  0
 38 33  1  1  0  0  0
 39 36  1  1  0  0  0
 39 38  1  0  0  0  0
 40 41  1  0  0  0  0
M  END
>  <MODEL>
3

>  <REMARK>
 VINA RESULT:      -6.2      3.547      8.580
  Name = 
  16 active torsions:
  status: ('A' for Active; 'I' for Inactive)
    1  A    between atoms: C_1  and  C_28
    2  A    between atoms: C_2  and  C_8
    3  A    between atoms: C_2  and  N_40
    4  A    between atoms: C_5  and  C_28
    5  A    between atoms: C_7  and  C_27
    6  A    between atoms: C_10  and  C_23
    7  A    between atoms: C_17  and  O_37
    8  A    between atoms: C_18  and  C_24
    9  A    between atoms: C_18  and  C_36
   10  A    between atoms: C_20  and  C_34
   11  A    between atoms: C_22  and  C_34
   12  A    between atoms: C_24  and  C_32
   13  A    between atoms: C_29  and  C_32
   14  A    between atoms: N_31  and  C_36
   15  A    between atoms: N_33  and  C_38
   16  A    between atoms: N_33  and  N_40
                            x       y       z     vdW  Elec       q    Type
                         _______ _______ _______ _____ _____    ______ ____

>  <TORSDO>
F 16

$$$$
=
 OpenBabel11062422213D

 41 45  0  0  1  0  0  0  0  0999 V2000
  193.1570  172.0620  141.2100 F   0  0  0  0  0  0  0  0  0  0  0  0
  192.9510  174.3820  141.5190 C   0  0  0  0  0  0  0  0  0  0  0  0
  190.8600  175.2680  142.5110 C   0  0  2  0  0  3  0  0  0  0  0  0
  191.7820  172.8830  143.0930 C   0  0  0  0  0  2  0  0  0  0  0  0
  190.6030  173.8790  143.1480 C   0  0  2  0  0  3  0  0  0  0  0  0
  192.6730  173.1250  141.9040 C   0  0  0  0  0  0  0  0  0  0  0  0
  192.3490  175.5350  142.2710 C   0  0  0  0  0  2  0  0  0  0  0  0
  189.3850  171.9450  143.0960 C   0  0  0  0  0  1  0  0  0  0  0  0
  189.3670  173.3100  142.7710 O   0  0  0  0  0  0  0  0  0  0  0  0
  193.8120  174.6490  140.3220 C   0  0  0  0  0  2  0  0  0  0  0  0
  195.2180  174.2270  140.5840 C   0  0  0  0  0  0  0  0  0  0  0  0
  195.8930  174.6910  141.7540 N   0  0  0  0  0  2  0  0  0  0  0  0
  195.8020  173.4680  139.7650 O   0  0  0  0  0  0  0  0  0  0  0  0
  197.2630  174.3130  142.0630 C   0  0  0  0  0  2  0  0  0  0  0  0
  197.2810  173.4500  143.3110 C   0  0  0  0  0  2  0  0  0  0  0  0
  195.8800  171.5130  143.2810 O   0  0  0  0  0  1  0  0  0  0  0  0
  195.8950  172.8740  143.5850 C   0  0  1  0  0  3  0  0  0  0  0  0
  196.5810  173.0740  146.0400 C   0  0  0  0  0  1  0  0  0  0  0  0
  195.4350  173.0980  145.0300 C   0  0  1  0  0  3  0  0  0  0  0  0
  192.9670  176.5640  145.8220 C   0  0  0  0  0  2  0  0  0  0  0  0
  192.3490  175.1910  146.1250 C   0  0  1  0  0  3  0  0  0  0  0  0
  195.2900  175.6090  145.5430 C   0  0  0  0  0  2  0  0  0  0  0  0
  194.4230  176.6420  146.2750 C   0  0  0  0  0  2  0  0  0  0  0  0
  194.5250  174.3240  145.1700 C   0  0  2  0  0  3  0  0  0  0  0  0
  193.3770  174.0470  146.1380 C   0  0  0  0  0  2  0  0  0  0  0  0
  191.6020  175.2440  147.4490 C   0  0  0  0  0  2  0  0  0  0  0  0
  189.7130  176.8350  147.0970 O   0  0  0  0  0  0  0  0  0  0  0  0
  189.3270  174.5760  147.2010 O   0  0  0  0  0  1  0  0  0  0  0  0
  190.1540  175.5240  147.2310 C   0  0  0  0  0  0  0  0  0  0  0  0
  190.2250  176.3820  143.3320 C   0  0  0  0  0  2  0  0  0  0  0  0
  188.9040  175.9870  143.8030 N   0  0  0  0  0  2  0  0  0  0  0  0
  188.1710  177.1640  143.9910 N   0  0  0  0  0  2  0  0  0  0  0  0
  186.3560  178.4280  142.8450 C   0  0  2  0  0  3  0  0  0  0  0  0
  186.1550  176.9380  142.6580 C   0  0  0  0  0  2  0  0  0  0  0  0
  187.5640  177.4930  142.7080 C   0  0  2  0  0  3  0  0  0  0  0  0
  183.6330  179.1030  143.9800 O   0  0  0  0  0  0  0  0  0  0  0  0
  184.6160  178.3210  144.6110 C   0  0  1  0  0  0  0  0  0  0  0  0
  186.0080  178.8090  144.2830 C   0  0  2  0  0  3  0  0  0  0  0  0
  184.8350  179.7620  144.2890 C   0  0  1  0  0  3  0  0  0  0  0  0
  185.0710  177.0020  146.6610 C   0  0  0  0  0  1  0  0  0  0  0  0
  184.3830  178.2340  146.1070 C   0  0  0  0  0  2  0  0  0  0  0  0
  1  6  1  0  0  0  0
  2  6  2  0  0  0  0
  2  7  1  0  0  0  0
  3  5  1  0  0  0  0
  3 30  1  1  0  0  0
  4  5  1  0  0  0  0
  5  9  1  6  0  0  0
  6  4  1  0  0  0  0
  7  3  1  0  0  0  0
  9  8  1  0  0  0  0
 10 11  1  0  0  0  0
 10  2  1  0  0  0  0
 11 12  1  0  0  0  0
 12 14  1  0  0  0  0
 13 11  2  0  0  0  0
 14 15  1  0  0  0  0
 15 17  1  0  0  0  0
 17 16  1  1  0  0  0
 17 19  1  0  0  0  0
 19 18  1  1  0  0  0
 20 21  1  0  0  0  0
 20 23  1  0  0  0  0
 21 25  1  0  0  0  0
 21 26  1  1  0  0  0
 22 23  1  0  0  0  0
 24 19  1  1  0  0  0
 24 22  1  0  0  0  0
 24 25  1  0  0  0  0
 27 29  2  0  0  0  0
 28 29  1  0  0  0  0
 29 26  1  0  0  0  0
 30 31  1  0  0  0  0
 31 32  1  0  0  0  0
 33 34  1  1  0  0  0
 34 35  1  0  0  0  0
 35 33  1  0  0  0  0
 35 32  1  1  0  0  0
 36 37  1  0  0  0  0
 37 41  1  1  0  0  0
 38 33  1  6  0  0  0
 38 39  1  0  0  0  0
 38 37  1  0  0  0  0
 39 36  1  6  0  0  0
 39 37  1  0  0  0  0
 41 40  1  0  0  0  0
M  END
>  <MODEL>
4

>  <REMARK>
 VINA RESULT:      -6.1      3.286      8.534
  Name = 
  16 active torsions:
  status: ('A' for Active; 'I' for Inactive)
    1  A    between atoms: C_1  and  C_28
    2  A    between atoms: C_2  and  C_8
    3  A    between atoms: C_2  and  N_40
    4  A    between atoms: C_5  and  C_28
    5  A    between atoms: C_7  and  C_27
    6  A    between atoms: C_10  and  C_23
    7  A    between atoms: C_17  and  O_37
    8  A    between atoms: C_18  and  C_24
    9  A    between atoms: C_18  and  C_36
   10  A    between atoms: C_20  and  C_34
   11  A    between atoms: C_22  and  C_34
   12  A    between atoms: C_24  and  C_32
   13  A    between atoms: C_29  and  C_32
   14  A    between atoms: N_31  and  C_36
   15  A    between atoms: N_33  and  C_38
   16  A    between atoms: N_33  and  N_40
                            x       y       z     vdW  Elec       q    Type
                         _______ _______ _______ _____ _____    ______ ____

>  <TORSDO>
F 16

$$$$
=
 OpenBabel11062422213D

 41 45  0  0  1  0  0  0  0  0999 V2000
  185.6920  177.9710  146.8490 F   0  0  0  0  0  0  0  0  0  0  0  0
  187.4430  177.3510  145.4100 C   0  0  0  0  0  0  0  0  0  0  0  0
  187.0970  177.5430  142.9640 C   0  0  2  0  0  3  0  0  0  0  0  0
  185.8980  179.1290  144.6740 C   0  0  0  0  0  2  0  0  0  0  0  0
  185.9890  178.5930  143.2280 C   0  0  2  0  0  3  0  0  0  0  0  0
  186.3750  178.1190  145.6830 C   0  0  0  0  0  0  0  0  0  0  0  0
  188.1380  177.4970  144.0860 C   0  0  0  0  0  2  0  0  0  0  0  0
  183.7250  178.7760  143.4890 C   0  0  0  0  0  1  0  0  0  0  0  0
  184.7380  178.2380  142.6800 O   0  0  0  0  0  0  0  0  0  0  0  0
  187.9200  176.3190  146.3860 C   0  0  0  0  0  2  0  0  0  0  0  0
  189.2350  176.7180  146.9690 C   0  0  0  0  0  0  0  0  0  0  0  0
  190.2660  175.7430  147.1270 N   0  0  0  0  0  2  0  0  0  0  0  0
  189.4200  177.9120  147.3230 O   0  0  0  0  0  0  0  0  0  0  0  0
  191.5670  176.0710  147.6870 C   0  0  0  0  0  2  0  0  0  0  0  0
  192.6420  175.2740  146.9730 C   0  0  0  0  0  2  0  0  0  0  0  0
  194.3700  176.9160  146.8000 O   0  0  0  0  0  1  0  0  0  0  0  0
  193.4560  176.1750  146.0500 C   0  0  1  0  0  3  0  0  0  0  0  0
  195.0270  176.2850  144.0360 C   0  0  0  0  0  1  0  0  0  0  0  0
  194.1820  175.3960  144.9490 C   0  0  1  0  0  3  0  0  0  0  0  0
  196.4740  171.9140  146.1160 C   0  0  0  0  0  2  0  0  0  0  0  0
  195.0740  171.6590  145.5370 C   0  0  1  0  0  3  0  0  0  0  0  0
  196.4780  174.3380  145.3990 C   0  0  0  0  0  2  0  0  0  0  0  0
  197.2190  172.9960  145.3380 C   0  0  0  0  0  2  0  0  0  0  0  0
  194.9470  174.1860  145.4980 C   0  0  2  0  0  3  0  0  0  0  0  0
  194.4640  172.8910  144.8470 C   0  0  0  0  0  2  0  0  0  0  0  0
  195.1230  170.4850  144.5710 C   0  0  0  0  0  2  0  0  0  0  0  0
  192.7270  169.8460  144.2920 O   0  0  0  0  0  0  0  0  0  0  0  0
  194.1510  168.5190  145.5060 O   0  0  0  0  0  1  0  0  0  0  0  0
  193.9830  169.5530  144.8100 C   0  0  0  0  0  0  0  0  0  0  0  0
  187.7560  177.7600  141.6090 C   0  0  0  0  0  2  0  0  0  0  0  0
  187.5290  176.6150  140.7370 N   0  0  0  0  0  2  0  0  0  0  0  0
  188.4440  175.6260  141.1190 N   0  0  0  0  0  2  0  0  0  0  0  0
  188.4140  173.1400  140.9610 C   0  0  2  0  0  3  0  0  0  0  0  0
  189.5090  173.7070  140.0810 C   0  0  0  0  0  2  0  0  0  0  0  0
  188.2170  174.4820  140.2450 C   0  0  2  0  0  3  0  0  0  0  0  0
  190.1480  171.2410  142.5560 O   0  0  0  0  0  0  0  0  0  0  0  0
  190.1980  172.6450  142.6110 C   0  0  1  0  0  0  0  0  0  0  0  0
  188.8300  173.2570  142.4260 C   0  0  2  0  0  3  0  0  0  0  0  0
  188.9860  171.8780  143.0240 C   0  0  1  0  0  3  0  0  0  0  0  0
  190.8450  174.6430  143.9300 C   0  0  0  0  0  1  0  0  0  0  0  0
  190.8700  173.1280  143.8820 C   0  0  0  0  0  2  0  0  0  0  0  0
  2  6  2  0  0  0  0
  2 10  1  0  0  0  0
  3 30  1  6  0  0  0
  3  5  1  0  0  0  0
  3  7  1  0  0  0  0
  4  6  1  0  0  0  0
  5  9  1  1  0  0  0
  5  4  1  0  0  0  0
  6  1  1  0  0  0  0
  7  2  1  0  0  0  0
  9  8  1  0  0  0  0
 10 11  1  0  0  0  0
 11 12  1  0  0  0  0
 11 13  2  0  0  0  0
 12 14  1  0  0  0  0
 15 14  1  0  0  0  0
 17 16  1  1  0  0  0
 17 15  1  0  0  0  0
 19 18  1  1  0  0  0
 19 17  1  0  0  0  0
 21 26  1  6  0  0  0
 21 20  1  0  0  0  0
 22 24  1  0  0  0  0
 23 22  1  0  0  0  0
 23 20  1  0  0  0  0
 24 19  1  6  0  0  0
 25 24  1  0  0  0  0
 25 21  1  0  0  0  0
 26 29  1  0  0  0  0
 27 29  2  0  0  0  0
 29 28  1  0  0  0  0
 31 32  1  0  0  0  0
 31 30  1  0  0  0  0
 33 34  1  6  0  0  0
 34 35  1  0  0  0  0
 35 33  1  0  0  0  0
 35 32  1  1  0  0  0
 36 37  1  0  0  0  0
 37 39  1  0  0  0  0
 37 41  1  1  0  0  0
 38 33  1  6  0  0  0
 38 37  1  0  0  0  0
 38 39  1  0  0  0  0
 39 36  1  6  0  0  0
 41 40  1  0  0  0  0
M  END
>  <MODEL>
5

>  <REMARK>
 VINA RESULT:      -6.1      2.300      5.921
  Name = 
  16 active torsions:
  status: ('A' for Active; 'I' for Inactive)
    1  A    between atoms: C_1  and  C_28
    2  A    between atoms: C_2  and  C_8
    3  A    between atoms: C_2  and  N_40
    4  A    between atoms: C_5  and  C_28
    5  A    between atoms: C_7  and  C_27
    6  A    between atoms: C_10  and  C_23
    7  A    between atoms: C_17  and  O_37
    8  A    between atoms: C_18  and  C_24
    9  A    between atoms: C_18  and  C_36
   10  A    between atoms: C_20  and  C_34
   11  A    between atoms: C_22  and  C_34
   12  A    between atoms: C_24  and  C_32
   13  A    between atoms: C_29  and  C_32
   14  A    between atoms: N_31  and  C_36
   15  A    between atoms: N_33  and  C_38
   16  A    between atoms: N_33  and  N_40
                            x       y       z     vdW  Elec       q    Type
                         _______ _______ _______ _____ _____    ______ ____

>  <TORSDO>
F 16

$$$$
=
 OpenBabel11062422213D

 41 45  0  0  1  0  0  0  0  0999 V2000
  189.6640  171.9170  145.0950 F   0  0  0  0  0  0  0  0  0  0  0  0
  190.5600  173.4650  143.5720 C   0  0  0  0  0  0  0  0  0  0  0  0
  193.0180  173.7680  143.4920 C   0  0  2  0  0  3  0  0  0  0  0  0
  191.9120  171.4870  144.1610 C   0  0  0  0  0  2  0  0  0  0  0  0
  193.1880  172.3570  144.1080 C   0  0  2  0  0  3  0  0  0  0  0  0
  190.6630  172.3200  144.2650 C   0  0  0  0  0  0  0  0  0  0  0  0
  191.7080  173.9130  142.7120 C   0  0  0  0  0  2  0  0  0  0  0  0
  194.9040  171.3570  145.2400 C   0  0  0  0  0  1  0  0  0  0  0  0
  193.9210  172.3560  145.3140 O   0  0  0  0  0  0  0  0  0  0  0  0
  189.3390  174.3260  143.6800 C   0  0  0  0  0  2  0  0  0  0  0  0
  188.5680  174.3050  142.4030 C   0  0  0  0  0  0  0  0  0  0  0  0
  188.5040  175.4790  141.5930 N   0  0  0  0  0  2  0  0  0  0  0  0
  187.9730  173.2510  142.0540 O   0  0  0  0  0  0  0  0  0  0  0  0
  187.7700  175.5190  140.3380 C   0  0  0  0  0  2  0  0  0  0  0  0
  187.1030  176.8730  140.1840 C   0  0  0  0  0  2  0  0  0  0  0  0
  188.2660  178.5980  141.3620 O   0  0  0  0  0  1  0  0  0  0  0  0
  187.2220  177.6790  141.4740 C   0  0  1  0  0  3  0  0  0  0  0  0
  184.8390  178.2840  140.7720 C   0  0  0  0  0  1  0  0  0  0  0  0
  185.9210  178.3990  141.8450 C   0  0  1  0  0  3  0  0  0  0  0  0
  184.6880  177.7090  145.9360 C   0  0  0  0  0  2  0  0  0  0  0  0
  186.1350  177.3410  145.5790 C   0  0  1  0  0  3  0  0  0  0  0  0
  184.3320  178.9750  143.7780 C   0  0  0  0  0  2  0  0  0  0  0  0
  184.2710  179.0370  145.3090 C   0  0  0  0  0  2  0  0  0  0  0  0
  185.4280  178.0290  143.2490 C   0  0  2  0  0  3  0  0  0  0  0  0
  186.5960  177.9130  144.2270 C   0  0  0  0  0  2  0  0  0  0  0  0
  187.0710  177.7950  146.6890 C   0  0  0  0  0  2  0  0  0  0  0  0
  185.5700  177.5360  148.6650 O   0  0  0  0  0  1  0  0  0  0  0  0
  186.2920  179.6160  148.0150 O   0  0  0  0  0  0  0  0  0  0  0  0
  186.3030  178.3710  147.8290 C   0  0  0  0  0  0  0  0  0  0  0  0
  194.2170  174.1460  142.6320 C   0  0  0  0  0  2  0  0  0  0  0  0
  195.1990  174.8860  143.4140 N   0  0  0  0  0  2  0  0  0  0  0  0
  194.5050  175.9050  144.0770 N   0  0  0  0  0  2  0  0  0  0  0  0
  193.9840  175.8880  146.5130 C   0  0  2  0  0  3  0  0  0  0  0  0
  194.5470  177.2350  146.1080 C   0  0  0  0  0  2  0  0  0  0  0  0
  195.0590  175.9840  145.4230 C   0  0  2  0  0  3  0  0  0  0  0  0
  191.4300  175.6420  148.1180 O   0  0  0  0  0  0  0  0  0  0  0  0
  191.6010  176.4140  146.9550 C   0  0  1  0  0  0  0  0  0  0  0  0
  192.5570  175.7570  145.9870 C   0  0  2  0  0  3  0  0  0  0  0  0
  191.7330  174.9280  146.9460 C   0  0  1  0  0  3  0  0  0  0  0  0
  190.5030  177.5520  145.0450 C   0  0  0  0  0  1  0  0  0  0  0  0
  190.2700  176.7430  146.3050 C   0  0  0  0  0  2  0  0  0  0  0  0
  2 10  1  0  0  0  0
  2  6  2  0  0  0  0
  3 30  1  6  0  0  0
  3  5  1  0  0  0  0
  4  6  1  0  0  0  0
  5  4  1  0  0  0  0
  5  9  1  1  0  0  0
  6  1  1  0  0  0  0
  7  3  1  0  0  0  0
  7  2  1  0  0  0  0
  8  9  1  0  0  0  0
 11 10  1  0  0  0  0
 12 11  1  0  0  0  0
 13 11  2  0  0  0  0
 14 12  1  0  0  0  0
 15 14  1  0  0  0  0
 15 17  1  0  0  0  0
 17 16  1  6  0  0  0
 17 19  1  0  0  0  0
 19 18  1  6  0  0  0
 21 20  1  0  0  0  0
 21 26  1  1  0  0  0
 22 23  1  0  0  0  0
 23 20  1  0  0  0  0
 24 19  1  6  0  0  0
 24 22  1  0  0  0  0
 24 25  1  0  0  0  0
 25 21  1  0  0  0  0
 26 29  1  0  0  0  0
 29 28  2  0  0  0  0
 29 27  1  0  0  0  0
 30 31  1  0  0  0  0
 31 32  1  0  0  0  0
 33 34  1  6  0  0  0
 35 32  1  6  0  0  0
 35 34  1  0  0  0  0
 35 33  1  0  0  0  0
 37 41  1  6  0  0  0
 37 36  1  0  0  0  0
 38 33  1  1  0  0  0
 38 39  1  0  0  0  0
 38 37  1  0  0  0  0
 39 37  1  0  0  0  0
 39 36  1  1  0  0  0
 40 41  1  0  0  0  0
M  END
>  <MODEL>
6

>  <REMARK>
 VINA RESULT:      -6.0      2.692      7.122
  Name = 
  16 active torsions:
  status: ('A' for Active; 'I' for Inactive)
    1  A    between atoms: C_1  and  C_28
    2  A    between atoms: C_2  and  C_8
    3  A    between atoms: C_2  and  N_40
    4  A    between atoms: C_5  and  C_28
    5  A    between atoms: C_7  and  C_27
    6  A    between atoms: C_10  and  C_23
    7  A    between atoms: C_17  and  O_37
    8  A    between atoms: C_18  and  C_24
    9  A    between atoms: C_18  and  C_36
   10  A    between atoms: C_20  and  C_34
   11  A    between atoms: C_22  and  C_34
   12  A    between atoms: C_24  and  C_32
   13  A    between atoms: C_29  and  C_32
   14  A    between atoms: N_31  and  C_36
   15  A    between atoms: N_33  and  C_38
   16  A    between atoms: N_33  and  N_40
                            x       y       z     vdW  Elec       q    Type
                         _______ _______ _______ _____ _____    ______ ____

>  <TORSDO>
F 16

$$$$
=
 OpenBabel11062422213D

 41 45  0  0  1  0  0  0  0  0999 V2000
  184.1380  178.0790  144.3370 F   0  0  0  0  0  0  0  0  0  0  0  0
  186.4600  177.7290  144.2550 C   0  0  0  0  0  0  0  0  0  0  0  0
  187.7090  177.5270  146.3850 C   0  0  2  0  0  3  0  0  0  0  0  0
  185.2020  176.7910  146.1590 C   0  0  0  0  0  2  0  0  0  0  0  0
  186.3920  177.1150  147.0900 C   0  0  2  0  0  3  0  0  0  0  0  0
  185.2750  177.5500  144.8610 C   0  0  0  0  0  0  0  0  0  0  0  0
  187.7060  177.1840  144.8930 C   0  0  0  0  0  2  0  0  0  0  0  0
  186.1860  179.2910  147.7630 C   0  0  0  0  0  1  0  0  0  0  0  0
  186.0480  177.9550  148.1710 O   0  0  0  0  0  0  0  0  0  0  0  0
  186.5630  178.5050  142.9770 C   0  0  0  0  0  2  0  0  0  0  0  0
  187.3860  177.7630  141.9780 C   0  0  0  0  0  0  0  0  0  0  0  0
  187.0580  176.4130  141.6500 N   0  0  0  0  0  2  0  0  0  0  0  0
  188.3700  178.3340  141.4380 O   0  0  0  0  0  0  0  0  0  0  0  0
  187.8220  175.6400  140.6840 C   0  0  0  0  0  2  0  0  0  0  0  0
  189.0610  175.0740  141.3520 C   0  0  0  0  0  2  0  0  0  0  0  0
  188.1700  173.0220  140.5090 O   0  0  0  0  0  1  0  0  0  0  0  0
  188.9250  173.5680  141.5480 C   0  0  1  0  0  3  0  0  0  0  0  0
  190.1620  171.3350  141.6910 C   0  0  0  0  0  1  0  0  0  0  0  0
  190.2790  172.8580  141.6470 C   0  0  1  0  0  3  0  0  0  0  0  0
  193.3570  173.9840  138.8190 C   0  0  0  0  0  2  0  0  0  0  0  0
  193.4890  174.5430  140.2440 C   0  0  1  0  0  3  0  0  0  0  0  0
  191.5620  172.3350  139.4850 C   0  0  0  0  0  2  0  0  0  0  0  0
  192.9350  172.5170  138.8240 C   0  0  0  0  0  2  0  0  0  0  0  0
  191.2800  173.3610  140.6000 C   0  0  2  0  0  3  0  0  0  0  0  0
  192.5680  173.8470  141.2620 C   0  0  0  0  0  2  0  0  0  0  0  0
  194.9380  174.4560  140.7000 C   0  0  0  0  0  2  0  0  0  0  0  0
  196.8100  175.9840  141.3190 O   0  0  0  0  0  1  0  0  0  0  0  0
  194.6500  176.7540  141.2620 O   0  0  0  0  0  0  0  0  0  0  0  0
  195.4510  175.7980  141.0970 C   0  0  0  0  0  0  0  0  0  0  0  0
  188.9230  176.9330  147.0860 C   0  0  0  0  0  2  0  0  0  0  0  0
  188.9220  175.4810  146.9760 N   0  0  0  0  0  2  0  0  0  0  0  0
  190.2280  175.0970  146.6490 N   0  0  0  0  0  2  0  0  0  0  0  0
  191.5390  174.0070  144.8330 C   0  0  2  0  0  3  0  0  0  0  0  0
  191.0300  175.3580  144.3720 C   0  0  0  0  0  2  0  0  0  0  0  0
  190.1760  174.5270  145.3090 C   0  0  2  0  0  3  0  0  0  0  0  0
  194.5140  173.9850  144.2790 O   0  0  0  0  0  0  0  0  0  0  0  0
  193.8430  174.8760  145.1350 C   0  0  1  0  0  0  0  0  0  0  0  0
  192.6790  174.2080  145.8290 C   0  0  2  0  0  3  0  0  0  0  0  0
  193.8840  173.4060  145.3950 C   0  0  1  0  0  3  0  0  0  0  0  0
  194.1880  176.8100  146.6470 C   0  0  0  0  0  1  0  0  0  0  0  0
  194.7950  175.5250  146.1200 C   0  0  0  0  0  2  0  0  0  0  0  0
  1  6  1  0  0  0  0
  2  6  2  0  0  0  0
  2  7  1  0  0  0  0
  3 30  1  1  0  0  0
  3  5  1  0  0  0  0
  4  5  1  0  0  0  0
  5  9  1  1  0  0  0
  6  4  1  0  0  0  0
  7  3  1  0  0  0  0
  8  9  1  0  0  0  0
 10  2  1  0  0  0  0
 11 10  1  0  0  0  0
 12 11  1  0  0  0  0
 13 11  2  0  0  0  0
 14 15  1  0  0  0  0
 14 12  1  0  0  0  0
 15 17  1  0  0  0  0
 17 16  1  6  0  0  0
 17 19  1  0  0  0  0
 19 18  1  6  0  0  0
 20 23  1  0  0  0  0
 20 21  1  0  0  0  0
 21 26  1  1  0  0  0
 21 25  1  0  0  0  0
 22 24  1  0  0  0  0
 23 22  1  0  0  0  0
 24 25  1  0  0  0  0
 24 19  1  1  0  0  0
 26 29  1  0  0  0  0
 29 28  2  0  0  0  0
 29 27  1  0  0  0  0
 31 30  1  0  0  0  0
 32 31  1  0  0  0  0
 33 34  1  6  0  0  0
 33 35  1  0  0  0  0
 34 35  1  0  0  0  0
 35 32  1  1  0  0  0
 36 37  1  0  0  0  0
 37 39  1  0  0  0  0
 37 38  1  0  0  0  0
 37 41  1  1  0  0  0
 38 33  1  6  0  0  0
 39 36  1  6  0  0  0
 39 38  1  0  0  0  0
 41 40  1  0  0  0  0
M  END
>  <MODEL>
7

>  <REMARK>
 VINA RESULT:      -6.0      2.086      3.787
  Name = 
  16 active torsions:
  status: ('A' for Active; 'I' for Inactive)
    1  A    between atoms: C_1  and  C_28
    2  A    between atoms: C_2  and  C_8
    3  A    between atoms: C_2  and  N_40
    4  A    between atoms: C_5  and  C_28
    5  A    between atoms: C_7  and  C_27
    6  A    between atoms: C_10  and  C_23
    7  A    between atoms: C_17  and  O_37
    8  A    between atoms: C_18  and  C_24
    9  A    between atoms: C_18  and  C_36
   10  A    between atoms: C_20  and  C_34
   11  A    between atoms: C_22  and  C_34
   12  A    between atoms: C_24  and  C_32
   13  A    between atoms: C_29  and  C_32
   14  A    between atoms: N_31  and  C_36
   15  A    between atoms: N_33  and  C_38
   16  A    between atoms: N_33  and  N_40
                            x       y       z     vdW  Elec       q    Type
                         _______ _______ _______ _____ _____    ______ ____

>  <TORSDO>
F 16

$$$$
=
 OpenBabel11062422213D

 41 45  0  0  1  0  0  0  0  0999 V2000
  191.1450  175.6760  148.3260 F   0  0  0  0  0  0  0  0  0  0  0  0
  191.9630  176.3960  146.2450 C   0  0  0  0  0  0  0  0  0  0  0  0
  190.3400  177.0080  144.4760 C   0  0  2  0  0  3  0  0  0  0  0  0
  189.8010  177.2930  147.0270 C   0  0  0  0  0  2  0  0  0  0  0  0
  189.2760  177.2620  145.5740 C   0  0  2  0  0  3  0  0  0  0  0  0
  191.0240  176.4340  147.2050 C   0  0  0  0  0  0  0  0  0  0  0  0
  191.7690  177.2000  144.9900 C   0  0  0  0  0  2  0  0  0  0  0  0
  187.6160  176.1490  146.6840 C   0  0  0  0  0  1  0  0  0  0  0  0
  188.1080  176.4870  145.4140 O   0  0  0  0  0  0  0  0  0  0  0  0
  193.1760  175.5280  146.3870 C   0  0  0  0  0  2  0  0  0  0  0  0
  194.3790  176.2150  145.8340 C   0  0  0  0  0  0  0  0  0  0  0  0
  194.9260  175.7930  144.5840 N   0  0  0  0  0  2  0  0  0  0  0  0
  194.9080  177.1580  146.4790 O   0  0  0  0  0  0  0  0  0  0  0  0
  196.0960  176.4230  143.9940 C   0  0  0  0  0  2  0  0  0  0  0  0
  196.9690  175.3660  143.3450 C   0  0  0  0  0  2  0  0  0  0  0  0
  197.8460  175.6050  141.1350 O   0  0  0  0  0  1  0  0  0  0  0  0
  196.6910  175.2840  141.8480 C   0  0  1  0  0  3  0  0  0  0  0  0
  196.8430  172.7490  142.1440 C   0  0  0  0  0  1  0  0  0  0  0  0
  196.1670  173.9110  141.4160 C   0  0  1  0  0  3  0  0  0  0  0  0
  191.8580  173.9130  141.8270 C   0  0  0  0  0  2  0  0  0  0  0  0
  192.6270  172.8350  142.6060 C   0  0  1  0  0  3  0  0  0  0  0  0
  193.9570  175.2110  141.2850 C   0  0  0  0  0  2  0  0  0  0  0  0
  192.5550  175.2690  141.9030 C   0  0  0  0  0  2  0  0  0  0  0  0
  194.6360  173.8360  141.4380 C   0  0  2  0  0  3  0  0  0  0  0  0
  194.1410  173.0960  142.6800 C   0  0  0  0  0  2  0  0  0  0  0  0
  192.0470  172.6980  144.0060 C   0  0  0  0  0  2  0  0  0  0  0  0
  189.7840  173.6520  144.4440 O   0  0  0  0  0  1  0  0  0  0  0  0
  190.0080  171.5700  143.5070 O   0  0  0  0  0  0  0  0  0  0  0  0
  190.5600  172.6070  143.9580 C   0  0  0  0  0  0  0  0  0  0  0  0
  190.0780  177.8610  143.2420 C   0  0  0  0  0  2  0  0  0  0  0  0
  189.1260  177.2050  142.3550 N   0  0  0  0  0  2  0  0  0  0  0  0
  188.1610  178.1610  142.0170 N   0  0  0  0  0  2  0  0  0  0  0  0
  185.7910  177.6560  142.5930 C   0  0  2  0  0  3  0  0  0  0  0  0
  186.6310  176.4000  142.6900 C   0  0  0  0  0  2  0  0  0  0  0  0
  186.9620  177.4300  141.6280 C   0  0  2  0  0  3  0  0  0  0  0  0
  183.8580  179.3100  144.2320 O   0  0  0  0  0  0  0  0  0  0  0  0
  184.9440  178.5730  144.7360 C   0  0  1  0  0  0  0  0  0  0  0  0
  186.1080  178.5710  143.7740 C   0  0  2  0  0  3  0  0  0  0  0  0
  185.1310  179.7240  143.8040 C   0  0  1  0  0  3  0  0  0  0  0  0
  184.6570  178.2160  147.1730 C   0  0  0  0  0  1  0  0  0  0  0  0
  185.3490  179.0530  146.1170 C   0  0  0  0  0  2  0  0  0  0  0  0
  2 10  1  0  0  0  0
  2  6  2  0  0  0  0
  3 30  1  6  0  0  0
  3  7  1  0  0  0  0
  3  5  1  0  0  0  0
  4  6  1  0  0  0  0
  5  9  1  1  0  0  0
  5  4  1  0  0  0  0
  6  1  1  0  0  0  0
  7  2  1  0  0  0  0
  9  8  1  0  0  0  0
 11 10  1  0  0  0  0
 11 13  2  0  0  0  0
 12 11  1  0  0  0  0
 14 12  1  0  0  0  0
 15 14  1  0  0  0  0
 17 16  1  6  0  0  0
 17 15  1  0  0  0  0
 19 17  1  0  0  0  0
 19 18  1  1  0  0  0
 20 23  1  0  0  0  0
 20 21  1  0  0  0  0
 21 25  1  0  0  0  0
 21 26  1  1  0  0  0
 22 24  1  0  0  0  0
 22 23  1  0  0  0  0
 24 19  1  1  0  0  0
 24 25  1  0  0  0  0
 28 29  2  0  0  0  0
 29 26  1  0  0  0  0
 29 27  1  0  0  0  0
 31 30  1  0  0  0  0
 32 31  1  0  0  0  0
 33 34  1  1  0  0  0
 35 32  1  1  0  0  0
 35 33  1  0  0  0  0
 35 34  1  0  0  0  0
 36 37  1  0  0  0  0
 37 41  1  1  0  0  0
 38 33  1  6  0  0  0
 38 39  1  0  0  0  0
 38 37  1  0  0  0  0
 39 36  1  6  0  0  0
 39 37  1  0  0  0  0
 41 40  1  0  0  0  0
M  END
>  <MODEL>
8

>  <REMARK>
 VINA RESULT:      -5.9      2.617      7.370
  Name = 
  16 active torsions:
  status: ('A' for Active; 'I' for Inactive)
    1  A    between atoms: C_1  and  C_28
    2  A    between atoms: C_2  and  C_8
    3  A    between atoms: C_2  and  N_40
    4  A    between atoms: C_5  and  C_28
    5  A    between atoms: C_7  and  C_27
    6  A    between atoms: C_10  and  C_23
    7  A    between atoms: C_17  and  O_37
    8  A    between atoms: C_18  and  C_24
    9  A    between atoms: C_18  and  C_36
   10  A    between atoms: C_20  and  C_34
   11  A    between atoms: C_22  and  C_34
   12  A    between atoms: C_24  and  C_32
   13  A    between atoms: C_29  and  C_32
   14  A    between atoms: N_31  and  C_36
   15  A    between atoms: N_33  and  C_38
   16  A    between atoms: N_33  and  N_40
                            x       y       z     vdW  Elec       q    Type
                         _______ _______ _______ _____ _____    ______ ____

>  <TORSDO>
F 16

$$$$
=
 OpenBabel11062422213D

 41 45  0  0  1  0  0  0  0  0999 V2000
  184.7160  179.3960  145.9070 F   0  0  0  0  0  0  0  0  0  0  0  0
  186.7290  178.3090  145.3690 C   0  0  0  0  0  0  0  0  0  0  0  0
  187.0180  177.4030  143.0820 C   0  0  2  0  0  3  0  0  0  0  0  0
  185.5290  179.5050  143.5750 C   0  0  0  0  0  2  0  0  0  0  0  0
  185.9460  178.4010  142.5770 C   0  0  2  0  0  3  0  0  0  0  0  0
  185.6760  179.0600  145.0050 C   0  0  0  0  0  0  0  0  0  0  0  0
  187.7410  177.9050  144.3350 C   0  0  0  0  0  2  0  0  0  0  0  0
  184.7240  178.3020  140.6470 C   0  0  0  0  0  1  0  0  0  0  0  0
  184.8520  177.7760  141.9420 O   0  0  0  0  0  0  0  0  0  0  0  0
  186.8830  177.8310  146.7810 C   0  0  0  0  0  2  0  0  0  0  0  0
  188.1670  177.0900  146.9460 C   0  0  0  0  0  0  0  0  0  0  0  0
  188.1760  175.6640  146.8920 N   0  0  0  0  0  2  0  0  0  0  0  0
  189.2340  177.7320  147.1390 O   0  0  0  0  0  0  0  0  0  0  0  0
  189.3970  174.8870  147.0440 C   0  0  0  0  0  2  0  0  0  0  0  0
  189.9830  174.5910  145.6770 C   0  0  0  0  0  2  0  0  0  0  0  0
  192.2510  173.8430  145.7840 O   0  0  0  0  0  1  0  0  0  0  0  0
  191.4570  174.9800  145.6300 C   0  0  1  0  0  3  0  0  0  0  0  0
  191.4500  177.1960  144.3550 C   0  0  0  0  0  1  0  0  0  0  0  0
  191.8350  175.7170  144.3410 C   0  0  1  0  0  3  0  0  0  0  0  0
  195.9470  175.3980  143.0270 C   0  0  0  0  0  2  0  0  0  0  0  0
  194.8620  175.0830  141.9860 C   0  0  1  0  0  3  0  0  0  0  0  0
  194.2900  176.4000  144.6520 C   0  0  0  0  0  2  0  0  0  0  0  0
  195.5880  176.6230  143.8650 C   0  0  0  0  0  2  0  0  0  0  0  0
  193.2920  175.4710  143.9330 C   0  0  2  0  0  3  0  0  0  0  0  0
  193.4540  175.5330  142.4150 C   0  0  0  0  0  2  0  0  0  0  0  0
  195.2310  175.7110  140.6510 C   0  0  0  0  0  2  0  0  0  0  0  0
  195.9380  173.9370  139.0450 O   0  0  0  0  0  1  0  0  0  0  0  0
  193.8010  174.7710  138.9920 O   0  0  0  0  0  0  0  0  0  0  0  0
  194.9400  174.7760  139.5260 C   0  0  0  0  0  0  0  0  0  0  0  0
  188.0070  177.0470  141.9800 C   0  0  0  0  0  2  0  0  0  0  0  0
  187.5100  175.9330  141.1830 N   0  0  0  0  0  2  0  0  0  0  0  0
  188.5840  175.0530  141.0000 N   0  0  0  0  0  2  0  0  0  0  0  0
  189.9020  173.3140  142.2020 C   0  0  2  0  0  3  0  0  0  0  0  0
  188.4630  172.8660  142.0470 C   0  0  0  0  0  2  0  0  0  0  0  0
  188.7600  174.3370  142.2580 C   0  0  2  0  0  3  0  0  0  0  0  0
  191.7160  171.1090  141.2000 O   0  0  0  0  0  0  0  0  0  0  0  0
  190.7350  171.7740  140.4450 C   0  0  1  0  0  0  0  0  0  0  0  0
  190.6080  173.2240  140.8510 C   0  0  2  0  0  3  0  0  0  0  0  0
  191.9190  172.4860  141.0090 C   0  0  1  0  0  3  0  0  0  0  0  0
  189.6570  171.6320  138.2160 C   0  0  0  0  0  1  0  0  0  0  0  0
  190.9790  171.6210  138.9560 C   0  0  0  0  0  2  0  0  0  0  0  0
  2 10  1  0  0  0  0
  3 30  1  6  0  0  0
  3  7  1  0  0  0  0
  4  6  1  0  0  0  0
  5  9  1  1  0  0  0
  5  3  1  0  0  0  0
  5  4  1  0  0  0  0
  6  2  2  0  0  0  0
  6  1  1  0  0  0  0
  7  2  1  0  0  0  0
  8  9  1  0  0  0  0
 10 11  1  0  0  0  0
 11 13  2  0  0  0  0
 12 11  1  0  0  0  0
 12 14  1  0  0  0  0
 15 14  1  0  0  0  0
 17 15  1  0  0  0  0
 17 16  1  6  0  0  0
 19 18  1  1  0  0  0
 19 17  1  0  0  0  0
 20 23  1  0  0  0  0
 21 26  1  6  0  0  0
 21 25  1  0  0  0  0
 21 20  1  0  0  0  0
 23 22  1  0  0  0  0
 24 19  1  6  0  0  0
 24 22  1  0  0  0  0
 25 24  1  0  0  0  0
 27 29  1  0  0  0  0
 28 29  2  0  0  0  0
 29 26  1  0  0  0  0
 31 30  1  0  0  0  0
 32 31  1  0  0  0  0
 33 34  1  6  0  0  0
 33 35  1  0  0  0  0
 34 35  1  0  0  0  0
 35 32  1  6  0  0  0
 37 41  1  6  0  0  0
 37 38  1  0  0  0  0
 37 39  1  0  0  0  0
 37 36  1  0  0  0  0
 38 39  1  0  0  0  0
 38 33  1  1  0  0  0
 39 36  1  1  0  0  0
 40 41  1  0  0  0  0
M  END
>  <MODEL>
9

>  <REMARK>
 VINA RESULT:      -5.8      2.354      5.631
  Name = 
  16 active torsions:
  status: ('A' for Active; 'I' for Inactive)
    1  A    between atoms: C_1  and  C_28
    2  A    between atoms: C_2  and  C_8
    3  A    between atoms: C_2  and  N_40
    4  A    between atoms: C_5  and  C_28
    5  A    between atoms: C_7  and  C_27
    6  A    between atoms: C_10  and  C_23
    7  A    between atoms: C_17  and  O_37
    8  A    between atoms: C_18  and  C_24
    9  A    between atoms: C_18  and  C_36
   10  A    between atoms: C_20  and  C_34
   11  A    between atoms: C_22  and  C_34
   12  A    between atoms: C_24  and  C_32
   13  A    between atoms: C_29  and  C_32
   14  A    between atoms: N_31  and  C_36
   15  A    between atoms: N_33  and  C_38
   16  A    between atoms: N_33  and  N_40
                            x       y       z     vdW  Elec       q    Type
                         _______ _______ _______ _____ _____    ______ ____

>  <TORSDO>
F 16

$$$$
