=
 OpenBabel11072408323D

 26 28  0  0  1  0  0  0  0  0999 V2000
  190.7840  175.1350  143.3670 C   0  0  0  0  0  0  0  0  0  0  0  0
  192.1960  177.1820  144.5040 N   0  0  0  0  0  0  0  0  0  0  0  0
  191.1280  177.4850  143.7200 C   0  0  0  0  0  3  0  0  0  0  0  0
  191.8570  174.8740  144.1570 N   0  0  0  0  0  0  0  0  0  0  0  0
  190.0570  174.1010  142.7850 C   0  0  0  0  0  3  0  0  0  0  0  0
  189.3220  176.7250  142.3420 N   0  0  0  0  0  0  0  0  0  0  0  0
  187.4700  176.0810  140.9390 N   0  0  0  0  0  2  0  0  0  0  0  0
  188.9490  174.3770  141.9690 C   0  0  0  0  0  0  0  0  0  0  0  0
  188.5920  175.7340  141.7570 C   0  0  0  0  0  0  0  0  0  0  0  0
  190.3940  176.4590  143.1300 C   0  0  0  0  0  0  0  0  0  0  0  0
  192.5620  175.8900  144.7230 C   0  0  0  0  0  3  0  0  0  0  0  0
  188.4910  172.7700  140.0560 N   0  0  0  0  0  1  0  0  0  0  0  0
  188.2130  173.2320  141.3750 C   0  0  0  0  0  0  0  0  0  0  0  0
  187.3200  172.6470  142.0430 O   0  0  0  0  0  0  0  0  0  0  0  0
  187.0820  177.4560  140.6710 C   0  0  1  0  0  3  0  0  0  0  0  0
  186.7270  177.5880  139.3280 O   0  0  0  0  0  1  0  0  0  0  0  0
  185.9020  177.8240  141.5570 C   0  0  0  0  0  2  0  0  0  0  0  0
  186.3310  178.7490  142.6900 C   0  0  0  0  0  2  0  0  0  0  0  0
  186.9820  177.5460  144.7870 C   0  0  0  0  0  2  0  0  0  0  0  0
  185.2430  179.4040  144.8250 C   0  0  0  0  0  2  0  0  0  0  0  0
  185.8390  178.2450  144.0380 C   0  0  1  0  0  3  0  0  0  0  0  0
  184.5040  178.1810  146.9160 C   0  0  0  0  0  2  0  0  0  0  0  0
  187.8640  176.0610  146.8610 Cl  0  0  0  0  0  0  0  0  0  0  0  0
  186.7510  177.3210  146.2840 C   0  0  2  0  0  3  0  0  0  0  0  0
  185.3180  176.9280  146.6180 C   0  0  0  0  0  2  0  0  0  0  0  0
  184.0620  178.9010  145.6460 C   0  0  0  0  0  2  0  0  0  0  0  0
  1  4  1  0  0  0  0
  2 11  1  0  0  0  0
  3  2  2  0  0  0  0
  4 11  2  0  0  0  0
  5  1  1  0  0  0  0
  6 10  1  0  0  0  0
  7  9  1  0  0  0  0
  8  5  2  0  0  0  0
  9  8  1  0  0  0  0
  9  6  2  0  0  0  0
 10  1  2  0  0  0  0
 10  3  1  0  0  0  0
 12 13  1  0  0  0  0
 13  8  1  0  0  0  0
 13 14  2  0  0  0  0
 15 16  1  6  0  0  0
 15  7  1  0  0  0  0
 15 17  1  0  0  0  0
 17 18  1  0  0  0  0
 19 24  1  0  0  0  0
 20 26  1  0  0  0  0
 21 18  1  6  0  0  0
 21 19  1  0  0  0  0
 21 20  1  0  0  0  0
 24 25  1  0  0  0  0
 24 23  1  6  0  0  0
 25 22  1  0  0  0  0
 26 22  1  0  0  0  0
M  END
>  <MODEL>
1

>  <REMARK>
 VINA RESULT:      -7.6      0.000      0.000
  Name = 
  5 active torsions:
  status: ('A' for Active; 'I' for Inactive)
    1  A    between atoms: C_7  and  C_14
    2  A    between atoms: C_7  and  C_19
    3  A    between atoms: C_11  and  C_13
    4  A    between atoms: N_12  and  C_23
    5  A    between atoms: C_19  and  C_23
                            x       y       z     vdW  Elec       q    Type
                         _______ _______ _______ _____ _____    ______ ____

>  <TORSDO>
F 5

$$$$
=
 OpenBabel11072408323D

 26 28  0  0  1  0  0  0  0  0999 V2000
  186.1900  178.1530  144.5850 C   0  0  0  0  0  0  0  0  0  0  0  0
  184.0480  178.4460  146.2590 N   0  0  0  0  0  0  0  0  0  0  0  0
  185.1430  177.7820  146.7130 C   0  0  0  0  0  3  0  0  0  0  0  0
  185.0770  178.8110  144.1680 N   0  0  0  0  0  0  0  0  0  0  0  0
  187.2860  178.0000  143.7420 C   0  0  0  0  0  3  0  0  0  0  0  0
  187.3550  176.9620  146.3000 N   0  0  0  0  0  0  0  0  0  0  0  0
  189.5840  176.0930  146.0010 N   0  0  0  0  0  2  0  0  0  0  0  0
  188.4340  177.3180  144.1780 C   0  0  0  0  0  0  0  0  0  0  0  0
  188.4440  176.7940  145.4960 C   0  0  0  0  0  0  0  0  0  0  0  0
  186.2450  177.6200  145.8790 C   0  0  0  0  0  0  0  0  0  0  0  0
  184.0100  178.9580  144.9980 C   0  0  0  0  0  3  0  0  0  0  0  0
  190.6740  178.0880  143.2590 N   0  0  0  0  0  1  0  0  0  0  0  0
  189.5710  177.1850  143.2330 C   0  0  0  0  0  0  0  0  0  0  0  0
  189.5740  176.2550  142.3820 O   0  0  0  0  0  0  0  0  0  0  0  0
  189.6310  175.5160  147.3350 C   0  0  1  0  0  3  0  0  0  0  0  0
  189.0420  174.2500  147.3160 O   0  0  0  0  0  1  0  0  0  0  0  0
  191.0800  175.4070  147.7820 C   0  0  0  0  0  2  0  0  0  0  0  0
  191.9240  176.5320  147.1960 C   0  0  0  0  0  2  0  0  0  0  0  0
  193.0910  174.4860  146.3450 C   0  0  0  0  0  2  0  0  0  0  0  0
  193.4910  176.7630  145.2820 C   0  0  0  0  0  2  0  0  0  0  0  0
  193.2030  176.0000  146.5670 C   0  0  1  0  0  3  0  0  0  0  0  0
  195.6650  175.6610  144.5940 C   0  0  0  0  0  2  0  0  0  0  0  0
  194.2110  172.1240  145.6730 Cl  0  0  0  0  0  0  0  0  0  0  0  0
  194.1280  173.8780  145.3960 C   0  0  2  0  0  3  0  0  0  0  0  0
  195.5150  174.4860  145.5520 C   0  0  0  0  0  2  0  0  0  0  0  0
  194.9970  176.9280  145.1190 C   0  0  0  0  0  2  0  0  0  0  0  0
  1 10  1  0  0  0  0
  2  3  1  0  0  0  0
  4  1  2  0  0  0  0
  4 11  1  0  0  0  0
  5  8  2  0  0  0  0
  5  1  1  0  0  0  0
  7 15  1  0  0  0  0
  8  9  1  0  0  0  0
  9  7  1  0  0  0  0
  9  6  2  0  0  0  0
 10  6  1  0  0  0  0
 10  3  2  0  0  0  0
 11  2  2  0  0  0  0
 13 12  1  0  0  0  0
 13  8  1  0  0  0  0
 14 13  2  0  0  0  0
 15 16  1  6  0  0  0
 15 17  1  0  0  0  0
 18 17  1  0  0  0  0
 19 21  1  0  0  0  0
 20 21  1  0  0  0  0
 21 18  1  6  0  0  0
 22 26  1  0  0  0  0
 22 25  1  0  0  0  0
 24 25  1  0  0  0  0
 24 23  1  1  0  0  0
 24 19  1  0  0  0  0
 26 20  1  0  0  0  0
M  END
>  <MODEL>
2

>  <REMARK>
 VINA RESULT:      -7.3      3.395      7.470
  Name = 
  5 active torsions:
  status: ('A' for Active; 'I' for Inactive)
    1  A    between atoms: C_7  and  C_14
    2  A    between atoms: C_7  and  C_19
    3  A    between atoms: C_11  and  C_13
    4  A    between atoms: N_12  and  C_23
    5  A    between atoms: C_19  and  C_23
                            x       y       z     vdW  Elec       q    Type
                         _______ _______ _______ _____ _____    ______ ____

>  <TORSDO>
F 5

$$$$
=
 OpenBabel11072408323D

 26 28  0  0  1  0  0  0  0  0999 V2000
  184.9550  178.1320  144.5640 C   0  0  0  0  0  0  0  0  0  0  0  0
  185.1240  177.7410  147.2650 N   0  0  0  0  0  0  0  0  0  0  0  0
  185.9280  177.0090  146.4500 C   0  0  0  0  0  3  0  0  0  0  0  0
  184.1690  178.8440  145.4120 N   0  0  0  0  0  0  0  0  0  0  0  0
  184.8780  178.3240  143.1880 C   0  0  0  0  0  3  0  0  0  0  0  0
  186.6470  176.4770  144.2280 N   0  0  0  0  0  0  0  0  0  0  0  0
  187.4530  175.8590  142.0410 N   0  0  0  0  0  2  0  0  0  0  0  0
  185.6930  177.5840  142.3160 C   0  0  0  0  0  0  0  0  0  0  0  0
  186.5930  176.6410  142.8760 C   0  0  0  0  0  0  0  0  0  0  0  0
  185.8590  177.1900  145.0720 C   0  0  0  0  0  0  0  0  0  0  0  0
  184.2500  178.6520  146.7560 C   0  0  0  0  0  3  0  0  0  0  0  0
  184.2970  178.0490  140.2450 N   0  0  0  0  0  1  0  0  0  0  0  0
  185.5650  177.8320  140.8580 C   0  0  0  0  0  0  0  0  0  0  0  0
  186.5960  177.8540  140.1330 O   0  0  0  0  0  0  0  0  0  0  0  0
  188.3730  174.8630  142.5660 C   0  0  1  0  0  3  0  0  0  0  0  0
  188.1660  173.6470  141.9120 O   0  0  0  0  0  1  0  0  0  0  0  0
  189.8010  175.3350  142.3440 C   0  0  0  0  0  2  0  0  0  0  0  0
  190.1520  176.4890  143.2750 C   0  0  0  0  0  2  0  0  0  0  0  0
  192.1070  176.4840  144.8380 C   0  0  0  0  0  2  0  0  0  0  0  0
  189.7220  176.4180  145.7210 C   0  0  0  0  0  2  0  0  0  0  0  0
  190.6730  175.9880  144.6130 C   0  0  1  0  0  3  0  0  0  0  0  0
  190.8700  175.3690  147.7200 C   0  0  0  0  0  2  0  0  0  0  0  0
  194.4010  176.4630  146.2610 Cl  0  0  0  0  0  0  0  0  0  0  0  0
  192.6260  176.3800  146.2760 C   0  0  2  0  0  3  0  0  0  0  0  0
  192.1790  175.1080  146.9840 C   0  0  0  0  0  2  0  0  0  0  0  0
  189.6640  175.3310  146.7870 C   0  0  0  0  0  2  0  0  0  0  0  0
  1 10  2  0  0  0  0
  1  4  1  0  0  0  0
  3  2  2  0  0  0  0
  4 11  2  0  0  0  0
  5  1  1  0  0  0  0
  6 10  1  0  0  0  0
  7 15  1  0  0  0  0
  7  9  1  0  0  0  0
  8  9  1  0  0  0  0
  8  5  2  0  0  0  0
  9  6  2  0  0  0  0
 10  3  1  0  0  0  0
 11  2  1  0  0  0  0
 12 13  1  0  0  0  0
 13  8  1  0  0  0  0
 14 13  2  0  0  0  0
 15 16  1  6  0  0  0
 17 15  1  0  0  0  0
 17 18  1  0  0  0  0
 19 24  1  0  0  0  0
 20 26  1  0  0  0  0
 21 18  1  6  0  0  0
 21 19  1  0  0  0  0
 21 20  1  0  0  0  0
 24 23  1  6  0  0  0
 24 25  1  0  0  0  0
 25 22  1  0  0  0  0
 26 22  1  0  0  0  0
M  END
>  <MODEL>
3

>  <REMARK>
 VINA RESULT:      -7.1      2.839      5.872
  Name = 
  5 active torsions:
  status: ('A' for Active; 'I' for Inactive)
    1  A    between atoms: C_7  and  C_14
    2  A    between atoms: C_7  and  C_19
    3  A    between atoms: C_11  and  C_13
    4  A    between atoms: N_12  and  C_23
    5  A    between atoms: C_19  and  C_23
                            x       y       z     vdW  Elec       q    Type
                         _______ _______ _______ _____ _____    ______ ____

>  <TORSDO>
F 5

$$$$
=
 OpenBabel11072408323D

 26 28  0  0  1  0  0  0  0  0999 V2000
  186.0120  178.0930  142.9280 C   0  0  0  0  0  0  0  0  0  0  0  0
  187.2620  177.4000  140.5960 N   0  0  0  0  0  0  0  0  0  0  0  0
  187.8970  177.1550  141.7730 C   0  0  0  0  0  3  0  0  0  0  0  0
  185.4110  178.3210  141.7320 N   0  0  0  0  0  0  0  0  0  0  0  0
  185.3850  178.4400  144.1200 C   0  0  0  0  0  3  0  0  0  0  0  0
  187.8850  177.2680  144.1650 N   0  0  0  0  0  0  0  0  0  0  0  0
  187.9850  177.3260  146.5740 N   0  0  0  0  0  2  0  0  0  0  0  0
  186.0110  178.2020  145.3540 C   0  0  0  0  0  0  0  0  0  0  0  0
  187.2960  177.5990  145.3500 C   0  0  0  0  0  0  0  0  0  0  0  0
  187.2800  177.4990  142.9730 C   0  0  0  0  0  0  0  0  0  0  0  0
  186.0300  177.9780  140.5710 C   0  0  0  0  0  3  0  0  0  0  0  0
  185.8650  179.5000  147.5330 N   0  0  0  0  0  1  0  0  0  0  0  0
  185.2930  178.5950  146.5930 C   0  0  0  0  0  0  0  0  0  0  0  0
  184.1480  178.1240  146.8300 O   0  0  0  0  0  0  0  0  0  0  0  0
  189.3120  176.7350  146.6190 C   0  0  1  0  0  3  0  0  0  0  0  0
  190.0920  177.4110  147.5590 O   0  0  0  0  0  1  0  0  0  0  0  0
  189.1930  175.2690  147.0040 C   0  0  0  0  0  2  0  0  0  0  0  0
  189.8290  174.3690  145.9510 C   0  0  0  0  0  2  0  0  0  0  0  0
  192.3010  174.7490  145.8340 C   0  0  0  0  0  2  0  0  0  0  0  0
  190.8750  174.7270  143.7260 C   0  0  0  0  0  2  0  0  0  0  0  0
  190.9430  175.0860  145.2040 C   0  0  1  0  0  3  0  0  0  0  0  0
  192.7940  176.1270  142.8450 C   0  0  0  0  0  2  0  0  0  0  0  0
  194.9620  175.1550  146.0290 Cl  0  0  0  0  0  0  0  0  0  0  0  0
  193.5280  175.0870  144.9820 C   0  0  2  0  0  3  0  0  0  0  0  0
  193.3880  176.3980  144.2210 C   0  0  0  0  0  2  0  0  0  0  0  0
  191.2810  175.9370  142.8940 C   0  0  0  0  0  2  0  0  0  0  0  0
  1 10  1  0  0  0  0
  1  5  1  0  0  0  0
  2  3  1  0  0  0  0
  3 10  2  0  0  0  0
  4  1  2  0  0  0  0
  5  8  2  0  0  0  0
  6  9  2  0  0  0  0
  7 15  1  0  0  0  0
  8 13  1  0  0  0  0
  9  8  1  0  0  0  0
  9  7  1  0  0  0  0
 10  6  1  0  0  0  0
 11  2  2  0  0  0  0
 11  4  1  0  0  0  0
 13 14  2  0  0  0  0
 13 12  1  0  0  0  0
 15 17  1  0  0  0  0
 15 16  1  1  0  0  0
 18 17  1  0  0  0  0
 20 21  1  0  0  0  0
 21 19  1  0  0  0  0
 21 18  1  1  0  0  0
 22 26  1  0  0  0  0
 22 25  1  0  0  0  0
 24 19  1  0  0  0  0
 24 23  1  1  0  0  0
 25 24  1  0  0  0  0
 26 20  1  0  0  0  0
M  END
>  <MODEL>
4

>  <REMARK>
 VINA RESULT:      -7.0      3.447      6.968
  Name = 
  5 active torsions:
  status: ('A' for Active; 'I' for Inactive)
    1  A    between atoms: C_7  and  C_14
    2  A    between atoms: C_7  and  C_19
    3  A    between atoms: C_11  and  C_13
    4  A    between atoms: N_12  and  C_23
    5  A    between atoms: C_19  and  C_23
                            x       y       z     vdW  Elec       q    Type
                         _______ _______ _______ _____ _____    ______ ____

>  <TORSDO>
F 5

$$$$
=
 OpenBabel11072408323D

 26 28  0  0  1  0  0  0  0  0999 V2000
  186.1160  178.1440  144.6890 C   0  0  0  0  0  0  0  0  0  0  0  0
  184.1180  178.5510  146.5110 N   0  0  0  0  0  0  0  0  0  0  0  0
  185.2190  177.8550  146.8980 C   0  0  0  0  0  3  0  0  0  0  0  0
  184.9990  178.8340  144.3410 N   0  0  0  0  0  0  0  0  0  0  0  0
  187.1390  177.9320  143.7700 C   0  0  0  0  0  3  0  0  0  0  0  0
  187.3640  176.9460  146.3390 N   0  0  0  0  0  0  0  0  0  0  0  0
  189.5320  175.9880  145.8960 N   0  0  0  0  0  2  0  0  0  0  0  0
  188.2910  177.2180  144.1350 C   0  0  0  0  0  0  0  0  0  0  0  0
  188.3820  176.7210  145.4610 C   0  0  0  0  0  0  0  0  0  0  0  0
  186.2490  177.6350  145.9870 C   0  0  0  0  0  0  0  0  0  0  0  0
  184.0030  179.0370  145.2450 C   0  0  0  0  0  3  0  0  0  0  0  0
  189.4380  175.8230  142.3480 N   0  0  0  0  0  1  0  0  0  0  0  0
  189.3490  177.0230  143.1110 C   0  0  0  0  0  0  0  0  0  0  0  0
  190.1950  177.9340  142.9030 O   0  0  0  0  0  0  0  0  0  0  0  0
  189.6590  175.4380  147.2350 C   0  0  1  0  0  3  0  0  0  0  0  0
  189.0670  174.1740  147.2780 O   0  0  0  0  0  1  0  0  0  0  0  0
  191.1320  175.3320  147.5950 C   0  0  0  0  0  2  0  0  0  0  0  0
  191.9560  176.3820  146.8600 C   0  0  0  0  0  2  0  0  0  0  0  0
  192.7120  176.1600  144.4840 C   0  0  0  0  0  2  0  0  0  0  0  0
  194.3820  176.1030  146.4030 C   0  0  0  0  0  2  0  0  0  0  0  0
  192.9800  175.7410  145.9350 C   0  0  1  0  0  3  0  0  0  0  0  0
  195.7570  174.8320  144.6960 C   0  0  0  0  0  2  0  0  0  0  0  0
  193.2150  175.9210  141.8430 Cl  0  0  0  0  0  0  0  0  0  0  0  0
  193.8580  175.9050  143.5000 C   0  0  2  0  0  3  0  0  0  0  0  0
  194.5850  174.5910  143.7520 C   0  0  0  0  0  2  0  0  0  0  0  0
  195.3170  174.9250  146.1540 C   0  0  0  0  0  2  0  0  0  0  0  0
  1 10  1  0  0  0  0
  2  3  1  0  0  0  0
  4  1  2  0  0  0  0
  4 11  1  0  0  0  0
  5  8  2  0  0  0  0
  5  1  1  0  0  0  0
  7 15  1  0  0  0  0
  8  9  1  0  0  0  0
  9  7  1  0  0  0  0
  9  6  2  0  0  0  0
 10  6  1  0  0  0  0
 10  3  2  0  0  0  0
 11  2  2  0  0  0  0
 12 13  1  0  0  0  0
 13  8  1  0  0  0  0
 14 13  2  0  0  0  0
 15 16  1  6  0  0  0
 15 17  1  0  0  0  0
 18 17  1  0  0  0  0
 19 21  1  0  0  0  0
 21 20  1  0  0  0  0
 21 18  1  1  0  0  0
 22 26  1  0  0  0  0
 24 23  1  6  0  0  0
 24 25  1  0  0  0  0
 24 19  1  0  0  0  0
 25 22  1  0  0  0  0
 26 20  1  0  0  0  0
M  END
>  <MODEL>
5

>  <REMARK>
 VINA RESULT:      -7.0      3.358      7.453
  Name = 
  5 active torsions:
  status: ('A' for Active; 'I' for Inactive)
    1  A    between atoms: C_7  and  C_14
    2  A    between atoms: C_7  and  C_19
    3  A    between atoms: C_11  and  C_13
    4  A    between atoms: N_12  and  C_23
    5  A    between atoms: C_19  and  C_23
                            x       y       z     vdW  Elec       q    Type
                         _______ _______ _______ _____ _____    ______ ____

>  <TORSDO>
F 5

$$$$
=
 OpenBabel11072408323D

 26 28  0  0  1  0  0  0  0  0999 V2000
  184.8720  178.0860  143.1190 C   0  0  0  0  0  0  0  0  0  0  0  0
  184.8840  178.0790  140.3850 N   0  0  0  0  0  0  0  0  0  0  0  0
  186.0550  177.8670  141.0410 C   0  0  0  0  0  3  0  0  0  0  0  0
  183.7220  178.2930  142.4260 N   0  0  0  0  0  0  0  0  0  0  0  0
  184.8770  178.0860  144.5110 C   0  0  0  0  0  3  0  0  0  0  0  0
  187.2240  177.6580  143.1210 N   0  0  0  0  0  0  0  0  0  0  0  0
  188.5070  177.4250  145.1500 N   0  0  0  0  0  2  0  0  0  0  0  0
  186.0680  177.8710  145.2220 C   0  0  0  0  0  0  0  0  0  0  0  0
  187.2610  177.6540  144.4840 C   0  0  0  0  0  0  0  0  0  0  0  0
  186.0730  177.8670  142.4330 C   0  0  0  0  0  0  0  0  0  0  0  0
  183.7250  178.2910  141.0670 C   0  0  0  0  0  3  0  0  0  0  0  0
  185.8480  179.0960  147.4370 N   0  0  0  0  0  1  0  0  0  0  0  0
  186.0110  177.8830  146.7050 C   0  0  0  0  0  0  0  0  0  0  0  0
  186.1080  176.8020  147.3450 O   0  0  0  0  0  0  0  0  0  0  0  0
  189.7580  177.2240  144.4380 C   0  0  1  0  0  3  0  0  0  0  0  0
  190.5610  178.3580  144.5770 O   0  0  0  0  0  1  0  0  0  0  0  0
  190.4710  176.0100  145.0130 C   0  0  0  0  0  2  0  0  0  0  0  0
  191.3710  176.4000  146.1790 C   0  0  0  0  0  2  0  0  0  0  0  0
  192.8200  174.3810  145.8790 C   0  0  0  0  0  2  0  0  0  0  0  0
  193.3880  176.5840  144.7410 C   0  0  0  0  0  2  0  0  0  0  0  0
  192.7970  175.9120  145.9710 C   0  0  1  0  0  3  0  0  0  0  0  0
  195.7170  175.5880  144.7720 C   0  0  0  0  0  2  0  0  0  0  0  0
  194.1900  172.0580  145.7700 Cl  0  0  0  0  0  0  0  0  0  0  0  0
  194.1040  173.7720  145.3070 C   0  0  2  0  0  3  0  0  0  0  0  0
  195.3650  174.4890  145.7680 C   0  0  0  0  0  2  0  0  0  0  0  0
  194.8720  176.8430  144.9710 C   0  0  0  0  0  2  0  0  0  0  0  0
  1  5  1  0  0  0  0
  2  3  1  0  0  0  0
  2 11  2  0  0  0  0
  3 10  2  0  0  0  0
  4  1  2  0  0  0  0
  5  8  2  0  0  0  0
  6  9  2  0  0  0  0
  8 13  1  0  0  0  0
  9  7  1  0  0  0  0
  9  8  1  0  0  0  0
 10  1  1  0  0  0  0
 10  6  1  0  0  0  0
 11  4  1  0  0  0  0
 13 14  2  0  0  0  0
 13 12  1  0  0  0  0
 15 16  1  1  0  0  0
 15 17  1  0  0  0  0
 15  7  1  0  0  0  0
 17 18  1  0  0  0  0
 19 21  1  0  0  0  0
 20 26  1  0  0  0  0
 20 21  1  0  0  0  0
 21 18  1  6  0  0  0
 22 26  1  0  0  0  0
 22 25  1  0  0  0  0
 24 25  1  0  0  0  0
 24 23  1  1  0  0  0
 24 19  1  0  0  0  0
M  END
>  <MODEL>
6

>  <REMARK>
 VINA RESULT:      -7.0      3.458      7.541
  Name = 
  5 active torsions:
  status: ('A' for Active; 'I' for Inactive)
    1  A    between atoms: C_7  and  C_14
    2  A    between atoms: C_7  and  C_19
    3  A    between atoms: C_11  and  C_13
    4  A    between atoms: N_12  and  C_23
    5  A    between atoms: C_19  and  C_23
                            x       y       z     vdW  Elec       q    Type
                         _______ _______ _______ _____ _____    ______ ____

>  <TORSDO>
F 5

$$$$
=
 OpenBabel11072408323D

 26 28  0  0  1  0  0  0  0  0999 V2000
  193.4410  176.2800  144.8620 C   0  0  0  0  0  0  0  0  0  0  0  0
  195.3840  176.0940  142.9470 N   0  0  0  0  0  0  0  0  0  0  0  0
  194.0860  175.9440  142.5740 C   0  0  0  0  0  3  0  0  0  0  0  0
  194.7490  176.4250  145.1950 N   0  0  0  0  0  0  0  0  0  0  0  0
  192.4430  176.3740  145.8270 C   0  0  0  0  0  3  0  0  0  0  0  0
  191.7730  175.8890  143.1930 N   0  0  0  0  0  0  0  0  0  0  0  0
  189.4160  175.8140  143.6960 N   0  0  0  0  0  2  0  0  0  0  0  0
  191.0920  176.2230  145.4770 C   0  0  0  0  0  0  0  0  0  0  0  0
  190.7740  175.9740  144.1170 C   0  0  0  0  0  0  0  0  0  0  0  0
  193.0790  176.0330  143.5310 C   0  0  0  0  0  0  0  0  0  0  0  0
  195.7180  176.3330  144.2450 C   0  0  0  0  0  3  0  0  0  0  0  0
  189.4880  175.1780  147.1480 N   0  0  0  0  0  1  0  0  0  0  0  0
  190.0730  176.3330  146.5520 C   0  0  0  0  0  0  0  0  0  0  0  0
  189.7080  177.4690  146.9550 O   0  0  0  0  0  0  0  0  0  0  0  0
  189.0430  175.5320  142.3190 C   0  0  1  0  0  3  0  0  0  0  0  0
  189.0430  174.1520  142.1100 O   0  0  0  0  0  1  0  0  0  0  0  0
  187.6580  176.0980  142.0500 C   0  0  0  0  0  2  0  0  0  0  0  0
  186.6720  175.6810  143.1340 C   0  0  0  0  0  2  0  0  0  0  0  0
  186.3370  176.7900  145.3540 C   0  0  0  0  0  2  0  0  0  0  0  0
  186.6440  178.1630  143.2330 C   0  0  0  0  0  2  0  0  0  0  0  0
  186.0790  176.8880  143.8440 C   0  0  1  0  0  3  0  0  0  0  0  0
  185.4020  179.8950  144.6030 C   0  0  0  0  0  2  0  0  0  0  0  0
  185.9320  177.6900  147.8660 Cl  0  0  0  0  0  0  0  0  0  0  0  0
  186.1350  178.0860  146.1450 C   0  0  2  0  0  3  0  0  0  0  0  0
  184.9440  178.9030  145.6650 C   0  0  0  0  0  2  0  0  0  0  0  0
  185.5680  179.2420  143.2340 C   0  0  0  0  0  2  0  0  0  0  0  0
  1  4  1  0  0  0  0
  1  5  1  0  0  0  0
  2 11  1  0  0  0  0
  3  2  2  0  0  0  0
  3 10  1  0  0  0  0
  6 10  1  0  0  0  0
  6  9  2  0  0  0  0
  7  9  1  0  0  0  0
  8  5  2  0  0  0  0
  8 13  1  0  0  0  0
  9  8  1  0  0  0  0
 10  1  2  0  0  0  0
 11  4  2  0  0  0  0
 13 14  2  0  0  0  0
 13 12  1  0  0  0  0
 15 16  1  1  0  0  0
 15  7  1  0  0  0  0
 17 15  1  0  0  0  0
 17 18  1  0  0  0  0
 19 24  1  0  0  0  0
 20 26  1  0  0  0  0
 20 21  1  0  0  0  0
 21 18  1  6  0  0  0
 21 19  1  0  0  0  0
 22 25  1  0  0  0  0
 24 23  1  1  0  0  0
 25 24  1  0  0  0  0
 26 22  1  0  0  0  0
M  END
>  <MODEL>
7

>  <REMARK>
 VINA RESULT:      -6.9      2.450      3.810
  Name = 
  5 active torsions:
  status: ('A' for Active; 'I' for Inactive)
    1  A    between atoms: C_7  and  C_14
    2  A    between atoms: C_7  and  C_19
    3  A    between atoms: C_11  and  C_13
    4  A    between atoms: N_12  and  C_23
    5  A    between atoms: C_19  and  C_23
                            x       y       z     vdW  Elec       q    Type
                         _______ _______ _______ _____ _____    ______ ____

>  <TORSDO>
F 5

$$$$
=
 OpenBabel11072408323D

 26 28  0  0  1  0  0  0  0  0999 V2000
  190.5090  173.9250  141.6480 C   0  0  0  0  0  0  0  0  0  0  0  0
  188.2040  173.0810  140.4430 N   0  0  0  0  0  0  0  0  0  0  0  0
  188.1480  173.4970  141.7360 C   0  0  0  0  0  3  0  0  0  0  0  0
  190.5230  173.5030  140.3570 N   0  0  0  0  0  0  0  0  0  0  0  0
  191.6760  174.3590  142.2700 C   0  0  0  0  0  3  0  0  0  0  0  0
  189.2900  174.3520  143.6600 N   0  0  0  0  0  0  0  0  0  0  0  0
  190.3280  175.2160  145.6570 N   0  0  0  0  0  2  0  0  0  0  0  0
  191.6550  174.7940  143.6050 C   0  0  0  0  0  0  0  0  0  0  0  0
  190.4160  174.7810  144.2970 C   0  0  0  0  0  0  0  0  0  0  0  0
  189.3090  173.9300  142.3700 C   0  0  0  0  0  0  0  0  0  0  0  0
  189.3790  173.0820  139.7550 C   0  0  0  0  0  3  0  0  0  0  0  0
  193.2840  176.6230  144.2800 N   0  0  0  0  0  1  0  0  0  0  0  0
  192.9320  175.2440  144.2160 C   0  0  0  0  0  0  0  0  0  0  0  0
  193.7320  174.3940  144.6920 O   0  0  0  0  0  0  0  0  0  0  0  0
  189.0880  175.1960  146.4150 C   0  0  1  0  0  3  0  0  0  0  0  0
  189.2940  174.5410  147.6310 O   0  0  0  0  0  1  0  0  0  0  0  0
  188.6330  176.6250  146.6670 C   0  0  0  0  0  2  0  0  0  0  0  0
  187.1460  176.6800  146.9970 C   0  0  0  0  0  2  0  0  0  0  0  0
  186.9840  177.5870  144.6700 C   0  0  0  0  0  2  0  0  0  0  0  0
  184.9170  177.3570  146.1370 C   0  0  0  0  0  2  0  0  0  0  0  0
  186.4090  177.6540  146.0910 C   0  0  1  0  0  3  0  0  0  0  0  0
  184.0600  179.1760  144.5960 C   0  0  0  0  0  2  0  0  0  0  0  0
  187.1290  178.5480  142.1520 Cl  0  0  0  0  0  0  0  0  0  0  0  0
  186.1180  178.2210  143.5760 C   0  0  2  0  0  3  0  0  0  0  0  0
  185.4330  179.5060  144.0220 C   0  0  0  0  0  2  0  0  0  0  0  0
  184.1400  178.6640  146.0310 C   0  0  0  0  0  2  0  0  0  0  0  0
  1  5  1  0  0  0  0
  1 10  1  0  0  0  0
  2  3  1  0  0  0  0
  3 10  2  0  0  0  0
  4  1  2  0  0  0  0
  5  8  2  0  0  0  0
  6  9  2  0  0  0  0
  7 15  1  0  0  0  0
  8 13  1  0  0  0  0
  8  9  1  0  0  0  0
  9  7  1  0  0  0  0
 10  6  1  0  0  0  0
 11  4  1  0  0  0  0
 11  2  2  0  0  0  0
 13 12  1  0  0  0  0
 13 14  2  0  0  0  0
 15 17  1  0  0  0  0
 15 16  1  1  0  0  0
 17 18  1  0  0  0  0
 19 21  1  0  0  0  0
 21 20  1  0  0  0  0
 21 18  1  1  0  0  0
 22 26  1  0  0  0  0
 24 23  1  6  0  0  0
 24 25  1  0  0  0  0
 24 19  1  0  0  0  0
 25 22  1  0  0  0  0
 26 20  1  0  0  0  0
M  END
>  <MODEL>
8

>  <REMARK>
 VINA RESULT:      -6.9      2.867      4.840
  Name = 
  5 active torsions:
  status: ('A' for Active; 'I' for Inactive)
    1  A    between atoms: C_7  and  C_14
    2  A    between atoms: C_7  and  C_19
    3  A    between atoms: C_11  and  C_13
    4  A    between atoms: N_12  and  C_23
    5  A    between atoms: C_19  and  C_23
                            x       y       z     vdW  Elec       q    Type
                         _______ _______ _______ _____ _____    ______ ____

>  <TORSDO>
F 5

$$$$
=
 OpenBabel11072408323D

 26 28  0  0  1  0  0  0  0  0999 V2000
  194.3470  176.2450  144.6970 C   0  0  0  0  0  0  0  0  0  0  0  0
  195.7330  176.2230  142.3400 N   0  0  0  0  0  0  0  0  0  0  0  0
  194.3870  176.0360  142.3050 C   0  0  0  0  0  3  0  0  0  0  0  0
  195.6920  176.4280  144.6890 N   0  0  0  0  0  0  0  0  0  0  0  0
  193.6310  176.2560  145.8900 C   0  0  0  0  0  3  0  0  0  0  0  0
  192.3160  175.8590  143.4950 N   0  0  0  0  0  0  0  0  0  0  0  0
  190.1720  175.6670  144.5820 N   0  0  0  0  0  2  0  0  0  0  0  0
  192.2400  176.0650  145.8920 C   0  0  0  0  0  0  0  0  0  0  0  0
  191.5880  175.8630  144.6480 C   0  0  0  0  0  0  0  0  0  0  0  0
  193.6600  176.0420  143.4920 C   0  0  0  0  0  0  0  0  0  0  0  0
  196.3850  176.4170  143.5190 C   0  0  0  0  0  3  0  0  0  0  0  0
  190.8820  177.2600  147.6750 N   0  0  0  0  0  1  0  0  0  0  0  0
  191.5310  176.0860  147.1960 C   0  0  0  0  0  0  0  0  0  0  0  0
  191.4950  175.0460  147.9070 O   0  0  0  0  0  0  0  0  0  0  0  0
  189.4640  175.4310  143.3350 C   0  0  1  0  0  3  0  0  0  0  0  0
  189.1380  174.0770  143.2330 O   0  0  0  0  0  1  0  0  0  0  0  0
  188.1970  176.2720  143.3120 C   0  0  0  0  0  2  0  0  0  0  0  0
  188.2600  177.3920  144.3430 C   0  0  0  0  0  2  0  0  0  0  0  0
  185.9620  177.7750  143.4270 C   0  0  0  0  0  2  0  0  0  0  0  0
  186.3250  177.2830  145.8970 C   0  0  0  0  0  2  0  0  0  0  0  0
  186.8780  177.9500  144.6460 C   0  0  1  0  0  3  0  0  0  0  0  0
  184.1080  178.4920  146.0970 C   0  0  0  0  0  2  0  0  0  0  0  0
  183.6270  178.2540  142.1590 Cl  0  0  0  0  0  0  0  0  0  0  0  0
  184.4630  177.9430  143.6970 C   0  0  2  0  0  3  0  0  0  0  0  0
  184.1520  179.0600  144.6830 C   0  0  0  0  0  2  0  0  0  0  0  0
  185.5010  178.2940  146.6850 C   0  0  0  0  0  2  0  0  0  0  0  0
  1  5  1  0  0  0  0
  2 11  1  0  0  0  0
  3  2  2  0  0  0  0
  3 10  1  0  0  0  0
  4  1  1  0  0  0  0
  5  8  2  0  0  0  0
  6  9  2  0  0  0  0
  7  9  1  0  0  0  0
  8 13  1  0  0  0  0
  9  8  1  0  0  0  0
 10  6  1  0  0  0  0
 10  1  2  0  0  0  0
 11  4  2  0  0  0  0
 13 12  1  0  0  0  0
 13 14  2  0  0  0  0
 15 16  1  1  0  0  0
 15  7  1  0  0  0  0
 17 15  1  0  0  0  0
 17 18  1  0  0  0  0
 19 24  1  0  0  0  0
 19 21  1  0  0  0  0
 20 26  1  0  0  0  0
 21 18  1  6  0  0  0
 21 20  1  0  0  0  0
 22 26  1  0  0  0  0
 24 23  1  6  0  0  0
 24 25  1  0  0  0  0
 25 22  1  0  0  0  0
M  END
>  <MODEL>
9

>  <REMARK>
 VINA RESULT:      -6.8      2.864      4.578
  Name = 
  5 active torsions:
  status: ('A' for Active; 'I' for Inactive)
    1  A    between atoms: C_7  and  C_14
    2  A    between atoms: C_7  and  C_19
    3  A    between atoms: C_11  and  C_13
    4  A    between atoms: N_12  and  C_23
    5  A    between atoms: C_19  and  C_23
                            x       y       z     vdW  Elec       q    Type
                         _______ _______ _______ _____ _____    ______ ____

>  <TORSDO>
F 5

$$$$
