=
 OpenBabel11062423033D

 62 72  0  0  1  0  0  0  0  0999 V2000
  192.7310  176.6050  144.2970 C   0  0  0  0  0  2  0  0  0  0  0  0
  196.7060  175.3980  142.3280 C   0  0  0  0  0  2  0  0  0  0  0  0
  194.1110  176.6770  144.9340 C   0  0  2  0  0  3  0  0  0  0  0  0
  195.1340  175.7630  144.2700 C   0  0  1  0  0  3  0  0  0  0  0  0
  194.5460  174.4050  143.8340 C   0  0  2  0  0  3  0  0  0  0  0  0
  192.9850  175.9020  145.6090 C   0  0  2  0  0  0  0  0  0  0  0  0
  194.2920  175.0900  141.3710 C   0  0  0  0  0  2  0  0  0  0  0  0
  193.6550  174.3900  142.5710 C   0  0  0  0  0  2  0  0  0  0  0  0
  196.0090  176.4460  143.2020 C   0  0  0  0  0  2  0  0  0  0  0  0
  192.7970  174.3920  145.3750 C   0  0  0  0  0  2  0  0  0  0  0  0
  193.9750  173.7090  144.9310 O   0  0  0  0  0  0  0  0  0  0  0  0
  195.7930  174.8240  141.2410 C   0  0  2  0  0  3  0  0  0  0  0  0
  194.7130  172.9630  138.6370 C   0  0  0  0  0  2  0  0  0  0  0  0
  197.0600  169.2600  141.9280 C   0  0  1  0  0  3  0  0  0  0  0  0
  197.8500  169.1600  140.0840 C   0  0  0  0  0  2  0  0  0  0  0  0
  197.0700  172.6520  141.4960 C   0  0  0  0  0  3  0  0  0  0  0  0
  197.9330  170.2340  141.1450 C   0  0  1  0  0  3  0  0  0  0  0  0
  192.3730  172.8560  137.8770 C   0  0  2  0  0  3  0  0  0  0  0  0
  196.1450  173.4210  140.8070 C   0  0  0  0  0  0  0  0  0  0  0  0
  193.8090  169.1020  140.7030 C   0  0  0  0  0  0  0  0  0  0  0  0
  196.4480  171.5600  139.6640 O   0  0  0  0  0  0  0  0  0  0  0  0
  194.1800  170.1820  139.7420 C   0  0  0  0  0  2  0  0  0  0  0  0
  197.1900  171.4850  140.7490 C   0  0  0  0  0  0  0  0  0  0  0  0
  193.0030  171.0300  139.2470 C   0  0  1  0  0  3  0  0  0  0  0  0
  192.8710  168.3330  140.4270 O   0  0  0  0  0  0  0  0  0  0  0  0
  195.6660  169.7770  142.3200 C   0  0  0  0  0  2  0  0  0  0  0  0
  192.0060  171.5130  137.2800 C   0  0  0  0  0  2  0  0  0  0  0  0
  194.5750  168.9000  141.9060 N   0  0  0  0  0  2  0  0  0  0  0  0
  195.7600  172.6710  139.6830 C   0  0  0  0  0  0  0  0  0  0  0  0
  197.0000  168.3540  140.8580 O   0  0  0  0  0  0  0  0  0  0  0  0
  193.2730  172.5460  139.0440 C   0  0  1  0  0  3  0  0  0  0  0  0
  191.0930  173.5730  138.3030 C   0  0  0  0  0  1  0  0  0  0  0  0
  192.5320  170.4670  138.0520 O   0  0  0  0  0  0  0  0  0  0  0  0
  192.3840  176.5660  146.8630 C   0  0  0  0  0  2  0  0  0  0  0  0
  189.9010  176.6830  146.5340 C   0  0  2  0  0  3  0  0  0  0  0  0
  190.9960  176.0210  147.2910 C   0  0  2  0  0  3  0  0  0  0  0  0
  190.2210  177.0690  147.8500 O   0  0  0  0  0  0  0  0  0  0  0  0
  188.7060  175.7020  146.4660 C   0  0  0  0  0  2  0  0  0  0  0  0
  187.4060  176.4380  146.1320 C   0  0  0  0  0  2  0  0  0  0  0  0
  186.4560  178.6370  145.2090 C   0  0  1  0  0  3  0  0  0  0  0  0
  187.3860  177.4290  144.9050 C   0  0  2  0  0  3  0  0  0  0  0  0
  186.3420  178.1920  142.8090 C   0  0  2  0  0  0  0  0  0  0  0  0
  185.3310  177.8120  141.9050 O   0  0  0  0  0  0  0  0  0  0  0  0
  184.1080  177.8880  142.5940 C   0  0  0  0  0  2  0  0  0  0  0  0
  184.2630  178.8450  143.7660 C   0  0  0  0  0  2  0  0  0  0  0  0
  185.7630  179.0730  143.8860 C   0  0  1  0  0  3  0  0  0  0  0  0
  187.3970  179.0320  142.0500 C   0  0  0  0  0  1  0  0  0  0  0  0
  186.9500  176.9330  143.5130 C   0  0  1  0  0  3  0  0  0  0  0  0
  187.4670  175.5400  141.5530 O   0  0  0  0  0  0  0  0  0  0  0  0
  188.0220  174.8500  142.6360 C   0  0  2  0  0  3  0  0  0  0  0  0
  188.0450  176.3370  142.5910 C   0  0  2  0  0  3  0  0  0  0  0  0
  190.3690  174.5390  143.0970 F   0  0  0  0  0  0  0  0  0  0  0  0
  189.3310  174.1750  142.2730 C   0  0  0  0  0  0  0  0  0  0  0  0
  189.6490  174.5990  141.0100 F   0  0  0  0  0  0  0  0  0  0  0  0
  187.7590  172.3760  142.5250 F   0  0  0  0  0  0  0  0  0  0  0  0
  189.4110  172.1660  141.0070 F   0  0  0  0  0  0  0  0  0  0  0  0
  189.1000  172.6520  142.2840 C   0  0  0  0  0  0  0  0  0  0  0  0
  189.9650  171.8520  143.2960 C   0  0  0  0  0  2  0  0  0  0  0  0
  189.4560  171.8200  144.7110 C   0  0  0  0  0  3  0  0  0  0  0  0
  189.7280  172.7580  145.4580 O   0  0  0  0  0  0  0  0  0  0  0  0
  185.4340  178.4530  146.3760 C   0  0  0  0  0  2  0  0  0  0  0  0
  185.7090  179.3740  147.4070 O   0  0  0  0  0  1  0  0  0  0  0  0
  1  6  1  0  0  0  0
  2  9  1  0  0  0  0
  3  1  1  6  0  0  0
  3  6  1  0  0  0  0
  4  9  1  6  0  0  0
  4  3  1  0  0  0  0
  5  8  1  6  0  0  0
  5  4  1  0  0  0  0
  5 11  1  0  0  0  0
  6 34  1  1  0  0  0
  7  8  1  0  0  0  0
 10  6  1  0  0  0  0
 11 10  1  0  0  0  0
 12 19  1  1  0  0  0
 12  7  1  0  0  0  0
 12  2  1  0  0  0  0
 13 29  1  0  0  0  0
 14 26  1  6  0  0  0
 15 30  1  0  0  0  0
 17 15  1  6  0  0  0
 17 14  1  0  0  0  0
 18 32  1  1  0  0  0
 18 31  1  0  0  0  0
 19 16  1  0  0  0  0
 20 28  1  0  0  0  0
 21 29  1  0  0  0  0
 21 23  1  0  0  0  0
 22 20  1  0  0  0  0
 23 17  1  0  0  0  0
 23 16  2  0  0  0  0
 24 22  1  6  0  0  0
 25 20  2  0  0  0  0
 27 18  1  0  0  0  0
 27 33  1  0  0  0  0
 28 26  1  0  0  0  0
 29 19  2  0  0  0  0
 30 14  1  0  0  0  0
 31 13  1  6  0  0  0
 31 24  1  0  0  0  0
 33 24  1  0  0  0  0
 35 38  1  1  0  0  0
 35 36  1  0  0  0  0
 35 37  1  0  0  0  0
 36 34  1  6  0  0  0
 36 37  1  0  0  0  0
 39 38  1  0  0  0  0
 40 61  1  1  0  0  0
 41 40  1  0  0  0  0
 41 39  1  1  0  0  0
 42 47  1  6  0  0  0
 42 48  1  0  0  0  0
 42 46  1  0  0  0  0
 43 44  1  0  0  0  0
 43 42  1  0  0  0  0
 44 45  1  0  0  0  0
 46 45  1  1  0  0  0
 46 40  1  0  0  0  0
 48 51  1  6  0  0  0
 48 41  1  0  0  0  0
 49 50  1  0  0  0  0
 50 53  1  6  0  0  0
 51 49  1  6  0  0  0
 51 50  1  0  0  0  0
 53 57  1  0  0  0  0
 53 52  1  0  0  0  0
 54 53  1  0  0  0  0
 56 57  1  0  0  0  0
 57 55  1  0  0  0  0
 57 58  1  0  0  0  0
 58 59  1  0  0  0  0
 59 60  2  0  0  0  0
 61 62  1  0  0  0  0
M  END
>  <MODEL>
1

>  <REMARK>
 VINA RESULT:      -7.8      0.000      0.000
  Name = 
  12 active torsions:
  status: ('A' for Active; 'I' for Inactive)
    1  A    between atoms: C_6  and  C_7
    2  A    between atoms: C_7  and  C_37
    3  A    between atoms: C_8  and  C_17
    4  A    between atoms: C_10  and  C_37
    5  A    between atoms: C_13  and  C_20
    6  A    between atoms: C_13  and  C_22
    7  A    between atoms: C_28  and  C_55
    8  A    between atoms: C_38  and  C_56
    9  A    between atoms: C_39  and  C_41
   10  A    between atoms: C_39  and  C_56
   11  A    between atoms: C_41  and  C_49
   12  A    between atoms: C_59  and  C_62
                            x       y       z     vdW  Elec       q    Type
                         _______ _______ _______ _____ _____    ______ ____

>  <TORSDO>
F 12

$$$$
=
 OpenBabel11062423033D

 62 72  0  0  1  0  0  0  0  0999 V2000
  191.0180  170.7220  139.8230 C   0  0  0  0  0  2  0  0  0  0  0  0
  190.3210  173.1660  143.6550 C   0  0  0  0  0  2  0  0  0  0  0  0
  192.0710  171.1060  140.8520 C   0  0  2  0  0  3  0  0  0  0  0  0
  191.6770  172.3050  141.7070 C   0  0  1  0  0  3  0  0  0  0  0  0
  190.9250  173.3960  140.9160 C   0  0  2  0  0  3  0  0  0  0  0  0
  192.2540  171.4690  139.3830 C   0  0  2  0  0  0  0  0  0  0  0  0
  188.6060  172.6670  141.7450 C   0  0  0  0  0  2  0  0  0  0  0  0
  189.4490  173.1190  140.5530 C   0  0  0  0  0  2  0  0  0  0  0  0
  191.0340  171.9470  143.0590 C   0  0  0  0  0  2  0  0  0  0  0  0
  191.8060  172.8350  138.8320 C   0  0  0  0  0  2  0  0  0  0  0  0
  191.6940  173.8660  139.8190 O   0  0  0  0  0  0  0  0  0  0  0  0
  188.9400  173.4100  143.0400 C   0  0  2  0  0  3  0  0  0  0  0  0
  190.1930  176.1010  144.6530 C   0  0  0  0  0  2  0  0  0  0  0  0
  185.1740  177.7480  143.1910 C   0  0  1  0  0  3  0  0  0  0  0  0
  186.5570  179.0410  142.5220 C   0  0  0  0  0  2  0  0  0  0  0  0
  187.3940  175.2910  142.3430 C   0  0  0  0  0  3  0  0  0  0  0  0
  186.2610  177.6110  142.1310 C   0  0  1  0  0  3  0  0  0  0  0  0
  191.0220  176.0730  146.9710 C   0  0  2  0  0  3  0  0  0  0  0  0
  188.4900  174.8510  143.0690 C   0  0  0  0  0  0  0  0  0  0  0  0
  186.4600  177.8120  146.4210 C   0  0  0  0  0  0  0  0  0  0  0  0
  188.3800  177.0420  143.2890 O   0  0  0  0  0  0  0  0  0  0  0  0
  187.8080  177.5750  145.8270 C   0  0  0  0  0  2  0  0  0  0  0  0
  187.3580  176.6650  142.5490 C   0  0  0  0  0  0  0  0  0  0  0  0
  188.8140  176.9060  146.7700 C   0  0  1  0  0  3  0  0  0  0  0  0
  186.3690  178.3640  147.5320 O   0  0  0  0  0  0  0  0  0  0  0  0
  185.2870  176.7970  144.3930 C   0  0  0  0  0  2  0  0  0  0  0  0
  190.8190  177.3930  147.6880 C   0  0  0  0  0  2  0  0  0  0  0  0
  185.2690  177.4760  145.6850 N   0  0  0  0  0  2  0  0  0  0  0  0
  189.0510  175.9890  143.6740 C   0  0  0  0  0  0  0  0  0  0  0  0
  185.5670  179.0540  143.5180 O   0  0  0  0  0  0  0  0  0  0  0  0
  189.7860  175.8740  146.1350 C   0  0  1  0  0  3  0  0  0  0  0  0
  191.2050  174.9710  148.0130 C   0  0  0  0  0  1  0  0  0  0  0  0
  189.5470  177.9150  147.4130 O   0  0  0  0  0  0  0  0  0  0  0  0
  193.3120  170.6440  138.6240 C   0  0  0  0  0  2  0  0  0  0  0  0
  195.7170  170.9050  139.2810 C   0  0  2  0  0  3  0  0  0  0  0  0
  194.4790  170.1130  139.4970 C   0  0  2  0  0  3  0  0  0  0  0  0
  195.5310  169.6540  138.6650 O   0  0  0  0  0  0  0  0  0  0  0  0
  196.5690  170.8230  140.5710 C   0  0  0  0  0  2  0  0  0  0  0  0
  196.9210  172.2190  141.0900 C   0  0  0  0  0  2  0  0  0  0  0  0
  195.5020  174.3350  140.7790 C   0  0  1  0  0  3  0  0  0  0  0  0
  195.7770  173.1150  141.7020 C   0  0  2  0  0  3  0  0  0  0  0  0
  195.0930  175.0360  143.0840 C   0  0  2  0  0  0  0  0  0  0  0  0
  195.6500  175.9910  143.9560 O   0  0  0  0  0  0  0  0  0  0  0  0
  196.5210  176.7910  143.1960 C   0  0  0  0  0  2  0  0  0  0  0  0
  196.1080  176.7130  141.7340 C   0  0  0  0  0  2  0  0  0  0  0  0
  195.1240  175.5540  141.6690 C   0  0  1  0  0  3  0  0  0  0  0  0
  193.6070  174.8250  143.4610 C   0  0  0  0  0  1  0  0  0  0  0  0
  195.9280  173.7130  143.1140 C   0  0  1  0  0  3  0  0  0  0  0  0
  196.0420  173.2880  145.5340 O   0  0  0  0  0  0  0  0  0  0  0  0
  196.5820  172.1390  144.9460 C   0  0  2  0  0  3  0  0  0  0  0  0
  195.4420  172.8540  144.3100 C   0  0  2  0  0  3  0  0  0  0  0  0
  194.8580  170.7690  145.9290 F   0  0  0  0  0  0  0  0  0  0  0  0
  196.2100  170.8800  145.7040 C   0  0  0  0  0  0  0  0  0  0  0  0
  196.8170  170.9700  146.9290 F   0  0  0  0  0  0  0  0  0  0  0  0
  197.3530  170.1020  143.7400 F   0  0  0  0  0  0  0  0  0  0  0  0
  197.7570  169.0770  145.7060 F   0  0  0  0  0  0  0  0  0  0  0  0
  196.7600  169.6720  144.9220 C   0  0  0  0  0  0  0  0  0  0  0  0
  195.7250  168.5640  144.5890 C   0  0  0  0  0  2  0  0  0  0  0  0
  195.0380  168.6880  143.2570 C   0  0  0  0  0  3  0  0  0  0  0  0
  194.2870  169.6430  143.0650 O   0  0  0  0  0  0  0  0  0  0  0  0
  196.6140  174.6870  139.7400 C   0  0  0  0  0  2  0  0  0  0  0  0
  196.0290  175.0190  138.5010 O   0  0  0  0  0  1  0  0  0  0  0  0
  3  1  1  6  0  0  0
  3  4  1  0  0  0  0
  4  9  1  1  0  0  0
  5  8  1  6  0  0  0
  5  4  1  0  0  0  0
  6 34  1  6  0  0  0
  6  1  1  0  0  0  0
  6  3  1  0  0  0  0
  7 12  1  0  0  0  0
  8  7  1  0  0  0  0
  9  2  1  0  0  0  0
 10  6  1  0  0  0  0
 10 11  1  0  0  0  0
 11  5  1  0  0  0  0
 12 19  1  6  0  0  0
 12  2  1  0  0  0  0
 14 30  1  0  0  0  0
 14 26  1  1  0  0  0
 15 30  1  0  0  0  0
 16 23  2  0  0  0  0
 16 19  1  0  0  0  0
 17 15  1  1  0  0  0
 17 23  1  0  0  0  0
 17 14  1  0  0  0  0
 18 27  1  0  0  0  0
 18 32  1  1  0  0  0
 19 29  2  0  0  0  0
 20 25  2  0  0  0  0
 21 29  1  0  0  0  0
 22 20  1  0  0  0  0
 23 21  1  0  0  0  0
 24 22  1  6  0  0  0
 24 33  1  0  0  0  0
 26 28  1  0  0  0  0
 28 20  1  0  0  0  0
 29 13  1  0  0  0  0
 31 13  1  6  0  0  0
 31 24  1  0  0  0  0
 31 18  1  0  0  0  0
 33 27  1  0  0  0  0
 35 36  1  0  0  0  0
 35 38  1  1  0  0  0
 36 34  1  6  0  0  0
 37 35  1  0  0  0  0
 37 36  1  0  0  0  0
 38 39  1  0  0  0  0
 40 61  1  1  0  0  0
 40 46  1  0  0  0  0
 40 41  1  0  0  0  0
 41 39  1  6  0  0  0
 41 48  1  0  0  0  0
 42 48  1  0  0  0  0
 42 47  1  1  0  0  0
 42 43  1  0  0  0  0
 44 43  1  0  0  0  0
 45 44  1  0  0  0  0
 46 45  1  1  0  0  0
 46 42  1  0  0  0  0
 48 51  1  1  0  0  0
 50 49  1  0  0  0  0
 50 53  1  1  0  0  0
 51 50  1  0  0  0  0
 51 49  1  1  0  0  0
 53 52  1  0  0  0  0
 53 54  1  0  0  0  0
 55 57  1  0  0  0  0
 57 53  1  0  0  0  0
 57 56  1  0  0  0  0
 58 57  1  0  0  0  0
 59 58  1  0  0  0  0
 60 59  2  0  0  0  0
 62 61  1  0  0  0  0
M  END
>  <MODEL>
2

>  <REMARK>
 VINA RESULT:      -7.3      3.193     10.169
  Name = 
  12 active torsions:
  status: ('A' for Active; 'I' for Inactive)
    1  A    between atoms: C_6  and  C_7
    2  A    between atoms: C_7  and  C_37
    3  A    between atoms: C_8  and  C_17
    4  A    between atoms: C_10  and  C_37
    5  A    between atoms: C_13  and  C_20
    6  A    between atoms: C_13  and  C_22
    7  A    between atoms: C_28  and  C_55
    8  A    between atoms: C_38  and  C_56
    9  A    between atoms: C_39  and  C_41
   10  A    between atoms: C_39  and  C_56
   11  A    between atoms: C_41  and  C_49
   12  A    between atoms: C_59  and  C_62
                            x       y       z     vdW  Elec       q    Type
                         _______ _______ _______ _____ _____    ______ ____

>  <TORSDO>
F 12

$$$$
=
 OpenBabel11062423033D

 62 72  0  0  1  0  0  0  0  0999 V2000
  195.0140  174.0410  145.7940 C   0  0  0  0  0  2  0  0  0  0  0  0
  191.8790  177.1580  144.5330 C   0  0  0  0  0  2  0  0  0  0  0  0
  194.7660  174.5500  144.3810 C   0  0  2  0  0  3  0  0  0  0  0  0
  193.3820  175.1590  144.1900 C   0  0  1  0  0  3  0  0  0  0  0  0
  192.2740  174.4040  144.9520 C   0  0  2  0  0  3  0  0  0  0  0  0
  194.7130  173.0580  144.6880 C   0  0  2  0  0  0  0  0  0  0  0  0
  192.2010  176.0830  146.8940 C   0  0  0  0  0  2  0  0  0  0  0  0
  192.1960  174.6110  146.4810 C   0  0  0  0  0  2  0  0  0  0  0  0
  193.3260  176.6890  144.3430 C   0  0  0  0  0  2  0  0  0  0  0  0
  193.3860  172.3560  145.0330 C   0  0  0  0  0  2  0  0  0  0  0  0
  192.2160  173.0380  144.5690 O   0  0  0  0  0  0  0  0  0  0  0  0
  191.3750  176.9750  145.9670 C   0  0  2  0  0  3  0  0  0  0  0  0
  189.3050  174.6860  144.5920 C   0  0  0  0  0  2  0  0  0  0  0  0
  185.8730  178.6000  146.3080 C   0  0  1  0  0  3  0  0  0  0  0  0
  185.3400  176.8190  147.0680 C   0  0  0  0  0  2  0  0  0  0  0  0
  189.0980  177.6160  146.8720 C   0  0  0  0  0  3  0  0  0  0  0  0
  186.5480  177.6900  147.3270 C   0  0  1  0  0  3  0  0  0  0  0  0
  189.4530  173.8960  142.2640 C   0  0  2  0  0  3  0  0  0  0  0  0
  189.8810  176.7870  146.0840 C   0  0  0  0  0  0  0  0  0  0  0  0
  186.0400  177.3370  143.0720 C   0  0  0  0  0  0  0  0  0  0  0  0
  187.8320  175.9740  146.0760 O   0  0  0  0  0  0  0  0  0  0  0  0
  186.8700  176.2210  143.6130 C   0  0  0  0  0  2  0  0  0  0  0  0
  187.8200  177.0750  146.7980 C   0  0  0  0  0  0  0  0  0  0  0  0
  187.8030  175.5640  142.5900 C   0  0  1  0  0  3  0  0  0  0  0  0
  185.3970  177.1680  142.0210 O   0  0  0  0  0  0  0  0  0  0  0  0
  186.6660  178.8670  145.0190 C   0  0  0  0  0  2  0  0  0  0  0  0
  188.1060  173.5190  141.6810 C   0  0  0  0  0  2  0  0  0  0  0  0
  185.9200  178.5750  143.7980 N   0  0  0  0  0  2  0  0  0  0  0  0
  189.0260  175.7920  145.5790 C   0  0  0  0  0  0  0  0  0  0  0  0
  184.8230  177.6930  146.0990 O   0  0  0  0  0  0  0  0  0  0  0  0
  189.2000  175.1200  143.1030 C   0  0  1  0  0  3  0  0  0  0  0  0
  190.4270  174.1660  141.1190 C   0  0  0  0  0  1  0  0  0  0  0  0
  187.1330  174.4660  142.0310 O   0  0  0  0  0  0  0  0  0  0  0  0
  195.9050  172.2320  144.1680 C   0  0  0  0  0  2  0  0  0  0  0  0
  195.0370  171.1980  142.0560 C   0  0  2  0  0  3  0  0  0  0  0  0
  196.0250  172.1520  142.6240 C   0  0  2  0  0  3  0  0  0  0  0  0
  196.3860  170.8370  142.2380 O   0  0  0  0  0  0  0  0  0  0  0  0
  194.7200  171.6430  140.6080 C   0  0  0  0  0  2  0  0  0  0  0  0
  193.5600  170.8330  140.0240 C   0  0  0  0  0  2  0  0  0  0  0  0
  191.0270  170.7090  139.6230 C   0  0  1  0  0  3  0  0  0  0  0  0
  192.2920  171.6000  139.4840 C   0  0  2  0  0  3  0  0  0  0  0  0
  190.7420  172.1040  137.6370 C   0  0  2  0  0  0  0  0  0  0  0  0
  190.5920  171.8680  136.2570 O   0  0  0  0  0  0  0  0  0  0  0  0
  190.4140  170.4840  136.0890 C   0  0  0  0  0  2  0  0  0  0  0  0
  189.8910  169.8950  137.3910 C   0  0  0  0  0  2  0  0  0  0  0  0
  190.0830  170.9980  138.4220 C   0  0  1  0  0  3  0  0  0  0  0  0
  190.0090  173.4180  137.9980 C   0  0  0  0  0  1  0  0  0  0  0  0
  192.2560  172.1160  138.0320 C   0  0  1  0  0  3  0  0  0  0  0  0
  193.7100  173.5310  136.6420 O   0  0  0  0  0  0  0  0  0  0  0  0
  194.3020  173.5510  137.9100 C   0  0  2  0  0  3  0  0  0  0  0  0
  192.8210  173.5350  137.7620 C   0  0  2  0  0  3  0  0  0  0  0  0
  194.1170  175.6450  139.0920 F   0  0  0  0  0  0  0  0  0  0  0  0
  194.9010  174.9050  138.2390 C   0  0  0  0  0  0  0  0  0  0  0  0
  194.9750  175.5940  137.0580 F   0  0  0  0  0  0  0  0  0  0  0  0
  196.7690  173.4110  138.4570 F   0  0  0  0  0  0  0  0  0  0  0  0
  197.1670  175.6180  138.2320 F   0  0  0  0  0  0  0  0  0  0  0  0
  196.3110  174.6740  138.8140 C   0  0  0  0  0  0  0  0  0  0  0  0
  196.4390  174.8350  140.3540 C   0  0  0  0  0  2  0  0  0  0  0  0
  196.8680  176.1930  140.8370 C   0  0  0  0  0  3  0  0  0  0  0  0
  196.1020  176.8340  141.5540 O   0  0  0  0  0  0  0  0  0  0  0  0
  191.2720  169.1780  139.8230 C   0  0  0  0  0  2  0  0  0  0  0  0
  190.8310  168.7830  141.1030 O   0  0  0  0  0  1  0  0  0  0  0  0
  2 12  1  0  0  0  0
  3  6  1  0  0  0  0
  3  1  1  1  0  0  0
  4  9  1  1  0  0  0
  4  3  1  0  0  0  0
  4  5  1  0  0  0  0
  5  8  1  1  0  0  0
  6 34  1  6  0  0  0
  6 10  1  0  0  0  0
  6  1  1  0  0  0  0
  8  7  1  0  0  0  0
  9  2  1  0  0  0  0
 11  5  1  0  0  0  0
 11 10  1  0  0  0  0
 12 19  1  6  0  0  0
 12  7  1  0  0  0  0
 13 29  1  0  0  0  0
 14 26  1  6  0  0  0
 14 17  1  0  0  0  0
 17 15  1  6  0  0  0
 18 32  1  6  0  0  0
 18 31  1  0  0  0  0
 19 16  1  0  0  0  0
 20 22  1  0  0  0  0
 20 28  1  0  0  0  0
 21 23  1  0  0  0  0
 23 16  2  0  0  0  0
 23 17  1  0  0  0  0
 24 31  1  0  0  0  0
 24 22  1  1  0  0  0
 25 20  2  0  0  0  0
 27 33  1  0  0  0  0
 27 18  1  0  0  0  0
 28 26  1  0  0  0  0
 29 21  1  0  0  0  0
 29 19  2  0  0  0  0
 30 14  1  0  0  0  0
 30 15  1  0  0  0  0
 31 13  1  1  0  0  0
 33 24  1  0  0  0  0
 35 38  1  6  0  0  0
 35 37  1  0  0  0  0
 35 36  1  0  0  0  0
 36 34  1  1  0  0  0
 37 36  1  0  0  0  0
 39 38  1  0  0  0  0
 40 61  1  6  0  0  0
 41 40  1  0  0  0  0
 41 39  1  6  0  0  0
 42 47  1  1  0  0  0
 42 48  1  0  0  0  0
 42 46  1  0  0  0  0
 43 42  1  0  0  0  0
 44 43  1  0  0  0  0
 44 45  1  0  0  0  0
 46 45  1  6  0  0  0
 46 40  1  0  0  0  0
 48 51  1  1  0  0  0
 48 41  1  0  0  0  0
 49 50  1  0  0  0  0
 50 53  1  6  0  0  0
 51 49  1  6  0  0  0
 51 50  1  0  0  0  0
 53 57  1  0  0  0  0
 53 52  1  0  0  0  0
 54 53  1  0  0  0  0
 55 57  1  0  0  0  0
 56 57  1  0  0  0  0
 57 58  1  0  0  0  0
 58 59  1  0  0  0  0
 59 60  2  0  0  0  0
 61 62  1  0  0  0  0
M  END
>  <MODEL>
3

>  <REMARK>
 VINA RESULT:      -7.2      2.985      9.232
  Name = 
  12 active torsions:
  status: ('A' for Active; 'I' for Inactive)
    1  A    between atoms: C_6  and  C_7
    2  A    between atoms: C_7  and  C_37
    3  A    between atoms: C_8  and  C_17
    4  A    between atoms: C_10  and  C_37
    5  A    between atoms: C_13  and  C_20
    6  A    between atoms: C_13  and  C_22
    7  A    between atoms: C_28  and  C_55
    8  A    between atoms: C_38  and  C_56
    9  A    between atoms: C_39  and  C_41
   10  A    between atoms: C_39  and  C_56
   11  A    between atoms: C_41  and  C_49
   12  A    between atoms: C_59  and  C_62
                            x       y       z     vdW  Elec       q    Type
                         _______ _______ _______ _____ _____    ______ ____

>  <TORSDO>
F 12

$$$$
=
 OpenBabel11062423033D

 62 72  0  0  1  0  0  0  0  0999 V2000
  189.7750  171.5790  141.3930 C   0  0  0  0  0  2  0  0  0  0  0  0
  191.4500  170.7970  137.1830 C   0  0  0  0  0  2  0  0  0  0  0  0
  189.1000  171.9270  140.0750 C   0  0  2  0  0  3  0  0  0  0  0  0
  190.0700  172.0270  138.9030 C   0  0  1  0  0  3  0  0  0  0  0  0
  191.4190  172.6710  139.2820 C   0  0  2  0  0  3  0  0  0  0  0  0
  189.3430  173.0010  141.1290 C   0  0  2  0  0  0  0  0  0  0  0  0
  192.6540  170.4260  139.4750 C   0  0  0  0  0  2  0  0  0  0  0  0
  192.4170  171.8070  140.0860 C   0  0  0  0  0  2  0  0  0  0  0  0
  190.1960  170.7430  138.0620 C   0  0  0  0  0  2  0  0  0  0  0  0
  190.6080  173.8780  141.1040 C   0  0  0  0  0  2  0  0  0  0  0  0
  191.2410  173.9710  139.8240 O   0  0  0  0  0  0  0  0  0  0  0  0
  192.7290  170.4460  137.9470 C   0  0  2  0  0  3  0  0  0  0  0  0
  195.8910  170.5400  139.1330 C   0  0  0  0  0  2  0  0  0  0  0  0
  195.8730  174.4750  135.3170 C   0  0  1  0  0  3  0  0  0  0  0  0
  197.3520  173.1630  134.9630 C   0  0  0  0  0  2  0  0  0  0  0  0
  193.9850  171.7590  136.1820 C   0  0  0  0  0  3  0  0  0  0  0  0
  195.8500  173.0110  134.8910 C   0  0  1  0  0  3  0  0  0  0  0  0
  196.4830  170.9030  141.4950 C   0  0  2  0  0  3  0  0  0  0  0  0
  193.9820  171.0790  137.3900 C   0  0  0  0  0  0  0  0  0  0  0  0
  196.8290  174.8830  138.6350 C   0  0  0  0  0  0  0  0  0  0  0  0
  196.0700  171.6240  136.9360 O   0  0  0  0  0  0  0  0  0  0  0  0
  196.8590  173.3960  138.7490 C   0  0  0  0  0  2  0  0  0  0  0  0
  195.3150  172.1050  135.9700 C   0  0  0  0  0  0  0  0  0  0  0  0
  196.6530  172.8580  140.1700 C   0  0  1  0  0  3  0  0  0  0  0  0
  197.5180  175.5710  139.4090 O   0  0  0  0  0  0  0  0  0  0  0  0
  195.2060  174.7900  136.6650 C   0  0  0  0  0  2  0  0  0  0  0  0
  197.8040  171.6250  141.6700 C   0  0  0  0  0  2  0  0  0  0  0  0
  196.0680  175.5200  137.5910 N   0  0  0  0  0  2  0  0  0  0  0  0
  195.3140  171.0550  137.8370 C   0  0  0  0  0  0  0  0  0  0  0  0
  197.2730  174.4920  135.4070 O   0  0  0  0  0  0  0  0  0  0  0  0
  195.8230  171.5530  140.3080 C   0  0  1  0  0  3  0  0  0  0  0  0
  195.6630  171.0590  142.7750 C   0  0  0  0  0  1  0  0  0  0  0  0
  197.9140  172.6840  140.7570 O   0  0  0  0  0  0  0  0  0  0  0  0
  188.0890  173.4820  141.8850 C   0  0  0  0  0  2  0  0  0  0  0  0
  188.0880  175.8420  142.7320 C   0  0  2  0  0  3  0  0  0  0  0  0
  187.6830  174.9540  141.6110 C   0  0  2  0  0  3  0  0  0  0  0  0
  186.7620  175.3890  142.5970 O   0  0  0  0  0  0  0  0  0  0  0  0
  188.3020  177.2640  142.1620 C   0  0  0  0  0  2  0  0  0  0  0  0
  189.5400  177.9240  142.7740 C   0  0  0  0  0  2  0  0  0  0  0  0
  191.2080  176.8640  144.4130 C   0  0  1  0  0  3  0  0  0  0  0  0
  189.8750  177.6540  144.2910 C   0  0  2  0  0  3  0  0  0  0  0  0
  189.7620  176.1800  146.2610 C   0  0  2  0  0  0  0  0  0  0  0  0
  189.1660  174.9740  146.6740 O   0  0  0  0  0  0  0  0  0  0  0  0
  189.7080  173.9480  145.8810 C   0  0  0  0  0  2  0  0  0  0  0  0
  191.0550  174.4050  145.3420 C   0  0  0  0  0  2  0  0  0  0  0  0
  191.1020  175.8990  145.6280 C   0  0  1  0  0  3  0  0  0  0  0  0
  190.0230  177.0580  147.5080 C   0  0  0  0  0  1  0  0  0  0  0  0
  188.8780  176.8900  145.1830 C   0  0  1  0  0  3  0  0  0  0  0  0
  186.7880  176.8680  146.4800 O   0  0  0  0  0  0  0  0  0  0  0  0
  186.4560  177.5100  145.2820 C   0  0  2  0  0  3  0  0  0  0  0  0
  187.7890  177.7180  145.9120 C   0  0  2  0  0  3  0  0  0  0  0  0
  185.9200  179.6000  146.3600 F   0  0  0  0  0  0  0  0  0  0  0  0
  185.4620  178.6360  145.4940 C   0  0  0  0  0  0  0  0  0  0  0  0
  184.3530  178.0720  146.0670 F   0  0  0  0  0  0  0  0  0  0  0  0
  184.4680  180.4490  144.2710 F   0  0  0  0  0  0  0  0  0  0  0  0
  186.3110  179.4600  143.4340 F   0  0  0  0  0  0  0  0  0  0  0  0
  185.1100  179.2260  144.1150 C   0  0  0  0  0  0  0  0  0  0  0  0
  184.2410  178.3180  143.2020 C   0  0  0  0  0  2  0  0  0  0  0  0
  184.7340  178.1430  141.7920 C   0  0  0  0  0  3  0  0  0  0  0  0
  183.9790  178.4270  140.8630 O   0  0  0  0  0  0  0  0  0  0  0  0
  191.7060  176.1350  143.1240 C   0  0  0  0  0  2  0  0  0  0  0  0
  193.0770  176.3940  142.9230 O   0  0  0  0  0  1  0  0  0  0  0  0
  2 12  1  0  0  0  0
  2  9  1  0  0  0  0
  3  6  1  0  0  0  0
  3  1  1  1  0  0  0
  4  9  1  1  0  0  0
  4  5  1  0  0  0  0
  4  3  1  0  0  0  0
  5 11  1  0  0  0  0
  5  8  1  1  0  0  0
  6  1  1  0  0  0  0
  6 34  1  1  0  0  0
  7  8  1  0  0  0  0
 10  6  1  0  0  0  0
 11 10  1  0  0  0  0
 12 19  1  1  0  0  0
 12  7  1  0  0  0  0
 14 30  1  0  0  0  0
 14 26  1  1  0  0  0
 15 30  1  0  0  0  0
 16 19  1  0  0  0  0
 17 15  1  1  0  0  0
 17 14  1  0  0  0  0
 17 23  1  0  0  0  0
 18 27  1  0  0  0  0
 18 32  1  1  0  0  0
 19 29  2  0  0  0  0
 20 22  1  0  0  0  0
 20 25  2  0  0  0  0
 21 29  1  0  0  0  0
 23 16  2  0  0  0  0
 23 21  1  0  0  0  0
 24 22  1  6  0  0  0
 24 31  1  0  0  0  0
 24 33  1  0  0  0  0
 26 28  1  0  0  0  0
 28 20  1  0  0  0  0
 29 13  1  0  0  0  0
 31 13  1  6  0  0  0
 31 18  1  0  0  0  0
 33 27  1  0  0  0  0
 35 38  1  6  0  0  0
 36 34  1  1  0  0  0
 36 37  1  0  0  0  0
 36 35  1  0  0  0  0
 37 35  1  0  0  0  0
 38 39  1  0  0  0  0
 40 61  1  6  0  0  0
 40 46  1  0  0  0  0
 41 39  1  6  0  0  0
 41 40  1  0  0  0  0
 41 48  1  0  0  0  0
 42 43  1  0  0  0  0
 42 47  1  1  0  0  0
 44 43  1  0  0  0  0
 45 44  1  0  0  0  0
 46 45  1  6  0  0  0
 46 42  1  0  0  0  0
 48 51  1  1  0  0  0
 48 42  1  0  0  0  0
 50 53  1  1  0  0  0
 50 51  1  0  0  0  0
 50 49  1  0  0  0  0
 51 49  1  1  0  0  0
 53 54  1  0  0  0  0
 53 52  1  0  0  0  0
 56 57  1  0  0  0  0
 57 55  1  0  0  0  0
 57 53  1  0  0  0  0
 58 57  1  0  0  0  0
 59 58  1  0  0  0  0
 60 59  2  0  0  0  0
 62 61  1  0  0  0  0
M  END
>  <MODEL>
4

>  <REMARK>
 VINA RESULT:      -6.7      3.013      6.589
  Name = 
  12 active torsions:
  status: ('A' for Active; 'I' for Inactive)
    1  A    between atoms: C_6  and  C_7
    2  A    between atoms: C_7  and  C_37
    3  A    between atoms: C_8  and  C_17
    4  A    between atoms: C_10  and  C_37
    5  A    between atoms: C_13  and  C_20
    6  A    between atoms: C_13  and  C_22
    7  A    between atoms: C_28  and  C_55
    8  A    between atoms: C_38  and  C_56
    9  A    between atoms: C_39  and  C_41
   10  A    between atoms: C_39  and  C_56
   11  A    between atoms: C_41  and  C_49
   12  A    between atoms: C_59  and  C_62
                            x       y       z     vdW  Elec       q    Type
                         _______ _______ _______ _____ _____    ______ ____

>  <TORSDO>
F 12

$$$$
=
 OpenBabel11062423033D

 62 72  0  0  1  0  0  0  0  0999 V2000
  193.9000  176.7450  144.2150 C   0  0  0  0  0  2  0  0  0  0  0  0
  197.4870  173.9380  143.5870 C   0  0  0  0  0  2  0  0  0  0  0  0
  194.6780  176.0190  145.3020 C   0  0  2  0  0  3  0  0  0  0  0  0
  195.4450  174.8040  144.7930 C   0  0  1  0  0  3  0  0  0  0  0  0
  194.6770  174.0060  143.7190 C   0  0  2  0  0  3  0  0  0  0  0  0
  193.1680  175.8500  145.1850 C   0  0  2  0  0  0  0  0  0  0  0  0
  195.9770  175.0330  141.7550 C   0  0  0  0  0  2  0  0  0  0  0  0
  194.6120  174.6100  142.2980 C   0  0  0  0  0  2  0  0  0  0  0  0
  196.9200  175.0740  144.4470 C   0  0  0  0  0  2  0  0  0  0  0  0
  192.5500  174.6910  144.3810 C   0  0  0  0  0  2  0  0  0  0  0  0
  193.4160  173.5660  144.1990 O   0  0  0  0  0  0  0  0  0  0  0  0
  197.0990  174.0560  142.1110 C   0  0  2  0  0  3  0  0  0  0  0  0
  197.9400  173.2400  138.9430 C   0  0  0  0  0  2  0  0  0  0  0  0
  194.8900  168.9820  140.5610 C   0  0  1  0  0  3  0  0  0  0  0  0
  196.6760  168.3510  139.8930 C   0  0  0  0  0  2  0  0  0  0  0  0
  196.6000  171.5770  141.9870 C   0  0  0  0  0  3  0  0  0  0  0  0
  196.2990  169.1550  141.1160 C   0  0  1  0  0  3  0  0  0  0  0  0
  197.4460  174.6270  136.9690 C   0  0  2  0  0  3  0  0  0  0  0  0
  197.0410  172.7400  141.3750 C   0  0  0  0  0  0  0  0  0  0  0  0
  194.3350  170.8980  137.7120 C   0  0  0  0  0  0  0  0  0  0  0  0
  197.3420  171.0820  139.9520 O   0  0  0  0  0  0  0  0  0  0  0  0
  195.7020  171.4670  137.8990 C   0  0  0  0  0  2  0  0  0  0  0  0
  196.7810  170.5810  141.0340 C   0  0  0  0  0  0  0  0  0  0  0  0
  195.9060  172.8570  137.2860 C   0  0  1  0  0  3  0  0  0  0  0  0
  193.8230  170.8950  136.5790 O   0  0  0  0  0  0  0  0  0  0  0  0
  194.1560  170.2790  140.1830 C   0  0  0  0  0  2  0  0  0  0  0  0
  197.2170  173.8100  135.7140 C   0  0  0  0  0  2  0  0  0  0  0  0
  193.6420  170.2870  138.8170 N   0  0  0  0  0  2  0  0  0  0  0  0
  197.4620  172.3760  140.0840 C   0  0  0  0  0  0  0  0  0  0  0  0
  195.3510  168.2930  139.4300 O   0  0  0  0  0  0  0  0  0  0  0  0
  196.7980  173.8470  138.0820 C   0  0  1  0  0  3  0  0  0  0  0  0
  196.8170  176.0060  136.7810 C   0  0  0  0  0  1  0  0  0  0  0  0
  196.4200  172.6900  135.9910 O   0  0  0  0  0  0  0  0  0  0  0  0
  192.3360  176.5610  146.2710 C   0  0  0  0  0  2  0  0  0  0  0  0
  189.9240  176.4810  146.9500 C   0  0  2  0  0  3  0  0  0  0  0  0
  191.1920  175.7090  146.8820 C   0  0  2  0  0  3  0  0  0  0  0  0
  190.7390  176.3070  148.0850 O   0  0  0  0  0  0  0  0  0  0  0  0
  188.7490  175.4760  146.8910 C   0  0  0  0  0  2  0  0  0  0  0  0
  187.4420  176.1760  146.5100 C   0  0  0  0  0  2  0  0  0  0  0  0
  186.5860  178.4520  145.6850 C   0  0  1  0  0  3  0  0  0  0  0  0
  187.4520  177.2130  145.3220 C   0  0  2  0  0  3  0  0  0  0  0  0
  186.4170  178.1040  143.2720 C   0  0  2  0  0  0  0  0  0  0  0  0
  185.3770  177.8080  142.3710 O   0  0  0  0  0  0  0  0  0  0  0  0
  184.1680  177.9160  143.0810 C   0  0  0  0  0  2  0  0  0  0  0  0
  184.3860  178.8190  144.2860 C   0  0  0  0  0  2  0  0  0  0  0  0
  185.8970  178.9700  144.3910 C   0  0  1  0  0  3  0  0  0  0  0  0
  187.5000  178.9220  142.5290 C   0  0  0  0  0  1  0  0  0  0  0  0
  186.9740  176.7930  143.9190 C   0  0  1  0  0  3  0  0  0  0  0  0
  187.4050  175.3330  141.9870 O   0  0  0  0  0  0  0  0  0  0  0  0
  188.0360  174.6960  143.0620 C   0  0  2  0  0  3  0  0  0  0  0  0
  188.0250  176.1810  142.9580 C   0  0  2  0  0  3  0  0  0  0  0  0
  190.2850  174.0480  143.6420 F   0  0  0  0  0  0  0  0  0  0  0  0
  189.3350  174.0310  142.6490 C   0  0  0  0  0  0  0  0  0  0  0  0
  189.8310  174.7640  141.6030 F   0  0  0  0  0  0  0  0  0  0  0  0
  188.5950  171.8340  143.2770 F   0  0  0  0  0  0  0  0  0  0  0  0
  187.9420  172.6690  141.2890 F   0  0  0  0  0  0  0  0  0  0  0  0
  189.0100  172.5960  142.1910 C   0  0  0  0  0  0  0  0  0  0  0  0
  190.1640  171.8490  141.4680 C   0  0  0  0  0  2  0  0  0  0  0  0
  190.8790  170.8050  142.2790 C   0  0  0  0  0  3  0  0  0  0  0  0
  191.6590  171.1700  143.1580 O   0  0  0  0  0  0  0  0  0  0  0  0
  185.5720  178.2720  146.8610 C   0  0  0  0  0  2  0  0  0  0  0  0
  185.5140  179.4520  147.6310 O   0  0  0  0  0  1  0  0  0  0  0  0
  1  6  1  0  0  0  0
  2  9  1  0  0  0  0
  3  1  1  6  0  0  0
  4  9  1  6  0  0  0
  4  3  1  0  0  0  0
  5  8  1  6  0  0  0
  5 11  1  0  0  0  0
  5  4  1  0  0  0  0
  6  3  1  0  0  0  0
  6 34  1  1  0  0  0
  7 12  1  0  0  0  0
  7  8  1  0  0  0  0
 10  6  1  0  0  0  0
 11 10  1  0  0  0  0
 12 19  1  1  0  0  0
 12  2  1  0  0  0  0
 13 29  1  0  0  0  0
 14 26  1  6  0  0  0
 14 17  1  0  0  0  0
 17 15  1  6  0  0  0
 18 32  1  6  0  0  0
 18 31  1  0  0  0  0
 19 16  1  0  0  0  0
 20 22  1  0  0  0  0
 20 28  1  0  0  0  0
 21 29  1  0  0  0  0
 21 23  1  0  0  0  0
 23 17  1  0  0  0  0
 23 16  2  0  0  0  0
 24 22  1  1  0  0  0
 24 31  1  0  0  0  0
 25 20  2  0  0  0  0
 27 33  1  0  0  0  0
 27 18  1  0  0  0  0
 28 26  1  0  0  0  0
 29 19  2  0  0  0  0
 30 15  1  0  0  0  0
 30 14  1  0  0  0  0
 31 13  1  6  0  0  0
 33 24  1  0  0  0  0
 35 38  1  1  0  0  0
 35 37  1  0  0  0  0
 36 34  1  6  0  0  0
 36 35  1  0  0  0  0
 36 37  1  0  0  0  0
 39 38  1  0  0  0  0
 40 61  1  1  0  0  0
 41 40  1  0  0  0  0
 41 39  1  1  0  0  0
 42 47  1  6  0  0  0
 42 48  1  0  0  0  0
 42 46  1  0  0  0  0
 43 44  1  0  0  0  0
 43 42  1  0  0  0  0
 44 45  1  0  0  0  0
 46 45  1  1  0  0  0
 46 40  1  0  0  0  0
 48 51  1  6  0  0  0
 48 41  1  0  0  0  0
 49 50  1  0  0  0  0
 50 53  1  6  0  0  0
 51 49  1  6  0  0  0
 51 50  1  0  0  0  0
 53 52  1  0  0  0  0
 54 53  1  0  0  0  0
 56 57  1  0  0  0  0
 57 53  1  0  0  0  0
 57 55  1  0  0  0  0
 58 57  1  0  0  0  0
 58 59  1  0  0  0  0
 59 60  2  0  0  0  0
 61 62  1  0  0  0  0
M  END
>  <MODEL>
5

>  <REMARK>
 VINA RESULT:      -6.5      1.589      2.253
  Name = 
  12 active torsions:
  status: ('A' for Active; 'I' for Inactive)
    1  A    between atoms: C_6  and  C_7
    2  A    between atoms: C_7  and  C_37
    3  A    between atoms: C_8  and  C_17
    4  A    between atoms: C_10  and  C_37
    5  A    between atoms: C_13  and  C_20
    6  A    between atoms: C_13  and  C_22
    7  A    between atoms: C_28  and  C_55
    8  A    between atoms: C_38  and  C_56
    9  A    between atoms: C_39  and  C_41
   10  A    between atoms: C_39  and  C_56
   11  A    between atoms: C_41  and  C_49
   12  A    between atoms: C_59  and  C_62
                            x       y       z     vdW  Elec       q    Type
                         _______ _______ _______ _____ _____    ______ ____

>  <TORSDO>
F 12

$$$$
=
 OpenBabel11062423033D

 62 72  0  0  1  0  0  0  0  0999 V2000
  189.0280  171.9040  139.8100 C   0  0  0  0  0  2  0  0  0  0  0  0
  190.5250  173.6710  135.8380 C   0  0  0  0  0  2  0  0  0  0  0  0
  188.6190  173.2400  139.2060 C   0  0  2  0  0  3  0  0  0  0  0  0
  189.6220  173.7810  138.1930 C   0  0  1  0  0  3  0  0  0  0  0  0
  191.0890  173.5210  138.5910 C   0  0  2  0  0  3  0  0  0  0  0  0
  189.1920  173.1700  140.6170 C   0  0  2  0  0  0  0  0  0  0  0  0
  191.3540  171.4970  137.0310 C   0  0  0  0  0  2  0  0  0  0  0  0
  191.6290  172.0840  138.4160 C   0  0  0  0  0  2  0  0  0  0  0  0
  189.2950  173.4490  136.7260 C   0  0  0  0  0  2  0  0  0  0  0  0
  190.6960  173.3640  140.8830 C   0  0  0  0  0  2  0  0  0  0  0  0
  191.3920  174.0830  139.8590 O   0  0  0  0  0  0  0  0  0  0  0  0
  191.5230  172.5120  135.8990 C   0  0  2  0  0  3  0  0  0  0  0  0
  194.3600  170.6800  135.8250 C   0  0  0  0  0  2  0  0  0  0  0  0
  196.2090  175.8320  136.1060 C   0  0  1  0  0  3  0  0  0  0  0  0
  197.0130  174.8850  134.5280 C   0  0  0  0  0  2  0  0  0  0  0  0
  193.3080  174.2090  135.3090 C   0  0  0  0  0  3  0  0  0  0  0  0
  195.5930  175.3220  134.8090 C   0  0  1  0  0  3  0  0  0  0  0  0
  194.9220  168.9150  137.4480 C   0  0  2  0  0  3  0  0  0  0  0  0
  192.9540  172.9050  135.6190 C   0  0  0  0  0  0  0  0  0  0  0  0
  197.0680  173.2560  138.2790 C   0  0  0  0  0  0  0  0  0  0  0  0
  195.0970  172.9090  135.1030 O   0  0  0  0  0  0  0  0  0  0  0  0
  196.4620  172.3070  137.3000 C   0  0  0  0  0  2  0  0  0  0  0  0
  194.6690  174.1520  135.0300 C   0  0  0  0  0  0  0  0  0  0  0  0
  195.9720  170.9870  137.9080 C   0  0  1  0  0  3  0  0  0  0  0  0
  197.9410  172.8490  139.0660 O   0  0  0  0  0  0  0  0  0  0  0  0
  195.6670  175.2010  137.3990 C   0  0  0  0  0  2  0  0  0  0  0  0
  196.4120  168.7840  137.6870 C   0  0  0  0  0  2  0  0  0  0  0  0
  196.7040  174.6500  138.2650 N   0  0  0  0  0  2  0  0  0  0  0  0
  194.1250  172.1360  135.5090 C   0  0  0  0  0  0  0  0  0  0  0  0
  197.4790  175.3360  135.7740 O   0  0  0  0  0  0  0  0  0  0  0  0
  194.6630  170.3930  137.3220 C   0  0  1  0  0  3  0  0  0  0  0  0
  194.1770  168.2920  138.6270 C   0  0  0  0  0  1  0  0  0  0  0  0
  197.0080  170.0480  137.8030 O   0  0  0  0  0  0  0  0  0  0  0  0
  188.1760  173.3860  141.7560 C   0  0  0  0  0  2  0  0  0  0  0  0
  188.6380  175.6320  142.7690 C   0  0  2  0  0  3  0  0  0  0  0  0
  187.6920  174.8490  141.9320 C   0  0  2  0  0  3  0  0  0  0  0  0
  187.4450  175.1110  143.3030 O   0  0  0  0  0  0  0  0  0  0  0  0
  188.5170  177.1200  142.3610 C   0  0  0  0  0  2  0  0  0  0  0  0
  189.6110  177.9640  143.0220 C   0  0  0  0  0  2  0  0  0  0  0  0
  191.2470  176.9010  144.6900 C   0  0  1  0  0  3  0  0  0  0  0  0
  189.9390  177.7270  144.5460 C   0  0  2  0  0  3  0  0  0  0  0  0
  189.7830  176.3140  146.5570 C   0  0  2  0  0  0  0  0  0  0  0  0
  189.1500  175.1390  147.0050 O   0  0  0  0  0  0  0  0  0  0  0  0
  189.6600  174.0740  146.2410 C   0  0  0  0  0  2  0  0  0  0  0  0
  191.0200  174.4740  145.6890 C   0  0  0  0  0  2  0  0  0  0  0  0
  191.1120  175.9740  145.9320 C   0  0  1  0  0  3  0  0  0  0  0  0
  190.0710  177.2190  147.7790 C   0  0  0  0  0  1  0  0  0  0  0  0
  188.9200  177.0190  145.4600 C   0  0  1  0  0  3  0  0  0  0  0  0
  187.0460  177.1230  147.0500 O   0  0  0  0  0  0  0  0  0  0  0  0
  186.4810  177.4540  145.8130 C   0  0  2  0  0  3  0  0  0  0  0  0
  187.8570  177.9010  146.1650 C   0  0  2  0  0  3  0  0  0  0  0  0
  185.8570  179.6640  146.5510 F   0  0  0  0  0  0  0  0  0  0  0  0
  185.4070  178.5170  145.9420 C   0  0  0  0  0  0  0  0  0  0  0  0
  184.4330  177.9880  146.7480 F   0  0  0  0  0  0  0  0  0  0  0  0
  183.4700  178.9930  144.6040 F   0  0  0  0  0  0  0  0  0  0  0  0
  185.4210  179.9900  144.0790 F   0  0  0  0  0  0  0  0  0  0  0  0
  184.8450  178.7980  144.5360 C   0  0  0  0  0  0  0  0  0  0  0  0
  185.1440  177.7120  143.4670 C   0  0  0  0  0  2  0  0  0  0  0  0
  184.6340  177.9970  142.0820 C   0  0  0  0  0  3  0  0  0  0  0  0
  185.3950  178.5190  141.2680 O   0  0  0  0  0  0  0  0  0  0  0  0
  191.7210  176.1200  143.4220 C   0  0  0  0  0  2  0  0  0  0  0  0
  192.7090  176.8610  142.7430 O   0  0  0  0  0  1  0  0  0  0  0  0
  1  6  1  0  0  0  0
  2 12  1  0  0  0  0
  2  9  1  0  0  0  0
  3  1  1  6  0  0  0
  3  6  1  0  0  0  0
  4  9  1  6  0  0  0
  4  5  1  0  0  0  0
  4  3  1  0  0  0  0
  5  8  1  1  0  0  0
  5 11  1  0  0  0  0
  6 10  1  0  0  0  0
  6 34  1  1  0  0  0
  7  8  1  0  0  0  0
 11 10  1  0  0  0  0
 12 19  1  1  0  0  0
 12  7  1  0  0  0  0
 14 26  1  1  0  0  0
 15 30  1  0  0  0  0
 16 19  1  0  0  0  0
 17 15  1  6  0  0  0
 17 23  1  0  0  0  0
 17 14  1  0  0  0  0
 18 27  1  0  0  0  0
 18 32  1  1  0  0  0
 20 25  2  0  0  0  0
 21 29  1  0  0  0  0
 22 20  1  0  0  0  0
 23 21  1  0  0  0  0
 23 16  2  0  0  0  0
 24 22  1  6  0  0  0
 26 28  1  0  0  0  0
 27 33  1  0  0  0  0
 28 20  1  0  0  0  0
 29 19  2  0  0  0  0
 29 13  1  0  0  0  0
 30 14  1  0  0  0  0
 31 13  1  6  0  0  0
 31 18  1  0  0  0  0
 31 24  1  0  0  0  0
 33 24  1  0  0  0  0
 35 38  1  6  0  0  0
 35 37  1  0  0  0  0
 36 34  1  1  0  0  0
 36 35  1  0  0  0  0
 36 37  1  0  0  0  0
 38 39  1  0  0  0  0
 40 61  1  6  0  0  0
 40 46  1  0  0  0  0
 41 39  1  6  0  0  0
 41 40  1  0  0  0  0
 41 48  1  0  0  0  0
 42 43  1  0  0  0  0
 42 47  1  1  0  0  0
 44 43  1  0  0  0  0
 45 44  1  0  0  0  0
 46 45  1  6  0  0  0
 46 42  1  0  0  0  0
 48 51  1  1  0  0  0
 48 42  1  0  0  0  0
 50 53  1  1  0  0  0
 50 51  1  0  0  0  0
 50 49  1  0  0  0  0
 51 49  1  1  0  0  0
 53 52  1  0  0  0  0
 53 54  1  0  0  0  0
 56 57  1  0  0  0  0
 57 55  1  0  0  0  0
 57 53  1  0  0  0  0
 58 57  1  0  0  0  0
 59 58  1  0  0  0  0
 60 59  2  0  0  0  0
 62 61  1  0  0  0  0
M  END
>  <MODEL>
6

>  <REMARK>
 VINA RESULT:      -6.3      3.326      6.667
  Name = 
  12 active torsions:
  status: ('A' for Active; 'I' for Inactive)
    1  A    between atoms: C_6  and  C_7
    2  A    between atoms: C_7  and  C_37
    3  A    between atoms: C_8  and  C_17
    4  A    between atoms: C_10  and  C_37
    5  A    between atoms: C_13  and  C_20
    6  A    between atoms: C_13  and  C_22
    7  A    between atoms: C_28  and  C_55
    8  A    between atoms: C_38  and  C_56
    9  A    between atoms: C_39  and  C_41
   10  A    between atoms: C_39  and  C_56
   11  A    between atoms: C_41  and  C_49
   12  A    between atoms: C_59  and  C_62
                            x       y       z     vdW  Elec       q    Type
                         _______ _______ _______ _____ _____    ______ ____

>  <TORSDO>
F 12

$$$$
=
 OpenBabel11062423033D

 62 72  0  0  1  0  0  0  0  0999 V2000
  188.2710  172.3200  139.1430 C   0  0  0  0  0  2  0  0  0  0  0  0
  190.7770  170.8590  135.5760 C   0  0  0  0  0  2  0  0  0  0  0  0
  188.4790  173.0540  137.8270 C   0  0  2  0  0  3  0  0  0  0  0  0
  189.7210  172.6010  137.0680 C   0  0  1  0  0  3  0  0  0  0  0  0
  190.9210  172.2980  137.9890 C   0  0  2  0  0  3  0  0  0  0  0  0
  188.8150  173.7290  139.1510 C   0  0  2  0  0  0  0  0  0  0  0  0
  190.5640  169.7550  137.9360 C   0  0  0  0  0  2  0  0  0  0  0  0
  190.8830  170.9790  138.7940 C   0  0  0  0  0  2  0  0  0  0  0  0
  189.4630  171.5300  135.9930 C   0  0  0  0  0  2  0  0  0  0  0  0
  190.2370  173.6790  139.7400 C   0  0  0  0  0  2  0  0  0  0  0  0
  191.2680  173.4260  138.7790 O   0  0  0  0  0  0  0  0  0  0  0  0
  191.2390  169.7850  136.5640 C   0  0  2  0  0  3  0  0  0  0  0  0
  193.2060  168.1700  138.7850 C   0  0  0  0  0  2  0  0  0  0  0  0
  196.7770  171.1690  135.9050 C   0  0  1  0  0  3  0  0  0  0  0  0
  197.3120  169.2340  135.8850 C   0  0  0  0  0  2  0  0  0  0  0  0
  193.5640  170.0450  135.5940 C   0  0  0  0  0  3  0  0  0  0  0  0
  196.1320  169.9460  135.2650 C   0  0  1  0  0  3  0  0  0  0  0  0
  192.9420  168.2990  141.2300 C   0  0  2  0  0  3  0  0  0  0  0  0
  192.7320  169.5670  136.5950 C   0  0  0  0  0  0  0  0  0  0  0  0
  196.4460  171.1960  139.3670 C   0  0  0  0  0  0  0  0  0  0  0  0
  194.7650  168.8160  137.0000 O   0  0  0  0  0  0  0  0  0  0  0  0
  195.6210  169.9590  139.2390 C   0  0  0  0  0  2  0  0  0  0  0  0
  194.8280  169.5710  135.9240 C   0  0  0  0  0  0  0  0  0  0  0  0
  194.6330  169.7270  140.3880 C   0  0  1  0  0  3  0  0  0  0  0  0
  197.0390  171.4290  140.4350 O   0  0  0  0  0  0  0  0  0  0  0  0
  195.9330  171.8950  136.9650 C   0  0  0  0  0  2  0  0  0  0  0  0
  194.2560  168.1660  141.9740 C   0  0  0  0  0  2  0  0  0  0  0  0
  196.6190  172.0770  138.2400 N   0  0  0  0  0  2  0  0  0  0  0  0
  193.5470  168.8310  137.4720 C   0  0  0  0  0  0  0  0  0  0  0  0
  197.8020  170.4050  136.4850 O   0  0  0  0  0  0  0  0  0  0  0  0
  193.2530  169.1250  140.0100 C   0  0  1  0  0  3  0  0  0  0  0  0
  191.9230  168.9740  142.1460 C   0  0  0  0  0  1  0  0  0  0  0  0
  195.2600  168.9160  141.3450 O   0  0  0  0  0  0  0  0  0  0  0  0
  187.8370  174.8320  139.5990 C   0  0  0  0  0  2  0  0  0  0  0  0
  187.1870  175.7620  141.8350 C   0  0  2  0  0  3  0  0  0  0  0  0
  188.2880  175.6420  140.8440 C   0  0  2  0  0  3  0  0  0  0  0  0
  187.5050  176.8180  140.9600 O   0  0  0  0  0  0  0  0  0  0  0  0
  187.8220  175.9260  143.2370 C   0  0  0  0  0  2  0  0  0  0  0  0
  188.4880  177.2970  143.3840 C   0  0  0  0  0  2  0  0  0  0  0  0
  190.6870  177.5360  144.6870 C   0  0  1  0  0  3  0  0  0  0  0  0
  189.1410  177.6810  144.7660 C   0  0  2  0  0  3  0  0  0  0  0  0
  190.0020  176.9990  146.9710 C   0  0  2  0  0  0  0  0  0  0  0  0
  190.0720  175.8620  147.7990 O   0  0  0  0  0  0  0  0  0  0  0  0
  190.8790  174.9180  147.1410 C   0  0  0  0  0  2  0  0  0  0  0  0
  191.7820  175.6450  146.1570 C   0  0  0  0  0  2  0  0  0  0  0  0
  191.2100  177.0520  146.0700 C   0  0  1  0  0  3  0  0  0  0  0  0
  190.0410  178.2640  147.8610 C   0  0  0  0  0  1  0  0  0  0  0  0
  188.7380  176.9330  146.0520 C   0  0  1  0  0  3  0  0  0  0  0  0
  186.6830  176.4160  147.3010 O   0  0  0  0  0  0  0  0  0  0  0  0
  186.2460  177.1220  146.1750 C   0  0  2  0  0  3  0  0  0  0  0  0
  187.5250  177.4800  146.8480 C   0  0  2  0  0  3  0  0  0  0  0  0
  185.3570  178.9440  147.4820 F   0  0  0  0  0  0  0  0  0  0  0  0
  185.0760  178.0330  146.4910 C   0  0  0  0  0  0  0  0  0  0  0  0
  184.0710  177.2270  146.9570 F   0  0  0  0  0  0  0  0  0  0  0  0
  183.3220  179.1410  145.2800 F   0  0  0  0  0  0  0  0  0  0  0  0
  185.4390  179.8690  145.0270 F   0  0  0  0  0  0  0  0  0  0  0  0
  184.6450  178.7260  145.1840 C   0  0  0  0  0  0  0  0  0  0  0  0
  184.8110  177.8780  143.8930 C   0  0  0  0  0  2  0  0  0  0  0  0
  184.4890  178.5800  142.6030 C   0  0  0  0  0  3  0  0  0  0  0  0
  184.4980  177.9290  141.5580 O   0  0  0  0  0  0  0  0  0  0  0  0
  191.2450  176.6700  143.5110 C   0  0  0  0  0  2  0  0  0  0  0  0
  192.1770  177.4180  142.7640 O   0  0  0  0  0  1  0  0  0  0  0  0
  1  6  1  0  0  0  0
  2  9  1  0  0  0  0
  2 12  1  0  0  0  0
  3  1  1  1  0  0  0
  3  6  1  0  0  0  0
  4  9  1  1  0  0  0
  4  3  1  0  0  0  0
  4  5  1  0  0  0  0
  5 11  1  0  0  0  0
  5  8  1  1  0  0  0
  6 34  1  1  0  0  0
  6 10  1  0  0  0  0
  7  8  1  0  0  0  0
 11 10  1  0  0  0  0
 12 19  1  1  0  0  0
 12  7  1  0  0  0  0
 14 30  1  0  0  0  0
 14 26  1  1  0  0  0
 15 30  1  0  0  0  0
 16 23  2  0  0  0  0
 16 19  1  0  0  0  0
 17 15  1  1  0  0  0
 17 14  1  0  0  0  0
 17 23  1  0  0  0  0
 18 27  1  0  0  0  0
 18 32  1  1  0  0  0
 19 29  2  0  0  0  0
 20 25  2  0  0  0  0
 21 29  1  0  0  0  0
 22 20  1  0  0  0  0
 23 21  1  0  0  0  0
 24 22  1  6  0  0  0
 24 33  1  0  0  0  0
 26 28  1  0  0  0  0
 28 20  1  0  0  0  0
 29 13  1  0  0  0  0
 31 13  1  6  0  0  0
 31 24  1  0  0  0  0
 31 18  1  0  0  0  0
 33 27  1  0  0  0  0
 35 38  1  1  0  0  0
 36 34  1  6  0  0  0
 36 37  1  0  0  0  0
 36 35  1  0  0  0  0
 37 35  1  0  0  0  0
 38 39  1  0  0  0  0
 40 61  1  6  0  0  0
 40 41  1  0  0  0  0
 40 46  1  0  0  0  0
 41 39  1  6  0  0  0
 41 48  1  0  0  0  0
 42 43  1  0  0  0  0
 42 47  1  1  0  0  0
 44 43  1  0  0  0  0
 45 44  1  0  0  0  0
 46 45  1  6  0  0  0
 46 42  1  0  0  0  0
 48 51  1  1  0  0  0
 48 42  1  0  0  0  0
 50 53  1  1  0  0  0
 50 51  1  0  0  0  0
 50 49  1  0  0  0  0
 51 49  1  1  0  0  0
 53 54  1  0  0  0  0
 53 52  1  0  0  0  0
 56 57  1  0  0  0  0
 57 55  1  0  0  0  0
 57 53  1  0  0  0  0
 58 57  1  0  0  0  0
 59 58  1  0  0  0  0
 60 59  2  0  0  0  0
 62 61  1  0  0  0  0
M  END
>  <MODEL>
7

>  <REMARK>
 VINA RESULT:      -6.3      3.235      6.709
  Name = 
  12 active torsions:
  status: ('A' for Active; 'I' for Inactive)
    1  A    between atoms: C_6  and  C_7
    2  A    between atoms: C_7  and  C_37
    3  A    between atoms: C_8  and  C_17
    4  A    between atoms: C_10  and  C_37
    5  A    between atoms: C_13  and  C_20
    6  A    between atoms: C_13  and  C_22
    7  A    between atoms: C_28  and  C_55
    8  A    between atoms: C_38  and  C_56
    9  A    between atoms: C_39  and  C_41
   10  A    between atoms: C_39  and  C_56
   11  A    between atoms: C_41  and  C_49
   12  A    between atoms: C_59  and  C_62
                            x       y       z     vdW  Elec       q    Type
                         _______ _______ _______ _____ _____    ______ ____

>  <TORSDO>
F 12

$$$$
=
 OpenBabel11062423033D

 62 72  0  0  1  0  0  0  0  0999 V2000
  190.3450  173.2730  142.4320 C   0  0  0  0  0  2  0  0  0  0  0  0
  193.1500  169.7180  141.6350 C   0  0  0  0  0  2  0  0  0  0  0  0
  189.9260  171.8620  142.0450 C   0  0  2  0  0  3  0  0  0  0  0  0
  191.0320  171.0650  141.3640 C   0  0  1  0  0  3  0  0  0  0  0  0
  191.8920  171.9130  140.4050 C   0  0  2  0  0  3  0  0  0  0  0  0
  189.4730  173.0600  141.2180 C   0  0  2  0  0  0  0  0  0  0  0  0
  193.8150  172.2070  142.0820 C   0  0  0  0  0  2  0  0  0  0  0  0
  192.9220  172.8760  141.0380 C   0  0  0  0  0  2  0  0  0  0  0  0
  191.8430  170.1570  142.3050 C   0  0  0  0  0  2  0  0  0  0  0  0
  190.2650  173.5290  139.9840 C   0  0  0  0  0  2  0  0  0  0  0  0
  191.1000  172.5250  139.3970 O   0  0  0  0  0  0  0  0  0  0  0  0
  194.2410  170.7900  141.6960 C   0  0  2  0  0  3  0  0  0  0  0  0
  196.9390  172.7020  141.0020 C   0  0  0  0  0  2  0  0  0  0  0  0
  196.0510  170.0400  136.2930 C   0  0  1  0  0  3  0  0  0  0  0  0
  197.9410  169.7590  136.9110 C   0  0  0  0  0  2  0  0  0  0  0  0
  195.1770  169.7490  139.5860 C   0  0  0  0  0  3  0  0  0  0  0  0
  196.6260  169.2880  137.4870 C   0  0  1  0  0  3  0  0  0  0  0  0
  197.0000  175.1540  141.2170 C   0  0  2  0  0  3  0  0  0  0  0  0
  195.2450  170.7230  140.5700 C   0  0  0  0  0  0  0  0  0  0  0  0
  196.2900  173.4910  136.6490 C   0  0  0  0  0  0  0  0  0  0  0  0
  197.0330  170.9360  139.2970 O   0  0  0  0  0  0  0  0  0  0  0  0
  196.8430  173.2540  138.0140 C   0  0  0  0  0  2  0  0  0  0  0  0
  196.3050  169.9570  138.8000 C   0  0  0  0  0  0  0  0  0  0  0  0
  196.6400  174.4120  138.9980 C   0  0  1  0  0  3  0  0  0  0  0  0
  196.5590  174.5500  136.0550 O   0  0  0  0  0  0  0  0  0  0  0  0
  195.1240  171.2190  136.6280 C   0  0  0  0  0  2  0  0  0  0  0  0
  197.9260  175.8130  140.2140 C   0  0  0  0  0  2  0  0  0  0  0  0
  195.5130  172.4730  135.9900 N   0  0  0  0  0  2  0  0  0  0  0  0
  196.4120  171.4640  140.3180 C   0  0  0  0  0  0  0  0  0  0  0  0
  197.3180  170.4730  135.8740 O   0  0  0  0  0  0  0  0  0  0  0  0
  196.3320  174.0300  140.4710 C   0  0  1  0  0  3  0  0  0  0  0  0
  196.0010  176.1930  141.7220 C   0  0  0  0  0  1  0  0  0  0  0  0
  197.7760  175.2320  138.9470 O   0  0  0  0  0  0  0  0  0  0  0  0
  187.9890  173.4470  141.3720 C   0  0  0  0  0  2  0  0  0  0  0  0
  187.8090  175.9460  141.2720 C   0  0  2  0  0  3  0  0  0  0  0  0
  187.7320  174.7580  142.1610 C   0  0  2  0  0  3  0  0  0  0  0  0
  188.8820  175.5840  142.1070 O   0  0  0  0  0  0  0  0  0  0  0  0
  186.9180  177.0560  141.8790 C   0  0  0  0  0  2  0  0  0  0  0  0
  187.5340  177.6180  143.1630 C   0  0  0  0  0  2  0  0  0  0  0  0
  185.5410  177.4890  144.7760 C   0  0  1  0  0  3  0  0  0  0  0  0
  187.0230  177.0770  144.5530 C   0  0  2  0  0  3  0  0  0  0  0  0
  186.6380  177.4350  146.9600 C   0  0  2  0  0  0  0  0  0  0  0  0
  186.9120  178.3770  147.9690 O   0  0  0  0  0  0  0  0  0  0  0  0
  186.2200  179.5550  147.6370 C   0  0  0  0  0  2  0  0  0  0  0  0
  185.0600  179.2000  146.7190 C   0  0  0  0  0  2  0  0  0  0  0  0
  185.3270  177.7640  146.2920 C   0  0  1  0  0  3  0  0  0  0  0  0
  186.4800  176.0400  147.6120 C   0  0  0  0  0  1  0  0  0  0  0  0
  187.7460  177.4740  145.8550 C   0  0  1  0  0  3  0  0  0  0  0  0
  189.8590  177.3330  147.1060 O   0  0  0  0  0  0  0  0  0  0  0  0
  190.2170  177.0970  145.7740 C   0  0  2  0  0  3  0  0  0  0  0  0
  188.9290  176.5860  146.3170 C   0  0  2  0  0  3  0  0  0  0  0  0
  190.8560  174.8210  145.2960 F   0  0  0  0  0  0  0  0  0  0  0  0
  191.3210  176.0630  145.6560 C   0  0  0  0  0  0  0  0  0  0  0  0
  191.8750  175.9420  146.9030 F   0  0  0  0  0  0  0  0  0  0  0  0
  192.3800  175.7980  143.5160 F   0  0  0  0  0  0  0  0  0  0  0  0
  191.9670  177.8810  144.2690 F   0  0  0  0  0  0  0  0  0  0  0  0
  192.3650  176.5950  144.6550 C   0  0  0  0  0  0  0  0  0  0  0  0
  193.8140  176.7140  145.2020 C   0  0  0  0  0  2  0  0  0  0  0  0
  194.5850  175.4270  145.3020 C   0  0  0  0  0  3  0  0  0  0  0  0
  195.7880  175.4380  145.0470 O   0  0  0  0  0  0  0  0  0  0  0  0
  185.0010  178.6530  143.8840 C   0  0  0  0  0  2  0  0  0  0  0  0
  183.8810  178.2150  143.1480 O   0  0  0  0  0  1  0  0  0  0  0  0
  2 12  1  0  0  0  0
  2  9  1  0  0  0  0
  3  1  1  1  0  0  0
  4  3  1  0  0  0  0
  4  9  1  1  0  0  0
  5  8  1  1  0  0  0
  5  4  1  0  0  0  0
  6 34  1  1  0  0  0
  6  3  1  0  0  0  0
  6  1  1  0  0  0  0
  8  7  1  0  0  0  0
 10  6  1  0  0  0  0
 11 10  1  0  0  0  0
 11  5  1  0  0  0  0
 12 19  1  6  0  0  0
 12  7  1  0  0  0  0
 14 26  1  1  0  0  0
 14 17  1  0  0  0  0
 16 19  1  0  0  0  0
 17 15  1  6  0  0  0
 17 23  1  0  0  0  0
 18 32  1  6  0  0  0
 20 22  1  0  0  0  0
 21 29  1  0  0  0  0
 23 21  1  0  0  0  0
 23 16  2  0  0  0  0
 24 22  1  6  0  0  0
 24 31  1  0  0  0  0
 25 20  2  0  0  0  0
 27 18  1  0  0  0  0
 28 26  1  0  0  0  0
 28 20  1  0  0  0  0
 29 19  2  0  0  0  0
 29 13  1  0  0  0  0
 30 14  1  0  0  0  0
 30 15  1  0  0  0  0
 31 13  1  1  0  0  0
 31 18  1  0  0  0  0
 33 24  1  0  0  0  0
 33 27  1  0  0  0  0
 35 38  1  1  0  0  0
 35 37  1  0  0  0  0
 35 36  1  0  0  0  0
 36 34  1  6  0  0  0
 37 36  1  0  0  0  0
 38 39  1  0  0  0  0
 40 61  1  6  0  0  0
 40 46  1  0  0  0  0
 41 39  1  6  0  0  0
 41 40  1  0  0  0  0
 41 48  1  0  0  0  0
 42 47  1  1  0  0  0
 42 43  1  0  0  0  0
 44 43  1  0  0  0  0
 45 44  1  0  0  0  0
 46 45  1  6  0  0  0
 46 42  1  0  0  0  0
 48 51  1  1  0  0  0
 48 42  1  0  0  0  0
 50 53  1  1  0  0  0
 50 51  1  0  0  0  0
 50 49  1  0  0  0  0
 51 49  1  1  0  0  0
 52 53  1  0  0  0  0
 53 54  1  0  0  0  0
 55 57  1  0  0  0  0
 56 57  1  0  0  0  0
 57 58  1  0  0  0  0
 57 53  1  0  0  0  0
 58 59  1  0  0  0  0
 60 59  2  0  0  0  0
 62 61  1  0  0  0  0
M  END
>  <MODEL>
8

>  <REMARK>
 VINA RESULT:      -6.2      2.263      5.309
  Name = 
  12 active torsions:
  status: ('A' for Active; 'I' for Inactive)
    1  A    between atoms: C_6  and  C_7
    2  A    between atoms: C_7  and  C_37
    3  A    between atoms: C_8  and  C_17
    4  A    between atoms: C_10  and  C_37
    5  A    between atoms: C_13  and  C_20
    6  A    between atoms: C_13  and  C_22
    7  A    between atoms: C_28  and  C_55
    8  A    between atoms: C_38  and  C_56
    9  A    between atoms: C_39  and  C_41
   10  A    between atoms: C_39  and  C_56
   11  A    between atoms: C_41  and  C_49
   12  A    between atoms: C_59  and  C_62
                            x       y       z     vdW  Elec       q    Type
                         _______ _______ _______ _____ _____    ______ ____

>  <TORSDO>
F 12

$$$$
=
 OpenBabel11062423033D

 62 72  0  0  1  0  0  0  0  0999 V2000
  191.3040  171.1690  139.4530 C   0  0  0  0  0  2  0  0  0  0  0  0
  188.9340  172.6220  143.1150 C   0  0  0  0  0  2  0  0  0  0  0  0
  191.6810  170.9600  140.9120 C   0  0  2  0  0  3  0  0  0  0  0  0
  191.0200  171.9540  141.8590 C   0  0  1  0  0  3  0  0  0  0  0  0
  190.9240  173.3790  141.2750 C   0  0  2  0  0  3  0  0  0  0  0  0
  192.6550  171.6270  139.9480 C   0  0  2  0  0  0  0  0  0  0  0  0
  188.4580  173.1400  140.5970 C   0  0  0  0  0  2  0  0  0  0  0  0
  189.8480  173.6330  140.1950 C   0  0  0  0  0  2  0  0  0  0  0  0
  189.7230  171.4510  142.5170 C   0  0  0  0  0  2  0  0  0  0  0  0
  192.7150  173.1580  139.7990 C   0  0  0  0  0  2  0  0  0  0  0  0
  192.2030  173.8840  140.9210 O   0  0  0  0  0  0  0  0  0  0  0  0
  188.1270  173.3950  142.0680 C   0  0  2  0  0  3  0  0  0  0  0  0
  190.2270  175.8050  143.1620 C   0  0  0  0  0  2  0  0  0  0  0  0
  185.2710  177.8820  144.2450 C   0  0  1  0  0  3  0  0  0  0  0  0
  186.3420  179.1680  143.1340 C   0  0  0  0  0  2  0  0  0  0  0  0
  186.6310  175.4250  142.2940 C   0  0  0  0  0  3  0  0  0  0  0  0
  185.7610  177.8120  142.8030 C   0  0  1  0  0  3  0  0  0  0  0  0
  191.9840  175.4590  144.8520 C   0  0  2  0  0  3  0  0  0  0  0  0
  187.8840  174.8440  142.4140 C   0  0  0  0  0  0  0  0  0  0  0  0
  187.8470  177.4950  146.5490 C   0  0  0  0  0  0  0  0  0  0  0  0
  188.1040  176.9970  142.8370 O   0  0  0  0  0  0  0  0  0  0  0  0
  188.7640  177.2570  145.3960 C   0  0  0  0  0  2  0  0  0  0  0  0
  186.8280  176.7660  142.6060 C   0  0  0  0  0  0  0  0  0  0  0  0
  190.0100  176.4280  145.7300 C   0  0  1  0  0  3  0  0  0  0  0  0
  188.3110  177.9160  147.6240 O   0  0  0  0  0  0  0  0  0  0  0  0
  185.8050  176.7910  145.1870 C   0  0  0  0  0  2  0  0  0  0  0  0
  192.2510  176.6940  145.6880 C   0  0  0  0  0  2  0  0  0  0  0  0
  186.4260  177.3130  146.4000 N   0  0  0  0  0  2  0  0  0  0  0  0
  188.7650  175.8710  142.7930 C   0  0  0  0  0  0  0  0  0  0  0  0
  185.8990  179.1170  144.4660 O   0  0  0  0  0  0  0  0  0  0  0  0
  190.4930  175.4270  144.6450 C   0  0  1  0  0  3  0  0  0  0  0  0
  192.4940  174.2330  145.6070 C   0  0  0  0  0  1  0  0  0  0  0  0
  191.0480  177.3130  146.0560 O   0  0  0  0  0  0  0  0  0  0  0  0
  193.8610  170.7660  139.5240 C   0  0  0  0  0  2  0  0  0  0  0  0
  196.3510  170.4710  139.5410 C   0  0  2  0  0  3  0  0  0  0  0  0
  195.2030  171.1350  140.2110 C   0  0  2  0  0  3  0  0  0  0  0  0
  195.8080  169.9670  140.7380 O   0  0  0  0  0  0  0  0  0  0  0  0
  197.6080  171.3450  139.7680 C   0  0  0  0  0  2  0  0  0  0  0  0
  197.9400  172.1680  138.5200 C   0  0  0  0  0  2  0  0  0  0  0  0
  196.3620  172.7110  136.5690 C   0  0  1  0  0  3  0  0  0  0  0  0
  196.8630  173.1770  137.9650 C   0  0  2  0  0  3  0  0  0  0  0  0
  196.3070  175.1540  136.6050 C   0  0  2  0  0  0  0  0  0  0  0  0
  196.9430  176.1830  135.8860 O   0  0  0  0  0  0  0  0  0  0  0  0
  197.6240  175.5820  134.8130 C   0  0  0  0  0  2  0  0  0  0  0  0
  196.9760  174.2380  134.5130 C   0  0  0  0  0  2  0  0  0  0  0  0
  196.0670  173.9700  135.7040 C   0  0  1  0  0  3  0  0  0  0  0  0
  194.9210  175.6580  137.0730 C   0  0  0  0  0  1  0  0  0  0  0  0
  197.2130  174.6670  137.7840 C   0  0  1  0  0  3  0  0  0  0  0  0
  197.9410  175.3510  140.0320 O   0  0  0  0  0  0  0  0  0  0  0  0
  196.6590  174.8240  140.2180 C   0  0  2  0  0  3  0  0  0  0  0  0
  196.9880  175.6070  138.9960 C   0  0  2  0  0  3  0  0  0  0  0  0
  194.5340  175.6520  141.0050 F   0  0  0  0  0  0  0  0  0  0  0  0
  195.8800  175.5820  141.2770 C   0  0  0  0  0  0  0  0  0  0  0  0
  196.3600  176.8650  141.2690 F   0  0  0  0  0  0  0  0  0  0  0  0
  197.3640  175.3650  143.1530 F   0  0  0  0  0  0  0  0  0  0  0  0
  195.1420  175.3150  143.5190 F   0  0  0  0  0  0  0  0  0  0  0  0
  196.1540  174.9150  142.6380 C   0  0  0  0  0  0  0  0  0  0  0  0
  196.1610  173.3620  142.6320 C   0  0  0  0  0  2  0  0  0  0  0  0
  195.4330  172.6990  143.7680 C   0  0  0  0  0  3  0  0  0  0  0  0
  194.7760  171.6850  143.5380 O   0  0  0  0  0  0  0  0  0  0  0  0
  197.2610  171.6770  135.8170 C   0  0  0  0  0  2  0  0  0  0  0  0
  196.7430  170.3770  135.9840 O   0  0  0  0  0  1  0  0  0  0  0  0
  1  6  1  0  0  0  0
  3  1  1  6  0  0  0
  3  4  1  0  0  0  0
  4  9  1  6  0  0  0
  5  8  1  6  0  0  0
  5  4  1  0  0  0  0
  6 34  1  6  0  0  0
  6  3  1  0  0  0  0
  7 12  1  0  0  0  0
  8  7  1  0  0  0  0
  9  2  1  0  0  0  0
 10  6  1  0  0  0  0
 10 11  1  0  0  0  0
 11  5  1  0  0  0  0
 12 19  1  1  0  0  0
 12  2  1  0  0  0  0
 14 30  1  0  0  0  0
 14 26  1  1  0  0  0
 15 30  1  0  0  0  0
 16 19  1  0  0  0  0
 16 23  2  0  0  0  0
 17 15  1  1  0  0  0
 17 14  1  0  0  0  0
 18 32  1  1  0  0  0
 18 27  1  0  0  0  0
 19 29  2  0  0  0  0
 20 25  2  0  0  0  0
 22 20  1  0  0  0  0
 23 17  1  0  0  0  0
 23 21  1  0  0  0  0
 24 22  1  6  0  0  0
 24 33  1  0  0  0  0
 26 28  1  0  0  0  0
 27 33  1  0  0  0  0
 28 20  1  0  0  0  0
 29 21  1  0  0  0  0
 29 13  1  0  0  0  0
 31 13  1  6  0  0  0
 31 18  1  0  0  0  0
 31 24  1  0  0  0  0
 35 38  1  1  0  0  0
 35 36  1  0  0  0  0
 35 37  1  0  0  0  0
 36 34  1  6  0  0  0
 36 37  1  0  0  0  0
 39 38  1  0  0  0  0
 40 61  1  6  0  0  0
 40 41  1  0  0  0  0
 41 39  1  6  0  0  0
 42 47  1  1  0  0  0
 42 48  1  0  0  0  0
 43 42  1  0  0  0  0
 44 43  1  0  0  0  0
 45 44  1  0  0  0  0
 46 45  1  6  0  0  0
 46 40  1  0  0  0  0
 46 42  1  0  0  0  0
 48 41  1  0  0  0  0
 48 51  1  1  0  0  0
 49 50  1  0  0  0  0
 50 53  1  1  0  0  0
 51 49  1  1  0  0  0
 51 50  1  0  0  0  0
 52 53  1  0  0  0  0
 53 57  1  0  0  0  0
 54 53  1  0  0  0  0
 57 55  1  0  0  0  0
 57 56  1  0  0  0  0
 58 57  1  0  0  0  0
 58 59  1  0  0  0  0
 60 59  2  0  0  0  0
 61 62  1  0  0  0  0
M  END
>  <MODEL>
9

>  <REMARK>
 VINA RESULT:      -6.1      3.178     10.579
  Name = 
  12 active torsions:
  status: ('A' for Active; 'I' for Inactive)
    1  A    between atoms: C_6  and  C_7
    2  A    between atoms: C_7  and  C_37
    3  A    between atoms: C_8  and  C_17
    4  A    between atoms: C_10  and  C_37
    5  A    between atoms: C_13  and  C_20
    6  A    between atoms: C_13  and  C_22
    7  A    between atoms: C_28  and  C_55
    8  A    between atoms: C_38  and  C_56
    9  A    between atoms: C_39  and  C_41
   10  A    between atoms: C_39  and  C_56
   11  A    between atoms: C_41  and  C_49
   12  A    between atoms: C_59  and  C_62
                            x       y       z     vdW  Elec       q    Type
                         _______ _______ _______ _____ _____    ______ ____

>  <TORSDO>
F 12

$$$$
