=
 OpenBabel11072408473D

 36 39  0  0  1  0  0  0  0  0999 V2000
  191.7480  175.5060  146.9040 C   0  0  2  0  0  3  0  0  0  0  0  0
  190.0300  177.8570  147.4710 C   0  0  0  0  0  2  0  0  0  0  0  0
  192.1330  176.5710  147.9350 C   0  0  0  0  0  2  0  0  0  0  0  0
  193.0350  174.8870  146.3540 C   0  0  0  0  0  2  0  0  0  0  0  0
  189.6170  176.7910  146.4610 C   0  0  2  0  0  3  0  0  0  0  0  0
  191.6010  176.9690  144.8410 C   0  0  0  0  0  2  0  0  0  0  0  0
  191.9600  176.1370  143.6210 C   0  0  0  0  0  2  0  0  0  0  0  0
  193.1310  175.1700  143.8540 C   0  0  1  0  0  3  0  0  0  0  0  0
  190.8980  177.2240  148.5520 C   0  0  1  0  0  3  0  0  0  0  0  0
  192.8680  174.1740  145.0110 C   0  0  1  0  0  3  0  0  0  0  0  0
  191.3300  178.2880  149.5370 C   0  0  0  0  0  1  0  0  0  0  0  0
  190.8240  176.0910  145.8170 C   0  0  1  0  0  3  0  0  0  0  0  0
  195.0060  173.1300  145.3360 O   0  0  0  0  0  1  0  0  0  0  0  0
  193.7990  172.9980  144.9970 C   0  0  0  0  0  0  0  0  0  0  0  0
  193.3210  171.7500  144.6250 O   0  0  0  0  0  0  0  0  0  0  0  0
  193.5330  174.4690  142.5380 C   0  0  2  0  0  3  0  0  0  0  0  0
  195.4750  175.9970  142.7480 N   0  0  0  0  0  2  0  0  0  0  0  0
  196.0350  173.5340  141.8210 S   0  0  0  0  0  0  0  0  0  0  0  0
  196.8900  175.9930  142.4250 C   0  0  0  0  0  2  0  0  0  0  0  0
  194.8760  174.9320  141.9530 C   0  0  1  0  0  3  0  0  0  0  0  0
  197.3740  174.5640  142.4680 C   0  0  0  0  0  2  0  0  0  0  0  0
  192.4030  174.3340  141.5050 C   0  0  1  0  0  3  0  0  0  0  0  0
  192.8780  174.5380  140.2080 O   0  0  0  0  0  1  0  0  0  0  0  0
  191.7460  172.9660  141.5930 C   0  0  0  0  0  2  0  0  0  0  0  0
  190.4470  173.0510  142.3750 C   0  0  0  0  0  2  0  0  0  0  0  0
  189.4880  174.0220  141.7060 C   0  0  0  0  0  2  0  0  0  0  0  0
  188.7330  174.7500  142.7120 N   0  0  0  0  0  1  0  0  0  0  0  0
  188.5370  177.2510  145.4750 C   0  0  0  0  0  2  0  0  0  0  0  0
  187.1670  176.6140  145.7010 C   0  0  1  0  0  3  0  0  0  0  0  0
  186.9620  176.4070  147.0700 O   0  0  0  0  0  1  0  0  0  0  0  0
  184.4690  179.5430  144.4170 N   0  0  0  0  0  0  0  0  0  0  0  0
  184.1470  178.7930  145.6200 C   0  0  0  0  0  2  0  0  0  0  0  0
  186.6510  178.4630  144.2330 C   0  0  0  0  0  2  0  0  0  0  0  0
  186.0970  177.4250  145.1090 N   0  0  0  0  0  0  0  0  0  0  0  0
  185.3740  178.0860  146.1930 C   0  0  0  0  0  2  0  0  0  0  0  0
  185.5640  179.3860  143.7500 C   0  0  0  0  0  3  0  0  0  0  0  0
  1  4  1  6  0  0  0
  1  3  1  0  0  0  0
  2  9  1  0  0  0  0
  3  9  1  0  0  0  0
  5 28  1  6  0  0  0
  5  2  1  0  0  0  0
  7  8  1  0  0  0  0
  7  6  1  0  0  0  0
  8 16  1  6  0  0  0
  8 10  1  0  0  0  0
  9 11  1  1  0  0  0
 10 14  1  1  0  0  0
 10  4  1  0  0  0  0
 12  6  1  1  0  0  0
 12  5  1  0  0  0  0
 12  1  1  0  0  0  0
 14 13  1  0  0  0  0
 15 14  2  0  0  0  0
 16 22  1  6  0  0  0
 18 20  1  0  0  0  0
 18 21  1  0  0  0  0
 19 21  1  0  0  0  0
 19 17  1  0  0  0  0
 20 16  1  1  0  0  0
 20 17  1  0  0  0  0
 22 23  1  6  0  0  0
 22 24  1  0  0  0  0
 24 25  1  0  0  0  0
 26 25  1  0  0  0  0
 26 27  1  0  0  0  0
 28 29  1  0  0  0  0
 29 30  1  1  0  0  0
 31 32  1  0  0  0  0
 32 35  1  0  0  0  0
 33 34  1  0  0  0  0
 34 29  1  0  0  0  0
 34 35  1  0  0  0  0
 36 33  1  0  0  0  0
 36 31  2  0  0  0  0
M  END
>  <MODEL>
1

>  <REMARK>
 VINA RESULT:      -6.4      0.000      0.000
  Name = 
  10 active torsions:
  status: ('A' for Active; 'I' for Inactive)
    1  A    between atoms: C_4  and  C_20
    2  A    between atoms: C_4  and  C_22
    3  A    between atoms: C_4  and  C_28
    4  A    between atoms: C_9  and  N_12
    5  A    between atoms: C_9  and  C_26
    6  A    between atoms: C_13  and  C_16
    7  A    between atoms: C_16  and  C_30
    8  A    between atoms: C_17  and  C_26
    9  A    between atoms: C_20  and  C_30
   10  A    between atoms: C_21  and  C_32
                            x       y       z     vdW  Elec       q    Type
                         _______ _______ _______ _____ _____    ______ ____

>  <TORSDO>
F 10

$$$$
=
 OpenBabel11072408473D

 36 39  0  0  1  0  0  0  0  0999 V2000
  192.1900  175.2080  146.4870 C   0  0  2  0  0  3  0  0  0  0  0  0
  190.0430  177.0850  147.3000 C   0  0  0  0  0  2  0  0  0  0  0  0
  192.4450  176.3780  147.4400 C   0  0  0  0  0  2  0  0  0  0  0  0
  193.4950  174.9010  145.7480 C   0  0  0  0  0  2  0  0  0  0  0  0
  189.7640  175.9090  146.3700 C   0  0  2  0  0  3  0  0  0  0  0  0
  191.3790  176.4990  144.4640 C   0  0  0  0  0  2  0  0  0  0  0  0
  191.7510  175.7300  143.2070 C   0  0  0  0  0  2  0  0  0  0  0  0
  193.1470  175.0920  143.2610 C   0  0  1  0  0  3  0  0  0  0  0  0
  191.1910  176.7330  148.2370 C   0  0  1  0  0  3  0  0  0  0  0  0
  193.3160  174.1130  144.4500 C   0  0  1  0  0  3  0  0  0  0  0  0
  191.4840  177.9120  149.1390 C   0  0  0  0  0  1  0  0  0  0  0  0
  191.0000  175.5000  145.5520 C   0  0  1  0  0  3  0  0  0  0  0  0
  195.6710  173.6460  144.4300 O   0  0  0  0  0  1  0  0  0  0  0  0
  194.4980  173.2030  144.2980 C   0  0  0  0  0  0  0  0  0  0  0  0
  194.2970  171.8560  144.0290 O   0  0  0  0  0  0  0  0  0  0  0  0
  193.5130  174.4560  141.9020 C   0  0  2  0  0  3  0  0  0  0  0  0
  195.0470  176.4020  141.8210 N   0  0  0  0  0  2  0  0  0  0  0  0
  196.0370  174.1050  140.8280 S   0  0  0  0  0  0  0  0  0  0  0  0
  196.3630  176.7160  141.2950 C   0  0  0  0  0  2  0  0  0  0  0  0
  194.6120  175.1970  141.1260 C   0  0  1  0  0  3  0  0  0  0  0  0
  197.1720  175.4430  141.2690 C   0  0  0  0  0  2  0  0  0  0  0  0
  192.3120  174.0220  141.0470 C   0  0  1  0  0  3  0  0  0  0  0  0
  192.5840  174.1650  139.6850 O   0  0  0  0  0  1  0  0  0  0  0  0
  191.9290  172.5800  141.3370 C   0  0  0  0  0  2  0  0  0  0  0  0
  190.5740  172.5180  142.0210 C   0  0  0  0  0  2  0  0  0  0  0  0
  190.6890  171.8080  143.3590 C   0  0  0  0  0  2  0  0  0  0  0  0
  189.7090  172.3400  144.2920 N   0  0  0  0  0  1  0  0  0  0  0  0
  188.4700  176.0460  145.5600 C   0  0  0  0  0  2  0  0  0  0  0  0
  188.0040  177.4860  145.3590 C   0  0  1  0  0  3  0  0  0  0  0  0
  188.3550  177.9230  144.0760 O   0  0  0  0  0  1  0  0  0  0  0  0
  184.0630  178.6660  146.1270 N   0  0  0  0  0  0  0  0  0  0  0  0
  184.8950  178.2730  147.2530 C   0  0  0  0  0  2  0  0  0  0  0  0
  185.9350  178.4530  144.5720 C   0  0  0  0  0  2  0  0  0  0  0  0
  186.5630  177.6200  145.6030 N   0  0  0  0  0  0  0  0  0  0  0  0
  186.3800  178.2810  146.8930 C   0  0  0  0  0  2  0  0  0  0  0  0
  184.4900  178.7140  144.9080 C   0  0  0  0  0  3  0  0  0  0  0  0
  1  4  1  6  0  0  0
  1  3  1  0  0  0  0
  2  9  1  0  0  0  0
  3  9  1  0  0  0  0
  5 28  1  6  0  0  0
  5  2  1  0  0  0  0
  7  8  1  0  0  0  0
  7  6  1  0  0  0  0
  8 16  1  6  0  0  0
  8 10  1  0  0  0  0
  9 11  1  1  0  0  0
 10 14  1  6  0  0  0
 10  4  1  0  0  0  0
 12  6  1  6  0  0  0
 12  5  1  0  0  0  0
 12  1  1  0  0  0  0
 14 13  1  0  0  0  0
 15 14  2  0  0  0  0
 16 22  1  6  0  0  0
 18 20  1  0  0  0  0
 18 21  1  0  0  0  0
 19 17  1  0  0  0  0
 20 17  1  0  0  0  0
 20 16  1  1  0  0  0
 21 19  1  0  0  0  0
 22 23  1  6  0  0  0
 22 24  1  0  0  0  0
 24 25  1  0  0  0  0
 25 26  1  0  0  0  0
 26 27  1  0  0  0  0
 29 30  1  6  0  0  0
 29 28  1  0  0  0  0
 29 34  1  0  0  0  0
 31 32  1  0  0  0  0
 33 36  1  0  0  0  0
 33 34  1  0  0  0  0
 34 35  1  0  0  0  0
 35 32  1  0  0  0  0
 36 31  2  0  0  0  0
M  END
>  <MODEL>
2

>  <REMARK>
 VINA RESULT:      -6.4      1.241      1.361
  Name = 
  10 active torsions:
  status: ('A' for Active; 'I' for Inactive)
    1  A    between atoms: C_4  and  C_20
    2  A    between atoms: C_4  and  C_22
    3  A    between atoms: C_4  and  C_28
    4  A    between atoms: C_9  and  N_12
    5  A    between atoms: C_9  and  C_26
    6  A    between atoms: C_13  and  C_16
    7  A    between atoms: C_16  and  C_30
    8  A    between atoms: C_17  and  C_26
    9  A    between atoms: C_20  and  C_30
   10  A    between atoms: C_21  and  C_32
                            x       y       z     vdW  Elec       q    Type
                         _______ _______ _______ _____ _____    ______ ____

>  <TORSDO>
F 10

$$$$
=
 OpenBabel11072408473D

 36 39  0  0  1  0  0  0  0  0999 V2000
  189.2240  175.5210  145.7310 C   0  0  2  0  0  3  0  0  0  0  0  0
  187.1360  177.5950  145.3530 C   0  0  0  0  0  2  0  0  0  0  0  0
  188.9940  176.6450  146.7450 C   0  0  0  0  0  2  0  0  0  0  0  0
  190.6910  175.0950  145.8150 C   0  0  0  0  0  2  0  0  0  0  0  0
  187.3330  176.4670  144.3450 C   0  0  2  0  0  3  0  0  0  0  0  0
  189.7740  176.9200  143.6910 C   0  0  0  0  0  2  0  0  0  0  0  0
  190.7210  176.1360  142.7980 C   0  0  0  0  0  2  0  0  0  0  0  0
  191.7990  175.3580  143.5690 C   0  0  1  0  0  3  0  0  0  0  0  0
  187.5400  177.1130  146.7400 C   0  0  1  0  0  3  0  0  0  0  0  0
  191.2040  174.3490  144.5820 C   0  0  1  0  0  3  0  0  0  0  0  0
  187.3720  178.2420  147.7330 C   0  0  0  0  0  1  0  0  0  0  0  0
  188.7800  175.9470  144.3170 C   0  0  1  0  0  3  0  0  0  0  0  0
  193.1090  173.6370  145.8580 O   0  0  0  0  0  1  0  0  0  0  0  0
  192.1980  173.3260  145.0450 C   0  0  0  0  0  0  0  0  0  0  0  0
  192.1000  172.0190  144.5880 O   0  0  0  0  0  0  0  0  0  0  0  0
  192.8080  174.7090  142.5970 C   0  0  2  0  0  3  0  0  0  0  0  0
  194.3520  176.2850  143.7290 N   0  0  0  0  0  2  0  0  0  0  0  0
  195.4370  173.9410  142.9770 S   0  0  0  0  0  0  0  0  0  0  0  0
  195.7640  176.3640  144.0540 C   0  0  0  0  0  2  0  0  0  0  0  0
  194.2340  175.2750  142.6850 C   0  0  1  0  0  3  0  0  0  0  0  0
  196.2880  174.9580  144.2070 C   0  0  0  0  0  2  0  0  0  0  0  0
  192.2910  174.5120  141.1630 C   0  0  1  0  0  3  0  0  0  0  0  0
  193.2930  174.7640  140.2250 O   0  0  0  0  0  1  0  0  0  0  0  0
  191.7580  173.1020  140.9660 C   0  0  0  0  0  2  0  0  0  0  0  0
  190.2440  173.1210  140.8340 C   0  0  0  0  0  2  0  0  0  0  0  0
  189.6060  172.3160  141.9530 C   0  0  0  0  0  2  0  0  0  0  0  0
  188.2230  172.7270  142.1370 N   0  0  0  0  0  1  0  0  0  0  0  0
  186.7220  176.7470  142.9670 C   0  0  0  0  0  2  0  0  0  0  0  0
  186.6240  178.2300  142.6130 C   0  0  1  0  0  3  0  0  0  0  0  0
  187.6390  178.5710  141.7120 O   0  0  0  0  0  1  0  0  0  0  0  0
  182.7010  178.3840  141.1650 N   0  0  0  0  0  0  0  0  0  0  0  0
  183.7830  178.2470  140.2040 C   0  0  0  0  0  2  0  0  0  0  0  0
  184.2470  178.2110  143.0470 C   0  0  0  0  0  2  0  0  0  0  0  0
  185.2960  178.5660  142.0860 N   0  0  0  0  0  0  0  0  0  0  0  0
  185.0790  177.7860  140.8700 C   0  0  0  0  0  2  0  0  0  0  0  0
  182.8820  178.4150  142.4440 C   0  0  0  0  0  3  0  0  0  0  0  0
  1  4  1  6  0  0  0
  1  3  1  0  0  0  0
  2  9  1  0  0  0  0
  5 28  1  6  0  0  0
  5  2  1  0  0  0  0
  7  8  1  0  0  0  0
  7  6  1  0  0  0  0
  8 16  1  6  0  0  0
  8 10  1  0  0  0  0
  9  3  1  0  0  0  0
  9 11  1  1  0  0  0
 10 14  1  1  0  0  0
 10  4  1  0  0  0  0
 12  6  1  1  0  0  0
 12  5  1  0  0  0  0
 12  1  1  0  0  0  0
 14 13  1  0  0  0  0
 15 14  2  0  0  0  0
 16 22  1  6  0  0  0
 17 19  1  0  0  0  0
 18 21  1  0  0  0  0
 19 21  1  0  0  0  0
 20 16  1  1  0  0  0
 20 18  1  0  0  0  0
 20 17  1  0  0  0  0
 22 23  1  6  0  0  0
 24 22  1  0  0  0  0
 25 24  1  0  0  0  0
 25 26  1  0  0  0  0
 26 27  1  0  0  0  0
 29 30  1  6  0  0  0
 29 28  1  0  0  0  0
 31 36  2  0  0  0  0
 32 35  1  0  0  0  0
 32 31  1  0  0  0  0
 34 29  1  0  0  0  0
 34 33  1  0  0  0  0
 35 34  1  0  0  0  0
 36 33  1  0  0  0  0
M  END
>  <MODEL>
3

>  <REMARK>
 VINA RESULT:      -6.2      2.129      2.840
  Name = 
  10 active torsions:
  status: ('A' for Active; 'I' for Inactive)
    1  A    between atoms: C_4  and  C_20
    2  A    between atoms: C_4  and  C_22
    3  A    between atoms: C_4  and  C_28
    4  A    between atoms: C_9  and  N_12
    5  A    between atoms: C_9  and  C_26
    6  A    between atoms: C_13  and  C_16
    7  A    between atoms: C_16  and  C_30
    8  A    between atoms: C_17  and  C_26
    9  A    between atoms: C_20  and  C_30
   10  A    between atoms: C_21  and  C_32
                            x       y       z     vdW  Elec       q    Type
                         _______ _______ _______ _____ _____    ______ ____

>  <TORSDO>
F 10

$$$$
=
 OpenBabel11072408473D

 36 39  0  0  1  0  0  0  0  0999 V2000
  189.3080  175.0740  144.8050 C   0  0  2  0  0  3  0  0  0  0  0  0
  187.6530  177.5260  145.0200 C   0  0  0  0  0  2  0  0  0  0  0  0
  188.7900  175.5950  146.1480 C   0  0  0  0  0  2  0  0  0  0  0  0
  190.6070  174.3060  145.0610 C   0  0  0  0  0  2  0  0  0  0  0  0
  188.1390  177.0070  143.6710 C   0  0  2  0  0  3  0  0  0  0  0  0
  190.6710  177.0850  144.0870 C   0  0  0  0  0  2  0  0  0  0  0  0
  191.8310  176.6120  143.2260 C   0  0  0  0  0  2  0  0  0  0  0  0
  192.4890  175.3180  143.7290 C   0  0  1  0  0  3  0  0  0  0  0  0
  187.4770  176.3580  145.9820 C   0  0  1  0  0  3  0  0  0  0  0  0
  191.4940  174.1350  143.8270 C   0  0  1  0  0  3  0  0  0  0  0  0
  187.0230  176.8780  147.3280 C   0  0  0  0  0  1  0  0  0  0  0  0
  189.4540  176.2180  143.7820 C   0  0  1  0  0  3  0  0  0  0  0  0
  192.1500  171.9920  142.9660 O   0  0  0  0  0  0  0  0  0  0  0  0
  192.1740  172.8030  143.9300 C   0  0  0  0  0  0  0  0  0  0  0  0
  192.8540  172.4690  145.0930 O   0  0  0  0  0  1  0  0  0  0  0  0
  193.7440  174.9810  142.8950 C   0  0  2  0  0  3  0  0  0  0  0  0
  194.8200  175.1230  145.1250 N   0  0  0  0  0  2  0  0  0  0  0  0
  195.9630  173.4080  143.3950 S   0  0  0  0  0  0  0  0  0  0  0  0
  195.9960  174.5940  145.7900 C   0  0  0  0  0  2  0  0  0  0  0  0
  195.0550  174.9570  143.6960 C   0  0  1  0  0  3  0  0  0  0  0  0
  196.3290  173.2630  145.1610 C   0  0  0  0  0  2  0  0  0  0  0  0
  193.8380  175.7070  141.5440 C   0  0  1  0  0  3  0  0  0  0  0  0
  194.9600  176.5350  141.4930 O   0  0  0  0  0  1  0  0  0  0  0  0
  193.8900  174.7140  140.3950 C   0  0  0  0  0  2  0  0  0  0  0  0
  192.5320  174.0610  140.1960 C   0  0  0  0  0  2  0  0  0  0  0  0
  192.2950  173.7690  138.7250 C   0  0  0  0  0  2  0  0  0  0  0  0
  193.1270  174.6340  137.9040 N   0  0  0  0  0  1  0  0  0  0  0  0
  188.1070  178.0530  142.5510 C   0  0  0  0  0  2  0  0  0  0  0  0
  187.3820  177.5980  141.2870 C   0  0  1  0  0  3  0  0  0  0  0  0
  187.8590  176.3430  140.8920 O   0  0  0  0  0  1  0  0  0  0  0  0
  183.2830  178.3620  141.6470 N   0  0  0  0  0  0  0  0  0  0  0  0
  184.1120  178.4830  142.8360 C   0  0  0  0  0  2  0  0  0  0  0  0
  185.2320  177.9390  140.2380 C   0  0  0  0  0  2  0  0  0  0  0  0
  185.9270  177.5880  141.4800 N   0  0  0  0  0  0  0  0  0  0  0  0
  185.5950  178.5950  142.4860 C   0  0  0  0  0  2  0  0  0  0  0  0
  183.7520  178.0770  140.4780 C   0  0  0  0  0  3  0  0  0  0  0  0
  1  4  1  1  0  0  0
  1  3  1  0  0  0  0
  2  9  1  0  0  0  0
  5 28  1  6  0  0  0
  5 12  1  0  0  0  0
  5  2  1  0  0  0  0
  7  8  1  0  0  0  0
  7  6  1  0  0  0  0
  8 16  1  6  0  0  0
  8 10  1  0  0  0  0
  9  3  1  0  0  0  0
  9 11  1  1  0  0  0
 10 14  1  1  0  0  0
 10  4  1  0  0  0  0
 12  6  1  1  0  0  0
 12  1  1  0  0  0  0
 13 14  2  0  0  0  0
 14 15  1  0  0  0  0
 16 22  1  6  0  0  0
 17 19  1  0  0  0  0
 18 20  1  0  0  0  0
 18 21  1  0  0  0  0
 20 16  1  6  0  0  0
 20 17  1  0  0  0  0
 21 19  1  0  0  0  0
 22 23  1  1  0  0  0
 24 22  1  0  0  0  0
 25 24  1  0  0  0  0
 26 25  1  0  0  0  0
 27 26  1  0  0  0  0
 29 30  1  1  0  0  0
 29 34  1  0  0  0  0
 29 28  1  0  0  0  0
 31 32  1  0  0  0  0
 33 36  1  0  0  0  0
 33 34  1  0  0  0  0
 34 35  1  0  0  0  0
 35 32  1  0  0  0  0
 36 31  2  0  0  0  0
M  END
>  <MODEL>
4

>  <REMARK>
 VINA RESULT:      -5.9      2.631      3.372
  Name = 
  10 active torsions:
  status: ('A' for Active; 'I' for Inactive)
    1  A    between atoms: C_4  and  C_20
    2  A    between atoms: C_4  and  C_22
    3  A    between atoms: C_4  and  C_28
    4  A    between atoms: C_9  and  N_12
    5  A    between atoms: C_9  and  C_26
    6  A    between atoms: C_13  and  C_16
    7  A    between atoms: C_16  and  C_30
    8  A    between atoms: C_17  and  C_26
    9  A    between atoms: C_20  and  C_30
   10  A    between atoms: C_21  and  C_32
                            x       y       z     vdW  Elec       q    Type
                         _______ _______ _______ _____ _____    ______ ____

>  <TORSDO>
F 10

$$$$
=
 OpenBabel11072408473D

 36 39  0  0  1  0  0  0  0  0999 V2000
  192.9110  174.4370  141.8310 C   0  0  2  0  0  3  0  0  0  0  0  0
  195.5310  175.8260  141.8050 C   0  0  0  0  0  2  0  0  0  0  0  0
  193.6120  174.8360  140.5300 C   0  0  0  0  0  2  0  0  0  0  0  0
  191.4020  174.4130  141.5730 C   0  0  0  0  0  2  0  0  0  0  0  0
  194.8600  175.4130  143.1110 C   0  0  2  0  0  3  0  0  0  0  0  0
  192.6680  176.7290  142.8830 C   0  0  0  0  0  2  0  0  0  0  0  0
  191.4250  176.7410  143.7570 C   0  0  0  0  0  2  0  0  0  0  0  0
  190.2300  175.9930  143.1440 C   0  0  1  0  0  3  0  0  0  0  0  0
  195.1300  174.8600  140.6980 C   0  0  1  0  0  3  0  0  0  0  0  0
  190.5440  174.5080  142.8350 C   0  0  1  0  0  3  0  0  0  0  0  0
  195.7730  175.2900  139.3980 C   0  0  0  0  0  1  0  0  0  0  0  0
  193.3280  175.3580  142.9950 C   0  0  1  0  0  3  0  0  0  0  0  0
  189.0570  172.6980  143.3610 O   0  0  0  0  0  1  0  0  0  0  0  0
  189.3120  173.6810  142.6150 C   0  0  0  0  0  0  0  0  0  0  0  0
  188.4350  174.0160  141.5930 O   0  0  0  0  0  0  0  0  0  0  0  0
  188.9670  176.1720  144.0150 C   0  0  2  0  0  3  0  0  0  0  0  0
  188.3980  177.7720  142.2080 N   0  0  0  0  0  2  0  0  0  0  0  0
  186.3210  176.4120  143.2470 S   0  0  0  0  0  0  0  0  0  0  0  0
  187.2050  178.2880  141.5610 C   0  0  0  0  0  2  0  0  0  0  0  0
  187.9530  177.1880  143.4670 C   0  0  1  0  0  3  0  0  0  0  0  0
  186.1340  177.2280  141.6430 C   0  0  0  0  0  2  0  0  0  0  0  0
  189.2320  176.2890  145.5240 C   0  0  1  0  0  3  0  0  0  0  0  0
  188.3130  177.1450  146.1330 O   0  0  0  0  0  1  0  0  0  0  0  0
  189.1730  174.9260  146.1940 C   0  0  0  0  0  2  0  0  0  0  0  0
  189.6870  175.0140  147.6210 C   0  0  0  0  0  2  0  0  0  0  0  0
  191.1290  175.4920  147.6360 C   0  0  0  0  0  2  0  0  0  0  0  0
  191.2280  176.7590  148.3420 N   0  0  0  0  0  1  0  0  0  0  0  0
  195.3870  176.1530  144.3460 C   0  0  0  0  0  2  0  0  0  0  0  0
  195.4620  175.2950  145.6080 C   0  0  1  0  0  3  0  0  0  0  0  0
  194.3550  175.5570  146.4250 O   0  0  0  0  0  1  0  0  0  0  0  0
  195.7450  171.1220  145.4790 N   0  0  0  0  0  0  0  0  0  0  0  0
  196.9770  171.8940  145.4910 C   0  0  0  0  0  2  0  0  0  0  0  0
  194.3900  173.1340  145.7550 C   0  0  0  0  0  2  0  0  0  0  0  0
  195.5660  173.8680  145.2780 N   0  0  0  0  0  0  0  0  0  0  0  0
  196.7430  173.3300  145.9580 C   0  0  0  0  0  2  0  0  0  0  0  0
  194.5700  171.6530  145.5520 C   0  0  0  0  0  3  0  0  0  0  0  0
  1  3  1  6  0  0  0
  1 12  1  0  0  0  0
  2  5  1  0  0  0  0
  3  9  1  0  0  0  0
  4  1  1  0  0  0  0
  4 10  1  0  0  0  0
  5 28  1  1  0  0  0
  6  7  1  0  0  0  0
  8  7  1  0  0  0  0
  8 16  1  1  0  0  0
  9 11  1  6  0  0  0
  9  2  1  0  0  0  0
 10 14  1  6  0  0  0
 10  8  1  0  0  0  0
 12  6  1  6  0  0  0
 12  5  1  0  0  0  0
 14 13  1  0  0  0  0
 15 14  2  0  0  0  0
 16 22  1  1  0  0  0
 17 20  1  0  0  0  0
 18 20  1  0  0  0  0
 19 21  1  0  0  0  0
 19 17  1  0  0  0  0
 20 16  1  6  0  0  0
 21 18  1  0  0  0  0
 22 23  1  1  0  0  0
 22 24  1  0  0  0  0
 24 25  1  0  0  0  0
 25 26  1  0  0  0  0
 26 27  1  0  0  0  0
 28 29  1  0  0  0  0
 29 30  1  1  0  0  0
 31 32  1  0  0  0  0
 31 36  2  0  0  0  0
 32 35  1  0  0  0  0
 34 29  1  0  0  0  0
 34 33  1  0  0  0  0
 34 35  1  0  0  0  0
 36 33  1  0  0  0  0
M  END
>  <MODEL>
5

>  <REMARK>
 VINA RESULT:      -5.9      3.090      8.114
  Name = 
  10 active torsions:
  status: ('A' for Active; 'I' for Inactive)
    1  A    between atoms: C_4  and  C_20
    2  A    between atoms: C_4  and  C_22
    3  A    between atoms: C_4  and  C_28
    4  A    between atoms: C_9  and  N_12
    5  A    between atoms: C_9  and  C_26
    6  A    between atoms: C_13  and  C_16
    7  A    between atoms: C_16  and  C_30
    8  A    between atoms: C_17  and  C_26
    9  A    between atoms: C_20  and  C_30
   10  A    between atoms: C_21  and  C_32
                            x       y       z     vdW  Elec       q    Type
                         _______ _______ _______ _____ _____    ______ ____

>  <TORSDO>
F 10

$$$$
=
 OpenBabel11072408473D

 36 39  0  0  1  0  0  0  0  0999 V2000
  187.6570  176.4850  145.6840 C   0  0  2  0  0  3  0  0  0  0  0  0
  186.2360  179.0430  145.2000 C   0  0  0  0  0  2  0  0  0  0  0  0
  187.2390  177.4170  146.8250 C   0  0  0  0  0  2  0  0  0  0  0  0
  188.8910  175.7010  146.1370 C   0  0  0  0  0  2  0  0  0  0  0  0
  186.6220  178.1150  144.0530 C   0  0  2  0  0  3  0  0  0  0  0  0
  189.1650  178.0660  144.4000 C   0  0  0  0  0  2  0  0  0  0  0  0
  190.2440  177.2570  143.7000 C   0  0  0  0  0  2  0  0  0  0  0  0
  190.8040  176.1050  144.5490 C   0  0  1  0  0  3  0  0  0  0  0  0
  185.9930  178.2220  146.4600 C   0  0  1  0  0  3  0  0  0  0  0  0
  189.7120  175.1000  144.9950 C   0  0  1  0  0  3  0  0  0  0  0  0
  185.6390  179.1470  147.6030 C   0  0  0  0  0  1  0  0  0  0  0  0
  187.8650  177.2690  144.3730 C   0  0  1  0  0  3  0  0  0  0  0  0
  191.0990  173.7590  146.4240 O   0  0  0  0  0  1  0  0  0  0  0  0
  190.2750  173.7940  145.4710 C   0  0  0  0  0  0  0  0  0  0  0  0
  189.8680  172.6120  144.8680 O   0  0  0  0  0  0  0  0  0  0  0  0
  191.9910  175.4240  143.8340 C   0  0  2  0  0  3  0  0  0  0  0  0
  193.2890  176.7780  145.4560 N   0  0  0  0  0  2  0  0  0  0  0  0
  194.4830  174.5170  144.6180 S   0  0  0  0  0  0  0  0  0  0  0  0
  194.6080  176.7620  146.0620 C   0  0  0  0  0  2  0  0  0  0  0  0
  193.3740  175.9210  144.2810 C   0  0  1  0  0  3  0  0  0  0  0  0
  195.0780  175.3290  146.1210 C   0  0  0  0  0  2  0  0  0  0  0  0
  191.8310  175.2720  142.3130 C   0  0  1  0  0  3  0  0  0  0  0  0
  192.9870  175.6720  141.6410 O   0  0  0  0  0  1  0  0  0  0  0  0
  191.5020  173.8360  141.9410 C   0  0  0  0  0  2  0  0  0  0  0  0
  190.4000  173.7980  140.8960 C   0  0  0  0  0  2  0  0  0  0  0  0
  189.1500  174.4870  141.4180 C   0  0  0  0  0  2  0  0  0  0  0  0
  188.1390  173.4980  141.7550 N   0  0  0  0  0  1  0  0  0  0  0  0
  186.6410  178.7950  142.6790 C   0  0  0  0  0  2  0  0  0  0  0  0
  185.8950  178.0280  141.5890 C   0  0  1  0  0  3  0  0  0  0  0  0
  185.9570  176.6540  141.8490 O   0  0  0  0  0  1  0  0  0  0  0  0
  181.7520  178.5780  141.3910 N   0  0  0  0  0  0  0  0  0  0  0  0
  182.4610  178.2550  140.1640 C   0  0  0  0  0  2  0  0  0  0  0  0
  183.7830  178.3240  142.7230 C   0  0  0  0  0  2  0  0  0  0  0  0
  184.5090  178.4940  141.4600 N   0  0  0  0  0  0  0  0  0  0  0  0
  183.8480  177.6780  140.4440 C   0  0  0  0  0  2  0  0  0  0  0  0
  182.3250  178.6580  142.5450 C   0  0  0  0  0  3  0  0  0  0  0  0
  1  4  1  1  0  0  0
  1  3  1  0  0  0  0
  2  9  1  0  0  0  0
  5 28  1  6  0  0  0
  5 12  1  0  0  0  0
  5  2  1  0  0  0  0
  7  6  1  0  0  0  0
  7  8  1  0  0  0  0
  8 16  1  6  0  0  0
  8 10  1  0  0  0  0
  9  3  1  0  0  0  0
  9 11  1  1  0  0  0
 10 14  1  1  0  0  0
 10  4  1  0  0  0  0
 12  6  1  1  0  0  0
 12  1  1  0  0  0  0
 14 13  1  0  0  0  0
 15 14  2  0  0  0  0
 16 22  1  6  0  0  0
 17 19  1  0  0  0  0
 18 21  1  0  0  0  0
 19 21  1  0  0  0  0
 20 16  1  1  0  0  0
 20 18  1  0  0  0  0
 20 17  1  0  0  0  0
 22 23  1  6  0  0  0
 24 22  1  0  0  0  0
 25 26  1  0  0  0  0
 25 24  1  0  0  0  0
 26 27  1  0  0  0  0
 29 30  1  1  0  0  0
 29 28  1  0  0  0  0
 31 36  2  0  0  0  0
 32 35  1  0  0  0  0
 32 31  1  0  0  0  0
 34 29  1  0  0  0  0
 34 33  1  0  0  0  0
 35 34  1  0  0  0  0
 36 33  1  0  0  0  0
M  END
>  <MODEL>
6

>  <REMARK>
 VINA RESULT:      -5.9      2.661      3.828
  Name = 
  10 active torsions:
  status: ('A' for Active; 'I' for Inactive)
    1  A    between atoms: C_4  and  C_20
    2  A    between atoms: C_4  and  C_22
    3  A    between atoms: C_4  and  C_28
    4  A    between atoms: C_9  and  N_12
    5  A    between atoms: C_9  and  C_26
    6  A    between atoms: C_13  and  C_16
    7  A    between atoms: C_16  and  C_30
    8  A    between atoms: C_17  and  C_26
    9  A    between atoms: C_20  and  C_30
   10  A    between atoms: C_21  and  C_32
                            x       y       z     vdW  Elec       q    Type
                         _______ _______ _______ _____ _____    ______ ____

>  <TORSDO>
F 10

$$$$
=
 OpenBabel11072408473D

 36 39  0  0  1  0  0  0  0  0999 V2000
  192.3870  174.4570  144.3730 C   0  0  2  0  0  3  0  0  0  0  0  0
  192.9750  171.6200  143.7400 C   0  0  0  0  0  2  0  0  0  0  0  0
  193.0250  173.5080  145.3900 C   0  0  0  0  0  2  0  0  0  0  0  0
  191.6070  175.5260  145.1410 C   0  0  0  0  0  2  0  0  0  0  0  0
  192.3640  172.5580  142.7050 C   0  0  2  0  0  3  0  0  0  0  0  0
  190.2200  173.2120  143.9570 C   0  0  0  0  0  2  0  0  0  0  0  0
  189.1350  174.2160  143.6040 C   0  0  0  0  0  2  0  0  0  0  0  0
  189.1890  175.5050  144.4400 C   0  0  1  0  0  3  0  0  0  0  0  0
  193.8460  172.4190  144.7010 C   0  0  1  0  0  3  0  0  0  0  0  0
  190.5420  176.2480  144.3140 C   0  0  1  0  0  3  0  0  0  0  0  0
  194.4280  171.4910  145.7440 C   0  0  0  0  0  1  0  0  0  0  0  0
  191.5360  173.6840  143.3460 C   0  0  1  0  0  3  0  0  0  0  0  0
  190.2150  177.9340  145.9920 O   0  0  0  0  0  1  0  0  0  0  0  0
  190.4780  177.6690  144.7880 C   0  0  0  0  0  0  0  0  0  0  0  0
  190.7300  178.7020  143.8950 O   0  0  0  0  0  0  0  0  0  0  0  0
  187.9760  176.4090  144.1310 C   0  0  2  0  0  3  0  0  0  0  0  0
  187.5350  176.0810  146.5480 N   0  0  0  0  0  2  0  0  0  0  0  0
  186.4370  178.2840  145.4600 S   0  0  0  0  0  0  0  0  0  0  0  0
  186.7510  176.7080  147.5960 C   0  0  0  0  0  2  0  0  0  0  0  0
  186.9760  176.5530  145.2880 C   0  0  1  0  0  3  0  0  0  0  0  0
  186.6050  178.1720  147.2580 C   0  0  0  0  0  2  0  0  0  0  0  0
  187.3280  176.1760  142.7560 C   0  0  1  0  0  3  0  0  0  0  0  0
  185.9440  176.0350  142.8680 O   0  0  0  0  0  1  0  0  0  0  0  0
  187.6440  177.3190  141.8050 C   0  0  0  0  0  2  0  0  0  0  0  0
  186.4630  178.2700  141.7080 C   0  0  0  0  0  2  0  0  0  0  0  0
  185.6990  178.0350  140.4160 C   0  0  0  0  0  2  0  0  0  0  0  0
  184.3590  178.5910  140.5200 N   0  0  0  0  0  1  0  0  0  0  0  0
  191.6780  171.8380  141.5370 C   0  0  0  0  0  2  0  0  0  0  0  0
  191.8820  172.5090  140.1800 C   0  0  1  0  0  3  0  0  0  0  0  0
  192.3860  171.5790  139.2630 O   0  0  0  0  0  1  0  0  0  0  0  0
  188.2010  173.5350  138.4750 N   0  0  0  0  0  0  0  0  0  0  0  0
  189.4080  173.7750  137.7000 C   0  0  0  0  0  2  0  0  0  0  0  0
  189.4680  172.4450  140.2550 C   0  0  0  0  0  2  0  0  0  0  0  0
  190.6400  173.1260  139.6980 N   0  0  0  0  0  0  0  0  0  0  0  0
  190.5980  172.9870  138.2440 C   0  0  0  0  0  2  0  0  0  0  0  0
  188.2010  172.9800  139.6410 C   0  0  0  0  0  3  0  0  0  0  0  0
  1  4  1  1  0  0  0
  1  3  1  0  0  0  0
  2  9  1  0  0  0  0
  5 28  1  6  0  0  0
  5 12  1  0  0  0  0
  5  2  1  0  0  0  0
  7  6  1  0  0  0  0
  7  8  1  0  0  0  0
  8 16  1  6  0  0  0
  9  3  1  0  0  0  0
  9 11  1  1  0  0  0
 10  8  1  0  0  0  0
 10 14  1  1  0  0  0
 10  4  1  0  0  0  0
 12  6  1  1  0  0  0
 12  1  1  0  0  0  0
 14 13  1  0  0  0  0
 15 14  2  0  0  0  0
 16 22  1  6  0  0  0
 17 19  1  0  0  0  0
 18 21  1  0  0  0  0
 20 16  1  6  0  0  0
 20 18  1  0  0  0  0
 20 17  1  0  0  0  0
 21 19  1  0  0  0  0
 22 23  1  1  0  0  0
 24 22  1  0  0  0  0
 25 24  1  0  0  0  0
 26 27  1  0  0  0  0
 26 25  1  0  0  0  0
 29 30  1  6  0  0  0
 29 28  1  0  0  0  0
 31 36  2  0  0  0  0
 32 35  1  0  0  0  0
 32 31  1  0  0  0  0
 34 29  1  0  0  0  0
 34 33  1  0  0  0  0
 35 34  1  0  0  0  0
 36 33  1  0  0  0  0
M  END
>  <MODEL>
7

>  <REMARK>
 VINA RESULT:      -5.8      3.661      7.520
  Name = 
  10 active torsions:
  status: ('A' for Active; 'I' for Inactive)
    1  A    between atoms: C_4  and  C_20
    2  A    between atoms: C_4  and  C_22
    3  A    between atoms: C_4  and  C_28
    4  A    between atoms: C_9  and  N_12
    5  A    between atoms: C_9  and  C_26
    6  A    between atoms: C_13  and  C_16
    7  A    between atoms: C_16  and  C_30
    8  A    between atoms: C_17  and  C_26
    9  A    between atoms: C_20  and  C_30
   10  A    between atoms: C_21  and  C_32
                            x       y       z     vdW  Elec       q    Type
                         _______ _______ _______ _____ _____    ______ ____

>  <TORSDO>
F 10

$$$$
=
 OpenBabel11072408473D

 36 39  0  0  1  0  0  0  0  0999 V2000
  190.9920  174.6300  145.7270 C   0  0  2  0  0  3  0  0  0  0  0  0
  189.7970  177.2620  146.3940 C   0  0  0  0  0  2  0  0  0  0  0  0
  191.6030  175.5640  146.7760 C   0  0  0  0  0  2  0  0  0  0  0  0
  192.1170  173.7800  145.1320 C   0  0  0  0  0  2  0  0  0  0  0  0
  189.1600  176.3340  145.3650 C   0  0  2  0  0  3  0  0  0  0  0  0
  191.1120  176.1550  143.7070 C   0  0  0  0  0  2  0  0  0  0  0  0
  191.2750  175.3060  142.4580 C   0  0  0  0  0  2  0  0  0  0  0  0
  192.2280  174.1140  142.6390 C   0  0  1  0  0  3  0  0  0  0  0  0
  190.5360  176.4340  147.4380 C   0  0  1  0  0  3  0  0  0  0  0  0
  191.7880  173.1570  143.7750 C   0  0  1  0  0  3  0  0  0  0  0  0
  191.1920  177.3580  148.4410 C   0  0  0  0  0  1  0  0  0  0  0  0
  190.1890  175.4230  144.6770 C   0  0  1  0  0  3  0  0  0  0  0  0
  191.8130  170.7910  143.3720 O   0  0  0  0  0  0  0  0  0  0  0  0
  192.4600  171.8180  143.7080 C   0  0  0  0  0  0  0  0  0  0  0  0
  193.8130  171.7160  144.0010 O   0  0  0  0  0  1  0  0  0  0  0  0
  192.4580  173.3870  141.2960 C   0  0  2  0  0  3  0  0  0  0  0  0
  194.6740  174.4790  141.5060 N   0  0  0  0  0  2  0  0  0  0  0  0
  194.7030  171.9920  140.4800 S   0  0  0  0  0  0  0  0  0  0  0  0
  196.0520  174.2000  141.1460 C   0  0  0  0  0  2  0  0  0  0  0  0
  193.8560  173.5900  140.6920 C   0  0  1  0  0  3  0  0  0  0  0  0
  196.2360  172.7030  141.1260 C   0  0  0  0  0  2  0  0  0  0  0  0
  191.3060  173.5110  140.2870 C   0  0  1  0  0  3  0  0  0  0  0  0
  191.7860  173.5990  138.9800 O   0  0  0  0  0  1  0  0  0  0  0  0
  190.3560  172.3300  140.3980 C   0  0  0  0  0  2  0  0  0  0  0  0
  188.9210  172.8130  140.5260 C   0  0  0  0  0  2  0  0  0  0  0  0
  188.1930  172.6650  139.2010 C   0  0  0  0  0  2  0  0  0  0  0  0
  188.2030  173.9280  138.4810 N   0  0  0  0  0  1  0  0  0  0  0  0
  188.1800  177.0330  144.4160 C   0  0  0  0  0  2  0  0  0  0  0  0
  186.7770  176.4290  144.4050 C   0  0  1  0  0  3  0  0  0  0  0  0
  186.0950  176.7960  145.5700 O   0  0  0  0  0  1  0  0  0  0  0  0
  184.9370  178.2920  141.1410 N   0  0  0  0  0  0  0  0  0  0  0  0
  184.1760  178.1540  142.3720 C   0  0  0  0  0  2  0  0  0  0  0  0
  186.9430  177.3740  142.1870 C   0  0  0  0  0  2  0  0  0  0  0  0
  186.0380  176.8190  143.1980 N   0  0  0  0  0  0  0  0  0  0  0  0
  185.0790  177.8580  143.5680 C   0  0  0  0  0  2  0  0  0  0  0  0
  186.1650  177.9120  141.0160 C   0  0  0  0  0  3  0  0  0  0  0  0
  1  4  1  6  0  0  0
  1  3  1  0  0  0  0
  2  9  1  0  0  0  0
  3  9  1  0  0  0  0
  5 28  1  6  0  0  0
  5  2  1  0  0  0  0
  7  8  1  0  0  0  0
  7  6  1  0  0  0  0
  8 16  1  6  0  0  0
  8 10  1  0  0  0  0
  9 11  1  1  0  0  0
 10 14  1  6  0  0  0
 10  4  1  0  0  0  0
 12  6  1  1  0  0  0
 12  5  1  0  0  0  0
 12  1  1  0  0  0  0
 13 14  2  0  0  0  0
 14 15  1  0  0  0  0
 16 22  1  6  0  0  0
 18 20  1  0  0  0  0
 18 21  1  0  0  0  0
 19 17  1  0  0  0  0
 20 16  1  1  0  0  0
 20 17  1  0  0  0  0
 21 19  1  0  0  0  0
 22 23  1  6  0  0  0
 22 24  1  0  0  0  0
 24 25  1  0  0  0  0
 26 25  1  0  0  0  0
 27 26  1  0  0  0  0
 29 28  1  0  0  0  0
 29 30  1  1  0  0  0
 31 32  1  0  0  0  0
 32 35  1  0  0  0  0
 33 34  1  0  0  0  0
 34 35  1  0  0  0  0
 34 29  1  0  0  0  0
 36 31  2  0  0  0  0
 36 33  1  0  0  0  0
M  END
>  <MODEL>
8

>  <REMARK>
 VINA RESULT:      -5.7      1.962      2.282
  Name = 
  10 active torsions:
  status: ('A' for Active; 'I' for Inactive)
    1  A    between atoms: C_4  and  C_20
    2  A    between atoms: C_4  and  C_22
    3  A    between atoms: C_4  and  C_28
    4  A    between atoms: C_9  and  N_12
    5  A    between atoms: C_9  and  C_26
    6  A    between atoms: C_13  and  C_16
    7  A    between atoms: C_16  and  C_30
    8  A    between atoms: C_17  and  C_26
    9  A    between atoms: C_20  and  C_30
   10  A    between atoms: C_21  and  C_32
                            x       y       z     vdW  Elec       q    Type
                         _______ _______ _______ _____ _____    ______ ____

>  <TORSDO>
F 10

$$$$
=
 OpenBabel11072408473D

 36 39  0  0  1  0  0  0  0  0999 V2000
  192.6090  174.0600  141.2530 C   0  0  2  0  0  3  0  0  0  0  0  0
  195.3950  175.0650  141.0990 C   0  0  0  0  0  2  0  0  0  0  0  0
  193.2830  174.4000  139.9210 C   0  0  0  0  0  2  0  0  0  0  0  0
  191.1000  174.2590  141.0890 C   0  0  0  0  0  2  0  0  0  0  0  0
  194.7490  174.7060  142.4330 C   0  0  2  0  0  3  0  0  0  0  0  0
  192.7590  176.3270  142.3760 C   0  0  0  0  0  2  0  0  0  0  0  0
  191.5830  176.4850  143.3260 C   0  0  0  0  0  2  0  0  0  0  0  0
  190.2600  175.9350  142.7710 C   0  0  1  0  0  3  0  0  0  0  0  0
  194.7950  174.2030  139.9950 C   0  0  1  0  0  3  0  0  0  0  0  0
  190.3390  174.4320  142.4050 C   0  0  1  0  0  3  0  0  0  0  0  0
  195.4170  174.5810  138.6680 C   0  0  0  0  0  1  0  0  0  0  0  0
  193.2210  174.8740  142.4110 C   0  0  1  0  0  3  0  0  0  0  0  0
  188.2310  174.1320  141.2940 O   0  0  0  0  0  0  0  0  0  0  0  0
  188.9900  173.7960  142.2420 C   0  0  0  0  0  0  0  0  0  0  0  0
  188.5850  172.8120  143.1340 O   0  0  0  0  0  1  0  0  0  0  0  0
  189.0890  176.2610  143.7230 C   0  0  2  0  0  3  0  0  0  0  0  0
  188.3960  177.6590  141.7960 N   0  0  0  0  0  2  0  0  0  0  0  0
  186.3880  176.5390  143.1940 S   0  0  0  0  0  0  0  0  0  0  0  0
  187.1630  178.1520  141.2090 C   0  0  0  0  0  2  0  0  0  0  0  0
  188.0620  177.2530  143.1550 C   0  0  1  0  0  3  0  0  0  0  0  0
  186.0670  177.1650  141.5270 C   0  0  0  0  0  2  0  0  0  0  0  0
  189.4950  176.5310  145.1800 C   0  0  1  0  0  3  0  0  0  0  0  0
  189.7180  177.8910  145.3990 O   0  0  0  0  0  1  0  0  0  0  0  0
  188.4300  176.0330  146.1430 C   0  0  0  0  0  2  0  0  0  0  0  0
  187.7210  177.2040  146.8030 C   0  0  0  0  0  2  0  0  0  0  0  0
  186.3340  176.7920  147.2640 C   0  0  0  0  0  2  0  0  0  0  0  0
  185.3300  177.6490  146.6540 N   0  0  0  0  0  1  0  0  0  0  0  0
  195.4480  175.3220  143.6510 C   0  0  0  0  0  2  0  0  0  0  0  0
  195.4140  174.4470  144.9030 C   0  0  1  0  0  3  0  0  0  0  0  0
  196.7190  174.2050  145.3470 O   0  0  0  0  0  1  0  0  0  0  0  0
  192.6120  176.4550  147.2760 N   0  0  0  0  0  0  0  0  0  0  0  0
  193.8180  177.1670  146.8850 C   0  0  0  0  0  2  0  0  0  0  0  0
  193.2210  174.5210  145.9140 C   0  0  0  0  0  2  0  0  0  0  0  0
  194.5870  175.0520  145.9540 N   0  0  0  0  0  0  0  0  0  0  0  0
  194.5220  176.4910  145.7100 C   0  0  0  0  0  2  0  0  0  0  0  0
  192.3380  175.2520  146.8910 C   0  0  0  0  0  3  0  0  0  0  0  0
  1  3  1  6  0  0  0
  1 12  1  0  0  0  0
  2  5  1  0  0  0  0
  3  9  1  0  0  0  0
  4  1  1  0  0  0  0
  4 10  1  0  0  0  0
  5 28  1  1  0  0  0
  6  7  1  0  0  0  0
  8  7  1  0  0  0  0
  8 16  1  1  0  0  0
  9 11  1  6  0  0  0
  9  2  1  0  0  0  0
 10 14  1  6  0  0  0
 10  8  1  0  0  0  0
 12  6  1  6  0  0  0
 12  5  1  0  0  0  0
 13 14  2  0  0  0  0
 14 15  1  0  0  0  0
 16 22  1  1  0  0  0
 17 20  1  0  0  0  0
 19 21  1  0  0  0  0
 19 17  1  0  0  0  0
 20 18  1  0  0  0  0
 20 16  1  6  0  0  0
 21 18  1  0  0  0  0
 22 23  1  6  0  0  0
 22 24  1  0  0  0  0
 24 25  1  0  0  0  0
 25 26  1  0  0  0  0
 27 26  1  0  0  0  0
 28 29  1  0  0  0  0
 29 30  1  1  0  0  0
 29 34  1  0  0  0  0
 32 31  1  0  0  0  0
 33 34  1  0  0  0  0
 33 36  1  0  0  0  0
 35 34  1  0  0  0  0
 35 32  1  0  0  0  0
 36 31  2  0  0  0  0
M  END
>  <MODEL>
9

>  <REMARK>
 VINA RESULT:      -5.6      2.925      7.649
  Name = 
  10 active torsions:
  status: ('A' for Active; 'I' for Inactive)
    1  A    between atoms: C_4  and  C_20
    2  A    between atoms: C_4  and  C_22
    3  A    between atoms: C_4  and  C_28
    4  A    between atoms: C_9  and  N_12
    5  A    between atoms: C_9  and  C_26
    6  A    between atoms: C_13  and  C_16
    7  A    between atoms: C_16  and  C_30
    8  A    between atoms: C_17  and  C_26
    9  A    between atoms: C_20  and  C_30
   10  A    between atoms: C_21  and  C_32
                            x       y       z     vdW  Elec       q    Type
                         _______ _______ _______ _____ _____    ______ ____

>  <TORSDO>
F 10

$$$$
