=
 OpenBabel11062420353D

 32 35  0  0  1  0  0  0  0  0999 V2000
  184.8030  178.5730  141.2340 C   0  0  2  0  0  3  0  0  0  0  0  0
  191.3160  176.6290  144.6180 N   0  0  0  0  0  2  0  0  0  0  0  0
  187.6770  176.2930  140.9770 C   0  0  0  0  0  2  0  0  0  0  0  0
  185.6310  178.2660  144.9610 C   0  0  1  0  0  3  0  0  0  0  0  0
  189.0140  177.6710  144.2120 C   0  0  1  0  0  3  0  0  0  0  0  0
  189.6540  175.3290  141.9040 O   0  0  0  0  0  1  0  0  0  0  0  0
  189.9250  176.7410  144.9210 C   0  0  0  0  0  0  0  0  0  0  0  0
  185.2500  178.9350  143.6440 C   0  0  0  0  0  2  0  0  0  0  0  0
  189.3680  176.0780  145.8740 N   0  0  0  0  0  0  0  0  0  0  0  0
  186.9920  178.4850  145.2210 O   0  0  0  0  0  0  0  0  0  0  0  0
  187.9620  176.4190  145.9970 C   0  0  0  0  0  2  0  0  0  0  0  0
  189.0600  177.5060  142.6890 C   0  0  0  0  0  2  0  0  0  0  0  0
  192.1880  175.7060  145.3230 C   0  0  0  0  0  1  0  0  0  0  0  0
  185.9680  177.9920  140.5710 N   0  0  0  0  0  0  0  0  0  0  0  0
  188.5640  176.1430  142.2080 C   0  0  1  0  0  3  0  0  0  0  0  0
  187.6500  177.3230  144.8040 C   0  0  2  0  0  3  0  0  0  0  0  0
  185.7450  176.8840  142.4920 O   0  0  0  0  0  0  0  0  0  0  0  0
  186.4430  177.0610  141.3190 C   0  0  0  0  0  0  0  0  0  0  0  0
  184.7770  177.9100  142.6160 C   0  0  2  0  0  3  0  0  0  0  0  0
  183.9900  177.8300  146.6430 O   0  0  0  0  0  1  0  0  0  0  0  0
  185.6040  179.3720  147.0850 O   0  0  0  0  0  1  0  0  0  0  0  0
  184.7830  178.8360  146.0910 C   0  0  0  0  0  3  0  0  0  0  0  0
  183.5970  178.2140  140.5040 N   0  0  0  0  0  2  0  0  0  0  0  0
  182.5870  178.0150  141.4550 N   0  0  0  0  0  2  0  0  0  0  0  0
  180.4810  178.0360  140.2460 C   0  0  0  0  0  2  0  0  0  0  0  0
  181.4650  178.8550  141.0660 C   0  0  1  0  0  3  0  0  0  0  0  0
  179.3060  177.7620  141.1570 C   0  0  1  0  0  3  0  0  0  0  0  0
  179.2760  178.9180  142.1410 C   0  0  0  0  0  0  0  0  0  0  0  0
  178.0200  177.6250  140.3600 C   0  0  0  0  0  1  0  0  0  0  0  0
  180.7240  179.3250  142.3120 C   0  0  0  0  0  2  0  0  0  0  0  0
  178.7470  178.5090  143.3500 F   0  0  0  0  0  0  0  0  0  0  0  0
  178.5570  179.9940  141.6470 F   0  0  0  0  0  0  0  0  0  0  0  0
  1 23  1  6  0  0  0
  1 19  1  0  0  0  0
  2  7  1  0  0  0  0
  2 13  1  0  0  0  0
  3 18  1  0  0  0  0
  3 15  1  0  0  0  0
  4 10  1  0  0  0  0
  4 22  1  1  0  0  0
  5 12  1  6  0  0  0
  5 16  1  0  0  0  0
  5  7  1  0  0  0  0
  7  9  2  0  0  0  0
  8  4  1  0  0  0  0
  9 11  1  0  0  0  0
 14  1  1  0  0  0  0
 14 18  2  0  0  0  0
 15  6  1  6  0  0  0
 15 12  1  0  0  0  0
 16 10  1  0  0  0  0
 16 11  1  1  0  0  0
 17 19  1  0  0  0  0
 18 17  1  0  0  0  0
 19  8  1  1  0  0  0
 22 20  1  0  0  0  0
 22 21  1  0  0  0  0
 23 24  1  0  0  0  0
 25 26  1  0  0  0  0
 25 27  1  0  0  0  0
 26 24  1  1  0  0  0
 26 30  1  0  0  0  0
 27 29  1  6  0  0  0
 27 28  1  0  0  0  0
 28 30  1  0  0  0  0
 28 31  1  0  0  0  0
 32 28  1  0  0  0  0
M  END
>  <MODEL>
1

>  <REMARK>
 VINA RESULT:      -8.9      0.000      0.000
  Name = 
  4 active torsions:
  status: ('A' for Active; 'I' for Inactive)
    1  A    between atoms: C_2  and  N_13
    2  A    between atoms: C_3  and  N_12
    3  A    between atoms: C_8  and  C_27
    4  A    between atoms: N_12  and  N_13
                            x       y       z     vdW  Elec       q    Type
                         _______ _______ _______ _____ _____    ______ ____

>  <TORSDO>
F 4

$$$$
=
 OpenBabel11062420353D

 32 35  0  0  1  0  0  0  0  0999 V2000
  189.5690  174.7100  146.7900 C   0  0  2  0  0  3  0  0  0  0  0  0
  196.5370  175.2720  143.8260 N   0  0  0  0  0  2  0  0  0  0  0  0
  192.6810  176.6610  146.9590 C   0  0  0  0  0  2  0  0  0  0  0  0
  190.7360  174.2500  143.1700 C   0  0  1  0  0  3  0  0  0  0  0  0
  194.0950  174.5850  144.1580 C   0  0  1  0  0  3  0  0  0  0  0  0
  194.8370  177.2150  146.0960 O   0  0  0  0  0  1  0  0  0  0  0  0
  195.1730  175.2650  143.4030 C   0  0  0  0  0  0  0  0  0  0  0  0
  190.1640  173.8750  144.5340 C   0  0  0  0  0  2  0  0  0  0  0  0
  194.7880  175.8040  142.2990 N   0  0  0  0  0  0  0  0  0  0  0  0
  192.0750  173.8360  143.0940 O   0  0  0  0  0  0  0  0  0  0  0  0
  193.3650  175.6070  142.0890 C   0  0  0  0  0  2  0  0  0  0  0  0
  194.0340  175.0130  145.6290 C   0  0  0  0  0  2  0  0  0  0  0  0
  197.5770  175.9500  143.0710 C   0  0  0  0  0  1  0  0  0  0  0  0
  190.7400  175.2650  147.4630 N   0  0  0  0  0  0  0  0  0  0  0  0
  193.6800  176.4880  145.8200 C   0  0  1  0  0  3  0  0  0  0  0  0
  192.8400  174.9730  143.3770 C   0  0  2  0  0  3  0  0  0  0  0  0
  190.8220  176.0290  145.3720 O   0  0  0  0  0  0  0  0  0  0  0  0
  191.3920  175.9880  146.6250 C   0  0  0  0  0  0  0  0  0  0  0  0
  189.7440  175.1130  145.3210 C   0  0  2  0  0  3  0  0  0  0  0  0
  188.9310  172.7800  142.6340 O   0  0  0  0  0  1  0  0  0  0  0  0
  189.3160  174.5570  141.2670 O   0  0  0  0  0  1  0  0  0  0  0  0
  189.9190  173.5860  142.0700 C   0  0  0  0  0  3  0  0  0  0  0  0
  188.3630  175.3270  147.3190 N   0  0  0  0  0  2  0  0  0  0  0  0
  187.6840  175.8960  146.2330 N   0  0  0  0  0  2  0  0  0  0  0  0
  187.2430  178.0660  145.2340 C   0  0  0  0  0  2  0  0  0  0  0  0
  187.5290  177.3120  146.5240 C   0  0  1  0  0  3  0  0  0  0  0  0
  185.7730  178.4140  145.2730 C   0  0  1  0  0  3  0  0  0  0  0  0
  185.4160  178.5120  146.7450 C   0  0  0  0  0  0  0  0  0  0  0  0
  185.4980  179.6980  144.5080 C   0  0  0  0  0  1  0  0  0  0  0  0
  186.3260  177.5180  147.4360 C   0  0  0  0  0  2  0  0  0  0  0  0
  184.0920  178.1710  146.9460 F   0  0  0  0  0  0  0  0  0  0  0  0
  185.6630  179.7790  147.2500 F   0  0  0  0  0  0  0  0  0  0  0  0
  1 23  1  1  0  0  0
  1 14  1  0  0  0  0
  4 22  1  6  0  0  0
  4  8  1  0  0  0  0
  5 12  1  1  0  0  0
  7  2  1  0  0  0  0
  7  5  1  0  0  0  0
  9  7  2  0  0  0  0
 10  4  1  0  0  0  0
 10 16  1  0  0  0  0
 11  9  1  0  0  0  0
 12 15  1  0  0  0  0
 13  2  1  0  0  0  0
 15  6  1  1  0  0  0
 15  3  1  0  0  0  0
 16 11  1  6  0  0  0
 16  5  1  0  0  0  0
 17 18  1  0  0  0  0
 18  3  1  0  0  0  0
 18 14  2  0  0  0  0
 19  8  1  6  0  0  0
 19 17  1  0  0  0  0
 19  1  1  0  0  0  0
 21 22  1  0  0  0  0
 22 20  1  0  0  0  0
 24 23  1  0  0  0  0
 25 27  1  0  0  0  0
 25 26  1  0  0  0  0
 26 24  1  6  0  0  0
 26 30  1  0  0  0  0
 27 29  1  6  0  0  0
 27 28  1  0  0  0  0
 28 31  1  0  0  0  0
 28 32  1  0  0  0  0
 28 30  1  0  0  0  0
M  END
>  <MODEL>
2

>  <REMARK>
 VINA RESULT:      -8.4      4.874      7.334
  Name = 
  4 active torsions:
  status: ('A' for Active; 'I' for Inactive)
    1  A    between atoms: C_2  and  N_13
    2  A    between atoms: C_3  and  N_12
    3  A    between atoms: C_8  and  C_27
    4  A    between atoms: N_12  and  N_13
                            x       y       z     vdW  Elec       q    Type
                         _______ _______ _______ _____ _____    ______ ____

>  <TORSDO>
F 4

$$$$
=
 OpenBabel11062420353D

 32 35  0  0  1  0  0  0  0  0999 V2000
  190.1840  176.1800  145.7860 C   0  0  2  0  0  3  0  0  0  0  0  0
  184.2610  177.5590  141.2400 N   0  0  0  0  0  2  0  0  0  0  0  0
  189.2810  177.2130  142.3750 C   0  0  0  0  0  2  0  0  0  0  0  0
  186.8430  177.8850  146.5650 C   0  0  1  0  0  3  0  0  0  0  0  0
  185.6480  177.1240  143.3460 C   0  0  1  0  0  3  0  0  0  0  0  0
  187.6500  177.9050  140.7750 O   0  0  0  0  0  1  0  0  0  0  0  0
  184.7870  177.9830  142.4980 C   0  0  0  0  0  0  0  0  0  0  0  0
  187.9440  176.8300  146.6220 C   0  0  0  0  0  2  0  0  0  0  0  0
  184.5050  179.1270  143.0170 N   0  0  0  0  0  0  0  0  0  0  0  0
  185.8130  177.4410  145.7220 O   0  0  0  0  0  0  0  0  0  0  0  0
  185.1280  179.2790  144.3200 C   0  0  0  0  0  2  0  0  0  0  0  0
  186.8620  176.5680  142.5940 C   0  0  0  0  0  2  0  0  0  0  0  0
  183.4230  178.4210  140.4240 C   0  0  0  0  0  1  0  0  0  0  0  0
  190.1790  176.0560  144.3310 N   0  0  0  0  0  0  0  0  0  0  0  0
  187.8400  177.6490  142.1320 C   0  0  1  0  0  3  0  0  0  0  0  0
  186.0380  178.0610  144.4880 C   0  0  2  0  0  3  0  0  0  0  0  0
  189.0470  177.9200  144.7870 O   0  0  0  0  0  0  0  0  0  0  0  0
  189.5350  177.0520  143.8370 C   0  0  0  0  0  0  0  0  0  0  0  0
  189.2610  177.3700  146.0740 C   0  0  2  0  0  3  0  0  0  0  0  0
  187.0410  179.1490  148.5830 O   0  0  0  0  0  1  0  0  0  0  0  0
  184.9610  178.5280  147.8990 O   0  0  0  0  0  1  0  0  0  0  0  0
  186.3010  178.1400  147.9650 C   0  0  0  0  0  3  0  0  0  0  0  0
  191.5280  176.4890  146.2460 N   0  0  0  0  0  2  0  0  0  0  0  0
  192.1170  175.2790  146.6370 N   0  0  0  0  0  2  0  0  0  0  0  0
  194.0260  174.1070  145.6990 C   0  0  0  0  0  2  0  0  0  0  0  0
  193.5400  175.3880  146.3580 C   0  0  1  0  0  3  0  0  0  0  0  0
  194.2290  174.4410  144.2390 C   0  0  1  0  0  3  0  0  0  0  0  0
  194.5440  175.9260  144.2000 C   0  0  0  0  0  0  0  0  0  0  0  0
  195.3260  173.5840  143.6320 C   0  0  0  0  0  1  0  0  0  0  0  0
  193.7790  176.5190  145.3650 C   0  0  0  0  0  2  0  0  0  0  0  0
  194.1130  176.4810  143.0110 F   0  0  0  0  0  0  0  0  0  0  0  0
  195.8970  176.1670  144.3750 F   0  0  0  0  0  0  0  0  0  0  0  0
  1 19  1  0  0  0  0
  1 23  1  6  0  0  0
  2  7  1  0  0  0  0
  3 18  1  0  0  0  0
  4  8  1  0  0  0  0
  4 22  1  1  0  0  0
  5 12  1  6  0  0  0
  5 16  1  0  0  0  0
  7  9  2  0  0  0  0
  7  5  1  0  0  0  0
  9 11  1  0  0  0  0
 10  4  1  0  0  0  0
 13  2  1  0  0  0  0
 14  1  1  0  0  0  0
 15  6  1  6  0  0  0
 15  3  1  0  0  0  0
 15 12  1  0  0  0  0
 16 11  1  1  0  0  0
 16 10  1  0  0  0  0
 17 19  1  0  0  0  0
 18 14  2  0  0  0  0
 18 17  1  0  0  0  0
 19  8  1  6  0  0  0
 21 22  1  0  0  0  0
 22 20  1  0  0  0  0
 23 24  1  0  0  0  0
 25 26  1  0  0  0  0
 26 24  1  6  0  0  0
 27 29  1  1  0  0  0
 27 25  1  0  0  0  0
 28 27  1  0  0  0  0
 28 32  1  0  0  0  0
 28 30  1  0  0  0  0
 30 26  1  0  0  0  0
 31 28  1  0  0  0  0
M  END
>  <MODEL>
3

>  <REMARK>
 VINA RESULT:      -8.2      4.513      9.216
  Name = 
  4 active torsions:
  status: ('A' for Active; 'I' for Inactive)
    1  A    between atoms: C_2  and  N_13
    2  A    between atoms: C_3  and  N_12
    3  A    between atoms: C_8  and  C_27
    4  A    between atoms: N_12  and  N_13
                            x       y       z     vdW  Elec       q    Type
                         _______ _______ _______ _____ _____    ______ ____

>  <TORSDO>
F 4

$$$$
=
 OpenBabel11062420353D

 32 35  0  0  1  0  0  0  0  0999 V2000
  189.0220  175.8910  146.4380 C   0  0  2  0  0  3  0  0  0  0  0  0
  195.7490  173.1000  144.2920 N   0  0  0  0  0  2  0  0  0  0  0  0
  192.6400  176.1790  147.0240 C   0  0  0  0  0  2  0  0  0  0  0  0
  190.2530  174.8710  142.9570 C   0  0  1  0  0  3  0  0  0  0  0  0
  193.2460  173.6300  144.3240 C   0  0  1  0  0  3  0  0  0  0  0  0
  194.8910  175.6540  146.4270 O   0  0  0  0  0  1  0  0  0  0  0  0
  194.5960  173.7180  143.7190 C   0  0  0  0  0  0  0  0  0  0  0  0
  189.4190  174.8310  144.2340 C   0  0  0  0  0  2  0  0  0  0  0  0
  194.6340  174.3520  142.6000 N   0  0  0  0  0  0  0  0  0  0  0  0
  191.2470  173.8820  143.0150 O   0  0  0  0  0  0  0  0  0  0  0  0
  193.3170  174.8340  142.2250 C   0  0  0  0  0  2  0  0  0  0  0  0
  193.2210  174.0660  145.7940 C   0  0  0  0  0  2  0  0  0  0  0  0
  197.0640  173.2030  143.6830 C   0  0  0  0  0  1  0  0  0  0  0  0
  190.2290  175.8520  147.2580 N   0  0  0  0  0  0  0  0  0  0  0  0
  193.5700  175.5400  145.9980 C   0  0  1  0  0  3  0  0  0  0  0  0
  192.4130  174.5400  143.4230 C   0  0  2  0  0  3  0  0  0  0  0  0
  190.8980  176.4500  145.2180 O   0  0  0  0  0  0  0  0  0  0  0  0
  191.2340  176.1740  146.5230 C   0  0  0  0  0  0  0  0  0  0  0  0
  189.5320  176.1380  145.0130 C   0  0  2  0  0  3  0  0  0  0  0  0
  189.8240  173.5550  141.0090 O   0  0  0  0  0  1  0  0  0  0  0  0
  188.0470  174.3810  142.1650 O   0  0  0  0  0  1  0  0  0  0  0  0
  189.3550  174.6400  141.7490 C   0  0  0  0  0  3  0  0  0  0  0  0
  188.1860  177.0070  146.8510 N   0  0  0  0  0  2  0  0  0  0  0  0
  186.9370  176.8320  146.2400 N   0  0  0  0  0  2  0  0  0  0  0  0
  186.1870  177.5460  144.0430 C   0  0  0  0  0  2  0  0  0  0  0  0
  186.7090  177.9960  145.3980 C   0  0  1  0  0  3  0  0  0  0  0  0
  184.7130  177.8790  144.0330 C   0  0  1  0  0  3  0  0  0  0  0  0
  184.5570  179.0620  144.9720 C   0  0  0  0  0  0  0  0  0  0  0  0
  184.2300  178.1720  142.6220 C   0  0  0  0  0  1  0  0  0  0  0  0
  185.6310  178.8730  146.0220 C   0  0  0  0  0  2  0  0  0  0  0  0
  183.3050  179.0520  145.5590 F   0  0  0  0  0  0  0  0  0  0  0  0
  184.7660  180.2660  144.3190 F   0  0  0  0  0  0  0  0  0  0  0  0
  1 23  1  1  0  0  0
  1 14  1  0  0  0  0
  4 22  1  6  0  0  0
  4 10  1  0  0  0  0
  4  8  1  0  0  0  0
  5 12  1  1  0  0  0
  7  2  1  0  0  0  0
  7  5  1  0  0  0  0
  9  7  2  0  0  0  0
 10 16  1  0  0  0  0
 11  9  1  0  0  0  0
 12 15  1  0  0  0  0
 13  2  1  0  0  0  0
 15  6  1  1  0  0  0
 15  3  1  0  0  0  0
 16 11  1  6  0  0  0
 16  5  1  0  0  0  0
 17 18  1  0  0  0  0
 18  3  1  0  0  0  0
 18 14  2  0  0  0  0
 19  8  1  6  0  0  0
 19 17  1  0  0  0  0
 19  1  1  0  0  0  0
 20 22  1  0  0  0  0
 22 21  1  0  0  0  0
 24 23  1  0  0  0  0
 25 26  1  0  0  0  0
 26 30  1  0  0  0  0
 26 24  1  1  0  0  0
 27 29  1  6  0  0  0
 27 25  1  0  0  0  0
 27 28  1  0  0  0  0
 28 31  1  0  0  0  0
 28 30  1  0  0  0  0
 32 28  1  0  0  0  0
M  END
>  <MODEL>
4

>  <REMARK>
 VINA RESULT:      -8.1      3.965      6.648
  Name = 
  4 active torsions:
  status: ('A' for Active; 'I' for Inactive)
    1  A    between atoms: C_2  and  N_13
    2  A    between atoms: C_3  and  N_12
    3  A    between atoms: C_8  and  C_27
    4  A    between atoms: N_12  and  N_13
                            x       y       z     vdW  Elec       q    Type
                         _______ _______ _______ _____ _____    ______ ____

>  <TORSDO>
F 4

$$$$
=
 OpenBabel11062420353D

 32 35  0  0  1  0  0  0  0  0999 V2000
  188.6400  176.4090  143.1650 C   0  0  2  0  0  3  0  0  0  0  0  0
  196.1760  175.6060  143.6190 N   0  0  0  0  0  2  0  0  0  0  0  0
  191.4910  174.5980  141.7110 C   0  0  0  0  0  2  0  0  0  0  0  0
  190.9160  176.3470  146.2450 C   0  0  1  0  0  3  0  0  0  0  0  0
  193.7720  176.2640  144.1960 C   0  0  1  0  0  3  0  0  0  0  0  0
  193.7970  173.9820  141.7430 O   0  0  0  0  0  1  0  0  0  0  0  0
  195.0210  175.5090  144.4520 C   0  0  0  0  0  0  0  0  0  0  0  0
  189.9450  176.9080  145.2110 C   0  0  0  0  0  2  0  0  0  0  0  0
  194.9980  174.7970  145.5250 N   0  0  0  0  0  0  0  0  0  0  0  0
  192.2160  176.7830  145.9520 O   0  0  0  0  0  0  0  0  0  0  0  0
  193.7220  174.9180  146.2070 C   0  0  0  0  0  2  0  0  0  0  0  0
  193.2330  176.0630  142.7740 C   0  0  0  0  0  2  0  0  0  0  0  0
  197.3880  174.8520  143.8880 C   0  0  0  0  0  1  0  0  0  0  0  0
  189.5200  175.9980  142.0750 N   0  0  0  0  0  0  0  0  0  0  0  0
  192.8060  174.6250  142.4820 C   0  0  1  0  0  3  0  0  0  0  0  0
  192.8260  175.7260  145.2680 C   0  0  2  0  0  3  0  0  0  0  0  0
  190.2530  174.9270  143.8870 O   0  0  0  0  0  0  0  0  0  0  0  0
  190.3910  175.1750  142.5400 C   0  0  0  0  0  0  0  0  0  0  0  0
  189.2680  175.7930  144.4200 C   0  0  2  0  0  3  0  0  0  0  0  0
  191.6420  177.1660  148.3700 O   0  0  0  0  0  1  0  0  0  0  0  0
  189.6580  177.9160  147.5460 O   0  0  0  0  0  1  0  0  0  0  0  0
  190.5090  176.8120  147.6380 C   0  0  0  0  0  3  0  0  0  0  0  0
  187.3150  175.8450  142.9620 N   0  0  0  0  0  2  0  0  0  0  0  0
  186.5690  176.7940  142.2500 N   0  0  0  0  0  2  0  0  0  0  0  0
  185.8530  177.0970  144.5500 C   0  0  0  0  0  2  0  0  0  0  0  0
  185.4410  177.1660  143.0880 C   0  0  1  0  0  3  0  0  0  0  0  0
  186.0130  178.5300  145.0050 C   0  0  1  0  0  3  0  0  0  0  0  0
  185.0770  179.3420  144.1280 C   0  0  0  0  0  0  0  0  0  0  0  0
  185.7080  178.6680  146.4870 C   0  0  0  0  0  1  0  0  0  0  0  0
  185.0470  178.6100  142.8030 C   0  0  0  0  0  2  0  0  0  0  0  0
  185.5660  180.6240  143.9560 F   0  0  0  0  0  0  0  0  0  0  0  0
  183.7950  179.3890  144.6500 F   0  0  0  0  0  0  0  0  0  0  0  0
  1 23  1  6  0  0  0
  1 19  1  0  0  0  0
  2 13  1  0  0  0  0
  2  7  1  0  0  0  0
  3 15  1  0  0  0  0
  3 18  1  0  0  0  0
  4 22  1  1  0  0  0
  5 12  1  6  0  0  0
  5  7  1  0  0  0  0
  5 16  1  0  0  0  0
  7  9  2  0  0  0  0
  8  4  1  0  0  0  0
  9 11  1  0  0  0  0
 10  4  1  0  0  0  0
 14 18  2  0  0  0  0
 14  1  1  0  0  0  0
 15  6  1  6  0  0  0
 15 12  1  0  0  0  0
 16 10  1  0  0  0  0
 16 11  1  1  0  0  0
 17 19  1  0  0  0  0
 18 17  1  0  0  0  0
 19  8  1  1  0  0  0
 21 22  1  0  0  0  0
 22 20  1  0  0  0  0
 24 23  1  0  0  0  0
 25 27  1  0  0  0  0
 26 24  1  6  0  0  0
 26 25  1  0  0  0  0
 27 29  1  1  0  0  0
 28 32  1  0  0  0  0
 28 27  1  0  0  0  0
 30 26  1  0  0  0  0
 30 28  1  0  0  0  0
 31 28  1  0  0  0  0
M  END
>  <MODEL>
5

>  <REMARK>
 VINA RESULT:      -8.0      3.695      5.674
  Name = 
  4 active torsions:
  status: ('A' for Active; 'I' for Inactive)
    1  A    between atoms: C_2  and  N_13
    2  A    between atoms: C_3  and  N_12
    3  A    between atoms: C_8  and  C_27
    4  A    between atoms: N_12  and  N_13
                            x       y       z     vdW  Elec       q    Type
                         _______ _______ _______ _____ _____    ______ ____

>  <TORSDO>
F 4

$$$$
=
 OpenBabel11062420353D

 32 35  0  0  1  0  0  0  0  0999 V2000
  189.1300  175.1490  145.5980 C   0  0  2  0  0  3  0  0  0  0  0  0
  196.3590  172.9830  144.7640 N   0  0  0  0  0  2  0  0  0  0  0  0
  192.5590  175.8850  146.7010 C   0  0  0  0  0  2  0  0  0  0  0  0
  191.0020  174.0210  142.4520 C   0  0  1  0  0  3  0  0  0  0  0  0
  193.8430  173.2290  144.3670 C   0  0  1  0  0  3  0  0  0  0  0  0
  194.9180  175.5750  146.5040 O   0  0  0  0  0  1  0  0  0  0  0  0
  195.2580  173.4240  143.9690 C   0  0  0  0  0  0  0  0  0  0  0  0
  189.9810  173.9810  143.5850 C   0  0  0  0  0  2  0  0  0  0  0  0
  195.4130  173.9740  142.8160 N   0  0  0  0  0  0  0  0  0  0  0  0
  192.0670  173.1570  142.7500 O   0  0  0  0  0  0  0  0  0  0  0  0
  194.1310  174.2750  142.2030 C   0  0  0  0  0  2  0  0  0  0  0  0
  193.5380  173.7670  145.7690 C   0  0  0  0  0  2  0  0  0  0  0  0
  197.7380  173.1900  144.3560 C   0  0  0  0  0  1  0  0  0  0  0  0
  190.1870  175.3070  146.5920 N   0  0  0  0  0  0  0  0  0  0  0  0
  193.7010  175.2820  145.8900 C   0  0  1  0  0  3  0  0  0  0  0  0
  193.0800  173.9700  143.2710 C   0  0  2  0  0  3  0  0  0  0  0  0
  191.1120  175.8250  144.6330 O   0  0  0  0  0  0  0  0  0  0  0  0
  191.2600  175.6850  145.9940 C   0  0  0  0  0  0  0  0  0  0  0  0
  189.8360  175.3460  144.2510 C   0  0  2  0  0  3  0  0  0  0  0  0
  189.2570  174.4410  140.8750 O   0  0  0  0  0  1  0  0  0  0  0  0
  191.2540  173.6770  140.0950 O   0  0  0  0  0  1  0  0  0  0  0  0
  190.3370  173.6020  141.1470 C   0  0  0  0  0  3  0  0  0  0  0  0
  188.1310  176.1900  145.7760 N   0  0  0  0  0  2  0  0  0  0  0  0
  188.0890  176.9270  144.5850 N   0  0  0  0  0  2  0  0  0  0  0  0
  185.8250  177.0900  145.4490 C   0  0  0  0  0  2  0  0  0  0  0  0
  186.6910  177.0350  144.2010 C   0  0  1  0  0  3  0  0  0  0  0  0
  185.3760  178.5270  145.5820 C   0  0  1  0  0  3  0  0  0  0  0  0
  185.3630  179.0820  144.1690 C   0  0  0  0  0  0  0  0  0  0  0  0
  184.0230  178.6130  146.2670 C   0  0  0  0  0  1  0  0  0  0  0  0
  186.4690  178.3410  143.4460 C   0  0  0  0  0  2  0  0  0  0  0  0
  185.6230  180.4390  144.1790 F   0  0  0  0  0  0  0  0  0  0  0  0
  184.1580  178.8330  143.5310 F   0  0  0  0  0  0  0  0  0  0  0  0
  1 23  1  1  0  0  0
  1 14  1  0  0  0  0
  4 22  1  6  0  0  0
  4 10  1  0  0  0  0
  4  8  1  0  0  0  0
  5 12  1  1  0  0  0
  7  5  1  0  0  0  0
  7  2  1  0  0  0  0
  9  7  2  0  0  0  0
 10 16  1  0  0  0  0
 11  9  1  0  0  0  0
 12 15  1  0  0  0  0
 13  2  1  0  0  0  0
 15  6  1  1  0  0  0
 15  3  1  0  0  0  0
 16 11  1  6  0  0  0
 16  5  1  0  0  0  0
 17 18  1  0  0  0  0
 18 14  2  0  0  0  0
 18  3  1  0  0  0  0
 19  8  1  1  0  0  0
 19 17  1  0  0  0  0
 19  1  1  0  0  0  0
 20 22  1  0  0  0  0
 21 22  1  0  0  0  0
 24 23  1  0  0  0  0
 25 27  1  0  0  0  0
 26 24  1  1  0  0  0
 26 25  1  0  0  0  0
 27 29  1  6  0  0  0
 28 31  1  0  0  0  0
 28 27  1  0  0  0  0
 30 28  1  0  0  0  0
 30 26  1  0  0  0  0
 32 28  1  0  0  0  0
M  END
>  <MODEL>
6

>  <REMARK>
 VINA RESULT:      -7.8      4.464      7.160
  Name = 
  4 active torsions:
  status: ('A' for Active; 'I' for Inactive)
    1  A    between atoms: C_2  and  N_13
    2  A    between atoms: C_3  and  N_12
    3  A    between atoms: C_8  and  C_27
    4  A    between atoms: N_12  and  N_13
                            x       y       z     vdW  Elec       q    Type
                         _______ _______ _______ _____ _____    ______ ____

>  <TORSDO>
F 4

$$$$
=
 OpenBabel11062420353D

 32 35  0  0  1  0  0  0  0  0999 V2000
  187.7080  177.0380  141.5190 C   0  0  2  0  0  3  0  0  0  0  0  0
  193.2350  171.8350  141.7060 N   0  0  0  0  0  2  0  0  0  0  0  0
  188.4850  173.5510  140.6510 C   0  0  0  0  0  2  0  0  0  0  0  0
  190.3230  176.3380  144.2300 C   0  0  1  0  0  3  0  0  0  0  0  0
  191.9040  173.9730  142.1630 C   0  0  1  0  0  3  0  0  0  0  0  0
  189.9370  171.6590  140.7470 O   0  0  0  0  0  1  0  0  0  0  0  0
  192.5220  172.6970  142.5950 C   0  0  0  0  0  0  0  0  0  0  0  0
  189.5880  177.1010  143.1320 C   0  0  0  0  0  2  0  0  0  0  0  0
  192.4120  172.4540  143.8540 N   0  0  0  0  0  0  0  0  0  0  0  0
  191.4930  175.7710  143.7030 O   0  0  0  0  0  0  0  0  0  0  0  0
  191.6860  173.5140  144.5300 C   0  0  0  0  0  2  0  0  0  0  0  0
  190.9660  173.8060  140.9620 C   0  0  0  0  0  2  0  0  0  0  0  0
  193.8280  170.5860  142.1500 C   0  0  0  0  0  1  0  0  0  0  0  0
  187.8480  175.9100  140.6030 N   0  0  0  0  0  0  0  0  0  0  0  0
  189.7420  172.9400  141.2610 C   0  0  1  0  0  3  0  0  0  0  0  0
  191.1750  174.4370  143.4230 C   0  0  2  0  0  3  0  0  0  0  0  0
  188.3340  175.1150  142.6270 O   0  0  0  0  0  0  0  0  0  0  0  0
  188.1940  174.8730  141.2790 C   0  0  0  0  0  0  0  0  0  0  0  0
  188.2090  176.5040  142.8660 C   0  0  2  0  0  3  0  0  0  0  0  0
  189.5320  177.5310  146.1430 O   0  0  0  0  0  1  0  0  0  0  0  0
  191.6580  176.7220  146.1800 O   0  0  0  0  0  1  0  0  0  0  0  0
  190.6670  177.2850  145.3720 C   0  0  0  0  0  3  0  0  0  0  0  0
  186.3050  177.4020  141.6370 N   0  0  0  0  0  2  0  0  0  0  0  0
  186.2510  178.6040  142.3550 N   0  0  0  0  0  2  0  0  0  0  0  0
  185.2320  177.2300  144.0790 C   0  0  0  0  0  2  0  0  0  0  0  0
  185.1190  178.5070  143.2620 C   0  0  1  0  0  3  0  0  0  0  0  0
  185.6590  177.6580  145.4650 C   0  0  1  0  0  3  0  0  0  0  0  0
  185.1270  179.0690  145.6360 C   0  0  0  0  0  0  0  0  0  0  0  0
  185.1380  176.6940  146.5170 C   0  0  0  0  0  1  0  0  0  0  0  0
  185.1530  179.6700  144.2470 C   0  0  0  0  0  2  0  0  0  0  0  0
  185.9420  179.7930  146.4870 F   0  0  0  0  0  0  0  0  0  0  0  0
  183.8240  179.0730  146.1080 F   0  0  0  0  0  0  0  0  0  0  0  0
  1 23  1  1  0  0  0
  1 19  1  0  0  0  0
  2 13  1  0  0  0  0
  2  7  1  0  0  0  0
  3 15  1  0  0  0  0
  3 18  1  0  0  0  0
  4 22  1  1  0  0  0
  5 12  1  6  0  0  0
  5  7  1  0  0  0  0
  5 16  1  0  0  0  0
  7  9  2  0  0  0  0
  8  4  1  0  0  0  0
  9 11  1  0  0  0  0
 10  4  1  0  0  0  0
 12 15  1  0  0  0  0
 14 18  2  0  0  0  0
 14  1  1  0  0  0  0
 15  6  1  6  0  0  0
 16 10  1  0  0  0  0
 16 11  1  1  0  0  0
 17 19  1  0  0  0  0
 18 17  1  0  0  0  0
 19  8  1  6  0  0  0
 22 20  1  0  0  0  0
 22 21  1  0  0  0  0
 23 24  1  0  0  0  0
 25 27  1  0  0  0  0
 26 24  1  6  0  0  0
 26 25  1  0  0  0  0
 26 30  1  0  0  0  0
 27 28  1  0  0  0  0
 27 29  1  1  0  0  0
 28 32  1  0  0  0  0
 28 31  1  0  0  0  0
 30 28  1  0  0  0  0
M  END
>  <MODEL>
7

>  <REMARK>
 VINA RESULT:      -7.7      3.781      5.335
  Name = 
  4 active torsions:
  status: ('A' for Active; 'I' for Inactive)
    1  A    between atoms: C_2  and  N_13
    2  A    between atoms: C_3  and  N_12
    3  A    between atoms: C_8  and  C_27
    4  A    between atoms: N_12  and  N_13
                            x       y       z     vdW  Elec       q    Type
                         _______ _______ _______ _____ _____    ______ ____

>  <TORSDO>
F 4

$$$$
=
 OpenBabel11062420353D

 32 35  0  0  1  0  0  0  0  0999 V2000
  190.2240  176.1580  144.5180 C   0  0  2  0  0  3  0  0  0  0  0  0
  196.2110  171.6510  145.7430 N   0  0  0  0  0  2  0  0  0  0  0  0
  193.8920  176.1560  144.7710 C   0  0  0  0  0  2  0  0  0  0  0  0
  190.8830  172.5800  143.3180 C   0  0  1  0  0  3  0  0  0  0  0  0
  193.8230  172.4240  145.2410 C   0  0  1  0  0  3  0  0  0  0  0  0
  195.9640  174.9820  144.9240 O   0  0  0  0  0  1  0  0  0  0  0  0
  195.0910  171.7560  144.8620 C   0  0  0  0  0  0  0  0  0  0  0  0
  190.2100  173.7190  144.0770 C   0  0  0  0  0  2  0  0  0  0  0  0
  195.0810  171.2260  143.6890 N   0  0  0  0  0  0  0  0  0  0  0  0
  191.7350  171.8790  144.1850 O   0  0  0  0  0  0  0  0  0  0  0  0
  193.8050  171.4380  143.0300 C   0  0  0  0  0  2  0  0  0  0  0  0
  194.0320  173.8510  145.7610 C   0  0  0  0  0  2  0  0  0  0  0  0
  197.4450  170.9960  145.3480 C   0  0  0  0  0  1  0  0  0  0  0  0
  191.5040  176.5760  145.0810 N   0  0  0  0  0  0  0  0  0  0  0  0
  194.5980  174.8060  144.7110 C   0  0  1  0  0  3  0  0  0  0  0  0
  193.0190  172.3800  143.9430 C   0  0  2  0  0  3  0  0  0  0  0  0
  191.9990  175.1810  143.4150 O   0  0  0  0  0  0  0  0  0  0  0  0
  192.4480  176.0020  144.4250 C   0  0  0  0  0  0  0  0  0  0  0  0
  190.5890  175.0770  143.4930 C   0  0  2  0  0  3  0  0  0  0  0  0
  189.0430  172.3200  141.8160 O   0  0  0  0  0  1  0  0  0  0  0  0
  190.4320  170.5470  142.1360 O   0  0  0  0  0  1  0  0  0  0  0  0
  189.8240  171.6430  142.7520 C   0  0  0  0  0  3  0  0  0  0  0  0
  189.6000  177.2800  143.8340 N   0  0  0  0  0  2  0  0  0  0  0  0
  188.7690  177.9170  144.7650 N   0  0  0  0  0  2  0  0  0  0  0  0
  186.6490  177.4120  145.8390 C   0  0  0  0  0  2  0  0  0  0  0  0
  187.4170  177.4370  144.5270 C   0  0  1  0  0  3  0  0  0  0  0  0
  185.6990  178.5860  145.7870 C   0  0  1  0  0  3  0  0  0  0  0  0
  185.4180  178.8180  144.3130 C   0  0  0  0  0  0  0  0  0  0  0  0
  184.4440  178.3070  146.5960 C   0  0  0  0  0  1  0  0  0  0  0  0
  186.6880  178.4040  143.6010 C   0  0  0  0  0  2  0  0  0  0  0  0
  185.1480  180.1530  144.0760 F   0  0  0  0  0  0  0  0  0  0  0  0
  184.3680  178.0340  143.8630 F   0  0  0  0  0  0  0  0  0  0  0  0
  1 23  1  6  0  0  0
  1 14  1  0  0  0  0
  4 22  1  1  0  0  0
  4  8  1  0  0  0  0
  4 10  1  0  0  0  0
  5 12  1  6  0  0  0
  7  5  1  0  0  0  0
  7  2  1  0  0  0  0
  9  7  2  0  0  0  0
 11  9  1  0  0  0  0
 13  2  1  0  0  0  0
 15  3  1  0  0  0  0
 15  6  1  1  0  0  0
 15 12  1  0  0  0  0
 16 11  1  6  0  0  0
 16 10  1  0  0  0  0
 16  5  1  0  0  0  0
 17 19  1  0  0  0  0
 17 18  1  0  0  0  0
 18  3  1  0  0  0  0
 18 14  2  0  0  0  0
 19  8  1  1  0  0  0
 19  1  1  0  0  0  0
 20 22  1  0  0  0  0
 21 22  1  0  0  0  0
 23 24  1  0  0  0  0
 26 24  1  1  0  0  0
 26 25  1  0  0  0  0
 27 25  1  0  0  0  0
 27 29  1  1  0  0  0
 28 27  1  0  0  0  0
 30 28  1  0  0  0  0
 30 26  1  0  0  0  0
 31 28  1  0  0  0  0
 32 28  1  0  0  0  0
M  END
>  <MODEL>
8

>  <REMARK>
 VINA RESULT:      -7.6      4.809      7.528
  Name = 
  4 active torsions:
  status: ('A' for Active; 'I' for Inactive)
    1  A    between atoms: C_2  and  N_13
    2  A    between atoms: C_3  and  N_12
    3  A    between atoms: C_8  and  C_27
    4  A    between atoms: N_12  and  N_13
                            x       y       z     vdW  Elec       q    Type
                         _______ _______ _______ _____ _____    ______ ____

>  <TORSDO>
F 4

$$$$
=
 OpenBabel11062420353D

 32 35  0  0  1  0  0  0  0  0999 V2000
  192.0090  174.4130  144.4380 C   0  0  2  0  0  3  0  0  0  0  0  0
  186.0740  179.1460  144.5770 N   0  0  0  0  0  2  0  0  0  0  0  0
  189.5550  175.9770  146.6860 C   0  0  0  0  0  2  0  0  0  0  0  0
  189.1100  174.7800  141.9610 C   0  0  1  0  0  3  0  0  0  0  0  0
  187.9050  177.5820  143.7110 C   0  0  1  0  0  3  0  0  0  0  0  0
  187.5670  177.2530  147.0280 O   0  0  0  0  0  1  0  0  0  0  0  0
  186.4830  177.9350  143.9410 C   0  0  0  0  0  0  0  0  0  0  0  0
  190.5430  174.8210  142.4830 C   0  0  0  0  0  2  0  0  0  0  0  0
  185.6430  177.0830  143.4680 N   0  0  0  0  0  0  0  0  0  0  0  0
  188.5730  176.0760  141.9620 O   0  0  0  0  0  0  0  0  0  0  0  0
  186.3260  175.9720  142.8290 C   0  0  0  0  0  2  0  0  0  0  0  0
  188.7500  177.6450  144.9880 C   0  0  0  0  0  2  0  0  0  0  0  0
  184.6750  179.4680  144.7960 C   0  0  0  0  0  1  0  0  0  0  0  0
  191.6010  175.2350  145.5740 N   0  0  0  0  0  0  0  0  0  0  0  0
  188.3320  176.6240  146.0470 C   0  0  1  0  0  3  0  0  0  0  0  0
  187.8120  176.1710  143.1320 C   0  0  2  0  0  3  0  0  0  0  0  0
  189.7180  174.4210  144.7040 O   0  0  0  0  0  0  0  0  0  0  0  0
  190.3200  175.1970  145.6690 C   0  0  0  0  0  0  0  0  0  0  0  0
  190.6930  174.0070  143.7650 C   0  0  2  0  0  3  0  0  0  0  0  0
  188.7730  172.8490  140.5940 O   0  0  0  0  0  1  0  0  0  0  0  0
  188.1470  174.8760  139.7710 O   0  0  0  0  0  1  0  0  0  0  0  0
  189.0920  174.2060  140.5510 C   0  0  0  0  0  3  0  0  0  0  0  0
  192.6920  173.2220  144.9180 N   0  0  0  0  0  2  0  0  0  0  0  0
  193.3620  172.6630  143.8210 N   0  0  0  0  0  2  0  0  0  0  0  0
  195.4280  173.8010  143.2430 C   0  0  0  0  0  2  0  0  0  0  0  0
  194.7850  172.7320  144.1110 C   0  0  1  0  0  3  0  0  0  0  0  0
  195.7000  174.9730  144.1580 C   0  0  1  0  0  3  0  0  0  0  0  0
  195.8830  174.3740  145.5410 C   0  0  0  0  0  0  0  0  0  0  0  0
  196.9090  175.7630  143.6870 C   0  0  0  0  0  1  0  0  0  0  0  0
  194.9900  173.1520  145.5610 C   0  0  0  0  0  2  0  0  0  0  0  0
  195.4870  175.2740  146.5130 F   0  0  0  0  0  0  0  0  0  0  0  0
  197.1940  173.9830  145.7610 F   0  0  0  0  0  0  0  0  0  0  0  0
  1 23  1  1  0  0  0
  1 14  1  0  0  0  0
  2 13  1  0  0  0  0
  4 22  1  6  0  0  0
  4 10  1  0  0  0  0
  4  8  1  0  0  0  0
  5  7  1  0  0  0  0
  5 12  1  1  0  0  0
  7  2  1  0  0  0  0
  9  7  2  0  0  0  0
 10 16  1  0  0  0  0
 11  9  1  0  0  0  0
 12 15  1  0  0  0  0
 14 18  2  0  0  0  0
 15  3  1  0  0  0  0
 15  6  1  1  0  0  0
 16 11  1  6  0  0  0
 16  5  1  0  0  0  0
 17 18  1  0  0  0  0
 18  3  1  0  0  0  0
 19  8  1  6  0  0  0
 19  1  1  0  0  0  0
 19 17  1  0  0  0  0
 21 22  1  0  0  0  0
 22 20  1  0  0  0  0
 24 23  1  0  0  0  0
 25 26  1  0  0  0  0
 25 27  1  0  0  0  0
 26 24  1  6  0  0  0
 26 30  1  0  0  0  0
 27 29  1  6  0  0  0
 27 28  1  0  0  0  0
 28 30  1  0  0  0  0
 28 32  1  0  0  0  0
 28 31  1  0  0  0  0
M  END
>  <MODEL>
9

>  <REMARK>
 VINA RESULT:      -7.5      5.570     10.477
  Name = 
  4 active torsions:
  status: ('A' for Active; 'I' for Inactive)
    1  A    between atoms: C_2  and  N_13
    2  A    between atoms: C_3  and  N_12
    3  A    between atoms: C_8  and  C_27
    4  A    between atoms: N_12  and  N_13
                            x       y       z     vdW  Elec       q    Type
                         _______ _______ _______ _____ _____    ______ ____

>  <TORSDO>
F 4

$$$$
