=
 OpenBabel11062420143D

 52 55  0  0  1  0  0  0  0  0999 V2000
  191.8790  175.6270  147.2100 C   0  0  1  0  0  3  0  0  0  0  0  0
  192.6270  176.7840  145.2290 C   0  0  0  0  0  0  0  0  0  0  0  0
  192.3020  177.4280  144.2240 O   0  0  0  0  0  0  0  0  0  0  0  0
  192.9690  176.0920  146.2860 C   0  0  0  0  0  0  0  0  0  0  0  0
  195.5720  173.6860  143.7310 C   0  0  2  0  0  0  0  0  0  0  0  0
  194.3610  175.6410  146.4920 C   0  0  0  0  0  3  0  0  0  0  0  0
  194.6100  174.4810  144.4060 O   0  0  0  0  0  0  0  0  0  0  0  0
  196.4110  174.3770  145.9350 C   0  0  0  0  0  2  0  0  0  0  0  0
  195.0580  174.8800  145.6480 C   0  0  0  0  0  0  0  0  0  0  0  0
  196.6790  173.4320  144.7660 C   0  0  0  0  0  2  0  0  0  0  0  0
  197.1380  173.9320  141.9330 O   0  0  0  0  0  0  0  0  0  0  0  0
  196.1630  174.4290  142.5640 C   0  0  0  0  0  0  0  0  0  0  0  0
  196.3540  176.5470  141.3300 C   0  0  0  0  0  1  0  0  0  0  0  0
  195.6480  175.6720  142.1960 O   0  0  0  0  0  0  0  0  0  0  0  0
  194.9520  172.3560  143.2980 C   0  0  0  0  0  2  0  0  0  0  0  0
  192.9750  171.2280  144.2250 C   0  0  0  0  0  3  0  0  0  0  0  0
  192.2530  170.4100  143.5010 C   0  0  0  0  0  3  0  0  0  0  0  0
  193.4250  172.3510  143.3750 C   0  0  2  0  0  3  0  0  0  0  0  0
  192.1760  170.9340  142.1210 C   0  0  1  0  0  3  0  0  0  0  0  0
  192.8670  172.1660  142.0900 O   0  0  0  0  0  0  0  0  0  0  0  0
  192.8130  169.9950  141.2070 N   0  0  0  0  0  2  0  0  0  0  0  0
  193.7940  170.8120  139.0410 C   0  0  0  0  0  2  0  0  0  0  0  0
  192.6060  170.4610  139.8430 C   0  0  1  0  0  0  0  0  0  0  0  0
  193.1600  169.5560  138.9240 O   0  0  0  0  0  0  0  0  0  0  0  0
  191.2100  170.8860  139.4170 C   0  0  0  0  0  2  0  0  0  0  0  0
  190.3900  169.7700  139.2580 O   0  0  0  0  0  0  0  0  0  0  0  0
  189.4870  170.1430  138.3750 O   0  0  0  0  0  1  0  0  0  0  0  0
  190.9880  176.7720  147.6910 C   0  0  0  0  0  2  0  0  0  0  0  0
  191.5350  177.4020  148.8120 O   0  0  0  0  0  1  0  0  0  0  0  0
  191.0610  174.5010  146.5840 C   0  0  0  0  0  2  0  0  0  0  0  0
  189.6350  174.9510  146.2880 C   0  0  0  0  0  2  0  0  0  0  0  0
  189.2960  174.8820  144.8040 C   0  0  0  0  0  2  0  0  0  0  0  0
  190.3140  174.0450  144.0380 C   0  0  1  0  0  3  0  0  0  0  0  0
  189.9690  172.7060  144.0720 F   0  0  0  0  0  0  0  0  0  0  0  0
  190.4240  174.4880  142.6890 O   0  0  0  0  0  0  0  0  0  0  0  0
  189.3300  174.5050  141.8250 C   0  0  0  0  0  0  0  0  0  0  0  0
  187.4920  173.1640  141.7280 O   0  0  0  0  0  1  0  0  0  0  0  0
  188.4340  173.8550  140.9720 C   0  0  1  0  0  3  0  0  0  0  0  0
  188.2670  175.2290  141.1680 C   0  0  0  0  0  0  0  0  0  0  0  0
  187.5270  176.5000  140.9220 C   0  0  0  0  0  2  0  0  0  0  0  0
  187.6220  177.4510  142.1150 C   0  0  1  0  0  3  0  0  0  0  0  0
  189.0310  177.9960  142.2580 C   0  0  0  0  0  1  0  0  0  0  0  0
  186.6950  178.5270  141.9880 O   0  0  0  0  0  0  0  0  0  0  0  0
  185.3170  178.3280  141.8510 C   0  0  0  0  0  0  0  0  0  0  0  0
  184.7870  178.4560  140.7160 O   0  0  0  0  0  0  0  0  0  0  0  0
  184.4580  177.9820  143.0260 C   0  0  0  0  0  2  0  0  0  0  0  0
  184.2860  179.0310  145.2690 C   0  0  0  0  0  1  0  0  0  0  0  0
  185.1930  178.2670  144.3250 C   0  0  1  0  0  3  0  0  0  0  0  0
  185.6040  176.9620  144.9800 C   0  0  0  0  0  2  0  0  0  0  0  0
  187.6660  177.8680  145.7600 O   0  0  0  0  0  0  0  0  0  0  0  0
  186.6260  177.2130  146.0360 C   0  0  0  0  0  0  0  0  0  0  0  0
  186.4500  176.6980  147.3160 O   0  0  0  0  0  1  0  0  0  0  0  0
  1 30  1  6  0  0  0
  1 28  1  0  0  0  0
  2  4  2  0  0  0  0
  3  2  2  0  0  0  0
  4  6  1  0  0  0  0
  4  1  1  0  0  0  0
  5 15  1  6  0  0  0
  5  7  1  0  0  0  0
  5 10  1  0  0  0  0
  7  9  1  0  0  0  0
  9  8  1  0  0  0  0
  9  6  2  0  0  0  0
 10  8  1  0  0  0  0
 11 12  2  0  0  0  0
 12  5  1  0  0  0  0
 13 14  1  0  0  0  0
 14 12  1  0  0  0  0
 17 16  2  0  0  0  0
 18 15  1  6  0  0  0
 18 16  1  0  0  0  0
 19 21  1  6  0  0  0
 19 17  1  0  0  0  0
 20 19  1  0  0  0  0
 20 18  1  0  0  0  0
 22 23  1  0  0  0  0
 23 25  1  6  0  0  0
 23 21  1  0  0  0  0
 24 22  1  0  0  0  0
 24 23  1  0  0  0  0
 26 25  1  0  0  0  0
 27 26  1  0  0  0  0
 28 29  1  0  0  0  0
 31 30  1  0  0  0  0
 32 31  1  0  0  0  0
 33 34  1  6  0  0  0
 33 32  1  0  0  0  0
 35 33  1  0  0  0  0
 36 35  1  0  0  0  0
 38 39  1  0  0  0  0
 38 37  1  1  0  0  0
 38 36  1  0  0  0  0
 39 36  2  0  0  0  0
 40 39  1  0  0  0  0
 40 41  1  0  0  0  0
 41 42  1  6  0  0  0
 43 41  1  0  0  0  0
 44 43  1  0  0  0  0
 44 46  1  0  0  0  0
 45 44  2  0  0  0  0
 46 48  1  0  0  0  0
 48 49  1  0  0  0  0
 48 47  1  1  0  0  0
 49 51  1  0  0  0  0
 50 51  2  0  0  0  0
 51 52  1  0  0  0  0
M  END
>  <MODEL>
1

>  <REMARK>
 VINA RESULT:      -5.9      0.000      0.000
  Name = 
  25 active torsions:
  status: ('A' for Active; 'I' for Inactive)
    1  A    between atoms: C_1  and  C_19
    2  A    between atoms: C_1  and  C_29
    3  A    between atoms: C_2  and  C_28
    4  A    between atoms: C_3  and  C_11
    5  A    between atoms: C_4  and  C_9
    6  A    between atoms: C_4  and  O_10
    7  A    between atoms: O_5  and  C_33
    8  A    between atoms: N_8  and  C_34
    9  A    between atoms: N_8  and  C_43
   10  A    between atoms: C_9  and  C_27
   11  A    between atoms: O_10  and  C_15
   12  A    between atoms: C_11  and  C_17
   13  A    between atoms: C_11  and  C_28
   14  A    between atoms: C_17  and  C_27
   15  A    between atoms: C_19  and  C_32
   16  A    between atoms: C_21  and  C_36
   17  A    between atoms: C_21  and  O_50
   18  A    between atoms: C_23  and  C_42
   19  A    between atoms: C_23  and  O_50
   20  A    between atoms: O_25  and  C_29
   21  A    between atoms: C_30  and  C_35
   22  A    between atoms: C_30  and  C_51
   23  A    between atoms: C_33  and  C_43
   24  A    between atoms: C_35  and  C_36
   25  A    between atoms: C_42  and  C_48
                            x       y       z     vdW  Elec       q    Type
                         _______ _______ _______ _____ _____    ______ ____

>  <TORSDO>
F 25

$$$$
=
 OpenBabel11062420143D

 52 55  0  0  1  0  0  0  0  0999 V2000
  192.6630  174.9000  145.5110 C   0  0  1  0  0  3  0  0  0  0  0  0
  192.7370  176.5830  143.7840 C   0  0  0  0  0  0  0  0  0  0  0  0
  192.0940  177.2550  142.9670 O   0  0  0  0  0  0  0  0  0  0  0  0
  193.4170  175.8640  144.6400 C   0  0  0  0  0  0  0  0  0  0  0  0
  196.2840  174.1330  141.8330 C   0  0  2  0  0  0  0  0  0  0  0  0
  194.8950  175.8780  144.6510 C   0  0  0  0  0  3  0  0  0  0  0  0
  195.2180  174.6580  142.6090 O   0  0  0  0  0  0  0  0  0  0  0  0
  197.1460  175.2480  143.8460 C   0  0  0  0  0  2  0  0  0  0  0  0
  195.6780  175.2880  143.7470 C   0  0  0  0  0  0  0  0  0  0  0  0
  197.5400  174.3230  142.6970 C   0  0  0  0  0  2  0  0  0  0  0  0
  197.2900  175.8530  140.5010 O   0  0  0  0  0  0  0  0  0  0  0  0
  196.4530  174.9080  140.5550 C   0  0  0  0  0  0  0  0  0  0  0  0
  194.4330  175.2430  139.1940 C   0  0  0  0  0  1  0  0  0  0  0  0
  195.6720  174.5960  139.4430 O   0  0  0  0  0  0  0  0  0  0  0  0
  196.0600  172.6430  141.5650 C   0  0  0  0  0  2  0  0  0  0  0  0
  194.7650  170.7030  142.3410 C   0  0  0  0  0  3  0  0  0  0  0  0
  193.9610  170.0540  141.5380 C   0  0  0  0  0  3  0  0  0  0  0  0
  194.6910  172.1470  142.0310 C   0  0  2  0  0  3  0  0  0  0  0  0
  193.2980  171.0230  140.6400 C   0  0  1  0  0  3  0  0  0  0  0  0
  193.7310  172.3170  141.0070 O   0  0  0  0  0  0  0  0  0  0  0  0
  193.6850  170.7530  139.2610 N   0  0  0  0  0  2  0  0  0  0  0  0
  192.5960  170.2380  137.0540 C   0  0  0  0  0  2  0  0  0  0  0  0
  192.4870  170.7530  138.4330 C   0  0  1  0  0  0  0  0  0  0  0  0
  192.1100  169.4400  138.1130 O   0  0  0  0  0  0  0  0  0  0  0  0
  191.2870  171.5730  138.8790 C   0  0  0  0  0  2  0  0  0  0  0  0
  190.2810  170.7370  139.3620 O   0  0  0  0  0  0  0  0  0  0  0  0
  189.2320  171.0120  138.6140 O   0  0  0  0  0  1  0  0  0  0  0  0
  193.1820  173.4680  145.3870 C   0  0  0  0  0  2  0  0  0  0  0  0
  192.2410  172.6390  144.7710 O   0  0  0  0  0  1  0  0  0  0  0  0
  192.6330  175.3660  146.9630 C   0  0  0  0  0  2  0  0  0  0  0  0
  191.2020  175.5000  147.4720 C   0  0  0  0  0  2  0  0  0  0  0  0
  190.7810  176.9530  147.6570 C   0  0  0  0  0  2  0  0  0  0  0  0
  189.6010  177.3100  146.7610 C   0  0  1  0  0  3  0  0  0  0  0  0
  190.0150  177.4680  145.4510 F   0  0  0  0  0  0  0  0  0  0  0  0
  188.5860  176.3150  146.8380 O   0  0  0  0  0  0  0  0  0  0  0  0
  187.2390  176.6170  146.6390 C   0  0  0  0  0  0  0  0  0  0  0  0
  185.9680  178.3320  147.4290 O   0  0  0  0  0  1  0  0  0  0  0  0
  185.9800  176.9740  147.1280 C   0  0  1  0  0  3  0  0  0  0  0  0
  186.1190  176.8070  145.7470 C   0  0  0  0  0  0  0  0  0  0  0  0
  185.5550  176.8370  144.3670 C   0  0  0  0  0  2  0  0  0  0  0  0
  186.2230  177.9090  143.5050 C   0  0  1  0  0  3  0  0  0  0  0  0
  185.8370  179.2980  143.9780 C   0  0  0  0  0  1  0  0  0  0  0  0
  187.6420  177.7670  143.5200 O   0  0  0  0  0  0  0  0  0  0  0  0
  188.3870  177.4810  142.3710 C   0  0  0  0  0  0  0  0  0  0  0  0
  189.2000  178.3370  141.9350 O   0  0  0  0  0  0  0  0  0  0  0  0
  188.2280  176.1840  141.6410 C   0  0  0  0  0  2  0  0  0  0  0  0
  187.6940  173.7770  141.9330 C   0  0  0  0  0  1  0  0  0  0  0  0
  188.2260  175.0200  142.6180 C   0  0  1  0  0  3  0  0  0  0  0  0
  189.6380  174.7530  143.1030 C   0  0  0  0  0  2  0  0  0  0  0  0
  191.0320  174.3840  141.2050 O   0  0  0  0  0  0  0  0  0  0  0  0
  190.3590  173.8730  142.1380 C   0  0  0  0  0  0  0  0  0  0  0  0
  190.2620  172.4900  142.2480 O   0  0  0  0  0  1  0  0  0  0  0  0
  1 28  1  1  0  0  0
  1 30  1  0  0  0  0
  2  4  2  0  0  0  0
  3  2  2  0  0  0  0
  4  6  1  0  0  0  0
  4  1  1  0  0  0  0
  5 15  1  6  0  0  0
  5  7  1  0  0  0  0
  5 10  1  0  0  0  0
  7  9  1  0  0  0  0
  9  8  1  0  0  0  0
  9  6  2  0  0  0  0
 10  8  1  0  0  0  0
 11 12  2  0  0  0  0
 12  5  1  0  0  0  0
 13 14  1  0  0  0  0
 14 12  1  0  0  0  0
 17 16  2  0  0  0  0
 18 15  1  6  0  0  0
 18 16  1  0  0  0  0
 19 21  1  6  0  0  0
 19 20  1  0  0  0  0
 19 17  1  0  0  0  0
 20 18  1  0  0  0  0
 22 24  1  0  0  0  0
 22 23  1  0  0  0  0
 23 25  1  1  0  0  0
 23 21  1  0  0  0  0
 24 23  1  0  0  0  0
 25 26  1  0  0  0  0
 27 26  1  0  0  0  0
 29 28  1  0  0  0  0
 30 31  1  0  0  0  0
 31 32  1  0  0  0  0
 33 34  1  6  0  0  0
 33 35  1  0  0  0  0
 33 32  1  0  0  0  0
 36 35  1  0  0  0  0
 36 38  1  0  0  0  0
 38 37  1  6  0  0  0
 39 36  2  0  0  0  0
 39 38  1  0  0  0  0
 40 39  1  0  0  0  0
 41 43  1  0  0  0  0
 41 42  1  1  0  0  0
 41 40  1  0  0  0  0
 44 43  1  0  0  0  0
 45 44  2  0  0  0  0
 46 44  1  0  0  0  0
 46 48  1  0  0  0  0
 48 47  1  6  0  0  0
 48 49  1  0  0  0  0
 50 51  2  0  0  0  0
 51 52  1  0  0  0  0
 51 49  1  0  0  0  0
M  END
>  <MODEL>
2

>  <REMARK>
 VINA RESULT:      -5.3      1.869      3.838
  Name = 
  25 active torsions:
  status: ('A' for Active; 'I' for Inactive)
    1  A    between atoms: C_1  and  C_19
    2  A    between atoms: C_1  and  C_29
    3  A    between atoms: C_2  and  C_28
    4  A    between atoms: C_3  and  C_11
    5  A    between atoms: C_4  and  C_9
    6  A    between atoms: C_4  and  O_10
    7  A    between atoms: O_5  and  C_33
    8  A    between atoms: N_8  and  C_34
    9  A    between atoms: N_8  and  C_43
   10  A    between atoms: C_9  and  C_27
   11  A    between atoms: O_10  and  C_15
   12  A    between atoms: C_11  and  C_17
   13  A    between atoms: C_11  and  C_28
   14  A    between atoms: C_17  and  C_27
   15  A    between atoms: C_19  and  C_32
   16  A    between atoms: C_21  and  C_36
   17  A    between atoms: C_21  and  O_50
   18  A    between atoms: C_23  and  C_42
   19  A    between atoms: C_23  and  O_50
   20  A    between atoms: O_25  and  C_29
   21  A    between atoms: C_30  and  C_35
   22  A    between atoms: C_30  and  C_51
   23  A    between atoms: C_33  and  C_43
   24  A    between atoms: C_35  and  C_36
   25  A    between atoms: C_42  and  C_48
                            x       y       z     vdW  Elec       q    Type
                         _______ _______ _______ _____ _____    ______ ____

>  <TORSDO>
F 25

$$$$
=
 OpenBabel11062420143D

 52 55  0  0  1  0  0  0  0  0999 V2000
  193.7100  170.5710  143.2420 C   0  0  1  0  0  3  0  0  0  0  0  0
  194.8500  170.5420  145.3680 C   0  0  0  0  0  0  0  0  0  0  0  0
  194.7700  170.3040  146.5800 O   0  0  0  0  0  0  0  0  0  0  0  0
  194.9290  170.8030  144.0880 C   0  0  0  0  0  0  0  0  0  0  0  0
  195.4330  174.7980  142.3900 C   0  0  2  0  0  0  0  0  0  0  0  0
  196.1240  171.4550  143.5110 C   0  0  0  0  0  3  0  0  0  0  0  0
  195.0980  173.5650  143.0070 O   0  0  0  0  0  0  0  0  0  0  0  0
  197.3470  173.2580  142.3430 C   0  0  0  0  0  2  0  0  0  0  0  0
  196.1570  172.6820  142.9920 C   0  0  0  0  0  0  0  0  0  0  0  0
  196.8210  174.5730  141.7720 C   0  0  0  0  0  2  0  0  0  0  0  0
  196.5380  176.6630  143.4120 O   0  0  0  0  0  0  0  0  0  0  0  0
  195.5300  175.9020  143.4070 C   0  0  0  0  0  0  0  0  0  0  0  0
  194.6250  177.0200  145.4020 C   0  0  0  0  0  1  0  0  0  0  0  0
  194.5190  176.0690  144.3530 O   0  0  0  0  0  0  0  0  0  0  0  0
  194.4230  175.1310  141.2890 C   0  0  0  0  0  2  0  0  0  0  0  0
  194.3510  175.1610  138.8320 C   0  0  0  0  0  3  0  0  0  0  0  0
  193.3460  174.6440  138.1720 C   0  0  0  0  0  3  0  0  0  0  0  0
  194.6360  174.3170  140.0120 C   0  0  2  0  0  3  0  0  0  0  0  0
  192.8950  173.4200  138.8700 C   0  0  1  0  0  3  0  0  0  0  0  0
  193.7510  173.2170  139.9760 O   0  0  0  0  0  0  0  0  0  0  0  0
  191.5280  173.6030  139.3390 N   0  0  0  0  0  2  0  0  0  0  0  0
  189.4590  172.2110  139.6660 C   0  0  0  0  0  2  0  0  0  0  0  0
  190.7550  172.4190  138.9900 C   0  0  1  0  0  0  0  0  0  0  0  0
  189.5450  172.7840  138.3780 O   0  0  0  0  0  0  0  0  0  0  0  0
  191.4370  171.2970  138.2240 C   0  0  0  0  0  2  0  0  0  0  0  0
  191.5560  170.1630  139.0270 O   0  0  0  0  0  0  0  0  0  0  0  0
  192.8540  169.9990  139.1810 O   0  0  0  0  0  1  0  0  0  0  0  0
  193.3500  169.0910  143.1230 C   0  0  0  0  0  2  0  0  0  0  0  0
  192.2320  168.9060  142.3070 O   0  0  0  0  0  1  0  0  0  0  0  0
  192.5270  171.4020  143.7310 C   0  0  0  0  0  2  0  0  0  0  0  0
  191.9260  172.2290  142.6000 C   0  0  0  0  0  2  0  0  0  0  0  0
  191.5200  173.6270  143.0490 C   0  0  0  0  0  2  0  0  0  0  0  0
  191.1310  173.6480  144.5220 C   0  0  1  0  0  3  0  0  0  0  0  0
  192.0130  174.4270  145.2480 F   0  0  0  0  0  0  0  0  0  0  0  0
  189.8010  174.1290  144.6900 O   0  0  0  0  0  0  0  0  0  0  0  0
  189.3600  174.6770  145.8930 C   0  0  0  0  0  0  0  0  0  0  0  0
  190.4810  175.1190  147.8250 O   0  0  0  0  0  1  0  0  0  0  0  0
  189.2810  174.6640  147.2890 C   0  0  1  0  0  3  0  0  0  0  0  0
  188.6500  175.7110  146.6100 C   0  0  0  0  0  0  0  0  0  0  0  0
  187.8630  176.9770  146.6110 C   0  0  0  0  0  2  0  0  0  0  0  0
  186.7290  176.9400  145.5860 C   0  0  1  0  0  3  0  0  0  0  0  0
  185.3840  176.8170  146.2760 C   0  0  0  0  0  1  0  0  0  0  0  0
  186.7470  178.1030  144.7600 O   0  0  0  0  0  0  0  0  0  0  0  0
  186.5870  178.0490  143.3720 C   0  0  0  0  0  0  0  0  0  0  0  0
  186.2200  179.0820  142.7530 O   0  0  0  0  0  0  0  0  0  0  0  0
  186.8280  176.7850  142.6070 C   0  0  0  0  0  2  0  0  0  0  0  0
  188.5980  175.3740  141.5860 C   0  0  0  0  0  1  0  0  0  0  0  0
  188.3000  176.4090  142.6530 C   0  0  1  0  0  3  0  0  0  0  0  0
  189.1530  177.6380  142.4040 C   0  0  0  0  0  2  0  0  0  0  0  0
  190.2660  178.0720  144.4660 O   0  0  0  0  0  1  0  0  0  0  0  0
  190.3510  177.6250  143.2920 C   0  0  0  0  0  0  0  0  0  0  0  0
  191.5690  177.1510  142.8160 O   0  0  0  0  0  0  0  0  0  0  0  0
  1 28  1  1  0  0  0
  1 30  1  0  0  0  0
  1  4  1  0  0  0  0
  2  3  2  0  0  0  0
  4  2  2  0  0  0  0
  5 15  1  6  0  0  0
  5  7  1  0  0  0  0
  5 12  1  0  0  0  0
  6  4  1  0  0  0  0
  8  9  1  0  0  0  0
  9  7  1  0  0  0  0
  9  6  2  0  0  0  0
 10  8  1  0  0  0  0
 10  5  1  0  0  0  0
 12 11  2  0  0  0  0
 12 14  1  0  0  0  0
 14 13  1  0  0  0  0
 16 18  1  0  0  0  0
 17 16  2  0  0  0  0
 17 19  1  0  0  0  0
 18 15  1  1  0  0  0
 19 21  1  1  0  0  0
 19 20  1  0  0  0  0
 20 18  1  0  0  0  0
 23 25  1  6  0  0  0
 23 21  1  0  0  0  0
 23 22  1  0  0  0  0
 24 23  1  0  0  0  0
 24 22  1  0  0  0  0
 25 26  1  0  0  0  0
 26 27  1  0  0  0  0
 29 28  1  0  0  0  0
 31 32  1  0  0  0  0
 31 30  1  0  0  0  0
 32 33  1  0  0  0  0
 33 35  1  0  0  0  0
 33 34  1  1  0  0  0
 35 36  1  0  0  0  0
 36 39  2  0  0  0  0
 36 38  1  0  0  0  0
 38 37  1  1  0  0  0
 39 40  1  0  0  0  0
 39 38  1  0  0  0  0
 41 42  1  1  0  0  0
 41 40  1  0  0  0  0
 43 41  1  0  0  0  0
 44 43  1  0  0  0  0
 45 44  2  0  0  0  0
 46 48  1  0  0  0  0
 46 44  1  0  0  0  0
 48 47  1  6  0  0  0
 49 48  1  0  0  0  0
 49 51  1  0  0  0  0
 51 50  1  0  0  0  0
 52 51  2  0  0  0  0
M  END
>  <MODEL>
3

>  <REMARK>
 VINA RESULT:      -5.2      2.037      4.807
  Name = 
  25 active torsions:
  status: ('A' for Active; 'I' for Inactive)
    1  A    between atoms: C_1  and  C_19
    2  A    between atoms: C_1  and  C_29
    3  A    between atoms: C_2  and  C_28
    4  A    between atoms: C_3  and  C_11
    5  A    between atoms: C_4  and  C_9
    6  A    between atoms: C_4  and  O_10
    7  A    between atoms: O_5  and  C_33
    8  A    between atoms: N_8  and  C_34
    9  A    between atoms: N_8  and  C_43
   10  A    between atoms: C_9  and  C_27
   11  A    between atoms: O_10  and  C_15
   12  A    between atoms: C_11  and  C_17
   13  A    between atoms: C_11  and  C_28
   14  A    between atoms: C_17  and  C_27
   15  A    between atoms: C_19  and  C_32
   16  A    between atoms: C_21  and  C_36
   17  A    between atoms: C_21  and  O_50
   18  A    between atoms: C_23  and  C_42
   19  A    between atoms: C_23  and  O_50
   20  A    between atoms: O_25  and  C_29
   21  A    between atoms: C_30  and  C_35
   22  A    between atoms: C_30  and  C_51
   23  A    between atoms: C_33  and  C_43
   24  A    between atoms: C_35  and  C_36
   25  A    between atoms: C_42  and  C_48
                            x       y       z     vdW  Elec       q    Type
                         _______ _______ _______ _____ _____    ______ ____

>  <TORSDO>
F 25

$$$$
=
 OpenBabel11062420143D

 52 55  0  0  1  0  0  0  0  0999 V2000
  194.9860  172.6640  141.0820 C   0  0  1  0  0  3  0  0  0  0  0  0
  194.1550  174.1140  139.3410 C   0  0  0  0  0  0  0  0  0  0  0  0
  194.1820  175.2440  138.8370 O   0  0  0  0  0  0  0  0  0  0  0  0
  194.1190  172.9220  139.8820 C   0  0  0  0  0  0  0  0  0  0  0  0
  189.7660  172.8150  140.2470 C   0  0  2  0  0  0  0  0  0  0  0  0
  193.1450  171.9050  139.4340 C   0  0  0  0  0  3  0  0  0  0  0  0
  191.1660  173.0360  140.1830 O   0  0  0  0  0  0  0  0  0  0  0  0
  190.9030  170.8830  139.2420 C   0  0  0  0  0  2  0  0  0  0  0  0
  191.8270  171.9640  139.6230 C   0  0  0  0  0  0  0  0  0  0  0  0
  189.5720  171.3510  139.8250 C   0  0  0  0  0  2  0  0  0  0  0  0
  188.3830  174.6950  139.7010 O   0  0  0  0  0  0  0  0  0  0  0  0
  189.0350  173.7000  139.2750 C   0  0  0  0  0  0  0  0  0  0  0  0
  190.0120  173.9960  137.0380 C   0  0  0  0  0  1  0  0  0  0  0  0
  189.0600  173.4080  137.9120 O   0  0  0  0  0  0  0  0  0  0  0  0
  189.2630  173.0120  141.6790 C   0  0  0  0  0  2  0  0  0  0  0  0
  189.7090  171.6990  143.7090 C   0  0  0  0  0  3  0  0  0  0  0  0
  189.7080  172.2540  144.8950 C   0  0  0  0  0  3  0  0  0  0  0  0
  190.3030  172.6430  142.7380 C   0  0  2  0  0  3  0  0  0  0  0  0
  190.3010  173.6040  144.7910 C   0  0  1  0  0  3  0  0  0  0  0  0
  190.7090  173.7930  143.4520 O   0  0  0  0  0  0  0  0  0  0  0  0
  189.3010  174.6030  145.1420 N   0  0  0  0  0  2  0  0  0  0  0  0
  188.5610  175.9140  147.1560 C   0  0  0  0  0  2  0  0  0  0  0  0
  189.5910  175.1040  146.4780 C   0  0  1  0  0  0  0  0  0  0  0  0
  188.7160  174.5360  147.4170 O   0  0  0  0  0  0  0  0  0  0  0  0
  191.0270  175.0690  146.9790 C   0  0  0  0  0  2  0  0  0  0  0  0
  191.1360  175.7560  148.1870 O   0  0  0  0  0  0  0  0  0  0  0  0
  191.7590  176.8750  147.8790 O   0  0  0  0  0  1  0  0  0  0  0  0
  196.4700  172.8820  140.7920 C   0  0  0  0  0  2  0  0  0  0  0  0
  197.0430  173.7570  141.7180 O   0  0  0  0  0  1  0  0  0  0  0  0
  194.5210  173.4730  142.2890 C   0  0  0  0  0  2  0  0  0  0  0  0
  194.0860  172.5620  143.4310 C   0  0  0  0  0  2  0  0  0  0  0  0
  195.2010  172.3180  144.4420 C   0  0  0  0  0  2  0  0  0  0  0  0
  195.3460  173.4900  145.4050 C   0  0  1  0  0  3  0  0  0  0  0  0
  196.2910  174.3870  144.9420 F   0  0  0  0  0  0  0  0  0  0  0  0
  194.0980  174.1480  145.5970 O   0  0  0  0  0  0  0  0  0  0  0  0
  193.8910  175.4690  145.2020 C   0  0  0  0  0  0  0  0  0  0  0  0
  195.3710  177.1580  144.8290 O   0  0  0  0  0  1  0  0  0  0  0  0
  194.1190  176.8400  145.3470 C   0  0  1  0  0  3  0  0  0  0  0  0
  193.2810  176.4260  144.3080 C   0  0  0  0  0  0  0  0  0  0  0  0
  192.4220  176.7270  143.1270 C   0  0  0  0  0  2  0  0  0  0  0  0
  191.0360  177.2200  143.5460 C   0  0  1  0  0  3  0  0  0  0  0  0
  191.0470  178.7190  143.7830 C   0  0  0  0  0  1  0  0  0  0  0  0
  190.0570  176.8910  142.5630 O   0  0  0  0  0  0  0  0  0  0  0  0
  188.8030  177.5090  142.5060 C   0  0  0  0  0  0  0  0  0  0  0  0
  188.5730  178.3530  141.6010 O   0  0  0  0  0  0  0  0  0  0  0  0
  187.7340  177.1990  143.5060 C   0  0  0  0  0  2  0  0  0  0  0  0
  185.3770  177.6240  142.8520 C   0  0  0  0  0  1  0  0  0  0  0  0
  186.6290  178.2400  143.4430 C   0  0  1  0  0  3  0  0  0  0  0  0
  186.3200  178.7470  144.8390 C   0  0  0  0  0  2  0  0  0  0  0  0
  185.4840  176.7260  145.7860 O   0  0  0  0  0  1  0  0  0  0  0  0
  185.2480  177.9210  145.4650 C   0  0  0  0  0  0  0  0  0  0  0  0
  183.9790  178.4550  145.6630 O   0  0  0  0  0  0  0  0  0  0  0  0
  1 28  1  6  0  0  0
  1 30  1  0  0  0  0
  2  4  2  0  0  0  0
  3  2  2  0  0  0  0
  4  1  1  0  0  0  0
  5 15  1  1  0  0  0
  6  9  2  0  0  0  0
  6  4  1  0  0  0  0
  7  5  1  0  0  0  0
  8  9  1  0  0  0  0
  8 10  1  0  0  0  0
  9  7  1  0  0  0  0
 10  5  1  0  0  0  0
 12 11  2  0  0  0  0
 12  5  1  0  0  0  0
 13 14  1  0  0  0  0
 14 12  1  0  0  0  0
 16 17  2  0  0  0  0
 18 15  1  6  0  0  0
 18 20  1  0  0  0  0
 18 16  1  0  0  0  0
 19 17  1  0  0  0  0
 19 21  1  6  0  0  0
 20 19  1  0  0  0  0
 21 23  1  0  0  0  0
 22 24  1  0  0  0  0
 23 25  1  1  0  0  0
 23 22  1  0  0  0  0
 23 24  1  0  0  0  0
 25 26  1  0  0  0  0
 27 26  1  0  0  0  0
 28 29  1  0  0  0  0
 30 31  1  0  0  0  0
 31 32  1  0  0  0  0
 32 33  1  0  0  0  0
 33 34  1  6  0  0  0
 33 35  1  0  0  0  0
 36 38  1  0  0  0  0
 36 35  1  0  0  0  0
 38 37  1  6  0  0  0
 39 36  2  0  0  0  0
 39 38  1  0  0  0  0
 40 41  1  0  0  0  0
 40 39  1  0  0  0  0
 41 42  1  6  0  0  0
 43 41  1  0  0  0  0
 44 43  1  0  0  0  0
 44 46  1  0  0  0  0
 45 44  2  0  0  0  0
 48 47  1  1  0  0  0
 48 46  1  0  0  0  0
 48 49  1  0  0  0  0
 49 51  1  0  0  0  0
 51 52  2  0  0  0  0
 51 50  1  0  0  0  0
M  END
>  <MODEL>
4

>  <REMARK>
 VINA RESULT:      -5.1      2.390      6.741
  Name = 
  25 active torsions:
  status: ('A' for Active; 'I' for Inactive)
    1  A    between atoms: C_1  and  C_19
    2  A    between atoms: C_1  and  C_29
    3  A    between atoms: C_2  and  C_28
    4  A    between atoms: C_3  and  C_11
    5  A    between atoms: C_4  and  C_9
    6  A    between atoms: C_4  and  O_10
    7  A    between atoms: O_5  and  C_33
    8  A    between atoms: N_8  and  C_34
    9  A    between atoms: N_8  and  C_43
   10  A    between atoms: C_9  and  C_27
   11  A    between atoms: O_10  and  C_15
   12  A    between atoms: C_11  and  C_17
   13  A    between atoms: C_11  and  C_28
   14  A    between atoms: C_17  and  C_27
   15  A    between atoms: C_19  and  C_32
   16  A    between atoms: C_21  and  C_36
   17  A    between atoms: C_21  and  O_50
   18  A    between atoms: C_23  and  C_42
   19  A    between atoms: C_23  and  O_50
   20  A    between atoms: O_25  and  C_29
   21  A    between atoms: C_30  and  C_35
   22  A    between atoms: C_30  and  C_51
   23  A    between atoms: C_33  and  C_43
   24  A    between atoms: C_35  and  C_36
   25  A    between atoms: C_42  and  C_48
                            x       y       z     vdW  Elec       q    Type
                         _______ _______ _______ _____ _____    ______ ____

>  <TORSDO>
F 25

$$$$
=
 OpenBabel11062420143D

 52 55  0  0  1  0  0  0  0  0999 V2000
  190.8500  173.9260  144.7300 C   0  0  1  0  0  3  0  0  0  0  0  0
  192.0340  175.9470  144.1490 C   0  0  0  0  0  0  0  0  0  0  0  0
  192.0030  177.0230  143.5390 O   0  0  0  0  0  0  0  0  0  0  0  0
  192.0690  174.8030  144.7850 C   0  0  0  0  0  0  0  0  0  0  0  0
  195.7290  173.2620  142.9630 C   0  0  2  0  0  0  0  0  0  0  0  0
  193.3140  174.3100  145.4090 C   0  0  0  0  0  3  0  0  0  0  0  0
  194.4920  173.8210  143.3760 O   0  0  0  0  0  0  0  0  0  0  0  0
  195.5540  173.2650  145.4140 C   0  0  0  0  0  2  0  0  0  0  0  0
  194.3700  173.8330  144.7490 C   0  0  0  0  0  0  0  0  0  0  0  0
  196.3670  172.7090  144.2470 C   0  0  0  0  0  2  0  0  0  0  0  0
  197.7930  174.0030  141.9960 O   0  0  0  0  0  0  0  0  0  0  0  0
  196.6340  174.3170  142.3880 C   0  0  0  0  0  0  0  0  0  0  0  0
  196.5640  176.6060  143.2850 C   0  0  0  0  0  1  0  0  0  0  0  0
  196.2000  175.6400  142.3100 O   0  0  0  0  0  0  0  0  0  0  0  0
  195.4900  172.1210  141.9710 C   0  0  0  0  0  2  0  0  0  0  0  0
  194.0450  170.1850  142.4250 C   0  0  0  0  0  3  0  0  0  0  0  0
  193.5710  169.4450  141.4550 C   0  0  0  0  0  3  0  0  0  0  0  0
  194.0530  171.5980  141.9900 C   0  0  2  0  0  3  0  0  0  0  0  0
  193.2320  170.3170  140.3100 C   0  0  1  0  0  3  0  0  0  0  0  0
  193.4920  171.6510  140.6950 O   0  0  0  0  0  0  0  0  0  0  0  0
  194.0660  169.9680  139.1680 N   0  0  0  0  0  2  0  0  0  0  0  0
  194.3860  171.5850  137.2690 C   0  0  0  0  0  2  0  0  0  0  0  0
  193.5270  170.6190  137.9820 C   0  0  1  0  0  0  0  0  0  0  0  0
  194.2550  170.2450  136.8420 O   0  0  0  0  0  0  0  0  0  0  0  0
  192.0300  170.5480  137.7230 C   0  0  0  0  0  2  0  0  0  0  0  0
  191.4600  171.8160  137.8260 O   0  0  0  0  0  0  0  0  0  0  0  0
  191.0370  172.0910  136.6090 O   0  0  0  0  0  1  0  0  0  0  0  0
  191.1570  172.5280  144.1930 C   0  0  0  0  0  2  0  0  0  0  0  0
  190.9710  172.4650  142.8100 O   0  0  0  0  0  1  0  0  0  0  0  0
  190.1430  173.8690  146.0810 C   0  0  0  0  0  2  0  0  0  0  0  0
  189.0070  174.8840  146.1540 C   0  0  0  0  0  2  0  0  0  0  0  0
  189.3750  176.1160  146.9710 C   0  0  0  0  0  2  0  0  0  0  0  0
  188.5210  177.3170  146.5840 C   0  0  1  0  0  3  0  0  0  0  0  0
  189.0290  177.9340  145.4550 F   0  0  0  0  0  0  0  0  0  0  0  0
  187.1690  176.9290  146.3630 O   0  0  0  0  0  0  0  0  0  0  0  0
  186.0970  177.7450  146.7240 C   0  0  0  0  0  0  0  0  0  0  0  0
  186.0430  179.6930  147.8990 O   0  0  0  0  0  1  0  0  0  0  0  0
  185.3890  178.4870  147.6720 C   0  0  1  0  0  3  0  0  0  0  0  0
  184.8980  178.4650  146.3640 C   0  0  0  0  0  0  0  0  0  0  0  0
  183.9040  178.8910  145.3380 C   0  0  0  0  0  2  0  0  0  0  0  0
  184.4670  178.7730  143.9210 C   0  0  1  0  0  3  0  0  0  0  0  0
  185.6750  179.6740  143.7450 C   0  0  0  0  0  1  0  0  0  0  0  0
  184.8180  177.4240  143.6190 O   0  0  0  0  0  0  0  0  0  0  0  0
  185.7200  177.0850  142.6050 C   0  0  0  0  0  0  0  0  0  0  0  0
  185.4990  177.4750  141.4290 O   0  0  0  0  0  0  0  0  0  0  0  0
  186.9340  176.2550  142.8850 C   0  0  0  0  0  2  0  0  0  0  0  0
  188.7600  177.8600  142.3820 C   0  0  0  0  0  1  0  0  0  0  0  0
  188.0510  176.6040  141.9160 C   0  0  1  0  0  3  0  0  0  0  0  0
  189.0510  175.4650  141.8530 C   0  0  0  0  0  2  0  0  0  0  0  0
  188.5330  174.4030  139.7830 O   0  0  0  0  0  0  0  0  0  0  0  0
  188.5030  174.3400  141.0410 C   0  0  0  0  0  0  0  0  0  0  0  0
  187.9310  173.2390  141.6690 O   0  0  0  0  0  1  0  0  0  0  0  0
  1 28  1  1  0  0  0
  1  4  1  0  0  0  0
  1 30  1  0  0  0  0
  2  4  2  0  0  0  0
  3  2  2  0  0  0  0
  4  6  1  0  0  0  0
  5 15  1  6  0  0  0
  5  7  1  0  0  0  0
  5 10  1  0  0  0  0
  7  9  1  0  0  0  0
  9  6  2  0  0  0  0
  9  8  1  0  0  0  0
 10  8  1  0  0  0  0
 11 12  2  0  0  0  0
 12  5  1  0  0  0  0
 14 12  1  0  0  0  0
 14 13  1  0  0  0  0
 17 16  2  0  0  0  0
 18 15  1  6  0  0  0
 18 16  1  0  0  0  0
 19 21  1  6  0  0  0
 19 20  1  0  0  0  0
 19 17  1  0  0  0  0
 20 18  1  0  0  0  0
 22 23  1  0  0  0  0
 23 25  1  6  0  0  0
 23 21  1  0  0  0  0
 24 22  1  0  0  0  0
 24 23  1  0  0  0  0
 25 26  1  0  0  0  0
 27 26  1  0  0  0  0
 29 28  1  0  0  0  0
 30 31  1  0  0  0  0
 31 32  1  0  0  0  0
 33 34  1  6  0  0  0
 33 32  1  0  0  0  0
 35 33  1  0  0  0  0
 35 36  1  0  0  0  0
 36 38  1  0  0  0  0
 38 37  1  6  0  0  0
 39 36  2  0  0  0  0
 39 38  1  0  0  0  0
 40 39  1  0  0  0  0
 41 42  1  1  0  0  0
 41 40  1  0  0  0  0
 43 41  1  0  0  0  0
 44 46  1  0  0  0  0
 44 43  1  0  0  0  0
 45 44  2  0  0  0  0
 48 47  1  1  0  0  0
 48 46  1  0  0  0  0
 49 48  1  0  0  0  0
 50 51  2  0  0  0  0
 51 52  1  0  0  0  0
 51 49  1  0  0  0  0
M  END
>  <MODEL>
5

>  <REMARK>
 VINA RESULT:      -5.1      1.821      3.980
  Name = 
  25 active torsions:
  status: ('A' for Active; 'I' for Inactive)
    1  A    between atoms: C_1  and  C_19
    2  A    between atoms: C_1  and  C_29
    3  A    between atoms: C_2  and  C_28
    4  A    between atoms: C_3  and  C_11
    5  A    between atoms: C_4  and  C_9
    6  A    between atoms: C_4  and  O_10
    7  A    between atoms: O_5  and  C_33
    8  A    between atoms: N_8  and  C_34
    9  A    between atoms: N_8  and  C_43
   10  A    between atoms: C_9  and  C_27
   11  A    between atoms: O_10  and  C_15
   12  A    between atoms: C_11  and  C_17
   13  A    between atoms: C_11  and  C_28
   14  A    between atoms: C_17  and  C_27
   15  A    between atoms: C_19  and  C_32
   16  A    between atoms: C_21  and  C_36
   17  A    between atoms: C_21  and  O_50
   18  A    between atoms: C_23  and  C_42
   19  A    between atoms: C_23  and  O_50
   20  A    between atoms: O_25  and  C_29
   21  A    between atoms: C_30  and  C_35
   22  A    between atoms: C_30  and  C_51
   23  A    between atoms: C_33  and  C_43
   24  A    between atoms: C_35  and  C_36
   25  A    between atoms: C_42  and  C_48
                            x       y       z     vdW  Elec       q    Type
                         _______ _______ _______ _____ _____    ______ ____

>  <TORSDO>
F 25

$$$$
=
 OpenBabel11062420143D

 52 55  0  0  1  0  0  0  0  0999 V2000
  192.9160  172.4910  144.9800 C   0  0  1  0  0  3  0  0  0  0  0  0
  194.4030  170.6370  144.5630 C   0  0  0  0  0  0  0  0  0  0  0  0
  194.5050  169.4480  144.2340 O   0  0  0  0  0  0  0  0  0  0  0  0
  194.2920  171.8910  144.9220 C   0  0  0  0  0  0  0  0  0  0  0  0
  196.8180  174.8100  142.8750 C   0  0  2  0  0  0  0  0  0  0  0  0
  195.4590  172.6550  145.4090 C   0  0  0  0  0  3  0  0  0  0  0  0
  195.8780  173.8800  143.3880 O   0  0  0  0  0  0  0  0  0  0  0  0
  197.3910  174.1810  145.1800 C   0  0  0  0  0  2  0  0  0  0  0  0
  196.1790  173.5100  144.6810 C   0  0  0  0  0  0  0  0  0  0  0  0
  197.9270  174.8860  143.9360 C   0  0  0  0  0  2  0  0  0  0  0  0
  195.8190  176.5650  141.5830 O   0  0  0  0  0  0  0  0  0  0  0  0
  196.2010  176.1730  142.7220 C   0  0  0  0  0  0  0  0  0  0  0  0
  194.9850  176.8880  144.7370 C   0  0  0  0  0  1  0  0  0  0  0  0
  196.0720  177.0080  143.8320 O   0  0  0  0  0  0  0  0  0  0  0  0
  197.4000  174.3020  141.5540 C   0  0  0  0  0  2  0  0  0  0  0  0
  197.2510  171.9630  140.8130 C   0  0  0  0  0  3  0  0  0  0  0  0
  197.4220  171.6320  139.5580 C   0  0  0  0  0  3  0  0  0  0  0  0
  196.5230  173.2480  140.8760 C   0  0  2  0  0  3  0  0  0  0  0  0
  196.8180  172.6760  138.7020 C   0  0  1  0  0  3  0  0  0  0  0  0
  196.2220  173.6360  139.5510 O   0  0  0  0  0  0  0  0  0  0  0  0
  197.8570  173.3110  137.9030 N   0  0  0  0  0  2  0  0  0  0  0  0
  197.6250  172.9890  135.4190 C   0  0  0  0  0  2  0  0  0  0  0  0
  197.2740  173.7420  136.6390 C   0  0  1  0  0  0  0  0  0  0  0  0
  196.4260  172.7490  136.1250 O   0  0  0  0  0  0  0  0  0  0  0  0
  196.6190  175.1130  136.5630 C   0  0  0  0  0  2  0  0  0  0  0  0
  197.5420  176.0680  136.1400 O   0  0  0  0  0  0  0  0  0  0  0  0
  196.8100  177.0200  135.5980 O   0  0  0  0  0  1  0  0  0  0  0  0
  192.9370  173.9730  145.3510 C   0  0  0  0  0  2  0  0  0  0  0  0
  192.1780  174.2180  146.4980 O   0  0  0  0  0  1  0  0  0  0  0  0
  192.1460  172.2440  143.6860 C   0  0  0  0  0  2  0  0  0  0  0  0
  190.6670  171.9970  143.9600 C   0  0  0  0  0  2  0  0  0  0  0  0
  189.7590  172.8080  143.0440 C   0  0  0  0  0  2  0  0  0  0  0  0
  189.4540  174.1800  143.6330 C   0  0  1  0  0  3  0  0  0  0  0  0
  189.4490  174.1270  145.0150 F   0  0  0  0  0  0  0  0  0  0  0  0
  190.3970  175.1470  143.1830 O   0  0  0  0  0  0  0  0  0  0  0  0
  190.1490  176.5170  143.2710 C   0  0  0  0  0  0  0  0  0  0  0  0
  191.5820  178.2790  143.4200 O   0  0  0  0  0  1  0  0  0  0  0  0
  190.3670  177.7650  143.8610 C   0  0  1  0  0  3  0  0  0  0  0  0
  189.4760  177.6990  142.7860 C   0  0  0  0  0  0  0  0  0  0  0  0
  188.5460  178.3540  141.8230 C   0  0  0  0  0  2  0  0  0  0  0  0
  187.0960  177.9260  142.0530 C   0  0  1  0  0  3  0  0  0  0  0  0
  186.8620  176.5190  141.5360 C   0  0  0  0  0  1  0  0  0  0  0  0
  186.7540  177.9980  143.4360 O   0  0  0  0  0  0  0  0  0  0  0  0
  185.4310  178.0020  143.8900 C   0  0  0  0  0  0  0  0  0  0  0  0
  184.5210  178.4290  143.1320 O   0  0  0  0  0  0  0  0  0  0  0  0
  185.0750  177.5220  145.2620 C   0  0  0  0  0  2  0  0  0  0  0  0
  185.6230  179.0280  147.1580 C   0  0  0  0  0  1  0  0  0  0  0  0
  186.1470  177.9250  146.2610 C   0  0  1  0  0  3  0  0  0  0  0  0
  186.5290  176.7300  147.1150 C   0  0  0  0  0  2  0  0  0  0  0  0
  188.7760  177.3680  146.6430 O   0  0  0  0  0  0  0  0  0  0  0  0
  187.9880  176.4490  146.9880 C   0  0  0  0  0  0  0  0  0  0  0  0
  188.4750  175.1660  147.2180 O   0  0  0  0  0  1  0  0  0  0  0  0
  1 30  1  6  0  0  0
  1 28  1  0  0  0  0
  2  4  2  0  0  0  0
  3  2  2  0  0  0  0
  4  1  1  0  0  0  0
  4  6  1  0  0  0  0
  5 15  1  6  0  0  0
  5  7  1  0  0  0  0
  5 10  1  0  0  0  0
  7  9  1  0  0  0  0
  9  8  1  0  0  0  0
  9  6  2  0  0  0  0
 10  8  1  0  0  0  0
 11 12  2  0  0  0  0
 12  5  1  0  0  0  0
 12 14  1  0  0  0  0
 14 13  1  0  0  0  0
 16 18  1  0  0  0  0
 17 16  2  0  0  0  0
 18 15  1  6  0  0  0
 19 21  1  1  0  0  0
 19 20  1  0  0  0  0
 19 17  1  0  0  0  0
 20 18  1  0  0  0  0
 22 24  1  0  0  0  0
 22 23  1  0  0  0  0
 23 25  1  6  0  0  0
 23 21  1  0  0  0  0
 24 23  1  0  0  0  0
 26 25  1  0  0  0  0
 27 26  1  0  0  0  0
 28 29  1  0  0  0  0
 30 31  1  0  0  0  0
 32 33  1  0  0  0  0
 32 31  1  0  0  0  0
 33 34  1  1  0  0  0
 35 36  1  0  0  0  0
 35 33  1  0  0  0  0
 36 38  1  0  0  0  0
 38 37  1  6  0  0  0
 39 36  2  0  0  0  0
 39 38  1  0  0  0  0
 40 41  1  0  0  0  0
 40 39  1  0  0  0  0
 41 42  1  1  0  0  0
 41 43  1  0  0  0  0
 43 44  1  0  0  0  0
 44 46  1  0  0  0  0
 45 44  2  0  0  0  0
 46 48  1  0  0  0  0
 48 49  1  0  0  0  0
 48 47  1  1  0  0  0
 50 51  2  0  0  0  0
 51 49  1  0  0  0  0
 51 52  1  0  0  0  0
M  END
>  <MODEL>
6

>  <REMARK>
 VINA RESULT:      -4.7      2.821      4.396
  Name = 
  25 active torsions:
  status: ('A' for Active; 'I' for Inactive)
    1  A    between atoms: C_1  and  C_19
    2  A    between atoms: C_1  and  C_29
    3  A    between atoms: C_2  and  C_28
    4  A    between atoms: C_3  and  C_11
    5  A    between atoms: C_4  and  C_9
    6  A    between atoms: C_4  and  O_10
    7  A    between atoms: O_5  and  C_33
    8  A    between atoms: N_8  and  C_34
    9  A    between atoms: N_8  and  C_43
   10  A    between atoms: C_9  and  C_27
   11  A    between atoms: O_10  and  C_15
   12  A    between atoms: C_11  and  C_17
   13  A    between atoms: C_11  and  C_28
   14  A    between atoms: C_17  and  C_27
   15  A    between atoms: C_19  and  C_32
   16  A    between atoms: C_21  and  C_36
   17  A    between atoms: C_21  and  O_50
   18  A    between atoms: C_23  and  C_42
   19  A    between atoms: C_23  and  O_50
   20  A    between atoms: O_25  and  C_29
   21  A    between atoms: C_30  and  C_35
   22  A    between atoms: C_30  and  C_51
   23  A    between atoms: C_33  and  C_43
   24  A    between atoms: C_35  and  C_36
   25  A    between atoms: C_42  and  C_48
                            x       y       z     vdW  Elec       q    Type
                         _______ _______ _______ _____ _____    ______ ____

>  <TORSDO>
F 25

$$$$
=
 OpenBabel11062420143D

 52 55  0  0  1  0  0  0  0  0999 V2000
  189.1750  173.3980  141.9540 C   0  0  1  0  0  3  0  0  0  0  0  0
  190.3270  173.1690  139.8470 C   0  0  0  0  0  0  0  0  0  0  0  0
  190.6770  173.7190  138.7960 O   0  0  0  0  0  0  0  0  0  0  0  0
  189.9470  172.5840  140.9550 C   0  0  0  0  0  0  0  0  0  0  0  0
  193.3250  170.3510  142.5970 C   0  0  2  0  0  0  0  0  0  0  0  0
  190.1270  171.1310  141.1570 C   0  0  0  0  0  3  0  0  0  0  0  0
  192.3170  171.2350  142.1320 O   0  0  0  0  0  0  0  0  0  0  0  0
  191.3940  169.0930  141.7460 C   0  0  0  0  0  2  0  0  0  0  0  0
  191.2220  170.5510  141.6480 C   0  0  0  0  0  0  0  0  0  0  0  0
  192.8490  168.9500  142.1870 C   0  0  0  0  0  2  0  0  0  0  0  0
  193.4770  169.3300  144.7600 O   0  0  0  0  0  0  0  0  0  0  0  0
  193.4400  170.4040  144.0960 C   0  0  0  0  0  0  0  0  0  0  0  0
  194.6570  172.0960  145.4010 C   0  0  0  0  0  1  0  0  0  0  0  0
  193.4830  171.6350  144.7490 O   0  0  0  0  0  0  0  0  0  0  0  0
  194.6600  170.6650  141.9170 C   0  0  0  0  0  2  0  0  0  0  0  0
  195.5390  170.8820  139.6320 C   0  0  0  0  0  3  0  0  0  0  0  0
  196.2950  171.8930  139.2850 C   0  0  0  0  0  3  0  0  0  0  0  0
  194.4970  171.3610  140.5650 C   0  0  2  0  0  3  0  0  0  0  0  0
  195.8060  173.1110  139.9640 C   0  0  1  0  0  3  0  0  0  0  0  0
  194.6570  172.7570  140.7080 O   0  0  0  0  0  0  0  0  0  0  0  0
  196.8340  173.6120  140.8670 N   0  0  0  0  0  2  0  0  0  0  0  0
  197.9290  175.6840  139.9540 C   0  0  0  0  0  2  0  0  0  0  0  0
  196.8690  175.0650  140.7720 C   0  0  1  0  0  0  0  0  0  0  0  0
  196.6250  175.4790  139.4540 O   0  0  0  0  0  0  0  0  0  0  0  0
  196.0530  175.8830  141.7610 C   0  0  0  0  0  2  0  0  0  0  0  0
  194.9080  176.3880  141.1460 O   0  0  0  0  0  0  0  0  0  0  0  0
  193.9720  176.3110  142.0700 O   0  0  0  0  0  1  0  0  0  0  0  0
  189.5940  173.1100  143.3950 C   0  0  0  0  0  2  0  0  0  0  0  0
  188.9480  171.9760  143.8930 O   0  0  0  0  0  1  0  0  0  0  0  0
  189.2450  174.8880  141.6330 C   0  0  0  0  0  2  0  0  0  0  0  0
  187.8530  175.4810  141.4480 C   0  0  0  0  0  2  0  0  0  0  0  0
  187.8680  177.0040  141.3930 C   0  0  0  0  0  2  0  0  0  0  0  0
  186.7790  177.5390  140.4730 C   0  0  1  0  0  3  0  0  0  0  0  0
  186.7140  176.7950  139.3090 F   0  0  0  0  0  0  0  0  0  0  0  0
  185.5140  177.5350  141.1270 O   0  0  0  0  0  0  0  0  0  0  0  0
  185.3600  177.9750  142.4410 C   0  0  0  0  0  0  0  0  0  0  0  0
  183.5300  178.7650  143.5400 O   0  0  0  0  0  1  0  0  0  0  0  0
  184.9030  178.9090  143.3740 C   0  0  1  0  0  3  0  0  0  0  0  0
  185.5510  177.7700  143.8580 C   0  0  0  0  0  0  0  0  0  0  0  0
  186.0440  176.9320  144.9890 C   0  0  0  0  0  2  0  0  0  0  0  0
  187.4080  177.4060  145.4920 C   0  0  1  0  0  3  0  0  0  0  0  0
  187.6620  176.9130  146.9040 C   0  0  0  0  0  1  0  0  0  0  0  0
  188.4540  176.9640  144.6280 O   0  0  0  0  0  0  0  0  0  0  0  0
  189.7980  176.9440  145.0150 C   0  0  0  0  0  0  0  0  0  0  0  0
  190.4960  177.9810  144.8700 O   0  0  0  0  0  0  0  0  0  0  0  0
  190.4280  175.7120  145.5840 C   0  0  0  0  0  2  0  0  0  0  0  0
  191.3880  175.7970  147.8730 C   0  0  0  0  0  1  0  0  0  0  0  0
  191.6540  176.0730  146.4060 C   0  0  1  0  0  3  0  0  0  0  0  0
  192.8400  175.2420  145.9530 C   0  0  0  0  0  2  0  0  0  0  0  0
  195.0490  175.7590  145.2220 O   0  0  0  0  0  0  0  0  0  0  0  0
  194.0850  176.0630  145.9730 C   0  0  0  0  0  0  0  0  0  0  0  0
  194.1950  177.1440  146.8420 O   0  0  0  0  0  1  0  0  0  0  0  0
  1 30  1  6  0  0  0
  1 28  1  0  0  0  0
  2  4  2  0  0  0  0
  3  2  2  0  0  0  0
  4  6  1  0  0  0  0
  4  1  1  0  0  0  0
  5 15  1  6  0  0  0
  5 12  1  0  0  0  0
  6  9  2  0  0  0  0
  7  5  1  0  0  0  0
  8 10  1  0  0  0  0
  9  8  1  0  0  0  0
  9  7  1  0  0  0  0
 10  5  1  0  0  0  0
 12 14  1  0  0  0  0
 12 11  2  0  0  0  0
 14 13  1  0  0  0  0
 16 18  1  0  0  0  0
 17 16  2  0  0  0  0
 17 19  1  0  0  0  0
 18 20  1  0  0  0  0
 18 15  1  1  0  0  0
 19 20  1  0  0  0  0
 19 21  1  1  0  0  0
 22 23  1  0  0  0  0
 23 21  1  0  0  0  0
 23 25  1  1  0  0  0
 24 22  1  0  0  0  0
 24 23  1  0  0  0  0
 26 25  1  0  0  0  0
 26 27  1  0  0  0  0
 28 29  1  0  0  0  0
 31 30  1  0  0  0  0
 32 31  1  0  0  0  0
 33 34  1  6  0  0  0
 33 35  1  0  0  0  0
 33 32  1  0  0  0  0
 35 36  1  0  0  0  0
 36 38  1  0  0  0  0
 36 39  2  0  0  0  0
 38 37  1  1  0  0  0
 38 39  1  0  0  0  0
 39 40  1  0  0  0  0
 40 41  1  0  0  0  0
 41 42  1  1  0  0  0
 43 44  1  0  0  0  0
 43 41  1  0  0  0  0
 44 46  1  0  0  0  0
 45 44  2  0  0  0  0
 46 48  1  0  0  0  0
 48 47  1  1  0  0  0
 49 51  1  0  0  0  0
 49 48  1  0  0  0  0
 50 51  2  0  0  0  0
 51 52  1  0  0  0  0
M  END
>  <MODEL>
7

>  <REMARK>
 VINA RESULT:      -4.7      2.274      6.242
  Name = 
  25 active torsions:
  status: ('A' for Active; 'I' for Inactive)
    1  A    between atoms: C_1  and  C_19
    2  A    between atoms: C_1  and  C_29
    3  A    between atoms: C_2  and  C_28
    4  A    between atoms: C_3  and  C_11
    5  A    between atoms: C_4  and  C_9
    6  A    between atoms: C_4  and  O_10
    7  A    between atoms: O_5  and  C_33
    8  A    between atoms: N_8  and  C_34
    9  A    between atoms: N_8  and  C_43
   10  A    between atoms: C_9  and  C_27
   11  A    between atoms: O_10  and  C_15
   12  A    between atoms: C_11  and  C_17
   13  A    between atoms: C_11  and  C_28
   14  A    between atoms: C_17  and  C_27
   15  A    between atoms: C_19  and  C_32
   16  A    between atoms: C_21  and  C_36
   17  A    between atoms: C_21  and  O_50
   18  A    between atoms: C_23  and  C_42
   19  A    between atoms: C_23  and  O_50
   20  A    between atoms: O_25  and  C_29
   21  A    between atoms: C_30  and  C_35
   22  A    between atoms: C_30  and  C_51
   23  A    between atoms: C_33  and  C_43
   24  A    between atoms: C_35  and  C_36
   25  A    between atoms: C_42  and  C_48
                            x       y       z     vdW  Elec       q    Type
                         _______ _______ _______ _____ _____    ______ ____

>  <TORSDO>
F 25

$$$$
=
 OpenBabel11062420143D

 52 55  0  0  1  0  0  0  0  0999 V2000
  193.7370  172.3660  140.1390 C   0  0  1  0  0  3  0  0  0  0  0  0
  194.1280  173.7410  138.1960 C   0  0  0  0  0  0  0  0  0  0  0  0
  194.7110  174.7280  137.7290 O   0  0  0  0  0  0  0  0  0  0  0  0
  193.5030  172.7050  138.6940 C   0  0  0  0  0  0  0  0  0  0  0  0
  189.3840  173.7950  137.7240 C   0  0  2  0  0  0  0  0  0  0  0  0
  192.4790  171.9790  137.9150 C   0  0  0  0  0  3  0  0  0  0  0  0
  190.7420  173.6250  138.0980 O   0  0  0  0  0  0  0  0  0  0  0  0
  190.2150  171.6000  136.9970 C   0  0  0  0  0  2  0  0  0  0  0  0
  191.2320  172.3990  137.7010 C   0  0  0  0  0  0  0  0  0  0  0  0
  188.9450  172.4280  137.1790 C   0  0  0  0  0  2  0  0  0  0  0  0
  190.1840  174.9680  135.7920 O   0  0  0  0  0  0  0  0  0  0  0  0
  189.2490  174.8190  136.6300 C   0  0  0  0  0  0  0  0  0  0  0  0
  187.4400  175.8530  135.3260 C   0  0  0  0  0  1  0  0  0  0  0  0
  188.1060  175.6130  136.5560 O   0  0  0  0  0  0  0  0  0  0  0  0
  188.5390  174.1600  138.9470 C   0  0  0  0  0  2  0  0  0  0  0  0
  188.6570  172.7090  140.9270 C   0  0  0  0  0  3  0  0  0  0  0  0
  188.1370  173.0730  142.0720 C   0  0  0  0  0  3  0  0  0  0  0  0
  189.2530  173.8930  140.2730 C   0  0  2  0  0  3  0  0  0  0  0  0
  188.3540  174.5240  142.2550 C   0  0  1  0  0  3  0  0  0  0  0  0
  189.0960  174.9920  141.1470 O   0  0  0  0  0  0  0  0  0  0  0  0
  187.0670  175.2070  142.3020 N   0  0  0  0  0  2  0  0  0  0  0  0
  186.8450  177.0830  143.9610 C   0  0  0  0  0  2  0  0  0  0  0  0
  187.2940  176.6050  142.6390 C   0  0  1  0  0  0  0  0  0  0  0  0
  188.1850  176.7130  143.7180 O   0  0  0  0  0  0  0  0  0  0  0  0
  187.6610  177.5770  141.5280 C   0  0  0  0  0  2  0  0  0  0  0  0
  186.8600  177.3580  140.4080 O   0  0  0  0  0  0  0  0  0  0  0  0
  185.9250  178.2840  140.4820 O   0  0  0  0  0  1  0  0  0  0  0  0
  195.2200  172.3300  140.5020 C   0  0  0  0  0  2  0  0  0  0  0  0
  195.5070  173.2110  141.5480 O   0  0  0  0  0  1  0  0  0  0  0  0
  192.9520  173.2930  141.0620 C   0  0  0  0  0  2  0  0  0  0  0  0
  192.1080  172.5020  142.0550 C   0  0  0  0  0  2  0  0  0  0  0  0
  191.8410  171.0750  141.5900 C   0  0  0  0  0  2  0  0  0  0  0  0
  192.1660  170.0630  142.6820 C   0  0  1  0  0  3  0  0  0  0  0  0
  193.2560  169.2910  142.3220 F   0  0  0  0  0  0  0  0  0  0  0  0
  192.4160  170.7160  143.9220 O   0  0  0  0  0  0  0  0  0  0  0  0
  193.6080  170.5380  144.6230 C   0  0  0  0  0  0  0  0  0  0  0  0
  194.9690  168.7230  144.8050 O   0  0  0  0  0  1  0  0  0  0  0  0
  194.4210  169.8020  145.4900 C   0  0  1  0  0  3  0  0  0  0  0  0
  194.9350  170.9920  144.9680 C   0  0  0  0  0  0  0  0  0  0  0  0
  196.0400  171.9830  144.8280 C   0  0  0  0  0  2  0  0  0  0  0  0
  195.8370  173.1910  145.7450 C   0  0  1  0  0  3  0  0  0  0  0  0
  197.1450  173.5980  146.3960 C   0  0  0  0  0  1  0  0  0  0  0  0
  195.2890  174.2930  145.0260 O   0  0  0  0  0  0  0  0  0  0  0  0
  194.0910  174.9160  145.3910 C   0  0  0  0  0  0  0  0  0  0  0  0
  194.1250  176.0670  145.8990 O   0  0  0  0  0  0  0  0  0  0  0  0
  192.7700  174.2380  145.2050 C   0  0  0  0  0  2  0  0  0  0  0  0
  191.5000  175.9140  143.8850 C   0  0  0  0  0  1  0  0  0  0  0  0
  191.6410  175.2540  145.2420 C   0  0  1  0  0  3  0  0  0  0  0  0
  190.3370  174.5620  145.5940 C   0  0  0  0  0  2  0  0  0  0  0  0
  189.8250  176.5130  146.8630 O   0  0  0  0  0  0  0  0  0  0  0  0
  189.6610  175.2740  146.7170 C   0  0  0  0  0  0  0  0  0  0  0  0
  188.8750  174.5660  147.6210 O   0  0  0  0  0  1  0  0  0  0  0  0
  1 28  1  1  0  0  0
  1 30  1  0  0  0  0
  2  4  2  0  0  0  0
  3  2  2  0  0  0  0
  4  1  1  0  0  0  0
  5  7  1  0  0  0  0
  5 15  1  1  0  0  0
  6  4  1  0  0  0  0
  8 10  1  0  0  0  0
  8  9  1  0  0  0  0
  9  6  2  0  0  0  0
  9  7  1  0  0  0  0
 10  5  1  0  0  0  0
 11 12  2  0  0  0  0
 12  5  1  0  0  0  0
 13 14  1  0  0  0  0
 14 12  1  0  0  0  0
 16 17  2  0  0  0  0
 17 19  1  0  0  0  0
 18 15  1  6  0  0  0
 18 16  1  0  0  0  0
 18 20  1  0  0  0  0
 19 21  1  6  0  0  0
 20 19  1  0  0  0  0
 21 23  1  0  0  0  0
 23 25  1  6  0  0  0
 23 24  1  0  0  0  0
 23 22  1  0  0  0  0
 24 22  1  0  0  0  0
 26 27  1  0  0  0  0
 26 25  1  0  0  0  0
 28 29  1  0  0  0  0
 30 31  1  0  0  0  0
 32 31  1  0  0  0  0
 32 33  1  0  0  0  0
 33 34  1  6  0  0  0
 33 35  1  0  0  0  0
 35 36  1  0  0  0  0
 36 39  2  0  0  0  0
 36 38  1  0  0  0  0
 38 37  1  6  0  0  0
 39 38  1  0  0  0  0
 40 39  1  0  0  0  0
 40 41  1  0  0  0  0
 41 42  1  6  0  0  0
 43 44  1  0  0  0  0
 43 41  1  0  0  0  0
 44 45  2  0  0  0  0
 46 48  1  0  0  0  0
 46 44  1  0  0  0  0
 48 47  1  6  0  0  0
 48 49  1  0  0  0  0
 49 51  1  0  0  0  0
 51 50  2  0  0  0  0
 51 52  1  0  0  0  0
M  END
>  <MODEL>
8

>  <REMARK>
 VINA RESULT:      -4.6      2.871      8.141
  Name = 
  25 active torsions:
  status: ('A' for Active; 'I' for Inactive)
    1  A    between atoms: C_1  and  C_19
    2  A    between atoms: C_1  and  C_29
    3  A    between atoms: C_2  and  C_28
    4  A    between atoms: C_3  and  C_11
    5  A    between atoms: C_4  and  C_9
    6  A    between atoms: C_4  and  O_10
    7  A    between atoms: O_5  and  C_33
    8  A    between atoms: N_8  and  C_34
    9  A    between atoms: N_8  and  C_43
   10  A    between atoms: C_9  and  C_27
   11  A    between atoms: O_10  and  C_15
   12  A    between atoms: C_11  and  C_17
   13  A    between atoms: C_11  and  C_28
   14  A    between atoms: C_17  and  C_27
   15  A    between atoms: C_19  and  C_32
   16  A    between atoms: C_21  and  C_36
   17  A    between atoms: C_21  and  O_50
   18  A    between atoms: C_23  and  C_42
   19  A    between atoms: C_23  and  O_50
   20  A    between atoms: O_25  and  C_29
   21  A    between atoms: C_30  and  C_35
   22  A    between atoms: C_30  and  C_51
   23  A    between atoms: C_33  and  C_43
   24  A    between atoms: C_35  and  C_36
   25  A    between atoms: C_42  and  C_48
                            x       y       z     vdW  Elec       q    Type
                         _______ _______ _______ _____ _____    ______ ____

>  <TORSDO>
F 25

$$$$
=
 OpenBabel11062420143D

 52 55  0  0  1  0  0  0  0  0999 V2000
  193.5460  173.0440  145.5820 C   0  0  1  0  0  3  0  0  0  0  0  0
  194.7100  170.9360  145.7350 C   0  0  0  0  0  0  0  0  0  0  0  0
  194.6330  169.7320  146.0090 O   0  0  0  0  0  0  0  0  0  0  0  0
  194.7910  172.2130  145.4580 C   0  0  0  0  0  0  0  0  0  0  0  0
  196.4910  173.6820  141.7100 C   0  0  2  0  0  0  0  0  0  0  0  0
  196.0930  172.8570  145.1850 C   0  0  0  0  0  3  0  0  0  0  0  0
  195.7710  173.1910  142.8300 O   0  0  0  0  0  0  0  0  0  0  0  0
  197.8660  173.8000  143.7440 C   0  0  0  0  0  2  0  0  0  0  0  0
  196.5230  173.2460  143.9850 C   0  0  0  0  0  0  0  0  0  0  0  0
  197.9230  173.9070  142.2210 C   0  0  0  0  0  2  0  0  0  0  0  0
  196.5180  175.6380  140.3250 O   0  0  0  0  0  0  0  0  0  0  0  0
  195.9320  174.9980  141.2430 C   0  0  0  0  0  0  0  0  0  0  0  0
  193.4850  175.2180  141.3470 C   0  0  0  0  0  1  0  0  0  0  0  0
  194.7830  175.5170  141.8390 O   0  0  0  0  0  0  0  0  0  0  0  0
  196.4990  172.6420  140.5880 C   0  0  0  0  0  2  0  0  0  0  0  0
  195.7300  170.4360  139.8240 C   0  0  0  0  0  3  0  0  0  0  0  0
  194.6730  170.3080  139.0620 C   0  0  0  0  0  3  0  0  0  0  0  0
  195.4870  171.5160  140.8030 C   0  0  2  0  0  3  0  0  0  0  0  0
  193.6560  171.2950  139.4850 C   0  0  1  0  0  3  0  0  0  0  0  0
  194.1720  171.9910  140.6010 O   0  0  0  0  0  0  0  0  0  0  0  0
  193.4080  172.2330  138.3980 N   0  0  0  0  0  2  0  0  0  0  0  0
  191.3920  172.3000  136.8960 C   0  0  0  0  0  2  0  0  0  0  0  0
  191.9690  172.4030  138.2500 C   0  0  1  0  0  0  0  0  0  0  0  0
  191.3770  171.2130  137.7970 O   0  0  0  0  0  0  0  0  0  0  0  0
  191.1780  173.0010  139.4040 C   0  0  0  0  0  2  0  0  0  0  0  0
  190.4170  172.0170  140.0320 O   0  0  0  0  0  0  0  0  0  0  0  0
  189.1680  172.3480  139.7750 O   0  0  0  0  0  1  0  0  0  0  0  0
  193.8440  174.4970  145.9490 C   0  0  0  0  0  2  0  0  0  0  0  0
  193.5600  175.3570  144.8850 O   0  0  0  0  0  1  0  0  0  0  0  0
  192.6840  172.9450  144.3270 C   0  0  0  0  0  2  0  0  0  0  0  0
  191.2080  173.1520  144.6510 C   0  0  0  0  0  2  0  0  0  0  0  0
  190.3070  172.9320  143.4420 C   0  0  0  0  0  2  0  0  0  0  0  0
  189.8890  174.2550  142.8110 C   0  0  1  0  0  3  0  0  0  0  0  0
  188.5330  174.4670  142.9760 F   0  0  0  0  0  0  0  0  0  0  0  0
  190.6250  175.3390  143.3690 O   0  0  0  0  0  0  0  0  0  0  0  0
  190.1160  176.6360  143.4060 C   0  0  0  0  0  0  0  0  0  0  0  0
  191.1300  178.6180  143.8800 O   0  0  0  0  0  1  0  0  0  0  0  0
  189.9650  177.8750  144.0360 C   0  0  1  0  0  3  0  0  0  0  0  0
  189.3570  177.7000  142.7900 C   0  0  0  0  0  0  0  0  0  0  0  0
  188.5550  178.2210  141.6470 C   0  0  0  0  0  2  0  0  0  0  0  0
  187.0530  178.1040  141.9090 C   0  0  1  0  0  3  0  0  0  0  0  0
  186.6100  176.6530  141.8640 C   0  0  0  0  0  1  0  0  0  0  0  0
  186.7050  178.6790  143.1660 O   0  0  0  0  0  0  0  0  0  0  0  0
  185.3820  178.9280  143.5450 C   0  0  0  0  0  0  0  0  0  0  0  0
  184.4560  178.7390  142.7130 O   0  0  0  0  0  0  0  0  0  0  0  0
  185.0430  179.4300  144.9140 C   0  0  0  0  0  2  0  0  0  0  0  0
  185.7060  179.4210  147.3070 C   0  0  0  0  0  1  0  0  0  0  0  0
  185.9310  178.7710  145.9560 C   0  0  1  0  0  3  0  0  0  0  0  0
  185.5980  177.2940  146.0560 C   0  0  0  0  0  2  0  0  0  0  0  0
  186.3390  176.2130  148.0460 O   0  0  0  0  0  1  0  0  0  0  0  0
  186.6220  176.5870  146.8780 C   0  0  0  0  0  0  0  0  0  0  0  0
  187.8980  176.3690  146.3690 O   0  0  0  0  0  0  0  0  0  0  0  0
  1 30  1  6  0  0  0
  1 28  1  0  0  0  0
  2  3  2  0  0  0  0
  4  1  1  0  0  0  0
  4  2  2  0  0  0  0
  5 15  1  6  0  0  0
  5 10  1  0  0  0  0
  5  7  1  0  0  0  0
  6  4  1  0  0  0  0
  7  9  1  0  0  0  0
  8  9  1  0  0  0  0
  9  6  2  0  0  0  0
 10  8  1  0  0  0  0
 11 12  2  0  0  0  0
 12  5  1  0  0  0  0
 12 14  1  0  0  0  0
 13 14  1  0  0  0  0
 16 18  1  0  0  0  0
 17 19  1  0  0  0  0
 17 16  2  0  0  0  0
 18 15  1  6  0  0  0
 19 21  1  6  0  0  0
 19 20  1  0  0  0  0
 20 18  1  0  0  0  0
 22 24  1  0  0  0  0
 22 23  1  0  0  0  0
 23 21  1  0  0  0  0
 23 25  1  1  0  0  0
 24 23  1  0  0  0  0
 25 26  1  0  0  0  0
 27 26  1  0  0  0  0
 29 28  1  0  0  0  0
 30 31  1  0  0  0  0
 32 31  1  0  0  0  0
 33 34  1  1  0  0  0
 33 35  1  0  0  0  0
 33 32  1  0  0  0  0
 35 36  1  0  0  0  0
 36 38  1  0  0  0  0
 38 37  1  6  0  0  0
 39 36  2  0  0  0  0
 39 38  1  0  0  0  0
 40 41  1  0  0  0  0
 40 39  1  0  0  0  0
 41 42  1  1  0  0  0
 41 43  1  0  0  0  0
 43 44  1  0  0  0  0
 44 46  1  0  0  0  0
 45 44  2  0  0  0  0
 46 48  1  0  0  0  0
 48 49  1  0  0  0  0
 48 47  1  1  0  0  0
 49 51  1  0  0  0  0
 51 50  1  0  0  0  0
 52 51  2  0  0  0  0
M  END
>  <MODEL>
9

>  <REMARK>
 VINA RESULT:      -4.6      2.009      3.305
  Name = 
  25 active torsions:
  status: ('A' for Active; 'I' for Inactive)
    1  A    between atoms: C_1  and  C_19
    2  A    between atoms: C_1  and  C_29
    3  A    between atoms: C_2  and  C_28
    4  A    between atoms: C_3  and  C_11
    5  A    between atoms: C_4  and  C_9
    6  A    between atoms: C_4  and  O_10
    7  A    between atoms: O_5  and  C_33
    8  A    between atoms: N_8  and  C_34
    9  A    between atoms: N_8  and  C_43
   10  A    between atoms: C_9  and  C_27
   11  A    between atoms: O_10  and  C_15
   12  A    between atoms: C_11  and  C_17
   13  A    between atoms: C_11  and  C_28
   14  A    between atoms: C_17  and  C_27
   15  A    between atoms: C_19  and  C_32
   16  A    between atoms: C_21  and  C_36
   17  A    between atoms: C_21  and  O_50
   18  A    between atoms: C_23  and  C_42
   19  A    between atoms: C_23  and  O_50
   20  A    between atoms: O_25  and  C_29
   21  A    between atoms: C_30  and  C_35
   22  A    between atoms: C_30  and  C_51
   23  A    between atoms: C_33  and  C_43
   24  A    between atoms: C_35  and  C_36
   25  A    between atoms: C_42  and  C_48
                            x       y       z     vdW  Elec       q    Type
                         _______ _______ _______ _____ _____    ______ ____

>  <TORSDO>
F 25

$$$$
