=
 OpenBabel11062419293D

 40 44  0  0  1  0  0  0  0  0999 V2000
  191.6250  176.7310  147.4210 N   0  0  0  0  0  0  0  0  0  0  0  0
  190.9750  176.3690  145.3540 C   0  0  0  0  0  0  0  0  0  0  0  0
  190.8760  175.9860  143.9860 N   0  0  0  0  0  2  0  0  0  0  0  0
  188.3980  176.0120  144.3050 C   0  0  0  0  0  3  0  0  0  0  0  0
  191.3060  171.9180  141.6710 C   0  0  0  0  0  2  0  0  0  0  0  0
  190.2930  176.7870  147.4020 N   0  0  0  0  0  2  0  0  0  0  0  0
  189.3160  171.8360  143.1730 C   0  0  0  0  0  2  0  0  0  0  0  0
  189.7770  173.8000  142.1670 C   0  0  2  0  0  3  0  0  0  0  0  0
  193.9750  175.1350  143.5400 C   0  0  0  0  0  0  0  0  0  0  0  0
  192.1260  173.8580  142.8140 O   0  0  0  0  0  0  0  0  0  0  0  0
  194.8040  176.3700  141.6400 C   0  0  0  0  0  2  0  0  0  0  0  0
  192.0660  176.4540  146.1750 C   0  0  0  0  0  0  0  0  0  0  0  0
  189.8890  176.5620  146.1360 C   0  0  0  0  0  0  0  0  0  0  0  0
  194.4320  176.5050  146.4200 O   0  0  0  0  0  0  0  0  0  0  0  0
  193.5710  174.9450  144.8980 N   0  0  0  0  0  2  0  0  0  0  0  0
  190.7090  171.2460  142.9110 C   0  0  0  0  0  2  0  0  0  0  0  0
  189.5720  176.1380  143.3390 C   0  0  2  0  0  3  0  0  0  0  0  0
  193.9010  174.9520  140.9200 S   0  0  0  0  0  0  0  0  0  0  0  0
  189.3990  173.2270  143.3940 O   0  0  0  0  0  0  0  0  0  0  0  0
  193.4230  176.0140  145.8350 C   0  0  0  0  0  0  0  0  0  0  0  0
  193.2940  174.5790  142.5570 C   0  0  0  0  0  0  0  0  0  0  0  0
  191.2290  173.4380  141.7930 C   0  0  1  0  0  3  0  0  0  0  0  0
  188.5300  176.2720  145.6200 C   0  0  0  0  0  0  0  0  0  0  0  0
  195.0390  176.0880  143.1220 C   0  0  0  0  0  2  0  0  0  0  0  0
  189.4400  175.2970  142.0620 C   0  0  0  0  0  2  0  0  0  0  0  0
  187.4010  176.1900  146.4430 O   0  0  0  0  0  0  0  0  0  0  0  0
  186.6490  177.3300  146.8540 C   0  0  0  0  0  2  0  0  0  0  0  0
  185.1750  177.1420  146.5290 C   0  0  0  0  0  2  0  0  0  0  0  0
  184.6430  178.3100  145.7050 C   0  0  0  0  0  2  0  0  0  0  0  0
  185.6710  178.7300  144.6660 C   0  0  2  0  0  3  0  0  0  0  0  0
  185.8270  180.1190  144.6760 O   0  0  0  0  0  1  0  0  0  0  0  0
  185.2800  178.2270  143.2690 C   0  0  2  0  0  3  0  0  0  0  0  0
  186.1300  178.8700  142.1740 C   0  0  0  0  0  2  0  0  0  0  0  0
  186.9010  177.8500  141.3540 C   0  0  0  0  0  1  0  0  0  0  0  0
  183.7890  178.3580  142.9690 C   0  0  0  0  0  2  0  0  0  0  0  0
  182.2080  178.0270  141.0270 C   0  0  0  0  0  0  0  0  0  0  0  0
  182.0410  177.7240  139.8140 O   0  0  0  0  0  0  0  0  0  0  0  0
  183.5190  177.9700  141.5900 N   0  0  0  0  0  2  0  0  0  0  0  0
  181.0350  178.4690  141.8380 C   0  0  0  0  0  2  0  0  0  0  0  0
  180.7180  179.7900  141.5300 O   0  0  0  0  0  1  0  0  0  0  0  0
  2 13  2  0  0  0  0
  2 12  1  0  0  0  0
  3  2  1  0  0  0  0
  4 23  2  0  0  0  0
  5 16  1  0  0  0  0
  6  1  1  0  0  0  0
  7 19  1  0  0  0  0
  8 25  1  1  0  0  0
  8 19  1  0  0  0  0
  9 15  1  0  0  0  0
 11 24  1  0  0  0  0
 12  1  2  0  0  0  0
 13  6  1  0  0  0  0
 15 20  1  0  0  0  0
 16  7  1  0  0  0  0
 17 25  1  6  0  0  0
 17  3  1  0  0  0  0
 17  4  1  0  0  0  0
 18 11  1  0  0  0  0
 18 21  1  0  0  0  0
 20 12  1  0  0  0  0
 20 14  2  0  0  0  0
 21 10  1  0  0  0  0
 21  9  2  0  0  0  0
 22  5  1  1  0  0  0
 22  8  1  0  0  0  0
 22 10  1  0  0  0  0
 23 13  1  0  0  0  0
 23 26  1  0  0  0  0
 24  9  1  0  0  0  0
 26 27  1  0  0  0  0
 28 27  1  0  0  0  0
 29 28  1  0  0  0  0
 30 31  1  6  0  0  0
 30 29  1  0  0  0  0
 32 33  1  6  0  0  0
 32 30  1  0  0  0  0
 34 33  1  0  0  0  0
 35 32  1  0  0  0  0
 36 38  1  0  0  0  0
 36 39  1  0  0  0  0
 37 36  2  0  0  0  0
 38 35  1  0  0  0  0
 40 39  1  0  0  0  0
M  END
>  <MODEL>
1

>  <REMARK>
 VINA RESULT:      -7.4      0.000      0.000
  Name = 
  10 active torsions:
  status: ('A' for Active; 'I' for Inactive)
    1  A    between atoms: C_1  and  C_4
    2  A    between atoms: C_3  and  C_31
    3  A    between atoms: C_4  and  C_11
    4  A    between atoms: C_4  and  C_16
    5  A    between atoms: C_11  and  N_36
    6  A    between atoms: C_12  and  C_14
    7  A    between atoms: C_12  and  C_23
    8  A    between atoms: C_14  and  O_25
    9  A    between atoms: C_16  and  C_23
   10  A    between atoms: O_25  and  C_37
                            x       y       z     vdW  Elec       q    Type
                         _______ _______ _______ _____ _____    ______ ____

>  <TORSDO>
F 10

$$$$
=
 OpenBabel11062419293D

 40 44  0  0  1  0  0  0  0  0999 V2000
  194.5070  176.2090  146.1700 N   0  0  0  0  0  0  0  0  0  0  0  0
  193.0900  176.0090  144.5040 C   0  0  0  0  0  0  0  0  0  0  0  0
  192.4240  175.6630  143.2940 N   0  0  0  0  0  2  0  0  0  0  0  0
  190.2940  176.2360  144.4700 C   0  0  0  0  0  3  0  0  0  0  0  0
  191.1270  171.6110  141.2950 C   0  0  0  0  0  2  0  0  0  0  0  0
  193.3020  176.5590  146.6220 N   0  0  0  0  0  2  0  0  0  0  0  0
  189.8490  171.9660  143.4080 C   0  0  0  0  0  2  0  0  0  0  0  0
  190.3100  173.7830  142.1560 C   0  0  2  0  0  3  0  0  0  0  0  0
  194.8990  174.1500  141.8430 C   0  0  0  0  0  0  0  0  0  0  0  0
  192.6900  173.3160  141.9210 O   0  0  0  0  0  0  0  0  0  0  0  0
  195.2180  175.1780  139.6840 C   0  0  0  0  0  2  0  0  0  0  0  0
  194.3970  175.8470  144.8740 C   0  0  0  0  0  0  0  0  0  0  0  0
  192.4290  176.4340  145.6030 C   0  0  0  0  0  0  0  0  0  0  0  0
  196.6460  175.3720  144.2580 O   0  0  0  0  0  0  0  0  0  0  0  0
  194.9860  174.0480  143.2660 N   0  0  0  0  0  2  0  0  0  0  0  0
  190.8960  171.0830  142.7140 C   0  0  0  0  0  2  0  0  0  0  0  0
  191.0350  176.1030  143.1420 C   0  0  2  0  0  3  0  0  0  0  0  0
  193.8420  173.9990  139.4420 S   0  0  0  0  0  0  0  0  0  0  0  0
  190.2930  173.3030  143.4780 O   0  0  0  0  0  0  0  0  0  0  0  0
  195.4140  175.1190  144.1100 C   0  0  0  0  0  0  0  0  0  0  0  0
  193.8080  173.7620  141.2110 C   0  0  0  0  0  0  0  0  0  0  0  0
  191.4170  173.1100  141.3210 C   0  0  1  0  0  3  0  0  0  0  0  0
  190.9460  176.4550  145.6280 C   0  0  0  0  0  0  0  0  0  0  0  0
  195.9110  174.8450  141.0020 C   0  0  0  0  0  2  0  0  0  0  0  0
  190.2770  175.3180  142.0640 C   0  0  0  0  0  2  0  0  0  0  0  0
  190.2030  176.6220  146.8010 O   0  0  0  0  0  0  0  0  0  0  0  0
  188.9080  177.2200  146.8290 C   0  0  0  0  0  2  0  0  0  0  0  0
  187.8420  176.1710  147.1060 C   0  0  0  0  0  2  0  0  0  0  0  0
  186.4580  176.6860  146.7260 C   0  0  0  0  0  2  0  0  0  0  0  0
  186.4860  178.1980  146.5660 C   0  0  2  0  0  3  0  0  0  0  0  0
  185.8130  178.8080  147.6300 O   0  0  0  0  0  1  0  0  0  0  0  0
  185.8870  178.6220  145.2180 C   0  0  2  0  0  3  0  0  0  0  0  0
  184.3760  178.8240  145.3040 C   0  0  0  0  0  2  0  0  0  0  0  0
  183.7220  178.9600  143.9400 C   0  0  0  0  0  1  0  0  0  0  0  0
  186.2620  177.6930  144.0660 C   0  0  0  0  0  2  0  0  0  0  0  0
  187.7330  177.9730  142.0320 C   0  0  0  0  0  0  0  0  0  0  0  0
  188.7910  178.4360  141.5240 O   0  0  0  0  0  0  0  0  0  0  0  0
  187.4880  178.1540  143.4270 N   0  0  0  0  0  2  0  0  0  0  0  0
  186.7470  177.2740  141.1570 C   0  0  0  0  0  2  0  0  0  0  0  0
  185.9000  178.2060  140.5610 O   0  0  0  0  0  1  0  0  0  0  0  0
  1  6  1  0  0  0  0
  2 12  1  0  0  0  0
  2 13  2  0  0  0  0
  3  2  1  0  0  0  0
  4 23  2  0  0  0  0
  5 16  1  0  0  0  0
  7 19  1  0  0  0  0
  8 25  1  1  0  0  0
  8 19  1  0  0  0  0
  9 15  1  0  0  0  0
 11 24  1  0  0  0  0
 12  1  2  0  0  0  0
 13 23  1  0  0  0  0
 13  6  1  0  0  0  0
 15 20  1  0  0  0  0
 16  7  1  0  0  0  0
 17 25  1  6  0  0  0
 17  3  1  0  0  0  0
 17  4  1  0  0  0  0
 18 11  1  0  0  0  0
 18 21  1  0  0  0  0
 20 14  2  0  0  0  0
 20 12  1  0  0  0  0
 21  9  2  0  0  0  0
 21 10  1  0  0  0  0
 22  5  1  1  0  0  0
 22 10  1  0  0  0  0
 22  8  1  0  0  0  0
 23 26  1  0  0  0  0
 24  9  1  0  0  0  0
 26 27  1  0  0  0  0
 27 28  1  0  0  0  0
 29 28  1  0  0  0  0
 30 29  1  0  0  0  0
 30 31  1  1  0  0  0
 32 35  1  6  0  0  0
 32 33  1  0  0  0  0
 32 30  1  0  0  0  0
 34 33  1  0  0  0  0
 36 38  1  0  0  0  0
 37 36  2  0  0  0  0
 38 35  1  0  0  0  0
 39 36  1  0  0  0  0
 40 39  1  0  0  0  0
M  END
>  <MODEL>
2

>  <REMARK>
 VINA RESULT:      -7.2      2.111      2.985
  Name = 
  10 active torsions:
  status: ('A' for Active; 'I' for Inactive)
    1  A    between atoms: C_1  and  C_4
    2  A    between atoms: C_3  and  C_31
    3  A    between atoms: C_4  and  C_11
    4  A    between atoms: C_4  and  C_16
    5  A    between atoms: C_11  and  N_36
    6  A    between atoms: C_12  and  C_14
    7  A    between atoms: C_12  and  C_23
    8  A    between atoms: C_14  and  O_25
    9  A    between atoms: C_16  and  C_23
   10  A    between atoms: O_25  and  C_37
                            x       y       z     vdW  Elec       q    Type
                         _______ _______ _______ _____ _____    ______ ____

>  <TORSDO>
F 10

$$$$
=
 OpenBabel11062419293D

 40 44  0  0  1  0  0  0  0  0999 V2000
  188.2090  174.2240  137.8650 N   0  0  0  0  0  0  0  0  0  0  0  0
  188.6730  173.9940  140.0000 C   0  0  0  0  0  0  0  0  0  0  0  0
  189.2450  173.6500  141.2570 N   0  0  0  0  0  2  0  0  0  0  0  0
  188.1270  175.6940  142.1620 C   0  0  0  0  0  3  0  0  0  0  0  0
  193.4960  174.1830  143.1920 C   0  0  0  0  0  2  0  0  0  0  0  0
  187.6090  175.2200  138.5170 N   0  0  0  0  0  0  0  0  0  0  0  0
  192.4410  176.4140  142.8280 C   0  0  0  0  0  2  0  0  0  0  0  0
  191.0910  174.7150  143.4380 C   0  0  2  0  0  3  0  0  0  0  0  0
  191.3770  171.4510  140.1890 C   0  0  0  0  0  0  0  0  0  0  0  0
  191.8870  173.1540  141.7440 O   0  0  0  0  0  0  0  0  0  0  0  0
  191.0050  169.4140  141.4270 C   0  0  0  0  0  2  0  0  0  0  0  0
  188.8870  173.4670  138.7550 C   0  0  2  0  0  3  0  0  0  0  0  0
  187.8940  175.0850  139.8270 C   0  0  0  0  0  0  0  0  0  0  0  0
  189.7760  171.7200  137.4060 O   0  0  0  0  0  0  0  0  0  0  0  0
  191.1060  172.4420  139.1950 N   0  0  0  0  0  2  0  0  0  0  0  0
  193.5960  175.4940  142.4070 C   0  0  0  0  0  2  0  0  0  0  0  0
  188.6970  174.3070  142.4460 C   0  0  2  0  0  3  0  0  0  0  0  0
  192.0320  170.4510  142.5290 S   0  0  0  0  0  0  0  0  0  0  0  0
  191.1960  175.8050  142.5570 O   0  0  0  0  0  0  0  0  0  0  0  0
  189.9090  172.4730  138.4150 C   0  0  0  0  0  0  0  0  0  0  0  0
  191.7840  171.8050  141.3930 C   0  0  0  0  0  0  0  0  0  0  0  0
  192.0900  173.5960  143.0810 C   0  0  1  0  0  3  0  0  0  0  0  0
  187.6890  176.0460  140.9380 C   0  0  0  0  0  0  0  0  0  0  0  0
  191.0570  170.0070  140.0210 C   0  0  0  0  0  2  0  0  0  0  0  0
  189.6430  174.2410  143.6510 C   0  0  0  0  0  2  0  0  0  0  0  0
  187.1280  177.3140  140.7580 O   0  0  0  0  0  0  0  0  0  0  0  0
  187.1880  178.3430  141.7440 C   0  0  0  0  0  2  0  0  0  0  0  0
  185.7970  178.6510  142.2790 C   0  0  0  0  0  2  0  0  0  0  0  0
  185.8480  178.9990  143.7630 C   0  0  0  0  0  2  0  0  0  0  0  0
  184.8000  178.2030  144.5250 C   0  0  2  0  0  3  0  0  0  0  0  0
  183.7030  179.0160  144.8290 O   0  0  0  0  0  1  0  0  0  0  0  0
  185.3960  177.5810  145.7960 C   0  0  2  0  0  3  0  0  0  0  0  0
  184.9080  178.2880  147.0590 C   0  0  0  0  0  2  0  0  0  0  0  0
  185.9430  179.2390  147.6360 C   0  0  0  0  0  1  0  0  0  0  0  0
  186.9190  177.4760  145.7670 C   0  0  0  0  0  2  0  0  0  0  0  0
  188.6380  175.9460  146.8080 C   0  0  0  0  0  0  0  0  0  0  0  0
  188.9320  174.8060  147.2580 O   0  0  0  0  0  0  0  0  0  0  0  0
  187.3410  176.1690  146.2530 N   0  0  0  0  0  2  0  0  0  0  0  0
  189.6420  177.0480  146.8960 C   0  0  0  0  0  2  0  0  0  0  0  0
  190.2160  177.2650  145.6450 O   0  0  0  0  0  1  0  0  0  0  0  0
  1  6  2  0  0  0  0
  2  3  1  0  0  0  0
  3 17  1  0  0  0  0
  6 13  1  0  0  0  0
  8 25  1  6  0  0  0
  9 21  2  0  0  0  0
 10 22  1  0  0  0  0
 11 18  1  0  0  0  0
 12  1  1  6  0  0  0
 12  2  1  0  0  0  0
 13  2  2  0  0  0  0
 13 23  1  0  0  0  0
 14 20  2  0  0  0  0
 15  9  1  0  0  0  0
 16  7  1  0  0  0  0
 16  5  1  0  0  0  0
 17  4  1  6  0  0  0
 17 25  1  0  0  0  0
 19  7  1  0  0  0  0
 19  8  1  0  0  0  0
 20 12  1  0  0  0  0
 20 15  1  0  0  0  0
 21 10  1  0  0  0  0
 21 18  1  0  0  0  0
 22  5  1  6  0  0  0
 22  8  1  0  0  0  0
 23  4  2  0  0  0  0
 24  9  1  0  0  0  0
 24 11  1  0  0  0  0
 26 23  1  0  0  0  0
 26 27  1  0  0  0  0
 27 28  1  0  0  0  0
 28 29  1  0  0  0  0
 29 30  1  0  0  0  0
 30 31  1  1  0  0  0
 30 32  1  0  0  0  0
 32 35  1  6  0  0  0
 32 33  1  0  0  0  0
 33 34  1  0  0  0  0
 35 38  1  0  0  0  0
 36 39  1  0  0  0  0
 36 37  2  0  0  0  0
 38 36  1  0  0  0  0
 40 39  1  0  0  0  0
M  END
>  <MODEL>
3

>  <REMARK>
 VINA RESULT:      -7.2      2.952      6.276
  Name = 
  10 active torsions:
  status: ('A' for Active; 'I' for Inactive)
    1  A    between atoms: C_1  and  C_4
    2  A    between atoms: C_3  and  C_31
    3  A    between atoms: C_4  and  C_11
    4  A    between atoms: C_4  and  C_16
    5  A    between atoms: C_11  and  N_36
    6  A    between atoms: C_12  and  C_14
    7  A    between atoms: C_12  and  C_23
    8  A    between atoms: C_14  and  O_25
    9  A    between atoms: C_16  and  C_23
   10  A    between atoms: O_25  and  C_37
                            x       y       z     vdW  Elec       q    Type
                         _______ _______ _______ _____ _____    ______ ____

>  <TORSDO>
F 10

$$$$
=
 OpenBabel11062419293D

 40 44  0  0  1  0  0  0  0  0999 V2000
  190.8820  173.0690  141.7310 N   0  0  0  0  0  0  0  0  0  0  0  0
  192.1790  173.8530  143.3220 C   0  0  0  0  0  0  0  0  0  0  0  0
  193.2260  174.0870  144.2580 N   0  0  0  0  0  2  0  0  0  0  0  0
  192.4670  176.4680  144.2950 C   0  0  0  0  0  3  0  0  0  0  0  0
  197.8630  174.7670  143.9030 C   0  0  0  0  0  2  0  0  0  0  0  0
  190.5470  174.3440  141.9320 N   0  0  0  0  0  0  0  0  0  0  0  0
  196.6400  176.6660  142.8440 C   0  0  0  0  0  2  0  0  0  0  0  0
  195.7380  175.7570  144.6980 C   0  0  2  0  0  3  0  0  0  0  0  0
  194.8530  171.3180  143.8030 C   0  0  0  0  0  0  0  0  0  0  0  0
  195.8610  173.4510  143.9210 O   0  0  0  0  0  0  0  0  0  0  0  0
  195.1150  170.2640  145.9580 C   0  0  0  0  0  2  0  0  0  0  0  0
  191.8980  172.7500  142.5620 C   0  0  2  0  0  3  0  0  0  0  0  0
  191.3430  174.8300  142.9050 C   0  0  0  0  0  0  0  0  0  0  0  0
  192.2550  170.4410  142.1120 O   0  0  0  0  0  0  0  0  0  0  0  0
  194.1560  171.7140  142.6200 N   0  0  0  0  0  2  0  0  0  0  0  0
  197.5730  175.4760  142.5770 C   0  0  0  0  0  2  0  0  0  0  0  0
  193.1710  175.3310  145.0290 C   0  0  2  0  0  3  0  0  0  0  0  0
  196.4450  171.5160  145.8840 S   0  0  0  0  0  0  0  0  0  0  0  0
  195.4250  176.2290  143.4120 O   0  0  0  0  0  0  0  0  0  0  0  0
  192.7460  171.5590  142.4450 C   0  0  0  0  0  0  0  0  0  0  0  0
  195.6930  172.1470  144.3940 C   0  0  0  0  0  0  0  0  0  0  0  0
  196.5630  174.4560  144.6420 C   0  0  1  0  0  3  0  0  0  0  0  0
  191.5550  176.2340  143.3310 C   0  0  0  0  0  0  0  0  0  0  0  0
  194.5660  170.0620  144.5470 C   0  0  0  0  0  2  0  0  0  0  0  0
  194.5250  175.7090  145.6430 C   0  0  0  0  0  2  0  0  0  0  0  0
  190.9060  177.3210  142.7360 O   0  0  0  0  0  0  0  0  0  0  0  0
  189.7670  177.9610  143.3070 C   0  0  0  0  0  2  0  0  0  0  0  0
  188.5840  177.8960  142.3520 C   0  0  0  0  0  2  0  0  0  0  0  0
  187.2660  178.0440  143.1050 C   0  0  0  0  0  2  0  0  0  0  0  0
  186.9080  176.7390  143.7990 C   0  0  2  0  0  3  0  0  0  0  0  0
  186.3250  175.8530  142.8880 O   0  0  0  0  0  1  0  0  0  0  0  0
  185.9840  176.9870  144.9990 C   0  0  2  0  0  3  0  0  0  0  0  0
  185.4180  178.4060  144.9970 C   0  0  0  0  0  2  0  0  0  0  0  0
  184.4750  178.6640  146.1600 C   0  0  0  0  0  1  0  0  0  0  0  0
  186.6210  176.6420  146.3420 C   0  0  0  0  0  2  0  0  0  0  0  0
  189.1070  176.6270  146.7890 C   0  0  0  0  0  0  0  0  0  0  0  0
  190.1940  177.2640  146.8490 O   0  0  0  0  0  0  0  0  0  0  0  0
  187.9010  177.3250  146.4810 N   0  0  0  0  0  2  0  0  0  0  0  0
  189.1120  175.1500  147.0090 C   0  0  0  0  0  2  0  0  0  0  0  0
  189.4230  174.4960  145.8190 O   0  0  0  0  0  1  0  0  0  0  0  0
  1  6  2  0  0  0  0
  2  3  1  0  0  0  0
  3 17  1  0  0  0  0
  6 13  1  0  0  0  0
  7 19  1  0  0  0  0
  8 25  1  1  0  0  0
  9 21  2  0  0  0  0
  9 24  1  0  0  0  0
 10 21  1  0  0  0  0
 10 22  1  0  0  0  0
 12  1  1  6  0  0  0
 12  2  1  0  0  0  0
 13  2  2  0  0  0  0
 13 23  1  0  0  0  0
 14 20  2  0  0  0  0
 15  9  1  0  0  0  0
 16  7  1  0  0  0  0
 16  5  1  0  0  0  0
 17  4  1  6  0  0  0
 17 25  1  0  0  0  0
 18 11  1  0  0  0  0
 19  8  1  0  0  0  0
 20 12  1  0  0  0  0
 20 15  1  0  0  0  0
 21 18  1  0  0  0  0
 22  5  1  6  0  0  0
 22  8  1  0  0  0  0
 23  4  2  0  0  0  0
 24 11  1  0  0  0  0
 26 27  1  0  0  0  0
 26 23  1  0  0  0  0
 28 29  1  0  0  0  0
 28 27  1  0  0  0  0
 29 30  1  0  0  0  0
 30 31  1  6  0  0  0
 30 32  1  0  0  0  0
 32 33  1  1  0  0  0
 32 35  1  0  0  0  0
 33 34  1  0  0  0  0
 35 38  1  0  0  0  0
 36 37  2  0  0  0  0
 36 39  1  0  0  0  0
 38 36  1  0  0  0  0
 40 39  1  0  0  0  0
M  END
>  <MODEL>
4

>  <REMARK>
 VINA RESULT:      -7.2      3.102      6.134
  Name = 
  10 active torsions:
  status: ('A' for Active; 'I' for Inactive)
    1  A    between atoms: C_1  and  C_4
    2  A    between atoms: C_3  and  C_31
    3  A    between atoms: C_4  and  C_11
    4  A    between atoms: C_4  and  C_16
    5  A    between atoms: C_11  and  N_36
    6  A    between atoms: C_12  and  C_14
    7  A    between atoms: C_12  and  C_23
    8  A    between atoms: C_14  and  O_25
    9  A    between atoms: C_16  and  C_23
   10  A    between atoms: O_25  and  C_37
                            x       y       z     vdW  Elec       q    Type
                         _______ _______ _______ _____ _____    ______ ____

>  <TORSDO>
F 10

$$$$
=
 OpenBabel11062419293D

 40 44  0  0  1  0  0  0  0  0999 V2000
  189.0630  173.8730  138.7220 N   0  0  0  0  0  0  0  0  0  0  0  0
  189.5840  173.5330  140.8280 C   0  0  0  0  0  0  0  0  0  0  0  0
  190.2390  173.2250  142.0550 N   0  0  0  0  0  2  0  0  0  0  0  0
  188.5600  174.7110  143.1580 C   0  0  0  0  0  3  0  0  0  0  0  0
  194.1390  174.7680  144.1780 C   0  0  0  0  0  2  0  0  0  0  0  0
  188.1930  174.5550  139.4680 N   0  0  0  0  0  0  0  0  0  0  0  0
  192.4570  176.6060  144.0460 C   0  0  0  0  0  2  0  0  0  0  0  0
  191.6870  174.5180  144.4060 C   0  0  2  0  0  3  0  0  0  0  0  0
  192.9310  171.9170  140.8040 C   0  0  0  0  0  0  0  0  0  0  0  0
  192.9100  173.4890  142.5660 O   0  0  0  0  0  0  0  0  0  0  0  0
  193.1990  169.7270  141.7780 C   0  0  0  0  0  2  0  0  0  0  0  0
  189.9420  173.2520  139.5380 C   0  0  2  0  0  3  0  0  0  0  0  0
  188.5110  174.3510  140.7610 C   0  0  0  0  0  0  0  0  0  0  0  0
  191.3120  172.0330  138.0210 O   0  0  0  0  0  0  0  0  0  0  0  0
  192.3690  172.8960  139.9260 N   0  0  0  0  0  2  0  0  0  0  0  0
  193.8340  176.1350  143.5580 C   0  0  0  0  0  2  0  0  0  0  0  0
  189.5240  173.5350  143.2940 C   0  0  2  0  0  3  0  0  0  0  0  0
  193.8690  170.8810  143.0290 S   0  0  0  0  0  0  0  0  0  0  0  0
  191.4530  175.6900  143.6650 O   0  0  0  0  0  0  0  0  0  0  0  0
  191.2160  172.6610  139.1160 C   0  0  0  0  0  0  0  0  0  0  0  0
  193.2180  172.2270  142.0540 C   0  0  0  0  0  0  0  0  0  0  0  0
  192.9760  173.8040  143.9520 C   0  0  1  0  0  3  0  0  0  0  0  0
  188.0300  175.0620  141.9710 C   0  0  0  0  0  0  0  0  0  0  0  0
  193.0630  170.4770  140.4560 C   0  0  0  0  0  2  0  0  0  0  0  0
  190.4510  173.6080  144.5140 C   0  0  0  0  0  2  0  0  0  0  0  0
  187.1110  176.1150  141.9240 O   0  0  0  0  0  0  0  0  0  0  0  0
  187.4850  177.4700  141.6840 C   0  0  0  0  0  2  0  0  0  0  0  0
  186.3000  178.3980  141.9080 C   0  0  0  0  0  2  0  0  0  0  0  0
  186.1790  178.7850  143.3780 C   0  0  0  0  0  2  0  0  0  0  0  0
  184.9610  178.1180  143.9980 C   0  0  2  0  0  3  0  0  0  0  0  0
  183.9110  179.0350  144.1050 O   0  0  0  0  0  1  0  0  0  0  0  0
  185.3030  177.5060  145.3640 C   0  0  2  0  0  3  0  0  0  0  0  0
  184.4440  178.0950  146.4820 C   0  0  0  0  0  2  0  0  0  0  0  0
  185.2200  179.0410  147.3820 C   0  0  0  0  0  1  0  0  0  0  0  0
  186.7890  177.5720  145.7070 C   0  0  0  0  0  2  0  0  0  0  0  0
  188.5740  176.0850  146.6980 C   0  0  0  0  0  0  0  0  0  0  0  0
  188.8780  175.0060  147.2750 O   0  0  0  0  0  0  0  0  0  0  0  0
  187.2160  176.3240  146.3270 N   0  0  0  0  0  2  0  0  0  0  0  0
  189.6370  177.1030  146.4440 C   0  0  0  0  0  2  0  0  0  0  0  0
  189.8880  177.8240  147.6100 O   0  0  0  0  0  1  0  0  0  0  0  0
  1  6  2  0  0  0  0
  2  3  1  0  0  0  0
  3 17  1  0  0  0  0
  6 13  1  0  0  0  0
  8 25  1  6  0  0  0
  9 21  2  0  0  0  0
 10 22  1  0  0  0  0
 11 18  1  0  0  0  0
 12  1  1  6  0  0  0
 12  2  1  0  0  0  0
 13  2  2  0  0  0  0
 13 23  1  0  0  0  0
 14 20  2  0  0  0  0
 15  9  1  0  0  0  0
 16  7  1  0  0  0  0
 16  5  1  0  0  0  0
 17  4  1  6  0  0  0
 17 25  1  0  0  0  0
 19  7  1  0  0  0  0
 19  8  1  0  0  0  0
 20 12  1  0  0  0  0
 20 15  1  0  0  0  0
 21 10  1  0  0  0  0
 21 18  1  0  0  0  0
 22  5  1  6  0  0  0
 22  8  1  0  0  0  0
 23  4  2  0  0  0  0
 24  9  1  0  0  0  0
 24 11  1  0  0  0  0
 26 23  1  0  0  0  0
 27 28  1  0  0  0  0
 27 26  1  0  0  0  0
 28 29  1  0  0  0  0
 29 30  1  0  0  0  0
 30 31  1  1  0  0  0
 30 32  1  0  0  0  0
 32 35  1  1  0  0  0
 32 33  1  0  0  0  0
 33 34  1  0  0  0  0
 35 38  1  0  0  0  0
 36 37  2  0  0  0  0
 38 36  1  0  0  0  0
 39 36  1  0  0  0  0
 39 40  1  0  0  0  0
M  END
>  <MODEL>
5

>  <REMARK>
 VINA RESULT:      -7.1      2.735      5.911
  Name = 
  10 active torsions:
  status: ('A' for Active; 'I' for Inactive)
    1  A    between atoms: C_1  and  C_4
    2  A    between atoms: C_3  and  C_31
    3  A    between atoms: C_4  and  C_11
    4  A    between atoms: C_4  and  C_16
    5  A    between atoms: C_11  and  N_36
    6  A    between atoms: C_12  and  C_14
    7  A    between atoms: C_12  and  C_23
    8  A    between atoms: C_14  and  O_25
    9  A    between atoms: C_16  and  C_23
   10  A    between atoms: O_25  and  C_37
                            x       y       z     vdW  Elec       q    Type
                         _______ _______ _______ _____ _____    ______ ____

>  <TORSDO>
F 10

$$$$
=
 OpenBabel11062419293D

 40 44  0  0  1  0  0  0  0  0999 V2000
  191.9890  173.1370  140.9960 N   0  0  0  0  0  0  0  0  0  0  0  0
  191.6990  174.9110  142.2580 C   0  0  0  0  0  0  0  0  0  0  0  0
  191.1670  175.9790  143.0350 N   0  0  0  0  0  2  0  0  0  0  0  0
  193.3730  176.0370  144.2080 C   0  0  0  0  0  3  0  0  0  0  0  0
  188.3120  176.2320  146.7600 C   0  0  0  0  0  2  0  0  0  0  0  0
  193.1290  173.3560  141.6520 N   0  0  0  0  0  2  0  0  0  0  0  0
  190.4520  175.1230  147.4010 C   0  0  0  0  0  2  0  0  0  0  0  0
  190.5630  176.8060  145.9060 C   0  0  2  0  0  3  0  0  0  0  0  0
  188.0470  175.5970  142.2330 C   0  0  0  0  0  0  0  0  0  0  0  0
  188.8230  175.9400  144.4370 O   0  0  0  0  0  0  0  0  0  0  0  0
  187.2420  177.7140  141.4010 C   0  0  0  0  0  2  0  0  0  0  0  0
  191.0880  174.0700  141.3690 C   0  0  0  0  0  0  0  0  0  0  0  0
  192.9550  174.4410  142.4300 C   0  0  0  0  0  0  0  0  0  0  0  0
  189.1960  173.5580  140.0190 O   0  0  0  0  0  0  0  0  0  0  0  0
  188.7560  174.3570  142.1780 N   0  0  0  0  0  2  0  0  0  0  0  0
  188.9410  174.9160  147.2260 C   0  0  0  0  0  2  0  0  0  0  0  0
  192.1160  176.7970  143.7920 C   0  0  2  0  0  3  0  0  0  0  0  0
  187.1630  177.8650  143.2220 S   0  0  0  0  0  0  0  0  0  0  0  0
  191.0460  175.5150  146.1830 O   0  0  0  0  0  0  0  0  0  0  0  0
  189.6450  174.0020  141.1160 C   0  0  0  0  0  0  0  0  0  0  0  0
  188.0590  176.3250  143.3330 C   0  0  0  0  0  0  0  0  0  0  0  0
  189.0630  176.7890  145.5520 C   0  0  1  0  0  3  0  0  0  0  0  0
  193.8070  174.9580  143.5280 C   0  0  0  0  0  0  0  0  0  0  0  0
  187.4160  176.2390  141.0480 C   0  0  0  0  0  2  0  0  0  0  0  0
  191.4480  177.5900  144.9220 C   0  0  0  0  0  2  0  0  0  0  0  0
  194.9960  174.3400  143.9290 O   0  0  0  0  0  0  0  0  0  0  0  0
  196.0540  175.0320  144.5900 C   0  0  0  0  0  2  0  0  0  0  0  0
  197.1620  174.0650  144.9790 C   0  0  0  0  0  2  0  0  0  0  0  0
  196.7150  173.1500  146.1140 C   0  0  0  0  0  2  0  0  0  0  0  0
  197.0060  171.6990  145.7650 C   0  0  2  0  0  3  0  0  0  0  0  0
  197.6400  171.6200  144.5210 O   0  0  0  0  0  1  0  0  0  0  0  0
  195.7220  170.8580  145.7850 C   0  0  2  0  0  3  0  0  0  0  0  0
  195.9840  169.4310  146.2630 C   0  0  0  0  0  2  0  0  0  0  0  0
  194.9360  168.9390  147.2470 C   0  0  0  0  0  1  0  0  0  0  0  0
  194.9610  170.8740  144.4620 C   0  0  0  0  0  2  0  0  0  0  0  0
  192.4740  170.9840  144.0370 C   0  0  0  0  0  0  0  0  0  0  0  0
  191.3670  171.5430  144.2640 O   0  0  0  0  0  0  0  0  0  0  0  0
  193.6600  171.5050  144.6380 N   0  0  0  0  0  2  0  0  0  0  0  0
  192.5150  169.7690  143.1700 C   0  0  0  0  0  2  0  0  0  0  0  0
  191.5950  169.8980  142.1320 O   0  0  0  0  0  1  0  0  0  0  0  0
  1 12  2  0  0  0  0
  1  6  1  0  0  0  0
  2 13  2  0  0  0  0
  2  3  1  0  0  0  0
  3 17  1  0  0  0  0
  5 16  1  0  0  0  0
  6 13  1  0  0  0  0
  8 25  1  6  0  0  0
  8 19  1  0  0  0  0
  9 21  2  0  0  0  0
 10 22  1  0  0  0  0
 11 18  1  0  0  0  0
 12  2  1  0  0  0  0
 13 23  1  0  0  0  0
 14 20  2  0  0  0  0
 15  9  1  0  0  0  0
 16  7  1  0  0  0  0
 17  4  1  1  0  0  0
 17 25  1  0  0  0  0
 18 21  1  0  0  0  0
 19  7  1  0  0  0  0
 20 12  1  0  0  0  0
 20 15  1  0  0  0  0
 21 10  1  0  0  0  0
 22  8  1  0  0  0  0
 22  5  1  1  0  0  0
 23 26  1  0  0  0  0
 23  4  2  0  0  0  0
 24 11  1  0  0  0  0
 24  9  1  0  0  0  0
 26 27  1  0  0  0  0
 27 28  1  0  0  0  0
 28 29  1  0  0  0  0
 30 31  1  6  0  0  0
 30 32  1  0  0  0  0
 30 29  1  0  0  0  0
 32 35  1  6  0  0  0
 32 33  1  0  0  0  0
 33 34  1  0  0  0  0
 35 38  1  0  0  0  0
 36 37  2  0  0  0  0
 36 38  1  0  0  0  0
 39 36  1  0  0  0  0
 40 39  1  0  0  0  0
M  END
>  <MODEL>
6

>  <REMARK>
 VINA RESULT:      -6.9      3.702      9.183
  Name = 
  10 active torsions:
  status: ('A' for Active; 'I' for Inactive)
    1  A    between atoms: C_1  and  C_4
    2  A    between atoms: C_3  and  C_31
    3  A    between atoms: C_4  and  C_11
    4  A    between atoms: C_4  and  C_16
    5  A    between atoms: C_11  and  N_36
    6  A    between atoms: C_12  and  C_14
    7  A    between atoms: C_12  and  C_23
    8  A    between atoms: C_14  and  O_25
    9  A    between atoms: C_16  and  C_23
   10  A    between atoms: O_25  and  C_37
                            x       y       z     vdW  Elec       q    Type
                         _______ _______ _______ _____ _____    ______ ____

>  <TORSDO>
F 10

$$$$
=
 OpenBabel11062419293D

 40 44  0  0  1  0  0  0  0  0999 V2000
  190.4540  172.4380  143.8600 N   0  0  0  0  0  0  0  0  0  0  0  0
  192.2810  173.1840  144.8240 C   0  0  0  0  0  0  0  0  0  0  0  0
  193.6230  173.4290  145.2340 N   0  0  0  0  0  2  0  0  0  0  0  0
  192.8390  175.6930  145.9460 C   0  0  0  0  0  3  0  0  0  0  0  0
  197.5730  174.6550  143.0010 C   0  0  0  0  0  2  0  0  0  0  0  0
  190.1790  173.6380  144.3710 N   0  0  0  0  0  2  0  0  0  0  0  0
  195.9100  176.5100  142.8700 C   0  0  0  0  0  2  0  0  0  0  0  0
  195.9780  175.3100  144.7770 C   0  0  2  0  0  3  0  0  0  0  0  0
  195.0160  170.9240  143.7160 C   0  0  0  0  0  0  0  0  0  0  0  0
  195.8590  173.1300  143.6950 O   0  0  0  0  0  0  0  0  0  0  0  0
  196.2660  169.6780  145.3620 C   0  0  0  0  0  2  0  0  0  0  0  0
  191.7490  172.1460  144.1090 C   0  0  0  0  0  0  0  0  0  0  0  0
  191.2980  174.1010  144.9600 C   0  0  0  0  0  0  0  0  0  0  0  0
  191.9850  169.9530  143.2160 O   0  0  0  0  0  0  0  0  0  0  0  0
  193.8450  171.3670  143.0270 N   0  0  0  0  0  2  0  0  0  0  0  0
  196.6850  175.4670  142.0530 C   0  0  0  0  0  2  0  0  0  0  0  0
  193.8540  174.5680  146.1250 C   0  0  2  0  0  3  0  0  0  0  0  0
  197.3570  171.0710  144.9010 S   0  0  0  0  0  0  0  0  0  0  0  0
  195.1000  175.8820  143.8390 O   0  0  0  0  0  0  0  0  0  0  0  0
  192.5150  171.0760  143.4620 C   0  0  0  0  0  0  0  0  0  0  0  0
  195.9870  171.7720  143.9970 C   0  0  0  0  0  0  0  0  0  0  0  0
  196.7570  174.1230  144.1770 C   0  0  1  0  0  3  0  0  0  0  0  0
  191.6060  175.4660  145.4520 C   0  0  0  0  0  0  0  0  0  0  0  0
  195.1560  169.5700  144.3180 C   0  0  0  0  0  2  0  0  0  0  0  0
  195.3180  175.0260  146.1370 C   0  0  0  0  0  2  0  0  0  0  0  0
  190.7050  176.5320  145.3650 O   0  0  0  0  0  0  0  0  0  0  0  0
  190.7710  177.5310  144.3490 C   0  0  0  0  0  2  0  0  0  0  0  0
  189.4780  177.5620  143.5480 C   0  0  0  0  0  2  0  0  0  0  0  0
  188.3530  176.8590  144.3000 C   0  0  0  0  0  2  0  0  0  0  0  0
  187.5090  177.8750  145.0530 C   0  0  2  0  0  3  0  0  0  0  0  0
  187.7380  177.7670  146.4290 O   0  0  0  0  0  1  0  0  0  0  0  0
  186.0190  177.7070  144.7250 C   0  0  2  0  0  3  0  0  0  0  0  0
  185.2210  177.2240  145.9350 C   0  0  0  0  0  2  0  0  0  0  0  0
  184.2690  178.2790  146.4710 C   0  0  0  0  0  1  0  0  0  0  0  0
  185.7580  176.8350  143.5000 C   0  0  0  0  0  2  0  0  0  0  0  0
  185.4110  178.0580  141.3170 C   0  0  0  0  0  0  0  0  0  0  0  0
  184.6190  178.6200  140.5130 O   0  0  0  0  0  0  0  0  0  0  0  0
  184.9090  177.5440  142.5510 N   0  0  0  0  0  2  0  0  0  0  0  0
  186.8500  177.9150  140.9470 C   0  0  0  0  0  2  0  0  0  0  0  0
  187.0640  176.6710  140.3560 O   0  0  0  0  0  1  0  0  0  0  0  0
  1 12  2  0  0  0  0
  1  6  1  0  0  0  0
  2 13  2  0  0  0  0
  2  3  1  0  0  0  0
  3 17  1  0  0  0  0
  6 13  1  0  0  0  0
  7 19  1  0  0  0  0
  8 25  1  1  0  0  0
  9 21  2  0  0  0  0
  9 24  1  0  0  0  0
 10 21  1  0  0  0  0
 10 22  1  0  0  0  0
 12  2  1  0  0  0  0
 13 23  1  0  0  0  0
 14 20  2  0  0  0  0
 15 20  1  0  0  0  0
 15  9  1  0  0  0  0
 16  7  1  0  0  0  0
 16  5  1  0  0  0  0
 17  4  1  6  0  0  0
 17 25  1  0  0  0  0
 18 11  1  0  0  0  0
 19  8  1  0  0  0  0
 20 12  1  0  0  0  0
 21 18  1  0  0  0  0
 22  5  1  6  0  0  0
 22  8  1  0  0  0  0
 23  4  2  0  0  0  0
 24 11  1  0  0  0  0
 26 23  1  0  0  0  0
 27 26  1  0  0  0  0
 28 29  1  0  0  0  0
 28 27  1  0  0  0  0
 29 30  1  0  0  0  0
 30 31  1  1  0  0  0
 32 35  1  6  0  0  0
 32 30  1  0  0  0  0
 32 33  1  0  0  0  0
 33 34  1  0  0  0  0
 36 38  1  0  0  0  0
 37 36  2  0  0  0  0
 38 35  1  0  0  0  0
 39 36  1  0  0  0  0
 40 39  1  0  0  0  0
M  END
>  <MODEL>
7

>  <REMARK>
 VINA RESULT:      -6.9      2.907      5.213
  Name = 
  10 active torsions:
  status: ('A' for Active; 'I' for Inactive)
    1  A    between atoms: C_1  and  C_4
    2  A    between atoms: C_3  and  C_31
    3  A    between atoms: C_4  and  C_11
    4  A    between atoms: C_4  and  C_16
    5  A    between atoms: C_11  and  N_36
    6  A    between atoms: C_12  and  C_14
    7  A    between atoms: C_12  and  C_23
    8  A    between atoms: C_14  and  O_25
    9  A    between atoms: C_16  and  C_23
   10  A    between atoms: O_25  and  C_37
                            x       y       z     vdW  Elec       q    Type
                         _______ _______ _______ _____ _____    ______ ____

>  <TORSDO>
F 10

$$$$
=
 OpenBabel11062419293D

 40 44  0  0  1  0  0  0  0  0999 V2000
  190.4600  172.6790  144.5090 N   0  0  0  0  0  0  0  0  0  0  0  0
  192.2920  173.8400  144.8530 C   0  0  0  0  0  0  0  0  0  0  0  0
  193.6340  174.3150  144.9140 N   0  0  0  0  0  2  0  0  0  0  0  0
  192.6620  176.6120  145.0740 C   0  0  0  0  0  3  0  0  0  0  0  0
  196.9850  175.1220  141.7190 C   0  0  0  0  0  2  0  0  0  0  0  0
  190.1030  173.9500  144.6920 N   0  0  0  0  0  2  0  0  0  0  0  0
  195.0810  176.6960  141.3720 C   0  0  0  0  0  2  0  0  0  0  0  0
  195.6070  176.1560  143.4960 C   0  0  2  0  0  3  0  0  0  0  0  0
  195.1110  171.5920  143.9540 C   0  0  0  0  0  0  0  0  0  0  0  0
  195.6270  173.7460  143.1350 O   0  0  0  0  0  0  0  0  0  0  0  0
  196.7590  171.0280  145.6230 C   0  0  0  0  0  2  0  0  0  0  0  0
  191.8060  172.5900  144.5830 C   0  0  0  0  0  0  0  0  0  0  0  0
  191.2240  174.6670  144.9000 C   0  0  0  0  0  0  0  0  0  0  0  0
  192.2040  170.2580  144.3360 O   0  0  0  0  0  0  0  0  0  0  0  0
  193.7980  171.6970  143.3990 N   0  0  0  0  0  2  0  0  0  0  0  0
  195.8590  175.5210  140.7610 C   0  0  0  0  0  2  0  0  0  0  0  0
  193.8390  175.6890  145.3760 C   0  0  2  0  0  3  0  0  0  0  0  0
  197.5630  172.2980  144.5820 S   0  0  0  0  0  0  0  0  0  0  0  0
  194.5240  176.3320  142.6160 O   0  0  0  0  0  0  0  0  0  0  0  0
  192.6040  171.4420  144.1420 C   0  0  0  0  0  0  0  0  0  0  0  0
  195.9870  172.5650  143.7880 C   0  0  0  0  0  0  0  0  0  0  0  0
  196.4410  174.9120  143.1310 C   0  0  1  0  0  3  0  0  0  0  0  0
  191.4120  176.1380  144.9090 C   0  0  0  0  0  0  0  0  0  0  0  0
  195.5290  170.5080  144.8840 C   0  0  0  0  0  2  0  0  0  0  0  0
  195.2090  176.2520  144.9790 C   0  0  0  0  0  2  0  0  0  0  0  0
  190.3690  177.0430  144.6870 O   0  0  0  0  0  0  0  0  0  0  0  0
  190.4000  178.0390  143.6660 C   0  0  0  0  0  2  0  0  0  0  0  0
  189.8290  177.4890  142.3680 C   0  0  0  0  0  2  0  0  0  0  0  0
  188.3780  177.9210  142.1840 C   0  0  0  0  0  2  0  0  0  0  0  0
  187.4420  176.9010  142.8140 C   0  0  2  0  0  3  0  0  0  0  0  0
  187.1990  175.8530  141.9200 O   0  0  0  0  0  1  0  0  0  0  0  0
  186.1310  177.5590  143.2640 C   0  0  2  0  0  3  0  0  0  0  0  0
  186.1590  179.0750  143.0710 C   0  0  0  0  0  2  0  0  0  0  0  0
  185.3590  179.8170  144.1270 C   0  0  0  0  0  1  0  0  0  0  0  0
  185.7160  177.1850  144.6850 C   0  0  0  0  0  2  0  0  0  0  0  0
  187.3670  176.7240  146.5390 C   0  0  0  0  0  0  0  0  0  0  0  0
  188.2170  175.9480  147.0560 O   0  0  0  0  0  0  0  0  0  0  0  0
  186.7450  176.3610  145.3070 N   0  0  0  0  0  2  0  0  0  0  0  0
  187.0080  177.9890  147.2450 C   0  0  0  0  0  2  0  0  0  0  0  0
  185.9620  177.7540  148.1350 O   0  0  0  0  0  1  0  0  0  0  0  0
  1 12  2  0  0  0  0
  1  6  1  0  0  0  0
  2 13  2  0  0  0  0
  2  3  1  0  0  0  0
  3 17  1  0  0  0  0
  4 17  1  0  0  0  0
  6 13  1  0  0  0  0
  7 19  1  0  0  0  0
  8 25  1  1  0  0  0
  9 24  1  0  0  0  0
 10 21  1  0  0  0  0
 12  2  1  0  0  0  0
 13 23  1  0  0  0  0
 15  9  1  0  0  0  0
 15 20  1  0  0  0  0
 16  7  1  0  0  0  0
 16  5  1  0  0  0  0
 17 25  1  6  0  0  0
 18 11  1  0  0  0  0
 19  8  1  0  0  0  0
 20 14  2  0  0  0  0
 20 12  1  0  0  0  0
 21  9  2  0  0  0  0
 21 18  1  0  0  0  0
 22  5  1  6  0  0  0
 22 10  1  0  0  0  0
 22  8  1  0  0  0  0
 23  4  2  0  0  0  0
 24 11  1  0  0  0  0
 26 23  1  0  0  0  0
 27 26  1  0  0  0  0
 28 27  1  0  0  0  0
 29 28  1  0  0  0  0
 29 30  1  0  0  0  0
 30 31  1  6  0  0  0
 30 32  1  0  0  0  0
 32 33  1  1  0  0  0
 32 35  1  0  0  0  0
 33 34  1  0  0  0  0
 35 38  1  0  0  0  0
 36 37  2  0  0  0  0
 36 39  1  0  0  0  0
 38 36  1  0  0  0  0
 39 40  1  0  0  0  0
M  END
>  <MODEL>
8

>  <REMARK>
 VINA RESULT:      -6.9      3.118      5.398
  Name = 
  10 active torsions:
  status: ('A' for Active; 'I' for Inactive)
    1  A    between atoms: C_1  and  C_4
    2  A    between atoms: C_3  and  C_31
    3  A    between atoms: C_4  and  C_11
    4  A    between atoms: C_4  and  C_16
    5  A    between atoms: C_11  and  N_36
    6  A    between atoms: C_12  and  C_14
    7  A    between atoms: C_12  and  C_23
    8  A    between atoms: C_14  and  O_25
    9  A    between atoms: C_16  and  C_23
   10  A    between atoms: O_25  and  C_37
                            x       y       z     vdW  Elec       q    Type
                         _______ _______ _______ _____ _____    ______ ____

>  <TORSDO>
F 10

$$$$
=
 OpenBabel11062419293D

 40 44  0  0  1  0  0  0  0  0999 V2000
  189.2210  172.0600  142.0450 N   0  0  0  0  0  0  0  0  0  0  0  0
  190.5880  172.7300  143.6290 C   0  0  0  0  0  0  0  0  0  0  0  0
  191.6950  172.9310  144.5030 N   0  0  0  0  0  2  0  0  0  0  0  0
  190.7280  175.1860  144.9770 C   0  0  0  0  0  3  0  0  0  0  0  0
  196.1940  174.1400  143.8850 C   0  0  0  0  0  2  0  0  0  0  0  0
  188.7920  173.2490  142.4720 N   0  0  0  0  0  0  0  0  0  0  0  0
  194.7070  176.0370  143.2420 C   0  0  0  0  0  2  0  0  0  0  0  0
  194.0740  174.7710  144.9960 C   0  0  2  0  0  3  0  0  0  0  0  0
  193.5170  170.4470  143.4850 C   0  0  0  0  0  0  0  0  0  0  0  0
  194.3320  172.6330  143.8560 O   0  0  0  0  0  0  0  0  0  0  0  0
  194.0800  169.1160  145.4170 C   0  0  0  0  0  2  0  0  0  0  0  0
  190.3380  171.7300  142.7300 C   0  0  2  0  0  3  0  0  0  0  0  0
  189.6300  173.6650  143.4410 C   0  0  0  0  0  0  0  0  0  0  0  0
  190.8590  169.5650  141.8930 O   0  0  0  0  0  0  0  0  0  0  0  0
  192.6750  170.9400  142.4400 N   0  0  0  0  0  2  0  0  0  0  0  0
  195.7140  175.0050  142.7150 C   0  0  0  0  0  2  0  0  0  0  0  0
  191.6010  174.0320  145.4630 C   0  0  2  0  0  3  0  0  0  0  0  0
  195.2770  170.4990  145.4350 S   0  0  0  0  0  0  0  0  0  0  0  0
  193.5970  175.3950  143.8300 O   0  0  0  0  0  0  0  0  0  0  0  0
  191.2750  170.6660  142.3580 C   0  0  0  0  0  0  0  0  0  0  0  0
  194.3300  171.2620  144.1290 C   0  0  0  0  0  0  0  0  0  0  0  0
  195.0060  173.5870  144.6680 C   0  0  1  0  0  3  0  0  0  0  0  0
  189.7530  175.0040  144.0660 C   0  0  0  0  0  0  0  0  0  0  0  0
  193.4190  169.0710  144.0420 C   0  0  0  0  0  2  0  0  0  0  0  0
  192.9680  174.4550  146.0170 C   0  0  0  0  0  2  0  0  0  0  0  0
  188.9530  176.0930  143.7050 O   0  0  0  0  0  0  0  0  0  0  0  0
  189.2290  176.9280  142.5810 C   0  0  0  0  0  2  0  0  0  0  0  0
  188.1200  176.8130  141.5470 C   0  0  0  0  0  2  0  0  0  0  0  0
  186.8460  176.2530  142.1720 C   0  0  0  0  0  2  0  0  0  0  0  0
  185.7570  177.3140  142.1870 C   0  0  2  0  0  3  0  0  0  0  0  0
  186.1280  178.3970  141.3830 O   0  0  0  0  0  1  0  0  0  0  0  0
  185.4500  177.7690  143.6200 C   0  0  2  0  0  3  0  0  0  0  0  0
  186.1890  179.0570  143.9800 C   0  0  0  0  0  2  0  0  0  0  0  0
  185.2480  180.2010  144.3140 C   0  0  0  0  0  1  0  0  0  0  0  0
  185.6790  176.6820  144.6680 C   0  0  0  0  0  2  0  0  0  0  0  0
  186.2420  177.0800  147.0980 C   0  0  0  0  0  0  0  0  0  0  0  0
  185.9170  177.5750  148.2100 O   0  0  0  0  0  0  0  0  0  0  0  0
  185.3420  177.1840  145.9940 N   0  0  0  0  0  2  0  0  0  0  0  0
  187.5750  176.4230  146.9500 C   0  0  0  0  0  2  0  0  0  0  0  0
  188.5550  177.3880  146.7240 O   0  0  0  0  0  1  0  0  0  0  0  0
  1  6  2  0  0  0  0
  2  3  1  0  0  0  0
  3 17  1  0  0  0  0
  6 13  1  0  0  0  0
  7 19  1  0  0  0  0
  8 25  1  6  0  0  0
  9 24  1  0  0  0  0
  9 21  2  0  0  0  0
 10 21  1  0  0  0  0
 10 22  1  0  0  0  0
 11 18  1  0  0  0  0
 12  1  1  6  0  0  0
 12  2  1  0  0  0  0
 13  2  2  0  0  0  0
 13 23  1  0  0  0  0
 14 20  2  0  0  0  0
 15  9  1  0  0  0  0
 16  7  1  0  0  0  0
 16  5  1  0  0  0  0
 17  4  1  6  0  0  0
 17 25  1  0  0  0  0
 19  8  1  0  0  0  0
 20 15  1  0  0  0  0
 20 12  1  0  0  0  0
 21 18  1  0  0  0  0
 22  5  1  6  0  0  0
 22  8  1  0  0  0  0
 23  4  2  0  0  0  0
 24 11  1  0  0  0  0
 26 23  1  0  0  0  0
 27 26  1  0  0  0  0
 28 29  1  0  0  0  0
 28 27  1  0  0  0  0
 29 30  1  0  0  0  0
 30 31  1  6  0  0  0
 30 32  1  0  0  0  0
 32 33  1  1  0  0  0
 32 35  1  0  0  0  0
 33 34  1  0  0  0  0
 35 38  1  0  0  0  0
 36 37  2  0  0  0  0
 38 36  1  0  0  0  0
 39 36  1  0  0  0  0
 40 39  1  0  0  0  0
M  END
>  <MODEL>
9

>  <REMARK>
 VINA RESULT:      -6.9      2.816      5.589
  Name = 
  10 active torsions:
  status: ('A' for Active; 'I' for Inactive)
    1  A    between atoms: C_1  and  C_4
    2  A    between atoms: C_3  and  C_31
    3  A    between atoms: C_4  and  C_11
    4  A    between atoms: C_4  and  C_16
    5  A    between atoms: C_11  and  N_36
    6  A    between atoms: C_12  and  C_14
    7  A    between atoms: C_12  and  C_23
    8  A    between atoms: C_14  and  O_25
    9  A    between atoms: C_16  and  C_23
   10  A    between atoms: O_25  and  C_37
                            x       y       z     vdW  Elec       q    Type
                         _______ _______ _______ _____ _____    ______ ____

>  <TORSDO>
F 10

$$$$
