=
 OpenBabel11062419273D

 38 43  0  0  1  0  0  0  0  0999 V2000
  189.9970  170.8540  140.8100 O   0  0  0  0  0  0  0  0  0  0  0  0
  192.3280  169.7270  139.7910 C   0  0  0  0  0  1  0  0  0  0  0  0
  188.2440  176.8600  146.4310 C   0  0  0  0  0  3  0  0  0  0  0  0
  187.6930  176.5980  145.2280 C   0  0  0  0  0  0  0  0  0  0  0  0
  193.8000  174.6550  146.0000 O   0  0  0  0  0  0  0  0  0  0  0  0
  190.0350  172.1600  144.3010 C   0  0  0  0  0  3  0  0  0  0  0  0
  189.5660  176.2940  146.7140 C   0  0  0  0  0  0  0  0  0  0  0  0
  188.4960  173.7610  141.4250 C   0  0  0  0  0  2  0  0  0  0  0  0
  189.6290  172.0410  142.8600 C   0  0  1  0  0  3  0  0  0  0  0  0
  190.8390  173.7710  139.7620 C   0  0  0  0  0  2  0  0  0  0  0  0
  190.0690  175.1300  145.9480 C   0  0  2  0  0  3  0  0  0  0  0  0
  189.8060  173.3610  142.1070 C   0  0  1  0  0  3  0  0  0  0  0  0
  191.2070  172.6190  144.6660 C   0  0  0  0  0  0  0  0  0  0  0  0
  192.2080  173.9530  139.1160 C   0  0  0  0  0  2  0  0  0  0  0  0
  191.7890  176.2710  146.9880 N   0  0  0  0  0  0  0  0  0  0  0  0
  190.5660  176.9380  147.2840 C   0  0  0  0  0  3  0  0  0  0  0  0
  188.0540  175.8470  142.7580 C   0  0  0  0  0  2  0  0  0  0  0  0
  188.4990  175.8830  144.1850 C   0  0  0  0  0  0  0  0  0  0  0  0
  192.8580  172.6250  138.7450 C   0  0  0  0  0  2  0  0  0  0  0  0
  192.6050  174.3520  145.7420 C   0  0  0  0  0  0  0  0  0  0  0  0
  190.4420  170.9640  142.1460 C   0  0  2  0  0  3  0  0  0  0  0  0
  192.3760  173.0860  145.0130 C   0  0  0  0  0  3  0  0  0  0  0  0
  192.4980  170.9730  140.6500 C   0  0  1  0  0  3  0  0  0  0  0  0
  193.4620  171.9530  139.9760 C   0  0  0  0  0  2  0  0  0  0  0  0
  191.5350  175.2740  146.1980 C   0  0  0  0  0  0  0  0  0  0  0  0
  189.6610  175.2920  144.5100 C   0  0  0  0  0  3  0  0  0  0  0  0
  190.9660  173.1230  141.1390 C   0  0  1  0  0  3  0  0  0  0  0  0
  191.1560  171.6200  141.0350 C   0  0  1  0  0  0  0  0  0  0  0  0
  187.5470  174.4560  142.3940 C   0  0  0  0  0  2  0  0  0  0  0  0
  186.3470  177.1690  144.8680 C   0  0  1  0  0  3  0  0  0  0  0  0
  185.2510  176.7870  145.8550 C   0  0  0  0  0  1  0  0  0  0  0  0
  186.3940  178.6720  144.5950 C   0  0  0  0  0  2  0  0  0  0  0  0
  186.0720  179.0140  143.1460 C   0  0  0  0  0  2  0  0  0  0  0  0
  185.0350  178.0520  142.5900 C   0  0  1  0  0  3  0  0  0  0  0  0
  183.7640  178.4760  142.9780 O   0  0  0  0  0  1  0  0  0  0  0  0
  184.2930  178.5710  140.4090 O   0  0  0  0  0  0  0  0  0  0  0  0
  185.1190  177.9880  141.0930 C   0  0  0  0  0  0  0  0  0  0  0  0
  186.1250  177.3040  140.4870 F   0  0  0  0  0  0  0  0  0  0  0  0
  3  7  1  0  0  0  0
  4  3  2  0  0  0  0
  6 13  2  0  0  0  0
  7 16  2  0  0  0  0
  8 29  1  0  0  0  0
  9  6  1  1  0  0  0
 11 26  1  6  0  0  0
 11 25  1  0  0  0  0
 11  7  1  0  0  0  0
 12  8  1  6  0  0  0
 12  9  1  0  0  0  0
 13 22  2  0  0  0  0
 14 10  1  0  0  0  0
 15 16  1  0  0  0  0
 17 18  1  0  0  0  0
 18 26  2  0  0  0  0
 18  4  1  0  0  0  0
 19 14  1  0  0  0  0
 19 24  1  0  0  0  0
 20  5  2  0  0  0  0
 20 25  1  0  0  0  0
 21  1  1  6  0  0  0
 21  9  1  0  0  0  0
 22 20  1  0  0  0  0
 23  2  1  6  0  0  0
 23 28  1  0  0  0  0
 24 23  1  0  0  0  0
 25 15  2  0  0  0  0
 27 10  1  6  0  0  0
 27 12  1  0  0  0  0
 28  1  1  6  0  0  0
 28 27  1  0  0  0  0
 28 21  1  0  0  0  0
 29 17  1  0  0  0  0
 30  4  1  0  0  0  0
 30 31  1  1  0  0  0
 32 30  1  0  0  0  0
 33 32  1  0  0  0  0
 34 35  1  6  0  0  0
 34 33  1  0  0  0  0
 36 37  2  0  0  0  0
 37 34  1  0  0  0  0
 38 37  1  0  0  0  0
M  END
>  <MODEL>
1

>  <REMARK>
 VINA RESULT:      -8.5      0.000      0.000
  Name = 
  5 active torsions:
  status: ('A' for Active; 'I' for Inactive)
    1  A    between atoms: C_4  and  C_6
    2  A    between atoms: C_6  and  C_28
    3  A    between atoms: C_11  and  C_22
    4  A    between atoms: C_11  and  C_24
    5  A    between atoms: C_24  and  C_28
                            x       y       z     vdW  Elec       q    Type
                         _______ _______ _______ _____ _____    ______ ____

>  <TORSDO>
F 5

$$$$
=
 OpenBabel11062419273D

 38 43  0  0  1  0  0  0  0  0999 V2000
  196.0090  174.6070  144.7240 O   0  0  0  0  0  0  0  0  0  0  0  0
  197.7880  172.9230  143.4040 C   0  0  0  0  0  1  0  0  0  0  0  0
  187.7580  176.1520  144.1960 C   0  0  0  0  0  3  0  0  0  0  0  0
  188.5550  176.0090  145.2740 C   0  0  0  0  0  0  0  0  0  0  0  0
  190.5210  173.0020  139.9110 O   0  0  0  0  0  0  0  0  0  0  0  0
  193.0450  175.8770  142.8530 C   0  0  0  0  0  3  0  0  0  0  0  0
  188.2420  175.6300  142.9150 C   0  0  0  0  0  0  0  0  0  0  0  0
  193.0680  174.6740  146.2820 C   0  0  0  0  0  2  0  0  0  0  0  0
  193.8690  175.4370  144.0290 C   0  0  1  0  0  3  0  0  0  0  0  0
  194.2470  172.1150  145.7240 C   0  0  0  0  0  2  0  0  0  0  0  0
  189.6880  175.3900  142.6940 C   0  0  2  0  0  3  0  0  0  0  0  0
  193.1970  174.3020  144.8040 C   0  0  1  0  0  3  0  0  0  0  0  0
  192.6120  175.0380  141.9440 C   0  0  0  0  0  0  0  0  0  0  0  0
  194.6140  170.7140  145.2440 C   0  0  0  0  0  2  0  0  0  0  0  0
  188.3910  174.2200  141.1810 N   0  0  0  0  0  0  0  0  0  0  0  0
  187.5230  174.9390  142.0510 C   0  0  0  0  0  3  0  0  0  0  0  0
  190.5560  174.7570  146.3820 C   0  0  0  0  0  2  0  0  0  0  0  0
  189.8130  175.2010  145.1620 C   0  0  0  0  0  0  0  0  0  0  0  0
  196.0020  170.6610  144.6150 C   0  0  0  0  0  2  0  0  0  0  0  0
  190.7630  173.8430  140.8160 C   0  0  0  0  0  0  0  0  0  0  0  0
  195.2530  174.9660  143.5860 C   0  0  2  0  0  3  0  0  0  0  0  0
  192.1820  174.1880  141.0500 C   0  0  0  0  0  3  0  0  0  0  0  0
  196.3080  172.7010  143.1210 C   0  0  1  0  0  3  0  0  0  0  0  0
  195.9750  171.2080  143.1900 C   0  0  0  0  0  2  0  0  0  0  0  0
  189.6160  174.4250  141.5560 C   0  0  0  0  0  0  0  0  0  0  0  0
  190.2760  174.8260  143.9570 C   0  0  0  0  0  3  0  0  0  0  0  0
  194.0610  173.0670  144.5440 C   0  0  1  0  0  3  0  0  0  0  0  0
  195.3940  173.5610  144.0100 C   0  0  1  0  0  0  0  0  0  0  0  0
  191.8480  175.5530  146.5350 C   0  0  0  0  0  2  0  0  0  0  0  0
  188.1060  176.5030  146.6230 C   0  0  1  0  0  3  0  0  0  0  0  0
  188.7330  177.8360  147.0110 C   0  0  0  0  0  1  0  0  0  0  0  0
  186.5850  176.5030  146.7790 C   0  0  0  0  0  2  0  0  0  0  0  0
  186.0060  177.9090  146.8740 C   0  0  0  0  0  2  0  0  0  0  0  0
  184.9530  178.1240  145.8000 C   0  0  1  0  0  3  0  0  0  0  0  0
  183.7870  178.6080  146.3920 O   0  0  0  0  0  1  0  0  0  0  0  0
  184.6600  179.8620  144.2280 O   0  0  0  0  0  0  0  0  0  0  0  0
  185.4430  179.0940  144.7650 C   0  0  0  0  0  0  0  0  0  0  0  0
  186.7600  179.1430  144.4320 F   0  0  0  0  0  0  0  0  0  0  0  0
  3  4  2  0  0  0  0
  4 30  1  0  0  0  0
  5 20  2  0  0  0  0
  7  3  1  0  0  0  0
  8 29  1  0  0  0  0
  9  6  1  6  0  0  0
  9 12  1  0  0  0  0
 11  7  1  0  0  0  0
 11 26  1  1  0  0  0
 12  8  1  1  0  0  0
 13  6  2  0  0  0  0
 14 10  1  0  0  0  0
 15 25  2  0  0  0  0
 15 16  1  0  0  0  0
 16  7  2  0  0  0  0
 17 29  1  0  0  0  0
 18  4  1  0  0  0  0
 18 17  1  0  0  0  0
 19 14  1  0  0  0  0
 20 22  1  0  0  0  0
 20 25  1  0  0  0  0
 21 28  1  0  0  0  0
 21  9  1  0  0  0  0
 21  1  1  1  0  0  0
 22 13  2  0  0  0  0
 23 24  1  0  0  0  0
 23  2  1  1  0  0  0
 23 28  1  0  0  0  0
 24 19  1  0  0  0  0
 25 11  1  0  0  0  0
 26 18  2  0  0  0  0
 27 12  1  0  0  0  0
 27 10  1  1  0  0  0
 28 27  1  0  0  0  0
 28  1  1  1  0  0  0
 30 32  1  0  0  0  0
 30 31  1  6  0  0  0
 32 33  1  0  0  0  0
 34 35  1  1  0  0  0
 34 33  1  0  0  0  0
 36 37  2  0  0  0  0
 37 34  1  0  0  0  0
 38 37  1  0  0  0  0
M  END
>  <MODEL>
2

>  <REMARK>
 VINA RESULT:      -8.4      2.676      5.042
  Name = 
  5 active torsions:
  status: ('A' for Active; 'I' for Inactive)
    1  A    between atoms: C_4  and  C_6
    2  A    between atoms: C_6  and  C_28
    3  A    between atoms: C_11  and  C_22
    4  A    between atoms: C_11  and  C_24
    5  A    between atoms: C_24  and  C_28
                            x       y       z     vdW  Elec       q    Type
                         _______ _______ _______ _____ _____    ______ ____

>  <TORSDO>
F 5

$$$$
=
 OpenBabel11062419273D

 38 43  0  0  1  0  0  0  0  0999 V2000
  188.3970  177.1680  146.0430 O   0  0  0  0  0  0  0  0  0  0  0  0
  185.8480  177.4080  144.9540 C   0  0  0  0  0  1  0  0  0  0  0  0
  195.1360  172.3970  144.4430 C   0  0  0  0  0  3  0  0  0  0  0  0
  195.0420  173.7090  144.7350 C   0  0  0  0  0  0  0  0  0  0  0  0
  189.8410  171.0700  141.9700 O   0  0  0  0  0  0  0  0  0  0  0  0
  190.0790  173.8430  145.9120 C   0  0  0  0  0  3  0  0  0  0  0  0
  193.9290  171.7140  143.9700 C   0  0  1  0  0  3  0  0  0  0  0  0
  191.6290  177.0630  145.2500 C   0  0  0  0  0  2  0  0  0  0  0  0
  189.9450  175.3390  145.9530 C   0  0  1  0  0  3  0  0  0  0  0  0
  189.7670  177.9150  143.2350 C   0  0  0  0  0  2  0  0  0  0  0  0
  192.5860  172.2810  144.2380 C   0  0  2  0  0  3  0  0  0  0  0  0
  190.6360  176.0060  144.7620 C   0  0  1  0  0  3  0  0  0  0  0  0
  189.7370  173.1350  144.8640 C   0  0  0  0  0  0  0  0  0  0  0  0
  188.8780  178.1060  142.0110 C   0  0  0  0  0  2  0  0  0  0  0  0
  192.5360  170.7630  142.4950 N   0  0  0  0  0  0  0  0  0  0  0  0
  193.8780  170.8640  142.9610 C   0  0  0  0  0  2  0  0  0  0  0  0
  193.7290  175.9420  144.4390 C   0  0  0  0  0  2  0  0  0  0  0  0
  193.7750  174.4480  144.4250 C   0  0  0  0  0  0  0  0  0  0  0  0
  187.4060  178.2500  142.3780 C   0  0  0  0  0  2  0  0  0  0  0  0
  190.3350  171.6860  142.9510 C   0  0  0  0  0  0  0  0  0  0  0  0
  188.4770  175.7600  145.9570 C   0  0  2  0  0  3  0  0  0  0  0  0
  189.3990  172.4430  143.8090 C   0  0  0  0  0  3  0  0  0  0  0  0
  186.8360  176.5440  144.1810 C   0  0  1  0  0  3  0  0  0  0  0  0
  186.7860  176.8900  142.6900 C   0  0  0  0  0  2  0  0  0  0  0  0
  191.7990  171.5880  143.1730 C   0  0  0  0  0  0  0  0  0  0  0  0
  192.6600  173.7750  144.0890 C   0  0  0  0  0  3  0  0  0  0  0  0
  189.5050  176.5640  143.8970 C   0  0  1  0  0  3  0  0  0  0  0  0
  188.2590  176.5970  144.7630 C   0  0  1  0  0  0  0  0  0  0  0  0
  192.9590  176.4390  145.6580 C   0  0  0  0  0  2  0  0  0  0  0  0
  196.2520  174.4730  145.2050 C   0  0  1  0  0  3  0  0  0  0  0  0
  196.8810  173.8830  146.4610 C   0  0  0  0  0  1  0  0  0  0  0  0
  197.2730  174.7090  144.0920 C   0  0  0  0  0  2  0  0  0  0  0  0
  197.0360  176.0160  143.3470 C   0  0  0  0  0  2  0  0  0  0  0  0
  197.0370  175.7790  141.8460 C   0  0  1  0  0  3  0  0  0  0  0  0
  197.8450  174.6800  141.5570 O   0  0  0  0  0  1  0  0  0  0  0  0
  194.9990  176.4540  140.8630 O   0  0  0  0  0  0  0  0  0  0  0  0
  195.6430  175.5360  141.3460 C   0  0  0  0  0  0  0  0  0  0  0  0
  195.0950  174.2940  141.4050 F   0  0  0  0  0  0  0  0  0  0  0  0
  3  4  2  0  0  0  0
  4 30  1  0  0  0  0
  5 20  2  0  0  0  0
  7 16  1  6  0  0  0
  7 11  1  0  0  0  0
  7  3  1  0  0  0  0
  8 29  1  0  0  0  0
  9  6  1  6  0  0  0
  9 21  1  0  0  0  0
 11 26  1  6  0  0  0
 12  8  1  1  0  0  0
 12  9  1  0  0  0  0
 13  6  2  0  0  0  0
 14 19  1  0  0  0  0
 14 10  1  0  0  0  0
 15 16  1  0  0  0  0
 15 25  2  0  0  0  0
 17 29  1  0  0  0  0
 18 17  1  0  0  0  0
 18  4  1  0  0  0  0
 19 24  1  0  0  0  0
 20 25  1  0  0  0  0
 20 22  1  0  0  0  0
 21  1  1  1  0  0  0
 22 13  2  0  0  0  0
 23 28  1  0  0  0  0
 23  2  1  1  0  0  0
 24 23  1  0  0  0  0
 25 11  1  0  0  0  0
 26 18  2  0  0  0  0
 27 10  1  1  0  0  0
 27 12  1  0  0  0  0
 27 28  1  0  0  0  0
 28 21  1  0  0  0  0
 28  1  1  1  0  0  0
 30 31  1  1  0  0  0
 32 30  1  0  0  0  0
 33 32  1  0  0  0  0
 34 35  1  1  0  0  0
 34 33  1  0  0  0  0
 36 37  2  0  0  0  0
 37 38  1  0  0  0  0
 37 34  1  0  0  0  0
M  END
>  <MODEL>
3

>  <REMARK>
 VINA RESULT:      -8.3      3.474      7.978
  Name = 
  5 active torsions:
  status: ('A' for Active; 'I' for Inactive)
    1  A    between atoms: C_4  and  C_6
    2  A    between atoms: C_6  and  C_28
    3  A    between atoms: C_11  and  C_22
    4  A    between atoms: C_11  and  C_24
    5  A    between atoms: C_24  and  C_28
                            x       y       z     vdW  Elec       q    Type
                         _______ _______ _______ _____ _____    ______ ____

>  <TORSDO>
F 5

$$$$
=
 OpenBabel11062419273D

 38 43  0  0  1  0  0  0  0  0999 V2000
  188.5540  175.0840  143.0880 O   0  0  0  0  0  0  0  0  0  0  0  0
  187.4160  177.3990  144.1310 C   0  0  0  0  0  1  0  0  0  0  0  0
  196.1930  171.5710  143.3230 C   0  0  0  0  0  3  0  0  0  0  0  0
  194.9700  171.0170  143.4460 C   0  0  0  0  0  0  0  0  0  0  0  0
  195.4150  177.2330  145.1300 O   0  0  0  0  0  0  0  0  0  0  0  0
  192.1840  175.1180  142.2370 C   0  0  0  0  0  3  0  0  0  0  0  0
  196.3110  173.0170  143.5330 C   0  0  0  0  0  0  0  0  0  0  0  0
  190.3900  172.4260  143.8950 C   0  0  0  0  0  2  0  0  0  0  0  0
  190.8540  174.5590  142.6530 C   0  0  1  0  0  3  0  0  0  0  0  0
  189.3040  174.0200  146.0240 C   0  0  0  0  0  2  0  0  0  0  0  0
  195.1250  173.8970  143.4160 C   0  0  2  0  0  3  0  0  0  0  0  0
  190.9300  173.8540  144.0090 C   0  0  1  0  0  3  0  0  0  0  0  0
  192.8850  175.9110  143.0070 C   0  0  0  0  0  0  0  0  0  0  0  0
  189.0350  174.9220  147.2250 C   0  0  0  0  0  2  0  0  0  0  0  0
  196.8240  174.9150  144.6070 N   0  0  0  0  0  0  0  0  0  0  0  0
  197.2610  173.6130  144.2300 C   0  0  0  0  0  3  0  0  0  0  0  0
  192.5440  171.2210  144.3780 C   0  0  0  0  0  2  0  0  0  0  0  0
  193.8240  171.8520  143.9340 C   0  0  0  0  0  0  0  0  0  0  0  0
  188.1160  176.0880  146.8800 C   0  0  0  0  0  2  0  0  0  0  0  0
  194.8810  176.3580  144.3980 C   0  0  0  0  0  0  0  0  0  0  0  0
  189.7970  175.6580  142.7400 C   0  0  2  0  0  3  0  0  0  0  0  0
  193.5770  176.6960  143.7900 C   0  0  0  0  0  3  0  0  0  0  0  0
  188.8130  177.0480  144.6270 C   0  0  1  0  0  3  0  0  0  0  0  0
  188.8830  177.1880  146.1500 C   0  0  0  0  0  2  0  0  0  0  0  0
  195.6050  175.0780  144.1960 C   0  0  0  0  0  0  0  0  0  0  0  0
  193.9440  173.1890  144.0180 C   0  0  0  0  0  3  0  0  0  0  0  0
  190.1440  174.7430  144.9740 C   0  0  1  0  0  3  0  0  0  0  0  0
  189.2970  175.6770  144.1270 C   0  0  1  0  0  0  0  0  0  0  0  0
  191.4450  171.4690  143.3510 C   0  0  0  0  0  2  0  0  0  0  0  0
  194.7860  169.5340  143.2650 C   0  0  1  0  0  3  0  0  0  0  0  0
  194.9290  169.0850  141.8160 C   0  0  0  0  0  1  0  0  0  0  0  0
  195.6450  168.7080  144.2230 C   0  0  0  0  0  2  0  0  0  0  0  0
  194.8620  168.2100  145.4300 C   0  0  0  0  0  2  0  0  0  0  0  0
  194.9280  169.2220  146.5610 C   0  0  1  0  0  3  0  0  0  0  0  0
  194.3840  168.6570  147.7140 O   0  0  0  0  0  1  0  0  0  0  0  0
  197.1040  168.8990  147.4200 O   0  0  0  0  0  0  0  0  0  0  0  0
  196.3460  169.6410  146.8160 C   0  0  0  0  0  0  0  0  0  0  0  0
  196.8060  170.8360  146.3580 F   0  0  0  0  0  0  0  0  0  0  0  0
  3  4  2  0  0  0  0
  3  7  1  0  0  0  0
  4 18  1  0  0  0  0
  6 13  2  0  0  0  0
  7 16  2  0  0  0  0
  9  6  1  1  0  0  0
  9 21  1  0  0  0  0
  9 12  1  0  0  0  0
 10 14  1  0  0  0  0
 11  7  1  0  0  0  0
 11 26  1  1  0  0  0
 11 25  1  0  0  0  0
 12  8  1  6  0  0  0
 12 27  1  0  0  0  0
 13 22  2  0  0  0  0
 16 15  1  0  0  0  0
 18 26  2  0  0  0  0
 18 17  1  0  0  0  0
 19 14  1  0  0  0  0
 20  5  2  0  0  0  0
 21  1  1  6  0  0  0
 21 28  1  0  0  0  0
 22 20  1  0  0  0  0
 23  2  1  1  0  0  0
 23 24  1  0  0  0  0
 24 19  1  0  0  0  0
 25 20  1  0  0  0  0
 25 15  2  0  0  0  0
 27 10  1  1  0  0  0
 28  1  1  6  0  0  0
 28 23  1  0  0  0  0
 28 27  1  0  0  0  0
 29  8  1  0  0  0  0
 29 17  1  0  0  0  0
 30 31  1  6  0  0  0
 30  4  1  0  0  0  0
 30 32  1  0  0  0  0
 32 33  1  0  0  0  0
 33 34  1  0  0  0  0
 34 37  1  0  0  0  0
 34 35  1  1  0  0  0
 37 36  2  0  0  0  0
 38 37  1  0  0  0  0
M  END
>  <MODEL>
4

>  <REMARK>
 VINA RESULT:      -7.5      4.135      8.948
  Name = 
  5 active torsions:
  status: ('A' for Active; 'I' for Inactive)
    1  A    between atoms: C_4  and  C_6
    2  A    between atoms: C_6  and  C_28
    3  A    between atoms: C_11  and  C_22
    4  A    between atoms: C_11  and  C_24
    5  A    between atoms: C_24  and  C_28
                            x       y       z     vdW  Elec       q    Type
                         _______ _______ _______ _____ _____    ______ ____

>  <TORSDO>
F 5

$$$$
=
 OpenBabel11062419273D

 38 43  0  0  1  0  0  0  0  0999 V2000
  196.3320  173.4110  144.0480 O   0  0  0  0  0  0  0  0  0  0  0  0
  197.8820  171.2790  143.1580 C   0  0  0  0  0  1  0  0  0  0  0  0
  188.2070  175.5120  143.4960 C   0  0  0  0  0  3  0  0  0  0  0  0
  189.0630  175.5900  144.5350 C   0  0  0  0  0  0  0  0  0  0  0  0
  190.4200  171.0900  140.1100 O   0  0  0  0  0  0  0  0  0  0  0  0
  193.3520  174.4020  142.0390 C   0  0  0  0  0  3  0  0  0  0  0  0
  188.5600  174.6250  142.3840 C   0  0  1  0  0  3  0  0  0  0  0  0
  193.5190  174.1640  145.6610 C   0  0  0  0  0  2  0  0  0  0  0  0
  194.2190  174.2180  143.2510 C   0  0  1  0  0  3  0  0  0  0  0  0
  194.4580  171.4510  145.7680 C   0  0  0  0  0  2  0  0  0  0  0  0
  189.9650  174.2020  142.1720 C   0  0  2  0  0  3  0  0  0  0  0  0
  193.5170  173.3990  144.3360 C   0  0  1  0  0  3  0  0  0  0  0  0
  192.7950  173.3940  141.4140 C   0  0  0  0  0  0  0  0  0  0  0  0
  194.6830  169.9450  145.6720 C   0  0  0  0  0  2  0  0  0  0  0  0
  188.4810  172.7940  141.0960 N   0  0  0  0  0  0  0  0  0  0  0  0
  187.7320  173.7970  141.7750 C   0  0  0  0  0  2  0  0  0  0  0  0
  191.0330  174.5010  145.8490 C   0  0  0  0  0  2  0  0  0  0  0  0
  190.2440  174.6690  144.5900 C   0  0  0  0  0  0  0  0  0  0  0  0
  196.0160  169.5980  145.0190 C   0  0  0  0  0  2  0  0  0  0  0  0
  190.7870  172.1170  140.7400 C   0  0  0  0  0  0  0  0  0  0  0  0
  195.5290  173.5210  142.8910 C   0  0  2  0  0  3  0  0  0  0  0  0
  192.2400  172.3790  140.8060 C   0  0  0  0  0  3  0  0  0  0  0  0
  196.3730  171.1270  143.0130 C   0  0  1  0  0  3  0  0  0  0  0  0
  195.9330  169.7440  143.5010 C   0  0  0  0  0  2  0  0  0  0  0  0
  189.7400  172.9790  141.3440 C   0  0  0  0  0  0  0  0  0  0  0  0
  190.5930  173.9440  143.5130 C   0  0  0  0  0  3  0  0  0  0  0  0
  194.2650  172.0650  144.3840 C   0  0  1  0  0  3  0  0  0  0  0  0
  195.5910  172.2740  143.6750 C   0  0  1  0  0  0  0  0  0  0  0  0
  192.3900  175.1860  145.7210 C   0  0  0  0  0  2  0  0  0  0  0  0
  188.7460  176.4660  145.7170 C   0  0  1  0  0  3  0  0  0  0  0  0
  189.3330  177.8670  145.5980 C   0  0  0  0  0  1  0  0  0  0  0  0
  187.2570  176.4820  146.0630 C   0  0  0  0  0  2  0  0  0  0  0  0
  186.6820  177.8920  146.1130 C   0  0  0  0  0  2  0  0  0  0  0  0
  185.5630  178.0460  145.0980 C   0  0  1  0  0  3  0  0  0  0  0  0
  184.4160  178.5030  145.7470 O   0  0  0  0  0  1  0  0  0  0  0  0
  186.5610  178.6080  143.0320 O   0  0  0  0  0  0  0  0  0  0  0  0
  185.9570  179.0080  144.0150 C   0  0  0  0  0  0  0  0  0  0  0  0
  185.6270  180.3230  144.1070 F   0  0  0  0  0  0  0  0  0  0  0  0
  3  4  2  0  0  0  0
  4 18  1  0  0  0  0
  4 30  1  0  0  0  0
  5 20  2  0  0  0  0
  7 16  1  1  0  0  0
  7  3  1  0  0  0  0
  8 29  1  0  0  0  0
  9  6  1  6  0  0  0
  9 12  1  0  0  0  0
 11  7  1  0  0  0  0
 11 26  1  1  0  0  0
 12 27  1  0  0  0  0
 12  8  1  1  0  0  0
 13  6  2  0  0  0  0
 14 10  1  0  0  0  0
 15 25  2  0  0  0  0
 15 16  1  0  0  0  0
 18 17  1  0  0  0  0
 19 14  1  0  0  0  0
 20 22  1  0  0  0  0
 20 25  1  0  0  0  0
 21  9  1  0  0  0  0
 21 28  1  0  0  0  0
 21  1  1  1  0  0  0
 22 13  2  0  0  0  0
 23  2  1  1  0  0  0
 23 24  1  0  0  0  0
 23 28  1  0  0  0  0
 24 19  1  0  0  0  0
 25 11  1  0  0  0  0
 26 18  2  0  0  0  0
 27 10  1  1  0  0  0
 28  1  1  1  0  0  0
 28 27  1  0  0  0  0
 29 17  1  0  0  0  0
 30 31  1  6  0  0  0
 30 32  1  0  0  0  0
 32 33  1  0  0  0  0
 34 35  1  1  0  0  0
 34 33  1  0  0  0  0
 36 37  2  0  0  0  0
 37 38  1  0  0  0  0
 37 34  1  0  0  0  0
M  END
>  <MODEL>
5

>  <REMARK>
 VINA RESULT:      -7.4      2.822      5.118
  Name = 
  5 active torsions:
  status: ('A' for Active; 'I' for Inactive)
    1  A    between atoms: C_4  and  C_6
    2  A    between atoms: C_6  and  C_28
    3  A    between atoms: C_11  and  C_22
    4  A    between atoms: C_11  and  C_24
    5  A    between atoms: C_24  and  C_28
                            x       y       z     vdW  Elec       q    Type
                         _______ _______ _______ _____ _____    ______ ____

>  <TORSDO>
F 5

$$$$
=
 OpenBabel11062419273D

 38 43  0  0  1  0  0  0  0  0999 V2000
  195.7590  176.4370  142.7710 O   0  0  0  0  0  0  0  0  0  0  0  0
  197.9410  174.7770  143.2460 C   0  0  0  0  0  1  0  0  0  0  0  0
  187.4350  175.3400  142.2670 C   0  0  0  0  0  3  0  0  0  0  0  0
  188.1560  176.3140  142.8580 C   0  0  0  0  0  0  0  0  0  0  0  0
  191.1110  170.6070  142.2610 O   0  0  0  0  0  0  0  0  0  0  0  0
  192.7590  174.9900  141.0970 C   0  0  0  0  0  3  0  0  0  0  0  0
  188.1160  174.0790  141.9580 C   0  0  0  0  0  0  0  0  0  0  0  0
  192.7500  177.2710  143.9260 C   0  0  0  0  0  2  0  0  0  0  0  0
  193.5580  175.9010  141.9840 C   0  0  1  0  0  3  0  0  0  0  0  0
  194.4630  175.7020  145.6170 C   0  0  0  0  0  2  0  0  0  0  0  0
  189.5930  174.0240  141.8540 C   0  0  2  0  0  3  0  0  0  0  0  0
  193.0700  175.8580  143.4340 C   0  0  1  0  0  3  0  0  0  0  0  0
  192.5780  173.7220  141.3710 C   0  0  0  0  0  0  0  0  0  0  0  0
  195.1430  174.6480  146.4840 C   0  0  0  0  0  2  0  0  0  0  0  0
  188.6840  171.9260  142.1950 N   0  0  0  0  0  0  0  0  0  0  0  0
  187.6220  172.8740  142.1690 C   0  0  0  0  0  3  0  0  0  0  0  0
  190.2740  176.9590  144.2350 C   0  0  0  0  0  2  0  0  0  0  0  0
  189.5560  176.0280  143.3110 C   0  0  0  0  0  0  0  0  0  0  0  0
  196.5590  174.3330  146.0140 C   0  0  0  0  0  2  0  0  0  0  0  0
  191.1050  171.8400  142.0090 C   0  0  0  0  0  0  0  0  0  0  0  0
  195.0390  175.5290  141.9620 C   0  0  2  0  0  3  0  0  0  0  0  0
  192.4020  172.4600  141.6610 C   0  0  0  0  0  3  0  0  0  0  0  0
  196.5640  174.1670  143.4730 C   0  0  1  0  0  3  0  0  0  0  0  0
  196.5360  173.4060  144.8010 C   0  0  0  0  0  2  0  0  0  0  0  0
  189.8080  172.5600  142.0640 C   0  0  0  0  0  0  0  0  0  0  0  0
  190.1800  174.9020  142.9230 C   0  0  0  0  0  3  0  0  0  0  0  0
  194.1840  175.1610  144.2160 C   0  0  1  0  0  3  0  0  0  0  0  0
  195.4270  175.1950  143.3450 C   0  0  1  0  0  0  0  0  0  0  0  0
  191.3620  177.7190  143.4840 C   0  0  0  0  0  2  0  0  0  0  0  0
  187.5100  177.6250  143.2210 C   0  0  1  0  0  3  0  0  0  0  0  0
  187.1380  178.4660  142.0070 C   0  0  0  0  0  1  0  0  0  0  0  0
  186.3470  177.4620  144.2000 C   0  0  0  0  0  2  0  0  0  0  0  0
  186.8130  177.1630  145.6190 C   0  0  0  0  0  2  0  0  0  0  0  0
  185.6220  176.8940  146.5240 C   0  0  1  0  0  3  0  0  0  0  0  0
  186.0800  176.6180  147.8120 O   0  0  0  0  0  1  0  0  0  0  0  0
  184.5750  178.7320  147.5730 O   0  0  0  0  0  0  0  0  0  0  0  0
  184.6980  178.0760  146.5510 C   0  0  0  0  0  0  0  0  0  0  0  0
  184.0110  178.4400  145.4360 F   0  0  0  0  0  0  0  0  0  0  0  0
  3  4  2  0  0  0  0
  4 30  1  0  0  0  0
  4 18  1  0  0  0  0
  6 13  2  0  0  0  0
  7 16  2  0  0  0  0
  7  3  1  0  0  0  0
  9  6  1  6  0  0  0
  9 12  1  0  0  0  0
 10 14  1  0  0  0  0
 11  7  1  0  0  0  0
 11 25  1  0  0  0  0
 11 26  1  1  0  0  0
 12  8  1  1  0  0  0
 12 27  1  0  0  0  0
 13 22  2  0  0  0  0
 16 15  1  0  0  0  0
 18 17  1  0  0  0  0
 19 14  1  0  0  0  0
 20 25  1  0  0  0  0
 20  5  2  0  0  0  0
 21  9  1  0  0  0  0
 21  1  1  1  0  0  0
 21 28  1  0  0  0  0
 22 20  1  0  0  0  0
 23  2  1  1  0  0  0
 23 24  1  0  0  0  0
 24 19  1  0  0  0  0
 25 15  2  0  0  0  0
 26 18  2  0  0  0  0
 27 10  1  1  0  0  0
 28  1  1  1  0  0  0
 28 23  1  0  0  0  0
 28 27  1  0  0  0  0
 29  8  1  0  0  0  0
 29 17  1  0  0  0  0
 30 31  1  6  0  0  0
 30 32  1  0  0  0  0
 32 33  1  0  0  0  0
 33 34  1  0  0  0  0
 34 37  1  0  0  0  0
 34 35  1  1  0  0  0
 37 36  2  0  0  0  0
 38 37  1  0  0  0  0
M  END
>  <MODEL>
6

>  <REMARK>
 VINA RESULT:      -7.4      3.137      5.460
  Name = 
  5 active torsions:
  status: ('A' for Active; 'I' for Inactive)
    1  A    between atoms: C_4  and  C_6
    2  A    between atoms: C_6  and  C_28
    3  A    between atoms: C_11  and  C_22
    4  A    between atoms: C_11  and  C_24
    5  A    between atoms: C_24  and  C_28
                            x       y       z     vdW  Elec       q    Type
                         _______ _______ _______ _____ _____    ______ ____

>  <TORSDO>
F 5

$$$$
=
 OpenBabel11062419273D

 38 43  0  0  1  0  0  0  0  0999 V2000
  188.3980  177.0370  146.1610 O   0  0  0  0  0  0  0  0  0  0  0  0
  185.6200  177.0370  146.0020 C   0  0  0  0  0  1  0  0  0  0  0  0
  194.6200  173.4820  141.7580 C   0  0  0  0  0  3  0  0  0  0  0  0
  194.5060  174.7260  142.2650 C   0  0  0  0  0  0  0  0  0  0  0  0
  188.9520  171.7130  140.9460 O   0  0  0  0  0  0  0  0  0  0  0  0
  190.2450  174.0210  144.9820 C   0  0  0  0  0  3  0  0  0  0  0  0
  193.3940  172.6950  141.5980 C   0  0  0  0  0  0  0  0  0  0  0  0
  191.1660  177.4820  144.3650 C   0  0  0  0  0  2  0  0  0  0  0  0
  189.9910  175.4670  145.2950 C   0  0  1  0  0  3  0  0  0  0  0  0
  188.6590  178.2870  143.2140 C   0  0  0  0  0  2  0  0  0  0  0  0
  192.1740  173.0310  142.3690 C   0  0  2  0  0  3  0  0  0  0  0  0
  190.1720  176.3580  144.0640 C   0  0  1  0  0  3  0  0  0  0  0  0
  189.6380  173.3960  144.0030 C   0  0  0  0  0  0  0  0  0  0  0  0
  187.3950  178.4890  142.3860 C   0  0  0  0  0  2  0  0  0  0  0  0
  191.6820  171.7320  140.5220 N   0  0  0  0  0  0  0  0  0  0  0  0
  193.0860  171.9670  140.5410 C   0  0  0  0  0  3  0  0  0  0  0  0
  192.9640  176.7700  142.7570 C   0  0  0  0  0  2  0  0  0  0  0  0
  193.1440  175.3080  142.4980 C   0  0  0  0  0  0  0  0  0  0  0  0
  186.1270  178.3810  143.2260 C   0  0  0  0  0  2  0  0  0  0  0  0
  189.6880  172.2750  141.7990 C   0  0  0  0  0  0  0  0  0  0  0  0
  188.5780  175.6740  145.8370 C   0  0  2  0  0  3  0  0  0  0  0  0
  189.0300  172.7890  143.0190 C   0  0  0  0  0  3  0  0  0  0  0  0
  186.3660  176.4160  144.8280 C   0  0  1  0  0  3  0  0  0  0  0  0
  185.7820  176.9200  143.5050 C   0  0  0  0  0  2  0  0  0  0  0  0
  191.1430  172.3610  141.5200 C   0  0  0  0  0  0  0  0  0  0  0  0
  192.0510  174.5280  142.4380 C   0  0  0  0  0  3  0  0  0  0  0  0
  188.7670  176.8460  143.7070 C   0  0  1  0  0  3  0  0  0  0  0  0
  187.8900  176.6030  144.9220 C   0  0  1  0  0  0  0  0  0  0  0  0
  192.6080  177.0090  144.2210 C   0  0  0  0  0  2  0  0  0  0  0  0
  195.7250  175.5940  142.4330 C   0  0  1  0  0  3  0  0  0  0  0  0
  195.7420  176.7910  141.4900 C   0  0  0  0  0  1  0  0  0  0  0  0
  195.9760  175.9900  143.8880 C   0  0  0  0  0  2  0  0  0  0  0  0
  196.5350  174.8410  144.7190 C   0  0  0  0  0  2  0  0  0  0  0  0
  195.6090  174.5270  145.8820 C   0  0  1  0  0  3  0  0  0  0  0  0
  194.9410  175.6910  146.2620 O   0  0  0  0  0  1  0  0  0  0  0  0
  195.0050  172.3710  145.1330 O   0  0  0  0  0  0  0  0  0  0  0  0
  194.6170  173.4680  145.4990 C   0  0  0  0  0  0  0  0  0  0  0  0
  193.2820  173.7130  145.5780 F   0  0  0  0  0  0  0  0  0  0  0  0
  3  4  2  0  0  0  0
  4 30  1  0  0  0  0
  4 18  1  0  0  0  0
  5 20  2  0  0  0  0
  7  3  1  0  0  0  0
  7 11  1  0  0  0  0
  9  6  1  6  0  0  0
  9 21  1  0  0  0  0
 11 26  1  6  0  0  0
 12  8  1  1  0  0  0
 12  9  1  0  0  0  0
 13  6  2  0  0  0  0
 14 10  1  0  0  0  0
 14 19  1  0  0  0  0
 15 16  1  0  0  0  0
 15 25  2  0  0  0  0
 16  7  2  0  0  0  0
 17 29  1  0  0  0  0
 18 17  1  0  0  0  0
 19 24  1  0  0  0  0
 20 22  1  0  0  0  0
 21  1  1  1  0  0  0
 22 13  2  0  0  0  0
 23 28  1  0  0  0  0
 23  2  1  1  0  0  0
 24 23  1  0  0  0  0
 25 20  1  0  0  0  0
 25 11  1  0  0  0  0
 26 18  2  0  0  0  0
 27 10  1  1  0  0  0
 27 12  1  0  0  0  0
 27 28  1  0  0  0  0
 28 21  1  0  0  0  0
 28  1  1  1  0  0  0
 29  8  1  0  0  0  0
 30 31  1  6  0  0  0
 30 32  1  0  0  0  0
 32 33  1  0  0  0  0
 33 34  1  0  0  0  0
 34 35  1  6  0  0  0
 36 37  2  0  0  0  0
 37 38  1  0  0  0  0
 37 34  1  0  0  0  0
M  END
>  <MODEL>
7

>  <REMARK>
 VINA RESULT:      -7.3      3.216      8.051
  Name = 
  5 active torsions:
  status: ('A' for Active; 'I' for Inactive)
    1  A    between atoms: C_4  and  C_6
    2  A    between atoms: C_6  and  C_28
    3  A    between atoms: C_11  and  C_22
    4  A    between atoms: C_11  and  C_24
    5  A    between atoms: C_24  and  C_28
                            x       y       z     vdW  Elec       q    Type
                         _______ _______ _______ _____ _____    ______ ____

>  <TORSDO>
F 5

$$$$
=
 OpenBabel11062419273D

 38 43  0  0  1  0  0  0  0  0999 V2000
  191.9000  170.3890  140.4750 O   0  0  0  0  0  0  0  0  0  0  0  0
  193.5280  169.9940  138.2540 C   0  0  0  0  0  1  0  0  0  0  0  0
  191.6670  175.9500  146.7810 C   0  0  0  0  0  3  0  0  0  0  0  0
  190.6720  175.4270  146.0380 C   0  0  0  0  0  0  0  0  0  0  0  0
  196.4740  175.6250  143.2160 O   0  0  0  0  0  0  0  0  0  0  0  0
  193.3980  171.9200  143.5260 C   0  0  0  0  0  3  0  0  0  0  0  0
  193.0310  175.8650  146.2520 C   0  0  0  0  0  0  0  0  0  0  0  0
  190.1430  172.6980  142.1090 C   0  0  0  0  0  2  0  0  0  0  0  0
  192.3420  171.5590  142.5210 C   0  0  1  0  0  3  0  0  0  0  0  0
  191.0790  173.3260  139.4660 C   0  0  0  0  0  2  0  0  0  0  0  0
  193.3780  174.8670  145.2140 C   0  0  2  0  0  3  0  0  0  0  0  0
  191.6610  172.7990  141.9390 C   0  0  1  0  0  3  0  0  0  0  0  0
  194.3660  172.7610  143.2580 C   0  0  0  0  0  0  0  0  0  0  0  0
  191.7440  173.8860  138.2130 C   0  0  0  0  0  2  0  0  0  0  0  0
  194.9250  176.5830  145.2940 N   0  0  0  0  0  0  0  0  0  0  0  0
  193.9180  176.8430  146.2680 C   0  0  0  0  0  3  0  0  0  0  0  0
  189.8600  174.6330  143.6910 C   0  0  0  0  0  2  0  0  0  0  0  0
  190.9650  174.9270  144.6550 C   0  0  0  0  0  0  0  0  0  0  0  0
  192.4700  172.8120  137.4110 C   0  0  0  0  0  2  0  0  0  0  0  0
  195.4950  174.9340  143.6040 C   0  0  0  0  0  0  0  0  0  0  0  0
  192.9320  170.7470  141.3710 C   0  0  2  0  0  3  0  0  0  0  0  0
  195.3220  173.6060  142.9770 C   0  0  0  0  0  3  0  0  0  0  0  0
  193.7320  171.2950  139.0210 C   0  0  1  0  0  3  0  0  0  0  0  0
  193.8160  172.4740  138.0480 C   0  0  0  0  0  2  0  0  0  0  0  0
  194.6140  175.4960  144.6580 C   0  0  0  0  0  0  0  0  0  0  0  0
  192.2350  174.7700  144.2430 C   0  0  0  0  0  3  0  0  0  0  0  0
  192.1230  172.8690  140.4830 C   0  0  1  0  0  3  0  0  0  0  0  0
  192.6870  171.5040  140.1300 C   0  0  1  0  0  0  0  0  0  0  0  0
  189.7050  173.1270  143.5040 C   0  0  0  0  0  2  0  0  0  0  0  0
  189.2460  175.5020  146.5150 C   0  0  1  0  0  3  0  0  0  0  0  0
  188.9360  174.5150  147.6330 C   0  0  0  0  0  1  0  0  0  0  0  0
  188.8070  176.9270  146.8530 C   0  0  0  0  0  2  0  0  0  0  0  0
  187.9880  177.5670  145.7400 C   0  0  0  0  0  2  0  0  0  0  0  0
  186.5190  177.2050  145.8850 C   0  0  1  0  0  3  0  0  0  0  0  0
  186.2490  176.9190  147.2230 O   0  0  0  0  0  1  0  0  0  0  0  0
  184.4740  178.3780  145.7520 O   0  0  0  0  0  0  0  0  0  0  0  0
  185.6460  178.3320  145.4150 C   0  0  0  0  0  0  0  0  0  0  0  0
  186.1550  179.3190  144.6320 F   0  0  0  0  0  0  0  0  0  0  0  0
  4 30  1  0  0  0  0
  4  3  2  0  0  0  0
  5 20  2  0  0  0  0
  7 16  2  0  0  0  0
  7  3  1  0  0  0  0
  8 29  1  0  0  0  0
  9  6  1  1  0  0  0
 11 26  1  6  0  0  0
 11  7  1  0  0  0  0
 12  8  1  6  0  0  0
 12  9  1  0  0  0  0
 13  6  2  0  0  0  0
 14 10  1  0  0  0  0
 15 16  1  0  0  0  0
 17 18  1  0  0  0  0
 18  4  1  0  0  0  0
 19 24  1  0  0  0  0
 19 14  1  0  0  0  0
 20 25  1  0  0  0  0
 21  1  1  6  0  0  0
 21  9  1  0  0  0  0
 22 13  2  0  0  0  0
 22 20  1  0  0  0  0
 23  2  1  6  0  0  0
 23 28  1  0  0  0  0
 24 23  1  0  0  0  0
 25 11  1  0  0  0  0
 25 15  2  0  0  0  0
 26 18  2  0  0  0  0
 27 10  1  6  0  0  0
 27 12  1  0  0  0  0
 28  1  1  6  0  0  0
 28 27  1  0  0  0  0
 28 21  1  0  0  0  0
 29 17  1  0  0  0  0
 30 32  1  0  0  0  0
 30 31  1  1  0  0  0
 33 34  1  0  0  0  0
 33 32  1  0  0  0  0
 34 35  1  1  0  0  0
 37 36  2  0  0  0  0
 37 34  1  0  0  0  0
 38 37  1  0  0  0  0
M  END
>  <MODEL>
8

>  <REMARK>
 VINA RESULT:      -7.1      2.192      3.232
  Name = 
  5 active torsions:
  status: ('A' for Active; 'I' for Inactive)
    1  A    between atoms: C_4  and  C_6
    2  A    between atoms: C_6  and  C_28
    3  A    between atoms: C_11  and  C_22
    4  A    between atoms: C_11  and  C_24
    5  A    between atoms: C_24  and  C_28
                            x       y       z     vdW  Elec       q    Type
                         _______ _______ _______ _____ _____    ______ ____

>  <TORSDO>
F 5

$$$$
=
 OpenBabel11062419273D

 38 43  0  0  1  0  0  0  0  0999 V2000
  186.0410  178.4710  142.5400 O   0  0  0  0  0  0  0  0  0  0  0  0
  185.1860  180.3220  144.4340 C   0  0  0  0  0  1  0  0  0  0  0  0
  192.3590  172.9410  142.0420 C   0  0  0  0  0  3  0  0  0  0  0  0
  191.0610  172.8210  141.6980 C   0  0  0  0  0  0  0  0  0  0  0  0
  192.3520  177.1410  146.3170 O   0  0  0  0  0  0  0  0  0  0  0  0
  189.6810  177.6920  142.3360 C   0  0  0  0  0  3  0  0  0  0  0  0
  192.7240  174.0210  142.9630 C   0  0  0  0  0  0  0  0  0  0  0  0
  186.9570  175.2940  142.1510 C   0  0  0  0  0  2  0  0  0  0  0  0
  188.2000  177.4740  142.2260 C   0  0  1  0  0  3  0  0  0  0  0  0
  185.6900  176.0470  144.6180 C   0  0  0  0  0  2  0  0  0  0  0  0
  191.8380  175.1950  143.1400 C   0  0  2  0  0  3  0  0  0  0  0  0
  187.7390  176.2630  143.0400 C   0  0  1  0  0  3  0  0  0  0  0  0
  190.2940  177.7900  143.4900 C   0  0  0  0  0  0  0  0  0  0  0  0
  185.2980  176.3620  146.0570 C   0  0  0  0  0  2  0  0  0  0  0  0
  193.3140  174.9710  144.9040 N   0  0  0  0  0  0  0  0  0  0  0  0
  193.5460  173.9040  143.9890 C   0  0  0  0  0  3  0  0  0  0  0  0
  188.5750  173.3710  142.2590 C   0  0  0  0  0  2  0  0  0  0  0  0
  190.0330  173.6780  142.3750 C   0  0  0  0  0  0  0  0  0  0  0  0
  184.7880  177.7890  146.2210 C   0  0  0  0  0  2  0  0  0  0  0  0
  191.8680  176.9030  145.1790 C   0  0  0  0  0  0  0  0  0  0  0  0
  187.4260  178.7010  142.7040 C   0  0  2  0  0  3  0  0  0  0  0  0
  190.8910  177.8780  144.6480 C   0  0  0  0  0  3  0  0  0  0  0  0
  186.2780  179.3560  144.8760 C   0  0  1  0  0  3  0  0  0  0  0  0
  185.9470  178.7820  146.2560 C   0  0  0  0  0  2  0  0  0  0  0  0
  192.3240  175.6850  144.4650 C   0  0  0  0  0  0  0  0  0  0  0  0
  190.4110  174.7220  143.1330 C   0  0  0  0  0  3  0  0  0  0  0  0
  186.9260  176.8400  144.2000 C   0  0  1  0  0  3  0  0  0  0  0  0
  186.5740  178.2700  143.8280 C   0  0  1  0  0  0  0  0  0  0  0  0
  187.8880  174.3880  141.3530 C   0  0  0  0  0  2  0  0  0  0  0  0
  190.6180  171.7180  140.7740 C   0  0  1  0  0  3  0  0  0  0  0  0
  190.4160  172.1850  139.3380 C   0  0  0  0  0  1  0  0  0  0  0  0
  191.5020  170.4740  140.8670 C   0  0  0  0  0  2  0  0  0  0  0  0
  191.1040  169.5580  142.0170 C   0  0  0  0  0  2  0  0  0  0  0  0
  192.3340  169.0950  142.7780 C   0  0  1  0  0  3  0  0  0  0  0  0
  193.4240  169.0620  141.9090 O   0  0  0  0  0  1  0  0  0  0  0  0
  193.7160  169.9890  144.4720 O   0  0  0  0  0  0  0  0  0  0  0  0
  192.6240  170.0150  143.9280 C   0  0  0  0  0  0  0  0  0  0  0  0
  191.6850  170.8990  144.3590 F   0  0  0  0  0  0  0  0  0  0  0  0
  3  7  1  0  0  0  0
  4  3  2  0  0  0  0
  4 18  1  0  0  0  0
  6 13  2  0  0  0  0
  7 11  1  0  0  0  0
  7 16  2  0  0  0  0
  9  6  1  1  0  0  0
  9 21  1  0  0  0  0
  9 12  1  0  0  0  0
 10 14  1  0  0  0  0
 11 26  1  1  0  0  0
 11 25  1  0  0  0  0
 12  8  1  6  0  0  0
 12 27  1  0  0  0  0
 13 22  2  0  0  0  0
 14 19  1  0  0  0  0
 16 15  1  0  0  0  0
 17 18  1  0  0  0  0
 18 26  2  0  0  0  0
 19 24  1  0  0  0  0
 20  5  2  0  0  0  0
 21  1  1  6  0  0  0
 21 28  1  0  0  0  0
 22 20  1  0  0  0  0
 23  2  1  6  0  0  0
 23 24  1  0  0  0  0
 25 15  2  0  0  0  0
 25 20  1  0  0  0  0
 27 10  1  6  0  0  0
 28  1  1  6  0  0  0
 28 27  1  0  0  0  0
 28 23  1  0  0  0  0
 29  8  1  0  0  0  0
 29 17  1  0  0  0  0
 30 31  1  6  0  0  0
 30 32  1  0  0  0  0
 30  4  1  0  0  0  0
 32 33  1  0  0  0  0
 33 34  1  0  0  0  0
 34 35  1  6  0  0  0
 34 37  1  0  0  0  0
 37 38  1  0  0  0  0
 37 36  2  0  0  0  0
M  END
>  <MODEL>
9

>  <REMARK>
 VINA RESULT:      -6.8      2.531      8.035
  Name = 
  5 active torsions:
  status: ('A' for Active; 'I' for Inactive)
    1  A    between atoms: C_4  and  C_6
    2  A    between atoms: C_6  and  C_28
    3  A    between atoms: C_11  and  C_22
    4  A    between atoms: C_11  and  C_24
    5  A    between atoms: C_24  and  C_28
                            x       y       z     vdW  Elec       q    Type
                         _______ _______ _______ _____ _____    ______ ____

>  <TORSDO>
F 5

$$$$
