=
 OpenBabel11062422573D

 29 32  0  0  1  0  0  0  0  0999 V2000
  185.3850  177.7170  147.1220 C   0  0  0  0  0  2  0  0  0  0  0  0
  185.6550  179.0280  143.5260 C   0  0  2  0  0  3  0  0  0  0  0  0
  184.1980  178.5700  146.6670 C   0  0  0  0  0  2  0  0  0  0  0  0
  191.8060  174.0270  145.9850 C   0  0  0  0  0  1  0  0  0  0  0  0
  187.5920  176.0360  145.0080 N   0  0  0  0  0  0  0  0  0  0  0  0
  184.9630  179.5520  144.6430 O   0  0  0  0  0  0  0  0  0  0  0  0
  189.7250  175.1120  145.4400 N   0  0  0  0  0  0  0  0  0  0  0  0
  184.0480  178.6160  145.1520 C   0  0  0  0  0  2  0  0  0  0  0  0
  191.0930  176.2290  147.0720 C   0  0  0  0  0  3  0  0  0  0  0  0
  187.8850  177.7580  147.1790 C   0  0  0  0  0  2  0  0  0  0  0  0
  186.6440  177.9760  146.3060 C   0  0  1  0  0  3  0  0  0  0  0  0
  190.8300  175.1390  146.1190 C   0  0  0  0  0  0  0  0  0  0  0  0
  186.5110  177.0550  142.5820 N   0  0  0  0  0  0  0  0  0  0  0  0
  184.8180  178.4820  142.4080 C   0  0  0  0  0  2  0  0  0  0  0  0
  190.2790  177.2390  147.1690 N   0  0  0  0  0  0  0  0  0  0  0  0
  186.5840  177.1050  145.0250 C   0  0  1  0  0  3  0  0  0  0  0  0
  188.7640  176.1660  145.5500 C   0  0  0  0  0  0  0  0  0  0  0  0
  189.0940  177.4140  146.3220 C   0  0  1  0  0  3  0  0  0  0  0  0
  186.6870  177.9400  143.7370 C   0  0  2  0  0  3  0  0  0  0  0  0
  185.6750  177.6500  141.6720 O   0  0  0  0  0  0  0  0  0  0  0  0
  187.8190  176.8180  141.9580 C   0  0  1  0  0  3  0  0  0  0  0  0
  187.6560  176.4600  140.6170 O   0  0  0  0  0  0  0  0  0  0  0  0
  188.1130  175.1440  140.5420 C   0  0  0  0  0  1  0  0  0  0  0  0
  188.7590  178.0180  142.0760 C   0  0  0  0  0  2  0  0  0  0  0  0
  190.1460  177.5600  142.4980 C   0  0  0  0  0  2  0  0  0  0  0  0
  190.6640  178.4350  143.4550 O   0  0  0  0  0  0  0  0  0  0  0  0
  191.8660  177.8540  143.8570 C   0  0  0  0  0  2  0  0  0  0  0  0
  193.4420  176.0660  143.3740 N   0  0  0  0  0  1  0  0  0  0  0  0
  192.1460  176.6190  143.0210 C   0  0  0  0  0  2  0  0  0  0  0  0
  2 14  1  6  0  0  0
  2 19  1  0  0  0  0
  2  6  1  0  0  0  0
  3  1  1  0  0  0  0
  4 12  1  0  0  0  0
  5 17  2  0  0  0  0
  6  8  1  0  0  0  0
  7 17  1  0  0  0  0
  7 12  2  0  0  0  0
  8  3  1  0  0  0  0
  9 15  2  0  0  0  0
 11  1  1  1  0  0  0
 11 10  1  0  0  0  0
 12  9  1  0  0  0  0
 16  5  1  1  0  0  0
 16 11  1  0  0  0  0
 17 18  1  0  0  0  0
 18 15  1  0  0  0  0
 18 10  1  1  0  0  0
 19 13  1  6  0  0  0
 19 16  1  0  0  0  0
 20 14  1  0  0  0  0
 20 13  1  0  0  0  0
 21 24  1  6  0  0  0
 21 13  1  0  0  0  0
 22 21  1  0  0  0  0
 23 22  1  0  0  0  0
 24 25  1  0  0  0  0
 25 26  1  0  0  0  0
 26 27  1  0  0  0  0
 29 28  1  0  0  0  0
 29 27  1  0  0  0  0
M  END
>  <MODEL>
1

>  <REMARK>
 VINA RESULT:      -6.5      0.000      0.000
  Name = 
  7 active torsions:
  status: ('A' for Active; 'I' for Inactive)
    1  A    between atoms: C_2  and  O_14
    2  A    between atoms: C_2  and  C_17
    3  A    between atoms: O_6  and  C_9
    4  A    between atoms: C_9  and  C_13
    5  A    between atoms: C_9  and  N_21
    6  A    between atoms: C_13  and  C_16
    7  A    between atoms: O_14  and  C_16
                            x       y       z     vdW  Elec       q    Type
                         _______ _______ _______ _____ _____    ______ ____

>  <TORSDO>
F 7

$$$$
=
 OpenBabel11062422573D

 29 32  0  0  1  0  0  0  0  0999 V2000
  185.2530  177.6080  146.8060 C   0  0  0  0  0  2  0  0  0  0  0  0
  185.9800  179.1060  143.3490 C   0  0  2  0  0  3  0  0  0  0  0  0
  184.0810  178.3770  146.1900 C   0  0  0  0  0  2  0  0  0  0  0  0
  192.0860  174.5390  146.6270 C   0  0  0  0  0  1  0  0  0  0  0  0
  187.9180  176.2240  145.0330 N   0  0  0  0  0  0  0  0  0  0  0  0
  185.0700  179.5160  144.3530 O   0  0  0  0  0  0  0  0  0  0  0  0
  190.0290  175.4670  145.7810 N   0  0  0  0  0  0  0  0  0  0  0  0
  184.1750  178.4820  144.6730 C   0  0  0  0  0  2  0  0  0  0  0  0
  191.0060  176.6180  147.6520 C   0  0  0  0  0  3  0  0  0  0  0  0
  187.6970  177.8600  147.2780 C   0  0  0  0  0  2  0  0  0  0  0  0
  186.5980  178.0120  146.2180 C   0  0  1  0  0  3  0  0  0  0  0  0
  191.0030  175.5550  146.6340 C   0  0  0  0  0  0  0  0  0  0  0  0
  187.1550  177.2610  142.4960 N   0  0  0  0  0  0  0  0  0  0  0  0
  185.3880  178.5450  142.0920 C   0  0  0  0  0  2  0  0  0  0  0  0
  190.0980  177.5490  147.6460 N   0  0  0  0  0  0  0  0  0  0  0  0
  186.8260  177.2010  144.9180 C   0  0  1  0  0  3  0  0  0  0  0  0
  188.9700  176.4280  145.7650 C   0  0  0  0  0  0  0  0  0  0  0  0
  189.0540  177.6610  146.6220 C   0  0  1  0  0  3  0  0  0  0  0  0
  187.0590  178.1020  143.6930 C   0  0  2  0  0  3  0  0  0  0  0  0
  186.4250  177.8240  141.4800 O   0  0  0  0  0  0  0  0  0  0  0  0
  188.5620  177.1660  142.0890 C   0  0  1  0  0  3  0  0  0  0  0  0
  189.3510  178.0000  142.8850 O   0  0  0  0  0  0  0  0  0  0  0  0
  190.6400  177.4750  142.7840 C   0  0  0  0  0  1  0  0  0  0  0  0
  189.0970  175.7340  142.1300 C   0  0  0  0  0  2  0  0  0  0  0  0
  188.1850  174.8100  141.3380 C   0  0  0  0  0  2  0  0  0  0  0  0
  188.1100  173.5650  141.9660 O   0  0  0  0  0  0  0  0  0  0  0  0
  189.1700  173.5560  142.8720 C   0  0  0  0  0  2  0  0  0  0  0  0
  189.6980  172.1750  144.8030 N   0  0  0  0  0  1  0  0  0  0  0  0
  189.4010  172.1460  143.3810 C   0  0  0  0  0  2  0  0  0  0  0  0
  2 14  1  6  0  0  0
  2 19  1  0  0  0  0
  2  6  1  0  0  0  0
  3  1  1  0  0  0  0
  4 12  1  0  0  0  0
  5 17  2  0  0  0  0
  6  8  1  0  0  0  0
  7 12  2  0  0  0  0
  8  3  1  0  0  0  0
 11  1  1  1  0  0  0
 11 10  1  0  0  0  0
 12  9  1  0  0  0  0
 15  9  2  0  0  0  0
 16  5  1  1  0  0  0
 16 11  1  0  0  0  0
 17  7  1  0  0  0  0
 17 18  1  0  0  0  0
 18 10  1  1  0  0  0
 18 15  1  0  0  0  0
 19 13  1  6  0  0  0
 19 16  1  0  0  0  0
 20 14  1  0  0  0  0
 20 13  1  0  0  0  0
 21 24  1  1  0  0  0
 21 13  1  0  0  0  0
 21 22  1  0  0  0  0
 23 22  1  0  0  0  0
 25 26  1  0  0  0  0
 25 24  1  0  0  0  0
 26 27  1  0  0  0  0
 27 29  1  0  0  0  0
 29 28  1  0  0  0  0
M  END
>  <MODEL>
2

>  <REMARK>
 VINA RESULT:      -6.3      1.403      2.419
  Name = 
  7 active torsions:
  status: ('A' for Active; 'I' for Inactive)
    1  A    between atoms: C_2  and  O_14
    2  A    between atoms: C_2  and  C_17
    3  A    between atoms: O_6  and  C_9
    4  A    between atoms: C_9  and  C_13
    5  A    between atoms: C_9  and  N_21
    6  A    between atoms: C_13  and  C_16
    7  A    between atoms: O_14  and  C_16
                            x       y       z     vdW  Elec       q    Type
                         _______ _______ _______ _____ _____    ______ ____

>  <TORSDO>
F 7

$$$$
=
 OpenBabel11062422573D

 29 32  0  0  1  0  0  0  0  0999 V2000
  190.3450  177.1170  147.3740 C   0  0  0  0  0  2  0  0  0  0  0  0
  190.7140  174.5350  144.5610 C   0  0  2  0  0  3  0  0  0  0  0  0
  191.6580  176.3300  147.4050 C   0  0  0  0  0  2  0  0  0  0  0  0
  183.8460  179.1870  144.2720 C   0  0  0  0  0  1  0  0  0  0  0  0
  188.3220  177.5640  144.5690 N   0  0  0  0  0  0  0  0  0  0  0  0
  191.2830  174.5660  145.8560 O   0  0  0  0  0  0  0  0  0  0  0  0
  186.0740  178.2770  144.3970 N   0  0  0  0  0  0  0  0  0  0  0  0
  192.0280  175.7420  146.0490 C   0  0  0  0  0  2  0  0  0  0  0  0
  184.5930  177.6720  146.1920 C   0  0  0  0  0  3  0  0  0  0  0  0
  187.8760  176.7550  147.1970 C   0  0  0  0  0  2  0  0  0  0  0  0
  189.2450  176.4000  146.6030 C   0  0  1  0  0  3  0  0  0  0  0  0
  184.8900  178.3530  144.9210 C   0  0  0  0  0  0  0  0  0  0  0  0
  189.8270  175.8730  142.8460 N   0  0  0  0  0  0  0  0  0  0  0  0
  191.6500  174.7340  143.4070 C   0  0  0  0  0  2  0  0  0  0  0  0
  185.4720  176.8940  146.7530 N   0  0  0  0  0  0  0  0  0  0  0  0
  189.4100  176.7290  145.0980 C   0  0  1  0  0  3  0  0  0  0  0  0
  187.1010  177.4840  145.0010 C   0  0  0  0  0  0  0  0  0  0  0  0
  186.7770  176.5830  146.1610 C   0  0  1  0  0  3  0  0  0  0  0  0
  189.5690  175.4680  144.2320 C   0  0  2  0  0  3  0  0  0  0  0  0
  190.8370  175.1030  142.3250 O   0  0  0  0  0  0  0  0  0  0  0  0
  188.6070  175.6760  142.0540 C   0  0  1  0  0  3  0  0  0  0  0  0
  188.3350  176.8180  141.2960 O   0  0  0  0  0  0  0  0  0  0  0  0
  186.9430  176.8690  141.2160 C   0  0  0  0  0  1  0  0  0  0  0  0
  188.6790  174.4440  141.1510 C   0  0  0  0  0  2  0  0  0  0  0  0
  187.8570  173.3100  141.7440 C   0  0  0  0  0  2  0  0  0  0  0  0
  188.6710  172.4980  142.5370 O   0  0  0  0  0  0  0  0  0  0  0  0
  189.6260  171.9830  141.6590 C   0  0  0  0  0  2  0  0  0  0  0  0
  190.7120  169.8170  141.8620 N   0  0  0  0  0  1  0  0  0  0  0  0
  190.6360  171.1530  142.4280 C   0  0  0  0  0  2  0  0  0  0  0  0
  1  3  1  0  0  0  0
  2 14  1  6  0  0  0
  2  6  1  0  0  0  0
  4 12  1  0  0  0  0
  5 17  2  0  0  0  0
  6  8  1  0  0  0  0
  7 12  2  0  0  0  0
  7 17  1  0  0  0  0
  8  3  1  0  0  0  0
  9 15  2  0  0  0  0
 11 10  1  1  0  0  0
 11  1  1  0  0  0  0
 12  9  1  0  0  0  0
 16  5  1  6  0  0  0
 16 11  1  0  0  0  0
 17 18  1  0  0  0  0
 18 15  1  0  0  0  0
 18 10  1  1  0  0  0
 19 13  1  6  0  0  0
 19  2  1  0  0  0  0
 19 16  1  0  0  0  0
 20 13  1  0  0  0  0
 20 14  1  0  0  0  0
 21 24  1  6  0  0  0
 21 13  1  0  0  0  0
 22 21  1  0  0  0  0
 23 22  1  0  0  0  0
 24 25  1  0  0  0  0
 25 26  1  0  0  0  0
 27 29  1  0  0  0  0
 27 26  1  0  0  0  0
 28 29  1  0  0  0  0
M  END
>  <MODEL>
3

>  <REMARK>
 VINA RESULT:      -6.2      2.540      5.480
  Name = 
  7 active torsions:
  status: ('A' for Active; 'I' for Inactive)
    1  A    between atoms: C_2  and  O_14
    2  A    between atoms: C_2  and  C_17
    3  A    between atoms: O_6  and  C_9
    4  A    between atoms: C_9  and  C_13
    5  A    between atoms: C_9  and  N_21
    6  A    between atoms: C_13  and  C_16
    7  A    between atoms: O_14  and  C_16
                            x       y       z     vdW  Elec       q    Type
                         _______ _______ _______ _____ _____    ______ ____

>  <TORSDO>
F 7

$$$$
=
 OpenBabel11062422573D

 29 32  0  0  1  0  0  0  0  0999 V2000
  185.4420  178.4990  142.7790 C   0  0  0  0  0  2  0  0  0  0  0  0
  185.4800  177.4310  146.4640 C   0  0  2  0  0  3  0  0  0  0  0  0
  184.2740  179.0410  143.6070 C   0  0  0  0  0  2  0  0  0  0  0  0
  191.9820  174.9370  141.9470 C   0  0  0  0  0  1  0  0  0  0  0  0
  188.5010  177.4210  144.0610 N   0  0  0  0  0  0  0  0  0  0  0  0
  184.3990  177.7900  145.6250 O   0  0  0  0  0  0  0  0  0  0  0  0
  190.2030  176.1120  143.0700 N   0  0  0  0  0  0  0  0  0  0  0  0
  184.5760  179.0810  145.1000 C   0  0  0  0  0  2  0  0  0  0  0  0
  189.5160  174.4300  141.4960 C   0  0  0  0  0  3  0  0  0  0  0  0
  186.6350  176.3560  142.2870 C   0  0  0  0  0  2  0  0  0  0  0  0
  186.0770  177.2600  143.3940 C   0  0  1  0  0  3  0  0  0  0  0  0
  190.5440  175.1870  142.2270 C   0  0  0  0  0  0  0  0  0  0  0  0
  187.7890  177.7030  146.8010 N   0  0  0  0  0  0  0  0  0  0  0  0
  185.8200  178.3830  147.5710 C   0  0  0  0  0  2  0  0  0  0  0  0
  188.2530  174.5950  141.7610 N   0  0  0  0  0  0  0  0  0  0  0  0
  187.1150  177.7160  144.4510 C   0  0  1  0  0  3  0  0  0  0  0  0
  188.8280  176.3790  143.3590 C   0  0  0  0  0  0  0  0  0  0  0  0
  187.7520  175.4750  142.8220 C   0  0  1  0  0  3  0  0  0  0  0  0
  186.8300  177.1360  145.8470 C   0  0  2  0  0  3  0  0  0  0  0  0
  187.1320  178.0630  147.9500 O   0  0  0  0  0  0  0  0  0  0  0  0
  188.8040  176.6910  147.1170 C   0  0  1  0  0  3  0  0  0  0  0  0
  188.4660  175.4690  146.5310 O   0  0  0  0  0  0  0  0  0  0  0  0
  188.9390  174.5030  147.4210 C   0  0  0  0  0  1  0  0  0  0  0  0
  190.2120  177.1110  146.6940 C   0  0  0  0  0  2  0  0  0  0  0  0
  191.2100  176.7860  147.7950 C   0  0  0  0  0  2  0  0  0  0  0  0
  192.5030  176.7450  147.2670 O   0  0  0  0  0  0  0  0  0  0  0  0
  192.3650  176.1080  146.0340 C   0  0  0  0  0  2  0  0  0  0  0  0
  194.5750  177.0860  145.7660 N   0  0  0  0  0  1  0  0  0  0  0  0
  193.3830  176.6600  145.0530 C   0  0  0  0  0  2  0  0  0  0  0  0
  1 11  1  0  0  0  0
  1  3  1  0  0  0  0
  2 14  1  1  0  0  0
  3  8  1  0  0  0  0
  4 12  1  0  0  0  0
  6  2  1  0  0  0  0
  7 17  1  0  0  0  0
  8  6  1  0  0  0  0
  9 15  2  0  0  0  0
  9 12  1  0  0  0  0
 11 10  1  6  0  0  0
 11 16  1  0  0  0  0
 12  7  2  0  0  0  0
 13 21  1  0  0  0  0
 13 20  1  0  0  0  0
 14 20  1  0  0  0  0
 15 18  1  0  0  0  0
 16  5  1  6  0  0  0
 16 19  1  0  0  0  0
 17  5  2  0  0  0  0
 18 10  1  6  0  0  0
 18 17  1  0  0  0  0
 19  2  1  0  0  0  0
 19 13  1  1  0  0  0
 21 24  1  6  0  0  0
 22 21  1  0  0  0  0
 22 23  1  0  0  0  0
 24 25  1  0  0  0  0
 26 25  1  0  0  0  0
 27 26  1  0  0  0  0
 29 28  1  0  0  0  0
 29 27  1  0  0  0  0
M  END
>  <MODEL>
4

>  <REMARK>
 VINA RESULT:      -6.0      2.315      4.272
  Name = 
  7 active torsions:
  status: ('A' for Active; 'I' for Inactive)
    1  A    between atoms: C_2  and  O_14
    2  A    between atoms: C_2  and  C_17
    3  A    between atoms: O_6  and  C_9
    4  A    between atoms: C_9  and  C_13
    5  A    between atoms: C_9  and  N_21
    6  A    between atoms: C_13  and  C_16
    7  A    between atoms: O_14  and  C_16
                            x       y       z     vdW  Elec       q    Type
                         _______ _______ _______ _____ _____    ______ ____

>  <TORSDO>
F 7

$$$$
=
 OpenBabel11062422573D

 29 32  0  0  1  0  0  0  0  0999 V2000
  186.8470  178.1520  142.0170 C   0  0  0  0  0  2  0  0  0  0  0  0
  186.7480  177.0690  145.6970 C   0  0  2  0  0  3  0  0  0  0  0  0
  185.6870  178.7450  142.8210 C   0  0  0  0  0  2  0  0  0  0  0  0
  193.2270  174.2830  141.3200 C   0  0  0  0  0  1  0  0  0  0  0  0
  189.8200  176.9230  143.3650 N   0  0  0  0  0  0  0  0  0  0  0  0
  185.7040  177.4830  144.8350 O   0  0  0  0  0  0  0  0  0  0  0  0
  191.4800  175.5380  142.4080 N   0  0  0  0  0  0  0  0  0  0  0  0
  185.9560  178.7650  144.3210 C   0  0  0  0  0  2  0  0  0  0  0  0
  190.7500  173.8970  140.8090 C   0  0  0  0  0  3  0  0  0  0  0  0
  187.9470  175.9560  141.5430 C   0  0  0  0  0  2  0  0  0  0  0  0
  187.4080  176.8810  142.6410 C   0  0  1  0  0  3  0  0  0  0  0  0
  191.7970  174.6010  141.5680 C   0  0  0  0  0  0  0  0  0  0  0  0
  189.0580  177.2280  146.0890 N   0  0  0  0  0  0  0  0  0  0  0  0
  187.1060  177.9990  146.8160 C   0  0  0  0  0  2  0  0  0  0  0  0
  189.4910  174.1210  141.0460 N   0  0  0  0  0  0  0  0  0  0  0  0
  188.4410  177.2830  143.7240 C   0  0  1  0  0  3  0  0  0  0  0  0
  190.1130  175.8690  142.6660 C   0  0  0  0  0  0  0  0  0  0  0  0
  189.0080  175.0200  142.1000 C   0  0  1  0  0  3  0  0  0  0  0  0
  188.0960  176.7110  145.1100 C   0  0  2  0  0  3  0  0  0  0  0  0
  188.3930  177.6150  147.2240 O   0  0  0  0  0  0  0  0  0  0  0  0
  190.0160  176.1670  146.4240 C   0  0  1  0  0  3  0  0  0  0  0  0
  191.1220  176.7070  147.0850 O   0  0  0  0  0  0  0  0  0  0  0  0
  192.2120  176.3890  146.2750 C   0  0  0  0  0  1  0  0  0  0  0  0
  189.3930  175.0480  147.2590 C   0  0  0  0  0  2  0  0  0  0  0  0
  189.3400  173.7590  146.4540 C   0  0  0  0  0  2  0  0  0  0  0  0
  190.2430  173.8260  145.3910 O   0  0  0  0  0  0  0  0  0  0  0  0
  190.0490  172.6400  144.6820 C   0  0  0  0  0  2  0  0  0  0  0  0
  192.4630  172.9270  144.7220 N   0  0  0  0  0  1  0  0  0  0  0  0
  191.3860  172.0950  144.2160 C   0  0  0  0  0  2  0  0  0  0  0  0
  1 11  1  0  0  0  0
  1  3  1  0  0  0  0
  2 14  1  1  0  0  0
  3  8  1  0  0  0  0
  4 12  1  0  0  0  0
  6  2  1  0  0  0  0
  7 17  1  0  0  0  0
  8  6  1  0  0  0  0
  9 15  2  0  0  0  0
  9 12  1  0  0  0  0
 11 10  1  6  0  0  0
 11 16  1  0  0  0  0
 12  7  2  0  0  0  0
 13 21  1  0  0  0  0
 13 20  1  0  0  0  0
 14 20  1  0  0  0  0
 15 18  1  0  0  0  0
 16  5  1  6  0  0  0
 16 19  1  0  0  0  0
 17  5  2  0  0  0  0
 18 10  1  6  0  0  0
 18 17  1  0  0  0  0
 19  2  1  0  0  0  0
 19 13  1  1  0  0  0
 21 22  1  0  0  0  0
 21 24  1  1  0  0  0
 23 22  1  0  0  0  0
 25 24  1  0  0  0  0
 26 25  1  0  0  0  0
 27 26  1  0  0  0  0
 29 27  1  0  0  0  0
 29 28  1  0  0  0  0
M  END
>  <MODEL>
5

>  <REMARK>
 VINA RESULT:      -5.8      2.495      4.874
  Name = 
  7 active torsions:
  status: ('A' for Active; 'I' for Inactive)
    1  A    between atoms: C_2  and  O_14
    2  A    between atoms: C_2  and  C_17
    3  A    between atoms: O_6  and  C_9
    4  A    between atoms: C_9  and  C_13
    5  A    between atoms: C_9  and  N_21
    6  A    between atoms: C_13  and  C_16
    7  A    between atoms: O_14  and  C_16
                            x       y       z     vdW  Elec       q    Type
                         _______ _______ _______ _____ _____    ______ ____

>  <TORSDO>
F 7

$$$$
=
 OpenBabel11062422573D

 29 32  0  0  1  0  0  0  0  0999 V2000
  188.8350  172.7360  142.6590 C   0  0  0  0  0  2  0  0  0  0  0  0
  192.4920  173.6560  143.3690 C   0  0  2  0  0  3  0  0  0  0  0  0
  189.8610  171.8330  141.9690 C   0  0  0  0  0  2  0  0  0  0  0  0
  186.8160  178.1820  147.3930 C   0  0  0  0  0  1  0  0  0  0  0  0
  189.4350  174.6760  145.4940 N   0  0  0  0  0  0  0  0  0  0  0  0
  191.9110  173.0020  142.2570 O   0  0  0  0  0  0  0  0  0  0  0  0
  188.2070  176.4790  146.4070 N   0  0  0  0  0  0  0  0  0  0  0  0
  191.2200  171.8460  142.6580 C   0  0  0  0  0  2  0  0  0  0  0  0
  187.0450  177.9070  144.8610 C   0  0  0  0  0  3  0  0  0  0  0  0
  188.3040  175.1570  142.9940 C   0  0  0  0  0  2  0  0  0  0  0  0
  189.4070  174.0930  143.0440 C   0  0  1  0  0  3  0  0  0  0  0  0
  187.4130  177.4880  146.2230 C   0  0  0  0  0  0  0  0  0  0  0  0
  192.2180  174.1080  145.6580 N   0  0  0  0  0  0  0  0  0  0  0  0
  193.3700  172.8260  144.2560 C   0  0  0  0  0  2  0  0  0  0  0  0
  187.5930  177.3500  143.8210 N   0  0  0  0  0  0  0  0  0  0  0  0
  190.1200  173.9530  144.4130 C   0  0  1  0  0  3  0  0  0  0  0  0
  188.7940  175.7880  145.3000 C   0  0  0  0  0  0  0  0  0  0  0  0
  188.6410  176.3270  143.9050 C   0  0  1  0  0  3  0  0  0  0  0  0
  191.5980  174.3750  144.3560 C   0  0  2  0  0  3  0  0  0  0  0  0
  193.4470  173.5280  145.4680 O   0  0  0  0  0  0  0  0  0  0  0  0
  192.3850  175.3770  146.3770 C   0  0  1  0  0  3  0  0  0  0  0  0
  191.8920  175.2610  147.6790 O   0  0  0  0  0  0  0  0  0  0  0  0
  191.3700  176.5210  147.9760 C   0  0  0  0  0  1  0  0  0  0  0  0
  193.8360  175.8600  146.4000 C   0  0  0  0  0  2  0  0  0  0  0  0
  194.0200  177.0180  145.4330 C   0  0  0  0  0  2  0  0  0  0  0  0
  194.3780  176.5330  144.1740 O   0  0  0  0  0  0  0  0  0  0  0  0
  195.6710  176.0360  144.3370 C   0  0  0  0  0  2  0  0  0  0  0  0
  196.1150  176.5910  142.0110 N   0  0  0  0  0  1  0  0  0  0  0  0
  196.6140  176.7260  143.3690 C   0  0  0  0  0  2  0  0  0  0  0  0
  2 14  1  1  0  0  0
  2 19  1  0  0  0  0
  3  8  1  0  0  0  0
  3  1  1  0  0  0  0
  6  8  1  0  0  0  0
  6  2  1  0  0  0  0
  9 12  1  0  0  0  0
 10 11  1  0  0  0  0
 11  1  1  1  0  0  0
 11 16  1  0  0  0  0
 12  7  2  0  0  0  0
 12  4  1  0  0  0  0
 13 21  1  0  0  0  0
 14 20  1  0  0  0  0
 15 18  1  0  0  0  0
 15  9  2  0  0  0  0
 16  5  1  1  0  0  0
 17  5  2  0  0  0  0
 17  7  1  0  0  0  0
 18 10  1  6  0  0  0
 18 17  1  0  0  0  0
 19 16  1  0  0  0  0
 19 13  1  1  0  0  0
 20 13  1  0  0  0  0
 21 24  1  1  0  0  0
 21 22  1  0  0  0  0
 22 23  1  0  0  0  0
 25 24  1  0  0  0  0
 26 27  1  0  0  0  0
 26 25  1  0  0  0  0
 28 29  1  0  0  0  0
 29 27  1  0  0  0  0
M  END
>  <MODEL>
6

>  <REMARK>
 VINA RESULT:      -5.8      3.181      6.541
  Name = 
  7 active torsions:
  status: ('A' for Active; 'I' for Inactive)
    1  A    between atoms: C_2  and  O_14
    2  A    between atoms: C_2  and  C_17
    3  A    between atoms: O_6  and  C_9
    4  A    between atoms: C_9  and  C_13
    5  A    between atoms: C_9  and  N_21
    6  A    between atoms: C_13  and  C_16
    7  A    between atoms: O_14  and  C_16
                            x       y       z     vdW  Elec       q    Type
                         _______ _______ _______ _____ _____    ______ ____

>  <TORSDO>
F 7

$$$$
=
 OpenBabel11062422573D

 29 32  0  0  1  0  0  0  0  0999 V2000
  192.4040  175.3730  146.5590 C   0  0  0  0  0  2  0  0  0  0  0  0
  189.2990  177.3680  145.5120 C   0  0  2  0  0  3  0  0  0  0  0  0
  191.5700  175.9050  147.7270 C   0  0  0  0  0  2  0  0  0  0  0  0
  193.6820  174.0450  139.2960 C   0  0  0  0  0  1  0  0  0  0  0  0
  191.2400  174.8600  143.3120 N   0  0  0  0  0  0  0  0  0  0  0  0
  190.0800  177.4390  146.6910 O   0  0  0  0  0  0  0  0  0  0  0  0
  192.4250  174.5470  141.2900 N   0  0  0  0  0  0  0  0  0  0  0  0
  190.1250  176.1940  147.3390 C   0  0  0  0  0  2  0  0  0  0  0  0
  194.5300  175.6860  141.0660 C   0  0  0  0  0  3  0  0  0  0  0  0
  193.4510  176.1420  144.4220 C   0  0  0  0  0  2  0  0  0  0  0  0
  192.1720  176.1450  145.2680 C   0  0  1  0  0  3  0  0  0  0  0  0
  193.4860  174.7700  140.5780 C   0  0  0  0  0  0  0  0  0  0  0  0
  188.6520  175.9570  143.7490 N   0  0  0  0  0  0  0  0  0  0  0  0
  187.9100  176.8230  145.6560 C   0  0  0  0  0  2  0  0  0  0  0  0
  194.3590  176.3700  142.1590 N   0  0  0  0  0  0  0  0  0  0  0  0
  190.9220  175.5580  144.5660 C   0  0  1  0  0  3  0  0  0  0  0  0
  192.2090  175.2260  142.5300 C   0  0  0  0  0  0  0  0  0  0  0  0
  193.1250  176.3430  142.9500 C   0  0  1  0  0  3  0  0  0  0  0  0
  189.8350  176.6170  144.3130 C   0  0  2  0  0  3  0  0  0  0  0  0
  187.5230  176.4400  144.3620 O   0  0  0  0  0  0  0  0  0  0  0  0
  188.5840  176.2430  142.3110 C   0  0  1  0  0  3  0  0  0  0  0  0
  187.5940  175.4630  141.7100 O   0  0  0  0  0  0  0  0  0  0  0  0
  188.1380  174.1790  141.6510 C   0  0  0  0  0  1  0  0  0  0  0  0
  188.3480  177.7240  142.0120 C   0  0  0  0  0  2  0  0  0  0  0  0
  187.0880  177.8970  141.1770 C   0  0  0  0  0  2  0  0  0  0  0  0
  186.1350  178.6170  141.9000 O   0  0  0  0  0  0  0  0  0  0  0  0
  184.9450  177.9120  141.7240 C   0  0  0  0  0  2  0  0  0  0  0  0
  182.7790  178.1610  140.6470 N   0  0  0  0  0  1  0  0  0  0  0  0
  184.1960  178.4560  140.5220 C   0  0  0  0  0  2  0  0  0  0  0  0
  1  3  1  0  0  0  0
  2 14  1  1  0  0  0
  2  6  1  0  0  0  0
  4 12  1  0  0  0  0
  6  8  1  0  0  0  0
  7 17  1  0  0  0  0
  8  3  1  0  0  0  0
  9 15  2  0  0  0  0
 11 10  1  6  0  0  0
 11  1  1  0  0  0  0
 12  9  1  0  0  0  0
 12  7  2  0  0  0  0
 13 20  1  0  0  0  0
 15 18  1  0  0  0  0
 16  5  1  6  0  0  0
 16 11  1  0  0  0  0
 17 18  1  0  0  0  0
 17  5  2  0  0  0  0
 18 10  1  1  0  0  0
 19 13  1  1  0  0  0
 19 16  1  0  0  0  0
 19  2  1  0  0  0  0
 20 14  1  0  0  0  0
 21 24  1  1  0  0  0
 21 13  1  0  0  0  0
 22 21  1  0  0  0  0
 23 22  1  0  0  0  0
 25 26  1  0  0  0  0
 25 24  1  0  0  0  0
 27 26  1  0  0  0  0
 29 28  1  0  0  0  0
 29 27  1  0  0  0  0
M  END
>  <MODEL>
7

>  <REMARK>
 VINA RESULT:      -5.7      2.217      5.670
  Name = 
  7 active torsions:
  status: ('A' for Active; 'I' for Inactive)
    1  A    between atoms: C_2  and  O_14
    2  A    between atoms: C_2  and  C_17
    3  A    between atoms: O_6  and  C_9
    4  A    between atoms: C_9  and  C_13
    5  A    between atoms: C_9  and  N_21
    6  A    between atoms: C_13  and  C_16
    7  A    between atoms: O_14  and  C_16
                            x       y       z     vdW  Elec       q    Type
                         _______ _______ _______ _____ _____    ______ ____

>  <TORSDO>
F 7

$$$$
=
 OpenBabel11062422573D

 29 32  0  0  1  0  0  0  0  0999 V2000
  183.1390  178.2810  142.1590 C   0  0  0  0  0  2  0  0  0  0  0  0
  186.6070  177.9240  140.5570 C   0  0  2  0  0  3  0  0  0  0  0  0
  183.1520  178.4390  140.6370 C   0  0  0  0  0  2  0  0  0  0  0  0
  186.3040  176.6550  148.7540 C   0  0  0  0  0  1  0  0  0  0  0  0
  185.5660  176.6290  144.0410 N   0  0  0  0  0  0  0  0  0  0  0  0
  185.4640  178.6360  140.1200 O   0  0  0  0  0  0  0  0  0  0  0  0
  186.0150  176.6940  146.3620 N   0  0  0  0  0  0  0  0  0  0  0  0
  184.3600  177.7780  139.9830 C   0  0  0  0  0  2  0  0  0  0  0  0
  185.5920  178.7690  147.5010 C   0  0  0  0  0  3  0  0  0  0  0  0
  184.3190  179.1150  144.2010 C   0  0  0  0  0  2  0  0  0  0  0  0
  184.4990  178.5380  142.7920 C   0  0  1  0  0  3  0  0  0  0  0  0
  185.9920  177.3520  147.4790 C   0  0  0  0  0  0  0  0  0  0  0  0
  187.3250  176.1110  141.8660 N   0  0  0  0  0  0  0  0  0  0  0  0
  186.9990  176.7210  139.7540 C   0  0  0  0  0  2  0  0  0  0  0  0
  185.3650  179.4140  146.3950 N   0  0  0  0  0  0  0  0  0  0  0  0
  185.3270  177.2300  142.7210 C   0  0  1  0  0  3  0  0  0  0  0  0
  185.7170  177.3370  145.1190 C   0  0  0  0  0  0  0  0  0  0  0  0
  185.5390  178.8290  145.0610 C   0  0  1  0  0  3  0  0  0  0  0  0
  186.6620  177.4140  141.9810 C   0  0  2  0  0  3  0  0  0  0  0  0
  187.8270  175.9630  140.5970 O   0  0  0  0  0  0  0  0  0  0  0  0
  188.4250  176.0470  142.8350 C   0  0  1  0  0  3  0  0  0  0  0  0
  189.4280  175.1920  142.3700 O   0  0  0  0  0  0  0  0  0  0  0  0
  189.1910  173.9790  143.0170 C   0  0  0  0  0  1  0  0  0  0  0  0
  189.0100  177.4220  143.1610 C   0  0  0  0  0  2  0  0  0  0  0  0
  189.2720  177.5410  144.6540 C   0  0  0  0  0  2  0  0  0  0  0  0
  190.6380  177.4060  144.9090 O   0  0  0  0  0  0  0  0  0  0  0  0
  190.7340  176.3210  145.7800 C   0  0  0  0  0  2  0  0  0  0  0  0
  189.2730  174.9700  147.1780 N   0  0  0  0  0  1  0  0  0  0  0  0
  189.5580  176.3250  146.7390 C   0  0  0  0  0  2  0  0  0  0  0  0
  2 14  1  6  0  0  0
  2 19  1  0  0  0  0
  3  1  1  0  0  0  0
  5 17  2  0  0  0  0
  6  2  1  0  0  0  0
  7 12  2  0  0  0  0
  8  6  1  0  0  0  0
  8  3  1  0  0  0  0
 11  1  1  1  0  0  0
 11 10  1  0  0  0  0
 12  9  1  0  0  0  0
 12  4  1  0  0  0  0
 13 21  1  0  0  0  0
 14 20  1  0  0  0  0
 15  9  2  0  0  0  0
 16 11  1  0  0  0  0
 16  5  1  1  0  0  0
 17  7  1  0  0  0  0
 18 10  1  6  0  0  0
 18 17  1  0  0  0  0
 18 15  1  0  0  0  0
 19 13  1  6  0  0  0
 19 16  1  0  0  0  0
 20 13  1  0  0  0  0
 21 24  1  6  0  0  0
 22 21  1  0  0  0  0
 22 23  1  0  0  0  0
 24 25  1  0  0  0  0
 25 26  1  0  0  0  0
 26 27  1  0  0  0  0
 27 29  1  0  0  0  0
 29 28  1  0  0  0  0
M  END
>  <MODEL>
8

>  <REMARK>
 VINA RESULT:      -5.6      2.154      4.087
  Name = 
  7 active torsions:
  status: ('A' for Active; 'I' for Inactive)
    1  A    between atoms: C_2  and  O_14
    2  A    between atoms: C_2  and  C_17
    3  A    between atoms: O_6  and  C_9
    4  A    between atoms: C_9  and  C_13
    5  A    between atoms: C_9  and  N_21
    6  A    between atoms: C_13  and  C_16
    7  A    between atoms: O_14  and  C_16
                            x       y       z     vdW  Elec       q    Type
                         _______ _______ _______ _____ _____    ______ ____

>  <TORSDO>
F 7

$$$$
=
 OpenBabel11062422573D

 29 32  0  0  1  0  0  0  0  0999 V2000
  188.5330  173.0090  140.2530 C   0  0  0  0  0  2  0  0  0  0  0  0
  191.1880  174.0870  142.8030 C   0  0  2  0  0  3  0  0  0  0  0  0
  189.8030  172.1540  140.2450 C   0  0  0  0  0  2  0  0  0  0  0  0
  184.0700  178.3510  143.0270 C   0  0  0  0  0  1  0  0  0  0  0  0
  187.4320  174.9680  142.9190 N   0  0  0  0  0  0  0  0  0  0  0  0
  191.3250  173.4110  141.5680 O   0  0  0  0  0  0  0  0  0  0  0  0
  185.8370  176.7130  142.9850 N   0  0  0  0  0  0  0  0  0  0  0  0
  190.5730  172.2250  141.5580 C   0  0  0  0  0  2  0  0  0  0  0  0
  185.6410  178.0920  141.0250 C   0  0  0  0  0  3  0  0  0  0  0  0
  187.8130  175.4030  140.1940 C   0  0  0  0  0  2  0  0  0  0  0  0
  188.7540  174.3890  140.8550 C   0  0  1  0  0  3  0  0  0  0  0  0
  185.2300  177.6860  142.3790 C   0  0  0  0  0  0  0  0  0  0  0  0
  189.7050  174.5230  144.5710 N   0  0  0  0  0  0  0  0  0  0  0  0
  191.4790  173.2950  144.0420 C   0  0  0  0  0  2  0  0  0  0  0  0
  186.6850  177.5610  140.4580 N   0  0  0  0  0  0  0  0  0  0  0  0
  188.6190  174.2780  142.3950 C   0  0  1  0  0  3  0  0  0  0  0  0
  186.9550  176.0510  142.3860 C   0  0  0  0  0  0  0  0  0  0  0  0
  187.5600  176.5850  141.1160 C   0  0  1  0  0  3  0  0  0  0  0  0
  189.8760  174.7650  143.1350 C   0  0  2  0  0  3  0  0  0  0  0  0
  190.8620  173.9980  145.0880 O   0  0  0  0  0  0  0  0  0  0  0  0
  189.4080  175.7960  145.2390 C   0  0  1  0  0  3  0  0  0  0  0  0
  188.4530  175.6040  146.2410 O   0  0  0  0  0  0  0  0  0  0  0  0
  187.6420  176.7380  146.1830 C   0  0  0  0  0  1  0  0  0  0  0  0
  190.6540  176.4680  145.8160 C   0  0  0  0  0  2  0  0  0  0  0  0
  191.2360  177.4480  144.8090 C   0  0  0  0  0  2  0  0  0  0  0  0
  192.5290  177.0530  144.4550 O   0  0  0  0  0  0  0  0  0  0  0  0
  193.1080  176.6190  145.6470 C   0  0  0  0  0  2  0  0  0  0  0  0
  195.3180  176.7150  144.6370 N   0  0  0  0  0  1  0  0  0  0  0  0
  194.5180  177.1660  145.7630 C   0  0  0  0  0  2  0  0  0  0  0  0
  1 11  1  0  0  0  0
  2 19  1  0  0  0  0
  2 14  1  1  0  0  0
  3  1  1  0  0  0  0
  3  8  1  0  0  0  0
  6  2  1  0  0  0  0
  8  6  1  0  0  0  0
  9 12  1  0  0  0  0
 11 10  1  6  0  0  0
 11 16  1  0  0  0  0
 12  7  2  0  0  0  0
 12  4  1  0  0  0  0
 13 20  1  0  0  0  0
 13 21  1  0  0  0  0
 14 20  1  0  0  0  0
 15  9  2  0  0  0  0
 15 18  1  0  0  0  0
 16  5  1  1  0  0  0
 16 19  1  0  0  0  0
 17  5  2  0  0  0  0
 17  7  1  0  0  0  0
 18 10  1  6  0  0  0
 18 17  1  0  0  0  0
 19 13  1  1  0  0  0
 21 24  1  1  0  0  0
 21 22  1  0  0  0  0
 23 22  1  0  0  0  0
 25 24  1  0  0  0  0
 26 25  1  0  0  0  0
 26 27  1  0  0  0  0
 27 29  1  0  0  0  0
 28 29  1  0  0  0  0
M  END
>  <MODEL>
9

>  <REMARK>
 VINA RESULT:      -5.6      2.561      6.432
  Name = 
  7 active torsions:
  status: ('A' for Active; 'I' for Inactive)
    1  A    between atoms: C_2  and  O_14
    2  A    between atoms: C_2  and  C_17
    3  A    between atoms: O_6  and  C_9
    4  A    between atoms: C_9  and  C_13
    5  A    between atoms: C_9  and  N_21
    6  A    between atoms: C_13  and  C_16
    7  A    between atoms: O_14  and  C_16
                            x       y       z     vdW  Elec       q    Type
                         _______ _______ _______ _____ _____    ______ ____

>  <TORSDO>
F 7

$$$$
