=
 OpenBabel11062420163D

 25 27  0  0  1  0  0  0  0  0999 V2000
  188.4620  177.2820  142.6330 C   0  0  0  0  0  3  0  0  0  0  0  0
  186.1810  177.9510  141.8350 C   0  0  0  0  0  0  0  0  0  0  0  0
  188.1590  176.9960  146.2370 C   0  0  0  0  0  1  0  0  0  0  0  0
  188.0170  177.3300  144.7880 C   0  0  0  0  0  0  0  0  0  0  0  0
  187.1520  177.6830  142.7950 C   0  0  0  0  0  0  0  0  0  0  0  0
  186.4790  177.8800  140.4450 N   0  0  0  0  0  1  0  0  0  0  0  0
  184.9220  178.2580  142.2550 N   0  0  0  0  0  0  0  0  0  0  0  0
  185.5610  178.0720  144.5800 C   0  0  0  0  0  0  0  0  0  0  0  0
  188.9830  177.0880  143.8650 N   0  0  0  0  0  0  0  0  0  0  0  0
  186.8580  177.7310  144.1380 C   0  0  0  0  0  0  0  0  0  0  0  0
  184.5980  178.3240  143.5830 C   0  0  0  0  0  3  0  0  0  0  0  0
  191.8880  174.8490  144.4420 O   0  0  0  0  0  0  0  0  0  0  0  0
  191.3850  177.5490  144.4400 C   0  0  0  0  0  3  0  0  0  0  0  0
  190.3100  176.5930  144.1110 C   0  0  0  0  0  0  0  0  0  0  0  0
  193.0170  175.7160  144.2910 C   0  0  1  0  0  3  0  0  0  0  0  0
  190.5790  175.2740  144.1680 C   0  0  0  0  0  0  0  0  0  0  0  0
  192.6490  177.1440  144.5700 C   0  0  0  0  0  3  0  0  0  0  0  0
  189.4140  173.8170  142.7080 O   0  0  0  0  0  1  0  0  0  0  0  0
  189.7920  173.0620  144.9320 C   0  0  0  0  0  1  0  0  0  0  0  0
  189.5000  174.2460  144.0320 C   0  0  1  0  0  3  0  0  0  0  0  0
  194.2520  176.2220  146.3910 C   0  0  0  0  0  1  0  0  0  0  0  0
  194.1460  175.2810  145.2070 C   0  0  0  0  0  2  0  0  0  0  0  0
  185.6120  179.3270  146.7160 O   0  0  0  0  0  1  0  0  0  0  0  0
  185.1670  178.2270  145.9920 C   0  0  0  0  0  0  0  0  0  0  0  0
  184.4940  177.3410  146.5780 O   0  0  0  0  0  0  0  0  0  0  0  0
  1  5  2  0  0  0  0
  1  9  1  0  0  0  0
  2  7  2  0  0  0  0
  2  5  1  0  0  0  0
  4  3  1  0  0  0  0
  5 10  1  0  0  0  0
  6  2  1  0  0  0  0
  7 11  1  0  0  0  0
  8 24  1  0  0  0  0
  9 14  1  0  0  0  0
  9  4  1  0  0  0  0
 10  8  1  0  0  0  0
 10  4  2  0  0  0  0
 11  8  2  0  0  0  0
 13 17  2  0  0  0  0
 14 16  2  0  0  0  0
 14 13  1  0  0  0  0
 15 12  1  0  0  0  0
 15 17  1  0  0  0  0
 15 22  1  1  0  0  0
 16 12  1  0  0  0  0
 18 20  1  0  0  0  0
 20 16  1  0  0  0  0
 20 19  1  1  0  0  0
 22 21  1  0  0  0  0
 24 25  2  0  0  0  0
 24 23  1  0  0  0  0
M  END
>  <MODEL>
1

>  <REMARK>
 VINA RESULT:      -7.0      0.000      0.000
  Name = 
  4 active torsions:
  status: ('A' for Active; 'I' for Inactive)
    1  A    between atoms: C_9  and  C_20
    2  A    between atoms: C_10  and  N_22
    3  A    between atoms: C_11  and  C_18
    4  A    between atoms: C_19  and  C_23
                            x       y       z     vdW  Elec       q    Type
                         _______ _______ _______ _____ _____    ______ ____

>  <TORSDO>
F 4

$$$$
=
 OpenBabel11062420163D

 25 27  0  0  1  0  0  0  0  0999 V2000
  187.7580  177.8180  145.7640 C   0  0  0  0  0  3  0  0  0  0  0  0
  185.4630  178.7180  146.2190 C   0  0  0  0  0  0  0  0  0  0  0  0
  187.9440  177.4780  142.1570 C   0  0  0  0  0  1  0  0  0  0  0  0
  187.5280  177.5860  143.5870 C   0  0  0  0  0  0  0  0  0  0  0  0
  186.4760  178.1950  145.4230 C   0  0  0  0  0  0  0  0  0  0  0  0
  185.6430  178.8950  147.6210 N   0  0  0  0  0  1  0  0  0  0  0  0
  184.2950  179.0880  145.6240 N   0  0  0  0  0  0  0  0  0  0  0  0
  185.0920  178.4030  143.4460 C   0  0  0  0  0  0  0  0  0  0  0  0
  188.3840  177.4310  144.6300 N   0  0  0  0  0  0  0  0  0  0  0  0
  186.3080  178.0440  144.0660 C   0  0  0  0  0  0  0  0  0  0  0  0
  184.0910  178.9430  144.2790 C   0  0  0  0  0  3  0  0  0  0  0  0
  191.5420  175.4980  144.9070 O   0  0  0  0  0  0  0  0  0  0  0  0
  190.7810  178.0350  144.1800 C   0  0  0  0  0  3  0  0  0  0  0  0
  189.7650  177.0370  144.5660 C   0  0  0  0  0  0  0  0  0  0  0  0
  192.4650  176.2460  144.1090 C   0  0  1  0  0  3  0  0  0  0  0  0
  190.1760  175.8170  144.9640 C   0  0  0  0  0  0  0  0  0  0  0  0
  192.0560  177.6850  144.0040 C   0  0  0  0  0  3  0  0  0  0  0  0
  189.5190  173.5440  145.0650 O   0  0  0  0  0  1  0  0  0  0  0  0
  189.3230  174.8270  147.0580 C   0  0  0  0  0  1  0  0  0  0  0  0
  189.2260  174.8190  145.5450 C   0  0  1  0  0  3  0  0  0  0  0  0
  193.8800  176.6190  146.1220 C   0  0  0  0  0  1  0  0  0  0  0  0
  193.8670  176.1430  144.6820 C   0  0  0  0  0  2  0  0  0  0  0  0
  185.6850  178.6440  141.0520 O   0  0  0  0  0  0  0  0  0  0  0  0
  184.7850  178.2080  142.0170 C   0  0  0  0  0  0  0  0  0  0  0  0
  183.6850  177.7200  141.6510 O   0  0  0  0  0  1  0  0  0  0  0  0
  2  6  1  0  0  0  0
  3  4  1  0  0  0  0
  4 10  2  0  0  0  0
  4  9  1  0  0  0  0
  5  1  2  0  0  0  0
  5  2  1  0  0  0  0
  7  2  2  0  0  0  0
  8 10  1  0  0  0  0
  8 11  2  0  0  0  0
  9  1  1  0  0  0  0
 10  5  1  0  0  0  0
 11  7  1  0  0  0  0
 12 16  1  0  0  0  0
 13 14  1  0  0  0  0
 14  9  1  0  0  0  0
 14 16  2  0  0  0  0
 15 22  1  1  0  0  0
 15 12  1  0  0  0  0
 16 20  1  0  0  0  0
 17 15  1  0  0  0  0
 17 13  2  0  0  0  0
 18 20  1  0  0  0  0
 20 19  1  1  0  0  0
 22 21  1  0  0  0  0
 23 24  2  0  0  0  0
 24  8  1  0  0  0  0
 25 24  1  0  0  0  0
M  END
>  <MODEL>
2

>  <REMARK>
 VINA RESULT:      -6.5      2.270      2.987
  Name = 
  4 active torsions:
  status: ('A' for Active; 'I' for Inactive)
    1  A    between atoms: C_9  and  C_20
    2  A    between atoms: C_10  and  N_22
    3  A    between atoms: C_11  and  C_18
    4  A    between atoms: C_19  and  C_23
                            x       y       z     vdW  Elec       q    Type
                         _______ _______ _______ _____ _____    ______ ____

>  <TORSDO>
F 4

$$$$
=
 OpenBabel11062420163D

 25 27  0  0  1  0  0  0  0  0999 V2000
  189.6450  174.3200  144.7050 C   0  0  0  0  0  3  0  0  0  0  0  0
  191.6990  172.8860  144.6160 C   0  0  0  0  0  0  0  0  0  0  0  0
  190.8590  177.6740  145.3670 C   0  0  0  0  0  1  0  0  0  0  0  0
  190.6530  176.2000  145.2490 C   0  0  0  0  0  0  0  0  0  0  0  0
  190.9930  174.0630  144.8410 C   0  0  0  0  0  0  0  0  0  0  0  0
  191.0330  171.6880  144.2300 N   0  0  0  0  0  1  0  0  0  0  0  0
  193.0550  172.9080  144.7470 N   0  0  0  0  0  0  0  0  0  0  0  0
  193.0420  175.2490  145.3530 C   0  0  0  0  0  0  0  0  0  0  0  0
  189.4510  175.6300  144.9760 N   0  0  0  0  0  0  0  0  0  0  0  0
  191.6400  175.2250  145.1940 C   0  0  0  0  0  0  0  0  0  0  0  0
  193.7290  174.0440  145.1050 C   0  0  0  0  0  3  0  0  0  0  0  0
  186.5100  177.4780  143.6640 O   0  0  0  0  0  0  0  0  0  0  0  0
  187.3920  176.5440  146.0910 C   0  0  0  0  0  3  0  0  0  0  0  0
  188.1810  176.2960  144.8690 C   0  0  0  0  0  0  0  0  0  0  0  0
  185.5260  177.3180  144.6910 C   0  0  1  0  0  3  0  0  0  0  0  0
  187.7440  176.8100  143.7030 C   0  0  0  0  0  0  0  0  0  0  0  0
  186.1650  177.0620  146.0240 C   0  0  0  0  0  3  0  0  0  0  0  0
  187.9530  175.9760  141.4960 O   0  0  0  0  0  1  0  0  0  0  0  0
  188.7860  178.1640  141.9200 C   0  0  0  0  0  1  0  0  0  0  0  0
  188.5780  176.7630  142.4620 C   0  0  1  0  0  3  0  0  0  0  0  0
  185.3610  179.7540  144.2090 C   0  0  0  0  0  1  0  0  0  0  0  0
  184.6360  178.5460  144.7680 C   0  0  0  0  0  2  0  0  0  0  0  0
  194.6370  177.0920  144.9050 O   0  0  0  0  0  0  0  0  0  0  0  0
  193.8180  176.4190  145.8040 C   0  0  0  0  0  0  0  0  0  0  0  0
  193.8120  176.7750  147.0100 O   0  0  0  0  0  1  0  0  0  0  0  0
  1  5  2  0  0  0  0
  1  9  1  0  0  0  0
  2  7  2  0  0  0  0
  2  5  1  0  0  0  0
  4  3  1  0  0  0  0
  5 10  1  0  0  0  0
  6  2  1  0  0  0  0
  7 11  1  0  0  0  0
  8 24  1  0  0  0  0
  9  4  1  0  0  0  0
 10  4  2  0  0  0  0
 10  8  1  0  0  0  0
 11  8  2  0  0  0  0
 12 16  1  0  0  0  0
 12 15  1  0  0  0  0
 14  9  1  0  0  0  0
 14 13  1  0  0  0  0
 15 22  1  1  0  0  0
 15 17  1  0  0  0  0
 16 14  2  0  0  0  0
 17 13  2  0  0  0  0
 18 20  1  0  0  0  0
 20 19  1  6  0  0  0
 20 16  1  0  0  0  0
 21 22  1  0  0  0  0
 23 24  2  0  0  0  0
 24 25  1  0  0  0  0
M  END
>  <MODEL>
3

>  <REMARK>
 VINA RESULT:      -6.5      2.451      6.887
  Name = 
  4 active torsions:
  status: ('A' for Active; 'I' for Inactive)
    1  A    between atoms: C_9  and  C_20
    2  A    between atoms: C_10  and  N_22
    3  A    between atoms: C_11  and  C_18
    4  A    between atoms: C_19  and  C_23
                            x       y       z     vdW  Elec       q    Type
                         _______ _______ _______ _____ _____    ______ ____

>  <TORSDO>
F 4

$$$$
=
 OpenBabel11062420163D

 25 27  0  0  1  0  0  0  0  0999 V2000
  191.7810  176.5070  145.8100 C   0  0  0  0  0  3  0  0  0  0  0  0
  194.2290  176.0590  146.1140 C   0  0  0  0  0  0  0  0  0  0  0  0
  190.3790  173.3660  144.6580 C   0  0  0  0  0  1  0  0  0  0  0  0
  191.2460  174.5350  144.9940 C   0  0  0  0  0  0  0  0  0  0  0  0
  192.9320  175.7530  145.7160 C   0  0  0  0  0  0  0  0  0  0  0  0
  194.5490  177.3290  146.6730 N   0  0  0  0  0  1  0  0  0  0  0  0
  195.1910  175.1030  145.9820 N   0  0  0  0  0  0  0  0  0  0  0  0
  193.6170  173.5320  145.0340 C   0  0  0  0  0  0  0  0  0  0  0  0
  190.7600  175.7520  145.3470 N   0  0  0  0  0  0  0  0  0  0  0  0
  192.6200  174.5190  145.1940 C   0  0  0  0  0  0  0  0  0  0  0  0
  194.9170  173.8690  145.4590 C   0  0  0  0  0  3  0  0  0  0  0  0
  187.4480  177.0840  144.3270 O   0  0  0  0  0  0  0  0  0  0  0  0
  188.6380  176.1680  146.6260 C   0  0  0  0  0  3  0  0  0  0  0  0
  189.3840  176.1660  145.3530 C   0  0  0  0  0  0  0  0  0  0  0  0
  186.5770  176.6650  145.3820 C   0  0  1  0  0  3  0  0  0  0  0  0
  188.7870  176.6680  144.2540 C   0  0  0  0  0  0  0  0  0  0  0  0
  187.3330  176.4420  146.6580 C   0  0  0  0  0  3  0  0  0  0  0  0
  189.4270  175.7390  142.1710 O   0  0  0  0  0  1  0  0  0  0  0  0
  188.9900  178.0770  142.2370 C   0  0  0  0  0  1  0  0  0  0  0  0
  189.5380  176.8710  142.9760 C   0  0  1  0  0  3  0  0  0  0  0  0
  185.8580  179.0100  144.9620 C   0  0  0  0  0  1  0  0  0  0  0  0
  185.4770  177.6880  145.6000 C   0  0  0  0  0  2  0  0  0  0  0  0
  193.1380  172.1210  143.0530 O   0  0  0  0  0  0  0  0  0  0  0  0
  193.4010  172.2110  144.4150 C   0  0  0  0  0  0  0  0  0  0  0  0
  193.3760  171.1650  145.1130 O   0  0  0  0  0  1  0  0  0  0  0  0
  2  6  1  0  0  0  0
  3  4  1  0  0  0  0
  4 10  2  0  0  0  0
  4  9  1  0  0  0  0
  5  1  2  0  0  0  0
  5  2  1  0  0  0  0
  7  2  2  0  0  0  0
  8 10  1  0  0  0  0
  8 11  2  0  0  0  0
  9 14  1  0  0  0  0
  9  1  1  0  0  0  0
 10  5  1  0  0  0  0
 11  7  1  0  0  0  0
 12 15  1  0  0  0  0
 13 17  2  0  0  0  0
 14 13  1  0  0  0  0
 15 22  1  1  0  0  0
 15 17  1  0  0  0  0
 16 12  1  0  0  0  0
 16 14  2  0  0  0  0
 18 20  1  0  0  0  0
 20 19  1  6  0  0  0
 20 16  1  0  0  0  0
 21 22  1  0  0  0  0
 23 24  2  0  0  0  0
 24  8  1  0  0  0  0
 24 25  1  0  0  0  0
M  END
>  <MODEL>
4

>  <REMARK>
 VINA RESULT:      -6.5      2.728      7.406
  Name = 
  4 active torsions:
  status: ('A' for Active; 'I' for Inactive)
    1  A    between atoms: C_9  and  C_20
    2  A    between atoms: C_10  and  N_22
    3  A    between atoms: C_11  and  C_18
    4  A    between atoms: C_19  and  C_23
                            x       y       z     vdW  Elec       q    Type
                         _______ _______ _______ _____ _____    ______ ____

>  <TORSDO>
F 4

$$$$
=
 OpenBabel11062420163D

 25 27  0  0  1  0  0  0  0  0999 V2000
  188.8530  174.9240  143.0800 C   0  0  0  0  0  3  0  0  0  0  0  0
  190.4040  173.0820  142.3830 C   0  0  0  0  0  0  0  0  0  0  0  0
  190.9300  177.8920  143.2680 C   0  0  0  0  0  1  0  0  0  0  0  0
  190.3730  176.5060  143.2470 C   0  0  0  0  0  0  0  0  0  0  0  0
  190.0840  174.3710  142.7940 C   0  0  0  0  0  0  0  0  0  0  0  0
  189.4020  172.0800  142.2460 N   0  0  0  0  0  1  0  0  0  0  0  0
  191.7030  172.8000  142.0840 N   0  0  0  0  0  0  0  0  0  0  0  0
  192.4020  175.0520  142.6210 C   0  0  0  0  0  0  0  0  0  0  0  0
  189.0500  176.2280  143.3740 N   0  0  0  0  0  0  0  0  0  0  0  0
  191.0510  175.3440  142.9060 C   0  0  0  0  0  0  0  0  0  0  0  0
  192.6910  173.7400  142.1940 C   0  0  0  0  0  3  0  0  0  0  0  0
  186.5370  178.3250  145.1260 O   0  0  0  0  0  0  0  0  0  0  0  0
  187.2290  177.7420  142.5330 C   0  0  0  0  0  3  0  0  0  0  0  0
  187.9930  177.1610  143.6540 C   0  0  0  0  0  0  0  0  0  0  0  0
  186.1080  179.2480  144.1200 C   0  0  1  0  0  3  0  0  0  0  0  0
  187.5960  177.4280  144.9140 C   0  0  0  0  0  0  0  0  0  0  0  0
  186.3140  178.6890  142.7430 C   0  0  0  0  0  3  0  0  0  0  0  0
  189.2530  177.4850  146.6050 O   0  0  0  0  0  1  0  0  0  0  0  0
  187.1500  176.5250  147.1680 C   0  0  0  0  0  1  0  0  0  0  0  0
  188.1990  176.7310  146.0920 C   0  0  1  0  0  3  0  0  0  0  0  0
  184.0910  178.8890  145.5330 C   0  0  0  0  0  1  0  0  0  0  0  0
  184.6470  179.6110  144.3210 C   0  0  0  0  0  2  0  0  0  0  0  0
  194.1420  176.5350  141.6640 O   0  0  0  0  0  0  0  0  0  0  0  0
  193.5210  175.9990  142.7850 C   0  0  0  0  0  0  0  0  0  0  0  0
  193.9750  176.2730  143.9260 O   0  0  0  0  0  1  0  0  0  0  0  0
  1  9  1  0  0  0  0
  2  5  1  0  0  0  0
  4  3  1  0  0  0  0
  4  9  1  0  0  0  0
  5 10  1  0  0  0  0
  5  1  2  0  0  0  0
  6  2  1  0  0  0  0
  7 11  1  0  0  0  0
  7  2  2  0  0  0  0
  8 24  1  0  0  0  0
  8 10  1  0  0  0  0
  9 14  1  0  0  0  0
 10  4  2  0  0  0  0
 11  8  2  0  0  0  0
 13 17  2  0  0  0  0
 13 14  1  0  0  0  0
 14 16  2  0  0  0  0
 15 22  1  1  0  0  0
 15 12  1  0  0  0  0
 16 12  1  0  0  0  0
 16 20  1  0  0  0  0
 17 15  1  0  0  0  0
 20 18  1  0  0  0  0
 20 19  1  1  0  0  0
 22 21  1  0  0  0  0
 23 24  2  0  0  0  0
 24 25  1  0  0  0  0
M  END
>  <MODEL>
5

>  <REMARK>
 VINA RESULT:      -6.4      2.363      6.787
  Name = 
  4 active torsions:
  status: ('A' for Active; 'I' for Inactive)
    1  A    between atoms: C_9  and  C_20
    2  A    between atoms: C_10  and  N_22
    3  A    between atoms: C_11  and  C_18
    4  A    between atoms: C_19  and  C_23
                            x       y       z     vdW  Elec       q    Type
                         _______ _______ _______ _____ _____    ______ ____

>  <TORSDO>
F 4

$$$$
=
 OpenBabel11062420163D

 25 27  0  0  1  0  0  0  0  0999 V2000
  188.1650  176.3350  146.4020 C   0  0  0  0  0  3  0  0  0  0  0  0
  185.8760  177.1860  146.9680 C   0  0  0  0  0  0  0  0  0  0  0  0
  188.7190  177.3270  142.9560 C   0  0  0  0  0  1  0  0  0  0  0  0
  188.1590  176.9360  144.2850 C   0  0  0  0  0  0  0  0  0  0  0  0
  186.9440  176.9120  146.1210 C   0  0  0  0  0  0  0  0  0  0  0  0
  185.9130  176.8220  148.3440 N   0  0  0  0  0  1  0  0  0  0  0  0
  184.7950  177.8410  146.4590 N   0  0  0  0  0  0  0  0  0  0  0  0
  185.7890  177.9410  144.2560 C   0  0  0  0  0  0  0  0  0  0  0  0
  188.8910  176.3410  145.2620 N   0  0  0  0  0  0  0  0  0  0  0  0
  186.9160  177.2830  144.7960 C   0  0  0  0  0  0  0  0  0  0  0  0
  184.7300  178.2160  145.1440 C   0  0  0  0  0  3  0  0  0  0  0  0
  191.9090  174.2600  144.6780 O   0  0  0  0  0  0  0  0  0  0  0  0
  191.3310  176.7400  145.7070 C   0  0  0  0  0  3  0  0  0  0  0  0
  190.2520  175.8890  145.1700 C   0  0  0  0  0  0  0  0  0  0  0  0
  192.9840  175.2030  144.7330 C   0  0  1  0  0  3  0  0  0  0  0  0
  190.5640  174.6580  144.7170 C   0  0  0  0  0  0  0  0  0  0  0  0
  192.6130  176.4080  145.5470 C   0  0  0  0  0  3  0  0  0  0  0  0
  189.2630  173.7430  142.9620 O   0  0  0  0  0  1  0  0  0  0  0  0
  189.9480  172.2680  144.6980 C   0  0  0  0  0  1  0  0  0  0  0  0
  189.5070  173.6720  144.3330 C   0  0  1  0  0  3  0  0  0  0  0  0
  194.9620  175.5270  146.2090 C   0  0  0  0  0  1  0  0  0  0  0  0
  194.2310  174.5530  145.3050 C   0  0  0  0  0  2  0  0  0  0  0  0
  184.9480  177.4560  141.9770 O   0  0  0  0  0  0  0  0  0  0  0  0
  185.6290  178.3080  142.8380 C   0  0  0  0  0  0  0  0  0  0  0  0
  186.1650  179.3470  142.3730 O   0  0  0  0  0  1  0  0  0  0  0  0
  2  6  1  0  0  0  0
  3  4  1  0  0  0  0
  4 10  2  0  0  0  0
  4  9  1  0  0  0  0
  5  1  2  0  0  0  0
  5  2  1  0  0  0  0
  7  2  2  0  0  0  0
  8 10  1  0  0  0  0
  8 11  2  0  0  0  0
  9  1  1  0  0  0  0
 10  5  1  0  0  0  0
 11  7  1  0  0  0  0
 12 16  1  0  0  0  0
 12 15  1  0  0  0  0
 14  9  1  0  0  0  0
 14 13  1  0  0  0  0
 15 22  1  1  0  0  0
 15 17  1  0  0  0  0
 16 14  2  0  0  0  0
 17 13  2  0  0  0  0
 18 20  1  0  0  0  0
 20 19  1  6  0  0  0
 20 16  1  0  0  0  0
 22 21  1  0  0  0  0
 23 24  2  0  0  0  0
 24  8  1  0  0  0  0
 25 24  1  0  0  0  0
M  END
>  <MODEL>
6

>  <REMARK>
 VINA RESULT:      -6.4      2.102      2.992
  Name = 
  4 active torsions:
  status: ('A' for Active; 'I' for Inactive)
    1  A    between atoms: C_9  and  C_20
    2  A    between atoms: C_10  and  N_22
    3  A    between atoms: C_11  and  C_18
    4  A    between atoms: C_19  and  C_23
                            x       y       z     vdW  Elec       q    Type
                         _______ _______ _______ _____ _____    ______ ____

>  <TORSDO>
F 4

$$$$
=
 OpenBabel11062420163D

 25 27  0  0  1  0  0  0  0  0999 V2000
  187.7170  176.4900  142.5320 C   0  0  0  0  0  3  0  0  0  0  0  0
  185.6830  177.7290  141.7470 C   0  0  0  0  0  0  0  0  0  0  0  0
  187.4330  176.4000  146.1480 C   0  0  0  0  0  1  0  0  0  0  0  0
  187.3530  176.7180  144.6910 C   0  0  0  0  0  0  0  0  0  0  0  0
  186.5680  177.2360  142.7000 C   0  0  0  0  0  0  0  0  0  0  0  0
  185.9170  177.5410  140.3550 N   0  0  0  0  0  1  0  0  0  0  0  0
  184.5650  178.3790  142.1750 N   0  0  0  0  0  0  0  0  0  0  0  0
  185.1850  178.0920  144.4950 C   0  0  0  0  0  0  0  0  0  0  0  0
  188.1950  176.1970  143.7620 N   0  0  0  0  0  0  0  0  0  0  0  0
  186.3310  177.4000  144.0450 C   0  0  0  0  0  0  0  0  0  0  0  0
  184.3030  178.5680  143.5050 C   0  0  0  0  0  3  0  0  0  0  0  0
  191.6590  175.0330  144.4160 O   0  0  0  0  0  0  0  0  0  0  0  0
  189.2140  173.9030  143.8850 C   0  0  0  0  0  3  0  0  0  0  0  0
  189.3440  175.3680  144.0030 C   0  0  0  0  0  0  0  0  0  0  0  0
  191.4900  173.6590  144.7790 C   0  0  1  0  0  3  0  0  0  0  0  0
  190.5670  175.8920  144.2160 C   0  0  0  0  0  0  0  0  0  0  0  0
  190.2250  173.0940  144.2040 C   0  0  0  0  0  3  0  0  0  0  0  0
  190.4840  177.9500  145.3860 O   0  0  0  0  0  1  0  0  0  0  0  0
  192.2650  177.6450  143.8380 C   0  0  0  0  0  1  0  0  0  0  0  0
  190.8100  177.3670  144.1620 C   0  0  1  0  0  3  0  0  0  0  0  0
  193.7710  172.8630  145.3750 C   0  0  0  0  0  1  0  0  0  0  0  0
  192.6820  172.8390  144.3200 C   0  0  0  0  0  2  0  0  0  0  0  0
  185.5650  179.4070  146.5600 O   0  0  0  0  0  1  0  0  0  0  0  0
  184.8820  178.3890  145.9070 C   0  0  0  0  0  0  0  0  0  0  0  0
  184.0660  177.6850  146.5560 O   0  0  0  0  0  0  0  0  0  0  0  0
  1  5  2  0  0  0  0
  1  9  1  0  0  0  0
  2  7  2  0  0  0  0
  2  5  1  0  0  0  0
  4  3  1  0  0  0  0
  5 10  1  0  0  0  0
  6  2  1  0  0  0  0
  7 11  1  0  0  0  0
  8 24  1  0  0  0  0
  9 14  1  0  0  0  0
  9  4  1  0  0  0  0
 10  8  1  0  0  0  0
 10  4  2  0  0  0  0
 11  8  2  0  0  0  0
 12 15  1  0  0  0  0
 13 14  1  0  0  0  0
 13 17  2  0  0  0  0
 14 16  2  0  0  0  0
 15 22  1  6  0  0  0
 16 12  1  0  0  0  0
 17 15  1  0  0  0  0
 20 19  1  1  0  0  0
 20 16  1  0  0  0  0
 20 18  1  0  0  0  0
 22 21  1  0  0  0  0
 24 25  2  0  0  0  0
 24 23  1  0  0  0  0
M  END
>  <MODEL>
7

>  <REMARK>
 VINA RESULT:      -6.3      1.307      2.400
  Name = 
  4 active torsions:
  status: ('A' for Active; 'I' for Inactive)
    1  A    between atoms: C_9  and  C_20
    2  A    between atoms: C_10  and  N_22
    3  A    between atoms: C_11  and  C_18
    4  A    between atoms: C_19  and  C_23
                            x       y       z     vdW  Elec       q    Type
                         _______ _______ _______ _____ _____    ______ ____

>  <TORSDO>
F 4

$$$$
=
 OpenBabel11062420163D

 25 27  0  0  1  0  0  0  0  0999 V2000
  188.2300  176.8230  143.4660 C   0  0  0  0  0  3  0  0  0  0  0  0
  186.3620  178.4930  143.3740 C   0  0  0  0  0  0  0  0  0  0  0  0
  188.5010  175.8950  146.9620 C   0  0  0  0  0  1  0  0  0  0  0  0
  188.2550  176.5670  145.6510 C   0  0  0  0  0  0  0  0  0  0  0  0
  187.2780  177.6610  144.0090 C   0  0  0  0  0  0  0  0  0  0  0  0
  186.3380  178.6180  141.9560 N   0  0  0  0  0  1  0  0  0  0  0  0
  185.4620  179.1700  144.1400 N   0  0  0  0  0  0  0  0  0  0  0  0
  186.3730  178.2420  146.1790 C   0  0  0  0  0  0  0  0  0  0  0  0
  188.8320  176.1740  144.4870 N   0  0  0  0  0  0  0  0  0  0  0  0
  187.2870  177.5250  145.3780 C   0  0  0  0  0  0  0  0  0  0  0  0
  185.4500  179.0650  145.5040 C   0  0  0  0  0  3  0  0  0  0  0  0
  192.0820  174.4110  144.1450 O   0  0  0  0  0  0  0  0  0  0  0  0
  189.4140  173.7840  143.9690 C   0  0  0  0  0  3  0  0  0  0  0  0
  189.8330  175.1560  144.3170 C   0  0  0  0  0  0  0  0  0  0  0  0
  191.7320  173.0300  144.2830 C   0  0  1  0  0  3  0  0  0  0  0  0
  191.1490  175.4410  144.3470 C   0  0  0  0  0  0  0  0  0  0  0  0
  190.2990  172.7890  143.9080 C   0  0  0  0  0  3  0  0  0  0  0  0
  192.8520  176.8460  145.2050 O   0  0  0  0  0  1  0  0  0  0  0  0
  191.8430  177.4840  143.1460 C   0  0  0  0  0  1  0  0  0  0  0  0
  191.6460  176.8430  144.5070 C   0  0  1  0  0  3  0  0  0  0  0  0
  192.5770  170.7220  143.8960 C   0  0  0  0  0  1  0  0  0  0  0  0
  192.6450  172.1650  143.4340 C   0  0  0  0  0  2  0  0  0  0  0  0
  187.0900  179.1650  148.3640 O   0  0  0  0  0  1  0  0  0  0  0  0
  186.3520  178.2260  147.6530 C   0  0  0  0  0  0  0  0  0  0  0  0
  185.7370  177.3270  148.2830 O   0  0  0  0  0  0  0  0  0  0  0  0
  1  5  2  0  0  0  0
  1  9  1  0  0  0  0
  2  5  1  0  0  0  0
  2  7  2  0  0  0  0
  4  3  1  0  0  0  0
  5 10  1  0  0  0  0
  6  2  1  0  0  0  0
  7 11  1  0  0  0  0
  8 24  1  0  0  0  0
  9  4  1  0  0  0  0
 10  4  2  0  0  0  0
 10  8  1  0  0  0  0
 11  8  2  0  0  0  0
 12 15  1  0  0  0  0
 12 16  1  0  0  0  0
 13 14  1  0  0  0  0
 14 16  2  0  0  0  0
 14  9  1  0  0  0  0
 15 22  1  6  0  0  0
 16 20  1  0  0  0  0
 17 13  2  0  0  0  0
 17 15  1  0  0  0  0
 20 19  1  6  0  0  0
 20 18  1  0  0  0  0
 22 21  1  0  0  0  0
 24 25  2  0  0  0  0
 24 23  1  0  0  0  0
M  END
>  <MODEL>
8

>  <REMARK>
 VINA RESULT:      -6.3      1.681      2.939
  Name = 
  4 active torsions:
  status: ('A' for Active; 'I' for Inactive)
    1  A    between atoms: C_9  and  C_20
    2  A    between atoms: C_10  and  N_22
    3  A    between atoms: C_11  and  C_18
    4  A    between atoms: C_19  and  C_23
                            x       y       z     vdW  Elec       q    Type
                         _______ _______ _______ _____ _____    ______ ____

>  <TORSDO>
F 4

$$$$
=
 OpenBabel11062420163D

 25 27  0  0  1  0  0  0  0  0999 V2000
  189.6730  174.5570  144.2440 C   0  0  0  0  0  3  0  0  0  0  0  0
  191.5000  172.8720  144.5730 C   0  0  0  0  0  0  0  0  0  0  0  0
  191.2970  177.7870  144.5450 C   0  0  0  0  0  1  0  0  0  0  0  0
  190.8920  176.3510  144.6170 C   0  0  0  0  0  0  0  0  0  0  0  0
  190.9540  174.1510  144.5540 C   0  0  0  0  0  0  0  0  0  0  0  0
  190.7040  171.7260  144.2940 N   0  0  0  0  0  1  0  0  0  0  0  0
  192.8290  172.7380  144.8400 N   0  0  0  0  0  0  0  0  0  0  0  0
  193.1030  175.1260  145.1030 C   0  0  0  0  0  0  0  0  0  0  0  0
  189.6470  175.9070  144.3050 N   0  0  0  0  0  0  0  0  0  0  0  0
  191.7300  175.2600  144.8040 C   0  0  0  0  0  0  0  0  0  0  0  0
  193.6270  173.8190  145.1020 C   0  0  0  0  0  3  0  0  0  0  0  0
  186.5030  177.8690  144.5220 O   0  0  0  0  0  0  0  0  0  0  0  0
  188.2000  176.9810  142.5540 C   0  0  0  0  0  3  0  0  0  0  0  0
  188.5000  176.7070  143.9720 C   0  0  0  0  0  0  0  0  0  0  0  0
  186.4390  178.5430  143.2610 C   0  0  1  0  0  3  0  0  0  0  0  0
  187.6220  177.1150  144.9090 C   0  0  0  0  0  0  0  0  0  0  0  0
  187.2100  177.8050  142.2070 C   0  0  0  0  0  3  0  0  0  0  0  0
  188.6370  177.5790  146.9980 O   0  0  0  0  0  1  0  0  0  0  0  0
  186.4080  176.7480  147.0270 C   0  0  0  0  0  1  0  0  0  0  0  0
  187.7610  176.7140  146.3440 C   0  0  1  0  0  3  0  0  0  0  0  0
  184.1080  178.9530  144.0320 C   0  0  0  0  0  1  0  0  0  0  0  0
  184.9950  178.7170  142.8250 C   0  0  0  0  0  2  0  0  0  0  0  0
  193.9390  176.7930  146.7350 O   0  0  0  0  0  1  0  0  0  0  0  0
  193.9980  176.2410  145.4610 C   0  0  0  0  0  0  0  0  0  0  0  0
  194.7660  176.7560  144.6070 O   0  0  0  0  0  0  0  0  0  0  0  0
  1  9  1  0  0  0  0
  1  5  2  0  0  0  0
  2  7  2  0  0  0  0
  3  4  1  0  0  0  0
  4 10  2  0  0  0  0
  5  2  1  0  0  0  0
  5 10  1  0  0  0  0
  6  2  1  0  0  0  0
  7 11  1  0  0  0  0
  8 24  1  0  0  0  0
  9  4  1  0  0  0  0
 10  8  1  0  0  0  0
 11  8  2  0  0  0  0
 12 16  1  0  0  0  0
 13 14  1  0  0  0  0
 14  9  1  0  0  0  0
 14 16  2  0  0  0  0
 15 22  1  6  0  0  0
 15 12  1  0  0  0  0
 16 20  1  0  0  0  0
 17 13  2  0  0  0  0
 17 15  1  0  0  0  0
 20 18  1  0  0  0  0
 20 19  1  1  0  0  0
 22 21  1  0  0  0  0
 24 23  1  0  0  0  0
 25 24  2  0  0  0  0
M  END
>  <MODEL>
9

>  <REMARK>
 VINA RESULT:      -6.3      2.380      6.975
  Name = 
  4 active torsions:
  status: ('A' for Active; 'I' for Inactive)
    1  A    between atoms: C_9  and  C_20
    2  A    between atoms: C_10  and  N_22
    3  A    between atoms: C_11  and  C_18
    4  A    between atoms: C_19  and  C_23
                            x       y       z     vdW  Elec       q    Type
                         _______ _______ _______ _____ _____    ______ ____

>  <TORSDO>
F 4

$$$$
