=
 OpenBabel11062422533D

 46 51  0  0  1  0  0  0  0  0999 V2000
  192.4220  175.0080  145.7380 C   0  0  0  0  0  2  0  0  0  0  0  0
  193.7780  175.5890  145.3830 C   0  0  1  0  0  3  0  0  0  0  0  0
  194.1810  176.5900  146.4600 C   0  0  0  0  0  1  0  0  0  0  0  0
  194.8550  174.4890  145.2670 C   0  0  2  0  0  3  0  0  0  0  0  0
  196.1020  174.9190  144.5460 C   0  0  0  0  0  0  0  0  0  0  0  0
  197.2570  174.4350  144.8850 N   0  0  0  0  0  2  0  0  0  0  0  0
  197.0750  176.7200  143.1560 C   0  0  0  0  0  1  0  0  0  0  0  0
  195.9950  175.8800  143.5380 O   0  0  0  0  0  0  0  0  0  0  0  0
  194.3530  173.1580  144.7020 C   0  0  0  0  0  2  0  0  0  0  0  0
  194.6000  173.0450  143.2710 N   0  0  0  0  0  2  0  0  0  0  0  0
  193.6920  173.4520  142.2460 C   0  0  0  0  0  0  0  0  0  0  0  0
  194.1380  173.5640  141.0680 O   0  0  0  0  0  0  0  0  0  0  0  0
  191.8770  175.0550  142.1860 O   0  0  0  0  0  1  0  0  0  0  0  0
  192.2300  173.7390  142.4860 C   0  0  1  0  0  3  0  0  0  0  0  0
  191.2770  172.7110  141.8590 C   0  0  1  0  0  3  0  0  0  0  0  0
  191.7870  170.4120  142.4210 N   0  0  0  0  0  2  0  0  0  0  0  0
  191.0350  171.5640  142.8380 C   0  0  2  0  0  3  0  0  0  0  0  0
  190.4250  170.5270  142.2140 O   0  0  0  0  0  0  0  0  0  0  0  0
  189.9550  173.2930  141.3430 C   0  0  0  0  0  2  0  0  0  0  0  0
  188.2200  172.4030  138.9730 N   0  0  0  0  0  2  0  0  0  0  0  0
  188.6500  173.7180  139.4390 C   0  0  0  0  0  2  0  0  0  0  0  0
  189.4330  171.6930  138.6440 C   0  0  0  0  0  2  0  0  0  0  0  0
  190.0210  173.6260  139.9210 N   0  0  0  0  0  0  0  0  0  0  0  0
  190.5830  172.4640  139.2630 C   0  0  0  0  0  2  0  0  0  0  0  0
  191.5420  176.0990  146.2960 C   0  0  0  0  0  2  0  0  0  0  0  0
  187.4640  176.3950  142.0410 C   0  0  1  0  0  0  0  0  0  0  0  0
  186.2150  177.5180  144.5080 C   0  0  0  0  0  0  0  0  0  0  0  0
  190.0980  176.0550  145.8010 C   0  0  2  0  0  0  0  0  0  0  0  0
  188.6730  178.6550  142.1710 O   0  0  0  0  0  1  0  0  0  0  0  0
  189.7300  174.6220  145.4700 C   0  0  0  0  0  1  0  0  0  0  0  0
  186.6690  176.6240  147.1390 C   0  0  0  0  0  3  0  0  0  0  0  0
  188.4780  177.3370  142.6270 C   0  0  1  0  0  0  0  0  0  0  0  0
  187.5510  177.2040  144.9490 C   0  0  0  0  0  0  0  0  0  0  0  0
  186.3250  177.3500  141.9040 C   0  0  0  0  0  0  0  0  0  0  0  0
  187.7520  176.8160  146.2870 C   0  0  0  0  0  0  0  0  0  0  0  0
  188.6880  177.1070  144.0430 N   0  0  0  0  0  0  0  0  0  0  0  0
  185.7460  177.4920  140.8330 O   0  0  0  0  0  0  0  0  0  0  0  0
  185.3730  176.8880  146.6940 C   0  0  0  0  0  3  0  0  0  0  0  0
  188.8300  176.4260  141.6560 O   0  0  0  0  0  0  0  0  0  0  0  0
  185.1550  177.3530  145.4010 C   0  0  0  0  0  3  0  0  0  0  0  0
  185.8270  178.0980  143.1480 C   0  0  2  0  0  3  0  0  0  0  0  0
  187.1650  175.1090  142.7980 C   0  0  0  0  0  1  0  0  0  0  0  0
  190.0520  176.8990  144.5340 C   0  0  0  0  0  2  0  0  0  0  0  0
  189.1350  176.6460  146.8320 C   0  0  0  0  0  2  0  0  0  0  0  0
  186.1540  179.4450  143.0790 O   0  0  0  0  0  0  0  0  0  0  0  0
  185.3280  180.0530  144.0140 C   0  0  0  0  0  1  0  0  0  0  0  0
  1 25  1  0  0  0  0
  2  1  1  0  0  0  0
  2  3  1  1  0  0  0
  4  9  1  6  0  0  0
  4  2  1  0  0  0  0
  5  6  2  0  0  0  0
  5  4  1  0  0  0  0
  7  8  1  0  0  0  0
  8  5  1  0  0  0  0
 10  9  1  0  0  0  0
 11 14  1  0  0  0  0
 11 10  1  0  0  0  0
 12 11  2  0  0  0  0
 14 13  1  6  0  0  0
 15 19  1  1  0  0  0
 15 14  1  0  0  0  0
 16 17  1  0  0  0  0
 17 15  1  6  0  0  0
 18 16  1  0  0  0  0
 18 17  1  0  0  0  0
 20 21  1  0  0  0  0
 21 23  1  0  0  0  0
 22 20  1  0  0  0  0
 22 24  1  0  0  0  0
 23 19  1  0  0  0  0
 24 23  1  0  0  0  0
 26 32  1  0  0  0  0
 26 42  1  1  0  0  0
 27 33  2  0  0  0  0
 27 40  1  0  0  0  0
 28 30  1  6  0  0  0
 28 25  1  0  0  0  0
 28 44  1  0  0  0  0
 32 29  1  6  0  0  0
 32 36  1  0  0  0  0
 33 35  1  0  0  0  0
 34 26  1  0  0  0  0
 34 41  1  0  0  0  0
 35 44  1  0  0  0  0
 35 31  2  0  0  0  0
 36 43  1  0  0  0  0
 36 33  1  0  0  0  0
 37 34  2  0  0  0  0
 38 31  1  0  0  0  0
 39 26  1  0  0  0  0
 39 32  1  0  0  0  0
 40 38  2  0  0  0  0
 41 45  1  6  0  0  0
 41 27  1  0  0  0  0
 43 28  1  0  0  0  0
 45 46  1  0  0  0  0
M  END
>  <MODEL>
1

>  <REMARK>
 VINA RESULT:      -7.5      0.000      0.000
  Name = 
  14 active torsions:
  status: ('A' for Active; 'I' for Inactive)
    1  A    between atoms: C_2  and  C_29
    2  A    between atoms: C_2  and  C_30
    3  A    between atoms: C_6  and  C_12
    4  A    between atoms: C_6  and  O_31
    5  A    between atoms: N_7  and  C_15
    6  A    between atoms: C_8  and  C_29
    7  A    between atoms: C_11  and  C_35
    8  A    between atoms: C_12  and  C_15
    9  A    between atoms: C_12  and  C_30
   10  A    between atoms: C_17  and  C_21
   11  A    between atoms: C_17  and  N_45
   12  A    between atoms: C_21  and  C_35
   13  A    between atoms: C_21  and  C_41
   14  A    between atoms: O_28  and  C_38
                            x       y       z     vdW  Elec       q    Type
                         _______ _______ _______ _____ _____    ______ ____

>  <TORSDO>
F 14

$$$$
=
 OpenBabel11062422533D

 46 51  0  0  1  0  0  0  0  0999 V2000
  192.7970  176.7530  144.5890 C   0  0  0  0  0  2  0  0  0  0  0  0
  194.2680  176.4920  144.8490 C   0  0  1  0  0  3  0  0  0  0  0  0
  194.4130  175.7920  146.1960 C   0  0  0  0  0  1  0  0  0  0  0  0
  194.8960  175.6210  143.7410 C   0  0  2  0  0  3  0  0  0  0  0  0
  196.3910  175.7340  143.6380 C   0  0  0  0  0  0  0  0  0  0  0  0
  196.9450  176.8670  143.3340 N   0  0  0  0  0  2  0  0  0  0  0  0
  197.5630  174.1340  145.1170 C   0  0  0  0  0  1  0  0  0  0  0  0
  197.1650  174.5870  143.8310 O   0  0  0  0  0  0  0  0  0  0  0  0
  194.2590  175.7870  142.3590 C   0  0  0  0  0  2  0  0  0  0  0  0
  194.4850  174.6250  141.5100 N   0  0  0  0  0  2  0  0  0  0  0  0
  193.4570  173.8350  140.9090 C   0  0  0  0  0  0  0  0  0  0  0  0
  193.7830  173.0440  139.9790 O   0  0  0  0  0  0  0  0  0  0  0  0
  191.1310  174.0310  140.2580 O   0  0  0  0  0  1  0  0  0  0  0  0
  192.0090  173.8800  141.3320 C   0  0  1  0  0  3  0  0  0  0  0  0
  191.5970  172.7450  142.2810 C   0  0  1  0  0  3  0  0  0  0  0  0
  189.3160  171.9360  142.2840 N   0  0  0  0  0  2  0  0  0  0  0  0
  190.5740  171.8410  141.5960 C   0  0  2  0  0  3  0  0  0  0  0  0
  190.1680  170.8590  142.4370 O   0  0  0  0  0  0  0  0  0  0  0  0
  192.7660  171.9320  142.8530 C   0  0  0  0  0  2  0  0  0  0  0  0
  194.7150  171.9360  145.2240 N   0  0  0  0  0  2  0  0  0  0  0  0
  193.3920  172.5270  145.0350 C   0  0  0  0  0  2  0  0  0  0  0  0
  194.5250  170.5120  145.0910 C   0  0  0  0  0  2  0  0  0  0  0  0
  192.5690  171.6070  144.2640 N   0  0  0  0  0  0  0  0  0  0  0  0
  193.1610  170.2990  144.4620 C   0  0  0  0  0  2  0  0  0  0  0  0
  191.9710  176.0440  145.6340 C   0  0  0  0  0  2  0  0  0  0  0  0
  187.3940  176.2840  141.9160 C   0  0  1  0  0  0  0  0  0  0  0  0
  186.4580  177.4300  144.5080 C   0  0  0  0  0  0  0  0  0  0  0  0
  190.4770  175.9910  145.3230 C   0  0  2  0  0  0  0  0  0  0  0  0
  188.6010  178.5490  141.8720 O   0  0  0  0  0  1  0  0  0  0  0  0
  190.0760  174.5540  145.0550 C   0  0  0  0  0  1  0  0  0  0  0  0
  187.2380  176.5660  147.0710 C   0  0  0  0  0  3  0  0  0  0  0  0
  188.4690  177.2360  142.3620 C   0  0  1  0  0  0  0  0  0  0  0  0
  187.8390  177.1250  144.7830 C   0  0  0  0  0  0  0  0  0  0  0  0
  186.2430  177.2350  141.9130 C   0  0  0  0  0  0  0  0  0  0  0  0
  188.2070  176.7520  146.0890 C   0  0  0  0  0  0  0  0  0  0  0  0
  188.8550  177.0210  143.7430 N   0  0  0  0  0  0  0  0  0  0  0  0
  185.5350  177.3640  140.9210 O   0  0  0  0  0  0  0  0  0  0  0  0
  185.8960  176.8220  146.7880 C   0  0  0  0  0  3  0  0  0  0  0  0
  188.7010  176.3150  141.3640 O   0  0  0  0  0  0  0  0  0  0  0  0
  185.5170  177.2720  145.5280 C   0  0  0  0  0  3  0  0  0  0  0  0
  185.9010  177.9950  143.2010 C   0  0  2  0  0  3  0  0  0  0  0  0
  187.1970  175.0060  142.7180 C   0  0  0  0  0  1  0  0  0  0  0  0
  190.2700  176.8220  144.0630 C   0  0  0  0  0  2  0  0  0  0  0  0
  189.6470  176.5910  146.4600 C   0  0  0  0  0  2  0  0  0  0  0  0
  186.2110  179.3420  143.0780 O   0  0  0  0  0  0  0  0  0  0  0  0
  185.4200  179.9710  144.0290 C   0  0  0  0  0  1  0  0  0  0  0  0
  1  2  1  0  0  0  0
  1 25  1  0  0  0  0
  2  3  1  1  0  0  0
  4  9  1  6  0  0  0
  4  2  1  0  0  0  0
  5  4  1  0  0  0  0
  5  8  1  0  0  0  0
  6  5  2  0  0  0  0
  8  7  1  0  0  0  0
 10  9  1  0  0  0  0
 11 14  1  0  0  0  0
 11 10  1  0  0  0  0
 12 11  2  0  0  0  0
 14 13  1  6  0  0  0
 14 15  1  0  0  0  0
 15 19  1  6  0  0  0
 16 18  1  0  0  0  0
 17 15  1  1  0  0  0
 17 16  1  0  0  0  0
 17 18  1  0  0  0  0
 19 23  1  0  0  0  0
 21 20  1  0  0  0  0
 22 20  1  0  0  0  0
 23 24  1  0  0  0  0
 23 21  1  0  0  0  0
 24 22  1  0  0  0  0
 26 32  1  0  0  0  0
 26 42  1  1  0  0  0
 27 33  2  0  0  0  0
 27 40  1  0  0  0  0
 28 30  1  6  0  0  0
 28 25  1  0  0  0  0
 28 44  1  0  0  0  0
 32 29  1  6  0  0  0
 32 36  1  0  0  0  0
 33 35  1  0  0  0  0
 34 26  1  0  0  0  0
 34 41  1  0  0  0  0
 35 44  1  0  0  0  0
 35 31  2  0  0  0  0
 36 43  1  0  0  0  0
 36 33  1  0  0  0  0
 37 34  2  0  0  0  0
 38 31  1  0  0  0  0
 39 26  1  0  0  0  0
 39 32  1  0  0  0  0
 40 38  2  0  0  0  0
 41 45  1  6  0  0  0
 41 27  1  0  0  0  0
 43 28  1  0  0  0  0
 45 46  1  0  0  0  0
M  END
>  <MODEL>
2

>  <REMARK>
 VINA RESULT:      -7.2      1.479      2.807
  Name = 
  14 active torsions:
  status: ('A' for Active; 'I' for Inactive)
    1  A    between atoms: C_2  and  C_29
    2  A    between atoms: C_2  and  C_30
    3  A    between atoms: C_6  and  C_12
    4  A    between atoms: C_6  and  O_31
    5  A    between atoms: N_7  and  C_15
    6  A    between atoms: C_8  and  C_29
    7  A    between atoms: C_11  and  C_35
    8  A    between atoms: C_12  and  C_15
    9  A    between atoms: C_12  and  C_30
   10  A    between atoms: C_17  and  C_21
   11  A    between atoms: C_17  and  N_45
   12  A    between atoms: C_21  and  C_35
   13  A    between atoms: C_21  and  C_41
   14  A    between atoms: O_28  and  C_38
                            x       y       z     vdW  Elec       q    Type
                         _______ _______ _______ _____ _____    ______ ____

>  <TORSDO>
F 14

$$$$
=
 OpenBabel11062422533D

 46 51  0  0  1  0  0  0  0  0999 V2000
  191.1410  176.1940  145.5980 C   0  0  0  0  0  2  0  0  0  0  0  0
  190.4800  174.8510  145.8410 C   0  0  1  0  0  3  0  0  0  0  0  0
  189.2870  175.0500  146.7700 C   0  0  0  0  0  1  0  0  0  0  0  0
  190.0090  174.2020  144.5230 C   0  0  2  0  0  3  0  0  0  0  0  0
  190.5660  172.8270  144.2770 C   0  0  0  0  0  0  0  0  0  0  0  0
  191.8010  172.5570  144.5650 N   0  0  0  0  0  2  0  0  0  0  0  0
  189.9560  171.3530  142.3850 C   0  0  0  0  0  1  0  0  0  0  0  0
  189.7390  171.8640  143.6930 O   0  0  0  0  0  0  0  0  0  0  0  0
  190.1930  175.0740  143.2780 C   0  0  0  0  0  2  0  0  0  0  0  0
  189.1340  174.8620  142.3020 N   0  0  0  0  0  2  0  0  0  0  0  0
  188.3010  175.8880  141.7580 C   0  0  0  0  0  0  0  0  0  0  0  0
  187.6270  175.6190  140.7230 O   0  0  0  0  0  0  0  0  0  0  0  0
  188.5390  178.2830  141.4770 O   0  0  0  0  0  1  0  0  0  0  0  0
  188.1680  177.2660  142.3580 C   0  0  1  0  0  3  0  0  0  0  0  0
  186.8140  177.5290  143.0330 C   0  0  1  0  0  3  0  0  0  0  0  0
  185.0060  178.6750  141.9030 N   0  0  0  0  0  2  0  0  0  0  0  0
  185.6910  177.4150  142.0040 C   0  0  2  0  0  3  0  0  0  0  0  0
  184.4850  177.5980  142.5940 O   0  0  0  0  0  0  0  0  0  0  0  0
  186.5320  176.6600  144.2650 C   0  0  0  0  0  2  0  0  0  0  0  0
  184.5610  177.5270  146.4520 N   0  0  0  0  0  2  0  0  0  0  0  0
  185.8380  176.8190  146.5020 C   0  0  0  0  0  2  0  0  0  0  0  0
  184.8590  178.8230  145.8910 C   0  0  0  0  0  2  0  0  0  0  0  0
  186.7370  177.3950  145.5120 N   0  0  0  0  0  0  0  0  0  0  0  0
  186.2420  178.7350  145.2740 C   0  0  0  0  0  2  0  0  0  0  0  0
  192.3730  176.3090  146.4610 C   0  0  0  0  0  2  0  0  0  0  0  0
  195.8760  176.2380  141.7120 C   0  0  1  0  0  0  0  0  0  0  0  0
  196.4390  173.7340  143.2340 C   0  0  0  0  0  0  0  0  0  0  0  0
  193.6750  175.9550  145.7450 C   0  0  2  0  0  0  0  0  0  0  0  0
  193.7520  174.8980  141.1800 O   0  0  0  0  0  1  0  0  0  0  0  0
  194.6700  177.0820  145.9400 C   0  0  0  0  0  1  0  0  0  0  0  0
  196.4340  173.4710  146.0370 C   0  0  0  0  0  3  0  0  0  0  0  0
  194.5350  175.6590  142.0700 C   0  0  1  0  0  0  0  0  0  0  0  0
  195.4000  174.3490  144.0200 C   0  0  0  0  0  0  0  0  0  0  0  0
  196.4400  175.0630  140.9860 C   0  0  0  0  0  0  0  0  0  0  0  0
  195.3930  174.1510  145.4130 C   0  0  0  0  0  0  0  0  0  0  0  0
  194.4460  175.3050  143.4720 N   0  0  0  0  0  0  0  0  0  0  0  0
  196.8940  175.1800  139.8530 O   0  0  0  0  0  0  0  0  0  0  0  0
  197.4620  172.9130  145.2750 C   0  0  0  0  0  3  0  0  0  0  0  0
  194.6550  176.9580  141.6270 O   0  0  0  0  0  0  0  0  0  0  0  0
  197.4480  173.0240  143.8880 C   0  0  0  0  0  3  0  0  0  0  0  0
  196.5230  173.7120  141.7070 C   0  0  2  0  0  3  0  0  0  0  0  0
  196.7330  176.7970  142.8390 C   0  0  0  0  0  1  0  0  0  0  0  0
  193.3320  175.8270  144.2670 C   0  0  0  0  0  2  0  0  0  0  0  0
  194.2440  174.6260  146.2460 C   0  0  0  0  0  2  0  0  0  0  0  0
  195.6070  172.8120  141.1800 O   0  0  0  0  0  0  0  0  0  0  0  0
  196.3860  171.8290  140.5850 C   0  0  0  0  0  1  0  0  0  0  0  0
  1  2  1  0  0  0  0
  1 25  1  0  0  0  0
  2  3  1  1  0  0  0
  4  9  1  6  0  0  0
  4  2  1  0  0  0  0
  5  4  1  0  0  0  0
  5  6  2  0  0  0  0
  7  8  1  0  0  0  0
  8  5  1  0  0  0  0
 10  9  1  0  0  0  0
 11 10  1  0  0  0  0
 11 14  1  0  0  0  0
 12 11  2  0  0  0  0
 14 13  1  6  0  0  0
 14 15  1  0  0  0  0
 15 19  1  1  0  0  0
 16 17  1  0  0  0  0
 16 18  1  0  0  0  0
 17 18  1  0  0  0  0
 17 15  1  1  0  0  0
 19 23  1  0  0  0  0
 20 21  1  0  0  0  0
 22 20  1  0  0  0  0
 23 21  1  0  0  0  0
 24 23  1  0  0  0  0
 24 22  1  0  0  0  0
 26 32  1  0  0  0  0
 26 42  1  1  0  0  0
 27 40  2  0  0  0  0
 27 33  1  0  0  0  0
 28 30  1  1  0  0  0
 28 44  1  0  0  0  0
 28 25  1  0  0  0  0
 32 29  1  6  0  0  0
 32 36  1  0  0  0  0
 33 35  2  0  0  0  0
 34 41  1  0  0  0  0
 34 26  1  0  0  0  0
 35 31  1  0  0  0  0
 35 44  1  0  0  0  0
 36 33  1  0  0  0  0
 36 43  1  0  0  0  0
 37 34  2  0  0  0  0
 38 31  2  0  0  0  0
 39 26  1  0  0  0  0
 39 32  1  0  0  0  0
 40 38  1  0  0  0  0
 41 45  1  6  0  0  0
 41 27  1  0  0  0  0
 43 28  1  0  0  0  0
 46 45  1  0  0  0  0
M  END
>  <MODEL>
3

>  <REMARK>
 VINA RESULT:      -7.0      2.062      8.148
  Name = 
  14 active torsions:
  status: ('A' for Active; 'I' for Inactive)
    1  A    between atoms: C_2  and  C_29
    2  A    between atoms: C_2  and  C_30
    3  A    between atoms: C_6  and  C_12
    4  A    between atoms: C_6  and  O_31
    5  A    between atoms: N_7  and  C_15
    6  A    between atoms: C_8  and  C_29
    7  A    between atoms: C_11  and  C_35
    8  A    between atoms: C_12  and  C_15
    9  A    between atoms: C_12  and  C_30
   10  A    between atoms: C_17  and  C_21
   11  A    between atoms: C_17  and  N_45
   12  A    between atoms: C_21  and  C_35
   13  A    between atoms: C_21  and  C_41
   14  A    between atoms: O_28  and  C_38
                            x       y       z     vdW  Elec       q    Type
                         _______ _______ _______ _____ _____    ______ ____

>  <TORSDO>
F 14

$$$$
=
 OpenBabel11062422533D

 46 51  0  0  1  0  0  0  0  0999 V2000
  192.6180  176.7990  144.8450 C   0  0  0  0  0  2  0  0  0  0  0  0
  193.9310  176.0610  145.0210 C   0  0  1  0  0  3  0  0  0  0  0  0
  194.2360  175.9490  146.5110 C   0  0  0  0  0  1  0  0  0  0  0  0
  193.8810  174.6520  144.3940 C   0  0  2  0  0  3  0  0  0  0  0  0
  195.2270  174.0110  144.2040 C   0  0  0  0  0  0  0  0  0  0  0  0
  195.9700  174.3320  143.1900 N   0  0  0  0  0  2  0  0  0  0  0  0
  196.8210  173.1560  145.8930 C   0  0  0  0  0  1  0  0  0  0  0  0
  195.6390  173.0350  145.1140 O   0  0  0  0  0  0  0  0  0  0  0  0
  193.0650  174.5550  143.1020 C   0  0  0  0  0  2  0  0  0  0  0  0
  192.3510  173.2900  143.0000 N   0  0  0  0  0  2  0  0  0  0  0  0
  191.8690  172.7150  141.7840 C   0  0  0  0  0  0  0  0  0  0  0  0
  191.5290  171.4970  141.7980 O   0  0  0  0  0  0  0  0  0  0  0  0
  192.9510  173.6950  139.8500 O   0  0  0  0  0  1  0  0  0  0  0  0
  191.7310  173.4800  140.4910 C   0  0  1  0  0  3  0  0  0  0  0  0
  190.6530  172.9260  139.5470 C   0  0  1  0  0  3  0  0  0  0  0  0
  188.3140  172.7700  140.1480 N   0  0  0  0  0  2  0  0  0  0  0  0
  189.3450  173.6880  139.7490 C   0  0  2  0  0  3  0  0  0  0  0  0
  188.4090  173.2680  138.8630 O   0  0  0  0  0  0  0  0  0  0  0  0
  191.0560  172.8900  138.0670 C   0  0  0  0  0  2  0  0  0  0  0  0
  189.8000  170.7080  136.3110 N   0  0  0  0  0  2  0  0  0  0  0  0
  191.1100  171.3530  136.2940 C   0  0  0  0  0  2  0  0  0  0  0  0
  189.7100  170.0470  137.5910 C   0  0  0  0  0  2  0  0  0  0  0  0
  191.5480  171.5730  137.6650 N   0  0  0  0  0  0  0  0  0  0  0  0
  190.8160  170.6110  138.4630 C   0  0  0  0  0  2  0  0  0  0  0  0
  191.6860  176.4400  145.9750 C   0  0  0  0  0  2  0  0  0  0  0  0
  187.3590  176.4860  141.9630 C   0  0  1  0  0  0  0  0  0  0  0  0
  186.1910  177.5400  144.4990 C   0  0  0  0  0  0  0  0  0  0  0  0
  190.2210  176.3100  145.5640 C   0  0  2  0  0  0  0  0  0  0  0  0
  188.4390  178.8130  142.0250 O   0  0  0  0  0  1  0  0  0  0  0  0
  189.9190  174.8580  145.2540 C   0  0  0  0  0  1  0  0  0  0  0  0
  186.8470  176.6810  147.0980 C   0  0  0  0  0  3  0  0  0  0  0  0
  188.3480  177.4870  142.4910 C   0  0  1  0  0  0  0  0  0  0  0  0
  187.5660  177.3060  144.8620 C   0  0  0  0  0  0  0  0  0  0  0  0
  186.1600  177.3720  141.8930 C   0  0  0  0  0  0  0  0  0  0  0  0
  187.8670  176.9340  146.1850 C   0  0  0  0  0  0  0  0  0  0  0  0
  188.6530  177.2730  143.8910 N   0  0  0  0  0  0  0  0  0  0  0  0
  185.5130  177.4770  140.8570 O   0  0  0  0  0  0  0  0  0  0  0  0
  185.5140  176.8670  146.7290 C   0  0  0  0  0  3  0  0  0  0  0  0
  188.6960  176.5960  141.5000 O   0  0  0  0  0  0  0  0  0  0  0  0
  185.1950  177.3150  145.4510 C   0  0  0  0  0  3  0  0  0  0  0  0
  185.6920  178.0920  143.1630 C   0  0  2  0  0  3  0  0  0  0  0  0
  187.1810  175.1870  142.7350 C   0  0  0  0  0  1  0  0  0  0  0  0
  190.0530  177.1470  144.3030 C   0  0  0  0  0  2  0  0  0  0  0  0
  189.2860  176.8460  146.6500 C   0  0  0  0  0  2  0  0  0  0  0  0
  185.9340  179.4560  143.0770 O   0  0  0  0  0  0  0  0  0  0  0  0
  185.1970  180.0090  144.1150 C   0  0  0  0  0  1  0  0  0  0  0  0
  1  2  1  0  0  0  0
  1 25  1  0  0  0  0
  2  3  1  1  0  0  0
  4  9  1  6  0  0  0
  4  2  1  0  0  0  0
  5  4  1  0  0  0  0
  5  8  1  0  0  0  0
  6  5  2  0  0  0  0
  8  7  1  0  0  0  0
 10  9  1  0  0  0  0
 11 12  2  0  0  0  0
 11 10  1  0  0  0  0
 14 13  1  6  0  0  0
 14 11  1  0  0  0  0
 15 19  1  6  0  0  0
 15 14  1  0  0  0  0
 17 15  1  6  0  0  0
 17 16  1  0  0  0  0
 18 17  1  0  0  0  0
 18 16  1  0  0  0  0
 20 22  1  0  0  0  0
 21 20  1  0  0  0  0
 21 23  1  0  0  0  0
 22 24  1  0  0  0  0
 23 19  1  0  0  0  0
 23 24  1  0  0  0  0
 26 32  1  0  0  0  0
 26 42  1  1  0  0  0
 27 33  2  0  0  0  0
 27 40  1  0  0  0  0
 28 30  1  6  0  0  0
 28 25  1  0  0  0  0
 28 44  1  0  0  0  0
 32 29  1  6  0  0  0
 32 36  1  0  0  0  0
 33 35  1  0  0  0  0
 34 26  1  0  0  0  0
 34 41  1  0  0  0  0
 35 44  1  0  0  0  0
 35 31  2  0  0  0  0
 36 43  1  0  0  0  0
 36 33  1  0  0  0  0
 37 34  2  0  0  0  0
 38 31  1  0  0  0  0
 39 26  1  0  0  0  0
 39 32  1  0  0  0  0
 40 38  2  0  0  0  0
 41 45  1  6  0  0  0
 41 27  1  0  0  0  0
 43 28  1  0  0  0  0
 45 46  1  0  0  0  0
M  END
>  <MODEL>
4

>  <REMARK>
 VINA RESULT:      -6.9      1.512      2.182
  Name = 
  14 active torsions:
  status: ('A' for Active; 'I' for Inactive)
    1  A    between atoms: C_2  and  C_29
    2  A    between atoms: C_2  and  C_30
    3  A    between atoms: C_6  and  C_12
    4  A    between atoms: C_6  and  O_31
    5  A    between atoms: N_7  and  C_15
    6  A    between atoms: C_8  and  C_29
    7  A    between atoms: C_11  and  C_35
    8  A    between atoms: C_12  and  C_15
    9  A    between atoms: C_12  and  C_30
   10  A    between atoms: C_17  and  C_21
   11  A    between atoms: C_17  and  N_45
   12  A    between atoms: C_21  and  C_35
   13  A    between atoms: C_21  and  C_41
   14  A    between atoms: O_28  and  C_38
                            x       y       z     vdW  Elec       q    Type
                         _______ _______ _______ _____ _____    ______ ____

>  <TORSDO>
F 14

$$$$
=
 OpenBabel11062422533D

 46 51  0  0  1  0  0  0  0  0999 V2000
  192.5080  176.4120  144.7710 C   0  0  0  0  0  2  0  0  0  0  0  0
  193.9470  176.3620  145.2510 C   0  0  1  0  0  3  0  0  0  0  0  0
  193.9610  176.4660  146.7720 C   0  0  0  0  0  1  0  0  0  0  0  0
  194.6480  175.0600  144.8120 C   0  0  2  0  0  3  0  0  0  0  0  0
  195.7830  175.2640  143.8480 C   0  0  0  0  0  0  0  0  0  0  0  0
  195.6010  175.9310  142.7510 N   0  0  0  0  0  2  0  0  0  0  0  0
  197.3310  174.1240  145.4060 C   0  0  0  0  0  1  0  0  0  0  0  0
  197.0200  174.6840  144.1380 O   0  0  0  0  0  0  0  0  0  0  0  0
  193.7080  173.9690  144.2940 C   0  0  0  0  0  2  0  0  0  0  0  0
  194.0750  172.6500  144.7890 N   0  0  0  0  0  2  0  0  0  0  0  0
  193.4060  171.4320  144.4570 C   0  0  0  0  0  0  0  0  0  0  0  0
  193.9910  170.3420  144.7190 O   0  0  0  0  0  0  0  0  0  0  0  0
  191.0370  171.9070  144.6380 O   0  0  0  0  0  1  0  0  0  0  0  0
  192.0370  171.3720  143.8250 C   0  0  1  0  0  3  0  0  0  0  0  0
  191.9860  171.9110  142.3880 C   0  0  1  0  0  3  0  0  0  0  0  0
  193.9870  172.3210  141.0900 N   0  0  0  0  0  2  0  0  0  0  0  0
  193.1070  171.2870  141.5590 C   0  0  2  0  0  3  0  0  0  0  0  0
  193.0480  171.7190  140.2760 O   0  0  0  0  0  0  0  0  0  0  0  0
  190.6260  171.7550  141.6940 C   0  0  0  0  0  2  0  0  0  0  0  0
  188.3310  172.7340  139.9070 N   0  0  0  0  0  2  0  0  0  0  0  0
  188.4880  172.6630  141.3570 C   0  0  0  0  0  2  0  0  0  0  0  0
  189.3690  173.6240  139.4470 C   0  0  0  0  0  2  0  0  0  0  0  0
  189.8620  173.0010  141.7010 N   0  0  0  0  0  0  0  0  0  0  0  0
  190.3580  173.7830  140.5860 C   0  0  0  0  0  2  0  0  0  0  0  0
  191.5830  176.3890  145.9620 C   0  0  0  0  0  2  0  0  0  0  0  0
  187.1250  176.5450  142.0980 C   0  0  1  0  0  0  0  0  0  0  0  0
  186.0900  177.6920  144.6510 C   0  0  0  0  0  0  0  0  0  0  0  0
  190.1000  176.3140  145.6030 C   0  0  2  0  0  0  0  0  0  0  0  0
  188.3020  178.8260  142.0790 O   0  0  0  0  0  1  0  0  0  0  0  0
  189.7280  174.8700  145.3310 C   0  0  0  0  0  1  0  0  0  0  0  0
  186.7990  176.8530  147.2430 C   0  0  0  0  0  3  0  0  0  0  0  0
  188.1720  177.5130  142.5730 C   0  0  1  0  0  0  0  0  0  0  0  0
  187.4660  177.4070  144.9720 C   0  0  0  0  0  0  0  0  0  0  0  0
  185.9620  177.4800  142.0510 C   0  0  0  0  0  0  0  0  0  0  0  0
  187.7960  177.0460  146.2910 C   0  0  0  0  0  0  0  0  0  0  0  0
  188.5160  177.3120  143.9660 N   0  0  0  0  0  0  0  0  0  0  0  0
  185.2850  177.5930  141.0360 O   0  0  0  0  0  0  0  0  0  0  0  0
  185.4630  177.0880  146.9150 C   0  0  0  0  0  3  0  0  0  0  0  0
  188.4490  176.5910  141.5880 O   0  0  0  0  0  0  0  0  0  0  0  0
  185.1190  177.5260  145.6410 C   0  0  0  0  0  3  0  0  0  0  0  0
  185.5680  178.2410  143.3230 C   0  0  2  0  0  3  0  0  0  0  0  0
  186.9200  175.2680  142.9000 C   0  0  0  0  0  1  0  0  0  0  0  0
  189.9230  177.1340  144.3320 C   0  0  0  0  0  2  0  0  0  0  0  0
  189.2260  176.9080  146.7100 C   0  0  0  0  0  2  0  0  0  0  0  0
  185.8630  179.5920  143.2020 O   0  0  0  0  0  0  0  0  0  0  0  0
  185.1910  180.1920  144.2570 C   0  0  0  0  0  1  0  0  0  0  0  0
  1  2  1  0  0  0  0
  1 25  1  0  0  0  0
  2  3  1  1  0  0  0
  4  9  1  6  0  0  0
  4  2  1  0  0  0  0
  5  8  1  0  0  0  0
  5  4  1  0  0  0  0
  6  5  2  0  0  0  0
  8  7  1  0  0  0  0
  9 10  1  0  0  0  0
 11 12  2  0  0  0  0
 11 10  1  0  0  0  0
 14 11  1  0  0  0  0
 14 13  1  1  0  0  0
 15 19  1  6  0  0  0
 15 14  1  0  0  0  0
 16 17  1  0  0  0  0
 17 15  1  1  0  0  0
 18 16  1  0  0  0  0
 18 17  1  0  0  0  0
 19 23  1  0  0  0  0
 20 21  1  0  0  0  0
 21 23  1  0  0  0  0
 22 20  1  0  0  0  0
 22 24  1  0  0  0  0
 24 23  1  0  0  0  0
 26 32  1  0  0  0  0
 26 42  1  1  0  0  0
 27 33  2  0  0  0  0
 27 40  1  0  0  0  0
 28 30  1  6  0  0  0
 28 25  1  0  0  0  0
 28 44  1  0  0  0  0
 32 29  1  6  0  0  0
 32 36  1  0  0  0  0
 33 35  1  0  0  0  0
 34 26  1  0  0  0  0
 34 41  1  0  0  0  0
 35 44  1  0  0  0  0
 35 31  2  0  0  0  0
 36 43  1  0  0  0  0
 36 33  1  0  0  0  0
 37 34  2  0  0  0  0
 38 31  1  0  0  0  0
 39 26  1  0  0  0  0
 39 32  1  0  0  0  0
 40 38  2  0  0  0  0
 41 45  1  6  0  0  0
 41 27  1  0  0  0  0
 43 28  1  0  0  0  0
 45 46  1  0  0  0  0
M  END
>  <MODEL>
5

>  <REMARK>
 VINA RESULT:      -6.8      1.397      1.761
  Name = 
  14 active torsions:
  status: ('A' for Active; 'I' for Inactive)
    1  A    between atoms: C_2  and  C_29
    2  A    between atoms: C_2  and  C_30
    3  A    between atoms: C_6  and  C_12
    4  A    between atoms: C_6  and  O_31
    5  A    between atoms: N_7  and  C_15
    6  A    between atoms: C_8  and  C_29
    7  A    between atoms: C_11  and  C_35
    8  A    between atoms: C_12  and  C_15
    9  A    between atoms: C_12  and  C_30
   10  A    between atoms: C_17  and  C_21
   11  A    between atoms: C_17  and  N_45
   12  A    between atoms: C_21  and  C_35
   13  A    between atoms: C_21  and  C_41
   14  A    between atoms: O_28  and  C_38
                            x       y       z     vdW  Elec       q    Type
                         _______ _______ _______ _____ _____    ______ ____

>  <TORSDO>
F 14

$$$$
=
 OpenBabel11062422533D

 46 51  0  0  1  0  0  0  0  0999 V2000
  192.6480  176.7690  144.7170 C   0  0  0  0  0  2  0  0  0  0  0  0
  194.1080  176.5390  145.0600 C   0  0  1  0  0  3  0  0  0  0  0  0
  194.2080  176.0960  146.5150 C   0  0  0  0  0  1  0  0  0  0  0  0
  194.7460  175.4720  144.1470 C   0  0  2  0  0  3  0  0  0  0  0  0
  196.2050  175.6940  143.8620 C   0  0  0  0  0  0  0  0  0  0  0  0
  196.6130  176.8150  143.3550 N   0  0  0  0  0  2  0  0  0  0  0  0
  197.1000  173.9080  145.3220 C   0  0  0  0  0  1  0  0  0  0  0  0
  197.1020  174.6520  144.1130 O   0  0  0  0  0  0  0  0  0  0  0  0
  193.9890  175.2110  142.8410 C   0  0  0  0  0  2  0  0  0  0  0  0
  194.4550  174.0050  142.1710 N   0  0  0  0  0  2  0  0  0  0  0  0
  194.7040  173.8890  140.7690 C   0  0  0  0  0  0  0  0  0  0  0  0
  195.3700  172.8930  140.3650 O   0  0  0  0  0  0  0  0  0  0  0  0
  195.1820  175.2450  138.8180 O   0  0  0  0  0  1  0  0  0  0  0  0
  194.2050  174.8770  139.7440 C   0  0  1  0  0  3  0  0  0  0  0  0
  192.8790  174.4770  139.0800 C   0  0  1  0  0  3  0  0  0  0  0  0
  192.8330  175.0410  136.7270 N   0  0  0  0  0  2  0  0  0  0  0  0
  193.1370  173.9880  137.6570 C   0  0  2  0  0  3  0  0  0  0  0  0
  191.9850  173.9710  136.9430 O   0  0  0  0  0  0  0  0  0  0  0  0
  192.0450  173.4640  139.8760 C   0  0  0  0  0  2  0  0  0  0  0  0
  189.8090  172.3050  141.6300 N   0  0  0  0  0  2  0  0  0  0  0  0
  190.5240  173.5780  141.6610 C   0  0  0  0  0  2  0  0  0  0  0  0
  189.1350  172.2700  140.3540 C   0  0  0  0  0  2  0  0  0  0  0  0
  190.7590  174.0220  140.2940 N   0  0  0  0  0  0  0  0  0  0  0  0
  189.7530  173.3550  139.4930 C   0  0  0  0  0  2  0  0  0  0  0  0
  191.7820  176.2020  145.8150 C   0  0  0  0  0  2  0  0  0  0  0  0
  187.3020  176.3870  141.9780 C   0  0  1  0  0  0  0  0  0  0  0  0
  186.2660  177.4620  144.5620 C   0  0  0  0  0  0  0  0  0  0  0  0
  190.2980  176.1160  145.4620 C   0  0  2  0  0  0  0  0  0  0  0  0
  188.4490  178.6830  142.0050 O   0  0  0  0  0  1  0  0  0  0  0  0
  189.9440  174.6730  145.1590 C   0  0  0  0  0  1  0  0  0  0  0  0
  187.0000  176.5740  147.1300 C   0  0  0  0  0  3  0  0  0  0  0  0
  188.3390  177.3580  142.4690 C   0  0  1  0  0  0  0  0  0  0  0  0
  187.6470  177.1890  144.8690 C   0  0  0  0  0  0  0  0  0  0  0  0
  186.1270  177.3080  141.9590 C   0  0  0  0  0  0  0  0  0  0  0  0
  187.9890  176.8020  146.1780 C   0  0  0  0  0  0  0  0  0  0  0  0
  188.6930  177.1300  143.8560 N   0  0  0  0  0  0  0  0  0  0  0  0
  185.4420  177.4350  140.9500 O   0  0  0  0  0  0  0  0  0  0  0  0
  185.6590  176.7990  146.8150 C   0  0  0  0  0  3  0  0  0  0  0  0
  188.6220  176.4620  141.4630 O   0  0  0  0  0  0  0  0  0  0  0  0
  185.3030  177.2610  145.5530 C   0  0  0  0  0  3  0  0  0  0  0  0
  185.7290  178.0350  143.2500 C   0  0  2  0  0  3  0  0  0  0  0  0
  187.1180  175.0900  142.7520 C   0  0  0  0  0  1  0  0  0  0  0  0
  190.1040  176.9620  144.2110 C   0  0  0  0  0  2  0  0  0  0  0  0
  189.4230  176.6730  146.5860 C   0  0  0  0  0  2  0  0  0  0  0  0
  186.0070  179.3910  143.1580 O   0  0  0  0  0  0  0  0  0  0  0  0
  185.2560  179.9710  144.1720 C   0  0  0  0  0  1  0  0  0  0  0  0
  1  2  1  0  0  0  0
  1 25  1  0  0  0  0
  2  3  1  1  0  0  0
  4  9  1  6  0  0  0
  4  2  1  0  0  0  0
  5  8  1  0  0  0  0
  5  4  1  0  0  0  0
  6  5  2  0  0  0  0
  8  7  1  0  0  0  0
 10  9  1  0  0  0  0
 11 10  1  0  0  0  0
 12 11  2  0  0  0  0
 14 13  1  6  0  0  0
 14 11  1  0  0  0  0
 15 14  1  0  0  0  0
 15 19  1  1  0  0  0
 16 18  1  0  0  0  0
 16 17  1  0  0  0  0
 17 15  1  1  0  0  0
 18 17  1  0  0  0  0
 19 23  1  0  0  0  0
 20 21  1  0  0  0  0
 22 20  1  0  0  0  0
 23 21  1  0  0  0  0
 24 23  1  0  0  0  0
 24 22  1  0  0  0  0
 26 32  1  0  0  0  0
 26 42  1  1  0  0  0
 27 33  2  0  0  0  0
 27 40  1  0  0  0  0
 28 30  1  6  0  0  0
 28 25  1  0  0  0  0
 28 44  1  0  0  0  0
 32 29  1  6  0  0  0
 32 36  1  0  0  0  0
 33 35  1  0  0  0  0
 34 26  1  0  0  0  0
 34 41  1  0  0  0  0
 35 44  1  0  0  0  0
 35 31  2  0  0  0  0
 36 43  1  0  0  0  0
 36 33  1  0  0  0  0
 37 34  2  0  0  0  0
 38 31  1  0  0  0  0
 39 26  1  0  0  0  0
 39 32  1  0  0  0  0
 40 38  2  0  0  0  0
 41 45  1  6  0  0  0
 41 27  1  0  0  0  0
 43 28  1  0  0  0  0
 45 46  1  0  0  0  0
M  END
>  <MODEL>
6

>  <REMARK>
 VINA RESULT:      -6.7      1.675      2.393
  Name = 
  14 active torsions:
  status: ('A' for Active; 'I' for Inactive)
    1  A    between atoms: C_2  and  C_29
    2  A    between atoms: C_2  and  C_30
    3  A    between atoms: C_6  and  C_12
    4  A    between atoms: C_6  and  O_31
    5  A    between atoms: N_7  and  C_15
    6  A    between atoms: C_8  and  C_29
    7  A    between atoms: C_11  and  C_35
    8  A    between atoms: C_12  and  C_15
    9  A    between atoms: C_12  and  C_30
   10  A    between atoms: C_17  and  C_21
   11  A    between atoms: C_17  and  N_45
   12  A    between atoms: C_21  and  C_35
   13  A    between atoms: C_21  and  C_41
   14  A    between atoms: O_28  and  C_38
                            x       y       z     vdW  Elec       q    Type
                         _______ _______ _______ _____ _____    ______ ____

>  <TORSDO>
F 14

$$$$
=
 OpenBabel11062422533D

 46 51  0  0  1  0  0  0  0  0999 V2000
  192.5020  177.0510  145.0390 C   0  0  0  0  0  2  0  0  0  0  0  0
  193.6800  176.1540  144.7100 C   0  0  1  0  0  3  0  0  0  0  0  0
  194.2090  175.5420  146.0030 C   0  0  0  0  0  1  0  0  0  0  0  0
  193.2830  175.0310  143.7280 C   0  0  2  0  0  3  0  0  0  0  0  0
  194.3720  174.0290  143.4620 C   0  0  0  0  0  0  0  0  0  0  0  0
  195.4510  174.3810  142.8360 N   0  0  0  0  0  2  0  0  0  0  0  0
  194.6350  171.5940  143.1080 C   0  0  0  0  0  1  0  0  0  0  0  0
  194.1750  172.7050  143.8640 O   0  0  0  0  0  0  0  0  0  0  0  0
  192.6830  175.5190  142.4070 C   0  0  0  0  0  2  0  0  0  0  0  0
  191.3860  174.9140  142.1390 N   0  0  0  0  0  2  0  0  0  0  0  0
  191.1810  173.6960  141.4210 C   0  0  0  0  0  0  0  0  0  0  0  0
  190.0490  173.1400  141.5070 O   0  0  0  0  0  0  0  0  0  0  0  0
  192.0160  171.6790  140.3680 O   0  0  0  0  0  1  0  0  0  0  0  0
  192.2310  173.0450  140.5550 C   0  0  1  0  0  3  0  0  0  0  0  0
  192.5090  173.7880  139.2400 C   0  0  1  0  0  3  0  0  0  0  0  0
  194.4340  175.2550  139.2100 N   0  0  0  0  0  2  0  0  0  0  0  0
  194.0150  173.8940  139.0120 C   0  0  2  0  0  3  0  0  0  0  0  0
  194.2810  174.6990  137.9540 O   0  0  0  0  0  0  0  0  0  0  0  0
  191.7980  173.2050  138.0120 C   0  0  0  0  0  2  0  0  0  0  0  0
  189.3220  172.1630  136.5270 N   0  0  0  0  0  2  0  0  0  0  0  0
  189.5100  172.6990  137.8720 C   0  0  0  0  0  2  0  0  0  0  0  0
  189.6910  173.2320  135.6300 C   0  0  0  0  0  2  0  0  0  0  0  0
  190.4720  173.7900  137.8170 N   0  0  0  0  0  0  0  0  0  0  0  0
  190.4410  174.2640  136.4490 C   0  0  0  0  0  2  0  0  0  0  0  0
  191.6280  176.3730  146.0650 C   0  0  0  0  0  2  0  0  0  0  0  0
  187.2530  176.5050  142.1070 C   0  0  1  0  0  0  0  0  0  0  0  0
  186.1540  177.6330  144.6420 C   0  0  0  0  0  0  0  0  0  0  0  0
  190.1550  176.2860  145.6740 C   0  0  2  0  0  0  0  0  0  0  0  0
  188.4100  178.7960  142.1210 O   0  0  0  0  0  1  0  0  0  0  0  0
  189.8010  174.8400  145.3890 C   0  0  0  0  0  1  0  0  0  0  0  0
  186.8150  176.7900  147.2450 C   0  0  0  0  0  3  0  0  0  0  0  0
  188.2810  177.4810  142.6070 C   0  0  1  0  0  0  0  0  0  0  0  0
  187.5250  177.3590  144.9910 C   0  0  0  0  0  0  0  0  0  0  0  0
  186.0830  177.4300  142.0390 C   0  0  0  0  0  0  0  0  0  0  0  0
  187.8300  176.9960  146.3160 C   0  0  0  0  0  0  0  0  0  0  0  0
  188.5970  177.2770  144.0070 N   0  0  0  0  0  0  0  0  0  0  0  0
  185.4260  177.5410  141.0100 O   0  0  0  0  0  0  0  0  0  0  0  0
  185.4840  177.0160  146.8900 C   0  0  0  0  0  3  0  0  0  0  0  0
  188.5870  176.5640  141.6250 O   0  0  0  0  0  0  0  0  0  0  0  0
  185.1640  177.4550  145.6100 C   0  0  0  0  0  3  0  0  0  0  0  0
  185.6550  178.1830  143.3050 C   0  0  2  0  0  3  0  0  0  0  0  0
  187.0420  175.2240  142.9000 C   0  0  0  0  0  1  0  0  0  0  0  0
  189.9980  177.1100  144.4030 C   0  0  0  0  0  2  0  0  0  0  0  0
  189.2520  176.8680  146.7640 C   0  0  0  0  0  2  0  0  0  0  0  0
  185.9410  179.5360  143.1950 O   0  0  0  0  0  0  0  0  0  0  0  0
  185.1970  180.1340  144.2030 C   0  0  0  0  0  1  0  0  0  0  0  0
  1 25  1  0  0  0  0
  2  1  1  0  0  0  0
  2  3  1  1  0  0  0
  4  9  1  6  0  0  0
  4  2  1  0  0  0  0
  5  4  1  0  0  0  0
  5  8  1  0  0  0  0
  6  5  2  0  0  0  0
  7  8  1  0  0  0  0
 10  9  1  0  0  0  0
 11 12  2  0  0  0  0
 11 10  1  0  0  0  0
 14 13  1  6  0  0  0
 14 11  1  0  0  0  0
 15 19  1  6  0  0  0
 15 14  1  0  0  0  0
 17 16  1  0  0  0  0
 17 15  1  6  0  0  0
 18 17  1  0  0  0  0
 18 16  1  0  0  0  0
 20 21  1  0  0  0  0
 22 24  1  0  0  0  0
 22 20  1  0  0  0  0
 23 21  1  0  0  0  0
 23 19  1  0  0  0  0
 24 23  1  0  0  0  0
 26 32  1  0  0  0  0
 26 42  1  1  0  0  0
 27 33  2  0  0  0  0
 27 40  1  0  0  0  0
 28 30  1  6  0  0  0
 28 25  1  0  0  0  0
 28 44  1  0  0  0  0
 32 29  1  6  0  0  0
 32 36  1  0  0  0  0
 33 35  1  0  0  0  0
 34 26  1  0  0  0  0
 34 41  1  0  0  0  0
 35 44  1  0  0  0  0
 35 31  2  0  0  0  0
 36 43  1  0  0  0  0
 36 33  1  0  0  0  0
 37 34  2  0  0  0  0
 38 31  1  0  0  0  0
 39 26  1  0  0  0  0
 39 32  1  0  0  0  0
 40 38  2  0  0  0  0
 41 45  1  6  0  0  0
 41 27  1  0  0  0  0
 43 28  1  0  0  0  0
 45 46  1  0  0  0  0
M  END
>  <MODEL>
7

>  <REMARK>
 VINA RESULT:      -6.7      1.788      2.664
  Name = 
  14 active torsions:
  status: ('A' for Active; 'I' for Inactive)
    1  A    between atoms: C_2  and  C_29
    2  A    between atoms: C_2  and  C_30
    3  A    between atoms: C_6  and  C_12
    4  A    between atoms: C_6  and  O_31
    5  A    between atoms: N_7  and  C_15
    6  A    between atoms: C_8  and  C_29
    7  A    between atoms: C_11  and  C_35
    8  A    between atoms: C_12  and  C_15
    9  A    between atoms: C_12  and  C_30
   10  A    between atoms: C_17  and  C_21
   11  A    between atoms: C_17  and  N_45
   12  A    between atoms: C_21  and  C_35
   13  A    between atoms: C_21  and  C_41
   14  A    between atoms: O_28  and  C_38
                            x       y       z     vdW  Elec       q    Type
                         _______ _______ _______ _____ _____    ______ ____

>  <TORSDO>
F 14

$$$$
=
 OpenBabel11062422533D

 46 51  0  0  1  0  0  0  0  0999 V2000
  192.5990  176.1440  144.7030 C   0  0  0  0  0  2  0  0  0  0  0  0
  193.9790  176.6700  145.0480 C   0  0  1  0  0  3  0  0  0  0  0  0
  194.1140  176.7430  146.5650 C   0  0  0  0  0  1  0  0  0  0  0  0
  195.0920  175.7700  144.4700 C   0  0  2  0  0  3  0  0  0  0  0  0
  195.8410  176.3760  143.3160 C   0  0  0  0  0  0  0  0  0  0  0  0
  196.9480  177.0220  143.5180 N   0  0  0  0  0  2  0  0  0  0  0  0
  196.0970  176.1490  140.8660 C   0  0  0  0  0  1  0  0  0  0  0  0
  195.2980  176.2680  142.0340 O   0  0  0  0  0  0  0  0  0  0  0  0
  194.6470  174.3480  144.1190 C   0  0  0  0  0  2  0  0  0  0  0  0
  195.5260  173.3420  144.6980 N   0  0  0  0  0  2  0  0  0  0  0  0
  195.9170  172.1260  144.0580 C   0  0  0  0  0  0  0  0  0  0  0  0
  196.8960  171.4880  144.5420 O   0  0  0  0  0  0  0  0  0  0  0  0
  196.0820  170.8500  142.0040 O   0  0  0  0  0  1  0  0  0  0  0  0
  195.2210  171.5540  142.8480 C   0  0  1  0  0  3  0  0  0  0  0  0
  193.9380  170.7740  143.1720 C   0  0  1  0  0  3  0  0  0  0  0  0
  194.2410  168.6170  144.2270 N   0  0  0  0  0  2  0  0  0  0  0  0
  194.1070  170.0230  144.4910 C   0  0  2  0  0  3  0  0  0  0  0  0
  193.0680  169.1770  144.6930 O   0  0  0  0  0  0  0  0  0  0  0  0
  192.6580  171.6200  143.1710 C   0  0  0  0  0  2  0  0  0  0  0  0
  190.2470  173.1580  142.0550 N   0  0  0  0  0  2  0  0  0  0  0  0
  191.5290  172.7750  141.4680 C   0  0  0  0  0  2  0  0  0  0  0  0
  189.5890  171.9180  142.3890 C   0  0  0  0  0  2  0  0  0  0  0  0
  191.8870  171.4450  141.9410 N   0  0  0  0  0  0  0  0  0  0  0  0
  190.6390  170.8250  142.3340 C   0  0  0  0  0  2  0  0  0  0  0  0
  191.6810  176.3370  145.8850 C   0  0  0  0  0  2  0  0  0  0  0  0
  187.1790  176.4920  142.0730 C   0  0  1  0  0  0  0  0  0  0  0  0
  186.1740  177.6410  144.6380 C   0  0  0  0  0  0  0  0  0  0  0  0
  190.1950  176.2620  145.5430 C   0  0  2  0  0  0  0  0  0  0  0  0
  188.3560  178.7730  142.0390 O   0  0  0  0  0  1  0  0  0  0  0  0
  189.8190  174.8180  145.2760 C   0  0  0  0  0  1  0  0  0  0  0  0
  186.9140  176.8030  147.2210 C   0  0  0  0  0  3  0  0  0  0  0  0
  188.2320  177.4610  142.5350 C   0  0  1  0  0  0  0  0  0  0  0  0
  187.5540  177.3560  144.9420 C   0  0  0  0  0  0  0  0  0  0  0  0
  186.0160  177.4270  142.0400 C   0  0  0  0  0  0  0  0  0  0  0  0
  187.8990  176.9960  146.2580 C   0  0  0  0  0  0  0  0  0  0  0  0
  188.5920  177.2600  143.9240 N   0  0  0  0  0  0  0  0  0  0  0  0
  185.3260  177.5410  141.0330 O   0  0  0  0  0  0  0  0  0  0  0  0
  185.5740  177.0390  146.9100 C   0  0  0  0  0  3  0  0  0  0  0  0
  188.4970  176.5370  141.5480 O   0  0  0  0  0  0  0  0  0  0  0  0
  185.2150  177.4760  145.6390 C   0  0  0  0  0  3  0  0  0  0  0  0
  185.6370  178.1900  143.3150 C   0  0  2  0  0  3  0  0  0  0  0  0
  186.9830  175.2160  142.8790 C   0  0  0  0  0  1  0  0  0  0  0  0
  190.0030  177.0820  144.2740 C   0  0  0  0  0  2  0  0  0  0  0  0
  189.3340  176.8570  146.6600 C   0  0  0  0  0  2  0  0  0  0  0  0
  185.9310  179.5400  143.1910 O   0  0  0  0  0  0  0  0  0  0  0  0
  185.1990  180.1520  144.1980 C   0  0  0  0  0  1  0  0  0  0  0  0
  1  2  1  0  0  0  0
  1 25  1  0  0  0  0
  2  3  1  1  0  0  0
  4  9  1  6  0  0  0
  4  2  1  0  0  0  0
  5  6  2  0  0  0  0
  5  4  1  0  0  0  0
  7  8  1  0  0  0  0
  8  5  1  0  0  0  0
  9 10  1  0  0  0  0
 11 12  2  0  0  0  0
 11 10  1  0  0  0  0
 14 13  1  1  0  0  0
 14 15  1  0  0  0  0
 14 11  1  0  0  0  0
 15 19  1  1  0  0  0
 16 17  1  0  0  0  0
 16 18  1  0  0  0  0
 17 15  1  6  0  0  0
 17 18  1  0  0  0  0
 20 22  1  0  0  0  0
 21 23  1  0  0  0  0
 21 20  1  0  0  0  0
 23 24  1  0  0  0  0
 23 19  1  0  0  0  0
 24 22  1  0  0  0  0
 26 32  1  0  0  0  0
 26 42  1  1  0  0  0
 27 33  2  0  0  0  0
 27 40  1  0  0  0  0
 28 30  1  6  0  0  0
 28 25  1  0  0  0  0
 28 44  1  0  0  0  0
 32 29  1  6  0  0  0
 32 36  1  0  0  0  0
 33 35  1  0  0  0  0
 34 26  1  0  0  0  0
 34 41  1  0  0  0  0
 35 44  1  0  0  0  0
 35 31  2  0  0  0  0
 36 43  1  0  0  0  0
 36 33  1  0  0  0  0
 37 34  2  0  0  0  0
 38 31  1  0  0  0  0
 39 26  1  0  0  0  0
 39 32  1  0  0  0  0
 40 38  2  0  0  0  0
 41 45  1  6  0  0  0
 41 27  1  0  0  0  0
 43 28  1  0  0  0  0
 45 46  1  0  0  0  0
M  END
>  <MODEL>
8

>  <REMARK>
 VINA RESULT:      -6.7      1.699      2.341
  Name = 
  14 active torsions:
  status: ('A' for Active; 'I' for Inactive)
    1  A    between atoms: C_2  and  C_29
    2  A    between atoms: C_2  and  C_30
    3  A    between atoms: C_6  and  C_12
    4  A    between atoms: C_6  and  O_31
    5  A    between atoms: N_7  and  C_15
    6  A    between atoms: C_8  and  C_29
    7  A    between atoms: C_11  and  C_35
    8  A    between atoms: C_12  and  C_15
    9  A    between atoms: C_12  and  C_30
   10  A    between atoms: C_17  and  C_21
   11  A    between atoms: C_17  and  N_45
   12  A    between atoms: C_21  and  C_35
   13  A    between atoms: C_21  and  C_41
   14  A    between atoms: O_28  and  C_38
                            x       y       z     vdW  Elec       q    Type
                         _______ _______ _______ _____ _____    ______ ____

>  <TORSDO>
F 14

$$$$
=
 OpenBabel11062422533D

 46 51  0  0  1  0  0  0  0  0999 V2000
  192.6170  176.6440  144.6400 C   0  0  0  0  0  2  0  0  0  0  0  0
  194.0660  176.4490  145.0450 C   0  0  1  0  0  3  0  0  0  0  0  0
  194.1910  176.6690  146.5480 C   0  0  0  0  0  1  0  0  0  0  0  0
  194.5730  175.0370  144.6830 C   0  0  2  0  0  3  0  0  0  0  0  0
  196.0530  174.9570  144.4320 C   0  0  0  0  0  0  0  0  0  0  0  0
  196.5480  175.3420  143.2970 N   0  0  0  0  0  2  0  0  0  0  0  0
  196.8170  173.0540  145.8170 C   0  0  0  0  0  1  0  0  0  0  0  0
  196.8730  174.4190  145.4270 O   0  0  0  0  0  0  0  0  0  0  0  0
  193.8090  174.3540  143.5450 C   0  0  0  0  0  2  0  0  0  0  0  0
  193.0060  173.2360  144.0200 N   0  0  0  0  0  2  0  0  0  0  0  0
  191.9960  172.5690  143.2610 C   0  0  0  0  0  0  0  0  0  0  0  0
  191.5820  171.4490  143.6770 O   0  0  0  0  0  0  0  0  0  0  0  0
  191.1460  174.5030  142.0740 O   0  0  0  0  0  1  0  0  0  0  0  0
  191.3860  173.1310  142.0000 C   0  0  1  0  0  3  0  0  0  0  0  0
  192.1200  172.7240  140.7130 C   0  0  1  0  0  3  0  0  0  0  0  0
  192.0910  170.4560  139.8700 N   0  0  0  0  0  2  0  0  0  0  0  0
  191.3140  171.6610  139.9700 C   0  0  2  0  0  3  0  0  0  0  0  0
  191.9270  171.3250  138.8090 O   0  0  0  0  0  0  0  0  0  0  0  0
  192.4880  173.8930  139.7900 C   0  0  0  0  0  2  0  0  0  0  0  0
  194.8910  173.8720  137.8810 N   0  0  0  0  0  2  0  0  0  0  0  0
  194.3100  174.9160  138.7200 C   0  0  0  0  0  2  0  0  0  0  0  0
  195.3170  172.8350  138.7900 C   0  0  0  0  0  2  0  0  0  0  0  0
  193.8720  174.3240  139.9760 N   0  0  0  0  0  0  0  0  0  0  0  0
  194.6530  173.1130  140.1260 C   0  0  0  0  0  2  0  0  0  0  0  0
  191.7270  176.3950  145.8330 C   0  0  0  0  0  2  0  0  0  0  0  0
  187.2060  176.5110  142.0420 C   0  0  1  0  0  0  0  0  0  0  0  0
  186.1990  177.6340  144.6170 C   0  0  0  0  0  0  0  0  0  0  0  0
  190.2400  176.3020  145.4980 C   0  0  2  0  0  0  0  0  0  0  0  0
  188.3540  178.8060  142.0140 O   0  0  0  0  0  1  0  0  0  0  0  0
  189.8820  174.8550  145.2250 C   0  0  0  0  0  1  0  0  0  0  0  0
  186.9600  176.7930  147.1930 C   0  0  0  0  0  3  0  0  0  0  0  0
  188.2490  177.4900  142.5040 C   0  0  1  0  0  0  0  0  0  0  0  0
  187.5830  177.3660  144.9140 C   0  0  0  0  0  0  0  0  0  0  0  0
  186.0310  177.4310  142.0180 C   0  0  0  0  0  0  0  0  0  0  0  0
  187.9390  177.0030  146.2260 C   0  0  0  0  0  0  0  0  0  0  0  0
  188.6170  177.2870  143.8910 N   0  0  0  0  0  0  0  0  0  0  0  0
  185.3350  177.5410  141.0150 O   0  0  0  0  0  0  0  0  0  0  0  0
  185.6160  177.0130  146.8880 C   0  0  0  0  0  3  0  0  0  0  0  0
  188.5210  176.5760  141.5110 O   0  0  0  0  0  0  0  0  0  0  0  0
  185.2460  177.4520  145.6210 C   0  0  0  0  0  3  0  0  0  0  0  0
  185.6480  178.1820  143.3000 C   0  0  2  0  0  3  0  0  0  0  0  0
  187.0300  175.2290  142.8420 C   0  0  0  0  0  1  0  0  0  0  0  0
  190.0320  177.1260  144.2330 C   0  0  0  0  0  2  0  0  0  0  0  0
  189.3770  176.8800  146.6210 C   0  0  0  0  0  2  0  0  0  0  0  0
  185.9250  179.5370  143.1800 O   0  0  0  0  0  0  0  0  0  0  0  0
  185.1930  180.1340  144.1970 C   0  0  0  0  0  1  0  0  0  0  0  0
  1  2  1  0  0  0  0
  1 25  1  0  0  0  0
  2  3  1  1  0  0  0
  4  9  1  6  0  0  0
  4  2  1  0  0  0  0
  5  4  1  0  0  0  0
  5  8  1  0  0  0  0
  6  5  2  0  0  0  0
  8  7  1  0  0  0  0
  9 10  1  0  0  0  0
 11 12  2  0  0  0  0
 11 10  1  0  0  0  0
 14 13  1  1  0  0  0
 14 11  1  0  0  0  0
 15 19  1  6  0  0  0
 15 14  1  0  0  0  0
 16 17  1  0  0  0  0
 17 15  1  1  0  0  0
 18 16  1  0  0  0  0
 18 17  1  0  0  0  0
 19 23  1  0  0  0  0
 20 21  1  0  0  0  0
 20 22  1  0  0  0  0
 21 23  1  0  0  0  0
 22 24  1  0  0  0  0
 23 24  1  0  0  0  0
 26 32  1  0  0  0  0
 26 42  1  1  0  0  0
 27 33  2  0  0  0  0
 27 40  1  0  0  0  0
 28 30  1  6  0  0  0
 28 25  1  0  0  0  0
 28 44  1  0  0  0  0
 32 29  1  6  0  0  0
 32 36  1  0  0  0  0
 33 35  1  0  0  0  0
 34 26  1  0  0  0  0
 34 41  1  0  0  0  0
 35 44  1  0  0  0  0
 35 31  2  0  0  0  0
 36 43  1  0  0  0  0
 36 33  1  0  0  0  0
 37 34  2  0  0  0  0
 38 31  1  0  0  0  0
 39 26  1  0  0  0  0
 39 32  1  0  0  0  0
 40 38  2  0  0  0  0
 41 45  1  6  0  0  0
 41 27  1  0  0  0  0
 43 28  1  0  0  0  0
 45 46  1  0  0  0  0
M  END
>  <MODEL>
9

>  <REMARK>
 VINA RESULT:      -6.6      1.765      2.383
  Name = 
  14 active torsions:
  status: ('A' for Active; 'I' for Inactive)
    1  A    between atoms: C_2  and  C_29
    2  A    between atoms: C_2  and  C_30
    3  A    between atoms: C_6  and  C_12
    4  A    between atoms: C_6  and  O_31
    5  A    between atoms: N_7  and  C_15
    6  A    between atoms: C_8  and  C_29
    7  A    between atoms: C_11  and  C_35
    8  A    between atoms: C_12  and  C_15
    9  A    between atoms: C_12  and  C_30
   10  A    between atoms: C_17  and  C_21
   11  A    between atoms: C_17  and  N_45
   12  A    between atoms: C_21  and  C_35
   13  A    between atoms: C_21  and  C_41
   14  A    between atoms: O_28  and  C_38
                            x       y       z     vdW  Elec       q    Type
                         _______ _______ _______ _____ _____    ______ ____

>  <TORSDO>
F 14

$$$$
