=
 OpenBabel11062418473D

 43 49  0  0  1  0  0  0  0  0999 V2000
  189.7930  173.6980  138.5450 C   0  0  0  0  0  0  0  0  0  0  0  0
  194.9680  173.6310  144.9460 C   0  0  1  0  0  3  0  0  0  0  0  0
  188.2960  176.0400  146.9770 C   0  0  0  0  0  3  0  0  0  0  0  0
  193.2070  174.9470  142.4770 C   0  0  0  0  0  2  0  0  0  0  0  0
  190.4220  175.7760  145.7330 C   0  0  2  0  0  3  0  0  0  0  0  0
  195.8100  174.4290  144.1370 O   0  0  0  0  0  0  0  0  0  0  0  0
  191.4430  172.7010  140.5650 C   0  0  1  0  0  3  0  0  0  0  0  0
  187.4390  175.2870  139.2900 N   0  0  0  0  0  1  0  0  0  0  0  0
  188.0730  175.0110  141.6340 C   0  0  0  0  0  0  0  0  0  0  0  0
  190.8900  172.9500  138.2560 N   0  0  0  0  0  0  0  0  0  0  0  0
  192.6320  175.5360  144.9160 C   0  0  2  0  0  3  0  0  0  0  0  0
  185.6710  177.7080  144.9460 C   0  0  2  0  0  3  0  0  0  0  0  0
  191.7390  174.3340  144.7310 C   0  0  1  0  0  3  0  0  0  0  0  0
  191.7060  172.4520  139.2190 C   0  0  0  0  0  3  0  0  0  0  0  0
  187.6140  176.8950  146.2170 C   0  0  0  0  0  3  0  0  0  0  0  0
  185.6940  177.0160  143.6960 O   0  0  0  0  0  0  0  0  0  0  0  0
  191.7070  176.5530  145.5130 C   0  0  0  0  0  2  0  0  0  0  0  0
  190.3140  173.4650  140.9070 C   0  0  0  0  0  0  0  0  0  0  0  0
  186.9060  175.8120  142.0490 C   0  0  0  0  0  3  0  0  0  0  0  0
  193.7420  172.7060  141.5600 C   0  0  0  0  0  2  0  0  0  0  0  0
  190.0230  173.7150  142.2480 C   0  0  0  0  0  3  0  0  0  0  0  0
  195.5850  174.0440  142.7990 C   0  0  1  0  0  0  0  0  0  0  0  0
  193.8830  173.0130  144.0810 C   0  0  1  0  0  3  0  0  0  0  0  0
  188.9250  174.4810  142.6080 C   0  0  0  0  0  3  0  0  0  0  0  0
  186.8210  176.3200  143.2740 C   0  0  0  0  0  3  0  0  0  0  0  0
  189.0860  174.1230  137.5950 O   0  0  0  0  0  0  0  0  0  0  0  0
  192.5010  173.0100  144.7760 C   0  0  0  0  0  2  0  0  0  0  0  0
  189.7870  176.1430  147.0660 C   0  0  0  0  0  2  0  0  0  0  0  0
  194.0680  173.6730  142.7120 C   0  0  1  0  0  0  0  0  0  0  0  0
  188.3270  174.7530  140.2730 C   0  0  0  0  0  0  0  0  0  0  0  0
  192.3400  172.1060  141.6120 C   0  0  0  0  0  2  0  0  0  0  0  0
  195.8620  175.1360  141.9690 O   0  0  0  0  0  1  0  0  0  0  0  0
  193.2180  176.0170  143.5850 C   0  0  0  0  0  2  0  0  0  0  0  0
  186.1290  176.8140  146.0950 C   0  0  0  0  0  2  0  0  0  0  0  0
  189.4630  173.9820  139.8940 C   0  0  0  0  0  0  0  0  0  0  0  0
  190.7180  174.4030  145.6820 O   0  0  0  0  0  0  0  0  0  0  0  0
  197.4980  173.2890  141.4520 O   0  0  0  0  0  0  0  0  0  0  0  0
  197.9390  173.4100  142.7170 O   0  0  0  0  0  0  0  0  0  0  0  0
  196.6590  172.9590  142.4920 C   0  0  0  0  0  3  0  0  0  0  0  0
  195.7130  172.6270  145.5670 O   0  0  0  0  0  0  0  0  0  0  0  0
  196.8010  173.2910  146.1330 C   0  0  0  0  0  1  0  0  0  0  0  0
  184.3780  178.1650  145.1960 O   0  0  0  0  0  0  0  0  0  0  0  0
  184.2560  178.1420  146.5850 C   0  0  0  0  0  1  0  0  0  0  0  0
  1 35  1  0  0  0  0
  2 40  1  6  0  0  0
  3 28  1  0  0  0  0
  4 29  1  0  0  0  0
  4 33  1  0  0  0  0
  5 17  1  1  0  0  0
  5 28  1  0  0  0  0
  6  2  1  0  0  0  0
  7 14  1  1  0  0  0
  7 18  1  0  0  0  0
  7 31  1  0  0  0  0
  8 30  1  0  0  0  0
  9 19  1  0  0  0  0
  9 24  1  0  0  0  0
 10  1  1  0  0  0  0
 10 14  2  0  0  0  0
 11 33  1  6  0  0  0
 11 17  1  0  0  0  0
 12 42  1  1  0  0  0
 12 34  1  0  0  0  0
 13 27  1  1  0  0  0
 13 11  1  0  0  0  0
 13 36  1  0  0  0  0
 15  3  2  0  0  0  0
 16 12  1  0  0  0  0
 18 21  1  0  0  0  0
 19 25  2  0  0  0  0
 20 31  1  0  0  0  0
 21 24  2  0  0  0  0
 22 32  1  6  0  0  0
 22  6  1  0  0  0  0
 23 27  1  1  0  0  0
 23  2  1  0  0  0  0
 25 16  1  0  0  0  0
 26  1  2  0  0  0  0
 29 20  1  6  0  0  0
 29 22  1  0  0  0  0
 29 23  1  0  0  0  0
 30  9  2  0  0  0  0
 34 15  1  0  0  0  0
 35 30  1  0  0  0  0
 35 18  2  0  0  0  0
 36  5  1  0  0  0  0
 37 39  1  0  0  0  0
 37 38  1  0  0  0  0
 39 38  1  0  0  0  0
 39 22  1  0  0  0  0
 40 41  1  0  0  0  0
 42 43  1  0  0  0  0
M  END
>  <MODEL>
1

>  <REMARK>
 VINA RESULT:      -8.8      0.000      0.000
  Name = 
  3 active torsions:
  status: ('A' for Active; 'I' for Inactive)
    1  A    between atoms: O_1  and  C_3
    2  A    between atoms: C_15  and  O_25
    3  A    between atoms: C_26  and  C_41
                            x       y       z     vdW  Elec       q    Type
                         _______ _______ _______ _____ _____    ______ ____

>  <TORSDO>
F 3

$$$$
=
 OpenBabel11062418473D

 43 49  0  0  1  0  0  0  0  0999 V2000
  188.7450  173.9640  138.2860 C   0  0  0  0  0  0  0  0  0  0  0  0
  193.4810  171.5040  144.5530 C   0  0  1  0  0  3  0  0  0  0  0  0
  188.0650  175.9200  146.9190 C   0  0  0  0  0  3  0  0  0  0  0  0
  192.3290  173.5720  142.2440 C   0  0  0  0  0  2  0  0  0  0  0  0
  189.9760  175.0350  145.6150 C   0  0  2  0  0  3  0  0  0  0  0  0
  194.5600  172.0230  143.8010 O   0  0  0  0  0  0  0  0  0  0  0  0
  189.9100  172.2730  140.1780 C   0  0  1  0  0  3  0  0  0  0  0  0
  187.0940  176.2080  139.2140 N   0  0  0  0  0  1  0  0  0  0  0  0
  187.5610  175.5180  141.5120 C   0  0  0  0  0  0  0  0  0  0  0  0
  189.5110  172.9060  137.9110 N   0  0  0  0  0  0  0  0  0  0  0  0
  191.9690  174.1050  144.7360 C   0  0  2  0  0  3  0  0  0  0  0  0
  186.2240  178.5810  145.0940 C   0  0  2  0  0  3  0  0  0  0  0  0
  190.7120  173.3180  144.4640 C   0  0  1  0  0  3  0  0  0  0  0  0
  190.0850  172.0680  138.8100 C   0  0  0  0  0  3  0  0  0  0  0  0
  187.7380  177.0250  146.2510 C   0  0  0  0  0  3  0  0  0  0  0  0
  186.0160  178.0410  143.7890 O   0  0  0  0  0  0  0  0  0  0  0  0
  191.4550  175.3260  145.4390 C   0  0  0  0  0  2  0  0  0  0  0  0
  189.1200  173.3520  140.6070 C   0  0  0  0  0  0  0  0  0  0  0  0
  186.7460  176.6390  142.0180 C   0  0  0  0  0  3  0  0  0  0  0  0
  192.0510  171.3780  141.1230 C   0  0  0  0  0  2  0  0  0  0  0  0
  188.9190  173.5680  141.9710 C   0  0  0  0  0  3  0  0  0  0  0  0
  194.2310  171.8630  142.4380 C   0  0  1  0  0  0  0  0  0  0  0  0
  192.2590  171.3890  143.6580 C   0  0  1  0  0  3  0  0  0  0  0  0
  188.1580  174.6370  142.4180 C   0  0  0  0  0  3  0  0  0  0  0  0
  186.8300  177.0320  143.2840 C   0  0  0  0  0  3  0  0  0  0  0  0
  188.2450  174.6940  137.3910 O   0  0  0  0  0  0  0  0  0  0  0  0
  190.9560  171.8110  144.3780 C   0  0  0  0  0  2  0  0  0  0  0  0
  189.4940  175.4820  146.9870 C   0  0  0  0  0  2  0  0  0  0  0  0
  192.6820  172.0600  142.3490 C   0  0  1  0  0  0  0  0  0  0  0  0
  187.7240  175.3090  140.1280 C   0  0  0  0  0  0  0  0  0  0  0  0
  190.5260  171.3080  141.1500 C   0  0  0  0  0  2  0  0  0  0  0  0
  194.8870  172.8560  141.7030 O   0  0  0  0  0  1  0  0  0  0  0  0
  192.7040  174.4650  143.4410 C   0  0  0  0  0  2  0  0  0  0  0  0
  186.3220  177.4840  146.1520 C   0  0  0  0  0  2  0  0  0  0  0  0
  188.5190  174.2250  139.6610 C   0  0  0  0  0  0  0  0  0  0  0  0
  189.7690  173.6570  145.4380 O   0  0  0  0  0  0  0  0  0  0  0  0
  195.8830  170.6210  141.1070 O   0  0  0  0  0  0  0  0  0  0  0  0
  196.1730  170.3870  142.4000 O   0  0  0  0  0  0  0  0  0  0  0  0
  194.8570  170.5010  142.0160 C   0  0  0  0  0  3  0  0  0  0  0  0
  193.8150  170.2510  145.0680 O   0  0  0  0  0  0  0  0  0  0  0  0
  194.9830  170.4680  145.8000 C   0  0  0  0  0  1  0  0  0  0  0  0
  185.1720  179.4410  145.4100 O   0  0  0  0  0  0  0  0  0  0  0  0
  184.1480  178.6040  145.8510 C   0  0  0  0  0  1  0  0  0  0  0  0
  1 35  1  0  0  0  0
  2 40  1  6  0  0  0
  3 28  1  0  0  0  0
  4 29  1  0  0  0  0
  4 33  1  0  0  0  0
  5 17  1  1  0  0  0
  5 28  1  0  0  0  0
  6  2  1  0  0  0  0
  7 14  1  6  0  0  0
  7 18  1  0  0  0  0
  7 31  1  0  0  0  0
  8 30  1  0  0  0  0
  9 19  1  0  0  0  0
  9 24  1  0  0  0  0
 10  1  1  0  0  0  0
 10 14  2  0  0  0  0
 11 33  1  6  0  0  0
 11 17  1  0  0  0  0
 12 42  1  1  0  0  0
 12 34  1  0  0  0  0
 13 27  1  1  0  0  0
 13 11  1  0  0  0  0
 13 36  1  0  0  0  0
 15  3  2  0  0  0  0
 16 12  1  0  0  0  0
 18 21  1  0  0  0  0
 19 25  2  0  0  0  0
 20 31  1  0  0  0  0
 21 24  2  0  0  0  0
 22 32  1  6  0  0  0
 22  6  1  0  0  0  0
 23 27  1  1  0  0  0
 23  2  1  0  0  0  0
 25 16  1  0  0  0  0
 26  1  2  0  0  0  0
 29 20  1  6  0  0  0
 29 22  1  0  0  0  0
 29 23  1  0  0  0  0
 30  9  2  0  0  0  0
 34 15  1  0  0  0  0
 35 30  1  0  0  0  0
 35 18  2  0  0  0  0
 36  5  1  0  0  0  0
 37 39  1  0  0  0  0
 37 38  1  0  0  0  0
 39 38  1  0  0  0  0
 39 22  1  0  0  0  0
 40 41  1  0  0  0  0
 42 43  1  0  0  0  0
M  END
>  <MODEL>
2

>  <REMARK>
 VINA RESULT:      -8.6      1.612      1.812
  Name = 
  3 active torsions:
  status: ('A' for Active; 'I' for Inactive)
    1  A    between atoms: O_1  and  C_3
    2  A    between atoms: C_15  and  O_25
    3  A    between atoms: C_26  and  C_41
                            x       y       z     vdW  Elec       q    Type
                         _______ _______ _______ _____ _____    ______ ____

>  <TORSDO>
F 3

$$$$
=
 OpenBabel11062418473D

 43 49  0  0  1  0  0  0  0  0999 V2000
  192.0660  171.2250  141.3970 C   0  0  0  0  0  0  0  0  0  0  0  0
  188.4890  177.1230  145.8880 C   0  0  1  0  0  3  0  0  0  0  0  0
  185.8420  177.0840  139.0010 C   0  0  0  0  0  3  0  0  0  0  0  0
  190.5660  175.8410  143.6580 C   0  0  0  0  0  2  0  0  0  0  0  0
  187.4140  177.0990  140.9150 C   0  0  2  0  0  3  0  0  0  0  0  0
  189.8050  177.5700  146.1540 O   0  0  0  0  0  0  0  0  0  0  0  0
  190.4730  172.4200  143.3540 C   0  0  1  0  0  3  0  0  0  0  0  0
  191.4650  171.7380  138.5690 N   0  0  0  0  0  1  0  0  0  0  0  0
  189.6270  173.1800  139.2870 C   0  0  0  0  0  0  0  0  0  0  0  0
  192.2960  171.0150  142.7190 N   0  0  0  0  0  0  0  0  0  0  0  0
  188.6780  177.4140  142.8930 C   0  0  2  0  0  3  0  0  0  0  0  0
  187.4520  175.9260  135.8610 C   0  0  2  0  0  3  0  0  0  0  0  0
  187.9620  176.0900  142.7860 C   0  0  1  0  0  3  0  0  0  0  0  0
  191.5350  171.5810  143.6890 C   0  0  0  0  0  3  0  0  0  0  0  0
  186.6530  176.9400  137.9550 C   0  0  0  0  0  3  0  0  0  0  0  0
  188.1440  174.7340  136.2340 O   0  0  0  0  0  0  0  0  0  0  0  0
  188.3820  178.0640  141.5750 C   0  0  0  0  0  2  0  0  0  0  0  0
  190.1980  172.6580  141.9960 C   0  0  0  0  0  0  0  0  0  0  0  0
  189.2980  173.4700  137.8790 C   0  0  0  0  0  3  0  0  0  0  0  0
  190.4080  173.9920  145.3030 C   0  0  0  0  0  2  0  0  0  0  0  0
  189.1320  173.4830  141.6380 C   0  0  0  0  0  3  0  0  0  0  0  0
  190.6370  176.4310  146.1530 C   0  0  1  0  0  0  0  0  0  0  0  0
  188.5460  175.7270  145.2940 C   0  0  1  0  0  3  0  0  0  0  0  0
  188.8530  173.7460  140.3040 C   0  0  0  0  0  3  0  0  0  0  0  0
  188.5170  174.4940  137.5520 C   0  0  0  0  0  3  0  0  0  0  0  0
  192.8170  170.6620  140.5580 O   0  0  0  0  0  0  0  0  0  0  0  0
  187.5320  175.5300  144.1420 C   0  0  0  0  0  2  0  0  0  0  0  0
  186.3000  177.8500  140.2030 C   0  0  0  0  0  2  0  0  0  0  0  0
  190.0390  175.4690  145.0740 C   0  0  1  0  0  0  0  0  0  0  0  0
  190.6940  172.3220  139.6200 C   0  0  0  0  0  0  0  0  0  0  0  0
  189.6230  173.0020  144.4460 C   0  0  0  0  0  2  0  0  0  0  0  0
  191.9280  176.8240  145.7850 O   0  0  0  0  0  1  0  0  0  0  0  0
  190.1830  177.2280  143.1080 C   0  0  0  0  0  2  0  0  0  0  0  0
  186.2330  176.1720  136.7460 C   0  0  0  0  0  2  0  0  0  0  0  0
  190.9980  172.0610  140.9860 C   0  0  0  0  0  0  0  0  0  0  0  0
  186.8900  176.2480  141.9040 O   0  0  0  0  0  0  0  0  0  0  0  0
  191.9560  175.5170  148.0150 O   0  0  0  0  0  0  0  0  0  0  0  0
  191.5590  176.7470  148.3890 O   0  0  0  0  0  0  0  0  0  0  0  0
  190.7110  175.9670  147.6370 C   0  0  0  0  0  3  0  0  0  0  0  0
  187.7410  177.1110  147.0660 O   0  0  0  0  0  0  0  0  0  0  0  0
  186.6540  177.9460  146.8040 C   0  0  0  0  0  1  0  0  0  0  0  0
  187.0510  175.8290  134.5290 O   0  0  0  0  0  0  0  0  0  0  0  0
  185.7480  176.3270  134.5130 C   0  0  0  0  0  1  0  0  0  0  0  0
  1 10  1  0  0  0  0
  2  6  1  0  0  0  0
  2 40  1  1  0  0  0
  3 28  1  0  0  0  0
  5 28  1  1  0  0  0
  5 17  1  0  0  0  0
  5 36  1  0  0  0  0
  7 14  1  6  0  0  0
  7 31  1  0  0  0  0
  8 30  1  0  0  0  0
  9 30  2  0  0  0  0
  9 24  1  0  0  0  0
 10 14  2  0  0  0  0
 11 17  1  6  0  0  0
 11 33  1  0  0  0  0
 12 42  1  6  0  0  0
 12 16  1  0  0  0  0
 12 34  1  0  0  0  0
 13 11  1  0  0  0  0
 13 27  1  1  0  0  0
 15  3  2  0  0  0  0
 16 25  1  0  0  0  0
 18  7  1  0  0  0  0
 19  9  1  0  0  0  0
 21 18  1  0  0  0  0
 22 32  1  6  0  0  0
 22  6  1  0  0  0  0
 22 39  1  0  0  0  0
 23 27  1  6  0  0  0
 23  2  1  0  0  0  0
 24 21  2  0  0  0  0
 25 19  2  0  0  0  0
 26  1  2  0  0  0  0
 29  4  1  6  0  0  0
 29 23  1  0  0  0  0
 29 20  1  0  0  0  0
 29 22  1  0  0  0  0
 30 35  1  0  0  0  0
 31 20  1  0  0  0  0
 33  4  1  0  0  0  0
 34 15  1  0  0  0  0
 35  1  1  0  0  0  0
 35 18  2  0  0  0  0
 36 13  1  0  0  0  0
 37 38  1  0  0  0  0
 39 37  1  0  0  0  0
 39 38  1  0  0  0  0
 41 40  1  0  0  0  0
 43 42  1  0  0  0  0
M  END
>  <MODEL>
3

>  <REMARK>
 VINA RESULT:      -8.3      3.067      6.629
  Name = 
  3 active torsions:
  status: ('A' for Active; 'I' for Inactive)
    1  A    between atoms: O_1  and  C_3
    2  A    between atoms: C_15  and  O_25
    3  A    between atoms: C_26  and  C_41
                            x       y       z     vdW  Elec       q    Type
                         _______ _______ _______ _____ _____    ______ ____

>  <TORSDO>
F 3

$$$$
=
 OpenBabel11062418473D

 43 49  0  0  1  0  0  0  0  0999 V2000
  195.5930  174.3650  144.6900 C   0  0  0  0  0  0  0  0  0  0  0  0
  190.5240  171.4360  138.9030 C   0  0  1  0  0  3  0  0  0  0  0  0
  187.0960  176.4140  143.1340 C   0  0  0  0  0  3  0  0  0  0  0  0
  191.8240  171.7510  141.9270 C   0  0  0  0  0  2  0  0  0  0  0  0
  188.4340  174.4540  142.4250 C   0  0  2  0  0  3  0  0  0  0  0  0
  190.8540  170.1580  139.4130 O   0  0  0  0  0  0  0  0  0  0  0  0
  194.5020  173.8920  142.1640 C   0  0  1  0  0  3  0  0  0  0  0  0
  193.9740  175.7760  146.6940 N   0  0  0  0  0  1  0  0  0  0  0  0
  192.1650  175.8950  145.0550 C   0  0  0  0  0  0  0  0  0  0  0  0
  196.3010  173.7240  143.7240 N   0  0  0  0  0  0  0  0  0  0  0  0
  189.4020  172.5060  141.4890 C   0  0  2  0  0  3  0  0  0  0  0  0
  187.7810  177.3950  146.6510 C   0  0  2  0  0  3  0  0  0  0  0  0
  190.1260  173.7960  141.1910 C   0  0  1  0  0  3  0  0  0  0  0  0
  195.7950  173.4850  142.4880 C   0  0  0  0  0  3  0  0  0  0  0  0
  187.2520  176.4160  144.4570 C   0  0  0  0  0  3  0  0  0  0  0  0
  189.2060  177.4250  146.7410 O   0  0  0  0  0  0  0  0  0  0  0  0
  188.3020  172.9420  142.4100 C   0  0  0  0  0  2  0  0  0  0  0  0
  193.7380  174.5640  143.1340 C   0  0  0  0  0  0  0  0  0  0  0  0
  191.3170  176.5980  146.0360 C   0  0  0  0  0  3  0  0  0  0  0  0
  193.8060  172.1580  140.4950 C   0  0  0  0  0  2  0  0  0  0  0  0
  192.4470  174.9930  142.8260 C   0  0  0  0  0  3  0  0  0  0  0  0
  192.1790  170.2320  139.8920 C   0  0  1  0  0  0  0  0  0  0  0  0
  191.5100  172.4580  139.4430 C   0  0  1  0  0  3  0  0  0  0  0  0
  191.6680  175.6420  143.7730 C   0  0  0  0  0  3  0  0  0  0  0  0
  190.0040  176.7040  145.8590 C   0  0  0  0  0  3  0  0  0  0  0  0
  196.1330  174.5510  145.8120 O   0  0  0  0  0  0  0  0  0  0  0  0
  190.8270  173.7910  139.8330 C   0  0  0  0  0  2  0  0  0  0  0  0
  187.0660  175.1180  142.3860 C   0  0  0  0  0  2  0  0  0  0  0  0
  192.3450  171.6790  140.4630 C   0  0  1  0  0  0  0  0  0  0  0  0
  193.4750  175.4960  145.3850 C   0  0  0  0  0  0  0  0  0  0  0  0
  193.9800  173.6480  140.7770 C   0  0  0  0  0  2  0  0  0  0  0  0
  192.3350  169.2900  140.9140 O   0  0  0  0  0  1  0  0  0  0  0  0
  190.3250  171.4800  142.1540 C   0  0  0  0  0  2  0  0  0  0  0  0
  187.2980  177.6900  145.2330 C   0  0  0  0  0  2  0  0  0  0  0  0
  194.2740  174.8140  144.4250 C   0  0  0  0  0  0  0  0  0  0  0  0
  189.2120  174.8450  141.3220 O   0  0  0  0  0  0  0  0  0  0  0  0
  193.7350  168.5830  138.9440 O   0  0  0  0  0  0  0  0  0  0  0  0
  192.6450  168.5830  138.1560 O   0  0  0  0  0  0  0  0  0  0  0  0
  193.0770  169.7680  138.7080 C   0  0  0  0  0  3  0  0  0  0  0  0
  190.5690  171.4200  137.5090 O   0  0  0  0  0  0  0  0  0  0  0  0
  189.6910  170.4010  137.1380 C   0  0  0  0  0  1  0  0  0  0  0  0
  187.2430  178.3320  147.5320 O   0  0  0  0  0  0  0  0  0  0  0  0
  185.8960  177.9880  147.6380 C   0  0  0  0  0  1  0  0  0  0  0  0
  1 26  2  0  0  0  0
  2 40  1  6  0  0  0
  2  6  1  0  0  0  0
  2 23  1  0  0  0  0
  3 15  2  0  0  0  0
  4 33  1  0  0  0  0
  5 28  1  6  0  0  0
  6 22  1  0  0  0  0
  7 31  1  6  0  0  0
  7 14  1  0  0  0  0
  7 18  1  0  0  0  0
  9 30  1  0  0  0  0
  9 19  1  0  0  0  0
 10  1  1  0  0  0  0
 11 33  1  1  0  0  0
 11 17  1  0  0  0  0
 12 16  1  0  0  0  0
 12 42  1  1  0  0  0
 13 27  1  6  0  0  0
 13 36  1  0  0  0  0
 13 11  1  0  0  0  0
 14 10  2  0  0  0  0
 15 34  1  0  0  0  0
 17  5  1  0  0  0  0
 18 35  1  0  0  0  0
 20 31  1  0  0  0  0
 21 18  2  0  0  0  0
 21 24  1  0  0  0  0
 22 29  1  0  0  0  0
 22 32  1  1  0  0  0
 23 27  1  1  0  0  0
 23 29  1  0  0  0  0
 24  9  2  0  0  0  0
 25 19  2  0  0  0  0
 25 16  1  0  0  0  0
 28  3  1  0  0  0  0
 29 20  1  6  0  0  0
 29  4  1  0  0  0  0
 30  8  1  0  0  0  0
 34 12  1  0  0  0  0
 35  1  1  0  0  0  0
 35 30  2  0  0  0  0
 36  5  1  0  0  0  0
 38 39  1  0  0  0  0
 38 37  1  0  0  0  0
 39 37  1  0  0  0  0
 39 22  1  0  0  0  0
 41 40  1  0  0  0  0
 42 43  1  0  0  0  0
M  END
>  <MODEL>
4

>  <REMARK>
 VINA RESULT:      -7.8      3.121      5.973
  Name = 
  3 active torsions:
  status: ('A' for Active; 'I' for Inactive)
    1  A    between atoms: O_1  and  C_3
    2  A    between atoms: C_15  and  O_25
    3  A    between atoms: C_26  and  C_41
                            x       y       z     vdW  Elec       q    Type
                         _______ _______ _______ _____ _____    ______ ____

>  <TORSDO>
F 3

$$$$
=
 OpenBabel11062418473D

 43 49  0  0  1  0  0  0  0  0999 V2000
  190.2070  173.4710  138.7630 C   0  0  0  0  0  0  0  0  0  0  0  0
  196.3680  174.4220  144.1380 C   0  0  1  0  0  3  0  0  0  0  0  0
  189.8900  176.1360  147.2250 C   0  0  0  0  0  3  0  0  0  0  0  0
  194.0550  175.3620  141.9710 C   0  0  0  0  0  2  0  0  0  0  0  0
  191.7870  176.0520  145.6350 C   0  0  2  0  0  3  0  0  0  0  0  0
  196.9490  175.2640  143.1610 O   0  0  0  0  0  0  0  0  0  0  0  0
  192.2930  172.8070  140.4950 C   0  0  1  0  0  3  0  0  0  0  0  0
  187.8310  174.8100  139.8500 N   0  0  0  0  0  1  0  0  0  0  0  0
  188.8880  174.7580  142.0530 C   0  0  0  0  0  0  0  0  0  0  0  0
  191.3260  172.8440  138.3130 N   0  0  0  0  0  0  0  0  0  0  0  0
  193.8360  176.0290  144.4470 C   0  0  2  0  0  3  0  0  0  0  0  0
  186.7630  177.3480  145.6280 C   0  0  2  0  0  3  0  0  0  0  0  0
  193.0870  174.7190  144.4720 C   0  0  1  0  0  3  0  0  0  0  0  0
  192.3520  172.5080  139.1350 C   0  0  0  0  0  3  0  0  0  0  0  0
  188.9830  176.8550  146.5650 C   0  0  0  0  0  3  0  0  0  0  0  0
  186.6600  176.5880  144.4240 O   0  0  0  0  0  0  0  0  0  0  0  0
  192.9040  176.9630  145.1590 C   0  0  0  0  0  2  0  0  0  0  0  0
  191.1510  173.4500  141.0010 C   0  0  0  0  0  0  0  0  0  0  0  0
  187.7160  175.4380  142.6360 C   0  0  0  0  0  3  0  0  0  0  0  0
  194.7090  173.1490  141.0640 C   0  0  0  0  0  2  0  0  0  0  0  0
  191.0650  173.7460  142.3620 C   0  0  0  0  0  3  0  0  0  0  0  0
  196.5500  174.7720  141.9000 C   0  0  1  0  0  0  0  0  0  0  0  0
  195.2400  173.6270  143.5050 C   0  0  1  0  0  3  0  0  0  0  0  0
  189.9550  174.3960  142.8800 C   0  0  0  0  0  3  0  0  0  0  0  0
  187.7780  176.0070  143.8350 C   0  0  0  0  0  3  0  0  0  0  0  0
  189.2990  173.7490  137.9370 O   0  0  0  0  0  0  0  0  0  0  0  0
  194.0090  173.5010  144.4350 C   0  0  0  0  0  2  0  0  0  0  0  0
  191.3480  176.4220  147.0430 C   0  0  0  0  0  2  0  0  0  0  0  0
  195.1010  174.2170  142.1000 C   0  0  1  0  0  0  0  0  0  0  0  0
  188.9360  174.4480  140.6800 C   0  0  0  0  0  0  0  0  0  0  0  0
  193.4260  172.3890  141.3890 C   0  0  0  0  0  2  0  0  0  0  0  0
  196.5370  175.8360  140.9920 O   0  0  0  0  0  1  0  0  0  0  0  0
  194.1190  176.4930  143.0150 C   0  0  0  0  0  2  0  0  0  0  0  0
  187.5220  176.5880  146.7130 C   0  0  0  0  0  2  0  0  0  0  0  0
  190.0790  173.7970  140.1360 C   0  0  0  0  0  0  0  0  0  0  0  0
  192.2440  174.7240  145.5870 O   0  0  0  0  0  0  0  0  0  0  0  0
  197.2420  172.7420  140.7000 O   0  0  0  0  0  0  0  0  0  0  0  0
  197.8390  173.7780  140.0840 O   0  0  0  0  0  0  0  0  0  0  0  0
  197.6860  173.8070  141.4510 C   0  0  0  0  0  3  0  0  0  0  0  0
  197.3320  173.5550  144.6560 O   0  0  0  0  0  0  0  0  0  0  0  0
  196.8090  173.1340  145.8790 C   0  0  0  0  0  1  0  0  0  0  0  0
  185.4830  177.6620  146.0870 O   0  0  0  0  0  0  0  0  0  0  0  0
  184.8270  178.1910  144.9750 C   0  0  0  0  0  1  0  0  0  0  0  0
  1 35  1  0  0  0  0
  2 40  1  6  0  0  0
  4 29  1  0  0  0  0
  4 33  1  0  0  0  0
  5 17  1  1  0  0  0
  5 28  1  0  0  0  0
  6  2  1  0  0  0  0
  7 14  1  1  0  0  0
  7 18  1  0  0  0  0
  7 31  1  0  0  0  0
  8 30  1  0  0  0  0
  9 19  1  0  0  0  0
  9 24  1  0  0  0  0
 10  1  1  0  0  0  0
 10 14  2  0  0  0  0
 11 33  1  6  0  0  0
 11 13  1  0  0  0  0
 11 17  1  0  0  0  0
 12 42  1  1  0  0  0
 12 34  1  0  0  0  0
 13 27  1  1  0  0  0
 13 36  1  0  0  0  0
 15 34  1  0  0  0  0
 15  3  2  0  0  0  0
 16 12  1  0  0  0  0
 18 21  1  0  0  0  0
 19 25  2  0  0  0  0
 20 31  1  0  0  0  0
 21 24  2  0  0  0  0
 22 32  1  6  0  0  0
 22 29  1  0  0  0  0
 22  6  1  0  0  0  0
 23  2  1  0  0  0  0
 23 27  1  1  0  0  0
 25 16  1  0  0  0  0
 26  1  2  0  0  0  0
 28  3  1  0  0  0  0
 29 20  1  6  0  0  0
 29 23  1  0  0  0  0
 30  9  2  0  0  0  0
 35 30  1  0  0  0  0
 35 18  2  0  0  0  0
 36  5  1  0  0  0  0
 37 39  1  0  0  0  0
 38 37  1  0  0  0  0
 38 39  1  0  0  0  0
 39 22  1  0  0  0  0
 40 41  1  0  0  0  0
 43 42  1  0  0  0  0
M  END
>  <MODEL>
5

>  <REMARK>
 VINA RESULT:      -7.2      1.127      1.329
  Name = 
  3 active torsions:
  status: ('A' for Active; 'I' for Inactive)
    1  A    between atoms: O_1  and  C_3
    2  A    between atoms: C_15  and  O_25
    3  A    between atoms: C_26  and  C_41
                            x       y       z     vdW  Elec       q    Type
                         _______ _______ _______ _____ _____    ______ ____

>  <TORSDO>
F 3

$$$$
=
 OpenBabel11062418473D

 43 49  0  0  1  0  0  0  0  0999 V2000
  196.5930  172.5420  142.6690 C   0  0  0  0  0  0  0  0  0  0  0  0
  189.4250  175.2610  145.6660 C   0  0  1  0  0  3  0  0  0  0  0  0
  188.5260  172.2880  138.9740 C   0  0  0  0  0  3  0  0  0  0  0  0
  192.1510  175.3120  143.7960 C   0  0  0  0  0  2  0  0  0  0  0  0
  189.4000  173.6700  140.8340 C   0  0  2  0  0  3  0  0  0  0  0  0
  190.0830  176.5030  145.8220 O   0  0  0  0  0  0  0  0  0  0  0  0
  194.3280  172.7000  144.2940 C   0  0  1  0  0  3  0  0  0  0  0  0
  196.2480  172.0290  139.7990 N   0  0  0  0  0  1  0  0  0  0  0  0
  193.8310  171.9910  140.1620 C   0  0  0  0  0  0  0  0  0  0  0  0
  196.6970  172.7700  144.0050 N   0  0  0  0  0  0  0  0  0  0  0  0
  189.8410  175.0780  142.6860 C   0  0  2  0  0  3  0  0  0  0  0  0
  190.9630  171.9620  136.1890 C   0  0  2  0  0  3  0  0  0  0  0  0
  190.1710  173.6200  142.8880 C   0  0  1  0  0  3  0  0  0  0  0  0
  195.6120  172.8480  144.8160 C   0  0  0  0  0  3  0  0  0  0  0  0
  189.3880  172.5370  137.9900 C   0  0  0  0  0  3  0  0  0  0  0  0
  192.1910  171.6140  136.8290 O   0  0  0  0  0  0  0  0  0  0  0  0
  189.4050  175.1280  141.2520 C   0  0  0  0  0  2  0  0  0  0  0  0
  194.1780  172.4570  142.9180 C   0  0  0  0  0  0  0  0  0  0  0  0
  193.6160  171.7400  138.7240 C   0  0  0  0  0  3  0  0  0  0  0  0
  192.9670  174.1430  145.8250 C   0  0  0  0  0  2  0  0  0  0  0  0
  192.9030  172.2920  142.3770 C   0  0  0  0  0  3  0  0  0  0  0  0
  191.4410  176.2220  146.0860 C   0  0  1  0  0  0  0  0  0  0  0  0
  190.4570  174.1770  145.4120 C   0  0  1  0  0  3  0  0  0  0  0  0
  192.7300  172.0690  141.0190 C   0  0  0  0  0  3  0  0  0  0  0  0
  192.4220  171.9150  138.1680 C   0  0  0  0  0  3  0  0  0  0  0  0
  197.6480  172.4830  141.9850 O   0  0  0  0  0  0  0  0  0  0  0  0
  190.0000  173.1630  144.3360 C   0  0  0  0  0  2  0  0  0  0  0  0
  188.1910  173.3580  139.9650 C   0  0  0  0  0  2  0  0  0  0  0  0
  191.7770  174.9370  145.2590 C   0  0  1  0  0  0  0  0  0  0  0  0
  195.1320  172.1270  140.6850 C   0  0  0  0  0  0  0  0  0  0  0  0
  193.1470  172.7530  145.2210 C   0  0  0  0  0  2  0  0  0  0  0  0
  192.2130  177.2990  145.6380 O   0  0  0  0  0  1  0  0  0  0  0  0
  191.0570  175.9750  142.9390 C   0  0  0  0  0  2  0  0  0  0  0  0
  189.7530  171.4890  136.9920 C   0  0  0  0  0  2  0  0  0  0  0  0
  195.3180  172.3740  142.0750 C   0  0  0  0  0  0  0  0  0  0  0  0
  189.4020  172.8740  141.9920 O   0  0  0  0  0  0  0  0  0  0  0  0
  192.3050  177.2280  148.1550 O   0  0  0  0  0  0  0  0  0  0  0  0
  190.9640  177.2730  148.2350 O   0  0  0  0  0  0  0  0  0  0  0  0
  191.5660  176.1900  147.6380 C   0  0  0  0  0  3  0  0  0  0  0  0
  188.6900  174.9610  146.8130 O   0  0  0  0  0  0  0  0  0  0  0  0
  187.8200  176.0410  146.9690 C   0  0  0  0  0  1  0  0  0  0  0  0
  190.9290  171.3950  134.9160 O   0  0  0  0  0  0  0  0  0  0  0  0
  191.1910  170.0410  135.1230 C   0  0  0  0  0  1  0  0  0  0  0  0
  1 10  1  0  0  0  0
  2  6  1  0  0  0  0
  2 40  1  1  0  0  0
  3 28  1  0  0  0  0
  5 28  1  1  0  0  0
  5 17  1  0  0  0  0
  5 36  1  0  0  0  0
  6 22  1  0  0  0  0
  7 14  1  1  0  0  0
  7 31  1  0  0  0  0
  8 30  1  0  0  0  0
  9 30  2  0  0  0  0
  9 24  1  0  0  0  0
 10 14  2  0  0  0  0
 11 17  1  6  0  0  0
 11 13  1  0  0  0  0
 11 33  1  0  0  0  0
 12 42  1  6  0  0  0
 12 16  1  0  0  0  0
 12 34  1  0  0  0  0
 13 27  1  1  0  0  0
 15  3  2  0  0  0  0
 16 25  1  0  0  0  0
 18  7  1  0  0  0  0
 19  9  1  0  0  0  0
 21 18  1  0  0  0  0
 22 32  1  6  0  0  0
 22 39  1  0  0  0  0
 23 27  1  6  0  0  0
 23  2  1  0  0  0  0
 24 21  2  0  0  0  0
 25 19  2  0  0  0  0
 26  1  2  0  0  0  0
 29  4  1  6  0  0  0
 29 23  1  0  0  0  0
 29 20  1  0  0  0  0
 29 22  1  0  0  0  0
 30 35  1  0  0  0  0
 31 20  1  0  0  0  0
 33  4  1  0  0  0  0
 34 15  1  0  0  0  0
 35  1  1  0  0  0  0
 35 18  2  0  0  0  0
 36 13  1  0  0  0  0
 37 38  1  0  0  0  0
 39 37  1  0  0  0  0
 39 38  1  0  0  0  0
 40 41  1  0  0  0  0
 42 43  1  0  0  0  0
M  END
>  <MODEL>
6

>  <REMARK>
 VINA RESULT:      -6.8      2.759      7.583
  Name = 
  3 active torsions:
  status: ('A' for Active; 'I' for Inactive)
    1  A    between atoms: O_1  and  C_3
    2  A    between atoms: C_15  and  O_25
    3  A    between atoms: C_26  and  C_41
                            x       y       z     vdW  Elec       q    Type
                         _______ _______ _______ _____ _____    ______ ____

>  <TORSDO>
F 3

$$$$
=
 OpenBabel11062418473D

 43 49  0  0  1  0  0  0  0  0999 V2000
  196.5100  175.5020  141.3590 C   0  0  0  0  0  0  0  0  0  0  0  0
  189.6500  174.8330  145.8580 C   0  0  1  0  0  3  0  0  0  0  0  0
  188.5470  172.3730  138.9900 C   0  0  0  0  0  3  0  0  0  0  0  0
  191.6970  176.1430  143.6180 C   0  0  0  0  0  2  0  0  0  0  0  0
  189.2090  173.8140  140.8930 C   0  0  2  0  0  3  0  0  0  0  0  0
  189.8100  176.2150  146.1140 O   0  0  0  0  0  0  0  0  0  0  0  0
  194.7490  174.5900  143.3240 C   0  0  1  0  0  3  0  0  0  0  0  0
  195.7880  175.1580  138.5340 N   0  0  0  0  0  1  0  0  0  0  0  0
  193.6970  174.1210  139.2610 C   0  0  0  0  0  0  0  0  0  0  0  0
  196.7990  175.6290  142.6810 N   0  0  0  0  0  0  0  0  0  0  0  0
  189.4670  175.1060  142.8620 C   0  0  2  0  0  3  0  0  0  0  0  0
  190.2830  173.3080  135.8420 C   0  0  2  0  0  3  0  0  0  0  0  0
  190.3550  173.8900  142.7630 C   0  0  1  0  0  3  0  0  0  0  0  0
  195.9620  175.1910  143.6550 C   0  0  0  0  0  3  0  0  0  0  0  0
  189.0250  173.0360  137.9380 C   0  0  0  0  0  3  0  0  0  0  0  0
  191.6570  173.4250  136.2140 O   0  0  0  0  0  0  0  0  0  0  0  0
  188.7520  175.1070  141.5430 C   0  0  0  0  0  2  0  0  0  0  0  0
  194.4150  174.4330  141.9680 C   0  0  0  0  0  0  0  0  0  0  0  0
  193.2940  173.9380  137.8540 C   0  0  0  0  0  3  0  0  0  0  0  0
  193.3000  175.2190  145.2690 C   0  0  0  0  0  2  0  0  0  0  0  0
  193.2130  173.8210  141.6140 C   0  0  0  0  0  3  0  0  0  0  0  0
  191.1960  176.4780  146.1100 C   0  0  1  0  0  0  0  0  0  0  0  0
  190.9360  174.2810  145.2680 C   0  0  1  0  0  3  0  0  0  0  0  0
  192.8540  173.6720  140.2820 C   0  0  0  0  0  3  0  0  0  0  0  0
  192.0340  173.6690  137.5300 C   0  0  0  0  0  3  0  0  0  0  0  0
  197.3400  175.9330  140.5170 O   0  0  0  0  0  0  0  0  0  0  0  0
  190.6780  173.2720  144.1240 C   0  0  0  0  0  2  0  0  0  0  0  0
  188.0520  173.1240  140.1860 C   0  0  0  0  0  2  0  0  0  0  0  0
  191.8090  175.5180  145.0380 C   0  0  1  0  0  0  0  0  0  0  0  0
  194.9300  174.7200  139.5890 C   0  0  0  0  0  0  0  0  0  0  0  0
  193.8580  174.0790  144.4200 C   0  0  0  0  0  2  0  0  0  0  0  0
  191.3940  177.8110  145.7330 O   0  0  0  0  0  1  0  0  0  0  0  0
  190.2800  176.3870  143.0660 C   0  0  0  0  0  2  0  0  0  0  0  0
  189.5380  172.3180  136.7350 C   0  0  0  0  0  2  0  0  0  0  0  0
  195.2970  174.8920  140.9530 C   0  0  0  0  0  0  0  0  0  0  0  0
  189.7530  172.9830  141.8880 O   0  0  0  0  0  0  0  0  0  0  0  0
  192.3280  177.4600  148.0590 O   0  0  0  0  0  0  0  0  0  0  0  0
  191.0400  177.2890  148.4060 O   0  0  0  0  0  0  0  0  0  0  0  0
  191.6480  176.3580  147.5960 C   0  0  0  0  0  3  0  0  0  0  0  0
  189.3400  174.1600  147.0410 O   0  0  0  0  0  0  0  0  0  0  0  0
  188.3680  174.9510  147.6550 C   0  0  0  0  0  1  0  0  0  0  0  0
  190.1980  172.8940  134.5130 O   0  0  0  0  0  0  0  0  0  0  0  0
  190.0680  171.5070  134.5810 C   0  0  0  0  0  1  0  0  0  0  0  0
  1 10  1  0  0  0  0
  2  6  1  0  0  0  0
  2 40  1  1  0  0  0
  3 28  1  0  0  0  0
  5 28  1  1  0  0  0
  5 17  1  0  0  0  0
  5 36  1  0  0  0  0
  7 14  1  6  0  0  0
  7 31  1  0  0  0  0
  8 30  1  0  0  0  0
  9 30  2  0  0  0  0
  9 24  1  0  0  0  0
 10 14  2  0  0  0  0
 11 17  1  6  0  0  0
 11 33  1  0  0  0  0
 12 42  1  6  0  0  0
 12 16  1  0  0  0  0
 12 34  1  0  0  0  0
 13 11  1  0  0  0  0
 13 27  1  1  0  0  0
 15  3  2  0  0  0  0
 16 25  1  0  0  0  0
 18  7  1  0  0  0  0
 19  9  1  0  0  0  0
 21 18  1  0  0  0  0
 22 32  1  6  0  0  0
 22  6  1  0  0  0  0
 22 39  1  0  0  0  0
 23 27  1  6  0  0  0
 23  2  1  0  0  0  0
 24 21  2  0  0  0  0
 25 19  2  0  0  0  0
 26  1  2  0  0  0  0
 29  4  1  6  0  0  0
 29 23  1  0  0  0  0
 29 20  1  0  0  0  0
 29 22  1  0  0  0  0
 30 35  1  0  0  0  0
 31 20  1  0  0  0  0
 33  4  1  0  0  0  0
 34 15  1  0  0  0  0
 35  1  1  0  0  0  0
 35 18  2  0  0  0  0
 36 13  1  0  0  0  0
 37 38  1  0  0  0  0
 39 37  1  0  0  0  0
 39 38  1  0  0  0  0
 40 41  1  0  0  0  0
 42 43  1  0  0  0  0
M  END
>  <MODEL>
7

>  <REMARK>
 VINA RESULT:      -6.6      3.007      7.297
  Name = 
  3 active torsions:
  status: ('A' for Active; 'I' for Inactive)
    1  A    between atoms: O_1  and  C_3
    2  A    between atoms: C_15  and  O_25
    3  A    between atoms: C_26  and  C_41
                            x       y       z     vdW  Elec       q    Type
                         _______ _______ _______ _____ _____    ______ ____

>  <TORSDO>
F 3

$$$$
=
 OpenBabel11062418473D

 43 49  0  0  1  0  0  0  0  0999 V2000
  187.1590  176.5020  139.9100 C   0  0  0  0  0  0  0  0  0  0  0  0
  193.4630  171.2170  140.2160 C   0  0  1  0  0  3  0  0  0  0  0  0
  192.3000  174.3170  146.8090 C   0  0  0  0  0  3  0  0  0  0  0  0
  191.9750  174.1660  140.0700 C   0  0  0  0  0  2  0  0  0  0  0  0
  192.6680  174.0360  144.3760 C   0  0  2  0  0  3  0  0  0  0  0  0
  194.0070  171.9700  139.1490 O   0  0  0  0  0  0  0  0  0  0  0  0
  188.5450  174.0780  139.8820 C   0  0  1  0  0  3  0  0  0  0  0  0
  187.2280  178.1490  142.3400 N   0  0  0  0  0  1  0  0  0  0  0  0
  188.6680  176.4610  143.3660 C   0  0  0  0  0  0  0  0  0  0  0  0
  187.1530  175.6980  138.8150 N   0  0  0  0  0  0  0  0  0  0  0  0
  193.3270  173.5160  142.1610 C   0  0  2  0  0  3  0  0  0  0  0  0
  190.7800  177.6040  147.6370 C   0  0  2  0  0  3  0  0  0  0  0  0
  191.9680  173.0030  142.5710 C   0  0  1  0  0  3  0  0  0  0  0  0
  187.8150  174.5140  138.7770 C   0  0  0  0  0  3  0  0  0  0  0  0
  192.0460  175.6200  146.9210 C   0  0  0  0  0  3  0  0  0  0  0  0
  189.6900  177.7320  146.7240 O   0  0  0  0  0  0  0  0  0  0  0  0
  193.7640  174.3030  143.3610 C   0  0  0  0  0  2  0  0  0  0  0  0
  188.5710  174.8780  141.0380 C   0  0  0  0  0  0  0  0  0  0  0  0
  188.7340  177.2640  144.6020 C   0  0  0  0  0  3  0  0  0  0  0  0
  190.3770  172.7460  138.8130 C   0  0  0  0  0  2  0  0  0  0  0  0
  189.2820  174.4540  142.1600 C   0  0  0  0  0  3  0  0  0  0  0  0
  192.9210  172.4680  138.3980 C   0  0  1  0  0  0  0  0  0  0  0  0
  192.0000  171.5840  140.3910 C   0  0  1  0  0  3  0  0  0  0  0  0
  189.3360  175.2350  143.3050 C   0  0  0  0  0  3  0  0  0  0  0  0
  189.6610  177.0290  145.5240 C   0  0  0  0  0  3  0  0  0  0  0  0
  186.5180  177.5840  139.8660 O   0  0  0  0  0  0  0  0  0  0  0  0
  191.5900  171.6930  141.8790 C   0  0  0  0  0  2  0  0  0  0  0  0
  193.2530  173.8280  145.7650 C   0  0  0  0  0  2  0  0  0  0  0  0
  191.7850  172.7590  139.4330 C   0  0  1  0  0  0  0  0  0  0  0  0
  187.9200  176.9020  142.2560 C   0  0  0  0  0  0  0  0  0  0  0  0
  189.2370  172.7460  139.8280 C   0  0  0  0  0  2  0  0  0  0  0  0
  193.3200  173.6550  137.7730 O   0  0  0  0  0  1  0  0  0  0  0  0
  193.2470  174.3930  140.9080 C   0  0  0  0  0  2  0  0  0  0  0  0
  191.0920  176.1410  147.9430 C   0  0  0  0  0  2  0  0  0  0  0  0
  187.8730  176.1140  141.0710 C   0  0  0  0  0  0  0  0  0  0  0  0
  191.9450  172.9040  143.9640 O   0  0  0  0  0  0  0  0  0  0  0  0
  192.8650  171.9240  136.0010 O   0  0  0  0  0  0  0  0  0  0  0  0
  193.8230  171.1550  136.5500 O   0  0  0  0  0  0  0  0  0  0  0  0
  192.6800  171.4220  137.2690 C   0  0  0  0  0  3  0  0  0  0  0  0
  193.5840  169.8530  139.9490 O   0  0  0  0  0  0  0  0  0  0  0  0
  194.7200  169.4540  140.6540 C   0  0  0  0  0  1  0  0  0  0  0  0
  190.4720  178.2740  148.8200 O   0  0  0  0  0  0  0  0  0  0  0  0
  191.5670  178.0440  149.6540 C   0  0  0  0  0  1  0  0  0  0  0  0
  1 35  1  0  0  0  0
  2 40  1  6  0  0  0
  2 23  1  0  0  0  0
  3 15  2  0  0  0  0
  4 33  1  0  0  0  0
  5 17  1  6  0  0  0
  5 28  1  0  0  0  0
  6  2  1  0  0  0  0
  7 14  1  1  0  0  0
  7 18  1  0  0  0  0
  9 19  1  0  0  0  0
 10  1  1  0  0  0  0
 11 33  1  6  0  0  0
 11 13  1  0  0  0  0
 11 17  1  0  0  0  0
 12 34  1  0  0  0  0
 12 42  1  1  0  0  0
 13 27  1  6  0  0  0
 13 36  1  0  0  0  0
 14 10  2  0  0  0  0
 15 34  1  0  0  0  0
 16 12  1  0  0  0  0
 18 35  2  0  0  0  0
 18 21  1  0  0  0  0
 19 25  2  0  0  0  0
 20 31  1  0  0  0  0
 21 24  2  0  0  0  0
 22 32  1  6  0  0  0
 22  6  1  0  0  0  0
 22 29  1  0  0  0  0
 23 27  1  1  0  0  0
 24  9  1  0  0  0  0
 25 16  1  0  0  0  0
 26  1  2  0  0  0  0
 28  3  1  0  0  0  0
 29 20  1  6  0  0  0
 29  4  1  0  0  0  0
 29 23  1  0  0  0  0
 30  8  1  0  0  0  0
 30  9  2  0  0  0  0
 31  7  1  0  0  0  0
 35 30  1  0  0  0  0
 36  5  1  0  0  0  0
 37 38  1  0  0  0  0
 37 39  1  0  0  0  0
 38 39  1  0  0  0  0
 39 22  1  0  0  0  0
 40 41  1  0  0  0  0
 42 43  1  0  0  0  0
M  END
>  <MODEL>
8

>  <REMARK>
 VINA RESULT:      -6.6      2.723      4.684
  Name = 
  3 active torsions:
  status: ('A' for Active; 'I' for Inactive)
    1  A    between atoms: O_1  and  C_3
    2  A    between atoms: C_15  and  O_25
    3  A    between atoms: C_26  and  C_41
                            x       y       z     vdW  Elec       q    Type
                         _______ _______ _______ _____ _____    ______ ____

>  <TORSDO>
F 3

$$$$
=
 OpenBabel11062418473D

 43 49  0  0  1  0  0  0  0  0999 V2000
  191.8110  176.3440  146.6660 C   0  0  0  0  0  0  0  0  0  0  0  0
  192.9800  170.4160  141.0760 C   0  0  1  0  0  3  0  0  0  0  0  0
  188.0120  175.3290  138.7070 C   0  0  0  0  0  3  0  0  0  0  0  0
  191.4320  172.0380  143.5060 C   0  0  0  0  0  2  0  0  0  0  0  0
  189.2090  173.7000  140.1380 C   0  0  2  0  0  3  0  0  0  0  0  0
  192.6650  169.5160  142.1220 O   0  0  0  0  0  0  0  0  0  0  0  0
  193.0820  174.7970  144.7200 C   0  0  1  0  0  3  0  0  0  0  0  0
  189.3760  177.8160  145.9420 N   0  0  0  0  0  1  0  0  0  0  0  0
  189.5640  176.8900  143.6880 C   0  0  0  0  0  0  0  0  0  0  0  0
  192.9450  175.6500  146.9460 N   0  0  0  0  0  0  0  0  0  0  0  0
  190.3610  171.9050  141.1690 C   0  0  2  0  0  3  0  0  0  0  0  0
  185.7610  177.5420  140.6670 C   0  0  2  0  0  3  0  0  0  0  0  0
  191.1550  173.1780  141.0090 C   0  0  1  0  0  3  0  0  0  0  0  0
  193.5830  174.8940  146.0170 C   0  0  0  0  0  3  0  0  0  0  0  0
  187.0700  175.8010  139.5220 C   0  0  0  0  0  3  0  0  0  0  0  0
  186.5660  177.9950  141.7550 O   0  0  0  0  0  0  0  0  0  0  0  0
  189.0030  172.2910  140.6610 C   0  0  0  0  0  2  0  0  0  0  0  0
  191.9140  175.5050  144.3880 C   0  0  0  0  0  0  0  0  0  0  0  0
  188.3380  177.6070  143.2870 C   0  0  0  0  0  3  0  0  0  0  0  0
  193.8080  172.4960  144.0450 C   0  0  0  0  0  2  0  0  0  0  0  0
  191.4030  175.4340  143.0920 C   0  0  0  0  0  3  0  0  0  0  0  0
  193.1080  170.1070  143.3240 C   0  0  1  0  0  0  0  0  0  0  0  0
  193.2540  171.7890  141.6650 C   0  0  1  0  0  3  0  0  0  0  0  0
  190.2420  176.1100  142.7470 C   0  0  0  0  0  3  0  0  0  0  0  0
  187.6820  177.2800  142.1790 C   0  0  0  0  0  3  0  0  0  0  0  0
  191.2790  177.0240  147.5820 O   0  0  0  0  0  0  0  0  0  0  0  0
  192.6500  172.9300  140.8120 C   0  0  0  0  0  2  0  0  0  0  0  0
  188.4630  173.9070  138.8290 C   0  0  0  0  0  2  0  0  0  0  0  0
  192.8940  171.6460  143.1460 C   0  0  1  0  0  0  0  0  0  0  0  0
  190.0710  177.0020  144.9970 C   0  0  0  0  0  0  0  0  0  0  0  0
  193.8290  173.9840  143.7020 C   0  0  0  0  0  2  0  0  0  0  0  0
  192.3160  169.6280  144.3730 O   0  0  0  0  0  1  0  0  0  0  0  0
  190.3100  171.4490  142.6300 C   0  0  0  0  0  2  0  0  0  0  0  0
  186.6050  177.2160  139.4360 C   0  0  0  0  0  2  0  0  0  0  0  0
  191.2520  176.2970  145.3640 C   0  0  0  0  0  0  0  0  0  0  0  0
  190.5880  173.9150  139.9660 O   0  0  0  0  0  0  0  0  0  0  0  0
  194.6840  168.8400  144.7220 O   0  0  0  0  0  0  0  0  0  0  0  0
  194.5850  168.1790  143.5550 O   0  0  0  0  0  0  0  0  0  0  0  0
  194.5460  169.5540  143.5550 C   0  0  0  0  0  3  0  0  0  0  0  0
  194.1000  169.9640  140.3780 O   0  0  0  0  0  0  0  0  0  0  0  0
  193.7340  168.7080  139.8950 C   0  0  0  0  0  1  0  0  0  0  0  0
  184.8250  178.5240  140.3440 O   0  0  0  0  0  0  0  0  0  0  0  0
  183.7530  178.2900  141.2050 C   0  0  0  0  0  1  0  0  0  0  0  0
  1 10  1  0  0  0  0
  1 26  2  0  0  0  0
  2 40  1  1  0  0  0
  2 23  1  0  0  0  0
  2  6  1  0  0  0  0
  3 28  1  0  0  0  0
  3 15  2  0  0  0  0
  5 28  1  6  0  0  0
  5 17  1  0  0  0  0
  6 22  1  0  0  0  0
  7 31  1  6  0  0  0
  7 14  1  0  0  0  0
  9 30  1  0  0  0  0
 11 17  1  1  0  0  0
 11 33  1  0  0  0  0
 12 42  1  6  0  0  0
 12 16  1  0  0  0  0
 13 27  1  6  0  0  0
 13 11  1  0  0  0  0
 14 10  2  0  0  0  0
 16 25  1  0  0  0  0
 18  7  1  0  0  0  0
 18 35  1  0  0  0  0
 19  9  1  0  0  0  0
 21 18  2  0  0  0  0
 22 39  1  0  0  0  0
 22 32  1  1  0  0  0
 23 27  1  6  0  0  0
 23 29  1  0  0  0  0
 24 21  1  0  0  0  0
 24  9  2  0  0  0  0
 25 19  2  0  0  0  0
 29 22  1  0  0  0  0
 29  4  1  1  0  0  0
 29 20  1  0  0  0  0
 30 35  2  0  0  0  0
 30  8  1  0  0  0  0
 31 20  1  0  0  0  0
 33  4  1  0  0  0  0
 34 15  1  0  0  0  0
 34 12  1  0  0  0  0
 35  1  1  0  0  0  0
 36  5  1  0  0  0  0
 36 13  1  0  0  0  0
 38 39  1  0  0  0  0
 38 37  1  0  0  0  0
 39 37  1  0  0  0  0
 41 40  1  0  0  0  0
 42 43  1  0  0  0  0
M  END
>  <MODEL>
9

>  <REMARK>
 VINA RESULT:      -6.6      3.275      5.776
  Name = 
  3 active torsions:
  status: ('A' for Active; 'I' for Inactive)
    1  A    between atoms: O_1  and  C_3
    2  A    between atoms: C_15  and  O_25
    3  A    between atoms: C_26  and  C_41
                            x       y       z     vdW  Elec       q    Type
                         _______ _______ _______ _____ _____    ______ ____

>  <TORSDO>
F 3

$$$$
