=
 OpenBabel11062419443D

 30 32  0  0  1  0  0  0  0  0999 V2000
  188.3720  177.2030  145.7100 C   0  0  0  0  0  0  0  0  0  0  0  0
  186.8230  178.7460  148.4630 O   0  0  0  0  0  1  0  0  0  0  0  0
  186.0150  179.0690  146.2840 C   0  0  0  0  0  3  0  0  0  0  0  0
  188.0450  177.6430  144.4860 C   0  0  0  0  0  3  0  0  0  0  0  0
  186.7090  178.1200  144.0530 C   0  0  0  0  0  0  0  0  0  0  0  0
  186.7060  178.3240  147.1470 C   0  0  0  0  0  0  0  0  0  0  0  0
  187.3110  177.0190  146.7500 C   0  0  0  0  0  2  0  0  0  0  0  0
  185.8550  178.7840  144.8450 C   0  0  0  0  0  3  0  0  0  0  0  0
  184.8700  177.9500  142.4300 C   0  0  0  0  0  3  0  0  0  0  0  0
  186.3520  178.0220  142.6040 C   0  0  2  0  0  3  0  0  0  0  0  0
  187.0040  176.8660  142.0030 N   0  0  0  0  0  0  0  0  0  0  0  0
  187.9290  175.1990  140.1960 Cl  0  0  0  0  0  0  0  0  0  0  0  0
  186.2430  177.3620  139.7200 C   0  0  0  0  0  0  0  0  0  0  0  0
  184.3010  177.9390  141.2280 C   0  0  0  0  0  3  0  0  0  0  0  0
  185.0430  177.9260  139.9530 C   0  0  0  0  0  3  0  0  0  0  0  0
  186.9820  176.5720  140.7370 C   0  0  0  0  0  0  0  0  0  0  0  0
  186.5780  176.4870  137.4170 C   0  0  0  0  0  1  0  0  0  0  0  0
  186.8140  177.4440  138.4430 O   0  0  0  0  0  0  0  0  0  0  0  0
  190.5400  176.2500  145.0610 C   0  0  0  0  0  3  0  0  0  0  0  0
  191.9470  174.2750  145.4500 C   0  0  0  0  0  1  0  0  0  0  0  0
  189.7670  176.8000  146.0180 C   0  0  0  0  0  0  0  0  0  0  0  0
  191.6540  176.4340  147.7000 C   0  0  0  0  0  2  0  0  0  0  0  0
  191.9530  175.7880  145.2840 C   0  0  2  0  0  3  0  0  0  0  0  0
  192.5760  176.5120  146.4890 C   0  0  2  0  0  3  0  0  0  0  0  0
  190.3420  177.1450  147.3790 C   0  0  0  0  0  2  0  0  0  0  0  0
  194.0180  176.1080  146.7960 C   0  0  0  0  0  2  0  0  0  0  0  0
  195.6770  173.9270  145.6150 C   0  0  0  0  0  1  0  0  0  0  0  0
  194.8970  176.3480  145.6590 N   0  0  0  0  0  2  0  0  0  0  0  0
  196.4380  175.5890  144.0960 O   0  0  0  0  0  0  0  0  0  0  0  0
  195.6990  175.3180  145.0780 C   0  0  0  0  0  0  0  0  0  0  0  0
  1 21  1  0  0  0  0
  1  7  1  0  0  0  0
  3  6  2  0  0  0  0
  4  1  2  0  0  0  0
  5  4  1  0  0  0  0
  5  8  2  0  0  0  0
  6  2  1  0  0  0  0
  7  6  1  0  0  0  0
  8  3  1  0  0  0  0
  9 10  1  0  0  0  0
 10  5  1  1  0  0  0
 11 10  1  0  0  0  0
 12 16  1  0  0  0  0
 13 15  2  0  0  0  0
 13 16  1  0  0  0  0
 14  9  2  0  0  0  0
 15 14  1  0  0  0  0
 16 11  2  0  0  0  0
 17 18  1  0  0  0  0
 18 13  1  0  0  0  0
 19 23  1  0  0  0  0
 19 21  2  0  0  0  0
 21 25  1  0  0  0  0
 23 20  1  1  0  0  0
 23 24  1  0  0  0  0
 24 26  1  1  0  0  0
 24 22  1  0  0  0  0
 25 22  1  0  0  0  0
 28 26  1  0  0  0  0
 29 30  2  0  0  0  0
 30 27  1  0  0  0  0
 30 28  1  0  0  0  0
M  END
>  <MODEL>
1

>  <REMARK>
 VINA RESULT:      -7.8      0.000      0.000
  Name = 
  5 active torsions:
  status: ('A' for Active; 'I' for Inactive)
    1  A    between atoms: C_5  and  C_7
    2  A    between atoms: O_6  and  C_18
    3  A    between atoms: C_9  and  C_19
    4  A    between atoms: C_10  and  N_21
    5  A    between atoms: C_10  and  C_26
                            x       y       z     vdW  Elec       q    Type
                         _______ _______ _______ _____ _____    ______ ____

>  <TORSDO>
F 5

$$$$
=
 OpenBabel11062419443D

 30 32  0  0  1  0  0  0  0  0999 V2000
  191.4300  176.4120  145.1540 C   0  0  0  0  0  0  0  0  0  0  0  0
  191.4340  176.9240  148.6330 O   0  0  0  0  0  1  0  0  0  0  0  0
  189.5860  177.5360  147.3230 C   0  0  0  0  0  3  0  0  0  0  0  0
  190.4800  177.0280  144.4370 C   0  0  0  0  0  3  0  0  0  0  0  0
  189.0820  177.2810  144.8650 C   0  0  0  0  0  0  0  0  0  0  0  0
  190.6790  176.7890  147.4770 C   0  0  0  0  0  0  0  0  0  0  0  0
  191.0860  175.7720  146.4640 C   0  0  0  0  0  2  0  0  0  0  0  0
  188.7200  177.5480  146.1280 C   0  0  0  0  0  3  0  0  0  0  0  0
  188.6420  177.8190  142.5070 C   0  0  0  0  0  3  0  0  0  0  0  0
  188.0300  177.4310  143.8130 C   0  0  2  0  0  3  0  0  0  0  0  0
  187.0350  178.4080  144.2340 N   0  0  0  0  0  0  0  0  0  0  0  0
  184.8130  179.8060  144.3240 Cl  0  0  0  0  0  0  0  0  0  0  0  0
  185.5640  178.0520  142.2980 C   0  0  0  0  0  0  0  0  0  0  0  0
  187.9210  177.9340  141.3960 C   0  0  0  0  0  3  0  0  0  0  0  0
  186.4560  177.7660  141.3300 C   0  0  0  0  0  3  0  0  0  0  0  0
  185.9380  178.6800  143.5900 C   0  0  0  0  0  0  0  0  0  0  0  0
  183.5100  178.2900  140.9170 C   0  0  0  0  0  1  0  0  0  0  0  0
  184.1990  177.8280  142.0730 O   0  0  0  0  0  0  0  0  0  0  0  0
  193.0170  175.6090  143.4620 C   0  0  0  0  0  3  0  0  0  0  0  0
  194.8230  173.9710  143.1680 C   0  0  0  0  0  1  0  0  0  0  0  0
  192.8070  176.2680  144.6180 C   0  0  0  0  0  0  0  0  0  0  0  0
  195.3330  176.5450  144.8760 C   0  0  0  0  0  2  0  0  0  0  0  0
  194.3750  175.3920  142.8540 C   0  0  2  0  0  3  0  0  0  0  0  0
  195.3700  176.4500  143.3560 C   0  0  2  0  0  3  0  0  0  0  0  0
  193.9410  176.9930  145.3180 C   0  0  0  0  0  2  0  0  0  0  0  0
  196.7840  176.3120  142.7910 C   0  0  0  0  0  2  0  0  0  0  0  0
  197.9410  174.1840  141.0490 C   0  0  0  0  0  1  0  0  0  0  0  0
  196.7960  176.4360  141.3390 N   0  0  0  0  0  2  0  0  0  0  0  0
  197.3250  175.5950  139.2400 O   0  0  0  0  0  0  0  0  0  0  0  0
  197.3440  175.4290  140.4870 C   0  0  0  0  0  0  0  0  0  0  0  0
  1  7  1  0  0  0  0
  3  6  2  0  0  0  0
  4  5  1  0  0  0  0
  4  1  2  0  0  0  0
  5  8  2  0  0  0  0
  6  2  1  0  0  0  0
  7  6  1  0  0  0  0
  8  3  1  0  0  0  0
  9 10  1  0  0  0  0
 10 11  1  0  0  0  0
 10  5  1  1  0  0  0
 13 16  1  0  0  0  0
 14  9  2  0  0  0  0
 15 14  1  0  0  0  0
 15 13  2  0  0  0  0
 16 11  2  0  0  0  0
 16 12  1  0  0  0  0
 17 18  1  0  0  0  0
 18 13  1  0  0  0  0
 19 21  2  0  0  0  0
 21  1  1  0  0  0  0
 21 25  1  0  0  0  0
 22 25  1  0  0  0  0
 23 20  1  1  0  0  0
 23 24  1  0  0  0  0
 23 19  1  0  0  0  0
 24 26  1  1  0  0  0
 24 22  1  0  0  0  0
 28 26  1  0  0  0  0
 29 30  2  0  0  0  0
 30 27  1  0  0  0  0
 30 28  1  0  0  0  0
M  END
>  <MODEL>
2

>  <REMARK>
 VINA RESULT:      -7.7      2.869      4.042
  Name = 
  5 active torsions:
  status: ('A' for Active; 'I' for Inactive)
    1  A    between atoms: C_5  and  C_7
    2  A    between atoms: O_6  and  C_18
    3  A    between atoms: C_9  and  C_19
    4  A    between atoms: C_10  and  N_21
    5  A    between atoms: C_10  and  C_26
                            x       y       z     vdW  Elec       q    Type
                         _______ _______ _______ _____ _____    ______ ____

>  <TORSDO>
F 5

$$$$
=
 OpenBabel11062419443D

 30 32  0  0  1  0  0  0  0  0999 V2000
  190.3420  174.8090  145.4180 C   0  0  0  0  0  0  0  0  0  0  0  0
  191.2480  176.3550  148.4430 O   0  0  0  0  0  1  0  0  0  0  0  0
  189.7890  177.4080  146.9380 C   0  0  0  0  0  3  0  0  0  0  0  0
  189.7410  175.5670  144.4890 C   0  0  0  0  0  3  0  0  0  0  0  0
  188.7880  176.6750  144.7420 C   0  0  0  0  0  0  0  0  0  0  0  0
  190.3380  176.2850  147.3990 C   0  0  0  0  0  0  0  0  0  0  0  0
  189.9600  174.9460  146.8600 C   0  0  0  0  0  2  0  0  0  0  0  0
  188.8560  177.4990  145.7970 C   0  0  0  0  0  3  0  0  0  0  0  0
  188.4890  177.2740  142.3770 C   0  0  0  0  0  3  0  0  0  0  0  0
  187.7970  177.0210  143.6760 C   0  0  2  0  0  3  0  0  0  0  0  0
  187.0080  178.1780  144.0800 N   0  0  0  0  0  0  0  0  0  0  0  0
  185.1030  179.9840  144.1370 Cl  0  0  0  0  0  0  0  0  0  0  0  0
  185.5190  178.1040  142.1280 C   0  0  0  0  0  0  0  0  0  0  0  0
  187.8160  177.5200  141.2560 C   0  0  0  0  0  3  0  0  0  0  0  0
  186.3480  177.6420  141.1730 C   0  0  0  0  0  3  0  0  0  0  0  0
  185.9940  178.6550  143.4220 C   0  0  0  0  0  0  0  0  0  0  0  0
  183.5750  178.2590  140.5850 C   0  0  0  0  0  1  0  0  0  0  0  0
  184.1390  178.1500  141.8870 O   0  0  0  0  0  0  0  0  0  0  0  0
  192.6260  173.9200  145.2910 C   0  0  0  0  0  3  0  0  0  0  0  0
  194.3940  173.4320  143.6580 C   0  0  0  0  0  1  0  0  0  0  0  0
  191.3150  173.7610  145.0230 C   0  0  0  0  0  0  0  0  0  0  0  0
  191.8680  171.5870  143.8010 C   0  0  0  0  0  2  0  0  0  0  0  0
  193.6880  172.9280  144.9090 C   0  0  2  0  0  3  0  0  0  0  0  0
  193.0810  171.5280  144.7210 C   0  0  2  0  0  3  0  0  0  0  0  0
  190.7920  172.4610  144.4430 C   0  0  0  0  0  2  0  0  0  0  0  0
  194.0870  170.4460  144.3300 C   0  0  0  0  0  2  0  0  0  0  0  0
  196.5750  170.9230  145.9070 C   0  0  0  0  0  1  0  0  0  0  0  0
  194.4430  169.6070  145.4670 N   0  0  0  0  0  2  0  0  0  0  0  0
  195.8810  169.0600  147.2070 O   0  0  0  0  0  0  0  0  0  0  0  0
  195.6290  169.8180  146.2360 C   0  0  0  0  0  0  0  0  0  0  0  0
  1  7  1  0  0  0  0
  3  6  2  0  0  0  0
  4  5  1  0  0  0  0
  4  1  2  0  0  0  0
  5  8  2  0  0  0  0
  6  2  1  0  0  0  0
  7  6  1  0  0  0  0
  8  3  1  0  0  0  0
  9 10  1  0  0  0  0
 10 11  1  0  0  0  0
 10  5  1  1  0  0  0
 13 16  1  0  0  0  0
 14  9  2  0  0  0  0
 15 14  1  0  0  0  0
 15 13  2  0  0  0  0
 16 11  2  0  0  0  0
 16 12  1  0  0  0  0
 17 18  1  0  0  0  0
 18 13  1  0  0  0  0
 21 19  2  0  0  0  0
 21  1  1  0  0  0  0
 22 25  1  0  0  0  0
 22 24  1  0  0  0  0
 23 20  1  6  0  0  0
 23 19  1  0  0  0  0
 24 26  1  6  0  0  0
 24 23  1  0  0  0  0
 25 21  1  0  0  0  0
 26 28  1  0  0  0  0
 27 30  1  0  0  0  0
 28 30  1  0  0  0  0
 30 29  2  0  0  0  0
M  END
>  <MODEL>
3

>  <REMARK>
 VINA RESULT:      -7.5      3.160      4.372
  Name = 
  5 active torsions:
  status: ('A' for Active; 'I' for Inactive)
    1  A    between atoms: C_5  and  C_7
    2  A    between atoms: O_6  and  C_18
    3  A    between atoms: C_9  and  C_19
    4  A    between atoms: C_10  and  N_21
    5  A    between atoms: C_10  and  C_26
                            x       y       z     vdW  Elec       q    Type
                         _______ _______ _______ _____ _____    ______ ____

>  <TORSDO>
F 5

$$$$
=
 OpenBabel11062419443D

 30 32  0  0  1  0  0  0  0  0999 V2000
  187.4500  177.2820  145.1940 C   0  0  0  0  0  0  0  0  0  0  0  0
  186.6370  178.3750  148.4360 O   0  0  0  0  0  1  0  0  0  0  0  0
  185.1520  178.6880  146.6470 C   0  0  0  0  0  3  0  0  0  0  0  0
  186.6980  177.7330  144.1800 C   0  0  0  0  0  3  0  0  0  0  0  0
  185.2400  178.0040  144.2210 C   0  0  0  0  0  0  0  0  0  0  0  0
  186.1750  178.0190  147.1770 C   0  0  0  0  0  0  0  0  0  0  0  0
  186.8040  176.8600  146.4790 C   0  0  0  0  0  2  0  0  0  0  0  0
  184.5920  178.4670  145.2990 C   0  0  0  0  0  3  0  0  0  0  0  0
  185.2810  178.4520  141.8050 C   0  0  0  0  0  3  0  0  0  0  0  0
  184.4650  177.9350  142.9440 C   0  0  2  0  0  3  0  0  0  0  0  0
  183.2180  178.6770  143.0720 N   0  0  0  0  0  0  0  0  0  0  0  0
  180.8010  179.5740  142.5700 Cl  0  0  0  0  0  0  0  0  0  0  0  0
  182.3650  178.0310  140.8610 C   0  0  0  0  0  0  0  0  0  0  0  0
  184.8410  178.4190  140.5500 C   0  0  0  0  0  3  0  0  0  0  0  0
  183.5030  177.9460  140.1460 C   0  0  0  0  0  3  0  0  0  0  0  0
  182.2780  178.7160  142.1750 C   0  0  0  0  0  0  0  0  0  0  0  0
  180.0180  178.3250  140.0930 C   0  0  0  0  0  1  0  0  0  0  0  0
  181.1710  177.5260  140.3280 O   0  0  0  0  0  0  0  0  0  0  0  0
  189.5510  176.1070  145.6760 C   0  0  0  0  0  3  0  0  0  0  0  0
  191.6910  176.4280  146.8360 C   0  0  0  0  0  1  0  0  0  0  0  0
  188.9130  177.1000  145.0260 C   0  0  0  0  0  0  0  0  0  0  0  0
  191.1640  177.9060  144.1270 C   0  0  0  0  0  2  0  0  0  0  0  0
  191.0310  175.8600  145.5880 C   0  0  2  0  0  3  0  0  0  0  0  0
  191.6040  176.4570  144.2930 C   0  0  2  0  0  3  0  0  0  0  0  0
  189.6420  177.9590  144.0100 C   0  0  0  0  0  2  0  0  0  0  0  0
  193.1090  176.2560  144.1120 C   0  0  0  0  0  2  0  0  0  0  0  0
  195.1390  175.1400  145.9940 C   0  0  0  0  0  1  0  0  0  0  0  0
  193.4650  174.8430  144.1020 N   0  0  0  0  0  2  0  0  0  0  0  0
  194.6950  173.0590  144.9370 O   0  0  0  0  0  0  0  0  0  0  0  0
  194.4330  174.2880  144.9950 C   0  0  0  0  0  0  0  0  0  0  0  0
  1  7  1  0  0  0  0
  3  6  2  0  0  0  0
  4  5  1  0  0  0  0
  4  1  2  0  0  0  0
  5  8  2  0  0  0  0
  6  2  1  0  0  0  0
  7  6  1  0  0  0  0
  8  3  1  0  0  0  0
  9 10  1  0  0  0  0
 10 11  1  0  0  0  0
 10  5  1  1  0  0  0
 13 16  1  0  0  0  0
 14  9  2  0  0  0  0
 15 14  1  0  0  0  0
 15 13  2  0  0  0  0
 16 12  1  0  0  0  0
 16 11  2  0  0  0  0
 17 18  1  0  0  0  0
 18 13  1  0  0  0  0
 21  1  1  0  0  0  0
 21 19  2  0  0  0  0
 22 24  1  0  0  0  0
 23 19  1  0  0  0  0
 23 20  1  1  0  0  0
 24 26  1  1  0  0  0
 24 23  1  0  0  0  0
 25 22  1  0  0  0  0
 25 21  1  0  0  0  0
 28 26  1  0  0  0  0
 28 30  1  0  0  0  0
 29 30  2  0  0  0  0
 30 27  1  0  0  0  0
M  END
>  <MODEL>
4

>  <REMARK>
 VINA RESULT:      -7.5      2.604      3.264
  Name = 
  5 active torsions:
  status: ('A' for Active; 'I' for Inactive)
    1  A    between atoms: C_5  and  C_7
    2  A    between atoms: O_6  and  C_18
    3  A    between atoms: C_9  and  C_19
    4  A    between atoms: C_10  and  N_21
    5  A    between atoms: C_10  and  C_26
                            x       y       z     vdW  Elec       q    Type
                         _______ _______ _______ _____ _____    ______ ____

>  <TORSDO>
F 5

$$$$
=
 OpenBabel11062419443D

 30 32  0  0  1  0  0  0  0  0999 V2000
  191.6070  176.0880  146.2670 C   0  0  0  0  0  0  0  0  0  0  0  0
  191.5650  177.4150  149.5220 O   0  0  0  0  0  1  0  0  0  0  0  0
  189.9410  178.0310  147.9440 C   0  0  0  0  0  3  0  0  0  0  0  0
  190.8370  176.6810  145.3440 C   0  0  0  0  0  3  0  0  0  0  0  0
  189.5040  177.2910  145.5730 C   0  0  0  0  0  0  0  0  0  0  0  0
  190.8500  177.1510  148.3630 C   0  0  0  0  0  0  0  0  0  0  0  0
  191.0810  175.8600  147.6510 C   0  0  0  0  0  2  0  0  0  0  0  0
  189.1500  177.9190  146.7030 C   0  0  0  0  0  3  0  0  0  0  0  0
  189.2640  177.8140  143.1840 C   0  0  0  0  0  3  0  0  0  0  0  0
  188.5530  177.3790  144.4230 C   0  0  2  0  0  3  0  0  0  0  0  0
  187.4600  178.2890  144.7440 N   0  0  0  0  0  0  0  0  0  0  0  0
  185.1550  179.5410  144.6160 Cl  0  0  0  0  0  0  0  0  0  0  0  0
  186.2120  177.8500  142.6730 C   0  0  0  0  0  0  0  0  0  0  0  0
  188.6480  177.8880  142.0070 C   0  0  0  0  0  3  0  0  0  0  0  0
  187.2110  177.6280  141.7980 C   0  0  0  0  0  3  0  0  0  0  0  0
  186.4170  178.4930  143.9960 C   0  0  0  0  0  0  0  0  0  0  0  0
  184.1680  178.2430  141.3140 C   0  0  0  0  0  1  0  0  0  0  0  0
  184.8930  177.5410  142.3160 O   0  0  0  0  0  0  0  0  0  0  0  0
  193.9700  176.4090  145.6800 C   0  0  0  0  0  3  0  0  0  0  0  0
  195.5130  176.1680  143.7850 C   0  0  0  0  0  1  0  0  0  0  0  0
  192.9470  175.5600  145.9050 C   0  0  0  0  0  0  0  0  0  0  0  0
  194.4710  173.6130  145.2660 C   0  0  0  0  0  2  0  0  0  0  0  0
  195.3520  175.9710  145.2860 C   0  0  2  0  0  3  0  0  0  0  0  0
  195.6070  174.5200  145.7220 C   0  0  2  0  0  3  0  0  0  0  0  0
  193.1720  174.0610  145.9330 C   0  0  0  0  0  2  0  0  0  0  0  0
  196.9930  173.9830  145.3640 C   0  0  0  0  0  2  0  0  0  0  0  0
  197.8870  171.8570  143.4700 C   0  0  0  0  0  1  0  0  0  0  0  0
  197.1610  172.5990  145.7920 N   0  0  0  0  0  2  0  0  0  0  0  0
  197.7150  170.3910  145.3330 O   0  0  0  0  0  0  0  0  0  0  0  0
  197.5890  171.5670  144.9020 C   0  0  0  0  0  0  0  0  0  0  0  0
  1  7  1  0  0  0  0
  3  6  2  0  0  0  0
  4  5  1  0  0  0  0
  4  1  2  0  0  0  0
  5  8  2  0  0  0  0
  6  2  1  0  0  0  0
  7  6  1  0  0  0  0
  8  3  1  0  0  0  0
  9 10  1  0  0  0  0
 10 11  1  0  0  0  0
 10  5  1  1  0  0  0
 13 16  1  0  0  0  0
 14  9  2  0  0  0  0
 15 14  1  0  0  0  0
 15 13  2  0  0  0  0
 16 12  1  0  0  0  0
 16 11  2  0  0  0  0
 17 18  1  0  0  0  0
 18 13  1  0  0  0  0
 19 21  2  0  0  0  0
 21 25  1  0  0  0  0
 21  1  1  0  0  0  0
 22 24  1  0  0  0  0
 22 25  1  0  0  0  0
 23 20  1  6  0  0  0
 23 19  1  0  0  0  0
 23 24  1  0  0  0  0
 24 26  1  6  0  0  0
 26 28  1  0  0  0  0
 27 30  1  0  0  0  0
 30 29  2  0  0  0  0
 30 28  1  0  0  0  0
M  END
>  <MODEL>
5

>  <REMARK>
 VINA RESULT:      -7.5      2.651      4.134
  Name = 
  5 active torsions:
  status: ('A' for Active; 'I' for Inactive)
    1  A    between atoms: C_5  and  C_7
    2  A    between atoms: O_6  and  C_18
    3  A    between atoms: C_9  and  C_19
    4  A    between atoms: C_10  and  N_21
    5  A    between atoms: C_10  and  C_26
                            x       y       z     vdW  Elec       q    Type
                         _______ _______ _______ _____ _____    ______ ____

>  <TORSDO>
F 5

$$$$
=
 OpenBabel11062419443D

 30 32  0  0  1  0  0  0  0  0999 V2000
  191.5820  176.1410  146.5430 C   0  0  0  0  0  0  0  0  0  0  0  0
  191.7450  177.8380  149.6180 O   0  0  0  0  0  1  0  0  0  0  0  0
  189.9710  178.2060  148.1270 C   0  0  0  0  0  3  0  0  0  0  0  0
  190.7110  176.5940  145.6290 C   0  0  0  0  0  3  0  0  0  0  0  0
  189.3750  177.1780  145.9020 C   0  0  0  0  0  0  0  0  0  0  0  0
  190.9500  177.4140  148.5630 C   0  0  0  0  0  0  0  0  0  0  0  0
  191.1820  176.0590  147.9840 C   0  0  0  0  0  2  0  0  0  0  0  0
  189.0870  177.9210  146.9800 C   0  0  0  0  0  3  0  0  0  0  0  0
  186.9900  176.8170  145.4340 C   0  0  0  0  0  3  0  0  0  0  0  0
  188.3300  177.0960  144.8370 C   0  0  2  0  0  3  0  0  0  0  0  0
  188.6880  176.0760  143.8590 N   0  0  0  0  0  0  0  0  0  0  0  0
  188.7020  174.6470  141.6560 Cl  0  0  0  0  0  0  0  0  0  0  0  0
  186.8060  176.5610  142.3560 C   0  0  0  0  0  0  0  0  0  0  0  0
  185.8830  176.7780  144.6970 C   0  0  0  0  0  3  0  0  0  0  0  0
  185.8510  176.9320  143.2300 C   0  0  0  0  0  3  0  0  0  0  0  0
  188.0410  175.8410  142.7570 C   0  0  0  0  0  0  0  0  0  0  0  0
  185.9210  177.9080  140.4630 C   0  0  0  0  0  1  0  0  0  0  0  0
  186.6180  176.7840  140.9850 O   0  0  0  0  0  0  0  0  0  0  0  0
  193.9290  176.4770  145.9070 C   0  0  0  0  0  3  0  0  0  0  0  0
  195.4220  176.3000  143.9660 C   0  0  0  0  0  1  0  0  0  0  0  0
  192.9100  175.6240  146.1290 C   0  0  0  0  0  0  0  0  0  0  0  0
  194.4110  173.6970  145.3830 C   0  0  0  0  0  2  0  0  0  0  0  0
  195.3000  176.0510  145.4630 C   0  0  2  0  0  3  0  0  0  0  0  0
  195.5610  174.5850  145.8410 C   0  0  2  0  0  3  0  0  0  0  0  0
  193.1310  174.1230  146.0990 C   0  0  0  0  0  2  0  0  0  0  0  0
  196.9360  174.0570  145.4290 C   0  0  0  0  0  2  0  0  0  0  0  0
  197.5670  171.8790  143.4900 C   0  0  0  0  0  1  0  0  0  0  0  0
  197.1370  172.6810  145.8650 N   0  0  0  0  0  2  0  0  0  0  0  0
  197.6030  170.4560  145.3920 O   0  0  0  0  0  0  0  0  0  0  0  0
  197.4400  171.6240  144.9540 C   0  0  0  0  0  0  0  0  0  0  0  0
  1  7  1  0  0  0  0
  3  6  2  0  0  0  0
  4  5  1  0  0  0  0
  4  1  2  0  0  0  0
  5  8  2  0  0  0  0
  6  2  1  0  0  0  0
  7  6  1  0  0  0  0
  8  3  1  0  0  0  0
 10  9  1  0  0  0  0
 10  5  1  1  0  0  0
 11 10  1  0  0  0  0
 12 16  1  0  0  0  0
 13 16  1  0  0  0  0
 13 15  2  0  0  0  0
 14  9  2  0  0  0  0
 15 14  1  0  0  0  0
 16 11  2  0  0  0  0
 17 18  1  0  0  0  0
 18 13  1  0  0  0  0
 19 21  2  0  0  0  0
 21  1  1  0  0  0  0
 22 24  1  0  0  0  0
 22 25  1  0  0  0  0
 23 20  1  6  0  0  0
 23 24  1  0  0  0  0
 23 19  1  0  0  0  0
 24 26  1  6  0  0  0
 25 21  1  0  0  0  0
 26 28  1  0  0  0  0
 27 30  1  0  0  0  0
 30 29  2  0  0  0  0
 30 28  1  0  0  0  0
M  END
>  <MODEL>
6

>  <REMARK>
 VINA RESULT:      -7.5      2.218      3.764
  Name = 
  5 active torsions:
  status: ('A' for Active; 'I' for Inactive)
    1  A    between atoms: C_5  and  C_7
    2  A    between atoms: O_6  and  C_18
    3  A    between atoms: C_9  and  C_19
    4  A    between atoms: C_10  and  N_21
    5  A    between atoms: C_10  and  C_26
                            x       y       z     vdW  Elec       q    Type
                         _______ _______ _______ _____ _____    ______ ____

>  <TORSDO>
F 5

$$$$
=
 OpenBabel11062419443D

 30 32  0  0  1  0  0  0  0  0999 V2000
  191.1600  175.7320  145.3390 C   0  0  0  0  0  0  0  0  0  0  0  0
  191.3650  176.7870  148.6870 O   0  0  0  0  0  1  0  0  0  0  0  0
  189.6920  177.6080  147.2620 C   0  0  0  0  0  3  0  0  0  0  0  0
  190.3720  176.4350  144.5140 C   0  0  0  0  0  3  0  0  0  0  0  0
  189.0880  177.0880  144.8690 C   0  0  0  0  0  0  0  0  0  0  0  0
  190.5750  176.6530  147.5550 C   0  0  0  0  0  0  0  0  0  0  0  0
  190.6990  175.4170  146.7290 C   0  0  0  0  0  2  0  0  0  0  0  0
  188.8290  177.6360  146.0640 C   0  0  0  0  0  3  0  0  0  0  0  0
  188.7530  177.7320  142.5210 C   0  0  0  0  0  3  0  0  0  0  0  0
  188.0800  177.3150  143.7870 C   0  0  2  0  0  3  0  0  0  0  0  0
  187.1050  178.3110  144.2120 N   0  0  0  0  0  0  0  0  0  0  0  0
  184.9310  179.7830  144.2800 Cl  0  0  0  0  0  0  0  0  0  0  0  0
  185.6940  178.0830  142.2130 C   0  0  0  0  0  0  0  0  0  0  0  0
  188.0760  177.9150  141.3900 C   0  0  0  0  0  3  0  0  0  0  0  0
  186.6100  177.8030  141.2660 C   0  0  0  0  0  3  0  0  0  0  0  0
  186.0420  178.6460  143.5420 C   0  0  0  0  0  0  0  0  0  0  0  0
  183.7380  178.2850  140.6920 C   0  0  0  0  0  1  0  0  0  0  0  0
  184.3310  177.9170  141.9310 O   0  0  0  0  0  0  0  0  0  0  0  0
  193.2560  174.5080  145.7090 C   0  0  0  0  0  3  0  0  0  0  0  0
  195.6830  174.8700  145.8040 C   0  0  0  0  0  1  0  0  0  0  0  0
  192.4480  175.1730  144.8590 C   0  0  0  0  0  0  0  0  0  0  0  0
  194.2190  174.9190  143.0360 C   0  0  0  0  0  2  0  0  0  0  0  0
  194.5880  173.9290  145.3220 C   0  0  2  0  0  3  0  0  0  0  0  0
  194.6500  173.6770  143.8070 C   0  0  2  0  0  3  0  0  0  0  0  0
  192.7660  175.2430  143.3770 C   0  0  0  0  0  2  0  0  0  0  0  0
  195.9720  173.0860  143.3150 C   0  0  0  0  0  2  0  0  0  0  0  0
  197.1920  171.3860  145.4410 C   0  0  0  0  0  1  0  0  0  0  0  0
  195.9200  171.6310  143.2530 N   0  0  0  0  0  2  0  0  0  0  0  0
  196.4180  169.5480  144.1500 O   0  0  0  0  0  0  0  0  0  0  0  0
  196.4960  170.7990  144.2600 C   0  0  0  0  0  0  0  0  0  0  0  0
  1  7  1  0  0  0  0
  3  6  2  0  0  0  0
  4  5  1  0  0  0  0
  4  1  2  0  0  0  0
  5  8  2  0  0  0  0
  6  2  1  0  0  0  0
  7  6  1  0  0  0  0
  8  3  1  0  0  0  0
  9 10  1  0  0  0  0
 10 11  1  0  0  0  0
 10  5  1  1  0  0  0
 13 16  1  0  0  0  0
 14  9  2  0  0  0  0
 15 14  1  0  0  0  0
 15 13  2  0  0  0  0
 16 11  2  0  0  0  0
 16 12  1  0  0  0  0
 17 18  1  0  0  0  0
 18 13  1  0  0  0  0
 21  1  1  0  0  0  0
 21 19  2  0  0  0  0
 22 25  1  0  0  0  0
 22 24  1  0  0  0  0
 23 19  1  0  0  0  0
 23 20  1  6  0  0  0
 24 26  1  6  0  0  0
 24 23  1  0  0  0  0
 25 21  1  0  0  0  0
 28 26  1  0  0  0  0
 28 30  1  0  0  0  0
 29 30  2  0  0  0  0
 30 27  1  0  0  0  0
M  END
>  <MODEL>
7

>  <REMARK>
 VINA RESULT:      -7.3      2.762      4.105
  Name = 
  5 active torsions:
  status: ('A' for Active; 'I' for Inactive)
    1  A    between atoms: C_5  and  C_7
    2  A    between atoms: O_6  and  C_18
    3  A    between atoms: C_9  and  C_19
    4  A    between atoms: C_10  and  N_21
    5  A    between atoms: C_10  and  C_26
                            x       y       z     vdW  Elec       q    Type
                         _______ _______ _______ _____ _____    ______ ____

>  <TORSDO>
F 5

$$$$
=
 OpenBabel11062419443D

 30 32  0  0  1  0  0  0  0  0999 V2000
  189.1960  174.4850  142.6460 C   0  0  0  0  0  0  0  0  0  0  0  0
  188.1740  172.6730  139.8110 O   0  0  0  0  0  1  0  0  0  0  0  0
  190.3770  172.5320  140.6060 C   0  0  0  0  0  3  0  0  0  0  0  0
  190.5130  174.5820  142.8800 C   0  0  0  0  0  3  0  0  0  0  0  0
  191.5310  173.5380  142.6110 C   0  0  0  0  0  0  0  0  0  0  0  0
  189.0930  172.8010  140.8430 C   0  0  0  0  0  0  0  0  0  0  0  0
  188.6060  173.1830  142.2000 C   0  0  0  0  0  2  0  0  0  0  0  0
  191.4750  172.6810  141.5810 C   0  0  0  0  0  3  0  0  0  0  0  0
  192.7730  172.4470  144.4310 C   0  0  0  0  0  3  0  0  0  0  0  0
  192.7900  173.5450  143.4180 C   0  0  2  0  0  3  0  0  0  0  0  0
  192.9690  174.8420  144.0580 N   0  0  0  0  0  0  0  0  0  0  0  0
  194.0890  176.8490  145.3290 Cl  0  0  0  0  0  0  0  0  0  0  0  0
  195.1790  174.3100  144.9890 C   0  0  0  0  0  0  0  0  0  0  0  0
  193.8160  172.1960  145.2160 C   0  0  0  0  0  3  0  0  0  0  0  0
  195.0580  172.9910  145.2350 C   0  0  0  0  0  3  0  0  0  0  0  0
  194.0190  175.2010  144.7350 C   0  0  0  0  0  0  0  0  0  0  0  0
  197.1990  175.2550  143.8890 C   0  0  0  0  0  1  0  0  0  0  0  0
  196.4430  174.9140  145.0450 O   0  0  0  0  0  0  0  0  0  0  0  0
  187.1150  175.7340  142.2760 C   0  0  0  0  0  3  0  0  0  0  0  0
  186.3010  177.8360  141.3020 C   0  0  0  0  0  1  0  0  0  0  0  0
  188.2950  175.6330  142.9190 C   0  0  0  0  0  0  0  0  0  0  0  0
  187.8430  177.8890  144.0270 C   0  0  0  0  0  2  0  0  0  0  0  0
  186.1490  176.8700  142.4680 C   0  0  2  0  0  3  0  0  0  0  0  0
  186.3710  177.5470  143.8300 C   0  0  2  0  0  3  0  0  0  0  0  0
  188.6630  176.6010  144.0280 C   0  0  0  0  0  2  0  0  0  0  0  0
  185.4320  178.7180  144.1180 C   0  0  0  0  0  2  0  0  0  0  0  0
  184.4970  177.8380  146.8110 C   0  0  0  0  0  1  0  0  0  0  0  0
  185.8160  179.4300  145.3300 N   0  0  0  0  0  2  0  0  0  0  0  0
  185.7490  179.6820  147.6370 O   0  0  0  0  0  0  0  0  0  0  0  0
  185.3810  179.0250  146.6290 C   0  0  0  0  0  0  0  0  0  0  0  0
  1  4  2  0  0  0  0
  1 21  1  0  0  0  0
  2  6  1  0  0  0  0
  3  6  2  0  0  0  0
  3  8  1  0  0  0  0
  5  4  1  0  0  0  0
  6  7  1  0  0  0  0
  7  1  1  0  0  0  0
  8  5  2  0  0  0  0
  9 14  2  0  0  0  0
 10  5  1  1  0  0  0
 10 11  1  0  0  0  0
 10  9  1  0  0  0  0
 11 16  2  0  0  0  0
 13 18  1  0  0  0  0
 13 15  2  0  0  0  0
 14 15  1  0  0  0  0
 16 13  1  0  0  0  0
 16 12  1  0  0  0  0
 17 18  1  0  0  0  0
 19 23  1  0  0  0  0
 19 21  2  0  0  0  0
 21 25  1  0  0  0  0
 22 25  1  0  0  0  0
 23 20  1  6  0  0  0
 23 24  1  0  0  0  0
 24 22  1  0  0  0  0
 24 26  1  6  0  0  0
 26 28  1  0  0  0  0
 28 30  1  0  0  0  0
 30 27  1  0  0  0  0
 30 29  2  0  0  0  0
M  END
>  <MODEL>
8

>  <REMARK>
 VINA RESULT:      -7.1      3.051      8.838
  Name = 
  5 active torsions:
  status: ('A' for Active; 'I' for Inactive)
    1  A    between atoms: C_5  and  C_7
    2  A    between atoms: O_6  and  C_18
    3  A    between atoms: C_9  and  C_19
    4  A    between atoms: C_10  and  N_21
    5  A    between atoms: C_10  and  C_26
                            x       y       z     vdW  Elec       q    Type
                         _______ _______ _______ _____ _____    ______ ____

>  <TORSDO>
F 5

$$$$
=
 OpenBabel11062419443D

 30 32  0  0  1  0  0  0  0  0999 V2000
  191.3450  176.4230  144.5140 C   0  0  0  0  0  0  0  0  0  0  0  0
  190.7840  175.2940  147.7970 O   0  0  0  0  0  1  0  0  0  0  0  0
  192.7840  174.8010  146.6740 C   0  0  0  0  0  3  0  0  0  0  0  0
  192.3670  175.8810  143.8370 C   0  0  0  0  0  3  0  0  0  0  0  0
  193.6710  175.4570  144.4060 C   0  0  0  0  0  0  0  0  0  0  0  0
  191.7130  175.5820  146.8070 C   0  0  0  0  0  0  0  0  0  0  0  0
  191.5100  176.7910  145.9570 C   0  0  0  0  0  2  0  0  0  0  0  0
  193.8220  174.9430  145.6340 C   0  0  0  0  0  3  0  0  0  0  0  0
  195.7860  176.5610  143.8150 C   0  0  0  0  0  3  0  0  0  0  0  0
  194.8650  175.4260  143.5070 C   0  0  2  0  0  3  0  0  0  0  0  0
  194.4440  175.4610  142.1120 N   0  0  0  0  0  0  0  0  0  0  0  0
  194.5180  175.2870  139.4920 Cl  0  0  0  0  0  0  0  0  0  0  0  0
  196.7100  175.1790  141.2050 C   0  0  0  0  0  0  0  0  0  0  0  0
  196.9590  176.7030  143.2040 C   0  0  0  0  0  3  0  0  0  0  0  0
  197.4510  175.8240  142.1260 C   0  0  0  0  0  3  0  0  0  0  0  0
  195.2380  175.3350  141.0900 C   0  0  0  0  0  0  0  0  0  0  0  0
  197.2460  172.9550  140.2320 C   0  0  0  0  0  1  0  0  0  0  0  0
  197.3390  174.3740  140.2460 O   0  0  0  0  0  0  0  0  0  0  0  0
  188.9480  176.0760  144.1120 C   0  0  0  0  0  3  0  0  0  0  0  0
  187.4040  175.2540  142.3890 C   0  0  0  0  0  1  0  0  0  0  0  0
  190.0750  176.7570  143.8230 C   0  0  0  0  0  0  0  0  0  0  0  0
  188.7940  178.0350  142.0200 C   0  0  0  0  0  2  0  0  0  0  0  0
  187.6230  176.3250  143.4480 C   0  0  2  0  0  3  0  0  0  0  0  0
  187.5640  177.7480  142.8710 C   0  0  2  0  0  3  0  0  0  0  0  0
  190.0410  177.9590  142.8980 C   0  0  0  0  0  2  0  0  0  0  0  0
  186.2490  178.0960  142.1730 C   0  0  0  0  0  2  0  0  0  0  0  0
  185.5660  180.1150  144.2620 C   0  0  0  0  0  1  0  0  0  0  0  0
  185.1060  177.9200  143.0610 N   0  0  0  0  0  2  0  0  0  0  0  0
  183.7620  178.6650  144.8010 O   0  0  0  0  0  0  0  0  0  0  0  0
  184.7610  178.8750  144.0660 C   0  0  0  0  0  0  0  0  0  0  0  0
  1  7  1  0  0  0  0
  3  6  2  0  0  0  0
  4  5  1  0  0  0  0
  4  1  2  0  0  0  0
  5  8  2  0  0  0  0
  6  2  1  0  0  0  0
  7  6  1  0  0  0  0
  8  3  1  0  0  0  0
 10  9  1  0  0  0  0
 10  5  1  1  0  0  0
 11 10  1  0  0  0  0
 12 16  1  0  0  0  0
 13 15  2  0  0  0  0
 14  9  2  0  0  0  0
 15 14  1  0  0  0  0
 16 13  1  0  0  0  0
 16 11  2  0  0  0  0
 17 18  1  0  0  0  0
 18 13  1  0  0  0  0
 21 19  2  0  0  0  0
 21  1  1  0  0  0  0
 22 24  1  0  0  0  0
 22 25  1  0  0  0  0
 23 20  1  6  0  0  0
 23 19  1  0  0  0  0
 24 26  1  6  0  0  0
 24 23  1  0  0  0  0
 25 21  1  0  0  0  0
 26 28  1  0  0  0  0
 28 30  1  0  0  0  0
 30 27  1  0  0  0  0
 30 29  2  0  0  0  0
M  END
>  <MODEL>
9

>  <REMARK>
 VINA RESULT:      -7.1      2.994      8.545
  Name = 
  5 active torsions:
  status: ('A' for Active; 'I' for Inactive)
    1  A    between atoms: C_5  and  C_7
    2  A    between atoms: O_6  and  C_18
    3  A    between atoms: C_9  and  C_19
    4  A    between atoms: C_10  and  N_21
    5  A    between atoms: C_10  and  C_26
                            x       y       z     vdW  Elec       q    Type
                         _______ _______ _______ _____ _____    ______ ____

>  <TORSDO>
F 5

$$$$
