=
 OpenBabel11062423093D

 28 32  0  0  1  0  0  0  0  0999 V2000
  184.5270  178.0880  141.9650 C   0  0  0  0  0  0  0  0  0  0  0  0
  190.6930  177.5450  144.3360 S   0  0  0  0  0  0  0  0  0  0  0  0
  191.8350  176.6630  145.4950 C   0  0  1  0  0  3  0  0  0  0  0  0
  185.9360  177.9790  145.2620 C   0  0  0  0  0  0  0  0  0  0  0  0
  187.9710  176.9800  145.0030 C   0  0  0  0  0  0  0  0  0  0  0  0
  185.9780  177.0590  146.1820 N   0  0  0  0  0  0  0  0  0  0  0  0
  183.1400  178.1620  142.0090 O   0  0  0  0  0  1  0  0  0  0  0  0
  186.6630  177.9990  143.0970 C   0  0  0  0  0  0  0  0  0  0  0  0
  184.7660  178.1400  144.4630 N   0  0  0  0  0  2  0  0  0  0  0  0
  185.2830  178.0990  143.1380 C   0  0  0  0  0  0  0  0  0  0  0  0
  188.2440  175.7180  147.1800 S   0  0  0  0  0  0  0  0  0  0  0  0
  191.0660  175.9410  146.6230 C   0  0  1  0  0  3  0  0  0  0  0  0
  186.6030  177.9180  140.6970 C   0  0  0  0  0  3  0  0  0  0  0  0
  185.1980  177.9960  140.7360 C   0  0  0  0  0  3  0  0  0  0  0  0
  187.2180  178.1370  144.4670 C   0  0  1  0  0  3  0  0  0  0  0  0
  189.3320  176.7370  145.1270 C   0  0  0  0  0  0  0  0  0  0  0  0
  187.3510  177.9290  141.8850 C   0  0  0  0  0  3  0  0  0  0  0  0
  187.2550  176.4680  146.0360 C   0  0  0  0  0  0  0  0  0  0  0  0
  191.3070  176.6730  147.9300 C   0  0  0  0  0  1  0  0  0  0  0  0
  189.6360  176.0170  146.2480 C   0  0  0  0  0  0  0  0  0  0  0  0
  192.7930  175.7440  144.7280 C   0  0  2  0  0  3  0  0  0  0  0  0
  191.6210  173.8290  143.8240 O   0  0  0  0  0  1  0  0  0  0  0  0
  192.1630  175.0750  143.5010 C   0  0  0  0  0  2  0  0  0  0  0  0
  193.4640  174.7400  145.6580 C   0  0  0  0  0  2  0  0  0  0  0  0
  194.8650  175.2040  146.0190 C   0  0  0  0  0  2  0  0  0  0  0  0
  196.6200  175.3610  144.4110 O   0  0  0  0  0  1  0  0  0  0  0  0
  196.8380  173.7170  146.1090 C   0  0  0  0  0  1  0  0  0  0  0  0
  195.8930  174.4590  145.1880 C   0  0  1  0  0  3  0  0  0  0  0  0
  1  7  1  0  0  0  0
  1 10  1  0  0  0  0
  2 16  1  0  0  0  0
  2  3  1  0  0  0  0
  3 21  1  6  0  0  0
  3 12  1  0  0  0  0
  4  6  2  0  0  0  0
  5 16  1  0  0  0  0
  5 18  2  0  0  0  0
  8 10  2  0  0  0  0
  9  4  1  0  0  0  0
 10  9  1  0  0  0  0
 12 19  1  1  0  0  0
 13 14  1  0  0  0  0
 13 17  2  0  0  0  0
 14  1  2  0  0  0  0
 15  8  1  6  0  0  0
 15  5  1  0  0  0  0
 15  4  1  0  0  0  0
 16 20  2  0  0  0  0
 17  8  1  0  0  0  0
 18  6  1  0  0  0  0
 18 11  1  0  0  0  0
 20 12  1  0  0  0  0
 20 11  1  0  0  0  0
 21 23  1  6  0  0  0
 21 24  1  0  0  0  0
 23 22  1  0  0  0  0
 24 25  1  0  0  0  0
 26 28  1  0  0  0  0
 28 25  1  0  0  0  0
 28 27  1  1  0  0  0
M  END
>  <MODEL>
1

>  <REMARK>
 VINA RESULT:      -7.7      0.000      0.000
  Name = 
  5 active torsions:
  status: ('A' for Active; 'I' for Inactive)
    1  A    between atoms: C_4  and  C_19
    2  A    between atoms: C_6  and  C_19
    3  A    between atoms: C_11  and  C_16
    4  A    between atoms: C_11  and  C_22
    5  A    between atoms: C_16  and  C_19
                            x       y       z     vdW  Elec       q    Type
                         _______ _______ _______ _____ _____    ______ ____

>  <TORSDO>
F 5

$$$$
=
 OpenBabel11062423093D

 28 32  0  0  1  0  0  0  0  0999 V2000
  183.4420  178.3790  141.7040 C   0  0  0  0  0  0  0  0  0  0  0  0
  189.5840  177.9140  144.1520 S   0  0  0  0  0  0  0  0  0  0  0  0
  190.6870  177.1670  145.4370 C   0  0  1  0  0  3  0  0  0  0  0  0
  184.8580  178.7130  144.9830 C   0  0  0  0  0  0  0  0  0  0  0  0
  186.8410  177.5900  144.8890 C   0  0  0  0  0  0  0  0  0  0  0  0
  184.8590  177.9450  146.0340 N   0  0  0  0  0  0  0  0  0  0  0  0
  182.0610  178.5260  141.7310 O   0  0  0  0  0  1  0  0  0  0  0  0
  185.5750  178.3640  142.8430 C   0  0  0  0  0  0  0  0  0  0  0  0
  183.6930  178.8050  144.1650 N   0  0  0  0  0  2  0  0  0  0  0  0
  184.2020  178.5350  142.8640 C   0  0  0  0  0  0  0  0  0  0  0  0
  187.0620  176.6670  147.2350 S   0  0  0  0  0  0  0  0  0  0  0  0
  189.8890  176.6660  146.6600 C   0  0  1  0  0  3  0  0  0  0  0  0
  185.5030  177.9160  140.4840 C   0  0  0  0  0  3  0  0  0  0  0  0
  184.1030  178.0670  140.5060 C   0  0  0  0  0  3  0  0  0  0  0  0
  186.1420  178.6850  144.1770 C   0  0  1  0  0  3  0  0  0  0  0  0
  188.1890  177.3030  145.0540 C   0  0  0  0  0  0  0  0  0  0  0  0
  186.2550  178.0750  141.6600 C   0  0  0  0  0  3  0  0  0  0  0  0
  186.1060  177.2780  145.9850 C   0  0  0  0  0  0  0  0  0  0  0  0
  190.1700  177.5790  147.8390 C   0  0  0  0  0  1  0  0  0  0  0  0
  188.4630  176.7520  146.2730 C   0  0  0  0  0  0  0  0  0  0  0  0
  191.5970  176.0970  144.8250 C   0  0  2  0  0  3  0  0  0  0  0  0
  190.1700  174.2760  144.1110 O   0  0  0  0  0  1  0  0  0  0  0  0
  190.9610  175.3340  143.6570 C   0  0  0  0  0  2  0  0  0  0  0  0
  192.1550  175.1630  145.8930 C   0  0  0  0  0  2  0  0  0  0  0  0
  193.4090  175.7560  146.5150 C   0  0  0  0  0  2  0  0  0  0  0  0
  194.8600  177.5070  145.7960 O   0  0  0  0  0  1  0  0  0  0  0  0
  195.4740  175.2840  145.2410 C   0  0  0  0  0  1  0  0  0  0  0  0
  194.3390  176.2670  145.4300 C   0  0  1  0  0  3  0  0  0  0  0  0
  1  7  1  0  0  0  0
  1 10  1  0  0  0  0
  2 16  1  0  0  0  0
  2  3  1  0  0  0  0
  3 21  1  6  0  0  0
  3 12  1  0  0  0  0
  4  6  2  0  0  0  0
  5 16  1  0  0  0  0
  5 18  2  0  0  0  0
  8 10  2  0  0  0  0
  9  4  1  0  0  0  0
 10  9  1  0  0  0  0
 12 19  1  1  0  0  0
 13 14  1  0  0  0  0
 13 17  2  0  0  0  0
 14  1  2  0  0  0  0
 15  8  1  6  0  0  0
 15  5  1  0  0  0  0
 15  4  1  0  0  0  0
 16 20  2  0  0  0  0
 17  8  1  0  0  0  0
 18  6  1  0  0  0  0
 18 11  1  0  0  0  0
 20 12  1  0  0  0  0
 20 11  1  0  0  0  0
 21 23  1  6  0  0  0
 21 24  1  0  0  0  0
 23 22  1  0  0  0  0
 24 25  1  0  0  0  0
 28 27  1  1  0  0  0
 28 26  1  0  0  0  0
 28 25  1  0  0  0  0
M  END
>  <MODEL>
2

>  <REMARK>
 VINA RESULT:      -7.6      1.315      1.505
  Name = 
  5 active torsions:
  status: ('A' for Active; 'I' for Inactive)
    1  A    between atoms: C_4  and  C_19
    2  A    between atoms: C_6  and  C_19
    3  A    between atoms: C_11  and  C_16
    4  A    between atoms: C_11  and  C_22
    5  A    between atoms: C_16  and  C_19
                            x       y       z     vdW  Elec       q    Type
                         _______ _______ _______ _____ _____    ______ ____

>  <TORSDO>
F 5

$$$$
=
 OpenBabel11062423093D

 28 32  0  0  1  0  0  0  0  0999 V2000
  184.1100  178.2910  142.2630 C   0  0  0  0  0  0  0  0  0  0  0  0
  190.4160  177.8240  144.2510 S   0  0  0  0  0  0  0  0  0  0  0  0
  191.6490  176.9180  145.2920 C   0  0  1  0  0  3  0  0  0  0  0  0
  185.7100  178.0450  145.4640 C   0  0  0  0  0  0  0  0  0  0  0  0
  187.7550  177.1320  145.0350 C   0  0  0  0  0  0  0  0  0  0  0  0
  185.8320  177.0780  146.3250 N   0  0  0  0  0  0  0  0  0  0  0  0
  182.7270  178.3160  142.3880 O   0  0  0  0  0  1  0  0  0  0  0  0
  186.3090  178.2110  143.2660 C   0  0  0  0  0  0  0  0  0  0  0  0
  184.4910  178.2120  144.7420 N   0  0  0  0  0  2  0  0  0  0  0  0
  184.9320  178.2610  143.3900 C   0  0  0  0  0  0  0  0  0  0  0  0
  188.1910  175.7590  147.1160 S   0  0  0  0  0  0  0  0  0  0  0  0
  190.9690  176.1080  146.4170 C   0  0  1  0  0  3  0  0  0  0  0  0
  186.1140  178.2620  140.8730 C   0  0  0  0  0  3  0  0  0  0  0  0
  184.7120  178.2910  140.9940 C   0  0  0  0  0  3  0  0  0  0  0  0
  186.9380  178.2910  144.6090 C   0  0  1  0  0  3  0  0  0  0  0  0
  189.1280  176.9280  145.0690 C   0  0  0  0  0  0  0  0  0  0  0  0
  186.9280  178.2320  142.0170 C   0  0  0  0  0  3  0  0  0  0  0  0
  187.1160  176.5390  146.0740 C   0  0  0  0  0  0  0  0  0  0  0  0
  191.2620  176.7740  147.7490 C   0  0  0  0  0  1  0  0  0  0  0  0
  189.5180  176.1570  146.1270 C   0  0  0  0  0  0  0  0  0  0  0  0
  192.5890  176.0760  144.4210 C   0  0  2  0  0  3  0  0  0  0  0  0
  194.2540  177.4080  145.5690 O   0  0  0  0  0  1  0  0  0  0  0  0
  194.0740  176.4130  144.6050 C   0  0  0  0  0  2  0  0  0  0  0  0
  192.1640  176.1020  142.9570 C   0  0  0  0  0  2  0  0  0  0  0  0
  191.7820  174.7070  142.4910 C   0  0  0  0  0  2  0  0  0  0  0  0
  189.9650  174.1150  141.0630 O   0  0  0  0  0  1  0  0  0  0  0  0
  189.7280  173.6580  143.3790 C   0  0  0  0  0  1  0  0  0  0  0  0
  190.2770  174.6030  142.3320 C   0  0  1  0  0  3  0  0  0  0  0  0
  1  7  1  0  0  0  0
  1 10  1  0  0  0  0
  2 16  1  0  0  0  0
  2  3  1  0  0  0  0
  3 21  1  6  0  0  0
  3 12  1  0  0  0  0
  4  6  2  0  0  0  0
  5 16  1  0  0  0  0
  5 18  2  0  0  0  0
  8 10  2  0  0  0  0
  9  4  1  0  0  0  0
 10  9  1  0  0  0  0
 12 19  1  1  0  0  0
 13 14  1  0  0  0  0
 13 17  2  0  0  0  0
 14  1  2  0  0  0  0
 15  8  1  6  0  0  0
 15  5  1  0  0  0  0
 15  4  1  0  0  0  0
 16 20  2  0  0  0  0
 17  8  1  0  0  0  0
 18  6  1  0  0  0  0
 18 11  1  0  0  0  0
 20 12  1  0  0  0  0
 20 11  1  0  0  0  0
 21 24  1  6  0  0  0
 21 23  1  0  0  0  0
 23 22  1  0  0  0  0
 25 24  1  0  0  0  0
 26 28  1  0  0  0  0
 28 25  1  0  0  0  0
 28 27  1  1  0  0  0
M  END
>  <MODEL>
3

>  <REMARK>
 VINA RESULT:      -7.5      1.453      2.808
  Name = 
  5 active torsions:
  status: ('A' for Active; 'I' for Inactive)
    1  A    between atoms: C_4  and  C_19
    2  A    between atoms: C_6  and  C_19
    3  A    between atoms: C_11  and  C_16
    4  A    between atoms: C_11  and  C_22
    5  A    between atoms: C_16  and  C_19
                            x       y       z     vdW  Elec       q    Type
                         _______ _______ _______ _____ _____    ______ ____

>  <TORSDO>
F 5

$$$$
=
 OpenBabel11062423093D

 28 32  0  0  1  0  0  0  0  0999 V2000
  184.0550  178.5900  144.7360 C   0  0  0  0  0  0  0  0  0  0  0  0
  189.4990  175.0200  145.9780 S   0  0  0  0  0  0  0  0  0  0  0  0
  191.3070  174.7890  145.6560 C   0  0  1  0  0  3  0  0  0  0  0  0
  186.5460  177.0340  142.6780 C   0  0  0  0  0  0  0  0  0  0  0  0
  188.3620  176.7820  144.0350 C   0  0  0  0  0  0  0  0  0  0  0  0
  187.5480  177.4980  141.9880 N   0  0  0  0  0  0  0  0  0  0  0  0
  183.1220  179.2780  143.9700 O   0  0  0  0  0  1  0  0  0  0  0  0
  186.0220  177.1930  144.8950 C   0  0  0  0  0  0  0  0  0  0  0  0
  185.3180  177.7570  142.7340 N   0  0  0  0  0  2  0  0  0  0  0  0
  185.0780  177.8580  144.1320 C   0  0  0  0  0  0  0  0  0  0  0  0
  190.2950  177.0590  142.4240 S   0  0  0  0  0  0  0  0  0  0  0  0
  191.7540  175.4850  144.3520 C   0  0  1  0  0  3  0  0  0  0  0  0
  184.9380  177.9240  146.9100 C   0  0  0  0  0  3  0  0  0  0  0  0
  183.9880  178.6210  146.1380 C   0  0  0  0  0  3  0  0  0  0  0  0
  186.9270  176.4170  144.0100 C   0  0  1  0  0  3  0  0  0  0  0  0
  189.4570  176.1980  144.6580 C   0  0  0  0  0  0  0  0  0  0  0  0
  185.9630  177.1920  146.2890 C   0  0  0  0  0  3  0  0  0  0  0  0
  188.6730  177.3070  142.8240 C   0  0  0  0  0  0  0  0  0  0  0  0
  192.0660  174.4260  143.3120 C   0  0  0  0  0  1  0  0  0  0  0  0
  190.6000  176.3070  143.9190 C   0  0  0  0  0  0  0  0  0  0  0  0
  192.1390  175.1970  146.8780 C   0  0  2  0  0  3  0  0  0  0  0  0
  191.5010  176.9980  148.3650 O   0  0  0  0  0  1  0  0  0  0  0  0
  191.2990  175.6460  148.0800 C   0  0  0  0  0  2  0  0  0  0  0  0
  193.2120  176.2140  146.5060 C   0  0  0  0  0  2  0  0  0  0  0  0
  194.5930  175.5860  146.5940 C   0  0  0  0  0  2  0  0  0  0  0  0
  195.4560  176.5510  144.5910 O   0  0  0  0  0  1  0  0  0  0  0  0
  196.3940  174.4910  145.3030 C   0  0  0  0  0  1  0  0  0  0  0  0
  195.1430  175.3370  145.2020 C   0  0  1  0  0  3  0  0  0  0  0  0
  1 14  1  0  0  0  0
  3  2  1  0  0  0  0
  3 21  1  1  0  0  0
  4  9  1  0  0  0  0
  5 16  1  0  0  0  0
  6  4  2  0  0  0  0
  6 18  1  0  0  0  0
  7  1  1  0  0  0  0
  8 17  2  0  0  0  0
  9 10  1  0  0  0  0
 10  1  2  0  0  0  0
 10  8  1  0  0  0  0
 11 18  1  0  0  0  0
 11 20  1  0  0  0  0
 12 19  1  6  0  0  0
 12  3  1  0  0  0  0
 14 13  2  0  0  0  0
 15  4  1  6  0  0  0
 15  5  1  0  0  0  0
 15  8  1  0  0  0  0
 16  2  1  0  0  0  0
 17 13  1  0  0  0  0
 18  5  2  0  0  0  0
 20 12  1  0  0  0  0
 20 16  2  0  0  0  0
 21 24  1  6  0  0  0
 21 23  1  0  0  0  0
 23 22  1  0  0  0  0
 24 25  1  0  0  0  0
 26 28  1  0  0  0  0
 28 27  1  1  0  0  0
 28 25  1  0  0  0  0
M  END
>  <MODEL>
4

>  <REMARK>
 VINA RESULT:      -7.4      1.917      3.337
  Name = 
  5 active torsions:
  status: ('A' for Active; 'I' for Inactive)
    1  A    between atoms: C_4  and  C_19
    2  A    between atoms: C_6  and  C_19
    3  A    between atoms: C_11  and  C_16
    4  A    between atoms: C_11  and  C_22
    5  A    between atoms: C_16  and  C_19
                            x       y       z     vdW  Elec       q    Type
                         _______ _______ _______ _____ _____    ______ ____

>  <TORSDO>
F 5

$$$$
=
 OpenBabel11062423093D

 28 32  0  0  1  0  0  0  0  0999 V2000
  193.4400  174.6630  145.5690 C   0  0  0  0  0  0  0  0  0  0  0  0
  187.8890  177.9250  143.9930 S   0  0  0  0  0  0  0  0  0  0  0  0
  186.2800  177.8940  143.0790 C   0  0  1  0  0  3  0  0  0  0  0  0
  191.7410  175.3630  142.4890 C   0  0  0  0  0  0  0  0  0  0  0  0
  189.5870  175.8100  143.0880 C   0  0  0  0  0  0  0  0  0  0  0  0
  191.0130  174.6380  141.6890 N   0  0  0  0  0  0  0  0  0  0  0  0
  194.5670  173.8790  145.3600 O   0  0  0  0  0  1  0  0  0  0  0  0
  191.5270  175.8650  144.7060 C   0  0  0  0  0  0  0  0  0  0  0  0
  192.8850  174.7970  143.1250 N   0  0  0  0  0  2  0  0  0  0  0  0
  192.6650  175.1060  144.4960 C   0  0  0  0  0  0  0  0  0  0  0  0
  188.2720  174.9270  141.1140 S   0  0  0  0  0  0  0  0  0  0  0  0
  186.2740  176.8290  141.9600 C   0  0  1  0  0  3  0  0  0  0  0  0
  191.9070  175.8150  147.0770 C   0  0  0  0  0  3  0  0  0  0  0  0
  193.0530  175.0230  146.8700 C   0  0  0  0  0  3  0  0  0  0  0  0
  190.9550  176.2830  143.4010 C   0  0  1  0  0  3  0  0  0  0  0  0
  188.3510  176.4400  143.1490 C   0  0  0  0  0  0  0  0  0  0  0  0
  191.1370  176.2530  145.9880 C   0  0  0  0  0  3  0  0  0  0  0  0
  189.6790  174.9470  142.0460 C   0  0  0  0  0  0  0  0  0  0  0  0
  186.3140  177.5300  140.6150 C   0  0  0  0  0  1  0  0  0  0  0  0
  187.5040  176.0290  142.1590 C   0  0  0  0  0  0  0  0  0  0  0  0
  185.1010  177.7620  144.0490 C   0  0  2  0  0  3  0  0  0  0  0  0
  185.3250  180.1710  144.1230 O   0  0  0  0  0  1  0  0  0  0  0  0
  184.4980  179.1040  144.4800 C   0  0  0  0  0  2  0  0  0  0  0  0
  185.4540  176.8750  145.2370 C   0  0  0  0  0  2  0  0  0  0  0  0
  184.8180  177.4120  146.5090 C   0  0  0  0  0  2  0  0  0  0  0  0
  186.9280  176.6760  147.3430 O   0  0  0  0  0  1  0  0  0  0  0  0
  186.3690  178.9620  147.6490 C   0  0  0  0  0  1  0  0  0  0  0  0
  185.8620  177.5370  147.6030 C   0  0  1  0  0  3  0  0  0  0  0  0
  1 14  1  0  0  0  0
  3  2  1  0  0  0  0
  3 21  1  1  0  0  0
  4  9  1  0  0  0  0
  5 16  1  0  0  0  0
  5 15  1  0  0  0  0
  6 18  1  0  0  0  0
  6  4  2  0  0  0  0
  7  1  1  0  0  0  0
  8 17  2  0  0  0  0
  9 10  1  0  0  0  0
 10  8  1  0  0  0  0
 10  1  2  0  0  0  0
 11 18  1  0  0  0  0
 11 20  1  0  0  0  0
 12 19  1  6  0  0  0
 12 20  1  0  0  0  0
 12  3  1  0  0  0  0
 14 13  2  0  0  0  0
 15  4  1  6  0  0  0
 15  8  1  0  0  0  0
 16  2  1  0  0  0  0
 17 13  1  0  0  0  0
 18  5  2  0  0  0  0
 20 16  2  0  0  0  0
 21 23  1  1  0  0  0
 21 24  1  0  0  0  0
 22 23  1  0  0  0  0
 24 25  1  0  0  0  0
 25 28  1  0  0  0  0
 26 28  1  0  0  0  0
 28 27  1  6  0  0  0
M  END
>  <MODEL>
5

>  <REMARK>
 VINA RESULT:      -7.2      3.060      8.003
  Name = 
  5 active torsions:
  status: ('A' for Active; 'I' for Inactive)
    1  A    between atoms: C_4  and  C_19
    2  A    between atoms: C_6  and  C_19
    3  A    between atoms: C_11  and  C_16
    4  A    between atoms: C_11  and  C_22
    5  A    between atoms: C_16  and  C_19
                            x       y       z     vdW  Elec       q    Type
                         _______ _______ _______ _____ _____    ______ ____

>  <TORSDO>
F 5

$$$$
=
 OpenBabel11062423093D

 28 32  0  0  1  0  0  0  0  0999 V2000
  196.6110  175.9440  142.8160 C   0  0  0  0  0  0  0  0  0  0  0  0
  190.0280  175.5570  143.4910 S   0  0  0  0  0  0  0  0  0  0  0  0
  188.5400  176.0540  144.4720 C   0  0  1  0  0  3  0  0  0  0  0  0
  194.4210  175.1310  145.5380 C   0  0  0  0  0  0  0  0  0  0  0  0
  192.4140  176.0620  144.9820 C   0  0  0  0  0  0  0  0  0  0  0  0
  194.0460  175.7790  146.6020 N   0  0  0  0  0  0  0  0  0  0  0  0
  197.9410  175.9280  143.2140 O   0  0  0  0  0  1  0  0  0  0  0  0
  194.2650  175.6340  143.3160 C   0  0  0  0  0  0  0  0  0  0  0  0
  195.7640  175.2380  145.0710 N   0  0  0  0  0  2  0  0  0  0  0  0
  195.5920  175.5940  143.7040 C   0  0  0  0  0  0  0  0  0  0  0  0
  191.4640  176.7070  147.2380 S   0  0  0  0  0  0  0  0  0  0  0  0
  188.9150  176.4980  145.9030 C   0  0  1  0  0  3  0  0  0  0  0  0
  194.9110  176.3330  141.1100 C   0  0  0  0  0  3  0  0  0  0  0  0
  196.2610  176.3160  141.5080 C   0  0  0  0  0  3  0  0  0  0  0  0
  193.4050  175.1210  144.4120 C   0  0  1  0  0  3  0  0  0  0  0  0
  191.0470  176.2000  144.7880 C   0  0  0  0  0  0  0  0  0  0  0  0
  193.8970  175.9800  142.0160 C   0  0  0  0  0  3  0  0  0  0  0  0
  192.7860  176.3250  146.2600 C   0  0  0  0  0  0  0  0  0  0  0  0
  188.4410  175.4430  146.8850 C   0  0  0  0  0  1  0  0  0  0  0  0
  190.3930  176.5910  145.9210 C   0  0  0  0  0  0  0  0  0  0  0  0
  187.7040  177.0920  143.7140 C   0  0  2  0  0  3  0  0  0  0  0  0
  187.5770  178.4350  141.7040 O   0  0  0  0  0  1  0  0  0  0  0  0
  188.4570  177.7800  142.5690 C   0  0  0  0  0  2  0  0  0  0  0  0
  187.0570  178.0900  144.6680 C   0  0  0  0  0  2  0  0  0  0  0  0
  185.5460  177.9330  144.6560 C   0  0  0  0  0  2  0  0  0  0  0  0
  184.9590  176.5640  146.5190 O   0  0  0  0  0  1  0  0  0  0  0  0
  185.9330  178.6780  146.9810 C   0  0  0  0  0  1  0  0  0  0  0  0
  185.0140  177.8850  146.0760 C   0  0  1  0  0  3  0  0  0  0  0  0
  1  7  1  0  0  0  0
  1 10  1  0  0  0  0
  2  3  1  0  0  0  0
  2 16  1  0  0  0  0
  3 21  1  6  0  0  0
  3 12  1  0  0  0  0
  4  6  2  0  0  0  0
  5 18  2  0  0  0  0
  8 10  2  0  0  0  0
  9  4  1  0  0  0  0
 10  9  1  0  0  0  0
 12 20  1  0  0  0  0
 12 19  1  1  0  0  0
 13 14  1  0  0  0  0
 13 17  2  0  0  0  0
 14  1  2  0  0  0  0
 15  8  1  6  0  0  0
 15  5  1  0  0  0  0
 15  4  1  0  0  0  0
 16  5  1  0  0  0  0
 16 20  2  0  0  0  0
 17  8  1  0  0  0  0
 18  6  1  0  0  0  0
 18 11  1  0  0  0  0
 20 11  1  0  0  0  0
 21 23  1  6  0  0  0
 21 24  1  0  0  0  0
 22 23  1  0  0  0  0
 25 24  1  0  0  0  0
 25 28  1  0  0  0  0
 28 26  1  0  0  0  0
 28 27  1  1  0  0  0
M  END
>  <MODEL>
6

>  <REMARK>
 VINA RESULT:      -7.2      3.325      8.197
  Name = 
  5 active torsions:
  status: ('A' for Active; 'I' for Inactive)
    1  A    between atoms: C_4  and  C_19
    2  A    between atoms: C_6  and  C_19
    3  A    between atoms: C_11  and  C_16
    4  A    between atoms: C_11  and  C_22
    5  A    between atoms: C_16  and  C_19
                            x       y       z     vdW  Elec       q    Type
                         _______ _______ _______ _____ _____    ______ ____

>  <TORSDO>
F 5

$$$$
=
 OpenBabel11062423093D

 28 32  0  0  1  0  0  0  0  0999 V2000
  195.4940  174.5510  144.4640 C   0  0  0  0  0  0  0  0  0  0  0  0
  189.6790  177.7310  144.5610 S   0  0  0  0  0  0  0  0  0  0  0  0
  187.8730  177.6700  144.1610 C   0  0  1  0  0  3  0  0  0  0  0  0
  192.9560  175.1950  142.0130 C   0  0  0  0  0  0  0  0  0  0  0  0
  191.0660  175.6250  143.2150 C   0  0  0  0  0  0  0  0  0  0  0  0
  192.0350  174.4530  141.4680 N   0  0  0  0  0  0  0  0  0  0  0  0
  196.5210  173.7790  143.9390 O   0  0  0  0  0  1  0  0  0  0  0  0
  193.3940  175.7210  144.1910 C   0  0  0  0  0  0  0  0  0  0  0  0
  194.2440  174.6500  142.2890 N   0  0  0  0  0  2  0  0  0  0  0  0
  194.4320  174.9730  143.6630 C   0  0  0  0  0  0  0  0  0  0  0  0
  189.2430  174.7030  141.7210 S   0  0  0  0  0  0  0  0  0  0  0  0
  187.5540  176.5920  143.1010 C   0  0  1  0  0  3  0  0  0  0  0  0
  194.4550  175.7040  146.3460 C   0  0  0  0  0  3  0  0  0  0  0  0
  195.5010  174.9230  145.8180 C   0  0  0  0  0  3  0  0  0  0  0  0
  192.4580  176.1170  143.1090 C   0  0  1  0  0  3  0  0  0  0  0  0
  189.8940  176.2410  143.6310 C   0  0  0  0  0  0  0  0  0  0  0  0
  193.3920  176.1200  145.5280 C   0  0  0  0  0  3  0  0  0  0  0  0
  190.8610  174.7500  142.1980 C   0  0  0  0  0  0  0  0  0  0  0  0
  187.1870  177.2770  141.7980 C   0  0  0  0  0  1  0  0  0  0  0  0
  188.7990  175.8090  142.9360 C   0  0  0  0  0  0  0  0  0  0  0  0
  187.0320  177.5360  145.4350 C   0  0  2  0  0  3  0  0  0  0  0  0
  186.7380  176.3830  147.5440 O   0  0  0  0  0  1  0  0  0  0  0  0
  187.5810  176.5140  146.4380 C   0  0  0  0  0  2  0  0  0  0  0  0
  185.5610  177.2980  145.1090 C   0  0  0  0  0  2  0  0  0  0  0  0
  184.7200  178.4840  145.5530 C   0  0  0  0  0  2  0  0  0  0  0  0
  185.3630  180.1990  144.0250 O   0  0  0  0  0  1  0  0  0  0  0  0
  184.0480  178.4160  143.1760 C   0  0  0  0  0  1  0  0  0  0  0  0
  184.3270  179.3240  144.3530 C   0  0  1  0  0  3  0  0  0  0  0  0
  1 14  1  0  0  0  0
  3  2  1  0  0  0  0
  3 21  1  1  0  0  0
  4  9  1  0  0  0  0
  5 16  1  0  0  0  0
  6  4  2  0  0  0  0
  6 18  1  0  0  0  0
  7  1  1  0  0  0  0
  8 17  2  0  0  0  0
  9 10  1  0  0  0  0
 10  8  1  0  0  0  0
 10  1  2  0  0  0  0
 11 18  1  0  0  0  0
 11 20  1  0  0  0  0
 12 19  1  6  0  0  0
 12  3  1  0  0  0  0
 14 13  2  0  0  0  0
 15  4  1  6  0  0  0
 15  5  1  0  0  0  0
 15  8  1  0  0  0  0
 16  2  1  0  0  0  0
 17 13  1  0  0  0  0
 18  5  2  0  0  0  0
 20 12  1  0  0  0  0
 20 16  2  0  0  0  0
 21 24  1  6  0  0  0
 21 23  1  0  0  0  0
 23 22  1  0  0  0  0
 24 25  1  0  0  0  0
 26 28  1  0  0  0  0
 28 27  1  6  0  0  0
 28 25  1  0  0  0  0
M  END
>  <MODEL>
7

>  <REMARK>
 VINA RESULT:      -7.2      3.121      8.542
  Name = 
  5 active torsions:
  status: ('A' for Active; 'I' for Inactive)
    1  A    between atoms: C_4  and  C_19
    2  A    between atoms: C_6  and  C_19
    3  A    between atoms: C_11  and  C_16
    4  A    between atoms: C_11  and  C_22
    5  A    between atoms: C_16  and  C_19
                            x       y       z     vdW  Elec       q    Type
                         _______ _______ _______ _____ _____    ______ ____

>  <TORSDO>
F 5

$$$$
=
 OpenBabel11062423093D

 28 32  0  0  1  0  0  0  0  0999 V2000
  184.6860  178.6660  143.6550 C   0  0  0  0  0  0  0  0  0  0  0  0
  190.9820  176.5990  143.7720 S   0  0  0  0  0  0  0  0  0  0  0  0
  192.1960  175.3660  144.4300 C   0  0  1  0  0  3  0  0  0  0  0  0
  187.0040  177.8620  146.2710 C   0  0  0  0  0  0  0  0  0  0  0  0
  188.5610  176.5150  145.2890 C   0  0  0  0  0  0  0  0  0  0  0  0
  187.1210  176.8440  147.0740 N   0  0  0  0  0  0  0  0  0  0  0  0
  183.4420  179.0120  144.1680 O   0  0  0  0  0  1  0  0  0  0  0  0
  186.9880  178.0070  143.9920 C   0  0  0  0  0  0  0  0  0  0  0  0
  185.7110  178.3550  145.9240 N   0  0  0  0  0  2  0  0  0  0  0  0
  185.7560  178.3770  144.5020 C   0  0  0  0  0  0  0  0  0  0  0  0
  189.2100  174.9590  147.1770 S   0  0  0  0  0  0  0  0  0  0  0  0
  191.6800  174.6780  145.7130 C   0  0  1  0  0  3  0  0  0  0  0  0
  186.1530  178.2430  141.7520 C   0  0  0  0  0  3  0  0  0  0  0  0
  184.8910  178.5970  142.2680 C   0  0  0  0  0  3  0  0  0  0  0  0
  187.9660  177.8570  145.0990 C   0  0  1  0  0  3  0  0  0  0  0  0
  189.7950  175.9880  144.9340 C   0  0  0  0  0  0  0  0  0  0  0  0
  187.2200  177.9540  142.6180 C   0  0  0  0  0  3  0  0  0  0  0  0
  188.1120  176.0310  146.4750 C   0  0  0  0  0  0  0  0  0  0  0  0
  192.4870  175.1760  146.8970 C   0  0  0  0  0  1  0  0  0  0  0  0
  190.2630  175.0870  145.8470 C   0  0  0  0  0  0  0  0  0  0  0  0
  192.6210  174.3780  143.3390 C   0  0  2  0  0  3  0  0  0  0  0  0
  194.8470  174.8200  144.1800 O   0  0  0  0  0  1  0  0  0  0  0  0
  194.1310  174.3540  143.0750 C   0  0  0  0  0  2  0  0  0  0  0  0
  191.8110  174.5760  142.0620 C   0  0  0  0  0  2  0  0  0  0  0  0
  191.1060  173.2870  141.6740 C   0  0  0  0  0  2  0  0  0  0  0  0
  189.2880  172.4950  140.3490 O   0  0  0  0  0  1  0  0  0  0  0  0
  188.7680  173.9060  142.1850 C   0  0  0  0  0  1  0  0  0  0  0  0
  189.7470  173.5950  141.0730 C   0  0  1  0  0  3  0  0  0  0  0  0
  1  7  1  0  0  0  0
  1 10  1  0  0  0  0
  2  3  1  0  0  0  0
  2 16  1  0  0  0  0
  3 21  1  6  0  0  0
  3 12  1  0  0  0  0
  4  6  2  0  0  0  0
  5 18  2  0  0  0  0
  8 10  2  0  0  0  0
  9  4  1  0  0  0  0
 10  9  1  0  0  0  0
 12 20  1  0  0  0  0
 12 19  1  1  0  0  0
 13 14  1  0  0  0  0
 13 17  2  0  0  0  0
 14  1  2  0  0  0  0
 15  8  1  6  0  0  0
 15  5  1  0  0  0  0
 15  4  1  0  0  0  0
 16  5  1  0  0  0  0
 16 20  2  0  0  0  0
 17  8  1  0  0  0  0
 18  6  1  0  0  0  0
 18 11  1  0  0  0  0
 20 11  1  0  0  0  0
 21 24  1  6  0  0  0
 23 21  1  0  0  0  0
 23 22  1  0  0  0  0
 25 24  1  0  0  0  0
 26 28  1  0  0  0  0
 28 25  1  0  0  0  0
 28 27  1  1  0  0  0
M  END
>  <MODEL>
8

>  <REMARK>
 VINA RESULT:      -7.0      1.855      3.428
  Name = 
  5 active torsions:
  status: ('A' for Active; 'I' for Inactive)
    1  A    between atoms: C_4  and  C_19
    2  A    between atoms: C_6  and  C_19
    3  A    between atoms: C_11  and  C_16
    4  A    between atoms: C_11  and  C_22
    5  A    between atoms: C_16  and  C_19
                            x       y       z     vdW  Elec       q    Type
                         _______ _______ _______ _____ _____    ______ ____

>  <TORSDO>
F 5

$$$$
=
 OpenBabel11062423093D

 28 32  0  0  1  0  0  0  0  0999 V2000
  183.7810  178.5360  142.7150 C   0  0  0  0  0  0  0  0  0  0  0  0
  190.1580  176.9450  143.5720 S   0  0  0  0  0  0  0  0  0  0  0  0
  191.3880  175.9260  144.5060 C   0  0  1  0  0  3  0  0  0  0  0  0
  185.9470  178.3440  145.5670 C   0  0  0  0  0  0  0  0  0  0  0  0
  187.6430  176.9570  144.9300 C   0  0  0  0  0  0  0  0  0  0  0  0
  186.0630  177.4870  146.5400 N   0  0  0  0  0  0  0  0  0  0  0  0
  182.4870  178.8800  143.0830 O   0  0  0  0  0  1  0  0  0  0  0  0
  186.0860  178.1000  143.3000 C   0  0  0  0  0  0  0  0  0  0  0  0
  184.6570  178.6830  145.0620 N   0  0  0  0  0  2  0  0  0  0  0  0
  184.8020  178.4670  143.6630 C   0  0  0  0  0  0  0  0  0  0  0  0
  188.2410  175.7910  147.0950 S   0  0  0  0  0  0  0  0  0  0  0  0
  190.8210  175.4310  145.8550 C   0  0  1  0  0  3  0  0  0  0  0  0
  185.4010  177.8960  141.0070 C   0  0  0  0  0  3  0  0  0  0  0  0
  184.0880  178.2470  141.3760 C   0  0  0  0  0  3  0  0  0  0  0  0
  186.9890  178.2050  144.4740 C   0  0  1  0  0  3  0  0  0  0  0  0
  188.9260  176.4620  144.7470 C   0  0  0  0  0  0  0  0  0  0  0  0
  186.4190  177.8300  141.9730 C   0  0  0  0  0  3  0  0  0  0  0  0
  187.1380  176.6530  146.1520 C   0  0  0  0  0  0  0  0  0  0  0  0
  191.5120  176.1760  146.9810 C   0  0  0  0  0  1  0  0  0  0  0  0
  189.3780  175.7620  145.8290 C   0  0  0  0  0  0  0  0  0  0  0  0
  191.9440  174.7970  143.6300 C   0  0  2  0  0  3  0  0  0  0  0  0
  191.0130  172.5830  143.9340 O   0  0  0  0  0  1  0  0  0  0  0  0
  192.0340  173.4440  144.3440 C   0  0  0  0  0  2  0  0  0  0  0  0
  193.2610  175.1990  142.9750 C   0  0  0  0  0  2  0  0  0  0  0  0
  194.0540  176.1140  143.8930 C   0  0  0  0  0  2  0  0  0  0  0  0
  196.4060  175.8400  144.1740 O   0  0  0  0  0  1  0  0  0  0  0  0
  195.0300  175.4760  146.0720 C   0  0  0  0  0  1  0  0  0  0  0  0
  195.1670  175.3390  144.5710 C   0  0  1  0  0  3  0  0  0  0  0  0
  1  7  1  0  0  0  0
  1 10  1  0  0  0  0
  2  3  1  0  0  0  0
  2 16  1  0  0  0  0
  3 21  1  6  0  0  0
  3 12  1  0  0  0  0
  4  6  2  0  0  0  0
  5 18  2  0  0  0  0
  8 10  2  0  0  0  0
  9  4  1  0  0  0  0
 10  9  1  0  0  0  0
 12 19  1  1  0  0  0
 13 14  1  0  0  0  0
 13 17  2  0  0  0  0
 14  1  2  0  0  0  0
 15  8  1  6  0  0  0
 15  5  1  0  0  0  0
 15  4  1  0  0  0  0
 16  5  1  0  0  0  0
 16 20  2  0  0  0  0
 17  8  1  0  0  0  0
 18  6  1  0  0  0  0
 18 11  1  0  0  0  0
 20 12  1  0  0  0  0
 20 11  1  0  0  0  0
 21 24  1  1  0  0  0
 21 23  1  0  0  0  0
 22 23  1  0  0  0  0
 24 25  1  0  0  0  0
 25 28  1  0  0  0  0
 26 28  1  0  0  0  0
 28 27  1  1  0  0  0
M  END
>  <MODEL>
9

>  <REMARK>
 VINA RESULT:      -6.9      1.012      1.278
  Name = 
  5 active torsions:
  status: ('A' for Active; 'I' for Inactive)
    1  A    between atoms: C_4  and  C_19
    2  A    between atoms: C_6  and  C_19
    3  A    between atoms: C_11  and  C_16
    4  A    between atoms: C_11  and  C_22
    5  A    between atoms: C_16  and  C_19
                            x       y       z     vdW  Elec       q    Type
                         _______ _______ _______ _____ _____    ______ ____

>  <TORSDO>
F 5

$$$$
