=
 OpenBabel11062422083D

 27 31  0  0  1  0  0  0  0  0999 V2000
  193.3790  176.0470  142.6530 C   0  0  0  0  0  3  0  0  0  0  0  0
  191.8930  176.2140  144.5220 N   0  0  0  0  0  0  0  0  0  0  0  0
  192.2960  176.7260  147.9700 N   0  0  0  0  0  0  0  0  0  0  0  0
  190.9670  176.6300  147.9130 N   0  0  0  0  0  2  0  0  0  0  0  0
  191.7230  176.3920  145.8570 C   0  0  0  0  0  0  0  0  0  0  0  0
  192.7590  176.5820  146.7160 C   0  0  0  0  0  0  0  0  0  0  0  0
  195.5760  176.4340  144.3650 C   0  0  0  0  0  3  0  0  0  0  0  0
  194.6800  176.0600  142.1410 C   0  0  0  0  0  3  0  0  0  0  0  0
  197.0610  176.2630  142.4720 O   0  0  0  0  0  1  0  0  0  0  0  0
  194.0760  176.6060  146.2720 C   0  0  0  0  0  3  0  0  0  0  0  0
  195.7740  176.2530  142.9930 C   0  0  0  0  0  0  0  0  0  0  0  0
  194.2820  176.4240  144.8910 C   0  0  0  0  0  0  0  0  0  0  0  0
  193.1640  176.2270  144.0220 C   0  0  0  0  0  0  0  0  0  0  0  0
  190.5890  176.4250  146.6270 C   0  0  0  0  0  0  0  0  0  0  0  0
  188.8160  175.1540  145.6450 N   0  0  0  0  0  2  0  0  0  0  0  0
  189.1970  176.2680  146.1800 C   0  0  0  0  0  0  0  0  0  0  0  0
  188.2760  177.3540  146.3240 N   0  0  0  0  0  2  0  0  0  0  0  0
  184.4930  177.7560  146.6840 C   0  0  0  0  0  2  0  0  0  0  0  0
  185.9750  177.6820  147.0960 C   0  0  0  0  0  2  0  0  0  0  0  0
  186.5150  178.6480  142.4200 C   0  0  2  0  0  3  0  0  0  0  0  0
  186.8790  177.2770  145.9180 C   0  0  1  0  0  3  0  0  0  0  0  0
  186.3930  177.7040  141.2420 C   0  0  0  0  0  1  0  0  0  0  0  0
  187.3880  178.0090  143.5010 C   0  0  0  0  0  2  0  0  0  0  0  0
  185.1890  178.1260  144.3470 C   0  0  2  0  0  3  0  0  0  0  0  0
  184.2910  178.6500  145.4530 C   0  0  0  0  0  2  0  0  0  0  0  0
  186.6200  178.2510  144.7770 C   0  0  1  0  0  3  0  0  0  0  0  0
  185.1390  178.8850  143.0450 C   0  0  0  0  0  2  0  0  0  0  0  0
  1 13  1  0  0  0  0
  2  5  1  0  0  0  0
  4  3  1  0  0  0  0
  5 14  2  0  0  0  0
  5  6  1  0  0  0  0
  6  3  2  0  0  0  0
  7 12  1  0  0  0  0
  8  1  2  0  0  0  0
  8 11  1  0  0  0  0
  9 11  1  0  0  0  0
 10  6  1  0  0  0  0
 11  7  2  0  0  0  0
 12 10  2  0  0  0  0
 13  2  2  0  0  0  0
 13 12  1  0  0  0  0
 14  4  1  0  0  0  0
 15 16  2  0  0  0  0
 16 17  1  0  0  0  0
 16 14  1  0  0  0  0
 18 19  1  0  0  0  0
 20 22  1  6  0  0  0
 20 27  1  0  0  0  0
 20 23  1  0  0  0  0
 21 17  1  1  0  0  0
 21 19  1  0  0  0  0
 24 27  1  6  0  0  0
 24 26  1  0  0  0  0
 24 25  1  0  0  0  0
 25 18  1  0  0  0  0
 26 23  1  6  0  0  0
 26 21  1  0  0  0  0
M  END
>  <MODEL>
1

>  <REMARK>
 VINA RESULT:      -8.6      0.000      0.000
  Name = 
  2 active torsions:
  status: ('A' for Active; 'I' for Inactive)
    1  A    between atoms: C_8  and  N_18
    2  A    between atoms: C_14  and  C_26
                            x       y       z     vdW  Elec       q    Type
                         _______ _______ _______ _____ _____    ______ ____

>  <TORSDO>
F 2

$$$$
=
 OpenBabel11062422083D

 27 31  0  0  1  0  0  0  0  0999 V2000
  193.6210  175.6270  141.6480 C   0  0  0  0  0  3  0  0  0  0  0  0
  192.3500  175.8490  143.6640 N   0  0  0  0  0  0  0  0  0  0  0  0
  193.1160  176.5890  147.0070 N   0  0  0  0  0  0  0  0  0  0  0  0
  191.7950  176.4360  147.1090 N   0  0  0  0  0  2  0  0  0  0  0  0
  192.3240  176.1020  144.9960 C   0  0  0  0  0  0  0  0  0  0  0  0
  193.4410  176.3860  145.7180 C   0  0  0  0  0  0  0  0  0  0  0  0
  195.9780  176.2070  143.0700 C   0  0  0  0  0  3  0  0  0  0  0  0
  194.8540  175.6600  140.9890 C   0  0  0  0  0  3  0  0  0  0  0  0
  197.2450  175.9780  141.0300 O   0  0  0  0  0  1  0  0  0  0  0  0
  194.6960  176.4350  145.1240 C   0  0  0  0  0  3  0  0  0  0  0  0
  196.0270  175.9490  141.6960 C   0  0  0  0  0  0  0  0  0  0  0  0
  194.7530  176.1770  143.7420 C   0  0  0  0  0  0  0  0  0  0  0  0
  193.5550  175.8820  143.0200 C   0  0  0  0  0  0  0  0  0  0  0  0
  191.2840  176.1370  145.8890 C   0  0  0  0  0  0  0  0  0  0  0  0
  189.4660  174.7240  145.2400 N   0  0  0  0  0  2  0  0  0  0  0  0
  189.8590  175.8970  145.6170 C   0  0  0  0  0  0  0  0  0  0  0  0
  188.9190  176.9670  145.7520 N   0  0  0  0  0  2  0  0  0  0  0  0
  185.1990  176.9250  146.6290 C   0  0  0  0  0  2  0  0  0  0  0  0
  186.7250  176.9410  146.8410 C   0  0  0  0  0  2  0  0  0  0  0  0
  186.5440  178.6470  142.3520 C   0  0  2  0  0  3  0  0  0  0  0  0
  187.4900  176.8110  145.5120 C   0  0  1  0  0  3  0  0  0  0  0  0
  186.3400  177.8830  141.0600 C   0  0  0  0  0  1  0  0  0  0  0  0
  187.6040  177.9450  143.2010 C   0  0  0  0  0  2  0  0  0  0  0  0
  185.5390  177.7100  144.3160 C   0  0  2  0  0  3  0  0  0  0  0  0
  184.7600  177.9680  145.5930 C   0  0  0  0  0  2  0  0  0  0  0  0
  187.0010  177.9140  144.5830 C   0  0  1  0  0  3  0  0  0  0  0  0
  185.2510  178.6470  143.1700 C   0  0  0  0  0  2  0  0  0  0  0  0
  1 13  1  0  0  0  0
  2  5  1  0  0  0  0
  3  4  1  0  0  0  0
  5  6  1  0  0  0  0
  5 14  2  0  0  0  0
  6  3  2  0  0  0  0
  7 12  1  0  0  0  0
  8  1  2  0  0  0  0
  8 11  1  0  0  0  0
  9 11  1  0  0  0  0
 10  6  1  0  0  0  0
 11  7  2  0  0  0  0
 12 10  2  0  0  0  0
 13  2  2  0  0  0  0
 13 12  1  0  0  0  0
 14  4  1  0  0  0  0
 15 16  2  0  0  0  0
 16 17  1  0  0  0  0
 16 14  1  0  0  0  0
 18 19  1  0  0  0  0
 20 22  1  6  0  0  0
 20 27  1  0  0  0  0
 20 23  1  0  0  0  0
 21 17  1  1  0  0  0
 21 19  1  0  0  0  0
 24 27  1  6  0  0  0
 24 26  1  0  0  0  0
 24 25  1  0  0  0  0
 25 18  1  0  0  0  0
 26 23  1  6  0  0  0
 26 21  1  0  0  0  0
M  END
>  <MODEL>
2

>  <REMARK>
 VINA RESULT:      -8.2      0.891      1.026
  Name = 
  2 active torsions:
  status: ('A' for Active; 'I' for Inactive)
    1  A    between atoms: C_8  and  N_18
    2  A    between atoms: C_14  and  C_26
                            x       y       z     vdW  Elec       q    Type
                         _______ _______ _______ _____ _____    ______ ____

>  <TORSDO>
F 2

$$$$
=
 OpenBabel11062422083D

 27 31  0  0  1  0  0  0  0  0999 V2000
  193.6720  176.2100  145.7460 C   0  0  0  0  0  3  0  0  0  0  0  0
  191.7890  176.0800  144.2740 N   0  0  0  0  0  0  0  0  0  0  0  0
  190.7390  173.8380  141.7880 N   0  0  0  0  0  0  0  0  0  0  0  0
  189.7390  174.7190  141.7310 N   0  0  0  0  0  0  0  0  0  0  0  0
  191.1320  175.4190  143.2890 C   0  0  0  0  0  0  0  0  0  0  0  0
  191.5900  174.2640  142.7380 C   0  0  0  0  0  0  0  0  0  0  0  0
  194.6870  173.8230  144.6590 C   0  0  0  0  0  3  0  0  0  0  0  0
  194.8760  175.6760  146.2150 C   0  0  0  0  0  2  0  0  0  0  0  0
  196.5790  173.9680  146.1480 O   0  0  0  0  0  1  0  0  0  0  0  0
  192.7790  173.6810  143.1590 C   0  0  0  0  0  3  0  0  0  0  0  0
  195.3820  174.4880  145.6740 C   0  0  0  0  0  0  0  0  0  0  0  0
  193.4830  174.3450  144.1800 C   0  0  0  0  0  0  0  0  0  0  0  0
  192.9660  175.5580  144.7320 C   0  0  0  0  0  0  0  0  0  0  0  0
  189.9540  175.7000  142.6430 C   0  0  0  0  0  0  0  0  0  0  0  0
  189.3630  178.0010  142.3700 N   0  0  0  0  0  2  0  0  0  0  0  0
  189.0600  176.8450  142.8650 C   0  0  0  0  0  0  0  0  0  0  0  0
  187.8700  176.6790  143.6420 N   0  0  0  0  0  2  0  0  0  0  0  0
  184.6950  178.7500  143.1610 C   0  0  0  0  0  2  0  0  0  0  0  0
  185.7970  177.7190  142.8550 C   0  0  0  0  0  2  0  0  0  0  0  0
  186.3410  178.0490  147.6180 C   0  0  2  0  0  3  0  0  0  0  0  0
  186.9260  177.7590  143.9000 C   0  0  1  0  0  3  0  0  0  0  0  0
  187.0360  179.1340  148.4150 C   0  0  0  0  0  1  0  0  0  0  0  0
  187.2340  177.6170  146.4540 C   0  0  0  0  0  2  0  0  0  0  0  0
  185.3610  178.7170  145.5360 C   0  0  2  0  0  3  0  0  0  0  0  0
  184.1720  178.6120  144.5970 C   0  0  0  0  0  2  0  0  0  0  0  0
  186.2960  177.5740  145.2730 C   0  0  1  0  0  3  0  0  0  0  0  0
  185.0500  178.5950  147.0060 C   0  0  0  0  0  2  0  0  0  0  0  0
  1  8  1  0  0  0  0
  2 13  1  0  0  0  0
  3  6  2  0  0  0  0
  4  3  1  0  0  0  0
  4 14  2  0  0  0  0
  5  2  2  0  0  0  0
  6 10  1  0  0  0  0
  6  5  1  0  0  0  0
  7 11  2  0  0  0  0
 10 12  2  0  0  0  0
 11  9  1  0  0  0  0
 11  8  1  0  0  0  0
 12  7  1  0  0  0  0
 12 13  1  0  0  0  0
 13  1  2  0  0  0  0
 14 16  1  0  0  0  0
 14  5  1  0  0  0  0
 15 16  2  0  0  0  0
 16 17  1  0  0  0  0
 18 25  1  0  0  0  0
 19 18  1  0  0  0  0
 19 21  1  0  0  0  0
 20 22  1  6  0  0  0
 21 17  1  6  0  0  0
 21 26  1  0  0  0  0
 23 20  1  0  0  0  0
 24 25  1  6  0  0  0
 24 27  1  0  0  0  0
 26 24  1  0  0  0  0
 26 23  1  1  0  0  0
 27 20  1  0  0  0  0
M  END
>  <MODEL>
3

>  <REMARK>
 VINA RESULT:      -8.1      2.239      3.912
  Name = 
  2 active torsions:
  status: ('A' for Active; 'I' for Inactive)
    1  A    between atoms: C_8  and  N_18
    2  A    between atoms: C_14  and  C_26
                            x       y       z     vdW  Elec       q    Type
                         _______ _______ _______ _____ _____    ______ ____

>  <TORSDO>
F 2

$$$$
=
 OpenBabel11062422083D

 27 31  0  0  1  0  0  0  0  0999 V2000
  186.2750  177.9370  141.1250 C   0  0  0  0  0  3  0  0  0  0  0  0
  187.5630  177.6630  143.1250 N   0  0  0  0  0  0  0  0  0  0  0  0
  186.8280  177.6010  146.5550 N   0  0  0  0  0  0  0  0  0  0  0  0
  188.1480  177.4180  146.6060 N   0  0  0  0  0  2  0  0  0  0  0  0
  187.6000  177.5930  144.4790 C   0  0  0  0  0  0  0  0  0  0  0  0
  186.4920  177.7070  145.2580 C   0  0  0  0  0  0  0  0  0  0  0  0
  183.9350  178.1830  142.6660 C   0  0  0  0  0  3  0  0  0  0  0  0
  185.0380  178.1370  140.5050 C   0  0  0  0  0  3  0  0  0  0  0  0
  182.6510  178.4580  140.6430 O   0  0  0  0  0  1  0  0  0  0  0  0
  185.2330  177.9070  144.7040 C   0  0  0  0  0  3  0  0  0  0  0  0
  183.8730  178.2600  141.2710 C   0  0  0  0  0  0  0  0  0  0  0  0
  185.1630  177.9840  143.3010 C   0  0  0  0  0  0  0  0  0  0  0  0
  186.3540  177.8590  142.5180 C   0  0  0  0  0  0  0  0  0  0  0  0
  188.6480  177.4080  145.3450 C   0  0  0  0  0  0  0  0  0  0  0  0
  190.6390  178.0470  144.1860 N   0  0  0  0  0  2  0  0  0  0  0  0
  190.0680  177.2310  145.0100 C   0  0  0  0  0  0  0  0  0  0  0  0
  190.8050  176.1470  145.5840 N   0  0  0  0  0  2  0  0  0  0  0  0
  194.5760  176.4150  146.1400 C   0  0  0  0  0  2  0  0  0  0  0  0
  193.0770  176.7350  146.2860 C   0  0  0  0  0  2  0  0  0  0  0  0
  192.7560  172.2350  144.6320 C   0  0  2  0  0  3  0  0  0  0  0  0
  192.2170  175.9080  145.3140 C   0  0  1  0  0  3  0  0  0  0  0  0
  192.9100  171.7400  143.2080 C   0  0  0  0  0  1  0  0  0  0  0  0
  191.8260  173.4480  144.6540 C   0  0  0  0  0  2  0  0  0  0  0  0
  193.9880  174.2060  145.2150 C   0  0  2  0  0  3  0  0  0  0  0  0
  194.8480  174.9090  146.2500 C   0  0  0  0  0  2  0  0  0  0  0  0
  192.5420  174.4380  145.5390 C   0  0  1  0  0  3  0  0  0  0  0  0
  194.1090  172.7040  145.1720 C   0  0  0  0  0  2  0  0  0  0  0  0
  1 13  1  0  0  0  0
  2  5  1  0  0  0  0
  3  4  1  0  0  0  0
  5  6  1  0  0  0  0
  5 14  2  0  0  0  0
  6  3  2  0  0  0  0
  7 12  1  0  0  0  0
  8  1  2  0  0  0  0
  8 11  1  0  0  0  0
  9 11  1  0  0  0  0
 10  6  1  0  0  0  0
 11  7  2  0  0  0  0
 12 10  2  0  0  0  0
 13  2  2  0  0  0  0
 13 12  1  0  0  0  0
 14  4  1  0  0  0  0
 15 16  2  0  0  0  0
 16 14  1  0  0  0  0
 16 17  1  0  0  0  0
 18 25  1  0  0  0  0
 18 19  1  0  0  0  0
 20 22  1  6  0  0  0
 20 23  1  0  0  0  0
 20 27  1  0  0  0  0
 21 26  1  0  0  0  0
 21 17  1  1  0  0  0
 21 19  1  0  0  0  0
 24 27  1  1  0  0  0
 24 26  1  0  0  0  0
 24 25  1  0  0  0  0
 26 23  1  6  0  0  0
M  END
>  <MODEL>
4

>  <REMARK>
 VINA RESULT:      -8.0      3.490      8.239
  Name = 
  2 active torsions:
  status: ('A' for Active; 'I' for Inactive)
    1  A    between atoms: C_8  and  N_18
    2  A    between atoms: C_14  and  C_26
                            x       y       z     vdW  Elec       q    Type
                         _______ _______ _______ _____ _____    ______ ____

>  <TORSDO>
F 2

$$$$
=
 OpenBabel11062422083D

 27 31  0  0  1  0  0  0  0  0999 V2000
  187.3420  178.0500  143.1070 C   0  0  0  0  0  3  0  0  0  0  0  0
  188.7760  176.4950  144.2270 N   0  0  0  0  0  0  0  0  0  0  0  0
  188.8140  175.0010  147.4010 N   0  0  0  0  0  0  0  0  0  0  0  0
  189.9110  174.4490  146.8820 N   0  0  0  0  0  2  0  0  0  0  0  0
  189.0600  175.7740  145.3400 C   0  0  0  0  0  0  0  0  0  0  0  0
  188.2930  175.8100  146.4620 C   0  0  0  0  0  0  0  0  0  0  0  0
  185.7020  178.1800  145.3890 C   0  0  0  0  0  3  0  0  0  0  0  0
  186.2070  178.8670  143.1170 C   0  0  0  0  0  3  0  0  0  0  0  0
  184.2670  179.7470  144.2490 O   0  0  0  0  0  1  0  0  0  0  0  0
  187.1520  176.6000  146.5360 C   0  0  0  0  0  3  0  0  0  0  0  0
  185.3910  178.9320  144.2520 C   0  0  0  0  0  0  0  0  0  0  0  0
  186.8330  177.3600  145.3950 C   0  0  0  0  0  0  0  0  0  0  0  0
  187.6670  177.2930  144.2350 C   0  0  0  0  0  0  0  0  0  0  0  0
  190.0860  174.9060  145.6170 C   0  0  0  0  0  0  0  0  0  0  0  0
  191.1710  173.3650  144.1430 N   0  0  0  0  0  2  0  0  0  0  0  0
  191.1940  174.5160  144.7330 C   0  0  0  0  0  0  0  0  0  0  0  0
  192.3000  175.4040  144.5450 N   0  0  0  0  0  2  0  0  0  0  0  0
  194.7550  175.9370  141.6650 C   0  0  0  0  0  2  0  0  0  0  0  0
  193.4970  176.1250  142.5330 C   0  0  0  0  0  2  0  0  0  0  0  0
  196.4000  174.1190  145.7950 C   0  0  2  0  0  3  0  0  0  0  0  0
  193.4320  175.0990  143.6780 C   0  0  1  0  0  3  0  0  0  0  0  0
  196.7690  172.6590  145.9580 C   0  0  0  0  0  1  0  0  0  0  0  0
  194.8850  174.2490  145.6290 C   0  0  0  0  0  2  0  0  0  0  0  0
  195.8740  174.8450  143.5720 C   0  0  2  0  0  3  0  0  0  0  0  0
  196.0330  175.9230  142.5150 C   0  0  0  0  0  2  0  0  0  0  0  0
  194.7280  175.2030  144.4700 C   0  0  1  0  0  3  0  0  0  0  0  0
  197.0350  174.6800  144.5210 C   0  0  0  0  0  2  0  0  0  0  0  0
  1  8  2  0  0  0  0
  1 13  1  0  0  0  0
  2 13  2  0  0  0  0
  2  5  1  0  0  0  0
  4  3  1  0  0  0  0
  5 14  2  0  0  0  0
  5  6  1  0  0  0  0
  6 10  1  0  0  0  0
  6  3  2  0  0  0  0
  7 12  1  0  0  0  0
  8 11  1  0  0  0  0
  9 11  1  0  0  0  0
 11  7  2  0  0  0  0
 12 10  2  0  0  0  0
 13 12  1  0  0  0  0
 14  4  1  0  0  0  0
 15 16  2  0  0  0  0
 16 14  1  0  0  0  0
 17 16  1  0  0  0  0
 18 25  1  0  0  0  0
 18 19  1  0  0  0  0
 19 21  1  0  0  0  0
 20 22  1  6  0  0  0
 21 26  1  0  0  0  0
 21 17  1  1  0  0  0
 23 20  1  0  0  0  0
 24 25  1  6  0  0  0
 24 26  1  0  0  0  0
 24 27  1  0  0  0  0
 26 23  1  1  0  0  0
 27 20  1  0  0  0  0
M  END
>  <MODEL>
5

>  <REMARK>
 VINA RESULT:      -7.9      3.087      8.398
  Name = 
  2 active torsions:
  status: ('A' for Active; 'I' for Inactive)
    1  A    between atoms: C_8  and  N_18
    2  A    between atoms: C_14  and  C_26
                            x       y       z     vdW  Elec       q    Type
                         _______ _______ _______ _____ _____    ______ ____

>  <TORSDO>
F 2

$$$$
=
 OpenBabel11062422083D

 27 31  0  0  1  0  0  0  0  0999 V2000
  192.1270  172.3030  144.1180 C   0  0  0  0  0  3  0  0  0  0  0  0
  191.2710  174.1250  145.4140 N   0  0  0  0  0  0  0  0  0  0  0  0
  192.7030  176.6560  147.3770 N   0  0  0  0  0  0  0  0  0  0  0  0
  191.4130  176.9610  147.5250 N   0  0  0  0  0  2  0  0  0  0  0  0
  191.5140  175.1910  146.2170 C   0  0  0  0  0  0  0  0  0  0  0  0
  192.7660  175.5760  146.5790 C   0  0  0  0  0  0  0  0  0  0  0  0
  194.7500  173.0350  144.8200 C   0  0  0  0  0  3  0  0  0  0  0  0
  193.2170  171.5680  143.6410 C   0  0  0  0  0  3  0  0  0  0  0  0
  195.5960  171.1950  143.5110 O   0  0  0  0  0  1  0  0  0  0  0  0
  193.8920  174.8890  146.1400 C   0  0  0  0  0  3  0  0  0  0  0  0
  194.5220  171.9320  143.9910 C   0  0  0  0  0  0  0  0  0  0  0  0
  193.6710  173.7780  145.3040 C   0  0  0  0  0  0  0  0  0  0  0  0
  192.3360  173.4070  144.9480 C   0  0  0  0  0  0  0  0  0  0  0  0
  190.6610  176.0780  146.8230 C   0  0  0  0  0  0  0  0  0  0  0  0
  188.5110  175.1220  147.2520 N   0  0  0  0  0  2  0  0  0  0  0  0
  189.1930  176.1010  146.7530 C   0  0  0  0  0  0  0  0  0  0  0  0
  188.5280  177.1980  146.1180 N   0  0  0  0  0  2  0  0  0  0  0  0
  184.9940  178.1430  147.2240 C   0  0  0  0  0  2  0  0  0  0  0  0
  186.5080  177.8770  147.3250 C   0  0  0  0  0  2  0  0  0  0  0  0
  186.1540  178.5740  142.5840 C   0  0  2  0  0  3  0  0  0  0  0  0
  187.0780  177.3030  146.0160 C   0  0  1  0  0  3  0  0  0  0  0  0
  185.6610  177.6110  141.5230 C   0  0  0  0  0  1  0  0  0  0  0  0
  187.1470  177.8600  143.5010 C   0  0  0  0  0  2  0  0  0  0  0  0
  185.2150  178.3190  144.7740 C   0  0  2  0  0  3  0  0  0  0  0  0
  184.6500  179.0070  146.0040 C   0  0  0  0  0  2  0  0  0  0  0  0
  186.7090  178.2580  144.8890 C   0  0  1  0  0  3  0  0  0  0  0  0
  184.9860  179.0270  143.4620 C   0  0  0  0  0  2  0  0  0  0  0  0
  1 13  1  0  0  0  0
  2  5  1  0  0  0  0
  3  4  1  0  0  0  0
  5  6  1  0  0  0  0
  5 14  2  0  0  0  0
  6  3  2  0  0  0  0
  7 12  1  0  0  0  0
  8 11  1  0  0  0  0
  8  1  2  0  0  0  0
  9 11  1  0  0  0  0
 10  6  1  0  0  0  0
 11  7  2  0  0  0  0
 12 10  2  0  0  0  0
 13 12  1  0  0  0  0
 13  2  2  0  0  0  0
 14  4  1  0  0  0  0
 16 14  1  0  0  0  0
 16 15  2  0  0  0  0
 17 16  1  0  0  0  0
 18 19  1  0  0  0  0
 20 22  1  6  0  0  0
 20 27  1  0  0  0  0
 20 23  1  0  0  0  0
 21 17  1  1  0  0  0
 21 19  1  0  0  0  0
 24 27  1  6  0  0  0
 24 26  1  0  0  0  0
 24 25  1  0  0  0  0
 25 18  1  0  0  0  0
 26 23  1  6  0  0  0
 26 21  1  0  0  0  0
M  END
>  <MODEL>
6

>  <REMARK>
 VINA RESULT:      -7.8      2.226      2.281
  Name = 
  2 active torsions:
  status: ('A' for Active; 'I' for Inactive)
    1  A    between atoms: C_8  and  N_18
    2  A    between atoms: C_14  and  C_26
                            x       y       z     vdW  Elec       q    Type
                         _______ _______ _______ _____ _____    ______ ____

>  <TORSDO>
F 2

$$$$
=
 OpenBabel11062422083D

 27 31  0  0  1  0  0  0  0  0999 V2000
  186.7850  176.9870  141.6870 C   0  0  0  0  0  3  0  0  0  0  0  0
  187.3250  176.5020  143.9680 N   0  0  0  0  0  0  0  0  0  0  0  0
  185.8250  177.1790  147.0670 N   0  0  0  0  0  0  0  0  0  0  0  0
  186.9010  176.5090  147.4810 N   0  0  0  0  0  2  0  0  0  0  0  0
  187.0020  176.6010  145.2820 C   0  0  0  0  0  0  0  0  0  0  0  0
  185.8850  177.2360  145.7250 C   0  0  0  0  0  0  0  0  0  0  0  0
  184.4530  178.3190  142.5220 C   0  0  0  0  0  3  0  0  0  0  0  0
  185.9270  177.5660  140.7470 C   0  0  0  0  0  3  0  0  0  0  0  0
  183.9230  178.8000  140.2190 O   0  0  0  0  0  1  0  0  0  0  0  0
  184.9910  177.8320  144.8430 C   0  0  0  0  0  3  0  0  0  0  0  0
  184.7660  178.2290  141.1620 C   0  0  0  0  0  0  0  0  0  0  0  0
  185.3000  177.7460  143.4730 C   0  0  0  0  0  0  0  0  0  0  0  0
  186.4870  177.0680  143.0490 C   0  0  0  0  0  0  0  0  0  0  0  0
  187.6410  176.1410  146.4060 C   0  0  0  0  0  0  0  0  0  0  0  0
  189.3710  175.0290  147.6260 N   0  0  0  0  0  2  0  0  0  0  0  0
  188.9000  175.3870  146.4760 C   0  0  0  0  0  0  0  0  0  0  0  0
  189.6080  175.0690  145.2740 N   0  0  0  0  0  2  0  0  0  0  0  0
  192.0090  172.2860  144.2290 C   0  0  0  0  0  2  0  0  0  0  0  0
  190.6820  173.0490  144.4000 C   0  0  0  0  0  2  0  0  0  0  0  0
  193.7550  176.7080  144.9060 C   0  0  2  0  0  3  0  0  0  0  0  0
  190.8560  174.3160  145.2550 C   0  0  1  0  0  3  0  0  0  0  0  0
  194.5790  177.0870  146.1190 C   0  0  0  0  0  1  0  0  0  0  0  0
  192.3110  176.4420  145.3310 C   0  0  0  0  0  2  0  0  0  0  0  0
  193.2380  174.3820  144.6520 C   0  0  2  0  0  3  0  0  0  0  0  0
  193.1250  173.2000  143.7050 C   0  0  0  0  0  2  0  0  0  0  0  0
  191.9550  175.1580  144.6220 C   0  0  1  0  0  3  0  0  0  0  0  0
  194.2850  175.4080  144.2980 C   0  0  0  0  0  2  0  0  0  0  0  0
  1 13  1  0  0  0  0
  2  5  1  0  0  0  0
  3  4  1  0  0  0  0
  5  6  1  0  0  0  0
  5 14  2  0  0  0  0
  6  3  2  0  0  0  0
  7 12  1  0  0  0  0
  8 11  1  0  0  0  0
  8  1  2  0  0  0  0
  9 11  1  0  0  0  0
 10  6  1  0  0  0  0
 11  7  2  0  0  0  0
 12 10  2  0  0  0  0
 13 12  1  0  0  0  0
 13  2  2  0  0  0  0
 14 16  1  0  0  0  0
 14  4  1  0  0  0  0
 16 15  2  0  0  0  0
 17 16  1  0  0  0  0
 18 19  1  0  0  0  0
 19 21  1  0  0  0  0
 20 23  1  0  0  0  0
 20 22  1  1  0  0  0
 21 17  1  6  0  0  0
 24 25  1  6  0  0  0
 25 18  1  0  0  0  0
 26 24  1  0  0  0  0
 26 21  1  0  0  0  0
 26 23  1  1  0  0  0
 27 24  1  0  0  0  0
 27 20  1  0  0  0  0
M  END
>  <MODEL>
7

>  <REMARK>
 VINA RESULT:      -7.7      3.195      7.788
  Name = 
  2 active torsions:
  status: ('A' for Active; 'I' for Inactive)
    1  A    between atoms: C_8  and  N_18
    2  A    between atoms: C_14  and  C_26
                            x       y       z     vdW  Elec       q    Type
                         _______ _______ _______ _____ _____    ______ ____

>  <TORSDO>
F 2

$$$$
=
 OpenBabel11062422083D

 27 31  0  0  1  0  0  0  0  0999 V2000
  187.0250  178.0900  143.1200 C   0  0  0  0  0  3  0  0  0  0  0  0
  188.5650  176.6850  144.2960 N   0  0  0  0  0  0  0  0  0  0  0  0
  188.6100  175.1560  147.4540 N   0  0  0  0  0  0  0  0  0  0  0  0
  189.7860  174.7360  146.9860 N   0  0  0  0  0  2  0  0  0  0  0  0
  188.8720  175.9820  145.4150 C   0  0  0  0  0  0  0  0  0  0  0  0
  188.0510  175.9170  146.4970 C   0  0  0  0  0  0  0  0  0  0  0  0
  185.2700  178.0050  145.3160 C   0  0  0  0  0  3  0  0  0  0  0  0
  185.8080  178.7780  143.0790 C   0  0  0  0  0  3  0  0  0  0  0  0
  183.7300  179.4230  144.1200 O   0  0  0  0  0  1  0  0  0  0  0  0
  186.8270  176.5760  146.5200 C   0  0  0  0  0  3  0  0  0  0  0  0
  184.9350  178.7360  144.1720 C   0  0  0  0  0  0  0  0  0  0  0  0
  186.4830  177.3140  145.3720 C   0  0  0  0  0  0  0  0  0  0  0  0
  187.3760  177.3560  144.2560 C   0  0  0  0  0  0  0  0  0  0  0  0
  189.9710  175.2270  145.7350 C   0  0  0  0  0  0  0  0  0  0  0  0
  191.0140  174.5830  143.6820 N   0  0  0  0  0  2  0  0  0  0  0  0
  191.1580  174.9750  144.9060 C   0  0  0  0  0  0  0  0  0  0  0  0
  192.4650  175.1460  145.4620 N   0  0  0  0  0  2  0  0  0  0  0  0
  195.8780  176.0270  143.9850 C   0  0  0  0  0  2  0  0  0  0  0  0
  194.5050  176.2330  144.6520 C   0  0  0  0  0  2  0  0  0  0  0  0
  195.1550  171.5750  145.6340 C   0  0  2  0  0  3  0  0  0  0  0  0
  193.6920  174.9280  144.7060 C   0  0  1  0  0  3  0  0  0  0  0  0
  194.9660  170.3820  144.7190 C   0  0  0  0  0  1  0  0  0  0  0  0
  193.9420  172.4990  145.5280 C   0  0  0  0  0  2  0  0  0  0  0  0
  195.7800  173.6370  144.5850 C   0  0  2  0  0  3  0  0  0  0  0  0
  196.6570  174.8750  144.6350 C   0  0  0  0  0  2  0  0  0  0  0  0
  194.5450  173.8760  145.4010 C   0  0  1  0  0  3  0  0  0  0  0  0
  196.3720  172.3880  145.1890 C   0  0  0  0  0  2  0  0  0  0  0  0
  1 13  1  0  0  0  0
  2  5  1  0  0  0  0
  4  3  1  0  0  0  0
  5 14  2  0  0  0  0
  5  6  1  0  0  0  0
  6 10  1  0  0  0  0
  6  3  2  0  0  0  0
  7 12  1  0  0  0  0
  8  1  2  0  0  0  0
  8 11  1  0  0  0  0
  9 11  1  0  0  0  0
 11  7  2  0  0  0  0
 12 10  2  0  0  0  0
 13  2  2  0  0  0  0
 13 12  1  0  0  0  0
 14  4  1  0  0  0  0
 15 16  2  0  0  0  0
 16 17  1  0  0  0  0
 16 14  1  0  0  0  0
 18 25  1  0  0  0  0
 18 19  1  0  0  0  0
 19 21  1  0  0  0  0
 20 22  1  6  0  0  0
 21 26  1  0  0  0  0
 21 17  1  1  0  0  0
 23 20  1  0  0  0  0
 24 25  1  1  0  0  0
 24 27  1  0  0  0  0
 24 26  1  0  0  0  0
 26 23  1  6  0  0  0
 27 20  1  0  0  0  0
M  END
>  <MODEL>
8

>  <REMARK>
 VINA RESULT:      -7.6      3.528      8.594
  Name = 
  2 active torsions:
  status: ('A' for Active; 'I' for Inactive)
    1  A    between atoms: C_8  and  N_18
    2  A    between atoms: C_14  and  C_26
                            x       y       z     vdW  Elec       q    Type
                         _______ _______ _______ _____ _____    ______ ____

>  <TORSDO>
F 2

$$$$
=
 OpenBabel11062422083D

 27 31  0  0  1  0  0  0  0  0999 V2000
  190.4450  172.3760  143.0900 C   0  0  0  0  0  3  0  0  0  0  0  0
  189.1720  174.0670  141.9720 N   0  0  0  0  0  0  0  0  0  0  0  0
  187.9750  174.5110  138.7030 N   0  0  0  0  0  0  0  0  0  0  0  0
  187.5130  175.6300  139.2640 N   0  0  0  0  0  0  0  0  0  0  0  0
  188.5890  174.5150  140.8320 C   0  0  0  0  0  0  0  0  0  0  0  0
  188.6320  173.8300  139.6580 C   0  0  0  0  0  0  0  0  0  0  0  0
  190.5790  170.8970  140.7020 C   0  0  0  0  0  3  0  0  0  0  0  0
  191.1200  171.1520  143.0540 C   0  0  0  0  0  2  0  0  0  0  0  0
  191.8610  169.2020  141.8430 O   0  0  0  0  0  1  0  0  0  0  0  0
  189.2860  172.6080  139.5550 C   0  0  0  0  0  3  0  0  0  0  0  0
  191.1870  170.4160  141.8660 C   0  0  0  0  0  0  0  0  0  0  0  0
  189.9010  172.1180  140.7230 C   0  0  0  0  0  0  0  0  0  0  0  0
  189.8320  172.8710  141.9360 C   0  0  0  0  0  0  0  0  0  0  0  0
  187.8750  175.6570  140.5710 C   0  0  0  0  0  0  0  0  0  0  0  0
  188.2590  177.8170  141.5230 N   0  0  0  0  0  2  0  0  0  0  0  0
  187.5430  176.7410  141.5070 C   0  0  0  0  0  0  0  0  0  0  0  0
  186.4400  176.5910  142.4070 N   0  0  0  0  0  2  0  0  0  0  0  0
  184.0400  178.9640  144.1990 C   0  0  0  0  0  2  0  0  0  0  0  0
  184.5600  177.9830  143.1310 C   0  0  0  0  0  2  0  0  0  0  0  0
  187.5190  176.8450  146.7420 C   0  0  2  0  0  3  0  0  0  0  0  0
  186.0380  177.6200  143.3580 C   0  0  1  0  0  3  0  0  0  0  0  0
  188.7510  177.5850  147.2210 C   0  0  0  0  0  1  0  0  0  0  0  0
  187.5650  176.7040  145.2200 C   0  0  0  0  0  2  0  0  0  0  0  0
  185.7970  178.1770  145.7400 C   0  0  2  0  0  3  0  0  0  0  0  0
  184.3090  178.4510  145.6200 C   0  0  0  0  0  2  0  0  0  0  0  0
  186.1750  177.0900  144.7780 C   0  0  1  0  0  3  0  0  0  0  0  0
  186.2620  177.6510  147.0750 C   0  0  0  0  0  2  0  0  0  0  0  0
  3  4  1  0  0  0  0
  3  6  2  0  0  0  0
  4 14  2  0  0  0  0
  5  2  2  0  0  0  0
  6  5  1  0  0  0  0
  7 12  1  0  0  0  0
  7 11  2  0  0  0  0
  8  1  1  0  0  0  0
  9 11  1  0  0  0  0
 10  6  1  0  0  0  0
 10 12  2  0  0  0  0
 11  8  1  0  0  0  0
 12 13  1  0  0  0  0
 13  2  1  0  0  0  0
 13  1  2  0  0  0  0
 14  5  1  0  0  0  0
 14 16  1  0  0  0  0
 16 15  2  0  0  0  0
 16 17  1  0  0  0  0
 18 25  1  0  0  0  0
 19 21  1  0  0  0  0
 19 18  1  0  0  0  0
 20 27  1  0  0  0  0
 20 22  1  6  0  0  0
 21 17  1  6  0  0  0
 21 26  1  0  0  0  0
 23 20  1  0  0  0  0
 24 25  1  1  0  0  0
 24 27  1  0  0  0  0
 26 23  1  1  0  0  0
 26 24  1  0  0  0  0
M  END
>  <MODEL>
9

>  <REMARK>
 VINA RESULT:      -7.6      4.345      6.071
  Name = 
  2 active torsions:
  status: ('A' for Active; 'I' for Inactive)
    1  A    between atoms: C_8  and  N_18
    2  A    between atoms: C_14  and  C_26
                            x       y       z     vdW  Elec       q    Type
                         _______ _______ _______ _____ _____    ______ ____

>  <TORSDO>
F 2

$$$$
