=
 OpenBabel11062421303D

 66 72  0  0  1  0  0  0  0  0999 V2000
  186.8550  178.1510  143.2790 C   0  0  0  0  0  0  0  0  0  0  0  0
  185.7080  176.9120  146.6650 C   0  0  0  0  0  3  0  0  0  0  0  0
  187.6850  176.2070  145.2930 C   0  0  2  0  0  3  0  0  0  0  0  0
  184.2240  178.6840  145.9450 C   0  0  0  0  0  3  0  0  0  0  0  0
  188.0570  177.2800  143.0160 C   0  0  1  0  0  3  0  0  0  0  0  0
  184.5980  177.7320  146.8950 C   0  0  0  0  0  3  0  0  0  0  0  0
  186.0770  178.0080  144.5280 C   0  0  0  0  0  0  0  0  0  0  0  0
  186.5430  179.0380  142.4380 O   0  0  0  0  0  0  0  0  0  0  0  0
  187.9910  175.9700  143.8050 C   0  0  1  0  0  3  0  0  0  0  0  0
  186.4500  177.0440  145.4880 C   0  0  0  0  0  0  0  0  0  0  0  0
  188.1520  176.9960  141.6520 O   0  0  0  0  0  1  0  0  0  0  0  0
  184.9590  178.8210  144.7660 C   0  0  0  0  0  3  0  0  0  0  0  0
  188.8010  178.0570  146.3700 O   0  0  0  0  0  1  0  0  0  0  0  0
  188.9060  176.6950  146.0950 C   0  0  2  0  0  3  0  0  0  0  0  0
  190.2590  176.3720  145.4700 C   0  0  0  0  0  2  0  0  0  0  0  0
  191.3190  176.6940  146.3580 O   0  0  0  0  0  0  0  0  0  0  0  0
  193.6050  176.6120  146.4250 O   0  0  0  0  0  0  0  0  0  0  0  0
  192.5170  175.9770  146.3770 C   0  0  0  0  0  0  0  0  0  0  0  0
  192.5110  174.4700  146.3490 C   0  0  0  0  0  2  0  0  0  0  0  0
  196.9970  172.0530  146.3060 O   0  0  0  0  0  0  0  0  0  0  0  0
  196.0600  171.4220  145.7510 C   0  0  0  0  0  0  0  0  0  0  0  0
  193.2500  173.8770  145.1530 C   0  0  1  0  0  3  0  0  0  0  0  0
  194.6950  173.5540  145.5360 C   0  0  1  0  0  3  0  0  0  0  0  0
  192.5990  172.5530  144.7670 C   0  0  0  0  0  3  0  0  0  0  0  0
  193.6670  171.4740  144.8590 C   0  0  0  0  0  3  0  0  0  0  0  0
  194.8710  172.1240  145.3490 N   0  0  0  0  0  0  0  0  0  0  0  0
  196.2370  169.9470  145.5100 C   0  0  2  0  0  3  0  0  0  0  0  0
  196.7330  169.5110  143.0800 C   0  0  0  0  0  1  0  0  0  0  0  0
  195.1440  168.2080  144.2650 O   0  0  0  0  0  1  0  0  0  0  0  0
  195.6620  169.5000  144.1610 C   0  0  1  0  0  3  0  0  0  0  0  0
  195.7320  169.1430  146.6810 C   0  0  0  0  0  0  0  0  0  0  0  0
  194.5520  169.2940  147.1030 O   0  0  0  0  0  0  0  0  0  0  0  0
  196.6090  168.2390  147.3450 N   0  0  0  0  0  1  0  0  0  0  0  0
  195.6380  174.3200  144.8090 O   0  0  0  0  0  0  0  0  0  0  0  0
  195.6090  173.9500  143.4480 C   0  0  0  0  0  2  0  0  0  0  0  0
  195.6470  175.1560  142.5060 C   0  0  2  0  0  3  0  0  0  0  0  0
  196.7810  176.0530  142.8170 C   0  0  0  0  0  2  0  0  0  0  0  0
  195.4630  176.3560  143.2160 O   0  0  0  0  0  0  0  0  0  0  0  0
  189.1940  175.2630  143.6740 O   0  0  0  0  0  0  0  0  0  0  0  0
  188.9000  174.1080  142.9430 C   0  0  0  0  0  2  0  0  0  0  0  0
  190.1570  173.4810  142.3500 C   0  0  0  0  0  2  0  0  0  0  0  0
  189.9650  173.1150  140.8900 C   0  0  0  0  0  2  0  0  0  0  0  0
  190.9120  171.9780  140.5400 C   0  0  2  0  0  3  0  0  0  0  0  0
  193.4180  171.7060  139.9600 C   0  0  0  0  0  3  0  0  0  0  0  0
  195.8260  172.2940  139.3210 C   0  0  1  0  0  3  0  0  0  0  0  0
  196.4300  174.3510  138.1180 N   0  0  0  0  0  0  0  0  0  0  0  0
  196.7260  173.5350  139.2760 C   0  0  0  0  0  2  0  0  0  0  0  0
  194.3630  175.1790  139.1370 C   0  0  0  0  0  2  0  0  0  0  0  0
  192.4810  173.7210  139.7760 O   0  0  0  0  0  0  0  0  0  0  0  0
  192.2550  172.4620  140.0760 C   0  0  0  0  0  0  0  0  0  0  0  0
  193.7420  173.8530  139.4540 C   0  0  0  0  0  0  0  0  0  0  0  0
  194.3750  172.6200  139.5520 C   0  0  0  0  0  0  0  0  0  0  0  0
  195.3740  175.0840  138.0310 C   0  0  0  0  0  3  0  0  0  0  0  0
  195.9830  171.5370  138.1530 O   0  0  0  0  0  0  0  0  0  0  0  0
  196.8630  169.3680  137.7310 C   0  0  0  0  0  2  0  0  0  0  0  0
  197.0830  170.7110  138.4020 C   0  0  0  0  0  3  0  0  0  0  0  0
  196.6340  169.5140  139.2160 C   0  0  0  0  0  2  0  0  0  0  0  0
  190.2970  171.1040  139.5480 N   0  0  0  0  0  2  0  0  0  0  0  0
  189.3230  171.8810  138.7900 C   0  0  0  0  0  2  0  0  0  0  0  0
  189.9420  172.4170  137.5040 C   0  0  0  0  0  2  0  0  0  0  0  0
  189.6320  173.8950  137.2640 C   0  0  2  0  0  3  0  0  0  0  0  0
  188.2510  174.2680  137.7720 C   0  0  0  0  0  1  0  0  0  0  0  0
  189.1470  175.9000  135.2760 O   0  0  0  0  0  1  0  0  0  0  0  0
  189.8380  174.3760  135.5210 P   0  0  0  0  0  0  0  0  0  0  0  0
  189.1620  173.3730  134.6140 O   0  0  0  0  0  0  0  0  0  0  0  0
  191.4860  174.4500  135.1530 O   0  0  0  0  0  1  0  0  0  0  0  0
  1  7  1  0  0  0  0
  2  6  1  0  0  0  0
  3 10  1  0  0  0  0
  3 14  1  6  0  0  0
  4  6  2  0  0  0  0
  5 11  1  6  0  0  0
  5  1  1  0  0  0  0
  5  9  1  0  0  0  0
  7 12  2  0  0  0  0
  7 10  1  0  0  0  0
  8  1  2  0  0  0  0
  9 39  1  1  0  0  0
  9  3  1  0  0  0  0
 10  2  2  0  0  0  0
 12  4  1  0  0  0  0
 14 13  1  6  0  0  0
 15 14  1  0  0  0  0
 15 16  1  0  0  0  0
 16 18  1  0  0  0  0
 18 17  2  0  0  0  0
 19 18  1  0  0  0  0
 21 20  2  0  0  0  0
 22 23  1  0  0  0  0
 22 19  1  1  0  0  0
 23 34  1  6  0  0  0
 24 25  2  0  0  0  0
 24 22  1  0  0  0  0
 25 26  1  0  0  0  0
 26 23  1  0  0  0  0
 26 21  1  0  0  0  0
 27 21  1  1  0  0  0
 27 31  1  0  0  0  0
 30 28  1  6  0  0  0
 30 29  1  0  0  0  0
 30 27  1  0  0  0  0
 31 32  2  0  0  0  0
 31 33  1  0  0  0  0
 35 34  1  0  0  0  0
 36 37  1  0  0  0  0
 36 38  1  0  0  0  0
 36 35  1  1  0  0  0
 37 38  1  0  0  0  0
 40 39  1  0  0  0  0
 41 40  1  0  0  0  0
 42 41  1  0  0  0  0
 43 42  1  6  0  0  0
 44 50  2  0  0  0  0
 45 54  1  6  0  0  0
 45 52  1  0  0  0  0
 46 47  1  0  0  0  0
 47 45  1  0  0  0  0
 48 51  1  0  0  0  0
 49 50  1  0  0  0  0
 50 43  1  0  0  0  0
 51 52  2  0  0  0  0
 51 49  1  0  0  0  0
 52 44  1  0  0  0  0
 53 46  2  0  0  0  0
 53 48  1  0  0  0  0
 54 56  1  0  0  0  0
 55 56  1  0  0  0  0
 55 57  1  0  0  0  0
 56 57  1  0  0  0  0
 58 43  1  0  0  0  0
 59 58  1  0  0  0  0
 60 59  1  0  0  0  0
 61 60  1  0  0  0  0
 61 62  1  6  0  0  0
 63 64  1  0  0  0  0
 64 61  1  0  0  0  0
 65 64  2  0  0  0  0
 66 64  1  0  0  0  0
M  END
>  <MODEL>
1

>  <REMARK>
 VINA RESULT:      -6.2      0.000      0.000
  Name = 
  25 active torsions:
  status: ('A' for Active; 'I' for Inactive)
    1  A    between atoms: C_1  and  O_33
    2  A    between atoms: C_1  and  C_61
    3  A    between atoms: C_4  and  C_32
    4  A    between atoms: C_5  and  C_40
    5  A    between atoms: C_7  and  C_35
    6  A    between atoms: O_9  and  C_21
    7  A    between atoms: O_9  and  C_59
    8  A    between atoms: C_13  and  C_40
    9  A    between atoms: C_14  and  O_29
   10  A    between atoms: C_20  and  C_39
   11  A    between atoms: C_21  and  C_32
   12  A    between atoms: C_22  and  N_45
   13  A    between atoms: C_22  and  C_53
   14  A    between atoms: C_22  and  C_64
   15  A    between atoms: C_23  and  O_38
   16  A    between atoms: C_28  and  O_33
   17  A    between atoms: O_29  and  C_54
   18  A    between atoms: C_34  and  C_60
   19  A    between atoms: C_34  and  C_63
   20  A    between atoms: C_35  and  O_38
   21  A    between atoms: C_39  and  C_59
   22  A    between atoms: C_40  and  C_48
   23  A    between atoms: P_42  and  C_60
   24  A    between atoms: N_45  and  C_63
   25  A    between atoms: C_61  and  C_64
                            x       y       z     vdW  Elec       q    Type
                         _______ _______ _______ _____ _____    ______ ____

>  <TORSDO>
F 25

$$$$
=
 OpenBabel11062421303D

 66 72  0  0  1  0  0  0  0  0999 V2000
  194.2640  173.4450  142.2550 C   0  0  0  0  0  0  0  0  0  0  0  0
  193.5910  170.4870  144.5170 C   0  0  0  0  0  3  0  0  0  0  0  0
  192.0770  171.6080  142.8600 C   0  0  2  0  0  3  0  0  0  0  0  0
  195.8880  171.1870  144.8200 C   0  0  0  0  0  3  0  0  0  0  0  0
  192.9330  173.6280  141.5710 C   0  0  1  0  0  3  0  0  0  0  0  0
  194.8340  170.3290  145.1380 C   0  0  0  0  0  3  0  0  0  0  0  0
  194.4620  172.3680  143.2490 C   0  0  0  0  0  0  0  0  0  0  0  0
  195.2270  174.1970  141.9380 O   0  0  0  0  0  0  0  0  0  0  0  0
  191.7860  173.0460  142.4000 C   0  0  1  0  0  3  0  0  0  0  0  0
  193.3980  171.5020  143.5740 C   0  0  0  0  0  0  0  0  0  0  0  0
  192.6980  174.9850  141.3410 O   0  0  0  0  0  1  0  0  0  0  0  0
  195.7030  172.2050  143.8820 C   0  0  0  0  0  3  0  0  0  0  0  0
  190.8100  169.7220  142.0460 O   0  0  0  0  0  1  0  0  0  0  0  0
  191.8810  170.5610  141.7480 C   0  0  2  0  0  3  0  0  0  0  0  0
  193.1250  169.7500  141.4000 C   0  0  0  0  0  2  0  0  0  0  0  0
  193.8790  170.3880  140.3800 O   0  0  0  0  0  0  0  0  0  0  0  0
  194.5400  168.4160  139.4250 O   0  0  0  0  0  0  0  0  0  0  0  0
  194.4790  169.6720  139.3410 C   0  0  0  0  0  0  0  0  0  0  0  0
  195.0360  170.3880  138.1380 C   0  0  0  0  0  2  0  0  0  0  0  0
  193.8350  175.3380  137.9840 O   0  0  0  0  0  0  0  0  0  0  0  0
  194.0800  174.8250  136.8600 C   0  0  0  0  0  0  0  0  0  0  0  0
  193.9720  171.0730  137.2860 C   0  0  1  0  0  3  0  0  0  0  0  0
  193.7220  172.4920  137.7980 C   0  0  1  0  0  3  0  0  0  0  0  0
  194.4860  171.2130  135.8570 C   0  0  0  0  0  3  0  0  0  0  0  0
  194.4760  172.6940  135.5110 C   0  0  0  0  0  3  0  0  0  0  0  0
  194.0470  173.3960  136.7070 N   0  0  0  0  0  0  0  0  0  0  0  0
  194.3790  175.7450  135.7060 C   0  0  2  0  0  3  0  0  0  0  0  0
  196.6360  175.5880  136.8110 C   0  0  0  0  0  1  0  0  0  0  0  0
  196.4250  176.1540  134.5170 O   0  0  0  0  0  1  0  0  0  0  0  0
  195.8050  176.3060  135.7580 C   0  0  1  0  0  3  0  0  0  0  0  0
  193.3150  176.8040  135.5690 C   0  0  0  0  0  0  0  0  0  0  0  0
  192.0930  176.4890  135.5630 O   0  0  0  0  0  0  0  0  0  0  0  0
  193.6930  178.1650  135.3980 N   0  0  0  0  0  1  0  0  0  0  0  0
  192.4050  172.6740  138.2850 O   0  0  0  0  0  0  0  0  0  0  0  0
  191.5230  171.7940  137.6240 C   0  0  0  0  0  2  0  0  0  0  0  0
  190.6770  172.4940  136.5570 C   0  0  2  0  0  3  0  0  0  0  0  0
  189.6120  171.6080  136.0400 C   0  0  0  0  0  2  0  0  0  0  0  0
  190.7970  171.8480  135.3140 O   0  0  0  0  0  0  0  0  0  0  0  0
  190.5930  173.0770  141.6680 O   0  0  0  0  0  0  0  0  0  0  0  0
  189.5520  172.9710  142.5960 C   0  0  0  0  0  2  0  0  0  0  0  0
  188.9620  174.3350  142.9390 C   0  0  0  0  0  2  0  0  0  0  0  0
  189.0650  175.3000  141.7730 C   0  0  0  0  0  2  0  0  0  0  0  0
  189.5110  176.6560  142.2950 C   0  0  2  0  0  3  0  0  0  0  0  0
  190.9860  175.8550  144.2630 C   0  0  0  0  0  3  0  0  0  0  0  0
  191.8500  175.5060  146.6470 C   0  0  1  0  0  3  0  0  0  0  0  0
  191.3310  177.0380  148.4990 N   0  0  0  0  0  0  0  0  0  0  0  0
  191.3320  175.6520  148.0830 C   0  0  0  0  0  2  0  0  0  0  0  0
  189.3630  177.5270  147.1270 C   0  0  0  0  0  2  0  0  0  0  0  0
  189.3140  177.2710  144.6750 O   0  0  0  0  0  0  0  0  0  0  0  0
  189.9460  176.6110  143.7310 C   0  0  0  0  0  0  0  0  0  0  0  0
  189.8840  177.0050  145.8220 C   0  0  0  0  0  0  0  0  0  0  0  0
  190.9380  176.1230  145.6200 C   0  0  0  0  0  0  0  0  0  0  0  0
  190.4680  177.8950  148.0740 C   0  0  0  0  0  3  0  0  0  0  0  0
  193.1430  176.0340  146.5410 O   0  0  0  0  0  0  0  0  0  0  0  0
  195.2910  175.0910  146.1510 C   0  0  0  0  0  2  0  0  0  0  0  0
  193.8350  175.1340  145.7260 C   0  0  0  0  0  3  0  0  0  0  0  0
  194.8850  175.8850  144.9320 C   0  0  0  0  0  2  0  0  0  0  0  0
  188.4530  177.6400  142.0970 N   0  0  0  0  0  2  0  0  0  0  0  0
  187.2060  177.0840  142.6070 C   0  0  0  0  0  2  0  0  0  0  0  0
  186.0060  177.7480  141.9400 C   0  0  0  0  0  2  0  0  0  0  0  0
  184.7500  177.7250  142.8130 C   0  0  2  0  0  3  0  0  0  0  0  0
  183.5210  178.1660  142.0380 C   0  0  0  0  0  1  0  0  0  0  0  0
  185.8770  177.8230  145.4450 O   0  0  0  0  0  1  0  0  0  0  0  0
  184.9450  178.6990  144.3380 P   0  0  0  0  0  0  0  0  0  0  0  0
  183.5950  178.9940  144.9510 O   0  0  0  0  0  1  0  0  0  0  0  0
  185.7320  180.1500  143.9770 O   0  0  0  0  0  0  0  0  0  0  0  0
  1  7  1  0  0  0  0
  2  6  1  0  0  0  0
  3 14  1  6  0  0  0
  3 10  1  0  0  0  0
  4  6  2  0  0  0  0
  5 11  1  1  0  0  0
  5  1  1  0  0  0  0
  5  9  1  0  0  0  0
  7 10  1  0  0  0  0
  7 12  2  0  0  0  0
  8  1  2  0  0  0  0
  9 39  1  6  0  0  0
  9  3  1  0  0  0  0
 10  2  2  0  0  0  0
 12  4  1  0  0  0  0
 14 13  1  1  0  0  0
 15 14  1  0  0  0  0
 16 15  1  0  0  0  0
 18 17  2  0  0  0  0
 18 16  1  0  0  0  0
 19 18  1  0  0  0  0
 21 20  2  0  0  0  0
 22 23  1  0  0  0  0
 22 19  1  1  0  0  0
 23 34  1  6  0  0  0
 24 22  1  0  0  0  0
 25 24  2  0  0  0  0
 25 26  1  0  0  0  0
 26 21  1  0  0  0  0
 26 23  1  0  0  0  0
 27 31  1  1  0  0  0
 27 30  1  0  0  0  0
 27 21  1  0  0  0  0
 29 30  1  0  0  0  0
 30 28  1  1  0  0  0
 32 31  2  0  0  0  0
 33 31  1  0  0  0  0
 35 34  1  0  0  0  0
 36 35  1  1  0  0  0
 37 36  1  0  0  0  0
 38 37  1  0  0  0  0
 38 36  1  0  0  0  0
 39 40  1  0  0  0  0
 40 41  1  0  0  0  0
 42 41  1  0  0  0  0
 43 42  1  1  0  0  0
 43 50  1  0  0  0  0
 44 52  1  0  0  0  0
 45 54  1  1  0  0  0
 45 47  1  0  0  0  0
 47 46  1  0  0  0  0
 48 53  1  0  0  0  0
 49 51  1  0  0  0  0
 50 44  2  0  0  0  0
 50 49  1  0  0  0  0
 51 48  1  0  0  0  0
 52 51  2  0  0  0  0
 52 45  1  0  0  0  0
 53 46  2  0  0  0  0
 56 55  1  0  0  0  0
 56 54  1  0  0  0  0
 57 56  1  0  0  0  0
 57 55  1  0  0  0  0
 58 43  1  0  0  0  0
 58 59  1  0  0  0  0
 60 59  1  0  0  0  0
 60 61  1  0  0  0  0
 61 62  1  6  0  0  0
 61 64  1  0  0  0  0
 64 65  1  0  0  0  0
 64 63  1  0  0  0  0
 66 64  2  0  0  0  0
M  END
>  <MODEL>
2

>  <REMARK>
 VINA RESULT:      -6.1      3.204      9.436
  Name = 
  25 active torsions:
  status: ('A' for Active; 'I' for Inactive)
    1  A    between atoms: C_1  and  O_33
    2  A    between atoms: C_1  and  C_61
    3  A    between atoms: C_4  and  C_32
    4  A    between atoms: C_5  and  C_40
    5  A    between atoms: C_7  and  C_35
    6  A    between atoms: O_9  and  C_21
    7  A    between atoms: O_9  and  C_59
    8  A    between atoms: C_13  and  C_40
    9  A    between atoms: C_14  and  O_29
   10  A    between atoms: C_20  and  C_39
   11  A    between atoms: C_21  and  C_32
   12  A    between atoms: C_22  and  N_45
   13  A    between atoms: C_22  and  C_53
   14  A    between atoms: C_22  and  C_64
   15  A    between atoms: C_23  and  O_38
   16  A    between atoms: C_28  and  O_33
   17  A    between atoms: O_29  and  C_54
   18  A    between atoms: C_34  and  C_60
   19  A    between atoms: C_34  and  C_63
   20  A    between atoms: C_35  and  O_38
   21  A    between atoms: C_39  and  C_59
   22  A    between atoms: C_40  and  C_48
   23  A    between atoms: P_42  and  C_60
   24  A    between atoms: N_45  and  C_63
   25  A    between atoms: C_61  and  C_64
                            x       y       z     vdW  Elec       q    Type
                         _______ _______ _______ _____ _____    ______ ____

>  <TORSDO>
F 25

$$$$
=
 OpenBabel11062421303D

 66 72  0  0  1  0  0  0  0  0999 V2000
  188.5940  173.4460  138.4150 C   0  0  0  0  0  0  0  0  0  0  0  0
  191.5820  171.1330  138.2160 C   0  0  0  0  0  3  0  0  0  0  0  0
  190.7150  172.4580  140.1610 C   0  0  2  0  0  3  0  0  0  0  0  0
  190.4510  171.1220  136.0760 C   0  0  0  0  0  3  0  0  0  0  0  0
  188.6770  173.9470  139.8340 C   0  0  1  0  0  3  0  0  0  0  0  0
  191.4870  170.6750  136.8980 C   0  0  0  0  0  3  0  0  0  0  0  0
  189.5910  172.4870  137.8910 C   0  0  0  0  0  0  0  0  0  0  0  0
  187.6340  173.8200  137.6860 O   0  0  0  0  0  0  0  0  0  0  0  0
  190.1010  173.8510  140.3860 C   0  0  1  0  0  3  0  0  0  0  0  0
  190.6400  172.0370  138.7190 C   0  0  0  0  0  0  0  0  0  0  0  0
  188.2430  175.2720  139.8980 O   0  0  0  0  0  1  0  0  0  0  0  0
  189.5080  172.0260  136.5690 C   0  0  0  0  0  3  0  0  0  0  0  0
  189.0010  171.8100  141.7320 O   0  0  0  0  0  1  0  0  0  0  0  0
  190.1980  171.3980  141.1510 C   0  0  2  0  0  3  0  0  0  0  0  0
  191.2000  170.9720  142.2200 C   0  0  0  0  0  2  0  0  0  0  0  0
  191.0760  171.7780  143.3820 O   0  0  0  0  0  0  0  0  0  0  0  0
  192.8460  170.9810  144.5940 O   0  0  0  0  0  0  0  0  0  0  0  0
  192.1380  171.9720  144.2690 C   0  0  0  0  0  0  0  0  0  0  0  0
  192.4370  173.3420  144.8220 C   0  0  0  0  0  2  0  0  0  0  0  0
  190.4900  178.0440  145.0770 O   0  0  0  0  0  0  0  0  0  0  0  0
  189.6310  177.1290  144.9760 C   0  0  0  0  0  0  0  0  0  0  0  0
  191.3640  173.8660  145.7700 C   0  0  1  0  0  3  0  0  0  0  0  0
  191.3270  175.3950  145.7290 C   0  0  1  0  0  3  0  0  0  0  0  0
  189.9960  173.3880  145.2940 C   0  0  0  0  0  3  0  0  0  0  0  0
  189.1440  174.6220  145.0390 C   0  0  0  0  0  3  0  0  0  0  0  0
  189.9970  175.7720  145.2830 N   0  0  0  0  0  0  0  0  0  0  0  0
  188.2350  177.5030  144.5540 C   0  0  2  0  0  3  0  0  0  0  0  0
  187.3550  177.5290  146.9120 C   0  0  0  0  0  1  0  0  0  0  0  0
  185.8950  177.3060  145.0550 O   0  0  0  0  0  1  0  0  0  0  0  0
  187.1680  176.9620  145.5130 C   0  0  1  0  0  3  0  0  0  0  0  0
  187.9920  177.1440  143.1100 C   0  0  0  0  0  0  0  0  0  0  0  0
  187.4120  176.0650  142.8060 O   0  0  0  0  0  0  0  0  0  0  0  0
  188.4600  178.0080  142.0810 N   0  0  0  0  0  1  0  0  0  0  0  0
  191.6760  175.9840  146.9680 O   0  0  0  0  0  0  0  0  0  0  0  0
  192.8730  176.7170  146.8300 C   0  0  0  0  0  2  0  0  0  0  0  0
  193.5330  176.5200  145.4630 C   0  0  2  0  0  3  0  0  0  0  0  0
  194.9040  175.9820  145.5930 C   0  0  0  0  0  2  0  0  0  0  0  0
  194.6640  177.3450  145.3250 O   0  0  0  0  0  0  0  0  0  0  0  0
  190.1150  174.1600  141.7520 O   0  0  0  0  0  0  0  0  0  0  0  0
  191.1470  175.0840  141.9410 C   0  0  0  0  0  2  0  0  0  0  0  0
  192.4630  174.5870  141.3520 C   0  0  0  0  0  2  0  0  0  0  0  0
  193.6270  175.4760  141.7510 C   0  0  0  0  0  2  0  0  0  0  0  0
  194.9170  174.8520  141.2460 C   0  0  2  0  0  3  0  0  0  0  0  0
  195.4160  172.3380  141.5960 C   0  0  0  0  0  3  0  0  0  0  0  0
  195.9750  170.1260  142.7570 C   0  0  1  0  0  3  0  0  0  0  0  0
  197.1490  170.0030  144.9130 N   0  0  0  0  0  0  0  0  0  0  0  0
  195.9860  169.5530  144.1790 C   0  0  0  0  0  2  0  0  0  0  0  0
  196.1950  172.2390  145.2040 C   0  0  0  0  0  2  0  0  0  0  0  0
  195.6230  173.7300  143.3260 O   0  0  0  0  0  0  0  0  0  0  0  0
  195.3360  173.6530  142.0460 C   0  0  0  0  0  0  0  0  0  0  0  0
  195.9040  172.5290  143.7630 C   0  0  0  0  0  0  0  0  0  0  0  0
  195.7900  171.6200  142.7190 C   0  0  0  0  0  0  0  0  0  0  0  0
  197.2680  171.2030  145.3690 C   0  0  0  0  0  3  0  0  0  0  0  0
  197.1400  169.7550  142.0740 O   0  0  0  0  0  0  0  0  0  0  0  0
  197.2880  168.5240  140.0450 C   0  0  0  0  0  2  0  0  0  0  0  0
  196.8420  168.5190  141.4950 C   0  0  0  0  0  3  0  0  0  0  0  0
  195.8290  168.7180  140.3850 C   0  0  0  0  0  2  0  0  0  0  0  0
  195.9760  175.8550  141.2090 N   0  0  0  0  0  2  0  0  0  0  0  0
  197.1790  175.2340  140.6650 C   0  0  0  0  0  2  0  0  0  0  0  0
  197.3140  175.5340  139.1760 C   0  0  0  0  0  2  0  0  0  0  0  0
  196.8220  174.3880  138.2900 C   0  0  2  0  0  3  0  0  0  0  0  0
  197.9410  173.4170  137.9570 C   0  0  0  0  0  1  0  0  0  0  0  0
  194.4460  175.5250  137.1650 O   0  0  0  0  0  1  0  0  0  0  0  0
  196.0000  174.9790  136.7780 P   0  0  0  0  0  0  0  0  0  0  0  0
  195.8960  173.8640  135.7640 O   0  0  0  0  0  0  0  0  0  0  0  0
  196.8890  176.2590  136.1230 O   0  0  0  0  0  1  0  0  0  0  0  0
  1  5  1  0  0  0  0
  2 10  1  0  0  0  0
  3  9  1  0  0  0  0
  3 14  1  1  0  0  0
  4 12  2  0  0  0  0
  4  6  1  0  0  0  0
  5 11  1  6  0  0  0
  5  9  1  0  0  0  0
  6  2  2  0  0  0  0
  7  1  1  0  0  0  0
  7 10  2  0  0  0  0
  8  1  2  0  0  0  0
  9 39  1  1  0  0  0
 10  3  1  0  0  0  0
 12  7  1  0  0  0  0
 14 13  1  1  0  0  0
 14 15  1  0  0  0  0
 15 16  1  0  0  0  0
 16 18  1  0  0  0  0
 18 17  2  0  0  0  0
 18 19  1  0  0  0  0
 21 20  2  0  0  0  0
 21 26  1  0  0  0  0
 22 19  1  6  0  0  0
 23 22  1  0  0  0  0
 23 34  1  1  0  0  0
 24 22  1  0  0  0  0
 25 26  1  0  0  0  0
 25 24  2  0  0  0  0
 26 23  1  0  0  0  0
 27 31  1  6  0  0  0
 27 21  1  0  0  0  0
 27 30  1  0  0  0  0
 29 30  1  0  0  0  0
 30 28  1  1  0  0  0
 32 31  2  0  0  0  0
 33 31  1  0  0  0  0
 35 34  1  0  0  0  0
 36 37  1  0  0  0  0
 36 35  1  1  0  0  0
 38 36  1  0  0  0  0
 38 37  1  0  0  0  0
 39 40  1  0  0  0  0
 41 42  1  0  0  0  0
 41 40  1  0  0  0  0
 43 42  1  1  0  0  0
 43 50  1  0  0  0  0
 44 50  2  0  0  0  0
 44 52  1  0  0  0  0
 45 54  1  1  0  0  0
 45 47  1  0  0  0  0
 46 53  2  0  0  0  0
 47 46  1  0  0  0  0
 48 53  1  0  0  0  0
 49 51  1  0  0  0  0
 50 49  1  0  0  0  0
 51 48  1  0  0  0  0
 52 45  1  0  0  0  0
 52 51  2  0  0  0  0
 55 57  1  0  0  0  0
 55 56  1  0  0  0  0
 56 54  1  0  0  0  0
 57 56  1  0  0  0  0
 58 43  1  0  0  0  0
 59 58  1  0  0  0  0
 60 59  1  0  0  0  0
 61 62  1  6  0  0  0
 61 60  1  0  0  0  0
 64 63  1  0  0  0  0
 64 61  1  0  0  0  0
 65 64  2  0  0  0  0
 66 64  1  0  0  0  0
M  END
>  <MODEL>
3

>  <REMARK>
 VINA RESULT:      -6.0      2.555      7.364
  Name = 
  25 active torsions:
  status: ('A' for Active; 'I' for Inactive)
    1  A    between atoms: C_1  and  O_33
    2  A    between atoms: C_1  and  C_61
    3  A    between atoms: C_4  and  C_32
    4  A    between atoms: C_5  and  C_40
    5  A    between atoms: C_7  and  C_35
    6  A    between atoms: O_9  and  C_21
    7  A    between atoms: O_9  and  C_59
    8  A    between atoms: C_13  and  C_40
    9  A    between atoms: C_14  and  O_29
   10  A    between atoms: C_20  and  C_39
   11  A    between atoms: C_21  and  C_32
   12  A    between atoms: C_22  and  N_45
   13  A    between atoms: C_22  and  C_53
   14  A    between atoms: C_22  and  C_64
   15  A    between atoms: C_23  and  O_38
   16  A    between atoms: C_28  and  O_33
   17  A    between atoms: O_29  and  C_54
   18  A    between atoms: C_34  and  C_60
   19  A    between atoms: C_34  and  C_63
   20  A    between atoms: C_35  and  O_38
   21  A    between atoms: C_39  and  C_59
   22  A    between atoms: C_40  and  C_48
   23  A    between atoms: P_42  and  C_60
   24  A    between atoms: N_45  and  C_63
   25  A    between atoms: C_61  and  C_64
                            x       y       z     vdW  Elec       q    Type
                         _______ _______ _______ _____ _____    ______ ____

>  <TORSDO>
F 25

$$$$
=
 OpenBabel11062421303D

 66 72  0  0  1  0  0  0  0  0999 V2000
  190.6500  169.9990  137.8990 C   0  0  0  0  0  0  0  0  0  0  0  0
  193.1540  171.0720  135.2730 C   0  0  0  0  0  3  0  0  0  0  0  0
  192.2440  172.3520  137.2300 C   0  0  2  0  0  3  0  0  0  0  0  0
  192.5350  168.7700  134.8580 C   0  0  0  0  0  3  0  0  0  0  0  0
  190.5120  171.2480  138.7330 C   0  0  1  0  0  3  0  0  0  0  0  0
  193.2720  169.9040  134.5140 C   0  0  0  0  0  3  0  0  0  0  0  0
  191.5570  169.9650  136.7320 C   0  0  0  0  0  0  0  0  0  0  0  0
  190.0120  168.9630  138.2350 O   0  0  0  0  0  0  0  0  0  0  0  0
  190.8880  172.5020  137.9400 C   0  0  1  0  0  3  0  0  0  0  0  0
  192.3000  171.1110  136.3800 C   0  0  0  0  0  0  0  0  0  0  0  0
  189.2020  171.3690  139.1990 O   0  0  0  0  0  1  0  0  0  0  0  0
  191.6780  168.8000  135.9600 C   0  0  0  0  0  3  0  0  0  0  0  0
  194.1720  173.6640  137.8520 O   0  0  0  0  0  1  0  0  0  0  0  0
  193.4480  172.5190  138.1750 C   0  0  2  0  0  3  0  0  0  0  0  0
  194.3670  171.3050  138.2670 C   0  0  0  0  0  2  0  0  0  0  0  0
  195.6360  171.5830  137.6930 O   0  0  0  0  0  0  0  0  0  0  0  0
  196.8910  169.6770  137.8520 O   0  0  0  0  0  0  0  0  0  0  0  0
  196.7950  170.9110  138.0870 C   0  0  0  0  0  0  0  0  0  0  0  0
  197.9150  171.6500  138.7740 C   0  0  0  0  0  2  0  0  0  0  0  0
  193.9520  172.3600  141.8980 O   0  0  0  0  0  0  0  0  0  0  0  0
  194.5490  171.2630  142.0540 C   0  0  0  0  0  0  0  0  0  0  0  0
  197.8820  171.5340  140.2940 C   0  0  1  0  0  3  0  0  0  0  0  0
  196.5950  172.1540  140.8410 C   0  0  1  0  0  3  0  0  0  0  0  0
  197.8510  170.0600  140.6850 C   0  0  0  0  0  3  0  0  0  0  0  0
  196.5920  169.8310  141.5080 C   0  0  0  0  0  3  0  0  0  0  0  0
  195.8800  171.0970  141.5360 N   0  0  0  0  0  0  0  0  0  0  0  0
  193.8430  170.1670  142.8070 C   0  0  2  0  0  3  0  0  0  0  0  0
  191.6250  171.2550  142.3240 C   0  0  0  0  0  1  0  0  0  0  0  0
  192.4160  169.4400  141.0170 O   0  0  0  0  0  1  0  0  0  0  0  0
  192.4070  169.9500  142.3160 C   0  0  1  0  0  3  0  0  0  0  0  0
  193.9510  170.3760  144.2960 C   0  0  0  0  0  0  0  0  0  0  0  0
  194.1750  171.5250  144.7680 O   0  0  0  0  0  0  0  0  0  0  0  0
  193.8440  169.2610  145.1740 N   0  0  0  0  0  1  0  0  0  0  0  0
  196.8370  173.2810  141.6630 O   0  0  0  0  0  0  0  0  0  0  0  0
  196.4190  174.4550  141.0010 C   0  0  0  0  0  2  0  0  0  0  0  0
  196.1070  175.6000  141.9680 C   0  0  2  0  0  3  0  0  0  0  0  0
  194.8750  176.3200  141.5800 C   0  0  0  0  0  2  0  0  0  0  0  0
  196.1560  176.8430  141.3110 O   0  0  0  0  0  0  0  0  0  0  0  0
  190.9160  173.6200  138.7840 O   0  0  0  0  0  0  0  0  0  0  0  0
  189.7440  173.5730  139.5450 C   0  0  0  0  0  2  0  0  0  0  0  0
  189.8610  174.4150  140.8110 C   0  0  0  0  0  2  0  0  0  0  0  0
  188.5180  174.9860  141.2310 C   0  0  0  0  0  2  0  0  0  0  0  0
  188.4170  174.9390  142.7470 C   0  0  2  0  0  3  0  0  0  0  0  0
  186.5590  176.7290  142.5570 C   0  0  0  0  0  3  0  0  0  0  0  0
  184.8750  178.5400  143.2170 C   0  0  1  0  0  3  0  0  0  0  0  0
  183.9740  178.7680  145.4930 N   0  0  0  0  0  0  0  0  0  0  0  0
  184.6090  179.4760  144.4020 C   0  0  0  0  0  2  0  0  0  0  0  0
  186.0730  177.6610  146.0970 C   0  0  0  0  0  2  0  0  0  0  0  0
  187.3050  176.1590  144.5800 O   0  0  0  0  0  0  0  0  0  0  0  0
  187.4200  175.9200  143.2930 C   0  0  0  0  0  0  0  0  0  0  0  0
  186.3980  177.0850  144.7520 C   0  0  0  0  0  0  0  0  0  0  0  0
  185.8990  177.4780  143.5170 C   0  0  0  0  0  0  0  0  0  0  0  0
  184.6060  177.9430  146.2550 C   0  0  0  0  0  3  0  0  0  0  0  0
  183.6780  177.9630  142.7750 O   0  0  0  0  0  0  0  0  0  0  0  0
  182.1900  178.0170  140.9200 C   0  0  0  0  0  2  0  0  0  0  0  0
  183.2810  178.7430  141.6860 C   0  0  0  0  0  3  0  0  0  0  0  0
  183.6080  178.0100  140.4000 C   0  0  0  0  0  2  0  0  0  0  0  0
  189.7330  175.1420  143.3420 N   0  0  0  0  0  2  0  0  0  0  0  0
  189.8940  174.1910  144.4360 C   0  0  0  0  0  2  0  0  0  0  0  0
  191.2030  174.4400  145.1790 C   0  0  0  0  0  2  0  0  0  0  0  0
  191.4100  175.9110  145.5440 C   0  0  2  0  0  3  0  0  0  0  0  0
  192.8840  176.2570  145.6580 C   0  0  0  0  0  1  0  0  0  0  0  0
  191.6150  176.8720  148.2340 O   0  0  0  0  0  1  0  0  0  0  0  0
  190.5080  176.3890  147.0500 P   0  0  0  0  0  0  0  0  0  0  0  0
  189.7000  175.2230  147.5730 O   0  0  0  0  0  1  0  0  0  0  0  0
  189.4760  177.6800  146.6970 O   0  0  0  0  0  0  0  0  0  0  0  0
  1  8  2  0  0  0  0
  1  5  1  0  0  0  0
  2 10  1  0  0  0  0
  3  9  1  0  0  0  0
  3 14  1  1  0  0  0
  4 12  2  0  0  0  0
  5 11  1  6  0  0  0
  6  4  1  0  0  0  0
  6  2  2  0  0  0  0
  7  1  1  0  0  0  0
  9  5  1  0  0  0  0
  9 39  1  1  0  0  0
 10  7  2  0  0  0  0
 10  3  1  0  0  0  0
 12  7  1  0  0  0  0
 14 13  1  6  0  0  0
 14 15  1  0  0  0  0
 16 18  1  0  0  0  0
 16 15  1  0  0  0  0
 17 18  2  0  0  0  0
 18 19  1  0  0  0  0
 20 21  2  0  0  0  0
 22 19  1  6  0  0  0
 22 24  1  0  0  0  0
 22 23  1  0  0  0  0
 23 26  1  0  0  0  0
 23 34  1  1  0  0  0
 24 25  2  0  0  0  0
 25 26  1  0  0  0  0
 26 21  1  0  0  0  0
 27 21  1  6  0  0  0
 27 31  1  0  0  0  0
 29 30  1  0  0  0  0
 30 28  1  6  0  0  0
 30 27  1  0  0  0  0
 31 32  2  0  0  0  0
 31 33  1  0  0  0  0
 35 34  1  0  0  0  0
 36 35  1  6  0  0  0
 37 36  1  0  0  0  0
 38 37  1  0  0  0  0
 38 36  1  0  0  0  0
 39 40  1  0  0  0  0
 40 41  1  0  0  0  0
 41 42  1  0  0  0  0
 43 42  1  6  0  0  0
 43 50  1  0  0  0  0
 43 58  1  0  0  0  0
 44 50  2  0  0  0  0
 44 52  1  0  0  0  0
 45 54  1  1  0  0  0
 45 52  1  0  0  0  0
 45 47  1  0  0  0  0
 46 53  2  0  0  0  0
 47 46  1  0  0  0  0
 48 53  1  0  0  0  0
 49 51  1  0  0  0  0
 50 49  1  0  0  0  0
 51 48  1  0  0  0  0
 52 51  2  0  0  0  0
 55 56  1  0  0  0  0
 56 54  1  0  0  0  0
 57 55  1  0  0  0  0
 57 56  1  0  0  0  0
 58 59  1  0  0  0  0
 59 60  1  0  0  0  0
 60 61  1  0  0  0  0
 61 62  1  1  0  0  0
 61 64  1  0  0  0  0
 64 65  1  0  0  0  0
 64 63  1  0  0  0  0
 66 64  2  0  0  0  0
M  END
>  <MODEL>
4

>  <REMARK>
 VINA RESULT:      -5.5      3.317      9.761
  Name = 
  25 active torsions:
  status: ('A' for Active; 'I' for Inactive)
    1  A    between atoms: C_1  and  O_33
    2  A    between atoms: C_1  and  C_61
    3  A    between atoms: C_4  and  C_32
    4  A    between atoms: C_5  and  C_40
    5  A    between atoms: C_7  and  C_35
    6  A    between atoms: O_9  and  C_21
    7  A    between atoms: O_9  and  C_59
    8  A    between atoms: C_13  and  C_40
    9  A    between atoms: C_14  and  O_29
   10  A    between atoms: C_20  and  C_39
   11  A    between atoms: C_21  and  C_32
   12  A    between atoms: C_22  and  N_45
   13  A    between atoms: C_22  and  C_53
   14  A    between atoms: C_22  and  C_64
   15  A    between atoms: C_23  and  O_38
   16  A    between atoms: C_28  and  O_33
   17  A    between atoms: O_29  and  C_54
   18  A    between atoms: C_34  and  C_60
   19  A    between atoms: C_34  and  C_63
   20  A    between atoms: C_35  and  O_38
   21  A    between atoms: C_39  and  C_59
   22  A    between atoms: C_40  and  C_48
   23  A    between atoms: P_42  and  C_60
   24  A    between atoms: N_45  and  C_63
   25  A    between atoms: C_61  and  C_64
                            x       y       z     vdW  Elec       q    Type
                         _______ _______ _______ _____ _____    ______ ____

>  <TORSDO>
F 25

$$$$
=
 OpenBabel11062421303D

 66 72  0  0  1  0  0  0  0  0999 V2000
  193.1310  172.0160  143.7950 C   0  0  0  0  0  0  0  0  0  0  0  0
  196.5230  172.9930  145.1570 C   0  0  0  0  0  3  0  0  0  0  0  0
  194.9500  174.2980  143.7030 C   0  0  2  0  0  3  0  0  0  0  0  0
  195.9570  170.7930  145.9940 C   0  0  0  0  0  3  0  0  0  0  0  0
  192.7650  173.2210  142.9680 C   0  0  1  0  0  3  0  0  0  0  0  0
  196.8450  171.8680  145.9240 C   0  0  0  0  0  3  0  0  0  0  0  0
  194.4120  171.9650  144.5320 C   0  0  0  0  0  0  0  0  0  0  0  0
  192.3100  171.0620  143.8900 O   0  0  0  0  0  0  0  0  0  0  0  0
  194.0040  174.0030  142.5270 C   0  0  1  0  0  3  0  0  0  0  0  0
  195.3120  173.0480  144.4600 C   0  0  0  0  0  0  0  0  0  0  0  0
  192.0410  172.8240  141.8410 O   0  0  0  0  0  1  0  0  0  0  0  0
  194.7460  170.8400  145.2990 C   0  0  0  0  0  3  0  0  0  0  0  0
  195.4610  176.4210  144.7290 O   0  0  0  0  0  1  0  0  0  0  0  0
  194.4680  175.4540  144.5970 C   0  0  2  0  0  3  0  0  0  0  0  0
  193.9370  175.0330  145.9640 C   0  0  0  0  0  2  0  0  0  0  0  0
  192.5230  175.1530  146.0190 O   0  0  0  0  0  0  0  0  0  0  0  0
  192.0640  177.3930  146.0840 O   0  0  0  0  0  0  0  0  0  0  0  0
  191.8920  176.2560  146.5980 C   0  0  0  0  0  0  0  0  0  0  0  0
  191.0140  176.0890  147.8110 C   0  0  0  0  0  2  0  0  0  0  0  0
  188.2260  178.2630  144.1410 O   0  0  0  0  0  0  0  0  0  0  0  0
  188.1990  177.0040  144.1400 C   0  0  0  0  0  0  0  0  0  0  0  0
  189.5460  175.8460  147.4750 C   0  0  1  0  0  3  0  0  0  0  0  0
  189.0320  176.9410  146.5380 C   0  0  1  0  0  3  0  0  0  0  0  0
  189.4160  174.5310  146.7140 C   0  0  0  0  0  3  0  0  0  0  0  0
  188.7730  174.8410  145.3710 C   0  0  0  0  0  3  0  0  0  0  0  0
  188.6030  176.2830  145.3160 N   0  0  0  0  0  0  0  0  0  0  0  0
  187.7180  176.3020  142.8990 C   0  0  2  0  0  3  0  0  0  0  0  0
  190.1860  176.4440  142.4240 C   0  0  0  0  0  1  0  0  0  0  0  0
  189.0030  174.4010  142.1880 O   0  0  0  0  0  1  0  0  0  0  0  0
  188.8720  175.7820  142.0340 C   0  0  1  0  0  3  0  0  0  0  0  0
  186.7290  177.1530  142.1430 C   0  0  0  0  0  0  0  0  0  0  0  0
  187.1240  177.9660  141.2620 O   0  0  0  0  0  0  0  0  0  0  0  0
  185.3440  177.0720  142.4590 N   0  0  0  0  0  1  0  0  0  0  0  0
  188.0120  177.7280  147.1240 O   0  0  0  0  0  0  0  0  0  0  0  0
  186.7490  177.1660  146.8360 C   0  0  0  0  0  2  0  0  0  0  0  0
  185.6170  177.8170  147.6350 C   0  0  2  0  0  3  0  0  0  0  0  0
  184.4130  178.0260  146.8020 C   0  0  0  0  0  2  0  0  0  0  0  0
  185.2940  179.0820  147.1130 O   0  0  0  0  0  0  0  0  0  0  0  0
  193.6270  175.2030  141.9100 O   0  0  0  0  0  0  0  0  0  0  0  0
  194.4470  175.3470  140.7850 C   0  0  0  0  0  2  0  0  0  0  0  0
  194.1810  174.2590  139.7510 C   0  0  0  0  0  2  0  0  0  0  0  0
  195.2030  174.2890  138.6290 C   0  0  0  0  0  2  0  0  0  0  0  0
  194.7910  175.3480  137.6190 C   0  0  2  0  0  3  0  0  0  0  0  0
  192.9130  173.7800  136.7800 C   0  0  0  0  0  3  0  0  0  0  0  0
  190.7890  172.9720  135.6000 C   0  0  1  0  0  3  0  0  0  0  0  0
  188.9180  174.4630  135.0360 N   0  0  0  0  0  0  0  0  0  0  0  0
  189.8280  173.4660  134.5130 C   0  0  0  0  0  2  0  0  0  0  0  0
  190.6790  176.1650  135.0600 C   0  0  0  0  0  2  0  0  0  0  0  0
  192.7430  175.9700  136.3940 O   0  0  0  0  0  0  0  0  0  0  0  0
  193.4810  175.0390  136.9530 C   0  0  0  0  0  0  0  0  0  0  0  0
  191.6930  175.4030  135.8570 C   0  0  0  0  0  0  0  0  0  0  0  0
  191.7500  174.0310  136.0700 C   0  0  0  0  0  0  0  0  0  0  0  0
  189.2810  175.6710  135.2990 C   0  0  0  0  0  3  0  0  0  0  0  0
  190.0720  172.4400  136.6790 O   0  0  0  0  0  0  0  0  0  0  0  0
  188.9090  170.4690  137.3240 C   0  0  0  0  0  2  0  0  0  0  0  0
  189.4540  171.2940  136.1730 C   0  0  0  0  0  3  0  0  0  0  0  0
  190.2030  170.0680  136.6570 C   0  0  0  0  0  2  0  0  0  0  0  0
  195.8500  175.5360  136.6330 N   0  0  0  0  0  2  0  0  0  0  0  0
  195.8270  174.4050  135.7130 C   0  0  0  0  0  2  0  0  0  0  0  0
  196.9660  173.4380  136.0170 C   0  0  0  0  0  2  0  0  0  0  0  0
  196.8110  172.0920  135.3080 C   0  0  2  0  0  3  0  0  0  0  0  0
  195.4670  171.9780  134.6100 C   0  0  0  0  0  1  0  0  0  0  0  0
  197.9410  171.2070  137.7870 O   0  0  0  0  0  1  0  0  0  0  0  0
  197.0880  170.6810  136.4240 P   0  0  0  0  0  0  0  0  0  0  0  0
  197.8860  169.6050  135.7240 O   0  0  0  0  0  0  0  0  0  0  0  0
  195.5970  170.0540  136.9120 O   0  0  0  0  0  1  0  0  0  0  0  0
  1  8  2  0  0  0  0
  1  7  1  0  0  0  0
  2  6  1  0  0  0  0
  3 10  1  0  0  0  0
  3 14  1  1  0  0  0
  5 11  1  6  0  0  0
  5  1  1  0  0  0  0
  6  4  2  0  0  0  0
  7 12  2  0  0  0  0
  9 39  1  1  0  0  0
  9  5  1  0  0  0  0
  9  3  1  0  0  0  0
 10  7  1  0  0  0  0
 10  2  2  0  0  0  0
 12  4  1  0  0  0  0
 14 13  1  1  0  0  0
 14 15  1  0  0  0  0
 15 16  1  0  0  0  0
 16 18  1  0  0  0  0
 17 18  2  0  0  0  0
 18 19  1  0  0  0  0
 21 20  2  0  0  0  0
 21 26  1  0  0  0  0
 22 19  1  6  0  0  0
 23 34  1  1  0  0  0
 23 22  1  0  0  0  0
 24 22  1  0  0  0  0
 25 24  2  0  0  0  0
 26 25  1  0  0  0  0
 26 23  1  0  0  0  0
 27 31  1  6  0  0  0
 27 21  1  0  0  0  0
 30 29  1  0  0  0  0
 30 28  1  1  0  0  0
 30 27  1  0  0  0  0
 31 33  1  0  0  0  0
 32 31  2  0  0  0  0
 35 34  1  0  0  0  0
 36 35  1  6  0  0  0
 37 38  1  0  0  0  0
 37 36  1  0  0  0  0
 38 36  1  0  0  0  0
 40 39  1  0  0  0  0
 41 40  1  0  0  0  0
 42 41  1  0  0  0  0
 43 42  1  1  0  0  0
 44 50  2  0  0  0  0
 45 52  1  0  0  0  0
 45 54  1  1  0  0  0
 46 53  2  0  0  0  0
 47 46  1  0  0  0  0
 47 45  1  0  0  0  0
 48 53  1  0  0  0  0
 48 51  1  0  0  0  0
 49 50  1  0  0  0  0
 50 43  1  0  0  0  0
 51 52  2  0  0  0  0
 51 49  1  0  0  0  0
 52 44  1  0  0  0  0
 56 57  1  0  0  0  0
 56 54  1  0  0  0  0
 56 55  1  0  0  0  0
 57 55  1  0  0  0  0
 58 43  1  0  0  0  0
 59 60  1  0  0  0  0
 59 58  1  0  0  0  0
 61 62  1  1  0  0  0
 61 60  1  0  0  0  0
 61 64  1  0  0  0  0
 64 66  1  0  0  0  0
 64 63  1  0  0  0  0
 65 64  2  0  0  0  0
M  END
>  <MODEL>
5

>  <REMARK>
 VINA RESULT:      -5.4      3.013      8.342
  Name = 
  25 active torsions:
  status: ('A' for Active; 'I' for Inactive)
    1  A    between atoms: C_1  and  O_33
    2  A    between atoms: C_1  and  C_61
    3  A    between atoms: C_4  and  C_32
    4  A    between atoms: C_5  and  C_40
    5  A    between atoms: C_7  and  C_35
    6  A    between atoms: O_9  and  C_21
    7  A    between atoms: O_9  and  C_59
    8  A    between atoms: C_13  and  C_40
    9  A    between atoms: C_14  and  O_29
   10  A    between atoms: C_20  and  C_39
   11  A    between atoms: C_21  and  C_32
   12  A    between atoms: C_22  and  N_45
   13  A    between atoms: C_22  and  C_53
   14  A    between atoms: C_22  and  C_64
   15  A    between atoms: C_23  and  O_38
   16  A    between atoms: C_28  and  O_33
   17  A    between atoms: O_29  and  C_54
   18  A    between atoms: C_34  and  C_60
   19  A    between atoms: C_34  and  C_63
   20  A    between atoms: C_35  and  O_38
   21  A    between atoms: C_39  and  C_59
   22  A    between atoms: C_40  and  C_48
   23  A    between atoms: P_42  and  C_60
   24  A    between atoms: N_45  and  C_63
   25  A    between atoms: C_61  and  C_64
                            x       y       z     vdW  Elec       q    Type
                         _______ _______ _______ _____ _____    ______ ____

>  <TORSDO>
F 25

$$$$
=
 OpenBabel11062421303D

 66 72  0  0  1  0  0  0  0  0999 V2000
  190.6310  176.6760  147.0310 C   0  0  0  0  0  0  0  0  0  0  0  0
  188.6520  177.1880  143.8460 C   0  0  0  0  0  3  0  0  0  0  0  0
  190.9470  176.2260  144.1630 C   0  0  2  0  0  3  0  0  0  0  0  0
  187.2920  177.8840  145.7240 C   0  0  0  0  0  3  0  0  0  0  0  0
  191.9290  176.1160  146.5080 C   0  0  1  0  0  3  0  0  0  0  0  0
  187.4520  177.7030  144.3490 C   0  0  0  0  0  3  0  0  0  0  0  0
  189.5320  177.0290  146.1050 C   0  0  0  0  0  0  0  0  0  0  0  0
  190.4720  176.8020  148.2760 O   0  0  0  0  0  0  0  0  0  0  0  0
  192.1710  176.5120  145.0500 C   0  0  1  0  0  3  0  0  0  0  0  0
  189.6940  176.8500  144.7160 C   0  0  0  0  0  0  0  0  0  0  0  0
  192.9930  176.5650  147.2940 O   0  0  0  0  0  1  0  0  0  0  0  0
  188.3280  177.5510  146.5990 C   0  0  0  0  0  3  0  0  0  0  0  0
  191.2280  174.5100  142.4900 O   0  0  0  0  0  1  0  0  0  0  0  0
  190.7960  174.7390  143.7940 C   0  0  2  0  0  3  0  0  0  0  0  0
  189.4020  174.1590  144.0130 C   0  0  0  0  0  2  0  0  0  0  0  0
  189.2660  172.9050  143.3610 O   0  0  0  0  0  0  0  0  0  0  0  0
  189.7830  171.2880  144.8940 O   0  0  0  0  0  0  0  0  0  0  0  0
  189.9940  171.7800  143.7530 C   0  0  0  0  0  0  0  0  0  0  0  0
  191.0060  171.1580  142.8260 C   0  0  0  0  0  2  0  0  0  0  0  0
  192.8250  172.6810  138.3160 O   0  0  0  0  0  0  0  0  0  0  0  0
  192.6450  171.4390  138.4130 C   0  0  0  0  0  0  0  0  0  0  0  0
  190.4560  170.8510  141.4370 C   0  0  1  0  0  3  0  0  0  0  0  0
  191.0990  171.7740  140.4010 C   0  0  1  0  0  3  0  0  0  0  0  0
  190.8440  169.4280  141.0470 C   0  0  0  0  0  3  0  0  0  0  0  0
  191.6510  169.5100  139.7600 C   0  0  0  0  0  3  0  0  0  0  0  0
  191.7930  170.9220  139.4500 N   0  0  0  0  0  0  0  0  0  0  0  0
  193.3210  170.5400  137.4130 C   0  0  2  0  0  3  0  0  0  0  0  0
  195.6700  169.9220  138.0760 C   0  0  0  0  0  1  0  0  0  0  0  0
  195.1790  170.7440  135.9050 O   0  0  0  0  0  1  0  0  0  0  0  0
  194.8100  170.8640  137.2460 C   0  0  1  0  0  3  0  0  0  0  0  0
  192.5580  170.5050  136.1140 C   0  0  0  0  0  0  0  0  0  0  0  0
  192.3120  169.4060  135.5430 O   0  0  0  0  0  0  0  0  0  0  0  0
  192.1500  171.7240  135.5030 N   0  0  0  0  0  1  0  0  0  0  0  0
  190.1640  172.6370  139.7810 O   0  0  0  0  0  0  0  0  0  0  0  0
  189.1990  171.8770  139.0850 C   0  0  0  0  0  2  0  0  0  0  0  0
  188.4750  172.6860  138.0060 C   0  0  2  0  0  3  0  0  0  0  0  0
  189.3280  173.7740  137.4780 C   0  0  0  0  0  2  0  0  0  0  0  0
  188.2990  174.0220  138.4100 O   0  0  0  0  0  0  0  0  0  0  0  0
  193.2900  175.8400  144.5430 O   0  0  0  0  0  0  0  0  0  0  0  0
  193.5530  176.3950  143.2870 C   0  0  0  0  0  2  0  0  0  0  0  0
  194.9780  176.1020  142.8280 C   0  0  0  0  0  2  0  0  0  0  0  0
  195.0020  175.1230  141.6680 C   0  0  0  0  0  2  0  0  0  0  0  0
  196.3620  175.1960  140.9920 C   0  0  2  0  0  3  0  0  0  0  0  0
  195.2330  175.2590  138.6660 C   0  0  0  0  0  3  0  0  0  0  0  0
  194.8080  174.8440  136.1760 C   0  0  1  0  0  3  0  0  0  0  0  0
  196.6010  174.3060  134.5820 N   0  0  0  0  0  0  0  0  0  0  0  0
  195.3030  173.8980  135.0750 C   0  0  0  0  0  2  0  0  0  0  0  0
  197.7130  173.4700  136.5970 C   0  0  0  0  0  2  0  0  0  0  0  0
  197.2470  174.3230  138.8620 O   0  0  0  0  0  0  0  0  0  0  0  0
  196.2910  174.9450  139.5140 C   0  0  0  0  0  0  0  0  0  0  0  0
  196.8900  174.2070  137.6090 C   0  0  0  0  0  0  0  0  0  0  0  0
  195.6360  174.7780  137.4320 C   0  0  0  0  0  0  0  0  0  0  0  0
  197.6890  174.1350  135.2510 C   0  0  0  0  0  3  0  0  0  0  0  0
  194.7420  176.1580  135.6950 O   0  0  0  0  0  0  0  0  0  0  0  0
  192.7450  177.4020  135.3520 C   0  0  0  0  0  2  0  0  0  0  0  0
  193.5750  176.2040  134.9290 C   0  0  0  0  0  3  0  0  0  0  0  0
  192.3740  176.0200  135.8350 C   0  0  0  0  0  2  0  0  0  0  0  0
  197.2900  174.2740  141.6380 N   0  0  0  0  0  2  0  0  0  0  0  0
  196.5530  173.0770  142.0260 C   0  0  0  0  0  2  0  0  0  0  0  0
  197.2010  171.8290  141.4360 C   0  0  0  0  0  2  0  0  0  0  0  0
  196.4590  170.5430  141.8020 C   0  0  2  0  0  3  0  0  0  0  0  0
  195.0350  170.5480  141.2760 C   0  0  0  0  0  1  0  0  0  0  0  0
  194.9170  169.9210  144.1350 O   0  0  0  0  0  1  0  0  0  0  0  0
  196.4930  170.2040  143.5900 P   0  0  0  0  0  0  0  0  0  0  0  0
  197.0710  171.3830  144.3390 O   0  0  0  0  0  1  0  0  0  0  0  0
  197.4340  168.8320  143.8810 O   0  0  0  0  0  0  0  0  0  0  0  0
  1  8  2  0  0  0  0
  2  6  2  0  0  0  0
  2 10  1  0  0  0  0
  3 14  1  1  0  0  0
  3 10  1  0  0  0  0
  3  9  1  0  0  0  0
  4 12  2  0  0  0  0
  5  1  1  0  0  0  0
  5 11  1  1  0  0  0
  6  4  1  0  0  0  0
  7 12  1  0  0  0  0
  7  1  1  0  0  0  0
  9 39  1  6  0  0  0
  9  5  1  0  0  0  0
 10  7  2  0  0  0  0
 14 13  1  6  0  0  0
 14 15  1  0  0  0  0
 16 18  1  0  0  0  0
 16 15  1  0  0  0  0
 18 17  2  0  0  0  0
 19 18  1  0  0  0  0
 20 21  2  0  0  0  0
 21 26  1  0  0  0  0
 22 19  1  1  0  0  0
 23 34  1  6  0  0  0
 23 22  1  0  0  0  0
 24 22  1  0  0  0  0
 25 24  2  0  0  0  0
 26 25  1  0  0  0  0
 26 23  1  0  0  0  0
 27 31  1  6  0  0  0
 27 21  1  0  0  0  0
 29 30  1  0  0  0  0
 30 27  1  0  0  0  0
 30 28  1  1  0  0  0
 32 31  2  0  0  0  0
 33 31  1  0  0  0  0
 35 34  1  0  0  0  0
 36 38  1  0  0  0  0
 36 35  1  1  0  0  0
 37 36  1  0  0  0  0
 37 38  1  0  0  0  0
 40 39  1  0  0  0  0
 41 40  1  0  0  0  0
 42 41  1  0  0  0  0
 43 58  1  0  0  0  0
 43 42  1  1  0  0  0
 44 50  2  0  0  0  0
 45 54  1  6  0  0  0
 45 52  1  0  0  0  0
 46 47  1  0  0  0  0
 46 53  2  0  0  0  0
 47 45  1  0  0  0  0
 48 51  1  0  0  0  0
 49 50  1  0  0  0  0
 50 43  1  0  0  0  0
 51 49  1  0  0  0  0
 52 51  2  0  0  0  0
 52 44  1  0  0  0  0
 53 48  1  0  0  0  0
 55 57  1  0  0  0  0
 56 55  1  0  0  0  0
 56 54  1  0  0  0  0
 56 57  1  0  0  0  0
 58 59  1  0  0  0  0
 60 61  1  0  0  0  0
 60 59  1  0  0  0  0
 61 62  1  1  0  0  0
 61 64  1  0  0  0  0
 64 66  2  0  0  0  0
 64 63  1  0  0  0  0
 64 65  1  0  0  0  0
M  END
>  <MODEL>
6

>  <REMARK>
 VINA RESULT:      -5.1      3.029      7.084
  Name = 
  25 active torsions:
  status: ('A' for Active; 'I' for Inactive)
    1  A    between atoms: C_1  and  O_33
    2  A    between atoms: C_1  and  C_61
    3  A    between atoms: C_4  and  C_32
    4  A    between atoms: C_5  and  C_40
    5  A    between atoms: C_7  and  C_35
    6  A    between atoms: O_9  and  C_21
    7  A    between atoms: O_9  and  C_59
    8  A    between atoms: C_13  and  C_40
    9  A    between atoms: C_14  and  O_29
   10  A    between atoms: C_20  and  C_39
   11  A    between atoms: C_21  and  C_32
   12  A    between atoms: C_22  and  N_45
   13  A    between atoms: C_22  and  C_53
   14  A    between atoms: C_22  and  C_64
   15  A    between atoms: C_23  and  O_38
   16  A    between atoms: C_28  and  O_33
   17  A    between atoms: O_29  and  C_54
   18  A    between atoms: C_34  and  C_60
   19  A    between atoms: C_34  and  C_63
   20  A    between atoms: C_35  and  O_38
   21  A    between atoms: C_39  and  C_59
   22  A    between atoms: C_40  and  C_48
   23  A    between atoms: P_42  and  C_60
   24  A    between atoms: N_45  and  C_63
   25  A    between atoms: C_61  and  C_64
                            x       y       z     vdW  Elec       q    Type
                         _______ _______ _______ _____ _____    ______ ____

>  <TORSDO>
F 25

$$$$
=
 OpenBabel11062421303D

 66 72  0  0  1  0  0  0  0  0999 V2000
  187.8750  174.8490  138.8730 C   0  0  0  0  0  0  0  0  0  0  0  0
  190.5650  172.2030  138.5960 C   0  0  0  0  0  3  0  0  0  0  0  0
  189.7720  173.4690  140.6110 C   0  0  2  0  0  3  0  0  0  0  0  0
  189.5480  172.5040  136.4210 C   0  0  0  0  0  3  0  0  0  0  0  0
  187.9490  175.2220  140.3320 C   0  0  1  0  0  3  0  0  0  0  0  0
  190.4800  171.8660  137.2410 C   0  0  0  0  0  3  0  0  0  0  0  0
  188.7720  173.8180  138.3100 C   0  0  0  0  0  0  0  0  0  0  0  0
  187.0050  175.3980  138.1420 O   0  0  0  0  0  0  0  0  0  0  0  0
  189.3220  174.9050  140.9290 C   0  0  1  0  0  3  0  0  0  0  0  0
  189.7180  173.1750  139.1360 C   0  0  0  0  0  0  0  0  0  0  0  0
  187.6760  176.5820  140.4910 O   0  0  0  0  0  1  0  0  0  0  0  0
  188.6990  173.4770  136.9510 C   0  0  0  0  0  3  0  0  0  0  0  0
  187.9470  172.9350  142.0980 O   0  0  0  0  0  1  0  0  0  0  0  0
  189.0820  172.4070  141.4870 C   0  0  2  0  0  3  0  0  0  0  0  0
  189.9860  171.7330  142.5150 C   0  0  0  0  0  2  0  0  0  0  0  0
  190.1120  172.5320  143.6810 O   0  0  0  0  0  0  0  0  0  0  0  0
  191.8180  171.4070  144.7110 O   0  0  0  0  0  0  0  0  0  0  0  0
  191.2620  172.5130  144.4750 C   0  0  0  0  0  0  0  0  0  0  0  0
  191.8330  173.7920  145.0310 C   0  0  0  0  0  2  0  0  0  0  0  0
  189.3820  178.2530  145.2910 O   0  0  0  0  0  0  0  0  0  0  0  0
  188.6790  177.2530  145.5930 C   0  0  0  0  0  0  0  0  0  0  0  0
  191.0340  174.3610  146.1990 C   0  0  1  0  0  3  0  0  0  0  0  0
  190.7610  175.8490  145.9750 C   0  0  1  0  0  3  0  0  0  0  0  0
  189.6720  173.6760  146.2570 C   0  0  0  0  0  3  0  0  0  0  0  0
  188.6100  174.7580  146.1340 C   0  0  0  0  0  3  0  0  0  0  0  0
  189.3170  176.0120  145.9380 N   0  0  0  0  0  0  0  0  0  0  0  0
  187.1820  177.4100  145.6000 C   0  0  2  0  0  3  0  0  0  0  0  0
  185.8990  177.7880  143.4680 C   0  0  0  0  0  1  0  0  0  0  0  0
  185.8860  179.3940  145.2130 O   0  0  0  0  0  1  0  0  0  0  0  0
  186.6960  178.4480  144.5830 C   0  0  1  0  0  3  0  0  0  0  0  0
  186.6690  177.6440  146.9990 C   0  0  0  0  0  0  0  0  0  0  0  0
  187.1800  178.5390  147.7280 O   0  0  0  0  0  0  0  0  0  0  0  0
  185.6320  176.8190  147.5160 N   0  0  0  0  0  1  0  0  0  0  0  0
  191.3780  176.6710  146.9480 O   0  0  0  0  0  0  0  0  0  0  0  0
  191.3400  176.0360  148.2070 C   0  0  0  0  0  2  0  0  0  0  0  0
  191.5350  177.0140  149.3690 C   0  0  2  0  0  3  0  0  0  0  0  0
  190.6990  178.2240  149.2070 C   0  0  0  0  0  2  0  0  0  0  0  0
  192.0800  178.2300  148.9190 O   0  0  0  0  0  0  0  0  0  0  0  0
  189.3050  175.1010  142.3160 O   0  0  0  0  0  0  0  0  0  0  0  0
  190.4580  175.8280  142.6290 C   0  0  0  0  0  2  0  0  0  0  0  0
  191.7010  175.2200  141.9880 C   0  0  0  0  0  2  0  0  0  0  0  0
  192.9580  175.9770  142.3730 C   0  0  0  0  0  2  0  0  0  0  0  0
  194.1660  175.2310  141.8310 C   0  0  2  0  0  3  0  0  0  0  0  0
  194.3320  172.7860  142.6600 C   0  0  0  0  0  3  0  0  0  0  0  0
  194.8930  170.7680  144.1330 C   0  0  1  0  0  3  0  0  0  0  0  0
  196.7220  170.7740  145.7750 N   0  0  0  0  0  0  0  0  0  0  0  0
  195.3160  170.4930  145.5800 C   0  0  0  0  0  2  0  0  0  0  0  0
  196.3210  173.1890  145.7440 C   0  0  0  0  0  2  0  0  0  0  0  0
  195.3720  174.3880  143.8110 O   0  0  0  0  0  0  0  0  0  0  0  0
  194.6380  174.1410  142.7500 C   0  0  0  0  0  0  0  0  0  0  0  0
  195.5870  173.2620  144.4400 C   0  0  0  0  0  0  0  0  0  0  0  0
  194.9570  172.2260  143.7610 C   0  0  0  0  0  0  0  0  0  0  0  0
  197.1950  171.9720  145.8380 C   0  0  0  0  0  3  0  0  0  0  0  0
  195.6570  169.9980  143.2470 O   0  0  0  0  0  0  0  0  0  0  0  0
  194.8510  168.2020  141.9140 C   0  0  0  0  0  2  0  0  0  0  0  0
  195.1090  168.7150  143.3180 C   0  0  0  0  0  3  0  0  0  0  0  0
  193.7070  168.7380  142.7410 C   0  0  0  0  0  2  0  0  0  0  0  0
  195.2420  176.1700  141.5350 N   0  0  0  0  0  2  0  0  0  0  0  0
  196.0170  175.6450  140.4170 C   0  0  0  0  0  2  0  0  0  0  0  0
  195.1070  175.3070  139.2410 C   0  0  0  0  0  2  0  0  0  0  0  0
  195.8610  174.6850  138.0640 C   0  0  2  0  0  3  0  0  0  0  0  0
  196.2040  175.7210  137.0080 C   0  0  0  0  0  1  0  0  0  0  0  0
  193.3840  173.7460  136.9740 O   0  0  0  0  0  1  0  0  0  0  0  0
  194.9690  173.2780  137.3320 P   0  0  0  0  0  0  0  0  0  0  0  0
  194.9370  172.1150  138.2970 O   0  0  0  0  0  1  0  0  0  0  0  0
  195.7430  172.8080  135.9050 O   0  0  0  0  0  0  0  0  0  0  0  0
  1  5  1  0  0  0  0
  2 10  1  0  0  0  0
  3  9  1  0  0  0  0
  3 14  1  1  0  0  0
  4 12  2  0  0  0  0
  4  6  1  0  0  0  0
  5 11  1  6  0  0  0
  5  9  1  0  0  0  0
  6  2  2  0  0  0  0
  7  1  1  0  0  0  0
  7 10  2  0  0  0  0
  8  1  2  0  0  0  0
  9 39  1  1  0  0  0
 10  3  1  0  0  0  0
 12  7  1  0  0  0  0
 14 13  1  1  0  0  0
 14 15  1  0  0  0  0
 15 16  1  0  0  0  0
 16 18  1  0  0  0  0
 18 17  2  0  0  0  0
 18 19  1  0  0  0  0
 20 21  2  0  0  0  0
 21 26  1  0  0  0  0
 22 19  1  6  0  0  0
 22 24  1  0  0  0  0
 23 22  1  0  0  0  0
 23 34  1  1  0  0  0
 25 24  2  0  0  0  0
 26 23  1  0  0  0  0
 26 25  1  0  0  0  0
 27 21  1  1  0  0  0
 27 31  1  0  0  0  0
 30 28  1  6  0  0  0
 30 29  1  0  0  0  0
 30 27  1  0  0  0  0
 31 33  1  0  0  0  0
 31 32  2  0  0  0  0
 34 35  1  0  0  0  0
 36 35  1  6  0  0  0
 37 36  1  0  0  0  0
 38 37  1  0  0  0  0
 38 36  1  0  0  0  0
 39 40  1  0  0  0  0
 41 42  1  0  0  0  0
 41 40  1  0  0  0  0
 43 42  1  1  0  0  0
 43 50  1  0  0  0  0
 44 50  2  0  0  0  0
 44 52  1  0  0  0  0
 45 54  1  6  0  0  0
 45 47  1  0  0  0  0
 46 53  2  0  0  0  0
 47 46  1  0  0  0  0
 48 53  1  0  0  0  0
 49 51  1  0  0  0  0
 50 49  1  0  0  0  0
 51 48  1  0  0  0  0
 52 45  1  0  0  0  0
 52 51  2  0  0  0  0
 54 56  1  0  0  0  0
 55 57  1  0  0  0  0
 55 56  1  0  0  0  0
 57 56  1  0  0  0  0
 58 43  1  0  0  0  0
 59 58  1  0  0  0  0
 60 59  1  0  0  0  0
 61 62  1  6  0  0  0
 61 60  1  0  0  0  0
 63 64  1  0  0  0  0
 64 61  1  0  0  0  0
 64 65  1  0  0  0  0
 66 64  2  0  0  0  0
M  END
>  <MODEL>
7

>  <REMARK>
 VINA RESULT:      -4.8      2.611      7.448
  Name = 
  25 active torsions:
  status: ('A' for Active; 'I' for Inactive)
    1  A    between atoms: C_1  and  O_33
    2  A    between atoms: C_1  and  C_61
    3  A    between atoms: C_4  and  C_32
    4  A    between atoms: C_5  and  C_40
    5  A    between atoms: C_7  and  C_35
    6  A    between atoms: O_9  and  C_21
    7  A    between atoms: O_9  and  C_59
    8  A    between atoms: C_13  and  C_40
    9  A    between atoms: C_14  and  O_29
   10  A    between atoms: C_20  and  C_39
   11  A    between atoms: C_21  and  C_32
   12  A    between atoms: C_22  and  N_45
   13  A    between atoms: C_22  and  C_53
   14  A    between atoms: C_22  and  C_64
   15  A    between atoms: C_23  and  O_38
   16  A    between atoms: C_28  and  O_33
   17  A    between atoms: O_29  and  C_54
   18  A    between atoms: C_34  and  C_60
   19  A    between atoms: C_34  and  C_63
   20  A    between atoms: C_35  and  O_38
   21  A    between atoms: C_39  and  C_59
   22  A    between atoms: C_40  and  C_48
   23  A    between atoms: P_42  and  C_60
   24  A    between atoms: N_45  and  C_63
   25  A    between atoms: C_61  and  C_64
                            x       y       z     vdW  Elec       q    Type
                         _______ _______ _______ _____ _____    ______ ____

>  <TORSDO>
F 25

$$$$
=
 OpenBabel11062421303D

 66 72  0  0  1  0  0  0  0  0999 V2000
  194.2090  176.0590  145.9400 C   0  0  0  0  0  0  0  0  0  0  0  0
  190.8300  174.4060  146.3520 C   0  0  0  0  0  3  0  0  0  0  0  0
  192.5420  174.1130  144.5420 C   0  0  2  0  0  3  0  0  0  0  0  0
  191.2220  175.8510  148.2540 C   0  0  0  0  0  3  0  0  0  0  0  0
  194.6840  175.4830  144.6310 C   0  0  1  0  0  3  0  0  0  0  0  0
  190.4070  174.9470  147.5700 C   0  0  0  0  0  3  0  0  0  0  0  0
  192.8970  175.6740  146.5050 C   0  0  0  0  0  0  0  0  0  0  0  0
  194.9640  176.8460  146.5770 O   0  0  0  0  0  0  0  0  0  0  0  0
  193.5160  175.0130  143.7620 C   0  0  1  0  0  3  0  0  0  0  0  0
  192.0710  174.7640  145.8140 C   0  0  0  0  0  0  0  0  0  0  0  0
  195.4280  176.4370  143.9320 O   0  0  0  0  0  1  0  0  0  0  0  0
  192.4610  176.2150  147.7230 C   0  0  0  0  0  3  0  0  0  0  0  0
  194.4500  172.6440  144.6980 O   0  0  0  0  0  1  0  0  0  0  0  0
  193.0580  172.6750  144.7280 C   0  0  2  0  0  3  0  0  0  0  0  0
  192.4730  171.6500  143.7600 C   0  0  0  0  0  2  0  0  0  0  0  0
  191.0590  171.7660  143.6910 O   0  0  0  0  0  0  0  0  0  0  0  0
  191.0210  172.6700  141.5900 O   0  0  0  0  0  0  0  0  0  0  0  0
  190.4210  172.4940  142.6840 C   0  0  0  0  0  0  0  0  0  0  0  0
  189.0380  173.0510  142.8990 C   0  0  0  0  0  2  0  0  0  0  0  0
  185.4180  176.3900  144.2120 O   0  0  0  0  0  0  0  0  0  0  0  0
  186.5950  176.8030  144.3800 C   0  0  0  0  0  0  0  0  0  0  0  0
  188.8850  174.5010  142.4490 C   0  0  1  0  0  3  0  0  0  0  0  0
  187.4930  175.0210  142.8100 C   0  0  1  0  0  3  0  0  0  0  0  0
  189.8820  175.3690  143.2110 C   0  0  0  0  0  3  0  0  0  0  0  0
  189.0860  176.4280  143.9590 C   0  0  0  0  0  3  0  0  0  0  0  0
  187.6830  176.1470  143.7070 N   0  0  0  0  0  0  0  0  0  0  0  0
  186.8120  177.9950  145.2740 C   0  0  2  0  0  3  0  0  0  0  0  0
  187.5710  178.7850  147.5410 C   0  0  0  0  0  1  0  0  0  0  0  0
  187.0990  176.4970  147.1290 O   0  0  0  0  0  1  0  0  0  0  0  0
  187.6170  177.6480  146.5310 C   0  0  1  0  0  3  0  0  0  0  0  0
  185.5100  178.6990  145.5620 C   0  0  0  0  0  0  0  0  0  0  0  0
  184.7530  178.2950  146.4880 O   0  0  0  0  0  0  0  0  0  0  0  0
  185.1100  179.8000  144.7540 N   0  0  0  0  0  1  0  0  0  0  0  0
  186.7210  175.3530  141.6710 O   0  0  0  0  0  0  0  0  0  0  0  0
  187.4470  176.2320  140.8390 C   0  0  0  0  0  2  0  0  0  0  0  0
  186.6160  177.4320  140.3790 C   0  0  2  0  0  3  0  0  0  0  0  0
  186.2980  177.3510  138.9360 C   0  0  0  0  0  2  0  0  0  0  0  0
  187.3150  178.1950  139.4270 O   0  0  0  0  0  0  0  0  0  0  0  0
  193.9920  174.3310  142.6350 O   0  0  0  0  0  0  0  0  0  0  0  0
  193.7960  175.1810  141.5420 C   0  0  0  0  0  2  0  0  0  0  0  0
  194.9700  175.1300  140.5710 C   0  0  0  0  0  2  0  0  0  0  0  0
  194.8190  174.0020  139.5670 C   0  0  0  0  0  2  0  0  0  0  0  0
  195.1810  174.5220  138.1850 C   0  0  2  0  0  3  0  0  0  0  0  0
  192.8130  174.0660  137.2500 C   0  0  0  0  0  3  0  0  0  0  0  0
  190.6930  174.2870  135.8310 C   0  0  1  0  0  3  0  0  0  0  0  0
  190.0260  176.3830  134.7330 N   0  0  0  0  0  0  0  0  0  0  0  0
  190.2550  174.9680  134.5290 C   0  0  0  0  0  2  0  0  0  0  0  0
  192.4310  176.8330  134.8350 C   0  0  0  0  0  2  0  0  0  0  0  0
  193.9280  175.8600  136.5350 O   0  0  0  0  0  0  0  0  0  0  0  0
  193.9750  174.8260  137.3440 C   0  0  0  0  0  0  0  0  0  0  0  0
  192.7830  175.8420  135.9020 C   0  0  0  0  0  0  0  0  0  0  0  0
  192.0460  174.7390  136.3130 C   0  0  0  0  0  0  0  0  0  0  0  0
  190.9840  177.2320  134.8840 C   0  0  0  0  0  3  0  0  0  0  0  0
  189.7260  174.4730  136.8270 O   0  0  0  0  0  0  0  0  0  0  0  0
  188.8080  173.0880  138.5290 C   0  0  0  0  0  2  0  0  0  0  0  0
  189.2060  173.1980  137.0690 C   0  0  0  0  0  3  0  0  0  0  0  0
  190.1020  172.4720  138.0530 C   0  0  0  0  0  2  0  0  0  0  0  0
  196.0660  173.5780  137.5120 N   0  0  0  0  0  2  0  0  0  0  0  0
  195.2630  172.7520  136.6180 C   0  0  0  0  0  2  0  0  0  0  0  0
  195.8980  171.3770  136.4370 C   0  0  0  0  0  2  0  0  0  0  0  0
  196.5380  170.8430  137.7190 C   0  0  2  0  0  3  0  0  0  0  0  0
  197.9360  170.3090  137.4680 C   0  0  0  0  0  1  0  0  0  0  0  0
  195.1880  168.3290  137.4710 O   0  0  0  0  0  0  0  0  0  0  0  0
  195.5020  169.5960  138.5470 P   0  0  0  0  0  0  0  0  0  0  0  0
  194.1920  170.2080  138.9880 O   0  0  0  0  0  1  0  0  0  0  0  0
  196.3250  168.9900  139.8920 O   0  0  0  0  0  1  0  0  0  0  0  0
  1  7  1  0  0  0  0
  1  8  2  0  0  0  0
  2  6  1  0  0  0  0
  3 14  1  1  0  0  0
  3 10  1  0  0  0  0
  5 11  1  6  0  0  0
  5  1  1  0  0  0  0
  6  4  2  0  0  0  0
  7 12  2  0  0  0  0
  9 39  1  6  0  0  0
  9  3  1  0  0  0  0
  9  5  1  0  0  0  0
 10  2  2  0  0  0  0
 10  7  1  0  0  0  0
 12  4  1  0  0  0  0
 14 13  1  6  0  0  0
 15 14  1  0  0  0  0
 16 15  1  0  0  0  0
 17 18  2  0  0  0  0
 18 19  1  0  0  0  0
 18 16  1  0  0  0  0
 20 21  2  0  0  0  0
 22 23  1  0  0  0  0
 22 19  1  1  0  0  0
 22 24  1  0  0  0  0
 23 34  1  6  0  0  0
 23 26  1  0  0  0  0
 24 25  2  0  0  0  0
 26 25  1  0  0  0  0
 26 21  1  0  0  0  0
 27 21  1  1  0  0  0
 27 31  1  0  0  0  0
 27 30  1  0  0  0  0
 30 29  1  0  0  0  0
 30 28  1  1  0  0  0
 31 32  2  0  0  0  0
 33 31  1  0  0  0  0
 35 34  1  0  0  0  0
 36 35  1  6  0  0  0
 37 38  1  0  0  0  0
 37 36  1  0  0  0  0
 38 36  1  0  0  0  0
 40 39  1  0  0  0  0
 41 40  1  0  0  0  0
 42 41  1  0  0  0  0
 43 42  1  1  0  0  0
 44 50  2  0  0  0  0
 45 52  1  0  0  0  0
 45 54  1  1  0  0  0
 46 53  2  0  0  0  0
 47 46  1  0  0  0  0
 47 45  1  0  0  0  0
 48 53  1  0  0  0  0
 48 51  1  0  0  0  0
 49 50  1  0  0  0  0
 50 43  1  0  0  0  0
 51 52  2  0  0  0  0
 51 49  1  0  0  0  0
 52 44  1  0  0  0  0
 54 56  1  0  0  0  0
 56 57  1  0  0  0  0
 56 55  1  0  0  0  0
 57 55  1  0  0  0  0
 58 43  1  0  0  0  0
 59 58  1  0  0  0  0
 60 59  1  0  0  0  0
 60 61  1  0  0  0  0
 61 62  1  6  0  0  0
 61 64  1  0  0  0  0
 63 64  2  0  0  0  0
 64 65  1  0  0  0  0
 64 66  1  0  0  0  0
M  END
>  <MODEL>
8

>  <REMARK>
 VINA RESULT:      -4.7      3.072      8.175
  Name = 
  25 active torsions:
  status: ('A' for Active; 'I' for Inactive)
    1  A    between atoms: C_1  and  O_33
    2  A    between atoms: C_1  and  C_61
    3  A    between atoms: C_4  and  C_32
    4  A    between atoms: C_5  and  C_40
    5  A    between atoms: C_7  and  C_35
    6  A    between atoms: O_9  and  C_21
    7  A    between atoms: O_9  and  C_59
    8  A    between atoms: C_13  and  C_40
    9  A    between atoms: C_14  and  O_29
   10  A    between atoms: C_20  and  C_39
   11  A    between atoms: C_21  and  C_32
   12  A    between atoms: C_22  and  N_45
   13  A    between atoms: C_22  and  C_53
   14  A    between atoms: C_22  and  C_64
   15  A    between atoms: C_23  and  O_38
   16  A    between atoms: C_28  and  O_33
   17  A    between atoms: O_29  and  C_54
   18  A    between atoms: C_34  and  C_60
   19  A    between atoms: C_34  and  C_63
   20  A    between atoms: C_35  and  O_38
   21  A    between atoms: C_39  and  C_59
   22  A    between atoms: C_40  and  C_48
   23  A    between atoms: P_42  and  C_60
   24  A    between atoms: N_45  and  C_63
   25  A    between atoms: C_61  and  C_64
                            x       y       z     vdW  Elec       q    Type
                         _______ _______ _______ _____ _____    ______ ____

>  <TORSDO>
F 25

$$$$
=
 OpenBabel11062421303D

 66 72  0  0  1  0  0  0  0  0999 V2000
  191.8610  174.9030  142.1060 C   0  0  0  0  0  0  0  0  0  0  0  0
  189.3680  172.2180  141.1590 C   0  0  0  0  0  3  0  0  0  0  0  0
  191.5540  172.0120  142.3730 C   0  0  2  0  0  3  0  0  0  0  0  0
  188.4930  174.3660  140.4680 C   0  0  0  0  0  3  0  0  0  0  0  0
  192.9580  174.0990  142.7560 C   0  0  1  0  0  3  0  0  0  0  0  0
  188.3580  172.9800  140.5620 C   0  0  0  0  0  3  0  0  0  0  0  0
  190.6510  174.2400  141.5750 C   0  0  0  0  0  0  0  0  0  0  0  0
  191.9660  176.1600  142.0560 O   0  0  0  0  0  0  0  0  0  0  0  0
  192.9520  172.6440  142.2810 C   0  0  1  0  0  3  0  0  0  0  0  0
  190.5140  172.8390  141.6660 C   0  0  0  0  0  0  0  0  0  0  0  0
  194.2000  174.6740  142.4780 O   0  0  0  0  0  1  0  0  0  0  0  0
  189.6350  174.9940  140.9690 C   0  0  0  0  0  3  0  0  0  0  0  0
  191.4210  170.2530  144.0210 O   0  0  0  0  0  1  0  0  0  0  0  0
  191.1630  171.6050  143.8050 C   0  0  2  0  0  3  0  0  0  0  0  0
  189.7330  171.9540  144.2060 C   0  0  0  0  0  2  0  0  0  0  0  0
  189.6380  173.3070  144.6250 O   0  0  0  0  0  0  0  0  0  0  0  0
  191.5830  173.8770  145.6880 O   0  0  0  0  0  0  0  0  0  0  0  0
  190.3270  173.7900  145.7400 C   0  0  0  0  0  0  0  0  0  0  0  0
  189.5810  174.2090  146.9810 C   0  0  0  0  0  2  0  0  0  0  0  0
  189.0860  177.4940  143.1160 O   0  0  0  0  0  0  0  0  0  0  0  0
  188.1310  177.5060  143.9370 C   0  0  0  0  0  0  0  0  0  0  0  0
  189.2970  175.7060  147.0480 C   0  0  1  0  0  3  0  0  0  0  0  0
  189.5650  176.3540  145.6890 C   0  0  1  0  0  3  0  0  0  0  0  0
  187.8170  175.9230  147.3460 C   0  0  0  0  0  3  0  0  0  0  0  0
  187.2370  176.7450  146.2050 C   0  0  0  0  0  3  0  0  0  0  0  0
  188.3100  176.9380  145.2460 N   0  0  0  0  0  0  0  0  0  0  0  0
  186.8350  178.1430  143.5130 C   0  0  2  0  0  3  0  0  0  0  0  0
  185.5540  180.1780  144.2590 C   0  0  0  0  0  1  0  0  0  0  0  0
  185.0520  178.0240  145.1180 O   0  0  0  0  0  1  0  0  0  0  0  0
  186.1080  178.8240  144.6790 C   0  0  1  0  0  3  0  0  0  0  0  0
  185.9760  177.1670  142.7500 C   0  0  0  0  0  0  0  0  0  0  0  0
  184.9480  177.5610  142.1340 O   0  0  0  0  0  0  0  0  0  0  0  0
  186.3040  175.7820  142.7630 N   0  0  0  0  0  1  0  0  0  0  0  0
  190.6220  177.2950  145.7300 O   0  0  0  0  0  0  0  0  0  0  0  0
  191.6550  176.8190  146.5640 C   0  0  0  0  0  2  0  0  0  0  0  0
  192.8920  176.3740  145.7790 C   0  0  2  0  0  3  0  0  0  0  0  0
  194.0960  177.1290  146.1880 C   0  0  0  0  0  2  0  0  0  0  0  0
  193.4000  177.4290  144.9990 O   0  0  0  0  0  0  0  0  0  0  0  0
  193.8660  171.8870  143.0250 O   0  0  0  0  0  0  0  0  0  0  0  0
  194.6270  171.1620  142.1030 C   0  0  0  0  0  2  0  0  0  0  0  0
  194.1580  171.4020  140.6720 C   0  0  0  0  0  2  0  0  0  0  0  0
  193.9530  170.0990  139.9220 C   0  0  0  0  0  2  0  0  0  0  0  0
  194.4460  170.2700  138.4940 C   0  0  2  0  0  3  0  0  0  0  0  0
  195.0370  172.4720  137.2720 C   0  0  0  0  0  3  0  0  0  0  0  0
  196.2630  174.6270  136.6370 C   0  0  1  0  0  3  0  0  0  0  0  0
  197.7120  175.8560  138.1980 N   0  0  0  0  0  0  0  0  0  0  0  0
  197.6330  175.2750  136.8750 C   0  0  0  0  0  2  0  0  0  0  0  0
  197.9340  173.6480  139.2350 C   0  0  0  0  0  2  0  0  0  0  0  0
  196.2160  171.8880  139.0720 O   0  0  0  0  0  0  0  0  0  0  0  0
  195.2150  171.5440  138.2940 C   0  0  0  0  0  0  0  0  0  0  0  0
  196.7200  173.0110  138.6300 C   0  0  0  0  0  0  0  0  0  0  0  0
  196.0170  173.4210  137.5040 C   0  0  0  0  0  0  0  0  0  0  0  0
  197.8340  175.1460  139.2680 C   0  0  0  0  0  3  0  0  0  0  0  0
  195.2430  175.5720  136.8030 O   0  0  0  0  0  0  0  0  0  0  0  0
  193.9300  177.1290  135.5750 C   0  0  0  0  0  2  0  0  0  0  0  0
  194.8980  175.9620  135.5060 C   0  0  0  0  0  3  0  0  0  0  0  0
  193.4130  175.7380  135.2950 C   0  0  0  0  0  2  0  0  0  0  0  0
  193.3260  170.1810  137.5650 N   0  0  0  0  0  2  0  0  0  0  0  0
  192.0940  170.0710  138.3380 C   0  0  0  0  0  2  0  0  0  0  0  0
  191.2930  171.3670  138.2630 C   0  0  0  0  0  2  0  0  0  0  0  0
  190.2460  171.3560  137.1470 C   0  0  2  0  0  3  0  0  0  0  0  0
  190.1760  170.0050  136.4580 C   0  0  0  0  0  1  0  0  0  0  0  0
  189.3100  172.6010  134.7430 O   0  0  0  0  0  0  0  0  0  0  0  0
  190.5030  172.6930  135.9400 P   0  0  0  0  0  0  0  0  0  0  0  0
  191.8630  172.5670  135.2940 O   0  0  0  0  0  1  0  0  0  0  0  0
  190.3850  174.1850  136.7250 O   0  0  0  0  0  1  0  0  0  0  0  0
  1  5  1  0  0  0  0
  2 10  1  0  0  0  0
  3 14  1  1  0  0  0
  4  6  1  0  0  0  0
  4 12  2  0  0  0  0
  5 11  1  6  0  0  0
  6  2  2  0  0  0  0
  7 10  2  0  0  0  0
  7  1  1  0  0  0  0
  8  1  2  0  0  0  0
  9  3  1  0  0  0  0
  9  5  1  0  0  0  0
  9 39  1  1  0  0  0
 10  3  1  0  0  0  0
 12  7  1  0  0  0  0
 14 13  1  6  0  0  0
 14 15  1  0  0  0  0
 15 16  1  0  0  0  0
 16 18  1  0  0  0  0
 17 18  2  0  0  0  0
 18 19  1  0  0  0  0
 20 21  2  0  0  0  0
 21 26  1  0  0  0  0
 22 19  1  6  0  0  0
 22 24  1  0  0  0  0
 23 34  1  1  0  0  0
 23 22  1  0  0  0  0
 25 24  2  0  0  0  0
 26 23  1  0  0  0  0
 26 25  1  0  0  0  0
 27 31  1  1  0  0  0
 27 21  1  0  0  0  0
 27 30  1  0  0  0  0
 30 28  1  6  0  0  0
 30 29  1  0  0  0  0
 31 33  1  0  0  0  0
 32 31  2  0  0  0  0
 34 35  1  0  0  0  0
 36 37  1  0  0  0  0
 36 35  1  1  0  0  0
 38 36  1  0  0  0  0
 38 37  1  0  0  0  0
 40 39  1  0  0  0  0
 41 40  1  0  0  0  0
 42 41  1  0  0  0  0
 43 42  1  1  0  0  0
 44 52  1  0  0  0  0
 44 50  2  0  0  0  0
 45 54  1  1  0  0  0
 45 47  1  0  0  0  0
 45 52  1  0  0  0  0
 46 53  2  0  0  0  0
 47 46  1  0  0  0  0
 48 53  1  0  0  0  0
 50 43  1  0  0  0  0
 50 49  1  0  0  0  0
 51 49  1  0  0  0  0
 51 48  1  0  0  0  0
 52 51  2  0  0  0  0
 56 55  1  0  0  0  0
 56 54  1  0  0  0  0
 57 56  1  0  0  0  0
 57 55  1  0  0  0  0
 58 59  1  0  0  0  0
 58 43  1  0  0  0  0
 60 59  1  0  0  0  0
 61 62  1  6  0  0  0
 61 60  1  0  0  0  0
 63 64  2  0  0  0  0
 64 66  1  0  0  0  0
 64 61  1  0  0  0  0
 65 64  1  0  0  0  0
M  END
>  <MODEL>
9

>  <REMARK>
 VINA RESULT:      -4.6      2.889      6.938
  Name = 
  25 active torsions:
  status: ('A' for Active; 'I' for Inactive)
    1  A    between atoms: C_1  and  O_33
    2  A    between atoms: C_1  and  C_61
    3  A    between atoms: C_4  and  C_32
    4  A    between atoms: C_5  and  C_40
    5  A    between atoms: C_7  and  C_35
    6  A    between atoms: O_9  and  C_21
    7  A    between atoms: O_9  and  C_59
    8  A    between atoms: C_13  and  C_40
    9  A    between atoms: C_14  and  O_29
   10  A    between atoms: C_20  and  C_39
   11  A    between atoms: C_21  and  C_32
   12  A    between atoms: C_22  and  N_45
   13  A    between atoms: C_22  and  C_53
   14  A    between atoms: C_22  and  C_64
   15  A    between atoms: C_23  and  O_38
   16  A    between atoms: C_28  and  O_33
   17  A    between atoms: O_29  and  C_54
   18  A    between atoms: C_34  and  C_60
   19  A    between atoms: C_34  and  C_63
   20  A    between atoms: C_35  and  O_38
   21  A    between atoms: C_39  and  C_59
   22  A    between atoms: C_40  and  C_48
   23  A    between atoms: P_42  and  C_60
   24  A    between atoms: N_45  and  C_63
   25  A    between atoms: C_61  and  C_64
                            x       y       z     vdW  Elec       q    Type
                         _______ _______ _______ _____ _____    ______ ____

>  <TORSDO>
F 25

$$$$
