=
 OpenBabel11062420493D

 50 53  0  0  1  0  0  0  0  0999 V2000
  191.6910  175.4160  145.4660 C   0  0  1  0  0  3  0  0  0  0  0  0
  191.7640  171.2420  143.3000 C   0  0  0  0  0  2  0  0  0  0  0  0
  190.8210  173.3190  144.3320 C   0  0  0  0  0  2  0  0  0  0  0  0
  192.8830  173.1300  142.0430 C   0  0  2  0  0  3  0  0  0  0  0  0
  193.8980  173.1450  143.0210 O   0  0  0  0  0  0  0  0  0  0  0  0
  192.9130  175.2260  144.7730 O   0  0  0  0  0  0  0  0  0  0  0  0
  193.1720  170.8150  141.4260 O   0  0  0  0  0  1  0  0  0  0  0  0
  191.9440  172.2800  144.4070 C   0  0  2  0  0  3  0  0  0  0  0  0
  190.7940  174.1700  145.5930 C   0  0  0  0  0  2  0  0  0  0  0  0
  192.2510  171.7340  141.9340 C   0  0  1  0  0  3  0  0  0  0  0  0
  193.3690  172.8980  144.3230 C   0  0  2  0  0  3  0  0  0  0  0  0
  193.5640  174.0820  145.2710 C   0  0  1  0  0  3  0  0  0  0  0  0
  193.1590  176.6390  147.1010 O   0  0  0  0  0  1  0  0  0  0  0  0
  190.7430  176.8250  147.5210 C   0  0  1  0  0  3  0  0  0  0  0  0
  191.2490  175.4680  148.0020 C   0  0  0  0  0  2  0  0  0  0  0  0
  191.8940  176.1300  146.8070 C   0  0  1  0  0  0  0  0  0  0  0  0
  189.4240  176.6420  146.8420 C   0  0  0  0  0  3  0  0  0  0  0  0
  188.4920  177.5860  146.9490 C   0  0  0  0  0  3  0  0  0  0  0  0
  184.2730  178.4680  145.9770 C   0  0  0  0  0  2  0  0  0  0  0  0
  185.3870  179.5410  144.1280 O   0  0  0  0  0  1  0  0  0  0  0  0
  185.9680  177.6970  147.2080 C   0  0  0  0  0  2  0  0  0  0  0  0
  187.1620  177.4930  146.3290 C   0  0  0  0  0  0  0  0  0  0  0  0
  184.7640  178.3580  144.5330 C   0  0  1  0  0  3  0  0  0  0  0  0
  185.3060  178.8720  146.8360 O   0  0  0  0  0  0  0  0  0  0  0  0
  187.0170  177.2710  145.0150 C   0  0  0  0  0  3  0  0  0  0  0  0
  185.6820  177.1480  144.3300 C   0  0  0  0  0  2  0  0  0  0  0  0
  193.5260  173.7060  140.4340 P   0  0  2  0  0  0  0  0  0  0  0  0
  194.9160  172.8190  140.0580 O   0  0  0  0  0  0  0  0  0  0  0  0
  193.8910  175.1710  140.5200 O   0  0  0  0  0  1  0  0  0  0  0  0
  192.3880  173.4570  139.1980 O   0  0  0  0  0  0  0  0  0  0  0  0
  193.0130  172.6360  138.2460 C   0  0  1  0  0  3  0  0  0  0  0  0
  192.3020  171.4410  137.9990 O   0  0  0  0  0  0  0  0  0  0  0  0
  191.0170  171.5520  138.5480 C   0  0  0  0  0  2  0  0  0  0  0  0
  190.0340  171.9350  137.4580 C   0  0  0  0  0  2  0  0  0  0  0  0
  189.0190  172.9260  137.9930 C   0  0  0  0  0  2  0  0  0  0  0  0
  188.3280  172.3510  139.1370 N   0  0  0  0  0  2  0  0  0  0  0  0
  188.2230  173.3270  141.4090 C   0  0  0  0  0  0  0  0  0  0  0  0
  188.6270  172.2580  141.9380 O   0  0  0  0  0  0  0  0  0  0  0  0
  187.9780  173.3960  140.0030 N   0  0  0  0  0  2  0  0  0  0  0  0
  188.0290  174.5450  142.2530 C   0  0  0  0  0  2  0  0  0  0  0  0
  189.6210  176.4680  142.6140 C   0  0  0  0  0  1  0  0  0  0  0  0
  187.6490  176.7390  141.2070 N   0  0  0  0  0  1  0  0  0  0  0  0
  188.6660  175.7950  141.6460 C   0  0  2  0  0  3  0  0  0  0  0  0
  193.4140  173.3870  136.9670 C   0  0  0  0  0  2  0  0  0  0  0  0
  192.5490  174.6090  136.6810 C   0  0  0  0  0  2  0  0  0  0  0  0
  193.0090  176.8410  135.6790 C   0  0  0  0  0  1  0  0  0  0  0  0
  194.7100  175.5870  136.7590 O   0  0  0  0  0  1  0  0  0  0  0  0
  193.3520  175.8880  136.8070 C   0  0  2  0  0  3  0  0  0  0  0  0
  195.0330  174.3630  145.5690 C   0  0  0  0  0  2  0  0  0  0  0  0
  195.4620  175.5290  144.9350 O   0  0  0  0  0  1  0  0  0  0  0  0
  1  9  1  1  0  0  0
  1 16  1  0  0  0  0
  3  8  1  0  0  0  0
  3  9  1  0  0  0  0
  4 27  1  6  0  0  0
  4  5  1  0  0  0  0
  6 12  1  0  0  0  0
  6  1  1  0  0  0  0
  8  2  1  6  0  0  0
 10  7  1  1  0  0  0
 10  4  1  0  0  0  0
 10  2  1  0  0  0  0
 11  5  1  6  0  0  0
 11  8  1  0  0  0  0
 11 12  1  0  0  0  0
 12 49  1  6  0  0  0
 14 17  1  6  0  0  0
 14 15  1  0  0  0  0
 16 13  1  1  0  0  0
 16 14  1  0  0  0  0
 16 15  1  0  0  0  0
 17 18  2  0  0  0  0
 19 24  1  0  0  0  0
 22 18  1  0  0  0  0
 22 21  1  0  0  0  0
 23 20  1  1  0  0  0
 23 19  1  0  0  0  0
 24 21  1  0  0  0  0
 25 22  2  0  0  0  0
 26 23  1  0  0  0  0
 26 25  1  0  0  0  0
 27 28  2  6  0  0  0
 27 29  1  0  0  0  0
 30 27  1  0  0  0  0
 31 44  1  6  0  0  0
 31 30  1  0  0  0  0
 32 31  1  0  0  0  0
 32 33  1  0  0  0  0
 34 35  1  0  0  0  0
 34 33  1  0  0  0  0
 35 36  1  0  0  0  0
 36 39  1  0  0  0  0
 37 38  2  0  0  0  0
 37 40  1  0  0  0  0
 39 37  1  0  0  0  0
 42 43  1  0  0  0  0
 43 40  1  0  0  0  0
 43 41  1  1  0  0  0
 45 48  1  0  0  0  0
 45 44  1  0  0  0  0
 47 48  1  0  0  0  0
 48 46  1  6  0  0  0
 50 49  1  0  0  0  0
M  END
>  <MODEL>
1

>  <REMARK>
 VINA RESULT:      -6.2      0.000      0.000
  Name = 
  18 active torsions:
  status: ('A' for Active; 'I' for Inactive)
    1  A    between atoms: N_1  and  C_11
    2  A    between atoms: N_1  and  N_33
    3  A    between atoms: P_2  and  C_15
    4  A    between atoms: P_2  and  O_32
    5  A    between atoms: C_4  and  C_24
    6  A    between atoms: C_6  and  C_19
    7  A    between atoms: C_9  and  C_30
    8  A    between atoms: C_11  and  C_25
    9  A    between atoms: C_23  and  O_28
   10  A    between atoms: C_23  and  O_32
   11  A    between atoms: C_23  and  C_39
   12  A    between atoms: C_24  and  C_41
   13  A    between atoms: C_25  and  C_29
   14  A    between atoms: C_26  and  C_44
   15  A    between atoms: O_28  and  C_29
   16  A    between atoms: C_31  and  C_36
   17  A    between atoms: C_31  and  C_39
   18  A    between atoms: C_35  and  C_50
                            x       y       z     vdW  Elec       q    Type
                         _______ _______ _______ _____ _____    ______ ____

>  <TORSDO>
F 18

$$$$
=
 OpenBabel11062420493D

 50 53  0  0  1  0  0  0  0  0999 V2000
  195.5880  175.4000  142.7170 C   0  0  1  0  0  3  0  0  0  0  0  0
  193.5620  176.3700  146.8490 C   0  0  0  0  0  2  0  0  0  0  0  0
  194.9470  176.7130  144.7910 C   0  0  0  0  0  2  0  0  0  0  0  0
  191.9630  175.9380  144.9380 C   0  0  2  0  0  3  0  0  0  0  0  0
  192.3650  174.5860  144.9420 O   0  0  0  0  0  0  0  0  0  0  0  0
  194.4070  174.6350  142.8940 O   0  0  0  0  0  0  0  0  0  0  0  0
  191.2430  175.9860  147.2410 O   0  0  0  0  0  1  0  0  0  0  0  0
  194.4790  175.6910  145.8320 C   0  0  2  0  0  3  0  0  0  0  0  0
  196.0930  176.1490  143.9650 C   0  0  0  0  0  2  0  0  0  0  0  0
  192.1330  176.5620  146.3310 C   0  0  1  0  0  3  0  0  0  0  0  0
  193.7590  174.4590  145.2140 C   0  0  2  0  0  3  0  0  0  0  0  0
  194.5310  173.8390  144.0480 C   0  0  1  0  0  3  0  0  0  0  0  0
  197.6090  173.9080  142.8290 O   0  0  0  0  0  1  0  0  0  0  0  0
  196.5140  174.0230  140.6300 C   0  0  1  0  0  3  0  0  0  0  0  0
  197.3610  175.2740  140.8530 C   0  0  0  0  0  2  0  0  0  0  0  0
  196.6970  174.5960  142.0290 C   0  0  1  0  0  0  0  0  0  0  0  0
  195.2220  174.4160  139.9900 C   0  0  0  0  0  3  0  0  0  0  0  0
  194.7500  173.7060  138.9690 C   0  0  0  0  0  3  0  0  0  0  0  0
  191.8950  174.5290  135.6990 C   0  0  0  0  0  2  0  0  0  0  0  0
  191.4240  172.2030  136.1240 O   0  0  0  0  0  1  0  0  0  0  0  0
  193.5630  174.9720  137.1150 C   0  0  0  0  0  2  0  0  0  0  0  0
  193.4970  174.0180  138.2670 C   0  0  0  0  0  0  0  0  0  0  0  0
  191.0270  173.5060  136.4340 C   0  0  1  0  0  3  0  0  0  0  0  0
  193.2590  174.2960  135.9280 O   0  0  0  0  0  0  0  0  0  0  0  0
  192.3380  173.4450  138.6170 C   0  0  0  0  0  3  0  0  0  0  0  0
  191.0210  173.7410  137.9480 C   0  0  0  0  0  2  0  0  0  0  0  0
  190.2490  176.1010  144.3310 P   0  0  2  0  0  0  0  0  0  0  0  0
  189.5990  177.5440  144.9270 O   0  0  0  0  0  1  0  0  0  0  0  0
  189.4130  174.9450  144.8330 O   0  0  0  0  0  0  0  0  0  0  0  0
  190.2060  176.1610  142.6350 O   0  0  0  0  0  0  0  0  0  0  0  0
  188.8960  175.8180  142.2600 C   0  0  1  0  0  3  0  0  0  0  0  0
  188.1180  176.9390  141.8970 O   0  0  0  0  0  0  0  0  0  0  0  0
  187.3110  176.5990  140.8020 C   0  0  0  0  0  2  0  0  0  0  0  0
  186.2470  177.6640  140.6080 C   0  0  0  0  0  2  0  0  0  0  0  0
  186.1280  178.5180  141.8560 C   0  0  0  0  0  2  0  0  0  0  0  0
  184.9470  178.1240  142.6080 N   0  0  0  0  0  2  0  0  0  0  0  0
  184.7130  178.0180  145.0700 C   0  0  0  0  0  0  0  0  0  0  0  0
  183.8250  178.9110  145.0720 O   0  0  0  0  0  0  0  0  0  0  0  0
  185.3680  177.6450  143.8570 N   0  0  0  0  0  2  0  0  0  0  0  0
  185.0630  177.3170  146.3430 C   0  0  0  0  0  2  0  0  0  0  0  0
  187.2340  176.3490  147.1880 C   0  0  0  0  0  1  0  0  0  0  0  0
  186.4860  178.5470  147.9280 N   0  0  0  0  0  1  0  0  0  0  0  0
  186.4880  177.6150  146.8110 C   0  0  2  0  0  3  0  0  0  0  0  0
  188.8370  174.6730  141.2390 C   0  0  0  0  0  2  0  0  0  0  0  0
  188.9280  173.2880  141.8700 C   0  0  0  0  0  2  0  0  0  0  0  0
  190.1540  171.1220  141.8210 C   0  0  0  0  0  1  0  0  0  0  0  0
  191.2780  173.1790  142.1890 O   0  0  0  0  0  1  0  0  0  0  0  0
  190.2240  172.5990  141.4890 C   0  0  2  0  0  3  0  0  0  0  0  0
  194.1240  172.3950  143.7740 C   0  0  0  0  0  2  0  0  0  0  0  0
  194.0350  171.6620  144.9570 O   0  0  0  0  0  1  0  0  0  0  0  0
  1  6  1  0  0  0  0
  1  9  1  1  0  0  0
  4 27  1  1  0  0  0
  4  5  1  0  0  0  0
  4 10  1  0  0  0  0
  6 12  1  0  0  0  0
  8  3  1  6  0  0  0
  8  2  1  0  0  0  0
  9  3  1  0  0  0  0
 10  2  1  0  0  0  0
 10  7  1  1  0  0  0
 11  5  1  6  0  0  0
 11  8  1  0  0  0  0
 12 49  1  6  0  0  0
 12 11  1  0  0  0  0
 14 17  1  6  0  0  0
 14 15  1  0  0  0  0
 14 16  1  0  0  0  0
 15 16  1  0  0  0  0
 16  1  1  0  0  0  0
 16 13  1  1  0  0  0
 18 17  2  0  0  0  0
 19 24  1  0  0  0  0
 19 23  1  0  0  0  0
 21 22  1  0  0  0  0
 22 25  2  0  0  0  0
 22 18  1  0  0  0  0
 23 20  1  1  0  0  0
 23 26  1  0  0  0  0
 24 21  1  0  0  0  0
 26 25  1  0  0  0  0
 27 29  2  1  0  0  0
 27 28  1  0  0  0  0
 30 27  1  0  0  0  0
 31 44  1  6  0  0  0
 31 30  1  0  0  0  0
 32 31  1  0  0  0  0
 33 32  1  0  0  0  0
 34 33  1  0  0  0  0
 34 35  1  0  0  0  0
 35 36  1  0  0  0  0
 36 39  1  0  0  0  0
 37 38  2  0  0  0  0
 37 40  1  0  0  0  0
 39 37  1  0  0  0  0
 40 43  1  0  0  0  0
 43 41  1  1  0  0  0
 43 42  1  0  0  0  0
 44 45  1  0  0  0  0
 48 46  1  1  0  0  0
 48 45  1  0  0  0  0
 48 47  1  0  0  0  0
 49 50  1  0  0  0  0
M  END
>  <MODEL>
2

>  <REMARK>
 VINA RESULT:      -6.0      2.719      7.685
  Name = 
  18 active torsions:
  status: ('A' for Active; 'I' for Inactive)
    1  A    between atoms: N_1  and  C_11
    2  A    between atoms: N_1  and  N_33
    3  A    between atoms: P_2  and  C_15
    4  A    between atoms: P_2  and  O_32
    5  A    between atoms: C_4  and  C_24
    6  A    between atoms: C_6  and  C_19
    7  A    between atoms: C_9  and  C_30
    8  A    between atoms: C_11  and  C_25
    9  A    between atoms: C_23  and  O_28
   10  A    between atoms: C_23  and  O_32
   11  A    between atoms: C_23  and  C_39
   12  A    between atoms: C_24  and  C_41
   13  A    between atoms: C_25  and  C_29
   14  A    between atoms: C_26  and  C_44
   15  A    between atoms: O_28  and  C_29
   16  A    between atoms: C_31  and  C_36
   17  A    between atoms: C_31  and  C_39
   18  A    between atoms: C_35  and  C_50
                            x       y       z     vdW  Elec       q    Type
                         _______ _______ _______ _____ _____    ______ ____

>  <TORSDO>
F 18

$$$$
=
 OpenBabel11062420493D

 50 53  0  0  1  0  0  0  0  0999 V2000
  191.9850  175.2610  145.3000 C   0  0  1  0  0  3  0  0  0  0  0  0
  191.9090  170.9340  143.4570 C   0  0  0  0  0  2  0  0  0  0  0  0
  191.0400  173.1150  144.3280 C   0  0  0  0  0  2  0  0  0  0  0  0
  193.0890  172.6820  142.0610 C   0  0  2  0  0  3  0  0  0  0  0  0
  194.1060  172.7360  143.0360 O   0  0  0  0  0  0  0  0  0  0  0  0
  193.1980  174.9770  144.6240 O   0  0  0  0  0  0  0  0  0  0  0  0
  193.2980  170.3180  141.6220 O   0  0  0  0  0  1  0  0  0  0  0  0
  192.1280  172.0470  144.4820 C   0  0  2  0  0  3  0  0  0  0  0  0
  191.0450  174.0600  145.5210 C   0  0  0  0  0  2  0  0  0  0  0  0
  192.4100  171.3040  142.0580 C   0  0  1  0  0  3  0  0  0  0  0  0
  193.5730  172.6070  144.3530 C   0  0  2  0  0  3  0  0  0  0  0  0
  193.8100  173.8520  145.2080 C   0  0  1  0  0  3  0  0  0  0  0  0
  193.4930  176.5670  146.8300 O   0  0  0  0  0  1  0  0  0  0  0  0
  191.0860  176.8410  147.2510 C   0  0  1  0  0  3  0  0  0  0  0  0
  191.5640  175.5110  147.8280 C   0  0  0  0  0  2  0  0  0  0  0  0
  192.2150  176.0670  146.5830 C   0  0  1  0  0  0  0  0  0  0  0  0
  189.7570  176.6390  146.5960 C   0  0  0  0  0  3  0  0  0  0  0  0
  188.7060  177.3430  147.0080 C   0  0  0  0  0  3  0  0  0  0  0  0
  184.3700  177.9070  146.3710 C   0  0  0  0  0  2  0  0  0  0  0  0
  185.2620  179.3790  144.6830 O   0  0  0  0  0  1  0  0  0  0  0  0
  186.2040  177.1360  147.3860 C   0  0  0  0  0  2  0  0  0  0  0  0
  187.3590  177.2080  146.4360 C   0  0  0  0  0  0  0  0  0  0  0  0
  184.7850  178.0860  144.9100 C   0  0  1  0  0  3  0  0  0  0  0  0
  185.4060  178.2760  147.2420 O   0  0  0  0  0  0  0  0  0  0  0  0
  187.1600  177.1870  145.1110 C   0  0  0  0  0  3  0  0  0  0  0  0
  185.8060  177.0310  144.4700 C   0  0  0  0  0  2  0  0  0  0  0  0
  193.7490  173.1120  140.4140 P   0  0  2  0  0  0  0  0  0  0  0  0
  193.7630  171.7180  139.4560 O   0  0  0  0  0  0  0  0  0  0  0  0
  195.1640  173.6280  140.5450 O   0  0  0  0  0  1  0  0  0  0  0  0
  192.7710  174.2700  139.6490 O   0  0  0  0  0  0  0  0  0  0  0  0
  191.6300  173.5870  139.1970 C   0  0  1  0  0  3  0  0  0  0  0  0
  190.5060  173.7820  140.0300 O   0  0  0  0  0  0  0  0  0  0  0  0
  189.7050  172.6320  139.9940 C   0  0  0  0  0  2  0  0  0  0  0  0
  188.2470  173.0280  140.1310 C   0  0  0  0  0  2  0  0  0  0  0  0
  187.7940  172.8670  141.5690 C   0  0  0  0  0  2  0  0  0  0  0  0
  188.3620  173.9310  142.3830 N   0  0  0  0  0  2  0  0  0  0  0  0
  188.5100  176.3670  141.9710 C   0  0  0  0  0  0  0  0  0  0  0  0
  189.6690  176.4270  142.4620 O   0  0  0  0  0  0  0  0  0  0  0  0
  187.7770  175.1410  141.9840 N   0  0  0  0  0  2  0  0  0  0  0  0
  187.9090  177.5810  141.3400 C   0  0  0  0  0  2  0  0  0  0  0  0
  186.5650  177.2010  139.2390 C   0  0  0  0  0  1  0  0  0  0  0  0
  185.5810  178.3540  141.1480 N   0  0  0  0  0  1  0  0  0  0  0  0
  186.5230  177.3170  140.7520 C   0  0  2  0  0  3  0  0  0  0  0  0
  191.3360  173.8160  137.7070 C   0  0  0  0  0  2  0  0  0  0  0  0
  191.4760  172.5580  136.8570 C   0  0  0  0  0  2  0  0  0  0  0  0
  189.8310  170.6950  136.7050 C   0  0  0  0  0  1  0  0  0  0  0  0
  190.1590  172.2150  134.9120 O   0  0  0  0  0  1  0  0  0  0  0  0
  190.1340  172.1240  136.3010 C   0  0  2  0  0  3  0  0  0  0  0  0
  195.2890  174.1040  145.4850 C   0  0  0  0  0  2  0  0  0  0  0  0
  195.7690  175.1700  144.7240 O   0  0  0  0  0  1  0  0  0  0  0  0
  1  9  1  1  0  0  0
  1 16  1  0  0  0  0
  3  8  1  0  0  0  0
  3  9  1  0  0  0  0
  4 27  1  6  0  0  0
  4  5  1  0  0  0  0
  6 12  1  0  0  0  0
  6  1  1  0  0  0  0
  8  2  1  6  0  0  0
 10  7  1  1  0  0  0
 10  4  1  0  0  0  0
 10  2  1  0  0  0  0
 11  5  1  6  0  0  0
 11  8  1  0  0  0  0
 11 12  1  0  0  0  0
 12 49  1  6  0  0  0
 14 17  1  6  0  0  0
 14 15  1  0  0  0  0
 16 13  1  1  0  0  0
 16 14  1  0  0  0  0
 16 15  1  0  0  0  0
 17 18  2  0  0  0  0
 19 24  1  0  0  0  0
 22 18  1  0  0  0  0
 22 21  1  0  0  0  0
 23 20  1  1  0  0  0
 23 19  1  0  0  0  0
 24 21  1  0  0  0  0
 25 22  2  0  0  0  0
 26 23  1  0  0  0  0
 26 25  1  0  0  0  0
 27 28  2  6  0  0  0
 27 29  1  0  0  0  0
 30 27  1  0  0  0  0
 31 44  1  6  0  0  0
 31 30  1  0  0  0  0
 31 32  1  0  0  0  0
 33 32  1  0  0  0  0
 33 34  1  0  0  0  0
 34 35  1  0  0  0  0
 35 36  1  0  0  0  0
 37 39  1  0  0  0  0
 37 38  2  0  0  0  0
 39 36  1  0  0  0  0
 40 37  1  0  0  0  0
 43 41  1  6  0  0  0
 43 42  1  0  0  0  0
 43 40  1  0  0  0  0
 45 44  1  0  0  0  0
 47 48  1  0  0  0  0
 48 46  1  6  0  0  0
 48 45  1  0  0  0  0
 50 49  1  0  0  0  0
M  END
>  <MODEL>
3

>  <REMARK>
 VINA RESULT:      -6.0      1.504      2.346
  Name = 
  18 active torsions:
  status: ('A' for Active; 'I' for Inactive)
    1  A    between atoms: N_1  and  C_11
    2  A    between atoms: N_1  and  N_33
    3  A    between atoms: P_2  and  C_15
    4  A    between atoms: P_2  and  O_32
    5  A    between atoms: C_4  and  C_24
    6  A    between atoms: C_6  and  C_19
    7  A    between atoms: C_9  and  C_30
    8  A    between atoms: C_11  and  C_25
    9  A    between atoms: C_23  and  O_28
   10  A    between atoms: C_23  and  O_32
   11  A    between atoms: C_23  and  C_39
   12  A    between atoms: C_24  and  C_41
   13  A    between atoms: C_25  and  C_29
   14  A    between atoms: C_26  and  C_44
   15  A    between atoms: O_28  and  C_29
   16  A    between atoms: C_31  and  C_36
   17  A    between atoms: C_31  and  C_39
   18  A    between atoms: C_35  and  C_50
                            x       y       z     vdW  Elec       q    Type
                         _______ _______ _______ _____ _____    ______ ____

>  <TORSDO>
F 18

$$$$
=
 OpenBabel11062420493D

 50 53  0  0  1  0  0  0  0  0999 V2000
  190.6790  173.7000  142.9560 C   0  0  1  0  0  3  0  0  0  0  0  0
  188.2790  172.9970  138.9730 C   0  0  0  0  0  2  0  0  0  0  0  0
  188.9810  174.0930  141.1120 C   0  0  0  0  0  2  0  0  0  0  0  0
  190.7570  173.4100  138.6810 C   0  0  2  0  0  3  0  0  0  0  0  0
  191.0090  172.1580  139.2790 O   0  0  0  0  0  0  0  0  0  0  0  0
  191.4510  172.9630  142.0230 O   0  0  0  0  0  0  0  0  0  0  0  0
  189.3700  172.5550  136.9020 O   0  0  0  0  0  1  0  0  0  0  0  0
  188.7970  172.7540  140.3900 C   0  0  2  0  0  3  0  0  0  0  0  0
  189.1890  173.8740  142.6030 C   0  0  0  0  0  2  0  0  0  0  0  0
  189.3810  173.4200  137.9980 C   0  0  1  0  0  3  0  0  0  0  0  0
  190.0910  171.8930  140.3380 C   0  0  2  0  0  3  0  0  0  0  0  0
  190.7810  171.7680  141.6980 C   0  0  1  0  0  3  0  0  0  0  0  0
  192.0730  172.5420  144.6990 O   0  0  0  0  0  1  0  0  0  0  0  0
  190.2110  173.8900  145.5740 C   0  0  1  0  0  3  0  0  0  0  0  0
  189.6820  172.5610  145.0400 C   0  0  0  0  0  2  0  0  0  0  0  0
  190.8860  173.2060  144.3930 C   0  0  1  0  0  0  0  0  0  0  0  0
  189.2760  174.9850  145.1730 C   0  0  0  0  0  3  0  0  0  0  0  0
  188.6510  175.6930  146.1110 C   0  0  0  0  0  3  0  0  0  0  0  0
  185.2250  177.8890  144.3900 C   0  0  0  0  0  2  0  0  0  0  0  0
  184.3300  177.2910  146.5480 O   0  0  0  0  0  1  0  0  0  0  0  0
  187.2460  176.9400  144.4030 C   0  0  0  0  0  2  0  0  0  0  0  0
  187.7050  176.7790  145.8180 C   0  0  0  0  0  0  0  0  0  0  0  0
  184.9850  178.3040  145.8430 C   0  0  1  0  0  3  0  0  0  0  0  0
  185.8790  176.6510  144.3170 O   0  0  0  0  0  0  0  0  0  0  0  0
  187.2370  177.5790  146.7860 C   0  0  0  0  0  3  0  0  0  0  0  0
  186.2830  178.7190  146.5430 C   0  0  0  0  0  2  0  0  0  0  0  0
  192.0910  173.8510  137.5160 P   0  0  2  0  0  0  0  0  0  0  0  0
  191.4850  174.9600  136.3930 O   0  0  0  0  0  0  0  0  0  0  0  0
  192.5610  172.6170  136.7800 O   0  0  0  0  0  1  0  0  0  0  0  0
  193.3930  174.5790  138.3290 O   0  0  0  0  0  0  0  0  0  0  0  0
  194.4480  173.6510  138.2960 C   0  0  1  0  0  3  0  0  0  0  0  0
  195.6950  174.2480  138.0090 O   0  0  0  0  0  0  0  0  0  0  0  0
  195.9160  175.3000  138.9090 C   0  0  0  0  0  2  0  0  0  0  0  0
  197.3050  175.1710  139.5050 C   0  0  0  0  0  2  0  0  0  0  0  0
  197.2910  175.5900  140.9620 C   0  0  0  0  0  2  0  0  0  0  0  0
  196.2580  176.5930  141.1740 N   0  0  0  0  0  2  0  0  0  0  0  0
  194.3780  175.6970  142.5100 C   0  0  0  0  0  0  0  0  0  0  0  0
  193.6880  175.4770  141.4800 O   0  0  0  0  0  0  0  0  0  0  0  0
  195.6510  176.3360  142.4110 N   0  0  0  0  0  2  0  0  0  0  0  0
  193.8750  175.2570  143.8470 C   0  0  0  0  0  2  0  0  0  0  0  0
  193.3830  176.0170  146.2020 C   0  0  0  0  0  1  0  0  0  0  0  0
  192.2130  177.0110  144.3090 N   0  0  0  0  0  1  0  0  0  0  0  0
  193.4730  176.4280  144.7440 C   0  0  2  0  0  3  0  0  0  0  0  0
  194.4780  172.7220  139.5180 C   0  0  0  0  0  2  0  0  0  0  0  0
  195.1570  171.3840  139.2510 C   0  0  0  0  0  2  0  0  0  0  0  0
  196.3210  172.0800  141.3390 C   0  0  0  0  0  1  0  0  0  0  0  0
  197.5150  171.6420  139.3360 O   0  0  0  0  0  1  0  0  0  0  0  0
  196.4150  171.2350  140.0840 C   0  0  2  0  0  3  0  0  0  0  0  0
  191.7170  170.5660  141.7750 C   0  0  0  0  0  2  0  0  0  0  0  0
  193.0240  170.9630  142.0540 O   0  0  0  0  0  1  0  0  0  0  0  0
  1  9  1  6  0  0  0
  1 16  1  0  0  0  0
  3  9  1  0  0  0  0
  4 27  1  6  0  0  0
  4  5  1  0  0  0  0
  6  1  1  0  0  0  0
  8  2  1  6  0  0  0
  8  3  1  0  0  0  0
 10  7  1  6  0  0  0
 10  4  1  0  0  0  0
 10  2  1  0  0  0  0
 11  5  1  6  0  0  0
 11  8  1  0  0  0  0
 11 12  1  0  0  0  0
 12 49  1  6  0  0  0
 12  6  1  0  0  0  0
 14 17  1  6  0  0  0
 15 14  1  0  0  0  0
 16 13  1  1  0  0  0
 16 15  1  0  0  0  0
 16 14  1  0  0  0  0
 17 18  2  0  0  0  0
 19 23  1  0  0  0  0
 21 22  1  0  0  0  0
 22 18  1  0  0  0  0
 22 25  2  0  0  0  0
 23 26  1  0  0  0  0
 23 20  1  1  0  0  0
 24 19  1  0  0  0  0
 24 21  1  0  0  0  0
 26 25  1  0  0  0  0
 27 28  2  6  0  0  0
 27 30  1  0  0  0  0
 29 27  1  0  0  0  0
 31 30  1  0  0  0  0
 31 44  1  1  0  0  0
 32 31  1  0  0  0  0
 32 33  1  0  0  0  0
 33 34  1  0  0  0  0
 34 35  1  0  0  0  0
 35 36  1  0  0  0  0
 36 39  1  0  0  0  0
 37 40  1  0  0  0  0
 38 37  2  0  0  0  0
 39 37  1  0  0  0  0
 40 43  1  0  0  0  0
 42 43  1  0  0  0  0
 43 41  1  1  0  0  0
 45 44  1  0  0  0  0
 45 48  1  0  0  0  0
 47 48  1  0  0  0  0
 48 46  1  1  0  0  0
 49 50  1  0  0  0  0
M  END
>  <MODEL>
4

>  <REMARK>
 VINA RESULT:      -5.8      2.867      5.081
  Name = 
  18 active torsions:
  status: ('A' for Active; 'I' for Inactive)
    1  A    between atoms: N_1  and  C_11
    2  A    between atoms: N_1  and  N_33
    3  A    between atoms: P_2  and  C_15
    4  A    between atoms: P_2  and  O_32
    5  A    between atoms: C_4  and  C_24
    6  A    between atoms: C_6  and  C_19
    7  A    between atoms: C_9  and  C_30
    8  A    between atoms: C_11  and  C_25
    9  A    between atoms: C_23  and  O_28
   10  A    between atoms: C_23  and  O_32
   11  A    between atoms: C_23  and  C_39
   12  A    between atoms: C_24  and  C_41
   13  A    between atoms: C_25  and  C_29
   14  A    between atoms: C_26  and  C_44
   15  A    between atoms: O_28  and  C_29
   16  A    between atoms: C_31  and  C_36
   17  A    between atoms: C_31  and  C_39
   18  A    between atoms: C_35  and  C_50
                            x       y       z     vdW  Elec       q    Type
                         _______ _______ _______ _____ _____    ______ ____

>  <TORSDO>
F 18

$$$$
=
 OpenBabel11062420493D

 50 53  0  0  1  0  0  0  0  0999 V2000
  192.8770  174.9100  145.2620 C   0  0  1  0  0  3  0  0  0  0  0  0
  195.4940  171.6310  143.1350 C   0  0  0  0  0  2  0  0  0  0  0  0
  193.6500  172.6100  144.5170 C   0  0  0  0  0  2  0  0  0  0  0  0
  194.3550  173.2750  141.5870 C   0  0  2  0  0  3  0  0  0  0  0  0
  195.2100  174.2850  142.0730 O   0  0  0  0  0  0  0  0  0  0  0  0
  193.5410  175.4470  144.1300 O   0  0  0  0  0  0  0  0  0  0  0  0
  196.1150  171.8030  140.8410 O   0  0  0  0  0  1  0  0  0  0  0  0
  195.1180  172.7520  144.1040 C   0  0  2  0  0  3  0  0  0  0  0  0
  193.3390  173.5080  145.7060 C   0  0  0  0  0  2  0  0  0  0  0  0
  195.0200  171.8950  141.7030 C   0  0  1  0  0  3  0  0  0  0  0  0
  195.4550  174.1320  143.4700 C   0  0  2  0  0  3  0  0  0  0  0  0
  194.9320  175.3100  144.2920 C   0  0  1  0  0  3  0  0  0  0  0  0
  194.0330  176.3960  146.9290 O   0  0  0  0  0  1  0  0  0  0  0  0
  191.6250  176.8120  146.6480 C   0  0  1  0  0  3  0  0  0  0  0  0
  191.8390  175.5780  147.5220 C   0  0  0  0  0  2  0  0  0  0  0  0
  192.8280  175.9050  146.4270 C   0  0  1  0  0  0  0  0  0  0  0  0
  190.5000  176.5500  145.7000 C   0  0  0  0  0  3  0  0  0  0  0  0
  189.6910  177.5470  145.3470 C   0  0  0  0  0  3  0  0  0  0  0  0
  185.5370  177.2230  143.8750 C   0  0  0  0  0  2  0  0  0  0  0  0
  186.0130  179.5290  143.3580 O   0  0  0  0  0  1  0  0  0  0  0  0
  187.4070  176.5380  144.8870 C   0  0  0  0  0  2  0  0  0  0  0  0
  188.5520  177.3880  144.4320 C   0  0  0  0  0  0  0  0  0  0  0  0
  186.0130  178.2350  142.8320 C   0  0  1  0  0  3  0  0  0  0  0  0
  186.2720  177.3370  145.0650 O   0  0  0  0  0  0  0  0  0  0  0  0
  188.5160  178.0090  143.2450 C   0  0  0  0  0  3  0  0  0  0  0  0
  187.3860  177.8680  142.2600 C   0  0  0  0  0  2  0  0  0  0  0  0
  193.8410  173.6340  139.8720 P   0  0  2  0  0  0  0  0  0  0  0  0
  194.7460  174.9410  139.2970 O   0  0  0  0  0  0  0  0  0  0  0  0
  192.3750  174.0040  139.8410 O   0  0  0  0  0  1  0  0  0  0  0  0
  194.1290  172.3020  138.8580 O   0  0  0  0  0  0  0  0  0  0  0  0
  192.8690  171.7780  138.5260 C   0  0  1  0  0  3  0  0  0  0  0  0
  192.6570  171.7000  137.1320 O   0  0  0  0  0  0  0  0  0  0  0  0
  191.8010  172.7390  136.7420 C   0  0  0  0  0  2  0  0  0  0  0  0
  190.3750  172.3900  137.1240 C   0  0  0  0  0  2  0  0  0  0  0  0
  189.6570  173.6180  137.6480 C   0  0  0  0  0  2  0  0  0  0  0  0
  188.4140  173.2220  138.2930 N   0  0  0  0  0  2  0  0  0  0  0  0
  188.2810  174.3280  140.5030 C   0  0  0  0  0  0  0  0  0  0  0  0
  187.9080  175.4160  139.9890 O   0  0  0  0  0  0  0  0  0  0  0  0
  188.6270  173.2140  139.6780 N   0  0  0  0  0  2  0  0  0  0  0  0
  188.3310  174.1890  141.9900 C   0  0  0  0  0  2  0  0  0  0  0  0
  189.7440  173.4910  143.9600 C   0  0  0  0  0  1  0  0  0  0  0  0
  190.5540  175.1650  142.3840 N   0  0  0  0  0  1  0  0  0  0  0  0
  189.7470  173.9610  142.5170 C   0  0  2  0  0  3  0  0  0  0  0  0
  192.5380  170.4770  139.2710 C   0  0  0  0  0  2  0  0  0  0  0  0
  191.4130  170.6260  140.2890 C   0  0  0  0  0  2  0  0  0  0  0  0
  190.9370  168.6110  141.6700 C   0  0  0  0  0  1  0  0  0  0  0  0
  191.4350  170.7090  142.6610 O   0  0  0  0  0  1  0  0  0  0  0  0
  191.7390  169.8930  141.5750 C   0  0  2  0  0  3  0  0  0  0  0  0
  195.6590  176.6150  143.9800 C   0  0  0  0  0  2  0  0  0  0  0  0
  196.9310  176.3720  143.4620 O   0  0  0  0  0  1  0  0  0  0  0  0
  1  9  1  1  0  0  0
  1 16  1  0  0  0  0
  3  9  1  0  0  0  0
  4 27  1  6  0  0  0
  4 10  1  0  0  0  0
  4  5  1  0  0  0  0
  6 12  1  0  0  0  0
  6  1  1  0  0  0  0
  8  2  1  6  0  0  0
  8  3  1  0  0  0  0
 10  7  1  6  0  0  0
 10  2  1  0  0  0  0
 11  5  1  6  0  0  0
 11  8  1  0  0  0  0
 11 12  1  0  0  0  0
 12 49  1  6  0  0  0
 14 17  1  6  0  0  0
 14 15  1  0  0  0  0
 16 14  1  0  0  0  0
 16 13  1  1  0  0  0
 16 15  1  0  0  0  0
 18 17  2  0  0  0  0
 19 24  1  0  0  0  0
 21 24  1  0  0  0  0
 22 21  1  0  0  0  0
 22 18  1  0  0  0  0
 23 20  1  1  0  0  0
 23 19  1  0  0  0  0
 25 22  2  0  0  0  0
 26 23  1  0  0  0  0
 26 25  1  0  0  0  0
 27 28  2  6  0  0  0
 29 27  1  0  0  0  0
 30 27  1  0  0  0  0
 31 30  1  0  0  0  0
 31 44  1  6  0  0  0
 32 31  1  0  0  0  0
 33 34  1  0  0  0  0
 33 32  1  0  0  0  0
 34 35  1  0  0  0  0
 35 36  1  0  0  0  0
 36 39  1  0  0  0  0
 37 40  1  0  0  0  0
 38 37  2  0  0  0  0
 39 37  1  0  0  0  0
 40 43  1  0  0  0  0
 42 43  1  0  0  0  0
 43 41  1  1  0  0  0
 44 45  1  0  0  0  0
 45 48  1  0  0  0  0
 48 46  1  1  0  0  0
 48 47  1  0  0  0  0
 50 49  1  0  0  0  0
M  END
>  <MODEL>
5

>  <REMARK>
 VINA RESULT:      -5.7      1.839      3.166
  Name = 
  18 active torsions:
  status: ('A' for Active; 'I' for Inactive)
    1  A    between atoms: N_1  and  C_11
    2  A    between atoms: N_1  and  N_33
    3  A    between atoms: P_2  and  C_15
    4  A    between atoms: P_2  and  O_32
    5  A    between atoms: C_4  and  C_24
    6  A    between atoms: C_6  and  C_19
    7  A    between atoms: C_9  and  C_30
    8  A    between atoms: C_11  and  C_25
    9  A    between atoms: C_23  and  O_28
   10  A    between atoms: C_23  and  O_32
   11  A    between atoms: C_23  and  C_39
   12  A    between atoms: C_24  and  C_41
   13  A    between atoms: C_25  and  C_29
   14  A    between atoms: C_26  and  C_44
   15  A    between atoms: O_28  and  C_29
   16  A    between atoms: C_31  and  C_36
   17  A    between atoms: C_31  and  C_39
   18  A    between atoms: C_35  and  C_50
                            x       y       z     vdW  Elec       q    Type
                         _______ _______ _______ _____ _____    ______ ____

>  <TORSDO>
F 18

$$$$
=
 OpenBabel11062420493D

 50 53  0  0  1  0  0  0  0  0999 V2000
  191.0550  175.1960  145.1260 C   0  0  1  0  0  3  0  0  0  0  0  0
  190.0270  171.4130  142.5280 C   0  0  0  0  0  2  0  0  0  0  0  0
  189.7060  173.6210  143.6630 C   0  0  0  0  0  2  0  0  0  0  0  0
  191.9070  172.8530  141.6410 C   0  0  2  0  0  3  0  0  0  0  0  0
  192.7000  172.4450  142.7330 O   0  0  0  0  0  0  0  0  0  0  0  0
  192.2300  174.6270  144.5730 O   0  0  0  0  0  0  0  0  0  0  0  0
  191.4770  170.6300  140.8070 O   0  0  0  0  0  1  0  0  0  0  0  0
  190.3780  172.2480  143.7590 C   0  0  2  0  0  3  0  0  0  0  0  0
  189.7760  174.3460  144.9990 C   0  0  0  0  0  2  0  0  0  0  0  0
  190.8600  171.7840  141.2970 C   0  0  1  0  0  3  0  0  0  0  0  0
  191.9230  172.3220  143.9230 C   0  0  2  0  0  3  0  0  0  0  0  0
  192.3620  173.2980  145.0160 C   0  0  1  0  0  3  0  0  0  0  0  0
  192.5830  175.7380  147.0480 O   0  0  0  0  0  1  0  0  0  0  0  0
  190.3240  176.6980  147.2040 C   0  0  1  0  0  3  0  0  0  0  0  0
  190.2850  175.2190  147.5830 C   0  0  0  0  0  2  0  0  0  0  0  0
  191.2790  175.7060  146.5540 C   0  0  1  0  0  0  0  0  0  0  0  0
  189.1320  177.0170  146.3610 C   0  0  0  0  0  3  0  0  0  0  0  0
  187.9130  176.9530  146.8920 C   0  0  0  0  0  3  0  0  0  0  0  0
  184.0570  178.7790  145.7420 C   0  0  0  0  0  2  0  0  0  0  0  0
  185.5660  179.9810  144.2960 O   0  0  0  0  0  1  0  0  0  0  0  0
  185.4280  177.4740  146.9260 C   0  0  0  0  0  2  0  0  0  0  0  0
  186.6810  177.2360  146.1420 C   0  0  0  0  0  0  0  0  0  0  0  0
  184.7140  178.8760  144.3640 C   0  0  1  0  0  3  0  0  0  0  0  0
  185.0180  178.8020  146.7640 O   0  0  0  0  0  0  0  0  0  0  0  0
  186.6790  177.3170  144.8050 C   0  0  0  0  0  3  0  0  0  0  0  0
  185.4450  177.5850  143.9840 C   0  0  0  0  0  2  0  0  0  0  0  0
  192.9520  173.2610  140.2000 P   0  0  2  0  0  0  0  0  0  0  0  0
  192.0390  173.0520  138.7930 O   0  0  0  0  0  0  0  0  0  0  0  0
  194.1460  172.3340  140.1500 O   0  0  0  0  0  1  0  0  0  0  0  0
  193.4690  174.8780  140.2610 O   0  0  0  0  0  0  0  0  0  0  0  0
  194.6920  174.9280  139.5720 C   0  0  1  0  0  3  0  0  0  0  0  0
  194.5920  175.5760  138.3210 O   0  0  0  0  0  0  0  0  0  0  0  0
  195.0590  174.7120  137.3210 C   0  0  0  0  0  2  0  0  0  0  0  0
  194.3250  174.9970  136.0240 C   0  0  0  0  0  2  0  0  0  0  0  0
  193.2620  176.0560  136.2460 C   0  0  0  0  0  2  0  0  0  0  0  0
  192.0610  175.7090  135.5010 N   0  0  0  0  0  2  0  0  0  0  0  0
  189.9300  174.5340  135.9480 C   0  0  0  0  0  0  0  0  0  0  0  0
  189.3880  175.0260  134.9220 O   0  0  0  0  0  0  0  0  0  0  0  0
  191.2540  174.9140  136.3260 N   0  0  0  0  0  2  0  0  0  0  0  0
  189.1930  173.5180  136.7600 C   0  0  0  0  0  2  0  0  0  0  0  0
  188.1920  173.0220  139.0220 C   0  0  0  0  0  1  0  0  0  0  0  0
  187.4350  174.9420  137.7250 N   0  0  0  0  0  1  0  0  0  0  0  0
  188.5840  174.1050  138.0330 C   0  0  2  0  0  3  0  0  0  0  0  0
  195.8550  175.4380  140.4360 C   0  0  0  0  0  2  0  0  0  0  0  0
  195.4220  176.4010  141.5350 C   0  0  0  0  0  2  0  0  0  0  0  0
  195.1400  176.3480  144.0080 C   0  0  0  0  0  1  0  0  0  0  0  0
  197.2410  176.8070  143.0050 O   0  0  0  0  0  1  0  0  0  0  0  0
  196.0800  176.0540  142.8560 C   0  0  2  0  0  3  0  0  0  0  0  0
  193.7730  173.0180  145.5230 C   0  0  0  0  0  2  0  0  0  0  0  0
  194.1000  171.6690  145.3850 O   0  0  0  0  0  1  0  0  0  0  0  0
  1  9  1  1  0  0  0
  1 16  1  0  0  0  0
  3  8  1  0  0  0  0
  3  9  1  0  0  0  0
  4 27  1  6  0  0  0
  4  5  1  0  0  0  0
  6 12  1  0  0  0  0
  6  1  1  0  0  0  0
  8  2  1  6  0  0  0
  8 11  1  0  0  0  0
 10  7  1  1  0  0  0
 10  4  1  0  0  0  0
 10  2  1  0  0  0  0
 11  5  1  6  0  0  0
 11 12  1  0  0  0  0
 12 49  1  6  0  0  0
 14 17  1  6  0  0  0
 14 15  1  0  0  0  0
 16 13  1  1  0  0  0
 16 14  1  0  0  0  0
 16 15  1  0  0  0  0
 17 18  2  0  0  0  0
 19 24  1  0  0  0  0
 22 18  1  0  0  0  0
 22 21  1  0  0  0  0
 23 20  1  1  0  0  0
 23 19  1  0  0  0  0
 24 21  1  0  0  0  0
 25 22  2  0  0  0  0
 26 23  1  0  0  0  0
 26 25  1  0  0  0  0
 27 28  2  6  0  0  0
 27 30  1  0  0  0  0
 29 27  1  0  0  0  0
 31 30  1  0  0  0  0
 31 44  1  1  0  0  0
 32 31  1  0  0  0  0
 33 32  1  0  0  0  0
 34 35  1  0  0  0  0
 34 33  1  0  0  0  0
 36 35  1  0  0  0  0
 36 39  1  0  0  0  0
 37 39  1  0  0  0  0
 37 40  1  0  0  0  0
 38 37  2  0  0  0  0
 40 43  1  0  0  0  0
 42 43  1  0  0  0  0
 43 41  1  1  0  0  0
 44 45  1  0  0  0  0
 45 48  1  0  0  0  0
 48 47  1  0  0  0  0
 48 46  1  1  0  0  0
 50 49  1  0  0  0  0
M  END
>  <MODEL>
6

>  <REMARK>
 VINA RESULT:      -5.7      2.145      3.647
  Name = 
  18 active torsions:
  status: ('A' for Active; 'I' for Inactive)
    1  A    between atoms: N_1  and  C_11
    2  A    between atoms: N_1  and  N_33
    3  A    between atoms: P_2  and  C_15
    4  A    between atoms: P_2  and  O_32
    5  A    between atoms: C_4  and  C_24
    6  A    between atoms: C_6  and  C_19
    7  A    between atoms: C_9  and  C_30
    8  A    between atoms: C_11  and  C_25
    9  A    between atoms: C_23  and  O_28
   10  A    between atoms: C_23  and  O_32
   11  A    between atoms: C_23  and  C_39
   12  A    between atoms: C_24  and  C_41
   13  A    between atoms: C_25  and  C_29
   14  A    between atoms: C_26  and  C_44
   15  A    between atoms: O_28  and  C_29
   16  A    between atoms: C_31  and  C_36
   17  A    between atoms: C_31  and  C_39
   18  A    between atoms: C_35  and  C_50
                            x       y       z     vdW  Elec       q    Type
                         _______ _______ _______ _____ _____    ______ ____

>  <TORSDO>
F 18

$$$$
=
 OpenBabel11062420493D

 50 53  0  0  1  0  0  0  0  0999 V2000
  195.0150  174.9640  144.7610 C   0  0  1  0  0  3  0  0  0  0  0  0
  191.3310  176.3590  147.3310 C   0  0  0  0  0  2  0  0  0  0  0  0
  193.6130  176.4130  146.3020 C   0  0  0  0  0  2  0  0  0  0  0  0
  190.9030  176.1670  144.8460 C   0  0  2  0  0  3  0  0  0  0  0  0
  191.0250  174.7670  144.9600 O   0  0  0  0  0  0  0  0  0  0  0  0
  193.8090  174.4190  144.2550 O   0  0  0  0  0  0  0  0  0  0  0  0
  189.1170  176.3890  146.4520 O   0  0  0  0  0  1  0  0  0  0  0  0
  192.5200  175.5100  146.8810 C   0  0  2  0  0  3  0  0  0  0  0  0
  194.9150  175.6420  146.1410 C   0  0  0  0  0  2  0  0  0  0  0  0
  190.4270  176.7830  146.1700 C   0  0  1  0  0  3  0  0  0  0  0  0
  192.0380  174.4070  145.8970 C   0  0  2  0  0  3  0  0  0  0  0  0
  193.1910  173.6380  145.2500 C   0  0  1  0  0  3  0  0  0  0  0  0
  196.2930  173.0070  145.6890 O   0  0  0  0  0  1  0  0  0  0  0  0
  196.8020  173.5760  143.3510 C   0  0  1  0  0  3  0  0  0  0  0  0
  197.5120  174.5500  144.2870 C   0  0  0  0  0  2  0  0  0  0  0  0
  196.1760  173.9660  144.6830 C   0  0  1  0  0  0  0  0  0  0  0  0
  196.2460  174.3330  142.1880 C   0  0  0  0  0  3  0  0  0  0  0  0
  196.5150  173.9260  140.9490 C   0  0  0  0  0  3  0  0  0  0  0  0
  196.2670  175.3490  136.7730 C   0  0  0  0  0  2  0  0  0  0  0  0
  194.7390  173.4860  136.6990 O   0  0  0  0  0  1  0  0  0  0  0  0
  197.0350  175.2870  138.8690 C   0  0  0  0  0  2  0  0  0  0  0  0
  196.0260  174.6090  139.7430 C   0  0  0  0  0  0  0  0  0  0  0  0
  194.8190  174.8680  136.8790 C   0  0  1  0  0  3  0  0  0  0  0  0
  197.1060  174.6290  137.6370 O   0  0  0  0  0  0  0  0  0  0  0  0
  194.7280  174.5980  139.4110 C   0  0  0  0  0  3  0  0  0  0  0  0
  194.1680  175.2950  138.1990 C   0  0  0  0  0  2  0  0  0  0  0  0
  189.7990  176.6100  143.4610 P   0  0  2  0  0  0  0  0  0  0  0  0
  189.9950  175.4700  142.2270 O   0  0  0  0  0  0  0  0  0  0  0  0
  190.1660  177.9760  142.9260 O   0  0  0  0  0  1  0  0  0  0  0  0
  188.1720  176.5890  143.9480 O   0  0  0  0  0  0  0  0  0  0  0  0
  187.5390  177.6330  143.2530 C   0  0  1  0  0  3  0  0  0  0  0  0
  187.0370  177.2310  141.9950 O   0  0  0  0  0  0  0  0  0  0  0  0
  186.3400  178.3010  141.4180 C   0  0  0  0  0  2  0  0  0  0  0  0
  185.2950  177.7640  140.4590 C   0  0  0  0  0  2  0  0  0  0  0  0
  184.0790  178.6710  140.4460 C   0  0  0  0  0  2  0  0  0  0  0  0
  183.1100  178.2060  141.4270 N   0  0  0  0  0  2  0  0  0  0  0  0
  180.6490  178.4110  141.2720 C   0  0  0  0  0  0  0  0  0  0  0  0
  180.5720  178.9220  142.4200 O   0  0  0  0  0  0  0  0  0  0  0  0
  181.9030  177.9580  140.7600 N   0  0  0  0  0  2  0  0  0  0  0  0
  179.4230  178.3070  140.4230 C   0  0  0  0  0  2  0  0  0  0  0  0
  179.5420  180.8020  140.0690 C   0  0  0  0  0  1  0  0  0  0  0  0
  177.8870  179.8410  141.5780 N   0  0  0  0  0  1  0  0  0  0  0  0
  178.6380  179.6170  140.3530 C   0  0  2  0  0  3  0  0  0  0  0  0
  186.5160  178.3970  144.1060 C   0  0  0  0  0  2  0  0  0  0  0  0
  185.9980  177.5990  145.2970 C   0  0  0  0  0  2  0  0  0  0  0  0
  186.1690  178.2580  147.6910 C   0  0  0  0  0  1  0  0  0  0  0  0
  184.0960  178.2910  146.5370 O   0  0  0  0  0  1  0  0  0  0  0  0
  185.4600  178.5170  146.3770 C   0  0  2  0  0  3  0  0  0  0  0  0
  192.7610  172.2800  144.7050 C   0  0  0  0  0  2  0  0  0  0  0  0
  192.3500  172.3770  143.3760 O   0  0  0  0  0  1  0  0  0  0  0  0
  1  9  1  1  0  0  0
  4 27  1  6  0  0  0
  4  5  1  0  0  0  0
  4 10  1  0  0  0  0
  6  1  1  0  0  0  0
  6 12  1  0  0  0  0
  8  3  1  6  0  0  0
  8  2  1  0  0  0  0
  9  3  1  0  0  0  0
 10  7  1  1  0  0  0
 10  2  1  0  0  0  0
 11  5  1  6  0  0  0
 11  8  1  0  0  0  0
 12 49  1  6  0  0  0
 12 11  1  0  0  0  0
 14 17  1  6  0  0  0
 14 15  1  0  0  0  0
 14 16  1  0  0  0  0
 15 16  1  0  0  0  0
 16  1  1  0  0  0  0
 16 13  1  1  0  0  0
 18 17  2  0  0  0  0
 19 23  1  0  0  0  0
 19 24  1  0  0  0  0
 21 22  1  0  0  0  0
 22 18  1  0  0  0  0
 23 20  1  1  0  0  0
 23 26  1  0  0  0  0
 24 21  1  0  0  0  0
 25 22  2  0  0  0  0
 26 25  1  0  0  0  0
 27 28  2  6  0  0  0
 27 30  1  0  0  0  0
 29 27  1  0  0  0  0
 31 30  1  0  0  0  0
 31 44  1  1  0  0  0
 32 31  1  0  0  0  0
 33 32  1  0  0  0  0
 34 33  1  0  0  0  0
 35 34  1  0  0  0  0
 35 36  1  0  0  0  0
 37 38  2  0  0  0  0
 39 37  1  0  0  0  0
 39 36  1  0  0  0  0
 40 37  1  0  0  0  0
 43 41  1  1  0  0  0
 43 40  1  0  0  0  0
 43 42  1  0  0  0  0
 44 45  1  0  0  0  0
 45 48  1  0  0  0  0
 48 47  1  0  0  0  0
 48 46  1  1  0  0  0
 50 49  1  0  0  0  0
M  END
>  <MODEL>
7

>  <REMARK>
 VINA RESULT:      -5.7      3.683      9.079
  Name = 
  18 active torsions:
  status: ('A' for Active; 'I' for Inactive)
    1  A    between atoms: N_1  and  C_11
    2  A    between atoms: N_1  and  N_33
    3  A    between atoms: P_2  and  C_15
    4  A    between atoms: P_2  and  O_32
    5  A    between atoms: C_4  and  C_24
    6  A    between atoms: C_6  and  C_19
    7  A    between atoms: C_9  and  C_30
    8  A    between atoms: C_11  and  C_25
    9  A    between atoms: C_23  and  O_28
   10  A    between atoms: C_23  and  O_32
   11  A    between atoms: C_23  and  C_39
   12  A    between atoms: C_24  and  C_41
   13  A    between atoms: C_25  and  C_29
   14  A    between atoms: C_26  and  C_44
   15  A    between atoms: O_28  and  C_29
   16  A    between atoms: C_31  and  C_36
   17  A    between atoms: C_31  and  C_39
   18  A    between atoms: C_35  and  C_50
                            x       y       z     vdW  Elec       q    Type
                         _______ _______ _______ _____ _____    ______ ____

>  <TORSDO>
F 18

$$$$
=
 OpenBabel11062420493D

 50 53  0  0  1  0  0  0  0  0999 V2000
  195.0260  175.0660  144.7420 C   0  0  1  0  0  3  0  0  0  0  0  0
  191.3820  176.2390  147.4750 C   0  0  0  0  0  2  0  0  0  0  0  0
  193.6310  176.4040  146.3870 C   0  0  0  0  0  2  0  0  0  0  0  0
  190.8870  176.1490  144.9960 C   0  0  2  0  0  3  0  0  0  0  0  0
  191.0490  174.7490  145.0420 O   0  0  0  0  0  0  0  0  0  0  0  0
  193.8200  174.5110  144.2440 O   0  0  0  0  0  0  0  0  0  0  0  0
  189.1430  176.2470  146.6610 O   0  0  0  0  0  1  0  0  0  0  0  0
  192.5790  175.4450  146.9540 C   0  0  2  0  0  3  0  0  0  0  0  0
  194.9480  175.6770  146.1540 C   0  0  0  0  0  2  0  0  0  0  0  0
  190.4330  176.6900  146.3600 C   0  0  1  0  0  3  0  0  0  0  0  0
  192.0990  174.3750  145.9320 C   0  0  2  0  0  3  0  0  0  0  0  0
  193.2520  173.6690  145.2190 C   0  0  1  0  0  3  0  0  0  0  0  0
  196.4970  173.2320  145.6350 O   0  0  0  0  0  1  0  0  0  0  0  0
  196.6760  173.6330  143.2150 C   0  0  1  0  0  3  0  0  0  0  0  0
  197.4570  174.7020  143.9760 C   0  0  0  0  0  2  0  0  0  0  0  0
  196.2100  174.1050  144.5850 C   0  0  1  0  0  0  0  0  0  0  0  0
  195.9440  174.2780  142.0820 C   0  0  0  0  0  3  0  0  0  0  0  0
  195.7610  173.6050  140.9490 C   0  0  0  0  0  3  0  0  0  0  0  0
  195.0510  175.2190  136.8970 C   0  0  0  0  0  2  0  0  0  0  0  0
  194.3920  172.9210  136.5820 O   0  0  0  0  0  1  0  0  0  0  0  0
  195.7390  175.2580  139.0210 C   0  0  0  0  0  2  0  0  0  0  0  0
  195.0650  174.1550  139.7770 C   0  0  0  0  0  0  0  0  0  0  0  0
  193.9120  174.1980  136.8800 C   0  0  1  0  0  3  0  0  0  0  0  0
  196.0900  174.8060  137.7450 O   0  0  0  0  0  0  0  0  0  0  0  0
  193.8850  173.6660  139.3710 C   0  0  0  0  0  3  0  0  0  0  0  0
  193.1180  174.2020  138.1900 C   0  0  0  0  0  2  0  0  0  0  0  0
  189.7330  176.6240  143.6640 P   0  0  2  0  0  0  0  0  0  0  0  0
  190.2770  175.9540  142.2110 O   0  0  0  0  0  0  0  0  0  0  0  0
  189.6980  178.1300  143.5250 O   0  0  0  0  0  1  0  0  0  0  0  0
  188.1720  176.0290  143.9710 O   0  0  0  0  0  0  0  0  0  0  0  0
  187.2800  177.0490  143.6010 C   0  0  1  0  0  3  0  0  0  0  0  0
  186.1590  176.5680  142.8880 O   0  0  0  0  0  0  0  0  0  0  0  0
  185.9430  177.3860  141.7710 C   0  0  0  0  0  2  0  0  0  0  0  0
  187.1720  177.3610  140.8820 C   0  0  0  0  0  2  0  0  0  0  0  0
  186.7610  177.3130  139.4220 C   0  0  0  0  0  2  0  0  0  0  0  0
  186.8200  175.9410  138.9420 N   0  0  0  0  0  2  0  0  0  0  0  0
  188.5400  174.1690  139.1090 C   0  0  0  0  0  0  0  0  0  0  0  0
  188.1950  173.6630  138.0090 O   0  0  0  0  0  0  0  0  0  0  0  0
  187.8200  175.2720  139.6620 N   0  0  0  0  0  2  0  0  0  0  0  0
  189.7330  173.6300  139.8310 C   0  0  0  0  0  2  0  0  0  0  0  0
  188.9640  172.7010  142.0470 C   0  0  0  0  0  1  0  0  0  0  0  0
  190.5670  171.4770  140.6780 N   0  0  0  0  0  1  0  0  0  0  0  0
  189.4190  172.3700  140.6370 C   0  0  2  0  0  3  0  0  0  0  0  0
  186.9150  177.9860  144.7610 C   0  0  0  0  0  2  0  0  0  0  0  0
  185.6800  177.5420  145.5380 C   0  0  0  0  0  2  0  0  0  0  0  0
  185.9580  177.9140  147.9840 C   0  0  0  0  0  1  0  0  0  0  0  0
  184.0210  178.6470  146.8250 O   0  0  0  0  0  1  0  0  0  0  0  0
  185.3960  178.4800  146.6940 C   0  0  2  0  0  3  0  0  0  0  0  0
  192.8430  172.3260  144.6230 C   0  0  0  0  0  2  0  0  0  0  0  0
  193.1880  172.2460  143.2740 O   0  0  0  0  0  1  0  0  0  0  0  0
  1  9  1  1  0  0  0
  4 27  1  6  0  0  0
  4  5  1  0  0  0  0
  4 10  1  0  0  0  0
  6  1  1  0  0  0  0
  6 12  1  0  0  0  0
  8  3  1  6  0  0  0
  8  2  1  0  0  0  0
  9  3  1  0  0  0  0
 10  7  1  1  0  0  0
 10  2  1  0  0  0  0
 11  5  1  6  0  0  0
 11  8  1  0  0  0  0
 12 49  1  6  0  0  0
 12 11  1  0  0  0  0
 14 17  1  6  0  0  0
 14 15  1  0  0  0  0
 14 16  1  0  0  0  0
 15 16  1  0  0  0  0
 16  1  1  0  0  0  0
 16 13  1  1  0  0  0
 18 17  2  0  0  0  0
 19 24  1  0  0  0  0
 21 22  1  0  0  0  0
 22 18  1  0  0  0  0
 23 20  1  1  0  0  0
 23 19  1  0  0  0  0
 23 26  1  0  0  0  0
 24 21  1  0  0  0  0
 25 22  2  0  0  0  0
 26 25  1  0  0  0  0
 27 28  2  6  0  0  0
 27 30  1  0  0  0  0
 29 27  1  0  0  0  0
 31 30  1  0  0  0  0
 31 44  1  1  0  0  0
 32 31  1  0  0  0  0
 33 32  1  0  0  0  0
 34 33  1  0  0  0  0
 35 34  1  0  0  0  0
 36 35  1  0  0  0  0
 36 39  1  0  0  0  0
 37 39  1  0  0  0  0
 37 40  1  0  0  0  0
 38 37  2  0  0  0  0
 40 43  1  0  0  0  0
 43 42  1  0  0  0  0
 43 41  1  1  0  0  0
 44 45  1  0  0  0  0
 45 48  1  0  0  0  0
 48 47  1  0  0  0  0
 48 46  1  1  0  0  0
 50 49  1  0  0  0  0
M  END
>  <MODEL>
8

>  <REMARK>
 VINA RESULT:      -5.6      2.446      8.168
  Name = 
  18 active torsions:
  status: ('A' for Active; 'I' for Inactive)
    1  A    between atoms: N_1  and  C_11
    2  A    between atoms: N_1  and  N_33
    3  A    between atoms: P_2  and  C_15
    4  A    between atoms: P_2  and  O_32
    5  A    between atoms: C_4  and  C_24
    6  A    between atoms: C_6  and  C_19
    7  A    between atoms: C_9  and  C_30
    8  A    between atoms: C_11  and  C_25
    9  A    between atoms: C_23  and  O_28
   10  A    between atoms: C_23  and  O_32
   11  A    between atoms: C_23  and  C_39
   12  A    between atoms: C_24  and  C_41
   13  A    between atoms: C_25  and  C_29
   14  A    between atoms: C_26  and  C_44
   15  A    between atoms: O_28  and  C_29
   16  A    between atoms: C_31  and  C_36
   17  A    between atoms: C_31  and  C_39
   18  A    between atoms: C_35  and  C_50
                            x       y       z     vdW  Elec       q    Type
                         _______ _______ _______ _____ _____    ______ ____

>  <TORSDO>
F 18

$$$$
=
 OpenBabel11062420493D

 50 53  0  0  1  0  0  0  0  0999 V2000
  193.7050  174.6650  144.4880 C   0  0  1  0  0  3  0  0  0  0  0  0
  194.6430  170.1280  145.2980 C   0  0  0  0  0  2  0  0  0  0  0  0
  193.4350  172.3180  145.4160 C   0  0  0  0  0  2  0  0  0  0  0  0
  194.1840  170.7200  142.8830 C   0  0  2  0  0  3  0  0  0  0  0  0
  195.4010  171.4310  142.8540 O   0  0  0  0  0  0  0  0  0  0  0  0
  194.4640  174.1070  143.4290 O   0  0  0  0  0  0  0  0  0  0  0  0
  195.1510  168.6080  143.5350 O   0  0  0  0  0  1  0  0  0  0  0  0
  194.8090  171.6470  145.3200 C   0  0  2  0  0  3  0  0  0  0  0  0
  193.5830  173.7940  145.7540 C   0  0  0  0  0  2  0  0  0  0  0  0
  194.2370  169.5910  143.9220 C   0  0  1  0  0  3  0  0  0  0  0  0
  195.6410  172.1040  144.0880 C   0  0  2  0  0  3  0  0  0  0  0  0
  195.6880  173.6250  143.9300 C   0  0  1  0  0  3  0  0  0  0  0  0
  195.3310  176.5710  144.2770 O   0  0  0  0  0  1  0  0  0  0  0  0
  193.1030  177.1840  145.1190 C   0  0  1  0  0  3  0  0  0  0  0  0
  193.9210  176.5420  146.2380 C   0  0  0  0  0  2  0  0  0  0  0  0
  194.1290  176.1030  144.8070 C   0  0  1  0  0  0  0  0  0  0  0  0
  191.7000  176.6730  145.1850 C   0  0  0  0  0  3  0  0  0  0  0  0
  190.6840  177.5230  145.0630 C   0  0  0  0  0  3  0  0  0  0  0  0
  186.5250  177.1060  146.4970 C   0  0  0  0  0  2  0  0  0  0  0  0
  186.2590  178.8650  144.8690 O   0  0  0  0  0  1  0  0  0  0  0  0
  188.7220  176.7110  146.4570 C   0  0  0  0  0  2  0  0  0  0  0  0
  189.2710  177.1200  145.1260 C   0  0  0  0  0  0  0  0  0  0  0  0
  186.1750  177.4830  145.0560 C   0  0  1  0  0  3  0  0  0  0  0  0
  187.7650  177.6410  146.8750 O   0  0  0  0  0  0  0  0  0  0  0  0
  188.4870  177.1500  144.0390 C   0  0  0  0  0  3  0  0  0  0  0  0
  187.0400  176.7310  144.0400 C   0  0  0  0  0  2  0  0  0  0  0  0
  193.7630  170.0890  141.2220 P   0  0  2  0  0  0  0  0  0  0  0  0
  192.7290  168.7620  141.3940 O   0  0  0  0  0  1  0  0  0  0  0  0
  195.0190  169.6400  140.5090 O   0  0  0  0  0  0  0  0  0  0  0  0
  192.9600  171.2720  140.3060 O   0  0  0  0  0  0  0  0  0  0  0  0
  193.8330  171.6240  139.2640 C   0  0  1  0  0  3  0  0  0  0  0  0
  193.1730  171.7850  138.0250 O   0  0  0  0  0  0  0  0  0  0  0  0
  191.9220  171.1570  138.0890 C   0  0  0  0  0  2  0  0  0  0  0  0
  190.8750  172.0510  137.4520 C   0  0  0  0  0  2  0  0  0  0  0  0
  189.7950  172.3940  138.4600 C   0  0  0  0  0  2  0  0  0  0  0  0
  189.9180  173.7900  138.8540 N   0  0  0  0  0  2  0  0  0  0  0  0
  189.7430  173.8100  141.3220 C   0  0  0  0  0  0  0  0  0  0  0  0
  188.4880  173.9040  141.2800 O   0  0  0  0  0  0  0  0  0  0  0  0
  190.5150  173.8310  140.1210 N   0  0  0  0  0  2  0  0  0  0  0  0
  190.4300  173.6420  142.6390 C   0  0  0  0  0  2  0  0  0  0  0  0
  189.9210  173.5500  145.1090 C   0  0  0  0  0  1  0  0  0  0  0  0
  189.4530  171.6360  143.6740 N   0  0  0  0  0  1  0  0  0  0  0  0
  189.5050  173.0890  143.7240 C   0  0  2  0  0  3  0  0  0  0  0  0
  194.7630  172.7930  139.6200 C   0  0  0  0  0  2  0  0  0  0  0  0
  194.0260  174.0240  140.1340 C   0  0  0  0  0  2  0  0  0  0  0  0
  196.0620  174.9750  139.0610 C   0  0  0  0  0  1  0  0  0  0  0  0
  194.9510  176.0950  140.8340 O   0  0  0  0  0  1  0  0  0  0  0  0
  194.7330  175.2980  139.7140 C   0  0  2  0  0  3  0  0  0  0  0  0
  196.8620  174.0920  143.0770 C   0  0  0  0  0  2  0  0  0  0  0  0
  197.9210  174.5310  143.8720 O   0  0  0  0  0  1  0  0  0  0  0  0
  1 16  1  0  0  0  0
  1  9  1  1  0  0  0
  3  9  1  0  0  0  0
  4 27  1  6  0  0  0
  4 10  1  0  0  0  0
  5  4  1  0  0  0  0
  6 12  1  0  0  0  0
  6  1  1  0  0  0  0
  8  2  1  6  0  0  0
  8  3  1  0  0  0  0
 10  7  1  6  0  0  0
 10  2  1  0  0  0  0
 11  5  1  6  0  0  0
 11  8  1  0  0  0  0
 12 49  1  6  0  0  0
 12 11  1  0  0  0  0
 14 17  1  1  0  0  0
 14 15  1  0  0  0  0
 16 13  1  6  0  0  0
 16 14  1  0  0  0  0
 16 15  1  0  0  0  0
 18 22  1  0  0  0  0
 18 17  2  0  0  0  0
 19 24  1  0  0  0  0
 21 24  1  0  0  0  0
 22 21  1  0  0  0  0
 23 20  1  1  0  0  0
 23 19  1  0  0  0  0
 25 26  1  0  0  0  0
 25 22  2  0  0  0  0
 26 23  1  0  0  0  0
 27 29  2  6  0  0  0
 27 28  1  0  0  0  0
 30 27  1  0  0  0  0
 31 44  1  1  0  0  0
 31 30  1  0  0  0  0
 32 33  1  0  0  0  0
 32 31  1  0  0  0  0
 34 33  1  0  0  0  0
 34 35  1  0  0  0  0
 35 36  1  0  0  0  0
 36 39  1  0  0  0  0
 37 40  1  0  0  0  0
 38 37  2  0  0  0  0
 39 37  1  0  0  0  0
 40 43  1  0  0  0  0
 42 43  1  0  0  0  0
 43 41  1  1  0  0  0
 44 45  1  0  0  0  0
 48 46  1  1  0  0  0
 48 45  1  0  0  0  0
 48 47  1  0  0  0  0
 49 50  1  0  0  0  0
M  END
>  <MODEL>
9

>  <REMARK>
 VINA RESULT:      -5.5      2.183      3.048
  Name = 
  18 active torsions:
  status: ('A' for Active; 'I' for Inactive)
    1  A    between atoms: N_1  and  C_11
    2  A    between atoms: N_1  and  N_33
    3  A    between atoms: P_2  and  C_15
    4  A    between atoms: P_2  and  O_32
    5  A    between atoms: C_4  and  C_24
    6  A    between atoms: C_6  and  C_19
    7  A    between atoms: C_9  and  C_30
    8  A    between atoms: C_11  and  C_25
    9  A    between atoms: C_23  and  O_28
   10  A    between atoms: C_23  and  O_32
   11  A    between atoms: C_23  and  C_39
   12  A    between atoms: C_24  and  C_41
   13  A    between atoms: C_25  and  C_29
   14  A    between atoms: C_26  and  C_44
   15  A    between atoms: O_28  and  C_29
   16  A    between atoms: C_31  and  C_36
   17  A    between atoms: C_31  and  C_39
   18  A    between atoms: C_35  and  C_50
                            x       y       z     vdW  Elec       q    Type
                         _______ _______ _______ _____ _____    ______ ____

>  <TORSDO>
F 18

$$$$
