=
 OpenBabel11062422013D

 35 37  0  0  1  0  0  0  0  0999 V2000
  190.6490  175.5790  145.1680 C   0  0  2  0  0  3  0  0  0  0  0  0
  188.3410  176.5710  144.9330 N   0  0  0  0  0  2  0  0  0  0  0  0
  189.6050  176.5670  145.5980 C   0  0  0  0  0  0  0  0  0  0  0  0
  189.8240  177.3640  146.5510 O   0  0  0  0  0  0  0  0  0  0  0  0
  185.5260  179.4760  146.1330 C   0  0  0  0  0  2  0  0  0  0  0  0
  186.3520  176.4870  146.3710 C   0  0  0  0  0  2  0  0  0  0  0  0
  184.8860  178.4650  147.0930 C   0  0  0  0  0  2  0  0  0  0  0  0
  184.9350  177.0130  146.6060 C   0  0  0  0  0  2  0  0  0  0  0  0
  185.5600  180.1830  143.8530 O   0  0  0  0  0  1  0  0  0  0  0  0
  187.2100  177.3460  145.4240 C   0  0  2  0  0  3  0  0  0  0  0  0
  185.4140  179.0590  144.6650 C   0  0  1  0  0  3  0  0  0  0  0  0
  186.4490  177.9930  144.2490 C   0  0  2  0  0  3  0  0  0  0  0  0
  185.8210  176.9470  143.3340 C   0  0  0  0  0  2  0  0  0  0  0  0
  185.2780  177.8360  141.3360 O   0  0  0  0  0  1  0  0  0  0  0  0
  186.2620  177.1520  141.9640 N   0  0  0  0  0  2  0  0  0  0  0  0
  191.9150  176.2660  144.7250 C   0  0  0  0  0  0  0  0  0  0  0  0
  191.8910  176.9110  143.6890 O   0  0  0  0  0  0  0  0  0  0  0  0
  193.2210  176.1750  145.4780 C   0  0  1  0  0  3  0  0  0  0  0  0
  193.0280  176.3770  146.8480 O   0  0  0  0  0  1  0  0  0  0  0  0
  194.0040  174.9160  145.1780 C   0  0  0  0  0  0  0  0  0  0  0  0
  195.2360  172.0080  145.0860 C   0  0  0  0  0  3  0  0  0  0  0  0
  194.9200  174.8930  143.9640 C   0  0  2  0  0  3  0  0  0  0  0  0
  193.6260  173.8020  145.8190 C   0  0  0  0  0  3  0  0  0  0  0  0
  196.1610  174.0800  144.0490 C   0  0  0  0  0  0  0  0  0  0  0  0
  195.4630  176.2670  143.5000 C   0  0  2  0  0  3  0  0  0  0  0  0
  196.2880  172.8330  144.4870 C   0  0  0  0  0  3  0  0  0  0  0  0
  196.8200  175.9560  142.8770 C   0  0  0  0  0  2  0  0  0  0  0  0
  195.6920  177.1150  144.5870 O   0  0  0  0  0  1  0  0  0  0  0  0
  197.2210  174.7320  143.4590 O   0  0  0  0  0  0  0  0  0  0  0  0
  194.1030  172.4230  145.6500 C   0  0  0  0  0  3  0  0  0  0  0  0
  190.1530  174.5420  144.1570 C   0  0  0  0  0  2  0  0  0  0  0  0
  190.1970  173.1200  144.7100 C   0  0  0  0  0  2  0  0  0  0  0  0
  190.8920  172.1630  143.7540 C   0  0  0  0  0  2  0  0  0  0  0  0
  192.8280  172.2610  142.2150 C   0  0  0  0  0  1  0  0  0  0  0  0
  191.5350  172.9340  142.6180 C   0  0  0  0  0  2  0  0  0  0  0  0
  1 31  1  6  0  0  0
  1  3  1  0  0  0  0
  2  3  1  0  0  0  0
  3  4  2  0  0  0  0
  5  7  1  0  0  0  0
  6  8  1  0  0  0  0
  8  7  1  0  0  0  0
 10  2  1  6  0  0  0
 10  6  1  0  0  0  0
 11  9  1  6  0  0  0
 11  5  1  0  0  0  0
 12 13  1  1  0  0  0
 12 11  1  0  0  0  0
 12 10  1  0  0  0  0
 14 15  1  0  0  0  0
 15 13  1  0  0  0  0
 16  1  1  0  0  0  0
 16 18  1  0  0  0  0
 17 16  2  0  0  0  0
 18 19  1  1  0  0  0
 20 18  1  0  0  0  0
 20 23  2  0  0  0  0
 21 30  2  0  0  0  0
 22 24  1  1  0  0  0
 22 20  1  0  0  0  0
 24 26  2  0  0  0  0
 25 22  1  0  0  0  0
 25 28  1  1  0  0  0
 26 21  1  0  0  0  0
 27 29  1  0  0  0  0
 27 25  1  0  0  0  0
 29 24  1  0  0  0  0
 30 23  1  0  0  0  0
 31 32  1  0  0  0  0
 33 32  1  0  0  0  0
 34 35  1  0  0  0  0
 35 33  1  0  0  0  0
M  END
>  <MODEL>
1

>  <REMARK>
 VINA RESULT:      -6.8      0.000      0.000
  Name = 
  11 active torsions:
  status: ('A' for Active; 'I' for Inactive)
    1  A    between atoms: C_3  and  C_11
    2  A    between atoms: N_8  and  C_13
    3  A    between atoms: N_10  and  C_24
    4  A    between atoms: C_11  and  C_16
    5  A    between atoms: C_13  and  C_32
    6  A    between atoms: C_15  and  C_18
    7  A    between atoms: C_16  and  C_18
    8  A    between atoms: C_18  and  C_27
    9  A    between atoms: C_23  and  C_27
   10  A    between atoms: C_23  and  C_34
   11  A    between atoms: C_26  and  C_34
                            x       y       z     vdW  Elec       q    Type
                         _______ _______ _______ _____ _____    ______ ____

>  <TORSDO>
F 11

$$$$
=
 OpenBabel11062422013D

 35 37  0  0  1  0  0  0  0  0999 V2000
  190.7730  175.6240  145.7110 C   0  0  2  0  0  3  0  0  0  0  0  0
  188.5040  176.5870  145.1730 N   0  0  0  0  0  2  0  0  0  0  0  0
  189.6650  176.5930  146.0050 C   0  0  0  0  0  0  0  0  0  0  0  0
  189.7380  177.3800  146.9860 O   0  0  0  0  0  0  0  0  0  0  0  0
  185.4680  179.4270  145.8940 C   0  0  0  0  0  2  0  0  0  0  0  0
  186.4330  176.5320  146.4920 C   0  0  0  0  0  2  0  0  0  0  0  0
  184.8210  178.4820  146.9150 C   0  0  0  0  0  2  0  0  0  0  0  0
  184.9780  176.9940  146.5860 C   0  0  0  0  0  2  0  0  0  0  0  0
  185.6120  179.9000  143.5580 O   0  0  0  0  0  1  0  0  0  0  0  0
  187.3040  177.3400  145.5120 C   0  0  2  0  0  3  0  0  0  0  0  0
  185.4730  178.8580  144.4730 C   0  0  1  0  0  3  0  0  0  0  0  0
  186.5880  177.8180  144.2330 C   0  0  2  0  0  3  0  0  0  0  0  0
  186.0760  176.6500  143.3970 C   0  0  0  0  0  2  0  0  0  0  0  0
  187.5930  177.4710  141.9460 O   0  0  0  0  0  1  0  0  0  0  0  0
  186.3810  176.8690  141.9930 N   0  0  0  0  0  2  0  0  0  0  0  0
  190.2500  174.3540  145.0900 C   0  0  0  0  0  0  0  0  0  0  0  0
  189.6290  173.5780  145.7970 O   0  0  0  0  0  0  0  0  0  0  0  0
  190.4810  173.9750  143.6470 C   0  0  1  0  0  3  0  0  0  0  0  0
  189.5700  174.6200  142.8040 O   0  0  0  0  0  1  0  0  0  0  0  0
  191.9150  174.1490  143.1980 C   0  0  0  0  0  0  0  0  0  0  0  0
  194.6360  175.0620  141.8760 C   0  0  0  0  0  3  0  0  0  0  0  0
  192.9990  173.3210  143.8700 C   0  0  2  0  0  3  0  0  0  0  0  0
  192.1870  175.2260  142.4500 C   0  0  0  0  0  3  0  0  0  0  0  0
  194.1650  172.9080  143.0450 C   0  0  0  0  0  0  0  0  0  0  0  0
  192.5410  171.9740  144.4800 C   0  0  2  0  0  3  0  0  0  0  0  0
  194.8910  173.6620  142.2270 C   0  0  0  0  0  3  0  0  0  0  0  0
  193.7630  171.0660  144.3770 C   0  0  0  0  0  2  0  0  0  0  0  0
  191.5270  171.3900  143.7170 O   0  0  0  0  0  1  0  0  0  0  0  0
  194.5420  171.6150  143.3320 O   0  0  0  0  0  0  0  0  0  0  0  0
  193.4850  175.7250  141.9730 C   0  0  0  0  0  3  0  0  0  0  0  0
  191.7090  175.3640  146.8940 C   0  0  0  0  0  2  0  0  0  0  0  0
  192.9070  176.3100  146.9100 C   0  0  0  0  0  2  0  0  0  0  0  0
  193.3340  176.7060  145.5060 C   0  0  0  0  0  2  0  0  0  0  0  0
  195.2520  175.2050  145.9460 C   0  0  0  0  0  1  0  0  0  0  0  0
  194.8310  176.5280  145.3460 C   0  0  0  0  0  2  0  0  0  0  0  0
  1  3  1  0  0  0  0
  1 31  1  1  0  0  0
  2  3  1  0  0  0  0
  3  4  2  0  0  0  0
  5  7  1  0  0  0  0
  6  8  1  0  0  0  0
  8  7  1  0  0  0  0
 10  2  1  6  0  0  0
 10  6  1  0  0  0  0
 11  9  1  6  0  0  0
 11  5  1  0  0  0  0
 12 13  1  1  0  0  0
 12 11  1  0  0  0  0
 12 10  1  0  0  0  0
 14 15  1  0  0  0  0
 15 13  1  0  0  0  0
 16  1  1  0  0  0  0
 16 17  2  0  0  0  0
 18 19  1  6  0  0  0
 18 16  1  0  0  0  0
 20 18  1  0  0  0  0
 20 22  1  0  0  0  0
 21 30  2  0  0  0  0
 21 26  1  0  0  0  0
 22 24  1  6  0  0  0
 22 25  1  0  0  0  0
 23 20  2  0  0  0  0
 24 29  1  0  0  0  0
 25 28  1  6  0  0  0
 26 24  2  0  0  0  0
 27 25  1  0  0  0  0
 29 27  1  0  0  0  0
 30 23  1  0  0  0  0
 31 32  1  0  0  0  0
 33 32  1  0  0  0  0
 35 33  1  0  0  0  0
 35 34  1  0  0  0  0
M  END
>  <MODEL>
2

>  <REMARK>
 VINA RESULT:      -6.6      1.958      3.483
  Name = 
  11 active torsions:
  status: ('A' for Active; 'I' for Inactive)
    1  A    between atoms: C_3  and  C_11
    2  A    between atoms: N_8  and  C_13
    3  A    between atoms: N_10  and  C_24
    4  A    between atoms: C_11  and  C_16
    5  A    between atoms: C_13  and  C_32
    6  A    between atoms: C_15  and  C_18
    7  A    between atoms: C_16  and  C_18
    8  A    between atoms: C_18  and  C_27
    9  A    between atoms: C_23  and  C_27
   10  A    between atoms: C_23  and  C_34
   11  A    between atoms: C_26  and  C_34
                            x       y       z     vdW  Elec       q    Type
                         _______ _______ _______ _____ _____    ______ ____

>  <TORSDO>
F 11

$$$$
=
 OpenBabel11062422013D

 35 37  0  0  1  0  0  0  0  0999 V2000
  190.2000  174.8160  143.9780 C   0  0  2  0  0  3  0  0  0  0  0  0
  192.5820  174.2960  144.6320 N   0  0  0  0  0  2  0  0  0  0  0  0
  191.6740  174.8830  143.6990 C   0  0  0  0  0  0  0  0  0  0  0  0
  192.1070  175.4210  142.6440 O   0  0  0  0  0  0  0  0  0  0  0  0
  196.5380  174.3770  143.1700 C   0  0  0  0  0  2  0  0  0  0  0  0
  194.5130  172.8120  144.9370 C   0  0  0  0  0  2  0  0  0  0  0  0
  196.7960  172.9920  143.7790 C   0  0  0  0  0  2  0  0  0  0  0  0
  196.0340  172.7240  145.0810 C   0  0  0  0  0  2  0  0  0  0  0  0
  196.4850  176.7070  143.6860 O   0  0  0  0  0  1  0  0  0  0  0  0
  193.9980  174.1330  144.3370 C   0  0  2  0  0  3  0  0  0  0  0  0
  196.2340  175.4450  144.2230 C   0  0  1  0  0  3  0  0  0  0  0  0
  194.7840  175.3940  144.7470 C   0  0  2  0  0  3  0  0  0  0  0  0
  194.7370  175.6290  146.2530 C   0  0  0  0  0  2  0  0  0  0  0  0
  192.9010  176.6470  147.0710 O   0  0  0  0  0  1  0  0  0  0  0  0
  194.1180  176.9120  146.5400 N   0  0  0  0  0  2  0  0  0  0  0  0
  189.8370  175.5820  145.2240 C   0  0  0  0  0  0  0  0  0  0  0  0
  189.8510  174.9910  146.2920 O   0  0  0  0  0  0  0  0  0  0  0  0
  189.4250  177.0350  145.2200 C   0  0  1  0  0  3  0  0  0  0  0  0
  190.5280  177.8710  145.0170 O   0  0  0  0  0  1  0  0  0  0  0  0
  188.2830  177.3370  144.2760 C   0  0  0  0  0  0  0  0  0  0  0  0
  186.4280  178.1940  141.8660 C   0  0  0  0  0  3  0  0  0  0  0  0
  186.8830  176.8690  144.6450 C   0  0  2  0  0  3  0  0  0  0  0  0
  188.6100  177.7320  143.0390 C   0  0  0  0  0  3  0  0  0  0  0  0
  185.7370  177.7120  144.2140 C   0  0  0  0  0  0  0  0  0  0  0  0
  186.6060  176.6920  146.1570 C   0  0  2  0  0  3  0  0  0  0  0  0
  185.5210  178.2410  143.0150 C   0  0  0  0  0  3  0  0  0  0  0  0
  185.1160  176.9810  146.3140 C   0  0  0  0  0  2  0  0  0  0  0  0
  187.2940  177.6430  146.9140 O   0  0  0  0  0  1  0  0  0  0  0  0
  184.7770  177.7830  145.2000 O   0  0  0  0  0  0  0  0  0  0  0  0
  187.7420  177.9750  141.8780 C   0  0  0  0  0  3  0  0  0  0  0  0
  189.6230  173.3990  143.9650 C   0  0  0  0  0  2  0  0  0  0  0  0
  188.9730  173.0470  142.6290 C   0  0  0  0  0  2  0  0  0  0  0  0
  188.1190  174.1860  142.0970 C   0  0  0  0  0  2  0  0  0  0  0  0
  188.4580  173.2900  139.8150 C   0  0  0  0  0  1  0  0  0  0  0  0
  188.5310  174.5290  140.6790 C   0  0  0  0  0  2  0  0  0  0  0  0
  1 31  1  1  0  0  0
  1 16  1  0  0  0  0
  3  1  1  0  0  0  0
  3  2  1  0  0  0  0
  4  3  2  0  0  0  0
  5  7  1  0  0  0  0
  5 11  1  0  0  0  0
  6  8  1  0  0  0  0
  7  8  1  0  0  0  0
 10  2  1  1  0  0  0
 10 12  1  0  0  0  0
 10  6  1  0  0  0  0
 11  9  1  6  0  0  0
 11 12  1  0  0  0  0
 12 13  1  1  0  0  0
 13 15  1  0  0  0  0
 15 14  1  0  0  0  0
 16 17  2  0  0  0  0
 18 19  1  6  0  0  0
 18 16  1  0  0  0  0
 20 22  1  0  0  0  0
 20 18  1  0  0  0  0
 21 30  2  0  0  0  0
 21 26  1  0  0  0  0
 22 24  1  1  0  0  0
 22 25  1  0  0  0  0
 23 20  2  0  0  0  0
 24 29  1  0  0  0  0
 25 27  1  0  0  0  0
 25 28  1  1  0  0  0
 26 24  2  0  0  0  0
 29 27  1  0  0  0  0
 30 23  1  0  0  0  0
 32 31  1  0  0  0  0
 33 32  1  0  0  0  0
 34 35  1  0  0  0  0
 35 33  1  0  0  0  0
M  END
>  <MODEL>
3

>  <REMARK>
 VINA RESULT:      -6.5      2.215      8.473
  Name = 
  11 active torsions:
  status: ('A' for Active; 'I' for Inactive)
    1  A    between atoms: C_3  and  C_11
    2  A    between atoms: N_8  and  C_13
    3  A    between atoms: N_10  and  C_24
    4  A    between atoms: C_11  and  C_16
    5  A    between atoms: C_13  and  C_32
    6  A    between atoms: C_15  and  C_18
    7  A    between atoms: C_16  and  C_18
    8  A    between atoms: C_18  and  C_27
    9  A    between atoms: C_23  and  C_27
   10  A    between atoms: C_23  and  C_34
   11  A    between atoms: C_26  and  C_34
                            x       y       z     vdW  Elec       q    Type
                         _______ _______ _______ _____ _____    ______ ____

>  <TORSDO>
F 11

$$$$
=
 OpenBabel11062422013D

 35 37  0  0  1  0  0  0  0  0999 V2000
  190.1640  175.7180  144.4790 C   0  0  2  0  0  3  0  0  0  0  0  0
  187.7780  176.4270  144.8930 N   0  0  0  0  0  2  0  0  0  0  0  0
  189.1580  176.7840  144.8030 C   0  0  0  0  0  0  0  0  0  0  0  0
  189.5230  177.9710  145.0220 O   0  0  0  0  0  0  0  0  0  0  0  0
  185.4270  179.6800  146.1940 C   0  0  0  0  0  2  0  0  0  0  0  0
  185.7710  176.5910  146.2970 C   0  0  0  0  0  2  0  0  0  0  0  0
  184.6160  178.7390  147.0940 C   0  0  0  0  0  2  0  0  0  0  0  0
  184.4480  177.3220  146.5380 C   0  0  0  0  0  2  0  0  0  0  0  0
  185.6190  180.4770  143.9510 O   0  0  0  0  0  1  0  0  0  0  0  0
  186.7720  177.3470  145.4050 C   0  0  2  0  0  3  0  0  0  0  0  0
  185.2820  179.3540  144.7050 C   0  0  1  0  0  3  0  0  0  0  0  0
  186.1470  178.1590  144.2530 C   0  0  2  0  0  3  0  0  0  0  0  0
  185.3830  177.2680  143.2790 C   0  0  0  0  0  2  0  0  0  0  0  0
  184.5900  178.3720  141.4810 O   0  0  0  0  0  1  0  0  0  0  0  0
  184.2440  177.9870  142.7320 N   0  0  0  0  0  2  0  0  0  0  0  0
  190.7320  175.8940  143.0940 C   0  0  0  0  0  0  0  0  0  0  0  0
  190.0300  175.5960  142.1400 O   0  0  0  0  0  0  0  0  0  0  0  0
  192.1320  176.3870  142.8220 C   0  0  1  0  0  3  0  0  0  0  0  0
  192.1740  177.7840  142.7740 O   0  0  0  0  0  1  0  0  0  0  0  0
  193.1700  175.8050  143.7550 C   0  0  0  0  0  0  0  0  0  0  0  0
  195.2580  175.2180  146.0530 C   0  0  0  0  0  3  0  0  0  0  0  0
  193.5840  174.3520  143.5760 C   0  0  2  0  0  3  0  0  0  0  0  0
  193.4460  176.5040  144.8640 C   0  0  0  0  0  3  0  0  0  0  0  0
  194.9900  173.9890  143.8990 C   0  0  0  0  0  0  0  0  0  0  0  0
  193.4180  173.7720  142.1510 C   0  0  2  0  0  3  0  0  0  0  0  0
  195.6890  174.3230  144.9770 C   0  0  0  0  0  3  0  0  0  0  0  0
  194.5140  172.7170  142.0320 C   0  0  0  0  0  2  0  0  0  0  0  0
  193.6690  174.7410  141.1760 O   0  0  0  0  0  1  0  0  0  0  0  0
  195.4920  173.0940  142.9810 O   0  0  0  0  0  0  0  0  0  0  0  0
  194.3020  176.1440  146.0030 C   0  0  0  0  0  3  0  0  0  0  0  0
  189.6750  174.2930  144.7430 C   0  0  0  0  0  2  0  0  0  0  0  0
  190.0650  173.7890  146.1300 C   0  0  0  0  0  2  0  0  0  0  0  0
  189.8480  174.8490  147.1980 C   0  0  0  0  0  2  0  0  0  0  0  0
  191.2190  176.7460  148.0050 C   0  0  0  0  0  1  0  0  0  0  0  0
  191.1740  175.2450  147.8170 C   0  0  0  0  0  2  0  0  0  0  0  0
  1 31  1  6  0  0  0
  1  3  1  0  0  0  0
  3  2  1  0  0  0  0
  3  4  2  0  0  0  0
  5  7  1  0  0  0  0
  6  8  1  0  0  0  0
  8  7  1  0  0  0  0
 10  2  1  6  0  0  0
 10  6  1  0  0  0  0
 11  9  1  6  0  0  0
 11  5  1  0  0  0  0
 12 13  1  1  0  0  0
 12 11  1  0  0  0  0
 12 10  1  0  0  0  0
 14 15  1  0  0  0  0
 15 13  1  0  0  0  0
 16  1  1  0  0  0  0
 17 16  2  0  0  0  0
 18 19  1  1  0  0  0
 18 16  1  0  0  0  0
 18 20  1  0  0  0  0
 20 23  2  0  0  0  0
 22 20  1  6  0  0  0
 22 24  1  0  0  0  0
 23 30  1  0  0  0  0
 24 26  2  0  0  0  0
 25 28  1  6  0  0  0
 25 22  1  0  0  0  0
 26 21  1  0  0  0  0
 27 25  1  0  0  0  0
 27 29  1  0  0  0  0
 29 24  1  0  0  0  0
 30 21  2  0  0  0  0
 31 32  1  0  0  0  0
 32 33  1  0  0  0  0
 33 35  1  0  0  0  0
 35 34  1  0  0  0  0
M  END
>  <MODEL>
4

>  <REMARK>
 VINA RESULT:      -6.3      1.781      2.744
  Name = 
  11 active torsions:
  status: ('A' for Active; 'I' for Inactive)
    1  A    between atoms: C_3  and  C_11
    2  A    between atoms: N_8  and  C_13
    3  A    between atoms: N_10  and  C_24
    4  A    between atoms: C_11  and  C_16
    5  A    between atoms: C_13  and  C_32
    6  A    between atoms: C_15  and  C_18
    7  A    between atoms: C_16  and  C_18
    8  A    between atoms: C_18  and  C_27
    9  A    between atoms: C_23  and  C_27
   10  A    between atoms: C_23  and  C_34
   11  A    between atoms: C_26  and  C_34
                            x       y       z     vdW  Elec       q    Type
                         _______ _______ _______ _____ _____    ______ ____

>  <TORSDO>
F 11

$$$$
=
 OpenBabel11062422013D

 35 37  0  0  1  0  0  0  0  0999 V2000
  190.8070  175.8440  145.1710 C   0  0  2  0  0  3  0  0  0  0  0  0
  188.4870  176.8070  144.9290 N   0  0  0  0  0  2  0  0  0  0  0  0
  189.7120  176.7450  145.6610 C   0  0  0  0  0  0  0  0  0  0  0  0
  189.8540  177.4170  146.7190 O   0  0  0  0  0  0  0  0  0  0  0  0
  185.4930  179.4730  146.2430 C   0  0  0  0  0  2  0  0  0  0  0  0
  186.5020  176.5330  146.3480 C   0  0  0  0  0  2  0  0  0  0  0  0
  184.9130  178.3810  147.1510 C   0  0  0  0  0  2  0  0  0  0  0  0
  185.0540  176.9590  146.5970 C   0  0  0  0  0  2  0  0  0  0  0  0
  185.4920  180.2870  143.9980 O   0  0  0  0  0  1  0  0  0  0  0  0
  187.3080  177.4870  145.4480 C   0  0  2  0  0  3  0  0  0  0  0  0
  185.4130  179.1200  144.7560 C   0  0  1  0  0  3  0  0  0  0  0  0
  186.5140  178.1400  144.2990 C   0  0  2  0  0  3  0  0  0  0  0  0
  185.9550  177.1010  143.3310 C   0  0  0  0  0  2  0  0  0  0  0  0
  184.9870  177.8800  141.4510 O   0  0  0  0  0  1  0  0  0  0  0  0
  186.1890  177.5190  141.9590 N   0  0  0  0  0  2  0  0  0  0  0  0
  190.2540  174.6370  144.4570 C   0  0  0  0  0  0  0  0  0  0  0  0
  189.7150  173.7680  145.1240 O   0  0  0  0  0  0  0  0  0  0  0  0
  190.3570  174.4290  142.9650 C   0  0  1  0  0  3  0  0  0  0  0  0
  190.0690  175.6090  142.2710 O   0  0  0  0  0  1  0  0  0  0  0  0
  191.6630  173.8020  142.5320 C   0  0  0  0  0  0  0  0  0  0  0  0
  194.6080  173.1800  141.5690 C   0  0  0  0  0  3  0  0  0  0  0  0
  191.8240  172.2930  142.6420 C   0  0  2  0  0  3  0  0  0  0  0  0
  192.7020  174.6280  142.3570 C   0  0  0  0  0  3  0  0  0  0  0  0
  192.6680  171.6120  141.6250 C   0  0  0  0  0  0  0  0  0  0  0  0
  190.5160  171.4670  142.5850 C   0  0  2  0  0  3  0  0  0  0  0  0
  193.8750  171.9670  141.1990 C   0  0  0  0  0  3  0  0  0  0  0  0
  190.9260  170.1350  141.9650 C   0  0  0  0  0  2  0  0  0  0  0  0
  189.5840  172.0530  141.7250 O   0  0  0  0  0  1  0  0  0  0  0  0
  192.1070  170.4150  141.2380 O   0  0  0  0  0  0  0  0  0  0  0  0
  194.1070  174.3110  142.0630 C   0  0  0  0  0  3  0  0  0  0  0  0
  191.8440  175.4780  146.2350 C   0  0  0  0  0  2  0  0  0  0  0  0
  193.2310  176.0270  145.9120 C   0  0  0  0  0  2  0  0  0  0  0  0
  194.2590  174.9170  145.7620 C   0  0  0  0  0  2  0  0  0  0  0  0
  194.5480  172.4970  145.3290 C   0  0  0  0  0  1  0  0  0  0  0  0
  193.5710  173.5660  145.7670 C   0  0  0  0  0  2  0  0  0  0  0  0
  1  3  1  0  0  0  0
  1 31  1  1  0  0  0
  2  3  1  0  0  0  0
  3  4  2  0  0  0  0
  5  7  1  0  0  0  0
  6  8  1  0  0  0  0
  8  7  1  0  0  0  0
 10  2  1  6  0  0  0
 10  6  1  0  0  0  0
 11  9  1  6  0  0  0
 11  5  1  0  0  0  0
 12 13  1  1  0  0  0
 12 11  1  0  0  0  0
 12 10  1  0  0  0  0
 14 15  1  0  0  0  0
 15 13  1  0  0  0  0
 16 17  2  0  0  0  0
 16  1  1  0  0  0  0
 18 19  1  6  0  0  0
 18 16  1  0  0  0  0
 20 22  1  0  0  0  0
 20 18  1  0  0  0  0
 21 30  2  0  0  0  0
 22 24  1  6  0  0  0
 23 20  2  0  0  0  0
 25 28  1  6  0  0  0
 25 22  1  0  0  0  0
 26 21  1  0  0  0  0
 26 24  2  0  0  0  0
 27 25  1  0  0  0  0
 29 24  1  0  0  0  0
 29 27  1  0  0  0  0
 30 23  1  0  0  0  0
 32 31  1  0  0  0  0
 33 35  1  0  0  0  0
 33 32  1  0  0  0  0
 34 35  1  0  0  0  0
M  END
>  <MODEL>
5

>  <REMARK>
 VINA RESULT:      -6.3      2.065      3.795
  Name = 
  11 active torsions:
  status: ('A' for Active; 'I' for Inactive)
    1  A    between atoms: C_3  and  C_11
    2  A    between atoms: N_8  and  C_13
    3  A    between atoms: N_10  and  C_24
    4  A    between atoms: C_11  and  C_16
    5  A    between atoms: C_13  and  C_32
    6  A    between atoms: C_15  and  C_18
    7  A    between atoms: C_16  and  C_18
    8  A    between atoms: C_18  and  C_27
    9  A    between atoms: C_23  and  C_27
   10  A    between atoms: C_23  and  C_34
   11  A    between atoms: C_26  and  C_34
                            x       y       z     vdW  Elec       q    Type
                         _______ _______ _______ _____ _____    ______ ____

>  <TORSDO>
F 11

$$$$
=
 OpenBabel11062422013D

 35 37  0  0  1  0  0  0  0  0999 V2000
  191.0200  176.0730  144.2970 C   0  0  2  0  0  3  0  0  0  0  0  0
  190.1130  174.6530  142.4180 N   0  0  0  0  0  2  0  0  0  0  0  0
  191.1630  175.4770  142.9260 C   0  0  0  0  0  0  0  0  0  0  0  0
  192.1770  175.7230  142.2180 O   0  0  0  0  0  0  0  0  0  0  0  0
  190.8370  173.4520  138.4390 C   0  0  0  0  0  2  0  0  0  0  0  0
  188.6740  174.4470  140.4400 C   0  0  0  0  0  2  0  0  0  0  0  0
  189.4060  173.8510  138.0540 C   0  0  0  0  0  2  0  0  0  0  0  0
  188.3740  173.6520  139.1680 C   0  0  0  0  0  2  0  0  0  0  0  0
  192.1310  171.6910  139.4010 O   0  0  0  0  0  1  0  0  0  0  0  0
  190.0760  174.2130  141.0300 C   0  0  2  0  0  3  0  0  0  0  0  0
  190.8840  172.3120  139.4590 C   0  0  1  0  0  3  0  0  0  0  0  0
  190.6120  172.7730  140.9070 C   0  0  2  0  0  3  0  0  0  0  0  0
  189.7290  171.7710  141.6430 C   0  0  0  0  0  2  0  0  0  0  0  0
  189.5460  171.7380  143.8890 O   0  0  0  0  0  1  0  0  0  0  0  0
  190.3660  171.3570  142.8810 N   0  0  0  0  0  2  0  0  0  0  0  0
  189.7260  176.8320  144.4400 C   0  0  0  0  0  0  0  0  0  0  0  0
  189.7350  178.0350  144.2310 O   0  0  0  0  0  0  0  0  0  0  0  0
  188.4240  176.1910  144.8580 C   0  0  1  0  0  3  0  0  0  0  0  0
  188.6510  175.0720  145.6650 O   0  0  0  0  0  1  0  0  0  0  0  0
  187.4410  177.1630  145.4700 C   0  0  0  0  0  0  0  0  0  0  0  0
  185.7240  179.0190  147.3660 C   0  0  0  0  0  3  0  0  0  0  0  0
  186.5620  177.9950  144.5490 C   0  0  2  0  0  3  0  0  0  0  0  0
  187.6050  177.4520  146.7670 C   0  0  0  0  0  3  0  0  0  0  0  0
  185.1970  178.3420  145.0230 C   0  0  0  0  0  0  0  0  0  0  0  0
  186.2770  177.3870  143.1540 C   0  0  2  0  0  3  0  0  0  0  0  0
  184.8450  178.8200  146.2110 C   0  0  0  0  0  3  0  0  0  0  0  0
  184.9010  177.9220  142.7720 C   0  0  0  0  0  2  0  0  0  0  0  0
  186.1750  175.9950  143.2200 O   0  0  0  0  0  1  0  0  0  0  0  0
  184.2800  178.2510  144.0000 O   0  0  0  0  0  0  0  0  0  0  0  0
  186.8990  178.4370  147.5990 C   0  0  0  0  0  3  0  0  0  0  0  0
  192.2350  176.8800  144.7600 C   0  0  0  0  0  2  0  0  0  0  0  0
  192.6620  176.5270  146.1820 C   0  0  0  0  0  2  0  0  0  0  0  0
  192.0800  175.1970  146.6350 C   0  0  0  0  0  2  0  0  0  0  0  0
  191.2510  176.8480  148.2820 C   0  0  0  0  0  1  0  0  0  0  0  0
  191.2970  175.3800  147.9190 C   0  0  0  0  0  2  0  0  0  0  0  0
  1 16  1  0  0  0  0
  1 31  1  6  0  0  0
  2  3  1  0  0  0  0
  3  1  1  0  0  0  0
  4  3  2  0  0  0  0
  5 11  1  0  0  0  0
  6 10  1  0  0  0  0
  7  5  1  0  0  0  0
  7  8  1  0  0  0  0
  8  6  1  0  0  0  0
 10  2  1  1  0  0  0
 11  9  1  1  0  0  0
 11 12  1  0  0  0  0
 12 10  1  0  0  0  0
 12 13  1  6  0  0  0
 13 15  1  0  0  0  0
 15 14  1  0  0  0  0
 16 18  1  0  0  0  0
 17 16  2  0  0  0  0
 18 20  1  0  0  0  0
 18 19  1  1  0  0  0
 20 23  2  0  0  0  0
 21 30  2  0  0  0  0
 22 24  1  1  0  0  0
 22 20  1  0  0  0  0
 23 30  1  0  0  0  0
 24 26  2  0  0  0  0
 25 28  1  1  0  0  0
 25 22  1  0  0  0  0
 26 21  1  0  0  0  0
 27 25  1  0  0  0  0
 27 29  1  0  0  0  0
 29 24  1  0  0  0  0
 31 32  1  0  0  0  0
 32 33  1  0  0  0  0
 33 35  1  0  0  0  0
 35 34  1  0  0  0  0
M  END
>  <MODEL>
6

>  <REMARK>
 VINA RESULT:      -6.3      2.994      8.179
  Name = 
  11 active torsions:
  status: ('A' for Active; 'I' for Inactive)
    1  A    between atoms: C_3  and  C_11
    2  A    between atoms: N_8  and  C_13
    3  A    between atoms: N_10  and  C_24
    4  A    between atoms: C_11  and  C_16
    5  A    between atoms: C_13  and  C_32
    6  A    between atoms: C_15  and  C_18
    7  A    between atoms: C_16  and  C_18
    8  A    between atoms: C_18  and  C_27
    9  A    between atoms: C_23  and  C_27
   10  A    between atoms: C_23  and  C_34
   11  A    between atoms: C_26  and  C_34
                            x       y       z     vdW  Elec       q    Type
                         _______ _______ _______ _____ _____    ______ ____

>  <TORSDO>
F 11

$$$$
=
 OpenBabel11062422013D

 35 37  0  0  1  0  0  0  0  0999 V2000
  190.8890  176.0570  144.5440 C   0  0  2  0  0  3  0  0  0  0  0  0
  188.5240  176.9370  144.5430 N   0  0  0  0  0  2  0  0  0  0  0  0
  189.8070  176.8870  145.1690 C   0  0  0  0  0  0  0  0  0  0  0  0
  190.0110  177.5090  146.2470 O   0  0  0  0  0  0  0  0  0  0  0  0
  185.6010  179.4010  146.3270 C   0  0  0  0  0  2  0  0  0  0  0  0
  186.5730  176.4700  145.9580 C   0  0  0  0  0  2  0  0  0  0  0  0
  185.0300  178.1890  147.0750 C   0  0  0  0  0  2  0  0  0  0  0  0
  185.1380  176.8670  146.3090 C   0  0  0  0  0  2  0  0  0  0  0  0
  185.5520  180.5450  144.2320 O   0  0  0  0  0  1  0  0  0  0  0  0
  187.3680  177.5420  145.1900 C   0  0  2  0  0  3  0  0  0  0  0  0
  185.4770  179.2770  144.8060 C   0  0  1  0  0  3  0  0  0  0  0  0
  186.5530  178.3680  144.1760 C   0  0  2  0  0  3  0  0  0  0  0  0
  185.9550  177.4930  143.0790 C   0  0  0  0  0  2  0  0  0  0  0  0
  184.4860  178.2830  141.5640 O   0  0  0  0  0  1  0  0  0  0  0  0
  184.5680  177.8590  142.8470 N   0  0  0  0  0  2  0  0  0  0  0  0
  190.7330  174.5970  144.8820 C   0  0  0  0  0  0  0  0  0  0  0  0
  190.2730  174.3020  145.9730 O   0  0  0  0  0  0  0  0  0  0  0  0
  191.1440  173.4770  143.9560 C   0  0  1  0  0  3  0  0  0  0  0  0
  191.1430  172.2470  144.6200 O   0  0  0  0  0  1  0  0  0  0  0  0
  190.3600  173.4430  142.6630 C   0  0  0  0  0  0  0  0  0  0  0  0
  188.1980  173.1020  140.3850 C   0  0  0  0  0  3  0  0  0  0  0  0
  190.9580  174.0950  141.4250 C   0  0  2  0  0  3  0  0  0  0  0  0
  189.0660  173.1080  142.7500 C   0  0  0  0  0  3  0  0  0  0  0  0
  190.6470  173.4850  140.1050 C   0  0  0  0  0  0  0  0  0  0  0  0
  192.5020  174.1830  141.3860 C   0  0  2  0  0  3  0  0  0  0  0  0
  189.4620  173.1020  139.6450 C   0  0  0  0  0  3  0  0  0  0  0  0
  192.8570  174.1220  139.9040 C   0  0  0  0  0  2  0  0  0  0  0  0
  193.0900  173.0730  141.9980 O   0  0  0  0  0  1  0  0  0  0  0  0
  191.7560  173.4830  139.2880 O   0  0  0  0  0  0  0  0  0  0  0  0
  188.0320  173.1070  141.7060 C   0  0  0  0  0  3  0  0  0  0  0  0
  192.3060  176.5760  144.8000 C   0  0  0  0  0  2  0  0  0  0  0  0
  193.0290  175.7860  145.8870 C   0  0  0  0  0  2  0  0  0  0  0  0
  194.4990  176.1650  145.9800 C   0  0  0  0  0  2  0  0  0  0  0  0
  194.5820  173.7790  145.3280 C   0  0  0  0  0  1  0  0  0  0  0  0
  195.3620  174.9200  145.9420 C   0  0  0  0  0  2  0  0  0  0  0  0
  1 31  1  1  0  0  0
  1 16  1  0  0  0  0
  1  3  1  0  0  0  0
  2  3  1  0  0  0  0
  3  4  2  0  0  0  0
  5  7  1  0  0  0  0
  6  8  1  0  0  0  0
  8  7  1  0  0  0  0
 10  2  1  6  0  0  0
 10  6  1  0  0  0  0
 11  9  1  6  0  0  0
 11  5  1  0  0  0  0
 12 13  1  6  0  0  0
 12 11  1  0  0  0  0
 12 10  1  0  0  0  0
 14 15  1  0  0  0  0
 15 13  1  0  0  0  0
 16 17  2  0  0  0  0
 18 19  1  1  0  0  0
 18 16  1  0  0  0  0
 20 23  2  0  0  0  0
 20 18  1  0  0  0  0
 21 30  2  0  0  0  0
 22 24  1  6  0  0  0
 22 20  1  0  0  0  0
 25 22  1  0  0  0  0
 25 28  1  1  0  0  0
 26 24  2  0  0  0  0
 26 21  1  0  0  0  0
 27 25  1  0  0  0  0
 29 27  1  0  0  0  0
 29 24  1  0  0  0  0
 30 23  1  0  0  0  0
 31 32  1  0  0  0  0
 32 33  1  0  0  0  0
 34 35  1  0  0  0  0
 35 33  1  0  0  0  0
M  END
>  <MODEL>
7

>  <REMARK>
 VINA RESULT:      -6.1      2.216      4.182
  Name = 
  11 active torsions:
  status: ('A' for Active; 'I' for Inactive)
    1  A    between atoms: C_3  and  C_11
    2  A    between atoms: N_8  and  C_13
    3  A    between atoms: N_10  and  C_24
    4  A    between atoms: C_11  and  C_16
    5  A    between atoms: C_13  and  C_32
    6  A    between atoms: C_15  and  C_18
    7  A    between atoms: C_16  and  C_18
    8  A    between atoms: C_18  and  C_27
    9  A    between atoms: C_23  and  C_27
   10  A    between atoms: C_23  and  C_34
   11  A    between atoms: C_26  and  C_34
                            x       y       z     vdW  Elec       q    Type
                         _______ _______ _______ _____ _____    ______ ____

>  <TORSDO>
F 11

$$$$
=
 OpenBabel11062422013D

 35 37  0  0  1  0  0  0  0  0999 V2000
  189.5870  174.5190  144.8800 C   0  0  2  0  0  3  0  0  0  0  0  0
  192.0780  174.8310  144.6290 N   0  0  0  0  0  2  0  0  0  0  0  0
  190.9660  173.9420  144.7410 C   0  0  0  0  0  0  0  0  0  0  0  0
  191.1490  172.6950  144.7540 O   0  0  0  0  0  0  0  0  0  0  0  0
  195.7930  172.8500  144.3610 C   0  0  0  0  0  2  0  0  0  0  0  0
  194.1610  174.9920  145.9180 C   0  0  0  0  0  2  0  0  0  0  0  0
  196.2530  173.5270  145.6590 C   0  0  0  0  0  2  0  0  0  0  0  0
  195.6900  174.9370  145.8690 C   0  0  0  0  0  2  0  0  0  0  0  0
  195.5910  173.1810  142.0060 O   0  0  0  0  0  1  0  0  0  0  0  0
  193.4550  174.3620  144.7030 C   0  0  2  0  0  3  0  0  0  0  0  0
  195.5280  173.8450  143.2300 C   0  0  1  0  0  3  0  0  0  0  0  0
  194.1660  174.5610  143.3500 C   0  0  2  0  0  3  0  0  0  0  0  0
  194.2890  176.0370  142.9830 C   0  0  0  0  0  2  0  0  0  0  0  0
  195.7160  176.8230  141.4260 O   0  0  0  0  0  1  0  0  0  0  0  0
  194.5330  176.1790  141.5580 N   0  0  0  0  0  2  0  0  0  0  0  0
  189.3790  175.6880  143.9510 C   0  0  0  0  0  0  0  0  0  0  0  0
  189.6810  175.5540  142.7760 O   0  0  0  0  0  0  0  0  0  0  0  0
  188.8460  177.0260  144.4020 C   0  0  1  0  0  3  0  0  0  0  0  0
  189.8010  178.0330  144.2280 O   0  0  0  0  0  1  0  0  0  0  0  0
  187.5070  177.3800  143.7950 C   0  0  0  0  0  0  0  0  0  0  0  0
  185.1140  178.3220  141.9580 C   0  0  0  0  0  3  0  0  0  0  0  0
  186.2380  176.9770  144.5300 C   0  0  2  0  0  3  0  0  0  0  0  0
  187.5080  177.7610  142.5110 C   0  0  0  0  0  3  0  0  0  0  0  0
  185.0570  177.8720  144.4120 C   0  0  0  0  0  0  0  0  0  0  0  0
  186.3690  176.8130  146.0640 C   0  0  2  0  0  3  0  0  0  0  0  0
  184.5510  178.4100  143.3080 C   0  0  0  0  0  3  0  0  0  0  0  0
  184.9900  177.1710  146.6100 C   0  0  0  0  0  2  0  0  0  0  0  0
  187.2750  177.7320  146.5970 O   0  0  0  0  0  1  0  0  0  0  0  0
  184.4010  177.9870  145.6170 O   0  0  0  0  0  0  0  0  0  0  0  0
  186.3730  178.0440  141.6220 C   0  0  0  0  0  3  0  0  0  0  0  0
  189.1770  174.8270  146.3210 C   0  0  0  0  0  2  0  0  0  0  0  0
  190.3750  175.1410  147.2140 C   0  0  0  0  0  2  0  0  0  0  0  0
  190.5450  176.6370  147.4280 C   0  0  0  0  0  2  0  0  0  0  0  0
  191.5490  177.8790  149.3190 C   0  0  0  0  0  1  0  0  0  0  0  0
  191.8270  176.9130  148.1880 C   0  0  0  0  0  2  0  0  0  0  0  0
  1 31  1  1  0  0  0
  2  3  1  0  0  0  0
  3  4  2  0  0  0  0
  3  1  1  0  0  0  0
  5  7  1  0  0  0  0
  7  8  1  0  0  0  0
  8  6  1  0  0  0  0
 10  2  1  6  0  0  0
 10  6  1  0  0  0  0
 11  9  1  6  0  0  0
 11 12  1  0  0  0  0
 11  5  1  0  0  0  0
 12 13  1  1  0  0  0
 12 10  1  0  0  0  0
 14 15  1  0  0  0  0
 15 13  1  0  0  0  0
 16 18  1  0  0  0  0
 16  1  1  0  0  0  0
 17 16  2  0  0  0  0
 18 19  1  6  0  0  0
 20 18  1  0  0  0  0
 21 26  1  0  0  0  0
 22 20  1  1  0  0  0
 22 25  1  0  0  0  0
 23 20  2  0  0  0  0
 24 22  1  0  0  0  0
 24 29  1  0  0  0  0
 25 28  1  1  0  0  0
 25 27  1  0  0  0  0
 26 24  2  0  0  0  0
 29 27  1  0  0  0  0
 30 21  2  0  0  0  0
 30 23  1  0  0  0  0
 31 32  1  0  0  0  0
 32 33  1  0  0  0  0
 33 35  1  0  0  0  0
 35 34  1  0  0  0  0
M  END
>  <MODEL>
8

>  <REMARK>
 VINA RESULT:      -6.1      2.462      8.788
  Name = 
  11 active torsions:
  status: ('A' for Active; 'I' for Inactive)
    1  A    between atoms: C_3  and  C_11
    2  A    between atoms: N_8  and  C_13
    3  A    between atoms: N_10  and  C_24
    4  A    between atoms: C_11  and  C_16
    5  A    between atoms: C_13  and  C_32
    6  A    between atoms: C_15  and  C_18
    7  A    between atoms: C_16  and  C_18
    8  A    between atoms: C_18  and  C_27
    9  A    between atoms: C_23  and  C_27
   10  A    between atoms: C_23  and  C_34
   11  A    between atoms: C_26  and  C_34
                            x       y       z     vdW  Elec       q    Type
                         _______ _______ _______ _____ _____    ______ ____

>  <TORSDO>
F 11

$$$$
=
 OpenBabel11062422013D

 35 37  0  0  1  0  0  0  0  0999 V2000
  189.6470  174.9720  142.3170 C   0  0  2  0  0  3  0  0  0  0  0  0
  191.4340  174.7230  144.0810 N   0  0  0  0  0  2  0  0  0  0  0  0
  190.9760  175.3680  142.8920 C   0  0  0  0  0  0  0  0  0  0  0  0
  191.6940  176.2330  142.3220 O   0  0  0  0  0  0  0  0  0  0  0  0
  195.2590  176.0150  145.3040 C   0  0  0  0  0  2  0  0  0  0  0  0
  193.5090  173.5330  144.6350 C   0  0  0  0  0  2  0  0  0  0  0  0
  195.7850  174.5780  145.1920 C   0  0  0  0  0  2  0  0  0  0  0  0
  194.7510  173.4990  145.5280 C   0  0  0  0  0  2  0  0  0  0  0  0
  194.0890  177.5090  146.7520 O   0  0  0  0  0  1  0  0  0  0  0  0
  192.7910  174.8940  144.5810 C   0  0  2  0  0  3  0  0  0  0  0  0
  194.1720  176.1720  146.3690 C   0  0  1  0  0  3  0  0  0  0  0  0
  192.7820  175.6890  145.9020 C   0  0  2  0  0  3  0  0  0  0  0  0
  192.0630  174.9340  147.0150 C   0  0  0  0  0  2  0  0  0  0  0  0
  191.5690  176.2420  148.7830 O   0  0  0  0  0  1  0  0  0  0  0  0
  191.0500  175.7820  147.6200 N   0  0  0  0  0  2  0  0  0  0  0  0
  188.7690  176.1730  142.0700 C   0  0  0  0  0  0  0  0  0  0  0  0
  188.0230  176.1550  141.1050 O   0  0  0  0  0  0  0  0  0  0  0  0
  188.7870  177.4100  142.9350 C   0  0  1  0  0  3  0  0  0  0  0  0
  189.3660  178.4890  142.2600 O   0  0  0  0  0  1  0  0  0  0  0  0
  187.4390  177.7510  143.5300 C   0  0  0  0  0  0  0  0  0  0  0  0
  184.5510  178.8620  144.1730 C   0  0  0  0  0  3  0  0  0  0  0  0
  186.9760  177.0060  144.7730 C   0  0  2  0  0  3  0  0  0  0  0  0
  186.6060  178.4700  142.7670 C   0  0  0  0  0  3  0  0  0  0  0  0
  186.1310  177.7450  145.7480 C   0  0  0  0  0  0  0  0  0  0  0  0
  188.0960  176.4390  145.6780 C   0  0  2  0  0  3  0  0  0  0  0  0
  185.0700  178.5020  145.4950 C   0  0  0  0  0  3  0  0  0  0  0  0
  187.5050  176.4580  147.0840 C   0  0  0  0  0  2  0  0  0  0  0  0
  189.2130  177.2790  145.6890 O   0  0  0  0  0  1  0  0  0  0  0  0
  186.4870  177.4390  147.0430 O   0  0  0  0  0  0  0  0  0  0  0  0
  185.2060  178.8460  143.0130 C   0  0  0  0  0  3  0  0  0  0  0  0
  188.9310  173.8660  143.0950 C   0  0  0  0  0  2  0  0  0  0  0  0
  188.4160  172.7530  142.1860 C   0  0  0  0  0  2  0  0  0  0  0  0
  189.1720  172.7030  140.8680 C   0  0  0  0  0  2  0  0  0  0  0  0
  188.5960  173.7580  138.7040 C   0  0  0  0  0  1  0  0  0  0  0  0
  188.1980  172.6970  139.7070 C   0  0  0  0  0  2  0  0  0  0  0  0
  1  3  1  0  0  0  0
  1 31  1  1  0  0  0
  3  2  1  0  0  0  0
  4  3  2  0  0  0  0
  5 11  1  0  0  0  0
  6  8  1  0  0  0  0
  7  5  1  0  0  0  0
  7  8  1  0  0  0  0
 10  2  1  1  0  0  0
 10  6  1  0  0  0  0
 10 12  1  0  0  0  0
 11  9  1  6  0  0  0
 12 11  1  0  0  0  0
 12 13  1  1  0  0  0
 13 15  1  0  0  0  0
 15 14  1  0  0  0  0
 16  1  1  0  0  0  0
 16 18  1  0  0  0  0
 17 16  2  0  0  0  0
 18 19  1  6  0  0  0
 18 20  1  0  0  0  0
 21 26  1  0  0  0  0
 22 20  1  6  0  0  0
 22 25  1  0  0  0  0
 22 24  1  0  0  0  0
 23 30  1  0  0  0  0
 23 20  2  0  0  0  0
 24 29  1  0  0  0  0
 25 28  1  1  0  0  0
 25 27  1  0  0  0  0
 26 24  2  0  0  0  0
 29 27  1  0  0  0  0
 30 21  2  0  0  0  0
 32 31  1  0  0  0  0
 33 32  1  0  0  0  0
 34 35  1  0  0  0  0
 35 33  1  0  0  0  0
M  END
>  <MODEL>
9

>  <REMARK>
 VINA RESULT:      -6.1      2.410      8.000
  Name = 
  11 active torsions:
  status: ('A' for Active; 'I' for Inactive)
    1  A    between atoms: C_3  and  C_11
    2  A    between atoms: N_8  and  C_13
    3  A    between atoms: N_10  and  C_24
    4  A    between atoms: C_11  and  C_16
    5  A    between atoms: C_13  and  C_32
    6  A    between atoms: C_15  and  C_18
    7  A    between atoms: C_16  and  C_18
    8  A    between atoms: C_18  and  C_27
    9  A    between atoms: C_23  and  C_27
   10  A    between atoms: C_23  and  C_34
   11  A    between atoms: C_26  and  C_34
                            x       y       z     vdW  Elec       q    Type
                         _______ _______ _______ _____ _____    ______ ____

>  <TORSDO>
F 11

$$$$
