=
 OpenBabel11062420143D

 25 29  0  0  1  0  0  0  0  0999 V2000
  191.2960  177.7010  144.1710 C   0  0  0  0  0  0  0  0  0  0  0  0
  191.1550  175.0910  146.5480 C   0  0  0  0  0  1  0  0  0  0  0  0
  189.5710  174.7620  143.0820 S   0  0  0  0  0  0  0  0  0  0  0  0
  189.6720  177.0760  145.7650 C   0  0  1  0  0  3  0  0  0  0  0  0
  189.8790  177.9460  144.5200 C   0  0  2  0  0  3  0  0  0  0  0  0
  188.2550  174.5070  141.8930 C   0  0  0  0  0  0  0  0  0  0  0  0
  191.9750  176.8670  145.0840 N   0  0  0  0  0  2  0  0  0  0  0  0
  191.8620  178.1890  143.1580 O   0  0  0  0  0  0  0  0  0  0  0  0
  188.6890  175.9710  145.3830 C   0  0  0  0  0  2  0  0  0  0  0  0
  188.5180  176.0190  143.8790 C   0  0  2  0  0  0  0  0  0  0  0  0
  187.1050  174.9970  142.2020 N   0  0  0  0  0  0  0  0  0  0  0  0
  187.0740  175.6720  143.4860 C   0  0  2  0  0  3  0  0  0  0  0  0
  191.0760  176.5650  146.1810 C   0  0  2  0  0  3  0  0  0  0  0  0
  188.9640  177.4030  143.4360 C   0  0  0  0  0  2  0  0  0  0  0  0
  185.5680  176.8220  146.0070 C   0  0  0  0  0  3  0  0  0  0  0  0
  184.7820  178.4920  142.3120 C   0  0  0  0  0  3  0  0  0  0  0  0
  184.6810  177.6410  146.7090 C   0  0  0  0  0  3  0  0  0  0  0  0
  185.7290  177.4460  142.3220 C   0  0  0  0  0  3  0  0  0  0  0  0
  186.0820  176.8060  143.5240 C   0  0  0  0  0  0  0  0  0  0  0  0
  184.1700  178.9110  143.5060 C   0  0  0  0  0  3  0  0  0  0  0  0
  185.4490  177.2450  144.6980 C   0  0  0  0  0  0  0  0  0  0  0  0
  184.5320  178.2570  144.6800 C   0  0  0  0  0  0  0  0  0  0  0  0
  184.0840  178.4840  145.8850 O   0  0  0  0  0  0  0  0  0  0  0  0
  188.4430  173.8560  140.6740 O   0  0  0  0  0  0  0  0  0  0  0  0
  189.1400  172.6250  140.5790 C   0  0  0  0  0  1  0  0  0  0  0  0
  1  5  1  0  0  0  0
  1  7  1  0  0  0  0
  3 10  1  0  0  0  0
  4  9  1  6  0  0  0
  4 13  1  0  0  0  0
  5 14  1  6  0  0  0
  5  4  1  0  0  0  0
  6 11  2  0  0  0  0
  6  3  1  0  0  0  0
  7 13  1  0  0  0  0
  8  1  2  0  0  0  0
 10 14  1  6  0  0  0
 10  9  1  0  0  0  0
 11 12  1  0  0  0  0
 12 19  1  6  0  0  0
 12 10  1  0  0  0  0
 13  2  1  6  0  0  0
 15 17  2  0  0  0  0
 16 18  2  0  0  0  0
 16 20  1  0  0  0  0
 18 19  1  0  0  0  0
 19 21  2  0  0  0  0
 20 22  2  0  0  0  0
 21 15  1  0  0  0  0
 22 21  1  0  0  0  0
 22 23  1  0  0  0  0
 23 17  1  0  0  0  0
 24  6  1  0  0  0  0
 25 24  1  0  0  0  0
M  END
>  <MODEL>
1

>  <REMARK>
 VINA RESULT:      -7.7      0.000      0.000
  Name = 
  2 active torsions:
  status: ('A' for Active; 'I' for Inactive)
    1  A    between atoms: O_2  and  C_13
    2  A    between atoms: C_12  and  C_22
                            x       y       z     vdW  Elec       q    Type
                         _______ _______ _______ _____ _____    ______ ____

>  <TORSDO>
F 2

$$$$
=
 OpenBabel11062420143D

 25 29  0  0  1  0  0  0  0  0999 V2000
  190.6740  173.2610  143.9630 C   0  0  0  0  0  0  0  0  0  0  0  0
  192.5720  175.6930  142.2420 C   0  0  0  0  0  1  0  0  0  0  0  0
  191.6290  176.0950  145.9270 S   0  0  0  0  0  0  0  0  0  0  0  0
  190.0840  175.2560  142.8500 C   0  0  1  0  0  3  0  0  0  0  0  0
  189.5440  174.2090  143.8300 C   0  0  2  0  0  3  0  0  0  0  0  0
  190.8870  176.8760  147.3590 C   0  0  0  0  0  0  0  0  0  0  0  0
  191.7760  173.5640  143.1360 N   0  0  0  0  0  2  0  0  0  0  0  0
  190.6660  172.2670  144.7360 O   0  0  0  0  0  0  0  0  0  0  0  0
  190.2180  176.5680  143.6220 C   0  0  0  0  0  2  0  0  0  0  0  0
  190.0180  176.2510  145.0890 C   0  0  2  0  0  0  0  0  0  0  0  0
  189.7570  177.4630  147.1660 N   0  0  0  0  0  0  0  0  0  0  0  0
  189.2820  177.3980  145.7970 C   0  0  2  0  0  3  0  0  0  0  0  0
  191.4230  174.6980  142.3050 C   0  0  2  0  0  3  0  0  0  0  0  0
  189.2890  174.9180  145.1490 C   0  0  0  0  0  2  0  0  0  0  0  0
  187.5010  178.2980  143.3540 C   0  0  0  0  0  3  0  0  0  0  0  0
  185.6180  176.9530  146.7750 C   0  0  0  0  0  3  0  0  0  0  0  0
  186.3230  178.5600  142.6530 C   0  0  0  0  0  3  0  0  0  0  0  0
  187.0280  176.9540  146.8130 C   0  0  0  0  0  3  0  0  0  0  0  0
  187.7780  177.3830  145.7030 C   0  0  0  0  0  0  0  0  0  0  0  0
  184.9350  177.3870  145.6260 C   0  0  0  0  0  3  0  0  0  0  0  0
  187.0660  177.8160  144.5730 C   0  0  0  0  0  0  0  0  0  0  0  0
  185.7000  177.8140  144.5430 C   0  0  0  0  0  0  0  0  0  0  0  0
  185.2710  178.2590  143.3940 O   0  0  0  0  0  0  0  0  0  0  0  0
  191.4530  176.8310  148.6330 O   0  0  0  0  0  0  0  0  0  0  0  0
  191.5120  177.9750  149.4690 C   0  0  0  0  0  1  0  0  0  0  0  0
  1  8  2  0  0  0  0
  3  6  1  0  0  0  0
  4  9  1  1  0  0  0
  4  5  1  0  0  0  0
  5  1  1  0  0  0  0
  5 14  1  1  0  0  0
  6 24  1  0  0  0  0
  7  1  1  0  0  0  0
 10  9  1  6  0  0  0
 10 14  1  0  0  0  0
 10 12  1  0  0  0  0
 10  3  1  0  0  0  0
 11  6  2  0  0  0  0
 12 19  1  1  0  0  0
 12 11  1  0  0  0  0
 13  2  1  1  0  0  0
 13  4  1  0  0  0  0
 13  7  1  0  0  0  0
 15 21  1  0  0  0  0
 16 18  1  0  0  0  0
 17 15  2  0  0  0  0
 17 23  1  0  0  0  0
 19 18  2  0  0  0  0
 20 16  2  0  0  0  0
 21 19  1  0  0  0  0
 22 21  2  0  0  0  0
 22 20  1  0  0  0  0
 23 22  1  0  0  0  0
 24 25  1  0  0  0  0
M  END
>  <MODEL>
2

>  <REMARK>
 VINA RESULT:      -7.3      2.649      4.759
  Name = 
  2 active torsions:
  status: ('A' for Active; 'I' for Inactive)
    1  A    between atoms: O_2  and  C_13
    2  A    between atoms: C_12  and  C_22
                            x       y       z     vdW  Elec       q    Type
                         _______ _______ _______ _____ _____    ______ ____

>  <TORSDO>
F 2

$$$$
=
 OpenBabel11062420143D

 25 29  0  0  1  0  0  0  0  0999 V2000
  191.5390  177.1470  144.6180 C   0  0  0  0  0  0  0  0  0  0  0  0
  190.0040  175.5520  147.3710 C   0  0  0  0  0  1  0  0  0  0  0  0
  189.8670  174.0810  143.8430 S   0  0  0  0  0  0  0  0  0  0  0  0
  189.3370  177.1880  145.4650 C   0  0  1  0  0  3  0  0  0  0  0  0
  190.1690  177.5530  144.2310 C   0  0  2  0  0  3  0  0  0  0  0  0
  189.0960  173.4720  142.3440 C   0  0  0  0  0  0  0  0  0  0  0  0
  191.6420  176.6640  145.9390 N   0  0  0  0  0  2  0  0  0  0  0  0
  192.5340  177.2240  143.8500 O   0  0  0  0  0  0  0  0  0  0  0  0
  188.3960  176.0560  145.0530 C   0  0  0  0  0  2  0  0  0  0  0  0
  188.8360  175.5760  143.6870 C   0  0  2  0  0  0  0  0  0  0  0  0
  188.0280  174.0820  141.9640 N   0  0  0  0  0  0  0  0  0  0  0  0
  187.6230  175.1680  142.8380 C   0  0  2  0  0  3  0  0  0  0  0  0
  190.3470  176.8040  146.5770 C   0  0  2  0  0  3  0  0  0  0  0  0
  189.6670  176.6970  143.0810 C   0  0  0  0  0  2  0  0  0  0  0  0
  185.4730  177.1730  143.9770 C   0  0  0  0  0  3  0  0  0  0  0  0
  186.5430  177.4840  140.0010 C   0  0  0  0  0  3  0  0  0  0  0  0
  184.5440  178.2150  143.9430 C   0  0  0  0  0  3  0  0  0  0  0  0
  187.2000  176.4740  140.7340 C   0  0  0  0  0  3  0  0  0  0  0  0
  186.9230  176.2790  142.0990 C   0  0  0  0  0  0  0  0  0  0  0  0
  185.5930  178.3130  140.6220 C   0  0  0  0  0  3  0  0  0  0  0  0
  185.9650  177.1200  142.6890 C   0  0  0  0  0  0  0  0  0  0  0  0
  185.3310  178.0950  141.9720 C   0  0  0  0  0  0  0  0  0  0  0  0
  184.4890  178.7410  142.7310 O   0  0  0  0  0  0  0  0  0  0  0  0
  189.6220  172.4260  141.5860 O   0  0  0  0  0  0  0  0  0  0  0  0
  190.4000  171.3930  142.1690 C   0  0  0  0  0  1  0  0  0  0  0  0
  1  7  1  0  0  0  0
  4  9  1  6  0  0  0
  4 13  1  0  0  0  0
  5 14  1  6  0  0  0
  5  1  1  0  0  0  0
  5  4  1  0  0  0  0
  6  3  1  0  0  0  0
  7 13  1  0  0  0  0
  8  1  2  0  0  0  0
 10 14  1  6  0  0  0
 10  3  1  0  0  0  0
 10  9  1  0  0  0  0
 11  6  2  0  0  0  0
 11 12  1  0  0  0  0
 12 19  1  6  0  0  0
 12 10  1  0  0  0  0
 13  2  1  6  0  0  0
 16 20  2  0  0  0  0
 16 18  1  0  0  0  0
 17 15  2  0  0  0  0
 18 19  2  0  0  0  0
 19 21  1  0  0  0  0
 20 22  1  0  0  0  0
 21 15  1  0  0  0  0
 22 21  2  0  0  0  0
 22 23  1  0  0  0  0
 23 17  1  0  0  0  0
 24 25  1  0  0  0  0
 24  6  1  0  0  0  0
M  END
>  <MODEL>
3

>  <REMARK>
 VINA RESULT:      -7.3      1.468      1.873
  Name = 
  2 active torsions:
  status: ('A' for Active; 'I' for Inactive)
    1  A    between atoms: O_2  and  C_13
    2  A    between atoms: C_12  and  C_22
                            x       y       z     vdW  Elec       q    Type
                         _______ _______ _______ _____ _____    ______ ____

>  <TORSDO>
F 2

$$$$
=
 OpenBabel11062420143D

 25 29  0  0  1  0  0  0  0  0999 V2000
  191.9260  176.9510  144.5100 C   0  0  0  0  0  0  0  0  0  0  0  0
  191.6880  173.4430  144.8500 C   0  0  0  0  0  1  0  0  0  0  0  0
  189.3250  175.4240  142.5870 S   0  0  0  0  0  0  0  0  0  0  0  0
  190.6050  175.5660  145.8890 C   0  0  1  0  0  3  0  0  0  0  0  0
  190.7320  177.0060  145.3830 C   0  0  2  0  0  3  0  0  0  0  0  0
  187.7510  176.0350  141.9860 C   0  0  0  0  0  0  0  0  0  0  0  0
  192.5660  175.6950  144.4930 N   0  0  0  0  0  2  0  0  0  0  0  0
  192.3490  177.9300  143.8400 O   0  0  0  0  0  0  0  0  0  0  0  0
  189.3180  174.9920  145.2970 C   0  0  0  0  0  2  0  0  0  0  0  0
  188.8260  175.9720  144.2530 C   0  0  2  0  0  0  0  0  0  0  0  0
  186.8600  176.2910  142.8790 N   0  0  0  0  0  0  0  0  0  0  0  0
  187.2910  176.0250  144.2390 C   0  0  2  0  0  3  0  0  0  0  0  0
  191.8950  174.8290  145.4430 C   0  0  2  0  0  3  0  0  0  0  0  0
  189.4890  177.3050  144.5620 C   0  0  0  0  0  2  0  0  0  0  0  0
  186.0110  178.8560  143.7060 C   0  0  0  0  0  3  0  0  0  0  0  0
  186.0420  177.4070  147.5720 C   0  0  0  0  0  3  0  0  0  0  0  0
  185.3880  180.0640  144.0260 C   0  0  0  0  0  3  0  0  0  0  0  0
  186.6090  176.5600  146.5970 C   0  0  0  0  0  3  0  0  0  0  0  0
  186.6470  176.9450  145.2450 C   0  0  0  0  0  0  0  0  0  0  0  0
  185.5080  178.6550  147.2100 C   0  0  0  0  0  3  0  0  0  0  0  0
  186.1110  178.2000  144.9160 C   0  0  0  0  0  0  0  0  0  0  0  0
  185.5650  179.0150  145.8660 C   0  0  0  0  0  0  0  0  0  0  0  0
  185.1370  180.1220  145.3220 O   0  0  0  0  0  0  0  0  0  0  0  0
  187.4890  176.2710  140.6360 O   0  0  0  0  0  0  0  0  0  0  0  0
  186.7190  177.3820  140.2050 C   0  0  0  0  0  1  0  0  0  0  0  0
  1  5  1  0  0  0  0
  3 10  1  0  0  0  0
  4  9  1  6  0  0  0
  5 14  1  6  0  0  0
  5  4  1  0  0  0  0
  6  3  1  0  0  0  0
  6 11  2  0  0  0  0
  7  1  1  0  0  0  0
  7 13  1  0  0  0  0
  8  1  2  0  0  0  0
 10 14  1  1  0  0  0
 10  9  1  0  0  0  0
 11 12  1  0  0  0  0
 12 10  1  0  0  0  0
 12 19  1  1  0  0  0
 13  2  1  6  0  0  0
 13  4  1  0  0  0  0
 15 17  2  0  0  0  0
 15 21  1  0  0  0  0
 17 23  1  0  0  0  0
 18 16  2  0  0  0  0
 19 18  1  0  0  0  0
 20 16  1  0  0  0  0
 21 19  2  0  0  0  0
 21 22  1  0  0  0  0
 22 20  2  0  0  0  0
 23 22  1  0  0  0  0
 24  6  1  0  0  0  0
 25 24  1  0  0  0  0
M  END
>  <MODEL>
4

>  <REMARK>
 VINA RESULT:      -7.2      1.601      2.571
  Name = 
  2 active torsions:
  status: ('A' for Active; 'I' for Inactive)
    1  A    between atoms: O_2  and  C_13
    2  A    between atoms: C_12  and  C_22
                            x       y       z     vdW  Elec       q    Type
                         _______ _______ _______ _____ _____    ______ ____

>  <TORSDO>
F 2

$$$$
=
 OpenBabel11062420143D

 25 29  0  0  1  0  0  0  0  0999 V2000
  190.4540  172.1410  143.2910 C   0  0  0  0  0  0  0  0  0  0  0  0
  190.6790  173.5520  140.0600 C   0  0  0  0  0  1  0  0  0  0  0  0
  191.8650  175.4260  143.1770 S   0  0  0  0  0  0  0  0  0  0  0  0
  189.0410  173.5890  142.0770 C   0  0  1  0  0  3  0  0  0  0  0  0
  189.3030  173.0510  143.4880 C   0  0  2  0  0  3  0  0  0  0  0  0
  191.9170  176.7590  144.3730 C   0  0  0  0  0  0  0  0  0  0  0  0
  190.8560  172.0080  141.9450 N   0  0  0  0  0  2  0  0  0  0  0  0
  191.0300  171.5280  144.2280 O   0  0  0  0  0  0  0  0  0  0  0  0
  189.3660  175.0820  142.0970 C   0  0  0  0  0  2  0  0  0  0  0  0
  190.0580  175.3760  143.4110 C   0  0  2  0  0  0  0  0  0  0  0  0
  190.7910  177.3150  144.6560 N   0  0  0  0  0  0  0  0  0  0  0  0
  189.6600  176.7630  143.9350 C   0  0  2  0  0  3  0  0  0  0  0  0
  189.9290  172.7560  141.1180 C   0  0  2  0  0  3  0  0  0  0  0  0
  189.7050  174.2340  144.3520 C   0  0  0  0  0  2  0  0  0  0  0  0
  186.7750  177.4250  142.8480 C   0  0  0  0  0  3  0  0  0  0  0  0
  187.2390  176.7060  146.8880 C   0  0  0  0  0  3  0  0  0  0  0  0
  185.4010  177.6630  142.9160 C   0  0  0  0  0  3  0  0  0  0  0  0
  188.4140  176.6180  146.1120 C   0  0  0  0  0  3  0  0  0  0  0  0
  188.3770  176.8350  144.7230 C   0  0  0  0  0  0  0  0  0  0  0  0
  186.0080  177.0180  146.2860 C   0  0  0  0  0  3  0  0  0  0  0  0
  187.1330  177.1500  144.1530 C   0  0  0  0  0  0  0  0  0  0  0  0
  185.9990  177.2350  144.9110 C   0  0  0  0  0  0  0  0  0  0  0  0
  184.9750  177.5410  144.1620 O   0  0  0  0  0  0  0  0  0  0  0  0
  193.0890  177.1660  145.0130 O   0  0  0  0  0  0  0  0  0  0  0  0
  193.6340  176.4480  146.1080 C   0  0  0  0  0  1  0  0  0  0  0  0
  1  5  1  0  0  0  0
  1  8  2  0  0  0  0
  3 10  1  0  0  0  0
  3  6  1  0  0  0  0
  4  9  1  1  0  0  0
  4  5  1  0  0  0  0
  5 14  1  1  0  0  0
  6 11  2  0  0  0  0
  6 24  1  0  0  0  0
  7  1  1  0  0  0  0
 10  9  1  6  0  0  0
 10 12  1  0  0  0  0
 10 14  1  0  0  0  0
 12 11  1  0  0  0  0
 12 19  1  1  0  0  0
 13  2  1  6  0  0  0
 13  7  1  0  0  0  0
 13  4  1  0  0  0  0
 15 17  2  0  0  0  0
 15 21  1  0  0  0  0
 17 23  1  0  0  0  0
 18 16  2  0  0  0  0
 19 18  1  0  0  0  0
 20 16  1  0  0  0  0
 21 19  2  0  0  0  0
 21 22  1  0  0  0  0
 22 20  2  0  0  0  0
 23 22  1  0  0  0  0
 24 25  1  0  0  0  0
M  END
>  <MODEL>
5

>  <REMARK>
 VINA RESULT:      -6.9      2.148      4.771
  Name = 
  2 active torsions:
  status: ('A' for Active; 'I' for Inactive)
    1  A    between atoms: O_2  and  C_13
    2  A    between atoms: C_12  and  C_22
                            x       y       z     vdW  Elec       q    Type
                         _______ _______ _______ _____ _____    ______ ____

>  <TORSDO>
F 2

$$$$
=
 OpenBabel11062420143D

 25 29  0  0  1  0  0  0  0  0999 V2000
  192.7280  176.4900  143.2130 C   0  0  0  0  0  0  0  0  0  0  0  0
  192.5330  174.2280  145.9200 C   0  0  0  0  0  1  0  0  0  0  0  0
  190.2590  173.9260  142.8590 S   0  0  0  0  0  0  0  0  0  0  0  0
  191.3610  176.4110  145.1340 C   0  0  1  0  0  3  0  0  0  0  0  0
  191.4890  177.0840  143.7630 C   0  0  2  0  0  3  0  0  0  0  0  0
  188.7090  173.8600  141.9620 C   0  0  0  0  0  0  0  0  0  0  0  0
  193.3900  175.6190  144.1030 N   0  0  0  0  0  2  0  0  0  0  0  0
  193.1690  176.7350  142.0590 O   0  0  0  0  0  0  0  0  0  0  0  0
  190.1170  175.5240  145.0850 C   0  0  0  0  0  2  0  0  0  0  0  0
  189.6640  175.4610  143.6420 C   0  0  2  0  0  0  0  0  0  0  0  0
  187.7680  174.6260  142.3920 N   0  0  0  0  0  0  0  0  0  0  0  0
  188.1310  175.4130  143.5560 C   0  0  2  0  0  3  0  0  0  0  0  0
  192.6840  175.6390  145.3690 C   0  0  2  0  0  3  0  0  0  0  0  0
  190.2860  176.6580  142.9390 C   0  0  0  0  0  2  0  0  0  0  0  0
  187.0060  176.8950  146.1010 C   0  0  0  0  0  3  0  0  0  0  0  0
  186.4870  178.6620  142.4050 C   0  0  0  0  0  3  0  0  0  0  0  0
  186.3490  177.8980  146.8170 C   0  0  0  0  0  3  0  0  0  0  0  0
  187.1760  177.4310  142.4040 C   0  0  0  0  0  3  0  0  0  0  0  0
  187.4190  176.7410  143.6050 C   0  0  0  0  0  0  0  0  0  0  0  0
  186.0250  179.2200  143.6090 C   0  0  0  0  0  3  0  0  0  0  0  0
  186.9400  177.3210  144.7900 C   0  0  0  0  0  0  0  0  0  0  0  0
  186.2720  178.5130  144.7840 C   0  0  0  0  0  0  0  0  0  0  0  0
  185.9260  178.8460  145.9980 O   0  0  0  0  0  0  0  0  0  0  0  0
  188.5150  173.0660  140.8310 O   0  0  0  0  0  0  0  0  0  0  0  0
  189.5750  172.7530  139.9420 C   0  0  0  0  0  1  0  0  0  0  0  0
  1  5  1  0  0  0  0
  1  7  1  0  0  0  0
  3 10  1  0  0  0  0
  4  9  1  6  0  0  0
  4 13  1  0  0  0  0
  5 14  1  6  0  0  0
  5  4  1  0  0  0  0
  6 11  2  0  0  0  0
  6  3  1  0  0  0  0
  7 13  1  0  0  0  0
  8  1  2  0  0  0  0
 10 14  1  6  0  0  0
 10  9  1  0  0  0  0
 11 12  1  0  0  0  0
 12 19  1  6  0  0  0
 12 10  1  0  0  0  0
 13  2  1  6  0  0  0
 15 17  2  0  0  0  0
 16 20  1  0  0  0  0
 18 16  2  0  0  0  0
 18 19  1  0  0  0  0
 19 21  2  0  0  0  0
 20 22  2  0  0  0  0
 21 15  1  0  0  0  0
 22 21  1  0  0  0  0
 22 23  1  0  0  0  0
 23 17  1  0  0  0  0
 24  6  1  0  0  0  0
 25 24  1  0  0  0  0
M  END
>  <MODEL>
6

>  <REMARK>
 VINA RESULT:      -6.9      1.496      1.605
  Name = 
  2 active torsions:
  status: ('A' for Active; 'I' for Inactive)
    1  A    between atoms: O_2  and  C_13
    2  A    between atoms: C_12  and  C_22
                            x       y       z     vdW  Elec       q    Type
                         _______ _______ _______ _____ _____    ______ ____

>  <TORSDO>
F 2

$$$$
=
 OpenBabel11062420143D

 25 29  0  0  1  0  0  0  0  0999 V2000
  189.5540  172.8870  143.0040 C   0  0  0  0  0  0  0  0  0  0  0  0
  192.2120  174.5410  141.3660 C   0  0  0  0  0  1  0  0  0  0  0  0
  191.0590  175.5410  144.8730 S   0  0  0  0  0  0  0  0  0  0  0  0
  189.6520  174.8470  141.6940 C   0  0  1  0  0  3  0  0  0  0  0  0
  188.7500  174.0850  142.6700 C   0  0  2  0  0  3  0  0  0  0  0  0
  190.4250  176.6290  146.1470 C   0  0  0  0  0  0  0  0  0  0  0  0
  190.7720  172.8010  142.2980 N   0  0  0  0  0  2  0  0  0  0  0  0
  189.1950  172.0130  143.8350 O   0  0  0  0  0  0  0  0  0  0  0  0
  190.0680  176.1450  142.3860 C   0  0  0  0  0  2  0  0  0  0  0  0
  189.6450  176.0390  143.8360 C   0  0  2  0  0  0  0  0  0  0  0  0
  189.5270  177.4760  145.7790 N   0  0  0  0  0  0  0  0  0  0  0  0
  189.1890  177.4060  144.3700 C   0  0  2  0  0  3  0  0  0  0  0  0
  190.8310  173.9000  141.3550 C   0  0  2  0  0  3  0  0  0  0  0  0
  188.5720  174.9620  143.8970 C   0  0  0  0  0  2  0  0  0  0  0  0
  186.7190  177.1010  146.3050 C   0  0  0  0  0  3  0  0  0  0  0  0
  186.0840  178.6530  142.5310 C   0  0  0  0  0  3  0  0  0  0  0  0
  185.3810  177.1690  146.6990 C   0  0  0  0  0  3  0  0  0  0  0  0
  187.4180  178.3150  142.8370 C   0  0  0  0  0  3  0  0  0  0  0  0
  187.7570  177.7850  144.0950 C   0  0  0  0  0  0  0  0  0  0  0  0
  185.0640  178.4630  143.4800 C   0  0  0  0  0  3  0  0  0  0  0  0
  186.7150  177.6010  145.0180 C   0  0  0  0  0  0  0  0  0  0  0  0
  185.4240  177.9300  144.7150 C   0  0  0  0  0  0  0  0  0  0  0  0
  184.6400  177.6690  145.7250 O   0  0  0  0  0  0  0  0  0  0  0  0
  190.8280  176.5600  147.4810 O   0  0  0  0  0  0  0  0  0  0  0  0
  191.1930  175.3330  148.0920 C   0  0  0  0  0  1  0  0  0  0  0  0
  1  8  2  0  0  0  0
  3  6  1  0  0  0  0
  4  9  1  1  0  0  0
  4  5  1  0  0  0  0
  5  1  1  0  0  0  0
  5 14  1  1  0  0  0
  6 24  1  0  0  0  0
  7  1  1  0  0  0  0
 10  9  1  6  0  0  0
 10 14  1  0  0  0  0
 10 12  1  0  0  0  0
 10  3  1  0  0  0  0
 11  6  2  0  0  0  0
 12 19  1  1  0  0  0
 12 11  1  0  0  0  0
 13  2  1  1  0  0  0
 13  4  1  0  0  0  0
 13  7  1  0  0  0  0
 15 17  2  0  0  0  0
 16 18  2  0  0  0  0
 16 20  1  0  0  0  0
 18 19  1  0  0  0  0
 19 21  2  0  0  0  0
 20 22  2  0  0  0  0
 21 15  1  0  0  0  0
 22 21  1  0  0  0  0
 22 23  1  0  0  0  0
 23 17  1  0  0  0  0
 24 25  1  0  0  0  0
M  END
>  <MODEL>
7

>  <REMARK>
 VINA RESULT:      -6.6      2.178      4.137
  Name = 
  2 active torsions:
  status: ('A' for Active; 'I' for Inactive)
    1  A    between atoms: O_2  and  C_13
    2  A    between atoms: C_12  and  C_22
                            x       y       z     vdW  Elec       q    Type
                         _______ _______ _______ _____ _____    ______ ____

>  <TORSDO>
F 2

$$$$
=
 OpenBabel11062420143D

 25 29  0  0  1  0  0  0  0  0999 V2000
  195.6940  176.0170  144.3280 C   0  0  0  0  0  0  0  0  0  0  0  0
  195.6580  172.6780  145.4800 C   0  0  0  0  0  1  0  0  0  0  0  0
  193.6720  173.7800  142.4030 S   0  0  0  0  0  0  0  0  0  0  0  0
  194.2250  174.8300  145.7430 C   0  0  1  0  0  3  0  0  0  0  0  0
  194.3440  176.1220  144.9260 C   0  0  2  0  0  3  0  0  0  0  0  0
  192.2160  174.0380  141.3910 C   0  0  0  0  0  0  0  0  0  0  0  0
  196.4180  174.8790  144.7420 N   0  0  0  0  0  2  0  0  0  0  0  0
  196.1710  176.8610  143.5250 O   0  0  0  0  0  0  0  0  0  0  0  0
  193.1370  173.9820  145.0860 C   0  0  0  0  0  2  0  0  0  0  0  0
  192.7990  174.6280  143.7600 C   0  0  2  0  0  0  0  0  0  0  0  0
  191.1420  174.3800  142.0140 N   0  0  0  0  0  0  0  0  0  0  0  0
  191.3010  174.4860  143.4530 C   0  0  2  0  0  3  0  0  0  0  0  0
  195.6320  174.1770  145.7380 C   0  0  2  0  0  3  0  0  0  0  0  0
  193.2800  176.0680  143.8440 C   0  0  0  0  0  2  0  0  0  0  0  0
  189.8060  174.3400  146.2260 C   0  0  0  0  0  3  0  0  0  0  0  0
  189.2590  177.6860  143.8690 C   0  0  0  0  0  3  0  0  0  0  0  0
  188.9620  174.7650  147.2530 C   0  0  0  0  0  3  0  0  0  0  0  0
  190.1250  176.7040  143.3450 C   0  0  0  0  0  3  0  0  0  0  0  0
  190.3940  175.5250  144.0630 C   0  0  0  0  0  0  0  0  0  0  0  0
  188.6430  177.5010  145.1180 C   0  0  0  0  0  3  0  0  0  0  0  0
  189.7590  175.3670  145.3050 C   0  0  0  0  0  0  0  0  0  0  0  0
  188.9200  176.3220  145.8050 C   0  0  0  0  0  0  0  0  0  0  0  0
  188.4530  175.9510  146.9670 O   0  0  0  0  0  0  0  0  0  0  0  0
  192.2220  173.9260  140.0000 O   0  0  0  0  0  0  0  0  0  0  0  0
  191.1190  173.3920  139.2860 C   0  0  0  0  0  1  0  0  0  0  0  0
  1  7  1  0  0  0  0
  1  5  1  0  0  0  0
  3 10  1  0  0  0  0
  4  9  1  6  0  0  0
  5 14  1  6  0  0  0
  5  4  1  0  0  0  0
  6 11  2  0  0  0  0
  6  3  1  0  0  0  0
  7 13  1  0  0  0  0
  8  1  2  0  0  0  0
 10 14  1  1  0  0  0
 10  9  1  0  0  0  0
 11 12  1  0  0  0  0
 12 10  1  0  0  0  0
 12 19  1  6  0  0  0
 13  2  1  6  0  0  0
 13  4  1  0  0  0  0
 15 17  2  0  0  0  0
 16 20  1  0  0  0  0
 18 16  2  0  0  0  0
 18 19  1  0  0  0  0
 19 21  2  0  0  0  0
 20 22  2  0  0  0  0
 21 22  1  0  0  0  0
 21 15  1  0  0  0  0
 22 23  1  0  0  0  0
 23 17  1  0  0  0  0
 24  6  1  0  0  0  0
 25 24  1  0  0  0  0
M  END
>  <MODEL>
8

>  <REMARK>
 VINA RESULT:      -6.5      3.369      4.644
  Name = 
  2 active torsions:
  status: ('A' for Active; 'I' for Inactive)
    1  A    between atoms: O_2  and  C_13
    2  A    between atoms: C_12  and  C_22
                            x       y       z     vdW  Elec       q    Type
                         _______ _______ _______ _____ _____    ______ ____

>  <TORSDO>
F 2

$$$$
=
 OpenBabel11062420143D

 25 29  0  0  1  0  0  0  0  0999 V2000
  190.0280  171.3640  141.7230 C   0  0  0  0  0  0  0  0  0  0  0  0
  189.6700  173.6770  139.0770 C   0  0  0  0  0  1  0  0  0  0  0  0
  192.1600  174.2300  141.9270 S   0  0  0  0  0  0  0  0  0  0  0  0
  188.7580  173.3380  141.4870 C   0  0  1  0  0  3  0  0  0  0  0  0
  189.2670  172.3420  142.5330 C   0  0  2  0  0  3  0  0  0  0  0  0
  192.9070  175.0810  143.3160 C   0  0  0  0  0  0  0  0  0  0  0  0
  189.9720  171.6040  140.3340 N   0  0  0  0  0  2  0  0  0  0  0  0
  190.6690  170.3970  142.2130 O   0  0  0  0  0  0  0  0  0  0  0  0
  189.4570  174.6700  141.7560 C   0  0  0  0  0  2  0  0  0  0  0  0
  190.5520  174.4090  142.7680 C   0  0  2  0  0  0  0  0  0  0  0  0
  192.1010  175.6970  144.1080 N   0  0  0  0  0  0  0  0  0  0  0  0
  190.7050  175.6010  143.7240 C   0  0  2  0  0  3  0  0  0  0  0  0
  189.0770  172.7200  140.1010 C   0  0  2  0  0  3  0  0  0  0  0  0
  190.2000  173.1010  143.4610 C   0  0  0  0  0  2  0  0  0  0  0  0
  188.0900  177.3310  144.0660 C   0  0  0  0  0  3  0  0  0  0  0  0
  189.2340  174.8570  147.1680 C   0  0  0  0  0  3  0  0  0  0  0  0
  186.9610  177.8360  144.7130 C   0  0  0  0  0  3  0  0  0  0  0  0
  190.0660  174.8350  146.0290 C   0  0  0  0  0  3  0  0  0  0  0  0
  189.7720  175.6300  144.9070 C   0  0  0  0  0  0  0  0  0  0  0  0
  188.0960  175.6800  147.2040 C   0  0  0  0  0  3  0  0  0  0  0  0
  188.6310  176.4450  144.9770 C   0  0  0  0  0  0  0  0  0  0  0  0
  187.8300  176.4630  146.0840 C   0  0  0  0  0  0  0  0  0  0  0  0
  186.8390  177.2940  145.9130 O   0  0  0  0  0  0  0  0  0  0  0  0
  194.2780  175.0610  143.5760 O   0  0  0  0  0  0  0  0  0  0  0  0
  194.9310  176.1280  144.2440 C   0  0  0  0  0  1  0  0  0  0  0  0
  1  8  2  0  0  0  0
  1  5  1  0  0  0  0
  3 10  1  0  0  0  0
  3  6  1  0  0  0  0
  4  9  1  1  0  0  0
  4  5  1  0  0  0  0
  5 14  1  1  0  0  0
  6 24  1  0  0  0  0
  6 11  2  0  0  0  0
  7  1  1  0  0  0  0
 10  9  1  6  0  0  0
 10 14  1  0  0  0  0
 10 12  1  0  0  0  0
 12 11  1  0  0  0  0
 12 19  1  1  0  0  0
 13  2  1  6  0  0  0
 13  7  1  0  0  0  0
 13  4  1  0  0  0  0
 15 17  2  0  0  0  0
 15 21  1  0  0  0  0
 16 20  1  0  0  0  0
 17 23  1  0  0  0  0
 18 16  2  0  0  0  0
 19 21  2  0  0  0  0
 19 18  1  0  0  0  0
 21 22  1  0  0  0  0
 22 20  2  0  0  0  0
 23 22  1  0  0  0  0
 24 25  1  0  0  0  0
M  END
>  <MODEL>
9

>  <REMARK>
 VINA RESULT:      -6.4      2.512      5.582
  Name = 
  2 active torsions:
  status: ('A' for Active; 'I' for Inactive)
    1  A    between atoms: O_2  and  C_13
    2  A    between atoms: C_12  and  C_22
                            x       y       z     vdW  Elec       q    Type
                         _______ _______ _______ _____ _____    ______ ____

>  <TORSDO>
F 2

$$$$
