=
 OpenBabel11072408333D

 26 28  0  0  1  0  0  0  0  0999 V2000
  187.0260  177.1400  146.6100 C   0  0  2  0  0  3  0  0  0  0  0  0
  186.1380  178.8670  143.5970 N   0  0  0  0  0  0  0  0  0  0  0  0
  185.4380  177.7290  143.4370 C   0  0  0  0  0  0  0  0  0  0  0  0
  185.6020  176.8730  144.5090 C   0  0  0  0  0  3  0  0  0  0  0  0
  184.6380  177.4370  142.2900 N   0  0  0  0  0  2  0  0  0  0  0  0
  186.7420  178.7560  144.7400 O   0  0  0  0  0  0  0  0  0  0  0  0
  186.4570  177.6080  145.3110 C   0  0  0  0  0  0  0  0  0  0  0  0
  185.5050  177.9080  140.0560 C   0  0  0  0  0  1  0  0  0  0  0  0
  184.5460  178.3430  141.1530 C   0  0  1  0  0  3  0  0  0  0  0  0
  182.2120  178.2070  141.6590 O   0  0  0  0  0  1  0  0  0  0  0  0
  183.1200  178.3890  140.6160 C   0  0  0  0  0  3  0  0  0  0  0  0
  182.9210  177.4050  139.6460 O   0  0  0  0  0  1  0  0  0  0  0  0
  186.6640  178.1130  147.7200 C   0  0  0  0  0  2  0  0  0  0  0  0
  185.2970  178.3910  147.6840 O   0  0  0  0  0  1  0  0  0  0  0  0
  188.5410  177.0060  146.5000 C   0  0  0  0  0  2  0  0  0  0  0  0
  188.8910  175.6650  146.0430 N   0  0  0  0  0  0  0  0  0  0  0  0
  189.5580  175.0620  147.1210 N   0  0  0  0  0  1  0  0  0  0  0  0
  188.3630  176.5330  141.6580 N   0  0  0  0  0  0  0  0  0  0  0  0
  190.6520  177.0560  145.0050 C   0  0  0  0  0  3  0  0  0  0  0  0
  189.8380  175.7610  144.9200 C   0  0  2  0  0  3  0  0  0  0  0  0
  188.4600  174.7020  143.1180 N   0  0  0  0  0  0  0  0  0  0  0  0
  190.5830  178.0730  144.1230 C   0  0  0  0  0  3  0  0  0  0  0  0
  187.9100  175.1470  141.8300 C   0  0  0  0  0  2  0  0  0  0  0  0
  189.0350  176.8080  142.7180 C   0  0  0  0  0  0  0  0  0  0  0  0
  189.7480  178.0130  142.9570 N   0  0  0  0  0  2  0  0  0  0  0  0
  189.1060  175.7040  143.6030 C   0  0  0  0  0  0  0  0  0  0  0  0
  1 15  1  6  0  0  0
  1 13  1  0  0  0  0
  2  6  1  0  0  0  0
  3  2  2  0  0  0  0
  3  4  1  0  0  0  0
  4  7  2  0  0  0  0
  5  3  1  0  0  0  0
  6  7  1  0  0  0  0
  7  1  1  0  0  0  0
  9  8  1  6  0  0  0
  9  5  1  0  0  0  0
 11  9  1  0  0  0  0
 11 10  1  0  0  0  0
 12 11  1  0  0  0  0
 14 13  1  0  0  0  0
 16 15  1  0  0  0  0
 16 17  1  0  0  0  0
 18 23  1  0  0  0  0
 18 24  2  0  0  0  0
 20 19  1  0  0  0  0
 20 16  1  1  0  0  0
 21 26  2  0  0  0  0
 22 19  2  0  0  0  0
 23 21  1  0  0  0  0
 24 25  1  0  0  0  0
 24 26  1  0  0  0  0
 25 22  1  0  0  0  0
 26 20  1  0  0  0  0
M  END
>  <MODEL>
1

>  <REMARK>
 VINA RESULT:      -6.2      0.000      0.000
  Name = 
  7 active torsions:
  status: ('A' for Active; 'I' for Inactive)
    1  A    between atoms: C_2  and  C_10
    2  A    between atoms: C_2  and  N_15
    3  A    between atoms: C_7  and  C_10
    4  A    between atoms: C_8  and  N_15
    5  A    between atoms: C_9  and  CA_26
    6  A    between atoms: C_10  and  C_25
    7  A    between atoms: N_19  and  CA_26
                            x       y       z     vdW  Elec       q    Type
                         _______ _______ _______ _____ _____    ______ ____

>  <TORSDO>
F 7

$$$$
=
 OpenBabel11072408333D

 26 28  0  0  1  0  0  0  0  0999 V2000
  189.1240  175.0730  142.2260 C   0  0  2  0  0  3  0  0  0  0  0  0
  185.9380  176.3040  143.3150 N   0  0  0  0  0  0  0  0  0  0  0  0
  186.7530  176.9670  144.1570 C   0  0  0  0  0  0  0  0  0  0  0  0
  188.0810  176.6690  143.9220 C   0  0  0  0  0  3  0  0  0  0  0  0
  186.2960  177.8540  145.1790 N   0  0  0  0  0  2  0  0  0  0  0  0
  186.7140  175.5940  142.5540 O   0  0  0  0  0  0  0  0  0  0  0  0
  187.9750  175.7770  142.8710 C   0  0  0  0  0  0  0  0  0  0  0  0
  184.6430  178.3130  146.9160 C   0  0  0  0  0  1  0  0  0  0  0  0
  184.8800  178.0880  145.4320 C   0  0  1  0  0  3  0  0  0  0  0  0
  183.6680  178.8500  143.5150 O   0  0  0  0  0  1  0  0  0  0  0  0
  184.3810  179.2860  144.6330 C   0  0  0  0  0  3  0  0  0  0  0  0
  185.4470  180.0900  144.2230 O   0  0  0  0  0  1  0  0  0  0  0  0
  188.6900  174.4740  140.8980 C   0  0  0  0  0  2  0  0  0  0  0  0
  188.7760  173.0820  140.9500 O   0  0  0  0  0  1  0  0  0  0  0  0
  189.6530  173.9810  143.1480 C   0  0  0  0  0  2  0  0  0  0  0  0
  190.9950  174.3230  143.6070 N   0  0  0  0  0  0  0  0  0  0  0  0
  191.8680  173.5430  142.8330 N   0  0  0  0  0  1  0  0  0  0  0  0
  192.3950  176.5100  147.2840 N   0  0  0  0  0  0  0  0  0  0  0  0
  189.7870  173.7900  145.6980 C   0  0  0  0  0  3  0  0  0  0  0  0
  191.1520  173.9180  145.0140 C   0  0  2  0  0  3  0  0  0  0  0  0
  193.2540  175.1560  145.5750 N   0  0  0  0  0  0  0  0  0  0  0  0
  189.3460  174.5760  146.7000 C   0  0  0  0  0  3  0  0  0  0  0  0
  193.6180  176.2150  146.5270 C   0  0  0  0  0  2  0  0  0  0  0  0
  191.4920  175.7420  146.7890 C   0  0  0  0  0  0  0  0  0  0  0  0
  190.1620  175.6100  147.2700 N   0  0  0  0  0  2  0  0  0  0  0  0
  192.0050  174.9140  145.7600 C   0  0  0  0  0  0  0  0  0  0  0  0
  1 13  1  6  0  0  0
  1  7  1  0  0  0  0
  1 15  1  0  0  0  0
  2  3  2  0  0  0  0
  3  5  1  0  0  0  0
  4  3  1  0  0  0  0
  5  9  1  0  0  0  0
  6  7  1  0  0  0  0
  6  2  1  0  0  0  0
  7  4  2  0  0  0  0
  9  8  1  1  0  0  0
 10 11  1  0  0  0  0
 11  9  1  0  0  0  0
 12 11  1  0  0  0  0
 13 14  1  0  0  0  0
 15 16  1  0  0  0  0
 17 16  1  0  0  0  0
 19 22  2  0  0  0  0
 20 16  1  6  0  0  0
 20 19  1  0  0  0  0
 20 26  1  0  0  0  0
 21 26  2  0  0  0  0
 21 23  1  0  0  0  0
 22 25  1  0  0  0  0
 23 18  1  0  0  0  0
 24 25  1  0  0  0  0
 24 18  2  0  0  0  0
 26 24  1  0  0  0  0
M  END
>  <MODEL>
2

>  <REMARK>
 VINA RESULT:      -5.8      2.718      4.995
  Name = 
  7 active torsions:
  status: ('A' for Active; 'I' for Inactive)
    1  A    between atoms: C_2  and  C_10
    2  A    between atoms: C_2  and  N_15
    3  A    between atoms: C_7  and  C_10
    4  A    between atoms: C_8  and  N_15
    5  A    between atoms: C_9  and  CA_26
    6  A    between atoms: C_10  and  C_25
    7  A    between atoms: N_19  and  CA_26
                            x       y       z     vdW  Elec       q    Type
                         _______ _______ _______ _____ _____    ______ ____

>  <TORSDO>
F 7

$$$$
=
 OpenBabel11072408333D

 26 28  0  0  1  0  0  0  0  0999 V2000
  190.9060  175.3870  146.9090 C   0  0  2  0  0  3  0  0  0  0  0  0
  187.3720  175.9720  146.7860 N   0  0  0  0  0  0  0  0  0  0  0  0
  187.8260  177.1320  146.2760 C   0  0  0  0  0  0  0  0  0  0  0  0
  189.2040  177.1500  146.1970 C   0  0  0  0  0  3  0  0  0  0  0  0
  186.9830  178.2150  145.8800 N   0  0  0  0  0  2  0  0  0  0  0  0
  188.4250  175.2560  147.0360 O   0  0  0  0  0  0  0  0  0  0  0  0
  189.5200  175.9030  146.7050 C   0  0  0  0  0  0  0  0  0  0  0  0
  185.1410  178.7590  147.3880 C   0  0  0  0  0  1  0  0  0  0  0  0
  185.5350  178.1750  146.0420 C   0  0  1  0  0  3  0  0  0  0  0  0
  184.5220  178.0660  143.8770 O   0  0  0  0  0  1  0  0  0  0  0  0
  184.8470  178.9390  144.9160 C   0  0  0  0  0  3  0  0  0  0  0  0
  185.6690  179.9580  144.4300 O   0  0  0  0  0  1  0  0  0  0  0  0
  191.7620  176.4410  147.5930 C   0  0  0  0  0  2  0  0  0  0  0  0
  192.9070  176.6910  146.8360 O   0  0  0  0  0  1  0  0  0  0  0  0
  191.5210  174.9960  145.5700 C   0  0  0  0  0  2  0  0  0  0  0  0
  190.5110  174.3760  144.7190 N   0  0  0  0  0  0  0  0  0  0  0  0
  190.8520  173.0160  144.6590 N   0  0  0  0  0  1  0  0  0  0  0  0
  187.8750  177.1440  142.3410 N   0  0  0  0  0  0  0  0  0  0  0  0
  191.6880  176.0130  143.2880 C   0  0  0  0  0  3  0  0  0  0  0  0
  190.6090  174.9280  143.3580 C   0  0  2  0  0  3  0  0  0  0  0  0
  188.1950  174.8500  142.6990 N   0  0  0  0  0  0  0  0  0  0  0  0
  191.4590  177.3200  143.0510 C   0  0  0  0  0  3  0  0  0  0  0  0
  187.1850  175.8480  142.3200 C   0  0  0  0  0  2  0  0  0  0  0  0
  189.0780  176.8860  142.7100 C   0  0  0  0  0  0  0  0  0  0  0  0
  190.1410  177.8240  142.7850 N   0  0  0  0  0  2  0  0  0  0  0  0
  189.2830  175.5000  142.9210 C   0  0  0  0  0  0  0  0  0  0  0  0
  1 15  1  6  0  0  0
  1 13  1  0  0  0  0
  2  6  1  0  0  0  0
  3  2  2  0  0  0  0
  4  3  1  0  0  0  0
  4  7  2  0  0  0  0
  5  9  1  0  0  0  0
  5  3  1  0  0  0  0
  7  1  1  0  0  0  0
  7  6  1  0  0  0  0
  9  8  1  1  0  0  0
 10 11  1  0  0  0  0
 11  9  1  0  0  0  0
 12 11  1  0  0  0  0
 14 13  1  0  0  0  0
 16 15  1  0  0  0  0
 17 16  1  0  0  0  0
 18 24  2  0  0  0  0
 19 20  1  0  0  0  0
 20 16  1  1  0  0  0
 21 26  2  0  0  0  0
 22 19  2  0  0  0  0
 23 18  1  0  0  0  0
 23 21  1  0  0  0  0
 24 25  1  0  0  0  0
 24 26  1  0  0  0  0
 25 22  1  0  0  0  0
 26 20  1  0  0  0  0
M  END
>  <MODEL>
3

>  <REMARK>
 VINA RESULT:      -5.8      2.384      3.957
  Name = 
  7 active torsions:
  status: ('A' for Active; 'I' for Inactive)
    1  A    between atoms: C_2  and  C_10
    2  A    between atoms: C_2  and  N_15
    3  A    between atoms: C_7  and  C_10
    4  A    between atoms: C_8  and  N_15
    5  A    between atoms: C_9  and  CA_26
    6  A    between atoms: C_10  and  C_25
    7  A    between atoms: N_19  and  CA_26
                            x       y       z     vdW  Elec       q    Type
                         _______ _______ _______ _____ _____    ______ ____

>  <TORSDO>
F 7

$$$$
=
 OpenBabel11072408333D

 26 28  0  0  1  0  0  0  0  0999 V2000
  189.4350  177.6270  145.2640 C   0  0  2  0  0  3  0  0  0  0  0  0
  192.7400  176.2470  145.4090 N   0  0  0  0  0  0  0  0  0  0  0  0
  192.6760  176.5800  144.1070 C   0  0  0  0  0  0  0  0  0  0  0  0
  191.4670  177.1670  143.7890 C   0  0  0  0  0  3  0  0  0  0  0  0
  193.7240  176.3370  143.1670 N   0  0  0  0  0  2  0  0  0  0  0  0
  191.6050  176.6060  145.9250 O   0  0  0  0  0  0  0  0  0  0  0  0
  190.8290  177.1510  145.0160 C   0  0  0  0  0  0  0  0  0  0  0  0
  194.8240  174.1600  143.2910 C   0  0  0  0  0  1  0  0  0  0  0  0
  194.9580  175.6540  143.5350 C   0  0  1  0  0  3  0  0  0  0  0  0
  196.8150  177.1630  143.5090 O   0  0  0  0  0  1  0  0  0  0  0  0
  196.1370  176.2120  142.7450 C   0  0  0  0  0  3  0  0  0  0  0  0
  195.7060  176.7930  141.5500 O   0  0  0  0  0  1  0  0  0  0  0  0
  188.8250  176.8710  146.4330 C   0  0  0  0  0  2  0  0  0  0  0  0
  188.1310  177.7530  147.2620 O   0  0  0  0  0  1  0  0  0  0  0  0
  188.5870  177.4360  144.0120 C   0  0  0  0  0  2  0  0  0  0  0  0
  187.7250  176.2680  144.1670 N   0  0  0  0  0  0  0  0  0  0  0  0
  188.2530  175.2930  143.3060 N   0  0  0  0  0  1  0  0  0  0  0  0
  184.5400  179.0370  145.7300 N   0  0  0  0  0  0  0  0  0  0  0  0
  186.4180  177.4770  142.4510 C   0  0  0  0  0  3  0  0  0  0  0  0
  186.3670  176.5950  143.7020 C   0  0  2  0  0  3  0  0  0  0  0  0
  185.2060  176.7980  145.9120 N   0  0  0  0  0  0  0  0  0  0  0  0
  185.9950  178.7550  142.3860 C   0  0  0  0  0  3  0  0  0  0  0  0
  184.5090  177.8750  146.6270 C   0  0  0  0  0  2  0  0  0  0  0  0
  185.1900  178.6510  144.6910 C   0  0  0  0  0  0  0  0  0  0  0  0
  185.3930  179.4140  143.5110 N   0  0  0  0  0  2  0  0  0  0  0  0
  185.5900  177.2960  144.7890 C   0  0  0  0  0  0  0  0  0  0  0  0
  1 15  1  6  0  0  0
  1 13  1  0  0  0  0
  2  6  1  0  0  0  0
  3  2  2  0  0  0  0
  4  3  1  0  0  0  0
  4  7  2  0  0  0  0
  5  9  1  0  0  0  0
  5  3  1  0  0  0  0
  7  1  1  0  0  0  0
  7  6  1  0  0  0  0
  9  8  1  6  0  0  0
 11 10  1  0  0  0  0
 11  9  1  0  0  0  0
 12 11  1  0  0  0  0
 13 14  1  0  0  0  0
 15 16  1  0  0  0  0
 17 16  1  0  0  0  0
 18 23  1  0  0  0  0
 19 20  1  0  0  0  0
 20 16  1  1  0  0  0
 20 26  1  0  0  0  0
 21 23  1  0  0  0  0
 22 19  2  0  0  0  0
 22 25  1  0  0  0  0
 24 26  1  0  0  0  0
 24 18  2  0  0  0  0
 25 24  1  0  0  0  0
 26 21  2  0  0  0  0
M  END
>  <MODEL>
4

>  <REMARK>
 VINA RESULT:      -5.8      3.956      7.207
  Name = 
  7 active torsions:
  status: ('A' for Active; 'I' for Inactive)
    1  A    between atoms: C_2  and  C_10
    2  A    between atoms: C_2  and  N_15
    3  A    between atoms: C_7  and  C_10
    4  A    between atoms: C_8  and  N_15
    5  A    between atoms: C_9  and  CA_26
    6  A    between atoms: C_10  and  C_25
    7  A    between atoms: N_19  and  CA_26
                            x       y       z     vdW  Elec       q    Type
                         _______ _______ _______ _____ _____    ______ ____

>  <TORSDO>
F 7

$$$$
=
 OpenBabel11072408333D

 26 28  0  0  1  0  0  0  0  0999 V2000
  186.9230  177.4420  146.0750 C   0  0  2  0  0  3  0  0  0  0  0  0
  189.6980  175.2130  146.4990 N   0  0  0  0  0  0  0  0  0  0  0  0
  190.3420  176.3940  146.4570 C   0  0  0  0  0  0  0  0  0  0  0  0
  189.4640  177.4500  146.3130 C   0  0  0  0  0  3  0  0  0  0  0  0
  191.7610  176.5330  146.5340 N   0  0  0  0  0  2  0  0  0  0  0  0
  188.4360  175.4920  146.3840 O   0  0  0  0  0  0  0  0  0  0  0  0
  188.2510  176.7880  146.2740 C   0  0  0  0  0  0  0  0  0  0  0  0
  192.3360  174.3880  145.5180 C   0  0  0  0  0  1  0  0  0  0  0  0
  192.6540  175.3840  146.6210 C   0  0  1  0  0  3  0  0  0  0  0  0
  194.2240  177.1690  146.8850 O   0  0  0  0  0  1  0  0  0  0  0  0
  194.1100  175.8250  146.5270 C   0  0  0  0  0  3  0  0  0  0  0  0
  194.6030  175.6430  145.2330 O   0  0  0  0  0  1  0  0  0  0  0  0
  185.9180  176.9030  147.0800 C   0  0  0  0  0  2  0  0  0  0  0  0
  184.6680  177.4830  146.8640 O   0  0  0  0  0  1  0  0  0  0  0  0
  186.4290  177.2010  144.6530 C   0  0  0  0  0  2  0  0  0  0  0  0
  186.9790  178.2110  143.7550 N   0  0  0  0  0  0  0  0  0  0  0  0
  185.8860  178.9970  143.3570 N   0  0  0  0  0  1  0  0  0  0  0  0
  190.8860  176.1400  142.9160 N   0  0  0  0  0  0  0  0  0  0  0  0
  186.8430  176.2080  142.3120 C   0  0  0  0  0  3  0  0  0  0  0  0
  187.5270  177.5570  142.5570 C   0  0  2  0  0  3  0  0  0  0  0  0
  189.9200  178.2690  142.7480 N   0  0  0  0  0  0  0  0  0  0  0  0
  187.4480  175.0070  142.3930 C   0  0  0  0  0  3  0  0  0  0  0  0
  191.2050  177.5730  142.9090 C   0  0  0  0  0  2  0  0  0  0  0  0
  189.6080  176.0720  142.8070 C   0  0  0  0  0  0  0  0  0  0  0  0
  188.8490  174.8790  142.6770 N   0  0  0  0  0  2  0  0  0  0  0  0
  189.0160  177.3550  142.6980 C   0  0  0  0  0  0  0  0  0  0  0  0
  1 15  1  6  0  0  0
  1  7  1  0  0  0  0
  1 13  1  0  0  0  0
  3  2  2  0  0  0  0
  3  5  1  0  0  0  0
  4  3  1  0  0  0  0
  5  9  1  0  0  0  0
  6  2  1  0  0  0  0
  7  4  2  0  0  0  0
  7  6  1  0  0  0  0
  9  8  1  6  0  0  0
 11  9  1  0  0  0  0
 11 10  1  0  0  0  0
 12 11  1  0  0  0  0
 14 13  1  0  0  0  0
 16 15  1  0  0  0  0
 17 16  1  0  0  0  0
 19 22  2  0  0  0  0
 19 20  1  0  0  0  0
 20 26  1  0  0  0  0
 20 16  1  1  0  0  0
 21 23  1  0  0  0  0
 22 25  1  0  0  0  0
 23 18  1  0  0  0  0
 24 18  2  0  0  0  0
 25 24  1  0  0  0  0
 26 21  2  0  0  0  0
 26 24  1  0  0  0  0
M  END
>  <MODEL>
5

>  <REMARK>
 VINA RESULT:      -5.6      2.886      6.396
  Name = 
  7 active torsions:
  status: ('A' for Active; 'I' for Inactive)
    1  A    between atoms: C_2  and  C_10
    2  A    between atoms: C_2  and  N_15
    3  A    between atoms: C_7  and  C_10
    4  A    between atoms: C_8  and  N_15
    5  A    between atoms: C_9  and  CA_26
    6  A    between atoms: C_10  and  C_25
    7  A    between atoms: N_19  and  CA_26
                            x       y       z     vdW  Elec       q    Type
                         _______ _______ _______ _____ _____    ______ ____

>  <TORSDO>
F 7

$$$$
=
 OpenBabel11072408333D

 26 28  0  0  1  0  0  0  0  0999 V2000
  187.1920  177.9010  146.4860 C   0  0  2  0  0  3  0  0  0  0  0  0
  189.9220  175.6640  147.1140 N   0  0  0  0  0  0  0  0  0  0  0  0
  190.5170  176.5430  146.2860 C   0  0  0  0  0  0  0  0  0  0  0  0
  189.6520  177.5480  145.9010 C   0  0  0  0  0  3  0  0  0  0  0  0
  191.8710  176.4360  145.8460 N   0  0  0  0  0  2  0  0  0  0  0  0
  188.7030  176.0850  147.2630 O   0  0  0  0  0  0  0  0  0  0  0  0
  188.5000  177.1840  146.5750 C   0  0  0  0  0  0  0  0  0  0  0  0
  192.7400  174.2680  145.1300 C   0  0  0  0  0  1  0  0  0  0  0  0
  192.7290  175.3200  146.2270 C   0  0  1  0  0  3  0  0  0  0  0  0
  194.1270  177.1450  146.8870 O   0  0  0  0  0  1  0  0  0  0  0  0
  194.1470  175.8030  146.5060 C   0  0  0  0  0  3  0  0  0  0  0  0
  194.9570  175.6500  145.3780 O   0  0  0  0  0  1  0  0  0  0  0  0
  186.6600  178.1920  147.8800 C   0  0  0  0  0  2  0  0  0  0  0  0
  185.2660  178.1300  147.8810 O   0  0  0  0  0  1  0  0  0  0  0  0
  186.1880  177.0640  145.7020 C   0  0  0  0  0  2  0  0  0  0  0  0
  185.8130  177.7550  144.4730 N   0  0  0  0  0  0  0  0  0  0  0  0
  184.5030  178.2140  144.6840 N   0  0  0  0  0  1  0  0  0  0  0  0
  185.4860  178.2540  140.0120 N   0  0  0  0  0  0  0  0  0  0  0  0
  187.1740  176.1990  143.1170 C   0  0  0  0  0  3  0  0  0  0  0  0
  185.7830  176.7950  143.3580 C   0  0  2  0  0  3  0  0  0  0  0  0
  184.1080  177.9230  141.8780 N   0  0  0  0  0  0  0  0  0  0  0  0
  187.9200  176.3950  142.0120 C   0  0  0  0  0  3  0  0  0  0  0  0
  184.1290  178.4890  140.5220 C   0  0  0  0  0  2  0  0  0  0  0  0
  186.1160  177.6730  140.9680 C   0  0  0  0  0  0  0  0  0  0  0  0
  187.4420  177.1680  140.9000 N   0  0  0  0  0  2  0  0  0  0  0  0
  185.2880  177.4610  142.0980 C   0  0  0  0  0  0  0  0  0  0  0  0
  1 15  1  6  0  0  0
  1  7  1  0  0  0  0
  1 13  1  0  0  0  0
  2  6  1  0  0  0  0
  3  2  2  0  0  0  0
  4  3  1  0  0  0  0
  4  7  2  0  0  0  0
  5  9  1  0  0  0  0
  5  3  1  0  0  0  0
  7  6  1  0  0  0  0
  9  8  1  6  0  0  0
  9 11  1  0  0  0  0
 11 10  1  0  0  0  0
 12 11  1  0  0  0  0
 13 14  1  0  0  0  0
 16 17  1  0  0  0  0
 16 15  1  0  0  0  0
 18 23  1  0  0  0  0
 18 24  2  0  0  0  0
 19 20  1  0  0  0  0
 20 16  1  1  0  0  0
 21 26  2  0  0  0  0
 22 19  2  0  0  0  0
 23 21  1  0  0  0  0
 24 26  1  0  0  0  0
 25 24  1  0  0  0  0
 25 22  1  0  0  0  0
 26 20  1  0  0  0  0
M  END
>  <MODEL>
6

>  <REMARK>
 VINA RESULT:      -5.6      2.984      6.556
  Name = 
  7 active torsions:
  status: ('A' for Active; 'I' for Inactive)
    1  A    between atoms: C_2  and  C_10
    2  A    between atoms: C_2  and  N_15
    3  A    between atoms: C_7  and  C_10
    4  A    between atoms: C_8  and  N_15
    5  A    between atoms: C_9  and  CA_26
    6  A    between atoms: C_10  and  C_25
    7  A    between atoms: N_19  and  CA_26
                            x       y       z     vdW  Elec       q    Type
                         _______ _______ _______ _____ _____    ______ ____

>  <TORSDO>
F 7

$$$$
=
 OpenBabel11072408333D

 26 28  0  0  1  0  0  0  0  0999 V2000
  189.6750  177.5310  144.9200 C   0  0  2  0  0  3  0  0  0  0  0  0
  192.5570  176.5350  143.0370 N   0  0  0  0  0  0  0  0  0  0  0  0
  193.0080  176.3350  144.2900 C   0  0  0  0  0  0  0  0  0  0  0  0
  192.0450  176.6380  145.2320 C   0  0  0  0  0  3  0  0  0  0  0  0
  194.3250  175.8820  144.6020 N   0  0  0  0  0  2  0  0  0  0  0  0
  191.3370  176.9580  143.1610 O   0  0  0  0  0  0  0  0  0  0  0  0
  190.9930  177.0330  144.4260 C   0  0  0  0  0  0  0  0  0  0  0  0
  196.3190  176.7880  143.5220 C   0  0  0  0  0  1  0  0  0  0  0  0
  195.3290  175.6360  143.5750 C   0  0  1  0  0  3  0  0  0  0  0  0
  195.1760  173.3810  144.3580 O   0  0  0  0  0  1  0  0  0  0  0  0
  196.0630  174.3260  143.8420 C   0  0  0  0  0  3  0  0  0  0  0  0
  197.1150  174.5180  144.7400 O   0  0  0  0  0  1  0  0  0  0  0  0
  189.2310  176.7240  146.1300 C   0  0  0  0  0  2  0  0  0  0  0  0
  188.7840  177.5780  147.1370 O   0  0  0  0  0  1  0  0  0  0  0  0
  188.6310  177.4380  143.8130 C   0  0  0  0  0  2  0  0  0  0  0  0
  187.8090  176.2470  144.0010 N   0  0  0  0  0  0  0  0  0  0  0  0
  188.2350  175.3370  143.0200 N   0  0  0  0  0  1  0  0  0  0  0  0
  184.8850  179.0360  145.9830 N   0  0  0  0  0  0  0  0  0  0  0  0
  186.2740  177.4500  142.4810 C   0  0  0  0  0  3  0  0  0  0  0  0
  186.4000  176.5750  143.7320 C   0  0  2  0  0  3  0  0  0  0  0  0
  185.5650  176.7950  146.0820 N   0  0  0  0  0  0  0  0  0  0  0  0
  185.8500  178.7290  142.4690 C   0  0  0  0  0  3  0  0  0  0  0  0
  184.9790  177.8790  146.8830 C   0  0  0  0  0  2  0  0  0  0  0  0
  185.3800  178.6410  144.8660 C   0  0  0  0  0  0  0  0  0  0  0  0
  185.4150  179.3970  143.6630 N   0  0  0  0  0  2  0  0  0  0  0  0
  185.7870  177.2850  144.9140 C   0  0  0  0  0  0  0  0  0  0  0  0
  1 15  1  6  0  0  0
  1 13  1  0  0  0  0
  2  6  1  0  0  0  0
  2  3  2  0  0  0  0
  3  5  1  0  0  0  0
  3  4  1  0  0  0  0
  6  7  1  0  0  0  0
  7  1  1  0  0  0  0
  7  4  2  0  0  0  0
  9  8  1  1  0  0  0
  9 11  1  0  0  0  0
  9  5  1  0  0  0  0
 11 10  1  0  0  0  0
 11 12  1  0  0  0  0
 13 14  1  0  0  0  0
 15 16  1  0  0  0  0
 17 16  1  0  0  0  0
 18 23  1  0  0  0  0
 19 20  1  0  0  0  0
 20 16  1  1  0  0  0
 20 26  1  0  0  0  0
 21 23  1  0  0  0  0
 22 19  2  0  0  0  0
 22 25  1  0  0  0  0
 24 26  1  0  0  0  0
 24 18  2  0  0  0  0
 25 24  1  0  0  0  0
 26 21  2  0  0  0  0
M  END
>  <MODEL>
7

>  <REMARK>
 VINA RESULT:      -5.5      4.150      7.536
  Name = 
  7 active torsions:
  status: ('A' for Active; 'I' for Inactive)
    1  A    between atoms: C_2  and  C_10
    2  A    between atoms: C_2  and  N_15
    3  A    between atoms: C_7  and  C_10
    4  A    between atoms: C_8  and  N_15
    5  A    between atoms: C_9  and  CA_26
    6  A    between atoms: C_10  and  C_25
    7  A    between atoms: N_19  and  CA_26
                            x       y       z     vdW  Elec       q    Type
                         _______ _______ _______ _____ _____    ______ ____

>  <TORSDO>
F 7

$$$$
=
 OpenBabel11072408333D

 26 28  0  0  1  0  0  0  0  0999 V2000
  190.5140  175.7620  144.1030 C   0  0  2  0  0  3  0  0  0  0  0  0
  186.9990  176.4220  143.8710 N   0  0  0  0  0  0  0  0  0  0  0  0
  187.3440  177.2910  144.8390 C   0  0  0  0  0  0  0  0  0  0  0  0
  188.6970  177.2440  145.1100 C   0  0  0  0  0  3  0  0  0  0  0  0
  186.4180  178.1440  145.5140 N   0  0  0  0  0  2  0  0  0  0  0  0
  188.0960  175.8230  143.5230 O   0  0  0  0  0  0  0  0  0  0  0  0
  189.1160  176.2730  144.2180 C   0  0  0  0  0  0  0  0  0  0  0  0
  184.2010  178.2830  146.5290 C   0  0  0  0  0  1  0  0  0  0  0  0
  184.9870  178.1140  145.2390 C   0  0  1  0  0  3  0  0  0  0  0  0
  184.4980  178.6660  142.9630 O   0  0  0  0  0  1  0  0  0  0  0  0
  184.6060  179.2060  144.2460 C   0  0  0  0  0  3  0  0  0  0  0  0
  185.5560  180.2300  144.2430 O   0  0  0  0  0  1  0  0  0  0  0  0
  190.5110  174.2440  144.0160 C   0  0  0  0  0  2  0  0  0  0  0  0
  191.3260  173.8230  142.9660 O   0  0  0  0  0  1  0  0  0  0  0  0
  191.3400  176.2190  145.3000 C   0  0  0  0  0  2  0  0  0  0  0  0
  191.6100  175.0880  146.1810 N   0  0  0  0  0  0  0  0  0  0  0  0
  190.9020  175.3540  147.3640 N   0  0  0  0  0  1  0  0  0  0  0  0
  195.2540  173.8320  143.8560 N   0  0  0  0  0  0  0  0  0  0  0  0
  193.6320  176.4680  146.5270 C   0  0  0  0  0  3  0  0  0  0  0  0
  193.0440  175.0530  146.5100 C   0  0  2  0  0  3  0  0  0  0  0  0
  193.6890  172.9300  145.3500 N   0  0  0  0  0  0  0  0  0  0  0  0
  194.5540  176.9350  145.6620 C   0  0  0  0  0  3  0  0  0  0  0  0
  194.6050  172.5770  144.2560 C   0  0  0  0  0  2  0  0  0  0  0  0
  194.7370  174.7390  144.6040 C   0  0  0  0  0  0  0  0  0  0  0  0
  195.1250  176.1050  144.6390 N   0  0  0  0  0  2  0  0  0  0  0  0
  193.7950  174.2010  145.5160 C   0  0  0  0  0  0  0  0  0  0  0  0
  1 13  1  1  0  0  0
  1  7  1  0  0  0  0
  1 15  1  0  0  0  0
  2  3  2  0  0  0  0
  3  4  1  0  0  0  0
  3  5  1  0  0  0  0
  6  2  1  0  0  0  0
  6  7  1  0  0  0  0
  7  4  2  0  0  0  0
  9  5  1  0  0  0  0
  9  8  1  1  0  0  0
 10 11  1  0  0  0  0
 11  9  1  0  0  0  0
 12 11  1  0  0  0  0
 14 13  1  0  0  0  0
 15 16  1  0  0  0  0
 16 17  1  0  0  0  0
 18 23  1  0  0  0  0
 18 24  2  0  0  0  0
 20 16  1  6  0  0  0
 20 19  1  0  0  0  0
 21 26  2  0  0  0  0
 22 19  2  0  0  0  0
 23 21  1  0  0  0  0
 24 25  1  0  0  0  0
 24 26  1  0  0  0  0
 25 22  1  0  0  0  0
 26 20  1  0  0  0  0
M  END
>  <MODEL>
8

>  <REMARK>
 VINA RESULT:      -5.5      3.557      4.968
  Name = 
  7 active torsions:
  status: ('A' for Active; 'I' for Inactive)
    1  A    between atoms: C_2  and  C_10
    2  A    between atoms: C_2  and  N_15
    3  A    between atoms: C_7  and  C_10
    4  A    between atoms: C_8  and  N_15
    5  A    between atoms: C_9  and  CA_26
    6  A    between atoms: C_10  and  C_25
    7  A    between atoms: N_19  and  CA_26
                            x       y       z     vdW  Elec       q    Type
                         _______ _______ _______ _____ _____    ______ ____

>  <TORSDO>
F 7

$$$$
=
 OpenBabel11072408333D

 26 28  0  0  1  0  0  0  0  0999 V2000
  190.7620  175.2980  142.7090 C   0  0  2  0  0  3  0  0  0  0  0  0
  188.4160  177.9170  142.0120 N   0  0  0  0  0  0  0  0  0  0  0  0
  187.5720  176.9040  142.2810 C   0  0  0  0  0  0  0  0  0  0  0  0
  188.2510  175.7470  142.6090 C   0  0  0  0  0  3  0  0  0  0  0  0
  186.1490  177.0100  142.2180 N   0  0  0  0  0  2  0  0  0  0  0  0
  189.6110  177.4330  142.1580 O   0  0  0  0  0  0  0  0  0  0  0  0
  189.5650  176.1690  142.5080 C   0  0  0  0  0  0  0  0  0  0  0  0
  184.9800  178.1040  140.3730 C   0  0  0  0  0  1  0  0  0  0  0  0
  185.4770  178.2360  141.8040 C   0  0  1  0  0  3  0  0  0  0  0  0
  184.5240  177.9550  143.9800 O   0  0  0  0  0  1  0  0  0  0  0  0
  184.3130  178.5520  142.7370 C   0  0  0  0  0  3  0  0  0  0  0  0
  183.1060  178.0990  142.2000 O   0  0  0  0  0  1  0  0  0  0  0  0
  190.4390  173.8660  142.3130 C   0  0  0  0  0  2  0  0  0  0  0  0
  190.6820  173.0080  143.3850 O   0  0  0  0  0  1  0  0  0  0  0  0
  191.2120  175.3540  144.1640 C   0  0  0  0  0  2  0  0  0  0  0  0
  191.6010  176.7160  144.5150 N   0  0  0  0  0  0  0  0  0  0  0  0
  193.0000  176.7470  144.4080 N   0  0  0  0  0  1  0  0  0  0  0  0
  187.8800  175.9590  146.9320 N   0  0  0  0  0  0  0  0  0  0  0  0
  191.9670  176.0060  146.8550 C   0  0  0  0  0  3  0  0  0  0  0  0
  191.2480  176.9820  145.9180 C   0  0  2  0  0  3  0  0  0  0  0  0
  188.8520  177.6480  145.6290 N   0  0  0  0  0  0  0  0  0  0  0  0
  191.3620  175.0660  147.6080 C   0  0  0  0  0  3  0  0  0  0  0  0
  187.5600  177.1220  146.0930 C   0  0  0  0  0  2  0  0  0  0  0  0
  189.1590  175.8540  146.8980 C   0  0  0  0  0  0  0  0  0  0  0  0
  189.9340  174.9220  147.6400 N   0  0  0  0  0  2  0  0  0  0  0  0
  189.7560  176.8760  146.1190 C   0  0  0  0  0  0  0  0  0  0  0  0
  1 13  1  1  0  0  0
  1 15  1  0  0  0  0
  2  6  1  0  0  0  0
  2  3  2  0  0  0  0
  3  4  1  0  0  0  0
  5  3  1  0  0  0  0
  6  7  1  0  0  0  0
  7  4  2  0  0  0  0
  7  1  1  0  0  0  0
  9  8  1  6  0  0  0
  9  5  1  0  0  0  0
  9 11  1  0  0  0  0
 11 10  1  0  0  0  0
 12 11  1  0  0  0  0
 13 14  1  0  0  0  0
 15 16  1  0  0  0  0
 17 16  1  0  0  0  0
 19 22  2  0  0  0  0
 20 16  1  6  0  0  0
 20 26  1  0  0  0  0
 20 19  1  0  0  0  0
 21 23  1  0  0  0  0
 21 26  2  0  0  0  0
 22 25  1  0  0  0  0
 23 18  1  0  0  0  0
 24 18  2  0  0  0  0
 24 25  1  0  0  0  0
 26 24  1  0  0  0  0
M  END
>  <MODEL>
9

>  <REMARK>
 VINA RESULT:      -5.4      2.402      4.235
  Name = 
  7 active torsions:
  status: ('A' for Active; 'I' for Inactive)
    1  A    between atoms: C_2  and  C_10
    2  A    between atoms: C_2  and  N_15
    3  A    between atoms: C_7  and  C_10
    4  A    between atoms: C_8  and  N_15
    5  A    between atoms: C_9  and  CA_26
    6  A    between atoms: C_10  and  C_25
    7  A    between atoms: N_19  and  CA_26
                            x       y       z     vdW  Elec       q    Type
                         _______ _______ _______ _____ _____    ______ ____

>  <TORSDO>
F 7

$$$$
