=
 OpenBabel11072408353D

 26 29  0  0  1  0  0  0  0  0999 V2000
  187.6800  176.4850  144.0010 C   0  0  0  0  0  2  0  0  0  0  0  0
  191.2020  176.0930  143.1830 C   0  0  0  0  0  3  0  0  0  0  0  0
  188.9860  176.5010  144.3050 C   0  0  0  0  0  0  0  0  0  0  0  0
  187.1090  179.2270  148.3220 O   0  0  0  0  0  1  0  0  0  0  0  0
  185.3730  177.3760  144.6490 N   0  0  0  0  0  0  0  0  0  0  0  0
  187.1040  177.3220  146.2750 C   0  0  0  0  0  0  0  0  0  0  0  0
  185.5190  177.6600  148.0680 N   0  0  0  0  0  2  0  0  0  0  0  0
  190.6390  176.7730  146.1960 C   0  0  0  0  0  3  0  0  0  0  0  0
  188.3890  177.4290  146.6000 C   0  0  0  0  0  3  0  0  0  0  0  0
  189.4080  176.8610  145.6950 C   0  0  0  0  0  0  0  0  0  0  0  0
  189.8890  176.2800  143.1750 C   0  0  0  0  0  3  0  0  0  0  0  0
  192.1180  176.0470  144.3230 C   0  0  0  0  0  2  0  0  0  0  0  0
  184.8440  178.0070  145.8080 N   0  0  0  0  0  2  0  0  0  0  0  0
  185.9340  178.0470  146.7690 C   0  0  2  0  0  0  0  0  0  0  0  0
  186.6120  176.6640  145.0560 C   0  0  2  0  0  3  0  0  0  0  0  0
  185.8750  179.0370  147.7960 N   0  0  0  0  0  0  0  0  0  0  0  0
  191.9110  176.3180  145.6150 C   0  0  0  0  0  0  0  0  0  0  0  0
  185.6620  178.4470  143.6930 C   0  0  0  0  0  2  0  0  0  0  0  0
  184.5630  178.5230  142.6470 C   0  0  0  0  0  2  0  0  0  0  0  0
  184.2530  178.1010  140.2090 O   0  0  0  0  0  0  0  0  0  0  0  0
  186.3540  178.1160  141.1270 O   0  0  0  0  0  1  0  0  0  0  0  0
  185.1120  178.2330  141.2930 C   0  0  0  0  0  0  0  0  0  0  0  0
  192.9670  176.2030  146.5380 O   0  0  0  0  0  0  0  0  0  0  0  0
  195.2120  175.3800  146.2580 O   0  0  0  0  0  1  0  0  0  0  0  0
  194.7750  177.6210  146.1480 O   0  0  0  0  0  0  0  0  0  0  0  0
  194.3300  176.4520  146.3040 C   0  0  0  0  0  0  0  0  0  0  0  0
  1  3  1  0  0  0  0
  2 12  1  0  0  0  0
  3 10  2  0  0  0  0
  5 15  1  0  0  0  0
  5 13  1  0  0  0  0
  6  9  2  0  0  0  0
  6 14  1  0  0  0  0
 10  8  1  0  0  0  0
 10  9  1  0  0  0  0
 11  2  2  0  0  0  0
 11  3  1  0  0  0  0
 12 17  1  0  0  0  0
 14 13  1  6  0  0  0
 14 16  1  0  0  0  0
 14  7  1  0  0  0  0
 15  1  1  6  0  0  0
 15  6  1  0  0  0  0
 16  7  1  0  0  0  0
 16  4  1  0  0  0  0
 17  8  2  0  0  0  0
 17 23  1  0  0  0  0
 18  5  1  0  0  0  0
 19 18  1  0  0  0  0
 20 22  2  0  0  0  0
 21 22  1  0  0  0  0
 22 19  1  0  0  0  0
 24 26  1  0  0  0  0
 25 26  2  0  0  0  0
 26 23  1  0  0  0  0
M  END
>  <MODEL>
1

>  <REMARK>
 VINA RESULT:      -7.2      0.000      0.000
  Name = 
  5 active torsions:
  status: ('A' for Active; 'I' for Inactive)
    1  A    between atoms: N_7  and  C_15
    2  A    between atoms: C_10  and  C_15
    3  A    between atoms: C_10  and  C_17
    4  A    between atoms: C_13  and  O_22
    5  A    between atoms: O_22  and  C_26
                            x       y       z     vdW  Elec       q    Type
                         _______ _______ _______ _____ _____    ______ ____

>  <TORSDO>
F 5

$$$$
=
 OpenBabel11072408353D

 26 29  0  0  1  0  0  0  0  0999 V2000
  188.4740  176.1890  146.8780 C   0  0  0  0  0  2  0  0  0  0  0  0
  185.8910  178.7410  147.0800 C   0  0  0  0  0  3  0  0  0  0  0  0
  187.4960  176.9430  146.3550 C   0  0  0  0  0  0  0  0  0  0  0  0
  189.8090  175.3340  141.9790 O   0  0  0  0  0  1  0  0  0  0  0  0
  190.5690  174.8240  146.3490 N   0  0  0  0  0  0  0  0  0  0  0  0
  188.9640  175.2090  144.6420 C   0  0  0  0  0  0  0  0  0  0  0  0
  189.9320  173.4850  143.2520 N   0  0  0  0  0  2  0  0  0  0  0  0
  186.1080  177.3360  144.2810 C   0  0  0  0  0  3  0  0  0  0  0  0
  188.0570  175.9910  144.0610 C   0  0  0  0  0  3  0  0  0  0  0  0
  187.1450  176.7840  144.9090 C   0  0  0  0  0  0  0  0  0  0  0  0
  186.9470  177.9590  147.2540 C   0  0  0  0  0  2  0  0  0  0  0  0
  184.9690  178.8040  145.9450 C   0  0  0  0  0  3  0  0  0  0  0  0
  191.1230  174.2800  145.1580 N   0  0  0  0  0  2  0  0  0  0  0  0
  190.1740  174.5930  144.1020 C   0  0  2  0  0  0  0  0  0  0  0  0
  189.1260  175.0710  146.0960 C   0  0  2  0  0  3  0  0  0  0  0  0
  190.6650  174.6340  142.7620 N   0  0  0  0  0  0  0  0  0  0  0  0
  185.0240  178.2140  144.7480 C   0  0  0  0  0  0  0  0  0  0  0  0
  191.2900  176.0730  146.6050 C   0  0  0  0  0  2  0  0  0  0  0  0
  192.7760  175.7980  146.7470 C   0  0  0  0  0  2  0  0  0  0  0  0
  194.6120  177.4620  146.4670 O   0  0  0  0  0  1  0  0  0  0  0  0
  193.2880  176.8830  144.6870 O   0  0  0  0  0  0  0  0  0  0  0  0
  193.5640  176.7420  145.9070 C   0  0  0  0  0  0  0  0  0  0  0  0
  184.0040  178.4350  143.8040 O   0  0  0  0  0  0  0  0  0  0  0  0
  185.3010  178.6940  141.7930 O   0  0  0  0  0  1  0  0  0  0  0  0
  183.1400  177.9560  141.6940 O   0  0  0  0  0  0  0  0  0  0  0  0
  184.1060  178.3400  142.4060 C   0  0  0  0  0  0  0  0  0  0  0  0
  2 11  1  0  0  0  0
  3  1  1  0  0  0  0
  3 11  1  0  0  0  0
  4 16  1  0  0  0  0
  5 18  1  0  0  0  0
  6 15  1  0  0  0  0
  8 17  2  0  0  0  0
  8 10  1  0  0  0  0
  9  6  2  0  0  0  0
  9 10  1  0  0  0  0
 10  3  2  0  0  0  0
 12  2  2  0  0  0  0
 13  5  1  0  0  0  0
 14  7  1  6  0  0  0
 14  6  1  0  0  0  0
 14 13  1  0  0  0  0
 15  5  1  0  0  0  0
 15  1  1  1  0  0  0
 16  7  1  0  0  0  0
 16 14  1  0  0  0  0
 17 12  1  0  0  0  0
 18 19  1  0  0  0  0
 21 22  2  0  0  0  0
 22 20  1  0  0  0  0
 22 19  1  0  0  0  0
 23 17  1  0  0  0  0
 24 26  1  0  0  0  0
 25 26  2  0  0  0  0
 26 23  1  0  0  0  0
M  END
>  <MODEL>
2

>  <REMARK>
 VINA RESULT:      -7.0      2.974      7.662
  Name = 
  5 active torsions:
  status: ('A' for Active; 'I' for Inactive)
    1  A    between atoms: N_7  and  C_15
    2  A    between atoms: C_10  and  C_15
    3  A    between atoms: C_10  and  C_17
    4  A    between atoms: C_13  and  O_22
    5  A    between atoms: O_22  and  C_26
                            x       y       z     vdW  Elec       q    Type
                         _______ _______ _______ _____ _____    ______ ____

>  <TORSDO>
F 5

$$$$
=
 OpenBabel11072408353D

 26 29  0  0  1  0  0  0  0  0999 V2000
  189.4560  177.4330  145.8390 C   0  0  0  0  0  2  0  0  0  0  0  0
  192.5640  175.9970  147.0660 C   0  0  0  0  0  3  0  0  0  0  0  0
  190.6260  176.7970  145.6750 C   0  0  0  0  0  0  0  0  0  0  0  0
  188.3230  175.5950  141.1650 O   0  0  0  0  0  1  0  0  0  0  0  0
  187.1360  177.8290  144.8430 N   0  0  0  0  0  0  0  0  0  0  0  0
  188.9100  177.1280  143.4290 C   0  0  0  0  0  0  0  0  0  0  0  0
  187.6550  177.7220  141.4500 N   0  0  0  0  0  2  0  0  0  0  0  0
  192.2190  175.8680  143.9480 C   0  0  0  0  0  3  0  0  0  0  0  0
  190.0220  176.4240  143.2290 C   0  0  0  0  0  3  0  0  0  0  0  0
  191.0350  176.3640  144.3020 C   0  0  0  0  0  0  0  0  0  0  0  0
  191.3380  176.4780  146.9120 C   0  0  0  0  0  2  0  0  0  0  0  0
  193.5550  175.6590  146.0450 C   0  0  0  0  0  3  0  0  0  0  0  0
  186.5560  177.6110  143.5630 N   0  0  0  0  0  2  0  0  0  0  0  0
  187.6290  177.1020  142.7240 C   0  0  2  0  0  0  0  0  0  0  0  0
  188.6100  177.8660  144.6630 C   0  0  2  0  0  3  0  0  0  0  0  0
  187.2650  176.3330  141.5780 N   0  0  0  0  0  0  0  0  0  0  0  0
  193.4470  175.6040  144.7140 C   0  0  0  0  0  0  0  0  0  0  0  0
  186.7270  176.6970  145.6780 C   0  0  0  0  0  2  0  0  0  0  0  0
  185.2380  176.7740  145.9680 C   0  0  0  0  0  2  0  0  0  0  0  0
  184.0720  178.9780  145.9380 O   0  0  0  0  0  0  0  0  0  0  0  0
  185.3490  178.3640  147.7400 O   0  0  0  0  0  1  0  0  0  0  0  0
  184.8970  178.0790  146.6010 C   0  0  0  0  0  0  0  0  0  0  0  0
  194.5580  175.2430  143.9300 O   0  0  0  0  0  0  0  0  0  0  0  0
  196.8040  174.8130  144.6810 O   0  0  0  0  0  1  0  0  0  0  0  0
  196.2630  176.8180  143.7280 O   0  0  0  0  0  0  0  0  0  0  0  0
  195.8860  175.6720  144.0910 C   0  0  0  0  0  0  0  0  0  0  0  0
  3  1  1  0  0  0  0
  3 11  1  0  0  0  0
  4 16  1  0  0  0  0
  5 18  1  0  0  0  0
  6 15  1  0  0  0  0
  7 16  1  0  0  0  0
  8 10  1  0  0  0  0
  8 17  2  0  0  0  0
  9  6  2  0  0  0  0
  9 10  1  0  0  0  0
 10  3  2  0  0  0  0
 11  2  1  0  0  0  0
 12  2  2  0  0  0  0
 13  5  1  0  0  0  0
 14  7  1  6  0  0  0
 14  6  1  0  0  0  0
 14 13  1  0  0  0  0
 15  5  1  0  0  0  0
 15  1  1  1  0  0  0
 16 14  1  0  0  0  0
 17 12  1  0  0  0  0
 18 19  1  0  0  0  0
 19 22  1  0  0  0  0
 20 22  2  0  0  0  0
 22 21  1  0  0  0  0
 23 26  1  0  0  0  0
 23 17  1  0  0  0  0
 25 26  2  0  0  0  0
 26 24  1  0  0  0  0
M  END
>  <MODEL>
3

>  <REMARK>
 VINA RESULT:      -7.0      2.292      4.181
  Name = 
  5 active torsions:
  status: ('A' for Active; 'I' for Inactive)
    1  A    between atoms: N_7  and  C_15
    2  A    between atoms: C_10  and  C_15
    3  A    between atoms: C_10  and  C_17
    4  A    between atoms: C_13  and  O_22
    5  A    between atoms: O_22  and  C_26
                            x       y       z     vdW  Elec       q    Type
                         _______ _______ _______ _____ _____    ______ ____

>  <TORSDO>
F 5

$$$$
=
 OpenBabel11072408353D

 26 29  0  0  1  0  0  0  0  0999 V2000
  190.6780  177.7650  143.3200 C   0  0  0  0  0  2  0  0  0  0  0  0
  187.5140  177.9500  141.5350 C   0  0  0  0  0  3  0  0  0  0  0  0
  189.3420  177.6690  143.2420 C   0  0  0  0  0  0  0  0  0  0  0  0
  190.1630  175.0380  147.6570 O   0  0  0  0  0  1  0  0  0  0  0  0
  192.7550  177.0110  144.6040 N   0  0  0  0  0  0  0  0  0  0  0  0
  190.6350  176.9520  145.6730 C   0  0  0  0  0  0  0  0  0  0  0  0
  191.6650  176.7000  147.8450 N   0  0  0  0  0  2  0  0  0  0  0  0
  187.2400  177.2880  144.5920 C   0  0  0  0  0  3  0  0  0  0  0  0
  189.3190  176.7660  145.6230 C   0  0  0  0  0  3  0  0  0  0  0  0
  188.5660  177.2770  144.4600 C   0  0  0  0  0  0  0  0  0  0  0  0
  188.7840  177.8420  141.9010 C   0  0  0  0  0  3  0  0  0  0  0  0
  186.3120  177.9340  142.3690 C   0  0  0  0  0  2  0  0  0  0  0  0
  192.9710  176.4070  145.8730 N   0  0  0  0  0  2  0  0  0  0  0  0
  191.6580  176.2960  146.4870 C   0  0  2  0  0  0  0  0  0  0  0  0
  191.4120  177.6450  144.6360 C   0  0  2  0  0  3  0  0  0  0  0  0
  191.4820  175.3060  147.5000 N   0  0  0  0  0  0  0  0  0  0  0  0
  186.1600  177.6690  143.6690 C   0  0  0  0  0  0  0  0  0  0  0  0
  192.8130  175.9300  143.6180 C   0  0  0  0  0  2  0  0  0  0  0  0
  194.1810  175.2720  143.6460 C   0  0  0  0  0  2  0  0  0  0  0  0
  195.1620  176.4600  141.6850 O   0  0  0  0  0  0  0  0  0  0  0  0
  196.1030  176.6760  143.7650 O   0  0  0  0  0  1  0  0  0  0  0  0
  195.2050  176.1710  143.0430 C   0  0  0  0  0  0  0  0  0  0  0  0
  184.8810  177.7150  144.2550 O   0  0  0  0  0  0  0  0  0  0  0  0
  184.5160  177.0670  146.5440 O   0  0  0  0  0  1  0  0  0  0  0  0
  184.3140  179.2530  145.9100 O   0  0  0  0  0  0  0  0  0  0  0  0
  184.5660  178.0640  145.5790 C   0  0  0  0  0  0  0  0  0  0  0  0
  2 11  2  0  0  0  0
  2 12  1  0  0  0  0
  3  1  1  0  0  0  0
  3 10  2  0  0  0  0
  5 15  1  0  0  0  0
  5 13  1  0  0  0  0
  9  6  2  0  0  0  0
 10  8  1  0  0  0  0
 10  9  1  0  0  0  0
 11  3  1  0  0  0  0
 12 17  1  0  0  0  0
 13 14  1  0  0  0  0
 14  6  1  6  0  0  0
 14 16  1  0  0  0  0
 14  7  1  0  0  0  0
 15  1  1  6  0  0  0
 15  6  1  0  0  0  0
 16  4  1  0  0  0  0
 16  7  1  0  0  0  0
 17 23  1  0  0  0  0
 17  8  2  0  0  0  0
 18 19  1  0  0  0  0
 18  5  1  0  0  0  0
 20 22  2  0  0  0  0
 22 19  1  0  0  0  0
 22 21  1  0  0  0  0
 23 26  1  0  0  0  0
 26 25  2  0  0  0  0
 26 24  1  0  0  0  0
M  END
>  <MODEL>
4

>  <REMARK>
 VINA RESULT:      -6.9      3.518      7.192
  Name = 
  5 active torsions:
  status: ('A' for Active; 'I' for Inactive)
    1  A    between atoms: N_7  and  C_15
    2  A    between atoms: C_10  and  C_15
    3  A    between atoms: C_10  and  C_17
    4  A    between atoms: C_13  and  O_22
    5  A    between atoms: O_22  and  C_26
                            x       y       z     vdW  Elec       q    Type
                         _______ _______ _______ _____ _____    ______ ____

>  <TORSDO>
F 5

$$$$
=
 OpenBabel11072408353D

 26 29  0  0  1  0  0  0  0  0999 V2000
  184.9630  178.9820  143.7850 C   0  0  0  0  0  2  0  0  0  0  0  0
  185.5590  178.3410  147.3160 C   0  0  0  0  0  3  0  0  0  0  0  0
  185.6680  178.4670  144.8040 C   0  0  0  0  0  0  0  0  0  0  0  0
  187.6920  175.7380  140.8620 O   0  0  0  0  0  1  0  0  0  0  0  0
  184.4650  178.7950  141.2860 N   0  0  0  0  0  0  0  0  0  0  0  0
  186.5030  177.9230  142.1390 C   0  0  0  0  0  0  0  0  0  0  0  0
  187.4410  177.7620  139.9170 N   0  0  0  0  0  2  0  0  0  0  0  0
  187.8080  177.2660  145.4070 C   0  0  0  0  0  3  0  0  0  0  0  0
  187.1900  177.3270  143.1100 C   0  0  0  0  0  3  0  0  0  0  0  0
  186.9200  177.7020  144.5140 C   0  0  0  0  0  0  0  0  0  0  0  0
  185.0470  178.6090  146.1220 C   0  0  0  0  0  3  0  0  0  0  0  0
  186.8900  177.8370  147.6550 C   0  0  0  0  0  2  0  0  0  0  0  0
  185.1040  178.1460  140.1930 N   0  0  0  0  0  2  0  0  0  0  0  0
  186.3080  177.5430  140.7410 C   0  0  2  0  0  0  0  0  0  0  0  0
  185.4760  178.9500  142.3630 C   0  0  2  0  0  3  0  0  0  0  0  0
  186.8730  176.4360  140.0380 N   0  0  0  0  0  0  0  0  0  0  0  0
  187.8720  177.3830  146.8710 C   0  0  0  0  0  0  0  0  0  0  0  0
  183.3700  177.9170  141.7010 C   0  0  0  0  0  2  0  0  0  0  0  0
  182.1920  178.0670  140.7540 C   0  0  0  0  0  2  0  0  0  0  0  0
  179.7510  177.9120  141.2370 O   0  0  0  0  0  0  0  0  0  0  0  0
  181.0650  179.4140  142.3660 O   0  0  0  0  0  1  0  0  0  0  0  0
  180.9780  178.5080  141.4970 C   0  0  0  0  0  0  0  0  0  0  0  0
  189.0820  176.9410  147.4390 O   0  0  0  0  0  0  0  0  0  0  0  0
  188.9920  174.5420  147.6090 O   0  0  0  0  0  1  0  0  0  0  0  0
  190.8660  175.5800  146.8130 O   0  0  0  0  0  0  0  0  0  0  0  0
  189.6940  175.6890  147.2630 C   0  0  0  0  0  0  0  0  0  0  0  0
  1  3  1  0  0  0  0
  2 12  1  0  0  0  0
  3 11  1  0  0  0  0
  5 18  1  0  0  0  0
  5 15  1  0  0  0  0
  6 15  1  0  0  0  0
  6  9  2  0  0  0  0
  7 16  1  0  0  0  0
  8 17  2  0  0  0  0
  9 10  1  0  0  0  0
 10  3  2  0  0  0  0
 10  8  1  0  0  0  0
 11  2  2  0  0  0  0
 13 14  1  0  0  0  0
 13  5  1  0  0  0  0
 14  7  1  6  0  0  0
 14  6  1  0  0  0  0
 15  1  1  1  0  0  0
 16 14  1  0  0  0  0
 16  4  1  0  0  0  0
 17 23  1  0  0  0  0
 17 12  1  0  0  0  0
 19 22  1  0  0  0  0
 19 18  1  0  0  0  0
 20 22  2  0  0  0  0
 22 21  1  0  0  0  0
 25 26  2  0  0  0  0
 26 23  1  0  0  0  0
 26 24  1  0  0  0  0
M  END
>  <MODEL>
5

>  <REMARK>
 VINA RESULT:      -6.7      3.373      5.267
  Name = 
  5 active torsions:
  status: ('A' for Active; 'I' for Inactive)
    1  A    between atoms: N_7  and  C_15
    2  A    between atoms: C_10  and  C_15
    3  A    between atoms: C_10  and  C_17
    4  A    between atoms: C_13  and  O_22
    5  A    between atoms: O_22  and  C_26
                            x       y       z     vdW  Elec       q    Type
                         _______ _______ _______ _____ _____    ______ ____

>  <TORSDO>
F 5

$$$$
=
 OpenBabel11072408353D

 26 29  0  0  1  0  0  0  0  0999 V2000
  188.4550  177.1890  143.3280 C   0  0  0  0  0  2  0  0  0  0  0  0
  186.8500  177.1460  140.0640 C   0  0  0  0  0  3  0  0  0  0  0  0
  187.4020  177.3450  142.5120 C   0  0  0  0  0  0  0  0  0  0  0  0
  184.9390  177.0360  147.0860 O   0  0  0  0  0  1  0  0  0  0  0  0
  189.1830  176.7290  145.7340 N   0  0  0  0  0  0  0  0  0  0  0  0
  187.0230  177.6260  145.3180 C   0  0  0  0  0  0  0  0  0  0  0  0
  186.7570  178.2360  147.6420 N   0  0  0  0  0  2  0  0  0  0  0  0
  184.9920  178.0970  142.4090 C   0  0  0  0  0  3  0  0  0  0  0  0
  185.9330  177.7140  144.5590 C   0  0  0  0  0  3  0  0  0  0  0  0
  186.0830  177.7510  143.0900 C   0  0  0  0  0  0  0  0  0  0  0  0
  187.6350  176.9670  141.1180 C   0  0  0  0  0  2  0  0  0  0  0  0
  185.5330  177.7790  139.9950 C   0  0  0  0  0  3  0  0  0  0  0  0
  188.5250  176.7740  146.9950 N   0  0  0  0  0  2  0  0  0  0  0  0
  187.1770  177.2430  146.7210 C   0  0  2  0  0  0  0  0  0  0  0  0
  188.3940  177.5630  144.7910 C   0  0  2  0  0  3  0  0  0  0  0  0
  186.1580  176.9170  147.6660 N   0  0  0  0  0  0  0  0  0  0  0  0
  184.7220  178.2050  140.9680 C   0  0  0  0  0  0  0  0  0  0  0  0
  189.1930  175.3230  145.3250 C   0  0  0  0  0  2  0  0  0  0  0  0
  190.3440  174.5930  145.9950 C   0  0  0  0  0  2  0  0  0  0  0  0
  192.6640  173.8410  145.4750 O   0  0  0  0  0  1  0  0  0  0  0  0
  191.4630  175.0500  143.9410 O   0  0  0  0  0  0  0  0  0  0  0  0
  191.5150  174.5140  145.0780 C   0  0  0  0  0  0  0  0  0  0  0  0
  183.4810  178.7870  140.6480 O   0  0  0  0  0  0  0  0  0  0  0  0
  181.1990  178.4110  141.3170 O   0  0  0  0  0  1  0  0  0  0  0  0
  182.0950  177.2690  139.5510 O   0  0  0  0  0  0  0  0  0  0  0  0
  182.2560  178.1250  140.4620 C   0  0  0  0  0  0  0  0  0  0  0  0
  2 11  1  0  0  0  0
  3 10  2  0  0  0  0
  3  1  1  0  0  0  0
  4 16  1  0  0  0  0
  5 13  1  0  0  0  0
  7 16  1  0  0  0  0
  8 10  1  0  0  0  0
  9  6  2  0  0  0  0
 10  9  1  0  0  0  0
 11  3  1  0  0  0  0
 12  2  2  0  0  0  0
 12 17  1  0  0  0  0
 14  6  1  6  0  0  0
 14 13  1  0  0  0  0
 14  7  1  0  0  0  0
 14 16  1  0  0  0  0
 15  1  1  6  0  0  0
 15  6  1  0  0  0  0
 15  5  1  0  0  0  0
 17  8  2  0  0  0  0
 18  5  1  0  0  0  0
 18 19  1  0  0  0  0
 21 22  2  0  0  0  0
 22 20  1  0  0  0  0
 22 19  1  0  0  0  0
 23 17  1  0  0  0  0
 25 26  2  0  0  0  0
 26 23  1  0  0  0  0
 26 24  1  0  0  0  0
M  END
>  <MODEL>
6

>  <REMARK>
 VINA RESULT:      -6.7      2.167      7.303
  Name = 
  5 active torsions:
  status: ('A' for Active; 'I' for Inactive)
    1  A    between atoms: N_7  and  C_15
    2  A    between atoms: C_10  and  C_15
    3  A    between atoms: C_10  and  C_17
    4  A    between atoms: C_13  and  O_22
    5  A    between atoms: O_22  and  C_26
                            x       y       z     vdW  Elec       q    Type
                         _______ _______ _______ _____ _____    ______ ____

>  <TORSDO>
F 5

$$$$
=
 OpenBabel11072408353D

 26 29  0  0  1  0  0  0  0  0999 V2000
  187.3050  176.7150  142.9120 C   0  0  0  0  0  2  0  0  0  0  0  0
  190.9320  176.4400  142.8770 C   0  0  0  0  0  3  0  0  0  0  0  0
  188.5130  176.7610  143.4940 C   0  0  0  0  0  0  0  0  0  0  0  0
  185.7190  179.3390  147.0480 O   0  0  0  0  0  1  0  0  0  0  0  0
  184.8860  177.5270  143.0540 N   0  0  0  0  0  0  0  0  0  0  0  0
  186.2210  177.4830  145.0180 C   0  0  0  0  0  0  0  0  0  0  0  0
  184.2730  177.7350  146.4270 N   0  0  0  0  0  2  0  0  0  0  0  0
  189.7050  177.0340  145.7050 C   0  0  0  0  0  3  0  0  0  0  0  0
  187.4010  177.6180  145.6180 C   0  0  0  0  0  3  0  0  0  0  0  0
  188.6100  177.0990  144.9480 C   0  0  0  0  0  0  0  0  0  0  0  0
  189.6470  176.5900  142.5850 C   0  0  0  0  0  3  0  0  0  0  0  0
  191.5790  176.3930  144.1890 C   0  0  0  0  0  2  0  0  0  0  0  0
  184.0960  178.1160  144.0800 N   0  0  0  0  0  2  0  0  0  0  0  0
  184.9490  178.1630  145.2570 C   0  0  2  0  0  0  0  0  0  0  0  0
  186.0280  176.8400  143.7110 C   0  0  2  0  0  3  0  0  0  0  0  0
  184.6360  179.1270  146.2620 N   0  0  0  0  0  0  0  0  0  0  0  0
  191.0860  176.6280  145.4080 C   0  0  0  0  0  0  0  0  0  0  0  0
  185.3410  178.6270  142.2020 C   0  0  0  0  0  2  0  0  0  0  0  0
  185.0740  178.3030  140.7430 C   0  0  0  0  0  2  0  0  0  0  0  0
  183.1190  177.2920  139.5700 O   0  0  0  0  0  0  0  0  0  0  0  0
  182.8120  178.9570  141.1160 O   0  0  0  0  0  1  0  0  0  0  0  0
  183.6080  178.2100  140.4900 C   0  0  0  0  0  0  0  0  0  0  0  0
  191.9190  176.5210  146.5380 O   0  0  0  0  0  0  0  0  0  0  0  0
  191.2000  175.2580  148.4570 O   0  0  0  0  0  0  0  0  0  0  0  0
  191.4340  177.5280  148.5820 O   0  0  0  0  0  1  0  0  0  0  0  0
  191.5210  176.4820  147.8850 C   0  0  0  0  0  0  0  0  0  0  0  0
  1  3  1  0  0  0  0
  2 12  1  0  0  0  0
  3 10  2  0  0  0  0
  5 15  1  0  0  0  0
  5 13  1  0  0  0  0
  6 14  1  0  0  0  0
  6  9  2  0  0  0  0
 10  9  1  0  0  0  0
 10  8  1  0  0  0  0
 11  2  2  0  0  0  0
 11  3  1  0  0  0  0
 12 17  1  0  0  0  0
 14 13  1  6  0  0  0
 14 16  1  0  0  0  0
 14  7  1  0  0  0  0
 15  1  1  6  0  0  0
 15  6  1  0  0  0  0
 16  7  1  0  0  0  0
 16  4  1  0  0  0  0
 17  8  2  0  0  0  0
 17 23  1  0  0  0  0
 18  5  1  0  0  0  0
 19 18  1  0  0  0  0
 20 22  2  0  0  0  0
 22 19  1  0  0  0  0
 22 21  1  0  0  0  0
 23 26  1  0  0  0  0
 26 24  2  0  0  0  0
 26 25  1  0  0  0  0
M  END
>  <MODEL>
7

>  <REMARK>
 VINA RESULT:      -6.7      1.743      2.049
  Name = 
  5 active torsions:
  status: ('A' for Active; 'I' for Inactive)
    1  A    between atoms: N_7  and  C_15
    2  A    between atoms: C_10  and  C_15
    3  A    between atoms: C_10  and  C_17
    4  A    between atoms: C_13  and  O_22
    5  A    between atoms: O_22  and  C_26
                            x       y       z     vdW  Elec       q    Type
                         _______ _______ _______ _____ _____    ______ ____

>  <TORSDO>
F 5

$$$$
=
 OpenBabel11072408353D

 26 29  0  0  1  0  0  0  0  0999 V2000
  187.2230  178.0890  142.7940 C   0  0  0  0  0  2  0  0  0  0  0  0
  184.7550  178.0100  140.1240 C   0  0  0  0  0  3  0  0  0  0  0  0
  185.9650  178.0850  142.3300 C   0  0  0  0  0  0  0  0  0  0  0  0
  185.0800  176.7880  147.2920 O   0  0  0  0  0  1  0  0  0  0  0  0
  188.7070  177.5690  144.8090 N   0  0  0  0  0  0  0  0  0  0  0  0
  186.3950  177.9980  145.1410 C   0  0  0  0  0  0  0  0  0  0  0  0
  186.7260  178.3020  147.5160 N   0  0  0  0  0  2  0  0  0  0  0  0
  183.5380  178.2870  143.0050 C   0  0  0  0  0  3  0  0  0  0  0  0
  185.1320  177.9150  144.7300 C   0  0  0  0  0  3  0  0  0  0  0  0
  184.8270  178.1280  143.3010 C   0  0  0  0  0  0  0  0  0  0  0  0
  185.8380  177.9080  140.8830 C   0  0  0  0  0  2  0  0  0  0  0  0
  183.3840  178.3360  140.5160 C   0  0  0  0  0  3  0  0  0  0  0  0
  188.4600  177.3420  146.1910 N   0  0  0  0  0  2  0  0  0  0  0  0
  187.0280  177.5240  146.3710 C   0  0  2  0  0  0  0  0  0  0  0  0
  187.5330  178.2950  144.2600 C   0  0  2  0  0  3  0  0  0  0  0  0
  186.4160  176.8870  147.4930 N   0  0  0  0  0  0  0  0  0  0  0  0
  182.8360  178.4730  141.7260 C   0  0  0  0  0  0  0  0  0  0  0  0
  188.8550  176.2480  144.1950 C   0  0  0  0  0  2  0  0  0  0  0  0
  190.2260  175.6760  144.5120 C   0  0  0  0  0  2  0  0  0  0  0  0
  191.2460  177.1540  142.7830 O   0  0  0  0  0  0  0  0  0  0  0  0
  192.2440  176.9040  144.8310 O   0  0  0  0  0  1  0  0  0  0  0  0
  191.2970  176.6060  144.0580 C   0  0  0  0  0  0  0  0  0  0  0  0
  181.4700  178.7920  141.8520 O   0  0  0  0  0  0  0  0  0  0  0  0
  180.3190  180.4180  140.5020 O   0  0  0  0  0  1  0  0  0  0  0  0
  179.9750  178.1830  140.1720 O   0  0  0  0  0  0  0  0  0  0  0  0
  180.5700  179.0890  140.8150 C   0  0  0  0  0  0  0  0  0  0  0  0
  2 12  2  0  0  0  0
  2 11  1  0  0  0  0
  3  1  1  0  0  0  0
  3 10  2  0  0  0  0
  4 16  1  0  0  0  0
  5 13  1  0  0  0  0
  8 10  1  0  0  0  0
  9  6  2  0  0  0  0
 10  9  1  0  0  0  0
 11  3  1  0  0  0  0
 12 17  1  0  0  0  0
 13 14  1  0  0  0  0
 14  6  1  6  0  0  0
 14 16  1  0  0  0  0
 14  7  1  0  0  0  0
 15  1  1  6  0  0  0
 15  5  1  0  0  0  0
 15  6  1  0  0  0  0
 16  7  1  0  0  0  0
 17 23  1  0  0  0  0
 17  8  2  0  0  0  0
 18 19  1  0  0  0  0
 18  5  1  0  0  0  0
 20 22  2  0  0  0  0
 22 19  1  0  0  0  0
 22 21  1  0  0  0  0
 24 26  1  0  0  0  0
 25 26  2  0  0  0  0
 26 23  1  0  0  0  0
M  END
>  <MODEL>
8

>  <REMARK>
 VINA RESULT:      -6.7      2.450      7.820
  Name = 
  5 active torsions:
  status: ('A' for Active; 'I' for Inactive)
    1  A    between atoms: N_7  and  C_15
    2  A    between atoms: C_10  and  C_15
    3  A    between atoms: C_10  and  C_17
    4  A    between atoms: C_13  and  O_22
    5  A    between atoms: O_22  and  C_26
                            x       y       z     vdW  Elec       q    Type
                         _______ _______ _______ _____ _____    ______ ____

>  <TORSDO>
F 5

$$$$
=
 OpenBabel11072408353D

 26 29  0  0  1  0  0  0  0  0999 V2000
  190.4620  177.5390  142.7670 C   0  0  0  0  0  2  0  0  0  0  0  0
  186.9860  178.2910  142.0050 C   0  0  0  0  0  3  0  0  0  0  0  0
  189.1790  177.7310  143.1070 C   0  0  0  0  0  0  0  0  0  0  0  0
  190.8670  175.2790  147.3760 O   0  0  0  0  0  1  0  0  0  0  0  0
  192.6620  176.4350  143.4550 N   0  0  0  0  0  0  0  0  0  0  0  0
  191.0260  176.9090  145.1100 C   0  0  0  0  0  0  0  0  0  0  0  0
  192.6310  176.5820  146.8860 N   0  0  0  0  0  2  0  0  0  0  0  0
  187.5890  177.9060  145.0620 C   0  0  0  0  0  3  0  0  0  0  0  0
  189.7520  177.0120  145.4810 C   0  0  0  0  0  3  0  0  0  0  0  0
  188.7750  177.5980  144.5410 C   0  0  0  0  0  0  0  0  0  0  0  0
  188.2630  177.9340  141.9840 C   0  0  0  0  0  3  0  0  0  0  0  0
  186.1340  178.5930  143.1550 C   0  0  0  0  0  2  0  0  0  0  0  0
  193.1580  175.8820  144.6690 N   0  0  0  0  0  2  0  0  0  0  0  0
  192.1140  176.1010  145.6570 C   0  0  2  0  0  0  0  0  0  0  0  0
  191.5440  177.3480  143.8060 C   0  0  2  0  0  3  0  0  0  0  0  0
  192.0910  175.2410  146.7970 N   0  0  0  0  0  0  0  0  0  0  0  0
  186.3610  178.4520  144.4650 C   0  0  0  0  0  0  0  0  0  0  0  0
  192.1990  175.3050  142.6470 C   0  0  0  0  0  2  0  0  0  0  0  0
  193.1620  174.1390  142.7800 C   0  0  0  0  0  2  0  0  0  0  0  0
  191.3350  172.4570  142.5580 O   0  0  0  0  0  1  0  0  0  0  0  0
  193.2260  172.2950  141.2710 O   0  0  0  0  0  0  0  0  0  0  0  0
  192.5850  172.9130  142.1610 C   0  0  0  0  0  0  0  0  0  0  0  0
  185.3690  178.8140  145.3950 O   0  0  0  0  0  0  0  0  0  0  0  0
  184.8140  176.7270  146.4600 O   0  0  0  0  0  0  0  0  0  0  0  0
  184.7770  178.6810  147.6450 O   0  0  0  0  0  1  0  0  0  0  0  0
  184.9850  178.1030  146.5450 C   0  0  0  0  0  0  0  0  0  0  0  0
  1  3  1  0  0  0  0
  2 12  1  0  0  0  0
  3 10  2  0  0  0  0
  5 15  1  0  0  0  0
  5 13  1  0  0  0  0
  6  9  2  0  0  0  0
  6 14  1  0  0  0  0
 10  8  1  0  0  0  0
 10  9  1  0  0  0  0
 11  2  2  0  0  0  0
 11  3  1  0  0  0  0
 12 17  1  0  0  0  0
 14 13  1  6  0  0  0
 14 16  1  0  0  0  0
 14  7  1  0  0  0  0
 15  1  1  6  0  0  0
 15  6  1  0  0  0  0
 16  7  1  0  0  0  0
 16  4  1  0  0  0  0
 17  8  2  0  0  0  0
 17 23  1  0  0  0  0
 18 19  1  0  0  0  0
 18  5  1  0  0  0  0
 21 22  2  0  0  0  0
 22 20  1  0  0  0  0
 22 19  1  0  0  0  0
 23 26  1  0  0  0  0
 24 26  2  0  0  0  0
 26 25  1  0  0  0  0
M  END
>  <MODEL>
9

>  <REMARK>
 VINA RESULT:      -6.6      3.814      6.979
  Name = 
  5 active torsions:
  status: ('A' for Active; 'I' for Inactive)
    1  A    between atoms: N_7  and  C_15
    2  A    between atoms: C_10  and  C_15
    3  A    between atoms: C_10  and  C_17
    4  A    between atoms: C_13  and  O_22
    5  A    between atoms: O_22  and  C_26
                            x       y       z     vdW  Elec       q    Type
                         _______ _______ _______ _____ _____    ______ ____

>  <TORSDO>
F 5

$$$$
