=
 OpenBabel11072408293D

 56 59  0  0  1  0  0  0  0  0999 V2000
  190.4710  174.6800  142.3790 C   0  0  0  0  0  0  0  0  0  0  0  0
  189.8660  175.9620  142.5670 N   0  0  0  0  0  2  0  0  0  0  0  0
  191.6140  174.6070  141.8580 O   0  0  0  0  0  0  0  0  0  0  0  0
  189.7390  173.4220  142.7390 C   0  0  2  0  0  3  0  0  0  0  0  0
  189.6920  172.2900  144.9910 C   0  0  0  0  0  1  0  0  0  0  0  0
  190.5250  172.5680  143.7470 C   0  0  1  0  0  3  0  0  0  0  0  0
  190.8990  171.2360  143.1070 C   0  0  0  0  0  2  0  0  0  0  0  0
  192.7400  171.4940  144.6300 O   0  0  0  0  0  1  0  0  0  0  0  0
  192.2860  170.7660  143.5260 C   0  0  2  0  0  3  0  0  0  0  0  0
  193.2310  170.9480  142.3800 C   0  0  0  0  0  0  0  0  0  0  0  0
  193.0280  171.7390  141.3320 C   0  0  0  0  0  3  0  0  0  0  0  0
  196.3730  168.7520  142.9170 C   0  0  0  0  0  1  0  0  0  0  0  0
  194.5110  170.2990  142.2160 C   0  0  0  0  0  0  0  0  0  0  0  0
  195.0860  169.3870  143.1520 N   0  0  0  0  0  2  0  0  0  0  0  0
  194.2050  171.5810  140.4110 C   0  0  2  0  0  3  0  0  0  0  0  0
  195.0880  170.6480  141.1140 N   0  0  0  0  0  0  0  0  0  0  0  0
  195.7600  173.3220  140.9730 O   0  0  0  0  0  1  0  0  0  0  0  0
  194.8760  172.8990  140.1790 C   0  0  0  0  0  0  0  0  0  0  0  0
  194.4740  173.6910  139.1100 O   0  0  0  0  0  0  0  0  0  0  0  0
  189.4710  172.6630  141.5230 N   0  0  0  0  0  2  0  0  0  0  0  0
  188.5520  173.4450  140.7100 C   0  0  0  0  0  2  0  0  0  0  0  0
  191.8970  172.2810  137.1230 C   0  0  0  0  0  1  0  0  0  0  0  0
  188.1900  174.1610  138.3330 C   0  0  0  0  0  2  0  0  0  0  0  0
  188.6090  173.0120  139.2510 C   0  0  1  0  0  3  0  0  0  0  0  0
  190.0110  172.4730  138.9260 C   0  0  1  0  0  0  0  0  0  0  0  0
  190.1880  174.1050  137.0160 O   0  0  0  0  0  0  0  0  0  0  0  0
  188.7900  173.9610  136.9450 C   0  0  0  0  0  2  0  0  0  0  0  0
  190.7230  173.0140  137.7370 C   0  0  2  0  0  0  0  0  0  0  0  0
  191.0370  173.4260  139.0530 O   0  0  0  0  0  0  0  0  0  0  0  0
  190.3900  171.2310  139.4040 F   0  0  0  0  0  0  0  0  0  0  0  0
  188.7130  176.2350  143.4200 C   0  0  1  0  0  3  0  0  0  0  0  0
  189.0390  177.4110  144.3580 C   0  0  2  0  0  3  0  0  0  0  0  0
  190.1760  178.2930  143.8470 C   0  0  0  0  0  1  0  0  0  0  0  0
  188.2940  176.6650  146.6540 C   0  0  0  0  0  3  0  0  0  0  0  0
  189.2780  176.9840  145.7860 C   0  0  0  0  0  0  0  0  0  0  0  0
  186.8330  176.7670  146.3480 C   0  0  0  0  0  2  0  0  0  0  0  0
  186.1310  176.9800  147.5360 O   0  0  0  0  0  0  0  0  0  0  0  0
  185.2720  178.0500  147.2700 C   0  0  1  0  0  3  0  0  0  0  0  0
  185.9300  179.2450  147.5660 O   0  0  0  0  0  1  0  0  0  0  0  0
  184.8730  178.0250  145.7990 C   0  0  0  0  0  2  0  0  0  0  0  0
  185.5850  179.4260  143.8890 C   0  0  0  0  0  1  0  0  0  0  0  0
  184.8480  179.4260  145.2150 C   0  0  0  0  0  2  0  0  0  0  0  0
  190.7020  176.7940  146.2090 C   0  0  0  0  0  2  0  0  0  0  0  0
  190.8820  175.4910  146.8370 N   0  0  0  0  0  2  0  0  0  0  0  0
  192.3120  175.2430  146.8400 C   0  0  2  0  0  3  0  0  0  0  0  0
  193.0630  176.5400  147.0110 C   0  0  0  0  0  1  0  0  0  0  0  0
  192.7080  174.5940  145.6040 N   0  0  0  0  0  2  0  0  0  0  0  0
  196.4340  175.4190  143.7690 C   0  0  0  0  0  0  0  0  0  0  0  0
  196.3660  174.4630  144.7940 C   0  0  0  0  0  3  0  0  0  0  0  0
  193.9670  174.8450  144.9750 C   0  0  0  0  0  0  0  0  0  0  0  0
  194.0360  175.7780  143.9350 C   0  0  0  0  0  3  0  0  0  0  0  0
  195.2660  176.0660  143.3330 C   0  0  0  0  0  3  0  0  0  0  0  0
  195.1360  174.1780  145.3980 C   0  0  0  0  0  3  0  0  0  0  0  0
  197.7430  175.7320  143.1280 C   0  0  0  0  0  1  0  0  0  0  0  0
  186.3820  175.8940  143.0070 O   0  0  0  0  0  1  0  0  0  0  0  0
  187.5010  176.6030  142.5650 C   0  0  0  0  0  2  0  0  0  0  0  0
  1  2  1  0  0  0  0
  1  4  1  0  0  0  0
  2 31  1  0  0  0  0
  3  1  2  0  0  0  0
  4 20  1  6  0  0  0
  4  6  1  0  0  0  0
  6  5  1  1  0  0  0
  7  9  1  0  0  0  0
  7  6  1  0  0  0  0
  9  8  1  1  0  0  0
 10  9  1  0  0  0  0
 11 10  2  0  0  0  0
 12 14  1  0  0  0  0
 13 10  1  0  0  0  0
 13 14  1  0  0  0  0
 15 18  1  1  0  0  0
 15 16  1  0  0  0  0
 15 11  1  0  0  0  0
 16 13  2  0  0  0  0
 18 17  1  0  0  0  0
 19 18  2  0  0  0  0
 21 20  1  0  0  0  0
 23 24  1  0  0  0  0
 24 21  1  1  0  0  0
 25 29  1  0  0  0  0
 25 24  1  0  0  0  0
 25 30  1  1  0  0  0
 26 28  1  0  0  0  0
 27 26  1  0  0  0  0
 27 23  1  0  0  0  0
 28 22  1  6  0  0  0
 28 25  1  0  0  0  0
 28 29  1  0  0  0  0
 31 56  1  6  0  0  0
 31 32  1  0  0  0  0
 32 33  1  6  0  0  0
 32 35  1  0  0  0  0
 35 43  1  0  0  0  0
 35 34  2  0  0  0  0
 36 34  1  0  0  0  0
 36 37  1  0  0  0  0
 38 37  1  0  0  0  0
 38 39  1  6  0  0  0
 40 38  1  0  0  0  0
 41 42  1  0  0  0  0
 42 40  1  0  0  0  0
 43 44  1  0  0  0  0
 44 45  1  0  0  0  0
 45 46  1  6  0  0  0
 47 45  1  0  0  0  0
 48 49  1  0  0  0  0
 49 53  2  0  0  0  0
 50 53  1  0  0  0  0
 50 47  1  0  0  0  0
 51 50  2  0  0  0  0
 52 48  2  0  0  0  0
 52 51  1  0  0  0  0
 54 48  1  0  0  0  0
 56 55  1  0  0  0  0
M  END
>  <MODEL>
1

>  <REMARK>
 VINA RESULT:      -6.2      0.000      0.000
  Name = 
  23 active torsions:
  status: ('A' for Active; 'I' for Inactive)
    1  A    between atoms: C_1  and  C_11
    2  A    between atoms: C_1  and  CA_33
    3  A    between atoms: C_2  and  CA_13
    4  A    between atoms: N_5  and  CA_33
    5  A    between atoms: C_6  and  C_27
    6  A    between atoms: C_9  and  O_36
    7  A    between atoms: C_9  and  C_45
    8  A    between atoms: C_10  and  C_42
    9  A    between atoms: C_11  and  C_49
   10  A    between atoms: CA_13  and  C_38
   11  A    between atoms: CA_13  and  N_54
   12  A    between atoms: C_15  and  C_44
   13  A    between atoms: N_20  and  C_26
   14  A    between atoms: N_20  and  C_30
   15  A    between atoms: C_25  and  CA_33
   16  A    between atoms: C_26  and  N_52
   17  A    between atoms: C_27  and  C_35
   18  A    between atoms: C_28  and  C_45
   19  A    between atoms: C_35  and  C_38
   20  A    between atoms: O_36  and  C_42
   21  A    between atoms: CA_39  and  C_53
   22  A    between atoms: C_44  and  N_54
   23  A    between atoms: C_49  and  N_52
                            x       y       z     vdW  Elec       q    Type
                         _______ _______ _______ _____ _____    ______ ____

>  <TORSDO>
F 23

$$$$
=
 OpenBabel11072408293D

 56 59  0  0  1  0  0  0  0  0999 V2000
  193.9560  176.7860  145.0720 C   0  0  0  0  0  0  0  0  0  0  0  0
  192.7610  177.5720  145.0560 N   0  0  0  0  0  2  0  0  0  0  0  0
  194.9290  177.1570  145.7800 O   0  0  0  0  0  0  0  0  0  0  0  0
  194.0870  175.5630  144.2150 C   0  0  2  0  0  3  0  0  0  0  0  0
  193.7930  173.6580  145.8390 C   0  0  0  0  0  1  0  0  0  0  0  0
  194.7810  174.4110  144.9600 C   0  0  1  0  0  3  0  0  0  0  0  0
  195.3750  173.4340  143.9510 C   0  0  0  0  0  2  0  0  0  0  0  0
  197.6650  173.1770  143.2740 O   0  0  0  0  0  1  0  0  0  0  0  0
  196.7790  172.9900  144.3390 C   0  0  2  0  0  3  0  0  0  0  0  0
  196.7470  171.5420  144.7190 C   0  0  0  0  0  0  0  0  0  0  0  0
  196.9360  171.0630  145.9430 C   0  0  0  0  0  3  0  0  0  0  0  0
  196.0350  169.3870  141.5840 C   0  0  0  0  0  1  0  0  0  0  0  0
  196.5110  170.4310  143.8280 C   0  0  0  0  0  0  0  0  0  0  0  0
  196.2450  170.5500  142.4300 N   0  0  0  0  0  2  0  0  0  0  0  0
  196.8600  169.5640  145.8580 C   0  0  2  0  0  3  0  0  0  0  0  0
  196.5590  169.2990  144.4510 N   0  0  0  0  0  0  0  0  0  0  0  0
  196.0720  168.4890  147.8550 O   0  0  0  0  0  1  0  0  0  0  0  0
  195.7850  169.0370  146.7560 C   0  0  0  0  0  0  0  0  0  0  0  0
  194.4590  169.0990  146.3420 O   0  0  0  0  0  0  0  0  0  0  0  0
  194.8210  175.9080  143.0030 N   0  0  0  0  0  2  0  0  0  0  0  0
  193.8680  175.9410  141.9060 C   0  0  0  0  0  2  0  0  0  0  0  0
  194.3780  171.7710  139.1190 C   0  0  0  0  0  1  0  0  0  0  0  0
  196.0320  175.4250  140.7460 C   0  0  0  0  0  2  0  0  0  0  0  0
  194.5100  175.4640  140.6100 C   0  0  1  0  0  3  0  0  0  0  0  0
  193.9150  174.1050  140.2070 C   0  0  1  0  0  0  0  0  0  0  0  0
  196.2350  173.1290  140.1030 O   0  0  0  0  0  0  0  0  0  0  0  0
  196.6180  174.4350  139.7460 C   0  0  0  0  0  2  0  0  0  0  0  0
  194.8450  172.9880  139.8900 C   0  0  2  0  0  0  0  0  0  0  0  0
  194.1660  173.0730  141.1280 O   0  0  0  0  0  0  0  0  0  0  0  0
  192.6300  174.0490  139.6980 F   0  0  0  0  0  0  0  0  0  0  0  0
  191.4660  177.1280  144.5490 C   0  0  1  0  0  3  0  0  0  0  0  0
  190.5580  176.7490  145.7320 C   0  0  2  0  0  3  0  0  0  0  0  0
  191.3320  176.4380  147.0110 C   0  0  0  0  0  1  0  0  0  0  0  0
  188.3220  175.5830  145.8880 C   0  0  0  0  0  3  0  0  0  0  0  0
  189.5800  175.6470  145.4030 C   0  0  0  0  0  0  0  0  0  0  0  0
  187.7500  176.5460  146.8800 C   0  0  0  0  0  2  0  0  0  0  0  0
  186.3610  176.5760  146.7400 O   0  0  0  0  0  0  0  0  0  0  0  0
  185.9350  177.6570  147.5160 C   0  0  1  0  0  3  0  0  0  0  0  0
  187.0320  178.4750  147.7950 O   0  0  0  0  0  1  0  0  0  0  0  0
  184.8780  178.4440  146.7510 C   0  0  0  0  0  2  0  0  0  0  0  0
  184.4850  179.2790  144.4570 C   0  0  0  0  0  1  0  0  0  0  0  0
  185.4940  179.1990  145.5860 C   0  0  0  0  0  2  0  0  0  0  0  0
  190.0110  174.6400  144.3810 C   0  0  0  0  0  2  0  0  0  0  0  0
  189.8230  173.2850  144.8840 N   0  0  0  0  0  2  0  0  0  0  0  0
  190.5510  172.4170  143.9760 C   0  0  2  0  0  3  0  0  0  0  0  0
  191.5810  173.2120  143.2130 C   0  0  0  0  0  1  0  0  0  0  0  0
  189.6310  171.7750  143.0560 N   0  0  0  0  0  2  0  0  0  0  0  0
  190.9190  170.3070  139.2990 C   0  0  0  0  0  0  0  0  0  0  0  0
  191.2010  169.5720  140.4610 C   0  0  0  0  0  3  0  0  0  0  0  0
  190.0480  171.2560  141.7910 C   0  0  0  0  0  0  0  0  0  0  0  0
  189.7480  171.9710  140.6270 C   0  0  0  0  0  3  0  0  0  0  0  0
  190.1820  171.4990  139.3830 C   0  0  0  0  0  3  0  0  0  0  0  0
  190.7680  170.0460  141.7040 C   0  0  0  0  0  3  0  0  0  0  0  0
  191.3830  169.8100  137.9720 C   0  0  0  0  0  1  0  0  0  0  0  0
  190.2410  177.7250  142.5830 O   0  0  0  0  0  1  0  0  0  0  0  0
  190.8000  178.2480  143.7510 C   0  0  0  0  0  2  0  0  0  0  0  0
  1  3  2  0  0  0  0
  2  1  1  0  0  0  0
  4 20  1  6  0  0  0
  4  6  1  0  0  0  0
  4  1  1  0  0  0  0
  6  5  1  6  0  0  0
  7  9  1  0  0  0  0
  7  6  1  0  0  0  0
  9  8  1  6  0  0  0
  9 10  1  0  0  0  0
 10 11  2  0  0  0  0
 12 14  1  0  0  0  0
 13 16  2  0  0  0  0
 13 10  1  0  0  0  0
 14 13  1  0  0  0  0
 15 11  1  0  0  0  0
 15 18  1  1  0  0  0
 16 15  1  0  0  0  0
 18 17  1  0  0  0  0
 19 18  2  0  0  0  0
 21 20  1  0  0  0  0
 24 23  1  0  0  0  0
 24 21  1  1  0  0  0
 25 30  1  6  0  0  0
 25 24  1  0  0  0  0
 25 29  1  0  0  0  0
 27 26  1  0  0  0  0
 27 23  1  0  0  0  0
 28 22  1  6  0  0  0
 28 26  1  0  0  0  0
 28 25  1  0  0  0  0
 28 29  1  0  0  0  0
 31 56  1  1  0  0  0
 31  2  1  0  0  0  0
 31 32  1  0  0  0  0
 32 33  1  1  0  0  0
 34 36  1  0  0  0  0
 35 32  1  0  0  0  0
 35 34  2  0  0  0  0
 37 36  1  0  0  0  0
 37 38  1  0  0  0  0
 38 39  1  6  0  0  0
 40 38  1  0  0  0  0
 41 42  1  0  0  0  0
 42 40  1  0  0  0  0
 43 44  1  0  0  0  0
 43 35  1  0  0  0  0
 45 46  1  6  0  0  0
 45 44  1  0  0  0  0
 47 45  1  0  0  0  0
 48 52  2  0  0  0  0
 48 49  1  0  0  0  0
 49 53  2  0  0  0  0
 50 47  1  0  0  0  0
 51 50  2  0  0  0  0
 52 51  1  0  0  0  0
 53 50  1  0  0  0  0
 54 48  1  0  0  0  0
 55 56  1  0  0  0  0
M  END
>  <MODEL>
2

>  <REMARK>
 VINA RESULT:      -5.9      2.309      5.241
  Name = 
  23 active torsions:
  status: ('A' for Active; 'I' for Inactive)
    1  A    between atoms: C_1  and  C_11
    2  A    between atoms: C_1  and  CA_33
    3  A    between atoms: C_2  and  CA_13
    4  A    between atoms: N_5  and  CA_33
    5  A    between atoms: C_6  and  C_27
    6  A    between atoms: C_9  and  O_36
    7  A    between atoms: C_9  and  C_45
    8  A    between atoms: C_10  and  C_42
    9  A    between atoms: C_11  and  C_49
   10  A    between atoms: CA_13  and  C_38
   11  A    between atoms: CA_13  and  N_54
   12  A    between atoms: C_15  and  C_44
   13  A    between atoms: N_20  and  C_26
   14  A    between atoms: N_20  and  C_30
   15  A    between atoms: C_25  and  CA_33
   16  A    between atoms: C_26  and  N_52
   17  A    between atoms: C_27  and  C_35
   18  A    between atoms: C_28  and  C_45
   19  A    between atoms: C_35  and  C_38
   20  A    between atoms: O_36  and  C_42
   21  A    between atoms: CA_39  and  C_53
   22  A    between atoms: C_44  and  N_54
   23  A    between atoms: C_49  and  N_52
                            x       y       z     vdW  Elec       q    Type
                         _______ _______ _______ _____ _____    ______ ____

>  <TORSDO>
F 23

$$$$
=
 OpenBabel11072408293D

 56 59  0  0  1  0  0  0  0  0999 V2000
  190.9920  172.9580  144.3570 C   0  0  0  0  0  0  0  0  0  0  0  0
  192.0470  172.0190  144.1320 N   0  0  0  0  0  2  0  0  0  0  0  0
  190.4650  173.0320  145.4980 O   0  0  0  0  0  0  0  0  0  0  0  0
  190.4670  173.8100  143.2410 C   0  0  2  0  0  3  0  0  0  0  0  0
  191.0320  176.2010  142.6790 C   0  0  0  0  0  1  0  0  0  0  0  0
  190.3220  175.2820  143.6620 C   0  0  1  0  0  3  0  0  0  0  0  0
  188.8450  175.6600  143.6990 C   0  0  0  0  0  2  0  0  0  0  0  0
  188.1540  176.1520  145.9470 O   0  0  0  0  0  1  0  0  0  0  0  0
  188.5520  176.7340  144.7390 C   0  0  2  0  0  3  0  0  0  0  0  0
  187.4650  177.6270  144.2270 C   0  0  0  0  0  0  0  0  0  0  0  0
  187.2350  177.9050  142.9500 C   0  0  0  0  0  3  0  0  0  0  0  0
  185.4160  179.0210  147.2000 C   0  0  0  0  0  1  0  0  0  0  0  0
  186.4940  178.3340  145.0280 C   0  0  0  0  0  0  0  0  0  0  0  0
  186.4090  178.2680  146.4520 N   0  0  0  0  0  2  0  0  0  0  0  0
  186.0840  178.8710  142.8970 C   0  0  2  0  0  3  0  0  0  0  0  0
  185.6930  179.0380  144.2980 N   0  0  0  0  0  0  0  0  0  0  0  0
  183.8280  178.1070  142.5920 O   0  0  0  0  0  1  0  0  0  0  0  0
  184.9620  178.3120  142.0790 C   0  0  0  0  0  0  0  0  0  0  0  0
  185.1930  177.9590  140.7550 O   0  0  0  0  0  0  0  0  0  0  0  0
  189.1850  173.2750  142.7960 N   0  0  0  0  0  2  0  0  0  0  0  0
  189.4260  172.5110  141.5830 C   0  0  0  0  0  2  0  0  0  0  0  0
  187.8330  174.8510  137.4120 C   0  0  0  0  0  1  0  0  0  0  0  0
  190.8760  172.6240  139.5390 C   0  0  0  0  0  2  0  0  0  0  0  0
  189.9450  173.4060  140.4660 C   0  0  1  0  0  3  0  0  0  0  0  0
  188.7620  174.0430  139.7210 C   0  0  1  0  0  0  0  0  0  0  0  0
  189.6580  173.1440  137.5450 O   0  0  0  0  0  0  0  0  0  0  0  0
  190.9130  173.2850  138.1650 C   0  0  0  0  0  2  0  0  0  0  0  0
  188.7170  173.9390  138.2370 C   0  0  2  0  0  0  0  0  0  0  0  0
  187.9260  173.1160  139.0730 O   0  0  0  0  0  0  0  0  0  0  0  0
  188.0430  175.0590  140.3260 F   0  0  0  0  0  0  0  0  0  0  0  0
  192.9530  172.0250  142.9870 C   0  0  1  0  0  3  0  0  0  0  0  0
  194.3960  172.2290  143.4790 C   0  0  2  0  0  3  0  0  0  0  0  0
  194.5180  172.2450  145.0010 C   0  0  0  0  0  1  0  0  0  0  0  0
  194.9960  174.6800  143.3690 C   0  0  0  0  0  3  0  0  0  0  0  0
  195.0720  173.4310  142.8640 C   0  0  0  0  0  0  0  0  0  0  0  0
  194.1680  175.0630  144.5560 C   0  0  0  0  0  2  0  0  0  0  0  0
  194.9680  175.7560  145.4660 O   0  0  0  0  0  0  0  0  0  0  0  0
  194.1360  176.0280  146.5560 C   0  0  1  0  0  3  0  0  0  0  0  0
  194.3310  177.3510  146.9560 O   0  0  0  0  0  1  0  0  0  0  0  0
  192.6830  175.8140  146.1490 C   0  0  0  0  0  2  0  0  0  0  0  0
  191.2520  175.3880  148.1210 C   0  0  0  0  0  1  0  0  0  0  0  0
  191.7350  176.4500  147.1500 C   0  0  0  0  0  2  0  0  0  0  0  0
  195.9730  173.1780  141.6950 C   0  0  0  0  0  2  0  0  0  0  0  0
  196.1600  174.3980  140.9180 N   0  0  0  0  0  2  0  0  0  0  0  0
  195.5530  174.1430  139.6240 C   0  0  2  0  0  3  0  0  0  0  0  0
  194.0760  174.4440  139.6750 C   0  0  0  0  0  1  0  0  0  0  0  0
  195.7710  172.7620  139.2360 N   0  0  0  0  0  2  0  0  0  0  0  0
  193.0920  170.7230  136.6670 C   0  0  0  0  0  0  0  0  0  0  0  0
  193.8240  171.8140  136.1750 C   0  0  0  0  0  3  0  0  0  0  0  0
  194.8890  172.0650  138.3520 C   0  0  0  0  0  0  0  0  0  0  0  0
  194.1750  170.9610  138.8290 C   0  0  0  0  0  3  0  0  0  0  0  0
  193.2780  170.2910  137.9900 C   0  0  0  0  0  3  0  0  0  0  0  0
  194.7200  172.4860  137.0150 C   0  0  0  0  0  3  0  0  0  0  0  0
  192.1320  170.0090  135.7780 C   0  0  0  0  0  1  0  0  0  0  0  0
  191.6310  170.0940  142.4920 O   0  0  0  0  0  1  0  0  0  0  0  0
  192.8660  170.6960  142.2380 C   0  0  0  0  0  2  0  0  0  0  0  0
  1  3  2  0  0  0  0
  2  1  1  0  0  0  0
  4 20  1  1  0  0  0
  4  6  1  0  0  0  0
  4  1  1  0  0  0  0
  6  5  1  6  0  0  0
  6  7  1  0  0  0  0
  7  9  1  0  0  0  0
  9  8  1  1  0  0  0
 10  9  1  0  0  0  0
 10 13  1  0  0  0  0
 11 10  2  0  0  0  0
 13 14  1  0  0  0  0
 14 12  1  0  0  0  0
 15 18  1  6  0  0  0
 15 11  1  0  0  0  0
 15 16  1  0  0  0  0
 16 13  2  0  0  0  0
 18 17  1  0  0  0  0
 19 18  2  0  0  0  0
 21 20  1  0  0  0  0
 23 24  1  0  0  0  0
 24 21  1  1  0  0  0
 25 30  1  1  0  0  0
 25 24  1  0  0  0  0
 26 27  1  0  0  0  0
 26 28  1  0  0  0  0
 27 23  1  0  0  0  0
 28 22  1  6  0  0  0
 28 29  1  0  0  0  0
 28 25  1  0  0  0  0
 29 25  1  0  0  0  0
 31 56  1  1  0  0  0
 31 32  1  0  0  0  0
 31  2  1  0  0  0  0
 32 33  1  1  0  0  0
 34 36  1  0  0  0  0
 35 34  2  0  0  0  0
 35 32  1  0  0  0  0
 36 37  1  0  0  0  0
 37 38  1  0  0  0  0
 38 39  1  6  0  0  0
 40 38  1  0  0  0  0
 40 42  1  0  0  0  0
 42 41  1  0  0  0  0
 43 35  1  0  0  0  0
 44 43  1  0  0  0  0
 45 46  1  1  0  0  0
 45 44  1  0  0  0  0
 47 45  1  0  0  0  0
 48 52  1  0  0  0  0
 49 48  2  0  0  0  0
 49 53  1  0  0  0  0
 50 51  1  0  0  0  0
 50 47  1  0  0  0  0
 52 51  2  0  0  0  0
 53 50  2  0  0  0  0
 54 48  1  0  0  0  0
 56 55  1  0  0  0  0
M  END
>  <MODEL>
3

>  <REMARK>
 VINA RESULT:      -5.9      2.464      7.797
  Name = 
  23 active torsions:
  status: ('A' for Active; 'I' for Inactive)
    1  A    between atoms: C_1  and  C_11
    2  A    between atoms: C_1  and  CA_33
    3  A    between atoms: C_2  and  CA_13
    4  A    between atoms: N_5  and  CA_33
    5  A    between atoms: C_6  and  C_27
    6  A    between atoms: C_9  and  O_36
    7  A    between atoms: C_9  and  C_45
    8  A    between atoms: C_10  and  C_42
    9  A    between atoms: C_11  and  C_49
   10  A    between atoms: CA_13  and  C_38
   11  A    between atoms: CA_13  and  N_54
   12  A    between atoms: C_15  and  C_44
   13  A    between atoms: N_20  and  C_26
   14  A    between atoms: N_20  and  C_30
   15  A    between atoms: C_25  and  CA_33
   16  A    between atoms: C_26  and  N_52
   17  A    between atoms: C_27  and  C_35
   18  A    between atoms: C_28  and  C_45
   19  A    between atoms: C_35  and  C_38
   20  A    between atoms: O_36  and  C_42
   21  A    between atoms: CA_39  and  C_53
   22  A    between atoms: C_44  and  N_54
   23  A    between atoms: C_49  and  N_52
                            x       y       z     vdW  Elec       q    Type
                         _______ _______ _______ _____ _____    ______ ____

>  <TORSDO>
F 23

$$$$
=
 OpenBabel11072408293D

 56 59  0  0  1  0  0  0  0  0999 V2000
  191.2970  174.9030  142.0840 C   0  0  0  0  0  0  0  0  0  0  0  0
  190.4390  175.8680  142.6980 N   0  0  0  0  0  2  0  0  0  0  0  0
  192.4640  175.2380  141.7520 O   0  0  0  0  0  0  0  0  0  0  0  0
  190.8070  173.5200  141.7760 C   0  0  2  0  0  3  0  0  0  0  0  0
  191.2130  171.1000  142.3550 C   0  0  0  0  0  1  0  0  0  0  0  0
  191.1630  172.5240  142.8920 C   0  0  1  0  0  3  0  0  0  0  0  0
  192.5300  172.8710  143.4710 C   0  0  0  0  0  2  0  0  0  0  0  0
  194.0940  171.1230  143.9860 O   0  0  0  0  0  1  0  0  0  0  0  0
  193.6250  171.9450  142.9580 C   0  0  2  0  0  3  0  0  0  0  0  0
  194.7510  172.7710  142.4190 C   0  0  0  0  0  0  0  0  0  0  0  0
  194.9360  173.0810  141.1410 C   0  0  0  0  0  3  0  0  0  0  0  0
  197.0670  173.8690  145.3200 C   0  0  0  0  0  1  0  0  0  0  0  0
  195.8210  173.3620  143.1890 C   0  0  0  0  0  0  0  0  0  0  0  0
  195.9530  173.2640  144.6070 N   0  0  0  0  0  2  0  0  0  0  0  0
  196.2050  173.8820  141.0490 C   0  0  2  0  0  3  0  0  0  0  0  0
  196.6520  174.0060  142.4370 N   0  0  0  0  0  0  0  0  0  0  0  0
  195.3530  175.3210  139.3270 O   0  0  0  0  0  0  0  0  0  0  0  0
  195.9410  175.2230  140.4380 C   0  0  0  0  0  0  0  0  0  0  0  0
  196.4060  176.3670  141.0760 O   0  0  0  0  0  1  0  0  0  0  0  0
  191.3700  173.0870  140.5030 N   0  0  0  0  0  2  0  0  0  0  0  0
  190.3800  173.3520  139.4720 C   0  0  0  0  0  2  0  0  0  0  0  0
  190.6790  170.8360  135.1140 C   0  0  0  0  0  1  0  0  0  0  0  0
  192.5420  173.2270  138.2050 C   0  0  0  0  0  2  0  0  0  0  0  0
  191.0330  173.4510  138.0990 C   0  0  1  0  0  3  0  0  0  0  0  0
  190.3530  172.4700  137.1310 C   0  0  1  0  0  0  0  0  0  0  0  0
  192.5950  171.4500  136.6020 O   0  0  0  0  0  0  0  0  0  0  0  0
  193.0890  172.7410  136.8670 C   0  0  0  0  0  2  0  0  0  0  0  0
  191.2070  171.5370  136.3480 C   0  0  2  0  0  0  0  0  0  0  0  0
  190.4900  171.1180  137.4930 O   0  0  0  0  0  0  0  0  0  0  0  0
  189.0870  172.7560  136.6510 F   0  0  0  0  0  0  0  0  0  0  0  0
  189.2000  175.5650  143.4090 C   0  0  1  0  0  3  0  0  0  0  0  0
  188.9390  176.6540  144.4650 C   0  0  2  0  0  3  0  0  0  0  0  0
  190.0400  177.7080  144.5300 C   0  0  0  0  0  1  0  0  0  0  0  0
  189.5370  175.4460  146.6020 C   0  0  0  0  0  3  0  0  0  0  0  0
  188.6360  176.0950  145.8340 C   0  0  0  0  0  0  0  0  0  0  0  0
  190.9320  175.1190  146.1720 C   0  0  0  0  0  2  0  0  0  0  0  0
  191.8300  175.9050  146.8970 O   0  0  0  0  0  0  0  0  0  0  0  0
  193.0970  175.5430  146.4310 C   0  0  1  0  0  3  0  0  0  0  0  0
  193.2160  174.1520  146.4760 O   0  0  0  0  0  1  0  0  0  0  0  0
  193.2700  176.0350  144.9990 C   0  0  0  0  0  2  0  0  0  0  0  0
  194.8940  177.7200  145.8000 C   0  0  0  0  0  1  0  0  0  0  0  0
  194.6560  176.6190  144.7850 C   0  0  0  0  0  2  0  0  0  0  0  0
  187.2840  176.3950  146.4060 C   0  0  0  0  0  2  0  0  0  0  0  0
  187.2230  177.7720  146.8810 N   0  0  0  0  0  2  0  0  0  0  0  0
  185.8140  178.1210  146.9130 C   0  0  2  0  0  3  0  0  0  0  0  0
  184.9720  176.9050  146.6160 C   0  0  0  0  0  1  0  0  0  0  0  0
  185.5390  179.1680  145.9470 N   0  0  0  0  0  2  0  0  0  0  0  0
  184.7710  178.4270  141.8490 C   0  0  0  0  0  0  0  0  0  0  0  0
  186.0960  178.5740  142.2870 C   0  0  0  0  0  3  0  0  0  0  0  0
  185.2940  178.8930  144.5660 C   0  0  0  0  0  0  0  0  0  0  0  0
  183.9770  178.7200  144.1270 C   0  0  0  0  0  3  0  0  0  0  0  0
  183.7140  178.4890  142.7730 C   0  0  0  0  0  3  0  0  0  0  0  0
  186.3580  178.8080  143.6420 C   0  0  0  0  0  3  0  0  0  0  0  0
  184.4860  178.1850  140.4060 C   0  0  0  0  0  1  0  0  0  0  0  0
  187.5530  174.2200  142.3140 O   0  0  0  0  0  1  0  0  0  0  0  0
  188.0270  175.5280  142.4320 C   0  0  0  0  0  2  0  0  0  0  0  0
  1  2  1  0  0  0  0
  2 31  1  0  0  0  0
  3  1  2  0  0  0  0
  4 20  1  6  0  0  0
  4  1  1  0  0  0  0
  4  6  1  0  0  0  0
  6  5  1  6  0  0  0
  6  7  1  0  0  0  0
  9  7  1  0  0  0  0
  9  8  1  1  0  0  0
 10  9  1  0  0  0  0
 10 13  1  0  0  0  0
 11 10  2  0  0  0  0
 13 14  1  0  0  0  0
 14 12  1  0  0  0  0
 15 18  1  1  0  0  0
 15 11  1  0  0  0  0
 15 16  1  0  0  0  0
 16 13  2  0  0  0  0
 17 18  2  0  0  0  0
 18 19  1  0  0  0  0
 21 20  1  0  0  0  0
 24 23  1  0  0  0  0
 24 21  1  1  0  0  0
 25 30  1  6  0  0  0
 25 29  1  0  0  0  0
 25 24  1  0  0  0  0
 26 27  1  0  0  0  0
 27 23  1  0  0  0  0
 28 22  1  6  0  0  0
 28 26  1  0  0  0  0
 28 25  1  0  0  0  0
 28 29  1  0  0  0  0
 31 56  1  6  0  0  0
 31 32  1  0  0  0  0
 32 33  1  1  0  0  0
 32 35  1  0  0  0  0
 35 43  1  0  0  0  0
 35 34  2  0  0  0  0
 36 34  1  0  0  0  0
 36 37  1  0  0  0  0
 38 39  1  6  0  0  0
 38 37  1  0  0  0  0
 40 38  1  0  0  0  0
 42 40  1  0  0  0  0
 42 41  1  0  0  0  0
 43 44  1  0  0  0  0
 44 45  1  0  0  0  0
 45 46  1  6  0  0  0
 47 45  1  0  0  0  0
 48 49  2  0  0  0  0
 48 52  1  0  0  0  0
 49 53  1  0  0  0  0
 50 47  1  0  0  0  0
 51 50  1  0  0  0  0
 52 51  2  0  0  0  0
 53 50  2  0  0  0  0
 54 48  1  0  0  0  0
 55 56  1  0  0  0  0
M  END
>  <MODEL>
4

>  <REMARK>
 VINA RESULT:      -5.9      2.334      5.786
  Name = 
  23 active torsions:
  status: ('A' for Active; 'I' for Inactive)
    1  A    between atoms: C_1  and  C_11
    2  A    between atoms: C_1  and  CA_33
    3  A    between atoms: C_2  and  CA_13
    4  A    between atoms: N_5  and  CA_33
    5  A    between atoms: C_6  and  C_27
    6  A    between atoms: C_9  and  O_36
    7  A    between atoms: C_9  and  C_45
    8  A    between atoms: C_10  and  C_42
    9  A    between atoms: C_11  and  C_49
   10  A    between atoms: CA_13  and  C_38
   11  A    between atoms: CA_13  and  N_54
   12  A    between atoms: C_15  and  C_44
   13  A    between atoms: N_20  and  C_26
   14  A    between atoms: N_20  and  C_30
   15  A    between atoms: C_25  and  CA_33
   16  A    between atoms: C_26  and  N_52
   17  A    between atoms: C_27  and  C_35
   18  A    between atoms: C_28  and  C_45
   19  A    between atoms: C_35  and  C_38
   20  A    between atoms: O_36  and  C_42
   21  A    between atoms: CA_39  and  C_53
   22  A    between atoms: C_44  and  N_54
   23  A    between atoms: C_49  and  N_52
                            x       y       z     vdW  Elec       q    Type
                         _______ _______ _______ _____ _____    ______ ____

>  <TORSDO>
F 23

$$$$
=
 OpenBabel11072408293D

 56 59  0  0  1  0  0  0  0  0999 V2000
  191.2060  172.9210  144.2430 C   0  0  0  0  0  0  0  0  0  0  0  0
  192.2050  171.9220  144.0230 N   0  0  0  0  0  2  0  0  0  0  0  0
  190.6640  173.0140  145.3760 O   0  0  0  0  0  0  0  0  0  0  0  0
  190.7530  173.8180  143.1300 C   0  0  2  0  0  3  0  0  0  0  0  0
  191.8180  176.0760  142.7840 C   0  0  0  0  0  1  0  0  0  0  0  0
  190.7560  175.2970  143.5470 C   0  0  1  0  0  3  0  0  0  0  0  0
  189.3940  175.9160  143.2500 C   0  0  0  0  0  2  0  0  0  0  0  0
  188.3200  175.7220  145.3890 O   0  0  0  0  0  1  0  0  0  0  0  0
  188.8140  176.6390  144.4580 C   0  0  2  0  0  3  0  0  0  0  0  0
  187.7090  177.5410  144.0040 C   0  0  0  0  0  0  0  0  0  0  0  0
  187.5100  177.9460  142.7550 C   0  0  0  0  0  3  0  0  0  0  0  0
  185.5070  178.5300  147.0290 C   0  0  0  0  0  1  0  0  0  0  0  0
  186.6830  178.1210  144.8380 C   0  0  0  0  0  0  0  0  0  0  0  0
  186.5540  177.8990  146.2430 N   0  0  0  0  0  2  0  0  0  0  0  0
  186.3220  178.8680  142.7620 C   0  0  2  0  0  3  0  0  0  0  0  0
  185.8780  178.8690  144.1570 N   0  0  0  0  0  0  0  0  0  0  0  0
  184.0870  178.1390  142.2780 O   0  0  0  0  0  1  0  0  0  0  0  0
  185.2520  178.3590  141.8490 C   0  0  0  0  0  0  0  0  0  0  0  0
  185.5650  178.0690  140.5260 O   0  0  0  0  0  0  0  0  0  0  0  0
  189.4210  173.4080  142.7010 N   0  0  0  0  0  2  0  0  0  0  0  0
  189.5760  172.5830  141.5140 C   0  0  0  0  0  2  0  0  0  0  0  0
  187.9900  174.6280  137.1880 C   0  0  0  0  0  1  0  0  0  0  0  0
  191.0340  172.5650  139.4720 C   0  0  0  0  0  2  0  0  0  0  0  0
  190.0960  173.4040  140.3410 C   0  0  1  0  0  3  0  0  0  0  0  0
  188.9130  173.9820  139.5500 C   0  0  1  0  0  0  0  0  0  0  0  0
  189.8220  172.9430  137.4440 O   0  0  0  0  0  0  0  0  0  0  0  0
  191.0740  173.1310  138.0570 C   0  0  0  0  0  2  0  0  0  0  0  0
  188.8740  173.7780  138.0770 C   0  0  2  0  0  0  0  0  0  0  0  0
  188.0830  173.0100  138.9630 O   0  0  0  0  0  0  0  0  0  0  0  0
  188.1870  175.0330  140.0830 F   0  0  0  0  0  0  0  0  0  0  0  0
  193.1290  171.8870  142.8930 C   0  0  1  0  0  3  0  0  0  0  0  0
  194.5760  171.9270  143.4160 C   0  0  2  0  0  3  0  0  0  0  0  0
  194.6710  171.8260  144.9360 C   0  0  0  0  0  1  0  0  0  0  0  0
  195.3550  174.3300  143.4630 C   0  0  0  0  0  3  0  0  0  0  0  0
  195.3640  173.1050  142.8960 C   0  0  0  0  0  0  0  0  0  0  0  0
  194.5020  174.7120  144.6320 C   0  0  0  0  0  2  0  0  0  0  0  0
  194.8140  176.0170  145.0180 O   0  0  0  0  0  0  0  0  0  0  0  0
  194.4600  176.0970  146.3680 C   0  0  1  0  0  3  0  0  0  0  0  0
  194.4350  177.4400  146.7510 O   0  0  0  0  0  1  0  0  0  0  0  0
  193.0850  175.4720  146.5680 C   0  0  0  0  0  2  0  0  0  0  0  0
  190.8070  175.7480  147.4920 C   0  0  0  0  0  1  0  0  0  0  0  0
  192.1520  176.4220  147.2980 C   0  0  0  0  0  2  0  0  0  0  0  0
  196.3000  172.8450  141.7550 C   0  0  0  0  0  2  0  0  0  0  0  0
  197.5860  173.4890  141.9900 N   0  0  0  0  0  2  0  0  0  0  0  0
  197.9360  174.1480  140.7450 C   0  0  2  0  0  3  0  0  0  0  0  0
  197.6640  175.6290  140.8480 C   0  0  0  0  0  1  0  0  0  0  0  0
  197.1790  173.5740  139.6480 N   0  0  0  0  0  2  0  0  0  0  0  0
  196.3990  175.6340  136.0310 C   0  0  0  0  0  0  0  0  0  0  0  0
  195.3680  175.4710  136.9690 C   0  0  0  0  0  3  0  0  0  0  0  0
  196.9100  174.2940  138.4420 C   0  0  0  0  0  0  0  0  0  0  0  0
  197.9410  174.4820  137.5150 C   0  0  0  0  0  3  0  0  0  0  0  0
  197.6870  175.1500  136.3120 C   0  0  0  0  0  3  0  0  0  0  0  0
  195.6210  174.8010  138.1710 C   0  0  0  0  0  3  0  0  0  0  0  0
  196.1320  176.3410  134.7460 C   0  0  0  0  0  1  0  0  0  0  0  0
  191.9950  169.7870  142.7290 O   0  0  0  0  0  1  0  0  0  0  0  0
  192.9270  170.6050  142.0870 C   0  0  0  0  0  2  0  0  0  0  0  0
  1  3  2  0  0  0  0
  2  1  1  0  0  0  0
  4 20  1  1  0  0  0
  4  6  1  0  0  0  0
  4  1  1  0  0  0  0
  6  5  1  6  0  0  0
  7  6  1  0  0  0  0
  7  9  1  0  0  0  0
  9  8  1  1  0  0  0
 10  9  1  0  0  0  0
 10 13  1  0  0  0  0
 11 15  1  0  0  0  0
 11 10  2  0  0  0  0
 13 14  1  0  0  0  0
 14 12  1  0  0  0  0
 15 18  1  6  0  0  0
 15 16  1  0  0  0  0
 16 13  2  0  0  0  0
 18 17  1  0  0  0  0
 19 18  2  0  0  0  0
 21 20  1  0  0  0  0
 23 24  1  0  0  0  0
 24 21  1  1  0  0  0
 25 30  1  1  0  0  0
 25 24  1  0  0  0  0
 26 27  1  0  0  0  0
 26 28  1  0  0  0  0
 27 23  1  0  0  0  0
 28 22  1  6  0  0  0
 28 29  1  0  0  0  0
 28 25  1  0  0  0  0
 29 25  1  0  0  0  0
 31 56  1  1  0  0  0
 31 32  1  0  0  0  0
 31  2  1  0  0  0  0
 32 33  1  1  0  0  0
 34 36  1  0  0  0  0
 35 32  1  0  0  0  0
 35 34  2  0  0  0  0
 36 37  1  0  0  0  0
 37 38  1  0  0  0  0
 38 40  1  0  0  0  0
 38 39  1  6  0  0  0
 40 42  1  0  0  0  0
 42 41  1  0  0  0  0
 43 44  1  0  0  0  0
 43 35  1  0  0  0  0
 45 46  1  1  0  0  0
 45 44  1  0  0  0  0
 47 45  1  0  0  0  0
 48 52  2  0  0  0  0
 48 49  1  0  0  0  0
 49 53  2  0  0  0  0
 50 47  1  0  0  0  0
 51 50  2  0  0  0  0
 52 51  1  0  0  0  0
 53 50  1  0  0  0  0
 54 48  1  0  0  0  0
 56 55  1  0  0  0  0
M  END
>  <MODEL>
5

>  <REMARK>
 VINA RESULT:      -5.8      2.867      7.654
  Name = 
  23 active torsions:
  status: ('A' for Active; 'I' for Inactive)
    1  A    between atoms: C_1  and  C_11
    2  A    between atoms: C_1  and  CA_33
    3  A    between atoms: C_2  and  CA_13
    4  A    between atoms: N_5  and  CA_33
    5  A    between atoms: C_6  and  C_27
    6  A    between atoms: C_9  and  O_36
    7  A    between atoms: C_9  and  C_45
    8  A    between atoms: C_10  and  C_42
    9  A    between atoms: C_11  and  C_49
   10  A    between atoms: CA_13  and  C_38
   11  A    between atoms: CA_13  and  N_54
   12  A    between atoms: C_15  and  C_44
   13  A    between atoms: N_20  and  C_26
   14  A    between atoms: N_20  and  C_30
   15  A    between atoms: C_25  and  CA_33
   16  A    between atoms: C_26  and  N_52
   17  A    between atoms: C_27  and  C_35
   18  A    between atoms: C_28  and  C_45
   19  A    between atoms: C_35  and  C_38
   20  A    between atoms: O_36  and  C_42
   21  A    between atoms: CA_39  and  C_53
   22  A    between atoms: C_44  and  N_54
   23  A    between atoms: C_49  and  N_52
                            x       y       z     vdW  Elec       q    Type
                         _______ _______ _______ _____ _____    ______ ____

>  <TORSDO>
F 23

$$$$
=
 OpenBabel11072408293D

 56 59  0  0  1  0  0  0  0  0999 V2000
  192.2020  172.7520  142.0970 C   0  0  0  0  0  0  0  0  0  0  0  0
  191.1860  173.7530  142.1930 N   0  0  0  0  0  2  0  0  0  0  0  0
  193.1760  172.9330  141.3200 O   0  0  0  0  0  0  0  0  0  0  0  0
  192.0940  171.4670  142.8620 C   0  0  2  0  0  3  0  0  0  0  0  0
  194.3700  170.5930  143.5040 C   0  0  0  0  0  1  0  0  0  0  0  0
  193.1500  171.3710  143.9760 C   0  0  1  0  0  3  0  0  0  0  0  0
  193.5950  172.7730  144.3800 C   0  0  0  0  0  2  0  0  0  0  0  0
  195.5080  172.9690  145.8200 O   0  0  0  0  0  1  0  0  0  0  0  0
  195.1100  172.8880  144.4820 C   0  0  2  0  0  3  0  0  0  0  0  0
  195.5580  174.1130  143.7480 C   0  0  0  0  0  0  0  0  0  0  0  0
  196.2040  174.1230  142.5880 C   0  0  0  0  0  3  0  0  0  0  0  0
  194.5570  177.2710  145.7510 C   0  0  0  0  0  1  0  0  0  0  0  0
  195.3710  175.4800  144.1750 C   0  0  0  0  0  0  0  0  0  0  0  0
  194.6960  175.8740  145.3700 N   0  0  0  0  0  2  0  0  0  0  0  0
  196.4940  175.5580  142.2440 C   0  0  2  0  0  3  0  0  0  0  0  0
  195.8820  176.3180  143.3350 N   0  0  0  0  0  0  0  0  0  0  0  0
  194.7170  176.3720  140.8500 O   0  0  0  0  0  1  0  0  0  0  0  0
  195.8910  175.9170  140.9220 C   0  0  0  0  0  0  0  0  0  0  0  0
  196.6130  175.6860  139.7570 O   0  0  0  0  0  0  0  0  0  0  0  0
  192.2230  170.3490  141.9350 N   0  0  0  0  0  2  0  0  0  0  0  0
  190.9800  170.2520  141.1870 C   0  0  0  0  0  2  0  0  0  0  0  0
  189.5400  171.9740  136.6740 C   0  0  0  0  0  1  0  0  0  0  0  0
  190.6860  168.6880  139.2480 C   0  0  0  0  0  2  0  0  0  0  0  0
  191.2500  170.0340  139.7040 C   0  0  1  0  0  3  0  0  0  0  0  0
  190.6920  171.2160  138.8970 C   0  0  1  0  0  0  0  0  0  0  0  0
  189.3610  169.6130  137.4820 O   0  0  0  0  0  0  0  0  0  0  0  0
  190.4160  168.7210  137.7470 C   0  0  0  0  0  2  0  0  0  0  0  0
  189.8030  170.9300  137.7390 C   0  0  2  0  0  0  0  0  0  0  0  0
  189.2960  171.3640  138.9860 O   0  0  0  0  0  0  0  0  0  0  0  0
  191.3490  172.4330  138.9310 F   0  0  0  0  0  0  0  0  0  0  0  0
  190.1820  173.8380  143.2500 C   0  0  1  0  0  3  0  0  0  0  0  0
  189.3160  175.0910  143.0310 C   0  0  2  0  0  3  0  0  0  0  0  0
  188.9140  175.3000  141.5730 C   0  0  0  0  0  1  0  0  0  0  0  0
  189.5640  177.5950  143.2580 C   0  0  0  0  0  3  0  0  0  0  0  0
  189.9230  176.3440  143.6150 C   0  0  0  0  0  0  0  0  0  0  0  0
  188.5790  177.9140  142.1780 C   0  0  0  0  0  2  0  0  0  0  0  0
  187.3970  178.3770  142.7610 O   0  0  0  0  0  0  0  0  0  0  0  0
  186.5450  178.6620  141.6900 C   0  0  1  0  0  3  0  0  0  0  0  0
  186.9650  177.9400  140.5710 O   0  0  0  0  0  1  0  0  0  0  0  0
  185.1190  178.2690  142.0580 C   0  0  0  0  0  2  0  0  0  0  0  0
  183.2300  178.6620  140.5110 C   0  0  0  0  0  1  0  0  0  0  0  0
  184.3720  177.7250  140.8530 C   0  0  0  0  0  2  0  0  0  0  0  0
  190.8920  176.1660  144.7440 C   0  0  0  0  0  2  0  0  0  0  0  0
  190.7750  177.2610  145.6980 N   0  0  0  0  0  2  0  0  0  0  0  0
  190.3460  176.6580  146.9480 C   0  0  2  0  0  3  0  0  0  0  0  0
  191.3940  175.6930  147.4440 C   0  0  0  0  0  1  0  0  0  0  0  0
  189.0810  175.9730  146.7610 N   0  0  0  0  0  2  0  0  0  0  0  0
  185.3780  177.9780  146.3160 C   0  0  0  0  0  0  0  0  0  0  0  0
  186.3000  178.4340  147.2710 C   0  0  0  0  0  3  0  0  0  0  0  0
  187.8450  176.6740  146.6020 C   0  0  0  0  0  0  0  0  0  0  0  0
  186.9330  176.2400  145.6340 C   0  0  0  0  0  3  0  0  0  0  0  0
  185.7020  176.8890  145.4910 C   0  0  0  0  0  3  0  0  0  0  0  0
  187.5300  177.7830  147.4160 C   0  0  0  0  0  3  0  0  0  0  0  0
  184.0630  178.6650  146.1630 C   0  0  0  0  0  1  0  0  0  0  0  0
  189.4110  171.9030  144.4260 O   0  0  0  0  0  1  0  0  0  0  0  0
  189.2830  172.6020  143.2240 C   0  0  0  0  0  2  0  0  0  0  0  0
  1  2  1  0  0  0  0
  1  4  1  0  0  0  0
  2 31  1  0  0  0  0
  3  1  2  0  0  0  0
  4 20  1  6  0  0  0
  4  6  1  0  0  0  0
  6  5  1  6  0  0  0
  6  7  1  0  0  0  0
  7  9  1  0  0  0  0
  9  8  1  1  0  0  0
 10 13  1  0  0  0  0
 10  9  1  0  0  0  0
 11 10  2  0  0  0  0
 13 14  1  0  0  0  0
 14 12  1  0  0  0  0
 15 18  1  6  0  0  0
 15 11  1  0  0  0  0
 15 16  1  0  0  0  0
 16 13  2  0  0  0  0
 17 18  1  0  0  0  0
 19 18  2  0  0  0  0
 21 20  1  0  0  0  0
 23 24  1  0  0  0  0
 24 21  1  1  0  0  0
 25 30  1  6  0  0  0
 25 29  1  0  0  0  0
 25 24  1  0  0  0  0
 26 28  1  0  0  0  0
 26 27  1  0  0  0  0
 27 23  1  0  0  0  0
 28 22  1  6  0  0  0
 28 25  1  0  0  0  0
 28 29  1  0  0  0  0
 31 56  1  6  0  0  0
 32 33  1  6  0  0  0
 32 31  1  0  0  0  0
 32 35  1  0  0  0  0
 34 35  2  0  0  0  0
 35 43  1  0  0  0  0
 36 37  1  0  0  0  0
 36 34  1  0  0  0  0
 38 39  1  6  0  0  0
 38 40  1  0  0  0  0
 38 37  1  0  0  0  0
 41 42  1  0  0  0  0
 42 40  1  0  0  0  0
 43 44  1  0  0  0  0
 44 45  1  0  0  0  0
 45 46  1  6  0  0  0
 47 45  1  0  0  0  0
 48 49  1  0  0  0  0
 49 53  2  0  0  0  0
 50 47  1  0  0  0  0
 50 53  1  0  0  0  0
 51 50  2  0  0  0  0
 52 51  1  0  0  0  0
 52 48  2  0  0  0  0
 54 48  1  0  0  0  0
 56 55  1  0  0  0  0
M  END
>  <MODEL>
6

>  <REMARK>
 VINA RESULT:      -5.4      2.282      5.337
  Name = 
  23 active torsions:
  status: ('A' for Active; 'I' for Inactive)
    1  A    between atoms: C_1  and  C_11
    2  A    between atoms: C_1  and  CA_33
    3  A    between atoms: C_2  and  CA_13
    4  A    between atoms: N_5  and  CA_33
    5  A    between atoms: C_6  and  C_27
    6  A    between atoms: C_9  and  O_36
    7  A    between atoms: C_9  and  C_45
    8  A    between atoms: C_10  and  C_42
    9  A    between atoms: C_11  and  C_49
   10  A    between atoms: CA_13  and  C_38
   11  A    between atoms: CA_13  and  N_54
   12  A    between atoms: C_15  and  C_44
   13  A    between atoms: N_20  and  C_26
   14  A    between atoms: N_20  and  C_30
   15  A    between atoms: C_25  and  CA_33
   16  A    between atoms: C_26  and  N_52
   17  A    between atoms: C_27  and  C_35
   18  A    between atoms: C_28  and  C_45
   19  A    between atoms: C_35  and  C_38
   20  A    between atoms: O_36  and  C_42
   21  A    between atoms: CA_39  and  C_53
   22  A    between atoms: C_44  and  N_54
   23  A    between atoms: C_49  and  N_52
                            x       y       z     vdW  Elec       q    Type
                         _______ _______ _______ _____ _____    ______ ____

>  <TORSDO>
F 23

$$$$
=
 OpenBabel11072408293D

 56 59  0  0  1  0  0  0  0  0999 V2000
  193.2410  172.9480  143.9740 C   0  0  0  0  0  0  0  0  0  0  0  0
  193.2970  174.1430  144.7570 N   0  0  0  0  0  2  0  0  0  0  0  0
  192.4610  172.0210  144.3160 O   0  0  0  0  0  0  0  0  0  0  0  0
  194.1400  172.7600  142.7890 C   0  0  2  0  0  3  0  0  0  0  0  0
  193.3590  174.2510  140.9110 C   0  0  0  0  0  1  0  0  0  0  0  0
  193.3640  172.8320  141.4630 C   0  0  1  0  0  3  0  0  0  0  0  0
  194.0200  171.9150  140.4360 C   0  0  0  0  0  2  0  0  0  0  0  0
  193.8170  169.6850  139.5680 O   0  0  0  0  0  1  0  0  0  0  0  0
  193.0860  170.8040  139.9770 C   0  0  2  0  0  3  0  0  0  0  0  0
  192.2520  171.3040  138.8390 C   0  0  0  0  0  0  0  0  0  0  0  0
  190.9300  171.4330  138.8520 C   0  0  0  0  0  3  0  0  0  0  0  0
  194.5310  172.1640  135.8320 C   0  0  0  0  0  1  0  0  0  0  0  0
  192.7360  171.7240  137.5450 C   0  0  0  0  0  0  0  0  0  0  0  0
  194.1110  171.7470  137.1600 N   0  0  0  0  0  2  0  0  0  0  0  0
  190.5110  171.9250  137.4940 C   0  0  2  0  0  3  0  0  0  0  0  0
  191.7710  172.0910  136.7680 N   0  0  0  0  0  0  0  0  0  0  0  0
  190.2240  174.2720  137.0790 O   0  0  0  0  0  0  0  0  0  0  0  0
  189.7700  173.2200  137.6060 C   0  0  0  0  0  0  0  0  0  0  0  0
  188.5980  173.2740  138.3530 O   0  0  0  0  0  1  0  0  0  0  0  0
  194.8290  171.4810  142.9110 N   0  0  0  0  0  2  0  0  0  0  0  0
  195.7650  171.5910  144.0180 C   0  0  0  0  0  2  0  0  0  0  0  0
  194.2010  168.1660  147.3700 C   0  0  0  0  0  1  0  0  0  0  0  0
  197.4130  170.2970  145.3990 C   0  0  0  0  0  2  0  0  0  0  0  0
  196.1390  170.2160  144.5570 C   0  0  1  0  0  3  0  0  0  0  0  0
  194.9520  169.6230  145.3310 C   0  0  1  0  0  0  0  0  0  0  0  0
  196.4350  169.2930  147.3390 O   0  0  0  0  0  0  0  0  0  0  0  0
  197.4570  169.1340  146.3850 C   0  0  0  0  0  2  0  0  0  0  0  0
  195.1860  169.1050  146.7050 C   0  0  2  0  0  0  0  0  0  0  0  0
  194.5820  170.3620  146.4690 O   0  0  0  0  0  0  0  0  0  0  0  0
  193.8520  169.1530  144.6340 F   0  0  0  0  0  0  0  0  0  0  0  0
  193.8990  175.4030  144.3340 C   0  0  1  0  0  3  0  0  0  0  0  0
  193.3650  176.5460  145.2150 C   0  0  2  0  0  3  0  0  0  0  0  0
  194.0480  176.6250  146.5780 C   0  0  0  0  0  1  0  0  0  0  0  0
  191.0070  176.8080  144.3470 C   0  0  0  0  0  3  0  0  0  0  0  0
  191.8620  176.5370  145.3560 C   0  0  0  0  0  0  0  0  0  0  0  0
  191.4280  177.2340  142.9760 C   0  0  0  0  0  2  0  0  0  0  0  0
  190.6350  176.5800  142.0310 O   0  0  0  0  0  0  0  0  0  0  0  0
  189.3450  176.5800  142.5680 C   0  0  1  0  0  3  0  0  0  0  0  0
  188.6600  177.7040  142.1020 O   0  0  0  0  0  1  0  0  0  0  0  0
  188.6180  175.3110  142.1400 C   0  0  0  0  0  2  0  0  0  0  0  0
  189.9250  173.2210  141.9310 C   0  0  0  0  0  1  0  0  0  0  0  0
  189.1430  174.0990  142.8900 C   0  0  0  0  0  2  0  0  0  0  0  0
  191.3070  176.0790  146.6700 C   0  0  0  0  0  2  0  0  0  0  0  0
  190.1360  176.8680  147.0350 N   0  0  0  0  0  2  0  0  0  0  0  0
  189.0690  175.9130  147.2720 C   0  0  2  0  0  3  0  0  0  0  0  0
  189.6480  174.5530  147.5720 C   0  0  0  0  0  1  0  0  0  0  0  0
  188.1980  175.8420  146.1130 N   0  0  0  0  0  2  0  0  0  0  0  0
  184.7110  178.2050  145.6820 C   0  0  0  0  0  0  0  0  0  0  0  0
  185.2890  178.0540  146.9520 C   0  0  0  0  0  3  0  0  0  0  0  0
  187.0360  176.6640  145.9760 C   0  0  0  0  0  0  0  0  0  0  0  0
  186.4690  176.8400  144.7090 C   0  0  0  0  0  3  0  0  0  0  0  0
  185.3090  177.6080  144.5620 C   0  0  0  0  0  3  0  0  0  0  0  0
  186.4480  177.2830  147.1000 C   0  0  0  0  0  3  0  0  0  0  0  0
  183.4720  179.0190  145.5210 C   0  0  0  0  0  1  0  0  0  0  0  0
  196.0170  176.1680  143.5270 O   0  0  0  0  0  1  0  0  0  0  0  0
  195.4190  175.3350  144.4740 C   0  0  0  0  0  2  0  0  0  0  0  0
  1  3  2  0  0  0  0
  1  2  1  0  0  0  0
  4 20  1  1  0  0  0
  4  1  1  0  0  0  0
  6  5  1  6  0  0  0
  6  4  1  0  0  0  0
  7  6  1  0  0  0  0
  9  8  1  6  0  0  0
  9  7  1  0  0  0  0
 10 11  2  0  0  0  0
 10  9  1  0  0  0  0
 12 14  1  0  0  0  0
 13 10  1  0  0  0  0
 14 13  1  0  0  0  0
 15 18  1  1  0  0  0
 15 11  1  0  0  0  0
 16 15  1  0  0  0  0
 16 13  2  0  0  0  0
 17 18  2  0  0  0  0
 18 19  1  0  0  0  0
 20 21  1  0  0  0  0
 23 27  1  0  0  0  0
 24 21  1  1  0  0  0
 24 25  1  0  0  0  0
 24 23  1  0  0  0  0
 25 30  1  6  0  0  0
 25 29  1  0  0  0  0
 25 28  1  0  0  0  0
 27 26  1  0  0  0  0
 28 26  1  0  0  0  0
 28 22  1  1  0  0  0
 29 28  1  0  0  0  0
 31 56  1  1  0  0  0
 31  2  1  0  0  0  0
 31 32  1  0  0  0  0
 32 35  1  0  0  0  0
 32 33  1  1  0  0  0
 34 35  2  0  0  0  0
 35 43  1  0  0  0  0
 36 34  1  0  0  0  0
 37 38  1  0  0  0  0
 37 36  1  0  0  0  0
 38 39  1  6  0  0  0
 40 38  1  0  0  0  0
 40 42  1  0  0  0  0
 41 42  1  0  0  0  0
 43 44  1  0  0  0  0
 44 45  1  0  0  0  0
 45 46  1  6  0  0  0
 47 45  1  0  0  0  0
 48 49  1  0  0  0  0
 49 53  2  0  0  0  0
 50 47  1  0  0  0  0
 50 53  1  0  0  0  0
 51 50  2  0  0  0  0
 52 51  1  0  0  0  0
 52 48  2  0  0  0  0
 54 48  1  0  0  0  0
 55 56  1  0  0  0  0
M  END
>  <MODEL>
7

>  <REMARK>
 VINA RESULT:      -5.4      2.490      7.402
  Name = 
  23 active torsions:
  status: ('A' for Active; 'I' for Inactive)
    1  A    between atoms: C_1  and  C_11
    2  A    between atoms: C_1  and  CA_33
    3  A    between atoms: C_2  and  CA_13
    4  A    between atoms: N_5  and  CA_33
    5  A    between atoms: C_6  and  C_27
    6  A    between atoms: C_9  and  O_36
    7  A    between atoms: C_9  and  C_45
    8  A    between atoms: C_10  and  C_42
    9  A    between atoms: C_11  and  C_49
   10  A    between atoms: CA_13  and  C_38
   11  A    between atoms: CA_13  and  N_54
   12  A    between atoms: C_15  and  C_44
   13  A    between atoms: N_20  and  C_26
   14  A    between atoms: N_20  and  C_30
   15  A    between atoms: C_25  and  CA_33
   16  A    between atoms: C_26  and  N_52
   17  A    between atoms: C_27  and  C_35
   18  A    between atoms: C_28  and  C_45
   19  A    between atoms: C_35  and  C_38
   20  A    between atoms: O_36  and  C_42
   21  A    between atoms: CA_39  and  C_53
   22  A    between atoms: C_44  and  N_54
   23  A    between atoms: C_49  and  N_52
                            x       y       z     vdW  Elec       q    Type
                         _______ _______ _______ _____ _____    ______ ____

>  <TORSDO>
F 23

$$$$
=
 OpenBabel11072408293D

 56 59  0  0  1  0  0  0  0  0999 V2000
  191.1870  170.0390  141.6970 C   0  0  0  0  0  0  0  0  0  0  0  0
  190.4110  170.7800  142.6430 N   0  0  0  0  0  2  0  0  0  0  0  0
  190.7350  168.9550  141.2430 O   0  0  0  0  0  0  0  0  0  0  0  0
  192.5520  170.5030  141.2870 C   0  0  2  0  0  3  0  0  0  0  0  0
  193.4180  172.5590  140.1120 C   0  0  0  0  0  1  0  0  0  0  0  0
  192.5090  171.3430  140.0000 C   0  0  1  0  0  3  0  0  0  0  0  0
  192.9770  170.4960  138.8210 C   0  0  0  0  0  2  0  0  0  0  0  0
  192.2230  168.9700  137.1270 O   0  0  0  0  0  1  0  0  0  0  0  0
  191.8150  170.0120  137.9630 C   0  0  2  0  0  3  0  0  0  0  0  0
  191.3090  171.1530  137.1370 C   0  0  0  0  0  0  0  0  0  0  0  0
  190.0620  171.6110  137.1380 C   0  0  0  0  0  3  0  0  0  0  0  0
  194.1870  172.5730  134.9730 C   0  0  0  0  0  1  0  0  0  0  0  0
  192.0800  171.9390  136.2030 C   0  0  0  0  0  0  0  0  0  0  0  0
  193.4720  171.7570  135.9420 N   0  0  0  0  0  2  0  0  0  0  0  0
  189.9900  172.7270  136.1330 C   0  0  2  0  0  3  0  0  0  0  0  0
  191.3590  172.8450  135.6290 N   0  0  0  0  0  0  0  0  0  0  0  0
  189.6880  174.1770  138.0220 O   0  0  0  0  0  1  0  0  0  0  0  0
  189.5360  173.9960  136.7840 C   0  0  0  0  0  0  0  0  0  0  0  0
  188.8850  174.9590  136.0220 O   0  0  0  0  0  0  0  0  0  0  0  0
  193.4180  169.3430  141.1150 N   0  0  0  0  0  2  0  0  0  0  0  0
  194.6280  169.5800  141.8860 C   0  0  0  0  0  2  0  0  0  0  0  0
  196.7850  172.0510  145.7130 C   0  0  0  0  0  1  0  0  0  0  0  0
  194.1000  168.9800  144.2640 C   0  0  0  0  0  2  0  0  0  0  0  0
  194.2970  170.1250  143.2690 C   0  0  1  0  0  3  0  0  0  0  0  0
  195.3880  171.1130  143.7090 C   0  0  1  0  0  0  0  0  0  0  0  0
  195.7260  169.7870  145.8240 O   0  0  0  0  0  0  0  0  0  0  0  0
  194.3610  169.4760  145.6820 C   0  0  0  0  0  2  0  0  0  0  0  0
  196.0160  170.9300  145.0450 C   0  0  2  0  0  0  0  0  0  0  0  0
  196.6630  170.5370  143.8500 O   0  0  0  0  0  0  0  0  0  0  0  0
  195.4440  172.3680  143.1280 F   0  0  0  0  0  0  0  0  0  0  0  0
  190.6420  172.1710  143.0200 C   0  0  1  0  0  3  0  0  0  0  0  0
  189.5190  173.0490  142.4410 C   0  0  2  0  0  3  0  0  0  0  0  0
  189.0030  172.5560  141.0910 C   0  0  0  0  0  1  0  0  0  0  0  0
  188.9710  175.5160  142.4090 C   0  0  0  0  0  3  0  0  0  0  0  0
  189.8770  174.5150  142.3860 C   0  0  0  0  0  0  0  0  0  0  0  0
  187.4890  175.3120  142.4090 C   0  0  0  0  0  2  0  0  0  0  0  0
  186.8940  176.2820  143.2180 O   0  0  0  0  0  0  0  0  0  0  0  0
  186.5230  177.3110  142.3480 C   0  0  1  0  0  3  0  0  0  0  0  0
  186.3210  176.7770  141.0740 O   0  0  0  0  0  1  0  0  0  0  0  0
  185.2390  177.9600  142.8500 C   0  0  0  0  0  2  0  0  0  0  0  0
  184.3450  178.9970  144.9100 C   0  0  0  0  0  1  0  0  0  0  0  0
  185.0980  177.8030  144.3540 C   0  0  0  0  0  2  0  0  0  0  0  0
  191.3340  174.8600  142.4320 C   0  0  0  0  0  2  0  0  0  0  0  0
  191.5210  176.2430  142.8540 N   0  0  0  0  0  2  0  0  0  0  0  0
  192.7510  176.2620  143.6260 C   0  0  2  0  0  3  0  0  0  0  0  0
  193.5480  175.0090  143.3620 C   0  0  0  0  0  1  0  0  0  0  0  0
  192.4470  176.3740  145.0410 N   0  0  0  0  0  2  0  0  0  0  0  0
  188.4490  176.4160  146.4350 C   0  0  0  0  0  0  0  0  0  0  0  0
  189.2630  175.3060  146.7080 C   0  0  0  0  0  3  0  0  0  0  0  0
  191.1070  176.3880  145.5390 C   0  0  0  0  0  0  0  0  0  0  0  0
  190.2980  177.5020  145.2930 C   0  0  0  0  0  3  0  0  0  0  0  0
  188.9720  177.5170  145.7390 C   0  0  0  0  0  3  0  0  0  0  0  0
  190.5890  175.2900  146.2590 C   0  0  0  0  0  3  0  0  0  0  0  0
  187.0340  176.4340  146.9040 C   0  0  0  0  0  1  0  0  0  0  0  0
  189.3540  172.1390  145.0350 O   0  0  0  0  0  1  0  0  0  0  0  0
  190.6480  172.3120  144.5410 C   0  0  0  0  0  2  0  0  0  0  0  0
  1  2  1  0  0  0  0
  2 31  1  0  0  0  0
  3  1  2  0  0  0  0
  4 20  1  6  0  0  0
  4  1  1  0  0  0  0
  6  5  1  1  0  0  0
  6  4  1  0  0  0  0
  7  6  1  0  0  0  0
  9  8  1  6  0  0  0
  9  7  1  0  0  0  0
 10 11  2  0  0  0  0
 10  9  1  0  0  0  0
 12 14  1  0  0  0  0
 13 10  1  0  0  0  0
 14 13  1  0  0  0  0
 15 18  1  1  0  0  0
 15 11  1  0  0  0  0
 16 15  1  0  0  0  0
 16 13  2  0  0  0  0
 18 17  1  0  0  0  0
 19 18  2  0  0  0  0
 20 21  1  0  0  0  0
 23 27  1  0  0  0  0
 24 21  1  6  0  0  0
 24 25  1  0  0  0  0
 24 23  1  0  0  0  0
 25 30  1  6  0  0  0
 25 29  1  0  0  0  0
 25 28  1  0  0  0  0
 27 26  1  0  0  0  0
 28 22  1  1  0  0  0
 28 26  1  0  0  0  0
 29 28  1  0  0  0  0
 31 56  1  1  0  0  0
 32 33  1  6  0  0  0
 32 31  1  0  0  0  0
 35 34  2  0  0  0  0
 35 43  1  0  0  0  0
 35 32  1  0  0  0  0
 36 34  1  0  0  0  0
 36 37  1  0  0  0  0
 38 39  1  6  0  0  0
 38 40  1  0  0  0  0
 38 37  1  0  0  0  0
 40 42  1  0  0  0  0
 42 41  1  0  0  0  0
 43 44  1  0  0  0  0
 44 45  1  0  0  0  0
 45 46  1  1  0  0  0
 45 47  1  0  0  0  0
 47 50  1  0  0  0  0
 48 49  1  0  0  0  0
 48 54  1  0  0  0  0
 50 53  1  0  0  0  0
 51 50  2  0  0  0  0
 51 52  1  0  0  0  0
 52 48  2  0  0  0  0
 53 49  2  0  0  0  0
 56 55  1  0  0  0  0
M  END
>  <MODEL>
8

>  <REMARK>
 VINA RESULT:      -5.3      2.424      6.407
  Name = 
  23 active torsions:
  status: ('A' for Active; 'I' for Inactive)
    1  A    between atoms: C_1  and  C_11
    2  A    between atoms: C_1  and  CA_33
    3  A    between atoms: C_2  and  CA_13
    4  A    between atoms: N_5  and  CA_33
    5  A    between atoms: C_6  and  C_27
    6  A    between atoms: C_9  and  O_36
    7  A    between atoms: C_9  and  C_45
    8  A    between atoms: C_10  and  C_42
    9  A    between atoms: C_11  and  C_49
   10  A    between atoms: CA_13  and  C_38
   11  A    between atoms: CA_13  and  N_54
   12  A    between atoms: C_15  and  C_44
   13  A    between atoms: N_20  and  C_26
   14  A    between atoms: N_20  and  C_30
   15  A    between atoms: C_25  and  CA_33
   16  A    between atoms: C_26  and  N_52
   17  A    between atoms: C_27  and  C_35
   18  A    between atoms: C_28  and  C_45
   19  A    between atoms: C_35  and  C_38
   20  A    between atoms: O_36  and  C_42
   21  A    between atoms: CA_39  and  C_53
   22  A    between atoms: C_44  and  N_54
   23  A    between atoms: C_49  and  N_52
                            x       y       z     vdW  Elec       q    Type
                         _______ _______ _______ _____ _____    ______ ____

>  <TORSDO>
F 23

$$$$
=
 OpenBabel11072408293D

 56 59  0  0  1  0  0  0  0  0999 V2000
  191.6710  173.7440  141.3460 C   0  0  0  0  0  0  0  0  0  0  0  0
  190.7090  174.7970  141.4440 N   0  0  0  0  0  2  0  0  0  0  0  0
  192.8010  173.9840  140.8470 O   0  0  0  0  0  0  0  0  0  0  0  0
  191.3320  172.3470  141.7730 C   0  0  2  0  0  3  0  0  0  0  0  0
  191.0030  171.4640  144.1110 C   0  0  0  0  0  1  0  0  0  0  0  0
  192.0180  171.9680  143.0950 C   0  0  1  0  0  3  0  0  0  0  0  0
  193.0400  170.8640  142.8430 C   0  0  0  0  0  2  0  0  0  0  0  0
  195.2120  170.7850  141.8220 O   0  0  0  0  0  1  0  0  0  0  0  0
  194.4680  171.3930  142.8370 C   0  0  2  0  0  3  0  0  0  0  0  0
  195.1000  171.1090  144.1640 C   0  0  0  0  0  0  0  0  0  0  0  0
  194.7440  170.1360  144.9950 C   0  0  0  0  0  3  0  0  0  0  0  0
  197.9410  173.6530  144.8260 C   0  0  0  0  0  1  0  0  0  0  0  0
  196.1920  171.8400  144.7640 C   0  0  0  0  0  0  0  0  0  0  0  0
  196.8590  172.9480  144.1580 N   0  0  0  0  0  2  0  0  0  0  0  0
  195.6090  170.2460  146.2190 C   0  0  2  0  0  3  0  0  0  0  0  0
  196.5070  171.3650  145.9230 N   0  0  0  0  0  0  0  0  0  0  0  0
  197.2520  168.6010  145.6230 O   0  0  0  0  0  0  0  0  0  0  0  0
  196.3720  168.9780  146.4430 C   0  0  0  0  0  0  0  0  0  0  0  0
  196.0610  168.1790  147.5370 O   0  0  0  0  0  1  0  0  0  0  0  0
  191.7110  171.4200  140.7130 N   0  0  0  0  0  2  0  0  0  0  0  0
  190.5450  171.2170  139.8680 C   0  0  0  0  0  2  0  0  0  0  0  0
  190.7730  174.0110  135.6790 C   0  0  0  0  0  1  0  0  0  0  0  0
  189.9450  170.2400  137.6370 C   0  0  0  0  0  2  0  0  0  0  0  0
  190.9440  171.1080  138.4030 C   0  0  1  0  0  3  0  0  0  0  0  0
  191.0930  172.5140  137.8010 C   0  0  1  0  0  0  0  0  0  0  0  0
  189.4670  171.8980  135.9780 O   0  0  0  0  0  0  0  0  0  0  0  0
  189.9760  170.5990  136.1550 C   0  0  0  0  0  2  0  0  0  0  0  0
  190.3790  172.8250  136.5330 C   0  0  2  0  0  0  0  0  0  0  0  0
  189.9020  173.2630  137.7900 O   0  0  0  0  0  0  0  0  0  0  0  0
  192.1910  173.2860  138.1380 F   0  0  0  0  0  0  0  0  0  0  0  0
  189.4990  174.7620  142.2610 C   0  0  1  0  0  3  0  0  0  0  0  0
  189.1290  176.1940  142.6860 C   0  0  2  0  0  3  0  0  0  0  0  0
  190.3350  177.1250  142.7830 C   0  0  0  0  0  1  0  0  0  0  0  0
  187.1320  176.9190  144.0530 C   0  0  0  0  0  3  0  0  0  0  0  0
  188.2970  176.2450  143.9450 C   0  0  0  0  0  0  0  0  0  0  0  0
  186.5480  177.7730  142.9730 C   0  0  0  0  0  2  0  0  0  0  0  0
  185.1580  177.6300  142.9790 O   0  0  0  0  0  0  0  0  0  0  0  0
  184.6660  178.8380  143.4820 C   0  0  1  0  0  3  0  0  0  0  0  0
  183.2810  178.7370  143.6270 O   0  0  0  0  0  1  0  0  0  0  0  0
  185.3120  179.1260  144.8310 C   0  0  0  0  0  2  0  0  0  0  0  0
  184.8730  178.1750  147.0720 C   0  0  0  0  0  1  0  0  0  0  0  0
  184.2970  179.0270  145.9570 C   0  0  0  0  0  2  0  0  0  0  0  0
  188.7460  175.3920  145.0910 C   0  0  0  0  0  2  0  0  0  0  0  0
  188.4160  176.0240  146.3620 N   0  0  0  0  0  2  0  0  0  0  0  0
  189.6780  176.2190  147.0510 C   0  0  2  0  0  3  0  0  0  0  0  0
  190.2480  177.5740  146.7150 C   0  0  0  0  0  1  0  0  0  0  0  0
  190.6150  175.1740  146.6790 N   0  0  0  0  0  2  0  0  0  0  0  0
  194.3890  176.0680  144.9790 C   0  0  0  0  0  0  0  0  0  0  0  0
  194.0960  176.5070  146.2800 C   0  0  0  0  0  3  0  0  0  0  0  0
  191.9020  175.4600  146.1260 C   0  0  0  0  0  0  0  0  0  0  0  0
  192.2090  175.0030  144.8400 C   0  0  0  0  0  3  0  0  0  0  0  0
  193.4490  175.3070  144.2670 C   0  0  0  0  0  3  0  0  0  0  0  0
  192.8550  176.2060  146.8520 C   0  0  0  0  0  3  0  0  0  0  0  0
  195.7070  176.3930  144.3630 C   0  0  0  0  0  1  0  0  0  0  0  0
  188.0220  172.9040  141.9670 O   0  0  0  0  0  1  0  0  0  0  0  0
  188.3410  174.1660  141.4620 C   0  0  0  0  0  2  0  0  0  0  0  0
  1  2  1  0  0  0  0
  1  4  1  0  0  0  0
  2 31  1  0  0  0  0
  3  1  2  0  0  0  0
  4 20  1  6  0  0  0
  4  6  1  0  0  0  0
  6  5  1  1  0  0  0
  7  6  1  0  0  0  0
  9  8  1  6  0  0  0
  9  7  1  0  0  0  0
  9 10  1  0  0  0  0
 10 13  1  0  0  0  0
 10 11  2  0  0  0  0
 11 15  1  0  0  0  0
 13 16  2  0  0  0  0
 14 13  1  0  0  0  0
 14 12  1  0  0  0  0
 15 18  1  6  0  0  0
 16 15  1  0  0  0  0
 17 18  2  0  0  0  0
 18 19  1  0  0  0  0
 21 20  1  0  0  0  0
 23 24  1  0  0  0  0
 24 21  1  1  0  0  0
 25 30  1  1  0  0  0
 25 24  1  0  0  0  0
 26 27  1  0  0  0  0
 26 28  1  0  0  0  0
 27 23  1  0  0  0  0
 28 22  1  6  0  0  0
 28 29  1  0  0  0  0
 28 25  1  0  0  0  0
 29 25  1  0  0  0  0
 31 56  1  6  0  0  0
 31 32  1  0  0  0  0
 32 33  1  1  0  0  0
 32 35  1  0  0  0  0
 35 34  2  0  0  0  0
 35 43  1  0  0  0  0
 36 37  1  0  0  0  0
 36 34  1  0  0  0  0
 37 38  1  0  0  0  0
 38 39  1  1  0  0  0
 38 40  1  0  0  0  0
 40 42  1  0  0  0  0
 42 41  1  0  0  0  0
 43 44  1  0  0  0  0
 44 45  1  0  0  0  0
 45 46  1  6  0  0  0
 47 45  1  0  0  0  0
 48 49  1  0  0  0  0
 49 53  2  0  0  0  0
 50 47  1  0  0  0  0
 50 53  1  0  0  0  0
 51 50  2  0  0  0  0
 52 51  1  0  0  0  0
 52 48  2  0  0  0  0
 54 48  1  0  0  0  0
 56 55  1  0  0  0  0
M  END
>  <MODEL>
9

>  <REMARK>
 VINA RESULT:      -5.3      2.263      3.554
  Name = 
  23 active torsions:
  status: ('A' for Active; 'I' for Inactive)
    1  A    between atoms: C_1  and  C_11
    2  A    between atoms: C_1  and  CA_33
    3  A    between atoms: C_2  and  CA_13
    4  A    between atoms: N_5  and  CA_33
    5  A    between atoms: C_6  and  C_27
    6  A    between atoms: C_9  and  O_36
    7  A    between atoms: C_9  and  C_45
    8  A    between atoms: C_10  and  C_42
    9  A    between atoms: C_11  and  C_49
   10  A    between atoms: CA_13  and  C_38
   11  A    between atoms: CA_13  and  N_54
   12  A    between atoms: C_15  and  C_44
   13  A    between atoms: N_20  and  C_26
   14  A    between atoms: N_20  and  C_30
   15  A    between atoms: C_25  and  CA_33
   16  A    between atoms: C_26  and  N_52
   17  A    between atoms: C_27  and  C_35
   18  A    between atoms: C_28  and  C_45
   19  A    between atoms: C_35  and  C_38
   20  A    between atoms: O_36  and  C_42
   21  A    between atoms: CA_39  and  C_53
   22  A    between atoms: C_44  and  N_54
   23  A    between atoms: C_49  and  N_52
                            x       y       z     vdW  Elec       q    Type
                         _______ _______ _______ _____ _____    ______ ____

>  <TORSDO>
F 23

$$$$
