=
 OpenBabel11062421313D

 55 58  0  0  1  0  0  0  0  0999 V2000
  191.1430  173.2420  142.0690 C   0  0  2  0  0  3  0  0  0  0  0  0
  188.2510  176.0380  141.5530 C   0  0  1  0  0  3  0  0  0  0  0  0
  189.1220  176.3660  142.6070 O   0  0  0  0  0  0  0  0  0  0  0  0
  188.2410  172.5290  142.3130 O   0  0  0  0  0  0  0  0  0  0  0  0
  188.6500  173.7140  142.1960 C   0  0  0  0  0  0  0  0  0  0  0  0
  190.2850  175.5950  142.3950 C   0  0  2  0  0  3  0  0  0  0  0  0
  187.7930  174.6950  141.6960 O   0  0  0  0  0  0  0  0  0  0  0  0
  190.0260  174.1030  142.6800 C   0  0  2  0  0  3  0  0  0  0  0  0
  185.3450  178.2820  140.4140 N   0  0  0  0  0  2  0  0  0  0  0  0
  187.1190  176.9560  141.5330 N   0  0  0  0  0  2  0  0  0  0  0  0
  186.4380  177.3660  140.3390 C   0  0  0  0  0  0  0  0  0  0  0  0
  186.8230  176.9340  139.1830 N   0  0  0  0  0  2  0  0  0  0  0  0
  184.8210  178.7670  141.6820 C   0  0  0  0  0  2  0  0  0  0  0  0
  183.6630  177.8940  142.1300 C   0  0  0  0  0  2  0  0  0  0  0  0
  182.4600  178.1880  141.3040 C   0  0  0  0  0  0  0  0  0  0  0  0
  181.4410  178.9850  141.8110 O   0  0  0  0  0  1  0  0  0  0  0  0
  182.3560  177.6940  140.1500 O   0  0  0  0  0  0  0  0  0  0  0  0
  191.2440  178.6450  143.4770 O   0  0  0  0  0  0  0  0  0  0  0  0
  191.4920  176.1090  143.2000 C   0  0  1  0  0  3  0  0  0  0  0  0
  192.4910  176.5510  142.3710 O   0  0  0  0  0  0  0  0  0  0  0  0
  191.6070  177.4840  143.1460 C   0  0  0  0  0  0  0  0  0  0  0  0
  192.3310  173.3360  142.8070 O   0  0  0  0  0  0  0  0  0  0  0  0
  192.1460  172.5170  143.9270 C   0  0  0  0  0  2  0  0  0  0  0  0
  192.9590  173.0170  145.1140 C   0  0  0  0  0  2  0  0  0  0  0  0
  194.1480  173.8360  144.6500 C   0  0  0  0  0  2  0  0  0  0  0  0
  194.2060  175.1240  145.4470 C   0  0  0  0  0  2  0  0  0  0  0  0
  193.0960  175.1520  146.4790 C   0  0  0  0  0  2  0  0  0  0  0  0
  192.4680  176.4630  146.4950 N   0  0  0  0  0  2  0  0  0  0  0  0
  191.1900  175.0330  148.5360 O   0  0  0  0  0  1  0  0  0  0  0  0
  191.0330  176.3640  147.5060 P   0  0  1  0  0  0  0  0  0  0  0  0
  190.9090  177.6200  148.3390 O   0  0  0  0  0  0  0  0  0  0  0  0
  189.4500  177.2480  145.6170 F   0  0  0  0  0  0  0  0  0  0  0  0
  189.6480  175.0200  145.6940 F   0  0  0  0  0  0  0  0  0  0  0  0
  189.5360  176.1640  146.4720 C   0  0  0  0  0  0  0  0  0  0  0  0
  188.3680  176.1500  147.2700 O   0  0  0  0  0  0  0  0  0  0  0  0
  187.3210  176.7680  146.5700 C   0  0  0  0  0  2  0  0  0  0  0  0
  186.1080  176.8800  147.4760 C   0  0  0  0  0  2  0  0  0  0  0  0
  185.4710  178.1750  147.2960 N   0  0  0  0  0  0  0  0  0  0  0  0
  184.0760  178.9560  145.5490 N   0  0  0  0  0  2  0  0  0  0  0  0
  184.2290  177.9360  146.5750 C   0  0  0  0  0  2  0  0  0  0  0  0
  186.3010  178.9460  146.3840 C   0  0  0  0  0  2  0  0  0  0  0  0
  185.4310  179.3550  145.2220 C   0  0  0  0  0  2  0  0  0  0  0  0
  191.4080  173.6240  140.6230 C   0  0  0  0  0  2  0  0  0  0  0  0
  191.6830  172.3760  139.7940 C   0  0  0  0  0  2  0  0  0  0  0  0
  190.6450  172.1680  138.6840 C   0  0  2  0  0  3  0  0  0  0  0  0
  190.0730  169.4520  137.1990 C   0  0  0  0  0  2  0  0  0  0  0  0
  191.2030  169.7490  138.1310 C   0  0  0  0  0  0  0  0  0  0  0  0
  192.1820  171.5350  136.8840 O   0  0  0  0  0  1  0  0  0  0  0  0
  191.0450  171.1400  137.5980 C   0  0  2  0  0  0  0  0  0  0  0  0
  189.2140  171.4280  135.8630 O   0  0  0  0  0  0  0  0  0  0  0  0
  189.9160  170.8380  136.6690 C   0  0  0  0  0  0  0  0  0  0  0  0
  192.0440  169.0670  138.9060 C   0  0  0  0  0  2  0  0  0  0  0  0
  188.8410  173.9190  138.4640 N   0  0  0  0  0  1  0  0  0  0  0  0
  190.1450  173.4670  138.1250 C   0  0  0  0  0  0  0  0  0  0  0  0
  190.8670  174.1610  137.3630 O   0  0  0  0  0  0  0  0  0  0  0  0
  1 43  1  6  0  0  0
  1 22  1  0  0  0  0
  2 10  1  1  0  0  0
  2  7  1  0  0  0  0
  2  3  1  0  0  0  0
  5  4  2  0  0  0  0
  5  8  1  0  0  0  0
  6  3  1  1  0  0  0
  6  8  1  0  0  0  0
  6 19  1  0  0  0  0
  7  5  1  0  0  0  0
  8  1  1  6  0  0  0
  9 13  1  0  0  0  0
 11  9  1  0  0  0  0
 11 10  1  0  0  0  0
 12 11  2  0  0  0  0
 13 14  1  0  0  0  0
 15 16  1  0  0  0  0
 15 14  1  0  0  0  0
 17 15  2  0  0  0  0
 19 20  1  6  0  0  0
 20 21  1  0  0  0  0
 21 19  1  0  0  0  0
 21 18  2  0  0  0  0
 22 23  1  0  0  0  0
 23 24  1  0  0  0  0
 25 24  1  0  0  0  0
 25 26  1  0  0  0  0
 26 27  1  0  0  0  0
 27 28  1  0  0  0  0
 28 30  1  0  0  0  0
 30 31  2  1  0  0  0
 30 29  1  0  0  0  0
 32 34  1  0  0  0  0
 33 34  1  0  0  0  0
 34 35  1  0  0  0  0
 34 30  1  0  0  0  0
 36 35  1  0  0  0  0
 36 37  1  0  0  0  0
 38 37  1  0  0  0  0
 39 40  1  0  0  0  0
 40 38  1  0  0  0  0
 41 38  1  0  0  0  0
 42 39  1  0  0  0  0
 42 41  1  0  0  0  0
 44 43  1  0  0  0  0
 45 44  1  1  0  0  0
 46 47  1  0  0  0  0
 47 52  2  0  0  0  0
 49 48  1  6  0  0  0
 49 47  1  0  0  0  0
 49 45  1  0  0  0  0
 50 51  2  0  0  0  0
 51 46  1  0  0  0  0
 51 49  1  0  0  0  0
 54 53  1  0  0  0  0
 54 45  1  0  0  0  0
 55 54  2  0  0  0  0
M  END
>  <MODEL>
1

>  <REMARK>
 VINA RESULT:      -6.1      0.000      0.000
  Name = 
  24 active torsions:
  status: ('A' for Active; 'I' for Inactive)
    1  A    between atoms: C_3  and  C_38
    2  A    between atoms: N_5  and  C_51
    3  A    between atoms: C_11  and  N_32
    4  A    between atoms: C_12  and  C_21
    5  A    between atoms: C_12  and  C_43
    6  A    between atoms: N_13  and  C_45
    7  A    between atoms: C_14  and  C_54
    8  A    between atoms: C_17  and  C_24
    9  A    between atoms: C_17  and  C_43
   10  A    between atoms: C_20  and  C_22
   11  A    between atoms: C_20  and  C_36
   12  A    between atoms: C_21  and  N_31
   13  A    between atoms: C_22  and  C_54
   14  A    between atoms: C_23  and  C_33
   15  A    between atoms: C_24  and  O_39
   16  A    between atoms: C_25  and  C_54
   17  A    between atoms: O_26  and  C_30
   18  A    between atoms: O_26  and  C_49
   19  A    between atoms: C_30  and  P_34
   20  A    between atoms: N_31  and  P_34
   21  A    between atoms: C_33  and  C_45
   22  A    between atoms: C_36  and  O_39
   23  A    between atoms: C_36  and  C_53
   24  A    between atoms: C_49  and  C_51
                            x       y       z     vdW  Elec       q    Type
                         _______ _______ _______ _____ _____    ______ ____

>  <TORSDO>
F 24

$$$$
=
 OpenBabel11062421313D

 55 58  0  0  1  0  0  0  0  0999 V2000
  191.9030  173.0390  141.8330 C   0  0  2  0  0  3  0  0  0  0  0  0
  188.6750  175.4490  141.3650 C   0  0  1  0  0  3  0  0  0  0  0  0
  189.4590  175.8240  142.4700 O   0  0  0  0  0  0  0  0  0  0  0  0
  189.1190  171.9290  141.9190 O   0  0  0  0  0  0  0  0  0  0  0  0
  189.3660  173.1630  141.8870 C   0  0  0  0  0  0  0  0  0  0  0  0
  190.7220  175.2300  142.2610 C   0  0  2  0  0  3  0  0  0  0  0  0
  188.4000  174.0510  141.4120 O   0  0  0  0  0  0  0  0  0  0  0  0
  190.6600  173.7020  142.4480 C   0  0  2  0  0  3  0  0  0  0  0  0
  186.0910  178.2960  141.4060 N   0  0  0  0  0  2  0  0  0  0  0  0
  187.4290  176.2070  141.3530 N   0  0  0  0  0  2  0  0  0  0  0  0
  187.3590  177.6380  141.4080 C   0  0  0  0  0  0  0  0  0  0  0  0
  188.4380  178.3450  141.4890 N   0  0  0  0  0  2  0  0  0  0  0  0
  184.8380  177.5700  141.2620 C   0  0  0  0  0  2  0  0  0  0  0  0
  183.7360  178.2850  142.0230 C   0  0  0  0  0  2  0  0  0  0  0  0
  182.4790  178.2680  141.2260 C   0  0  0  0  0  0  0  0  0  0  0  0
  181.3260  178.8600  141.7260 O   0  0  0  0  0  1  0  0  0  0  0  0
  182.4560  177.6970  140.1040 O   0  0  0  0  0  0  0  0  0  0  0  0
  191.2460  178.3190  143.5160 O   0  0  0  0  0  0  0  0  0  0  0  0
  191.8220  175.8500  143.1420 C   0  0  1  0  0  3  0  0  0  0  0  0
  192.7900  176.4520  142.3790 O   0  0  0  0  0  0  0  0  0  0  0  0
  191.7660  177.2300  143.1530 C   0  0  0  0  0  0  0  0  0  0  0  0
  193.0270  173.1820  142.6580 O   0  0  0  0  0  0  0  0  0  0  0  0
  192.8000  172.3430  143.7550 C   0  0  0  0  0  2  0  0  0  0  0  0
  193.2790  172.9880  145.0490 C   0  0  0  0  0  2  0  0  0  0  0  0
  194.5480  173.7880  144.8180 C   0  0  0  0  0  2  0  0  0  0  0  0
  194.4340  175.1170  145.5370 C   0  0  0  0  0  2  0  0  0  0  0  0
  193.2970  175.0770  146.5380 C   0  0  0  0  0  2  0  0  0  0  0  0
  192.5790  176.3420  146.5230 N   0  0  0  0  0  2  0  0  0  0  0  0
  191.4390  175.0250  148.7160 O   0  0  0  0  0  1  0  0  0  0  0  0
  191.1270  176.1520  147.4950 P   0  0  1  0  0  0  0  0  0  0  0  0
  190.7610  177.4760  148.1280 O   0  0  0  0  0  0  0  0  0  0  0  0
  190.1950  174.5270  145.6670 F   0  0  0  0  0  0  0  0  0  0  0  0
  188.7250  175.0640  147.2670 F   0  0  0  0  0  0  0  0  0  0  0  0
  189.7370  175.5640  146.4590 C   0  0  0  0  0  0  0  0  0  0  0  0
  189.2750  176.5890  145.6030 O   0  0  0  0  0  0  0  0  0  0  0  0
  187.8790  176.5080  145.4940 C   0  0  0  0  0  2  0  0  0  0  0  0
  187.3310  177.8460  145.0290 C   0  0  0  0  0  2  0  0  0  0  0  0
  185.8870  177.7650  144.8760 N   0  0  0  0  0  0  0  0  0  0  0  0
  184.1740  179.0390  145.8990 N   0  0  0  0  0  2  0  0  0  0  0  0
  185.3680  179.1110  145.0720 C   0  0  0  0  0  2  0  0  0  0  0  0
  185.3720  176.9890  145.9930 C   0  0  0  0  0  2  0  0  0  0  0  0
  184.3520  177.8460  146.7020 C   0  0  0  0  0  2  0  0  0  0  0  0
  192.2060  173.6010  140.4550 C   0  0  0  0  0  2  0  0  0  0  0  0
  192.3460  172.4680  139.4470 C   0  0  0  0  0  2  0  0  0  0  0  0
  192.3810  171.0880  140.1140 C   0  0  2  0  0  3  0  0  0  0  0  0
  195.2130  170.6390  141.4150 C   0  0  0  0  0  2  0  0  0  0  0  0
  194.9120  171.3330  140.1260 C   0  0  0  0  0  0  0  0  0  0  0  0
  193.8770  169.4940  139.0090 O   0  0  0  0  0  1  0  0  0  0  0  0
  193.7570  170.3800  140.0840 C   0  0  2  0  0  0  0  0  0  0  0  0
  193.6030  168.7880  142.0560 O   0  0  0  0  0  0  0  0  0  0  0  0
  194.0610  169.6910  141.3740 C   0  0  0  0  0  0  0  0  0  0  0  0
  195.4970  172.2270  139.3310 C   0  0  0  0  0  2  0  0  0  0  0  0
  190.7830  170.3000  138.3260 N   0  0  0  0  0  1  0  0  0  0  0  0
  191.2470  170.2130  139.6660 C   0  0  0  0  0  0  0  0  0  0  0  0
  190.7050  169.4040  140.4630 O   0  0  0  0  0  0  0  0  0  0  0  0
  1 43  1  6  0  0  0
  1 22  1  0  0  0  0
  2 10  1  1  0  0  0
  2  7  1  0  0  0  0
  2  3  1  0  0  0  0
  5  4  2  0  0  0  0
  5  8  1  0  0  0  0
  6  8  1  0  0  0  0
  6  3  1  1  0  0  0
  6 19  1  0  0  0  0
  7  5  1  0  0  0  0
  8  1  1  6  0  0  0
  9 11  1  0  0  0  0
 10 11  1  0  0  0  0
 11 12  2  0  0  0  0
 13  9  1  0  0  0  0
 13 14  1  0  0  0  0
 15 16  1  0  0  0  0
 15 14  1  0  0  0  0
 17 15  2  0  0  0  0
 19 20  1  6  0  0  0
 19 21  1  0  0  0  0
 20 21  1  0  0  0  0
 21 18  2  0  0  0  0
 22 23  1  0  0  0  0
 23 24  1  0  0  0  0
 25 24  1  0  0  0  0
 25 26  1  0  0  0  0
 26 27  1  0  0  0  0
 28 27  1  0  0  0  0
 28 30  1  0  0  0  0
 30 31  2  1  0  0  0
 30 29  1  0  0  0  0
 32 34  1  0  0  0  0
 34 33  1  0  0  0  0
 34 30  1  0  0  0  0
 35 34  1  0  0  0  0
 36 35  1  0  0  0  0
 37 36  1  0  0  0  0
 38 37  1  0  0  0  0
 38 40  1  0  0  0  0
 38 41  1  0  0  0  0
 39 42  1  0  0  0  0
 40 39  1  0  0  0  0
 41 42  1  0  0  0  0
 44 43  1  0  0  0  0
 45 44  1  6  0  0  0
 47 46  1  0  0  0  0
 49 48  1  6  0  0  0
 49 45  1  0  0  0  0
 49 47  1  0  0  0  0
 49 51  1  0  0  0  0
 51 46  1  0  0  0  0
 51 50  2  0  0  0  0
 52 47  2  0  0  0  0
 53 54  1  0  0  0  0
 54 45  1  0  0  0  0
 54 55  2  0  0  0  0
M  END
>  <MODEL>
2

>  <REMARK>
 VINA RESULT:      -6.0      1.791      2.561
  Name = 
  24 active torsions:
  status: ('A' for Active; 'I' for Inactive)
    1  A    between atoms: C_3  and  C_38
    2  A    between atoms: N_5  and  C_51
    3  A    between atoms: C_11  and  N_32
    4  A    between atoms: C_12  and  C_21
    5  A    between atoms: C_12  and  C_43
    6  A    between atoms: N_13  and  C_45
    7  A    between atoms: C_14  and  C_54
    8  A    between atoms: C_17  and  C_24
    9  A    between atoms: C_17  and  C_43
   10  A    between atoms: C_20  and  C_22
   11  A    between atoms: C_20  and  C_36
   12  A    between atoms: C_21  and  N_31
   13  A    between atoms: C_22  and  C_54
   14  A    between atoms: C_23  and  C_33
   15  A    between atoms: C_24  and  O_39
   16  A    between atoms: C_25  and  C_54
   17  A    between atoms: O_26  and  C_30
   18  A    between atoms: O_26  and  C_49
   19  A    between atoms: C_30  and  P_34
   20  A    between atoms: N_31  and  P_34
   21  A    between atoms: C_33  and  C_45
   22  A    between atoms: C_36  and  O_39
   23  A    between atoms: C_36  and  C_53
   24  A    between atoms: C_49  and  C_51
                            x       y       z     vdW  Elec       q    Type
                         _______ _______ _______ _____ _____    ______ ____

>  <TORSDO>
F 24

$$$$
=
 OpenBabel11062421313D

 55 58  0  0  1  0  0  0  0  0999 V2000
  190.2520  172.7310  141.1390 C   0  0  2  0  0  3  0  0  0  0  0  0
  187.7530  175.7360  142.2210 C   0  0  1  0  0  3  0  0  0  0  0  0
  188.9130  175.7010  143.0140 O   0  0  0  0  0  0  0  0  0  0  0  0
  187.4530  172.1620  142.0510 O   0  0  0  0  0  0  0  0  0  0  0  0
  187.9780  173.3040  142.1160 C   0  0  0  0  0  0  0  0  0  0  0  0
  189.8550  174.9480  142.2810 C   0  0  2  0  0  3  0  0  0  0  0  0
  187.1660  174.4380  142.1550 O   0  0  0  0  0  0  0  0  0  0  0  0
  189.4750  173.4550  142.2500 C   0  0  2  0  0  3  0  0  0  0  0  0
  185.8720  178.9690  143.1080 N   0  0  0  0  0  2  0  0  0  0  0  0
  186.7990  176.6930  142.7680 N   0  0  0  0  0  2  0  0  0  0  0  0
  186.8420  178.1040  142.5160 C   0  0  0  0  0  0  0  0  0  0  0  0
  187.7730  178.6100  141.7770 N   0  0  0  0  0  2  0  0  0  0  0  0
  184.7630  178.4660  143.9050 C   0  0  0  0  0  2  0  0  0  0  0  0
  184.6110  179.3000  145.1640 C   0  0  0  0  0  2  0  0  0  0  0  0
  185.0990  178.5310  146.3410 C   0  0  0  0  0  0  0  0  0  0  0  0
  184.5840  177.2700  146.6150 O   0  0  0  0  0  0  0  0  0  0  0  0
  185.9660  179.0350  147.1030 O   0  0  0  0  0  1  0  0  0  0  0  0
  191.5800  177.5960  143.4670 O   0  0  0  0  0  0  0  0  0  0  0  0
  191.2950  175.1400  142.7910 C   0  0  1  0  0  3  0  0  0  0  0  0
  192.1220  175.5810  141.7910 O   0  0  0  0  0  0  0  0  0  0  0  0
  191.6380  176.4740  142.8960 C   0  0  0  0  0  0  0  0  0  0  0  0
  191.6080  172.5890  141.4650 O   0  0  0  0  0  0  0  0  0  0  0  0
  191.6970  171.4050  142.2070 C   0  0  0  0  0  2  0  0  0  0  0  0
  193.1410  170.9330  142.3180 C   0  0  0  0  0  2  0  0  0  0  0  0
  194.0380  171.7050  141.3700 C   0  0  0  0  0  2  0  0  0  0  0  0
  195.2430  172.2180  142.1330 C   0  0  0  0  0  2  0  0  0  0  0  0
  194.9090  173.5240  142.8240 C   0  0  0  0  0  2  0  0  0  0  0  0
  196.0340  173.9550  143.6400 N   0  0  0  0  0  2  0  0  0  0  0  0
  194.5740  172.5970  145.6070 O   0  0  0  0  0  0  0  0  0  0  0  0
  195.5100  173.9760  145.3180 P   0  0  1  0  0  0  0  0  0  0  0  0
  196.7180  173.9510  146.2280 O   0  0  0  0  0  1  0  0  0  0  0  0
  194.8090  175.9080  146.9380 F   0  0  0  0  0  0  0  0  0  0  0  0
  194.8690  176.4860  144.7760 F   0  0  0  0  0  0  0  0  0  0  0  0
  194.5160  175.4730  145.6580 C   0  0  0  0  0  0  0  0  0  0  0  0
  193.1330  175.1850  145.6070 O   0  0  0  0  0  0  0  0  0  0  0  0
  192.4530  176.0080  146.5170 C   0  0  0  0  0  2  0  0  0  0  0  0
  191.5750  175.1520  147.4130 C   0  0  0  0  0  2  0  0  0  0  0  0
  190.3410  175.8570  147.7190 N   0  0  0  0  0  0  0  0  0  0  0  0
  188.2670  175.8620  146.5750 N   0  0  0  0  0  2  0  0  0  0  0  0
  189.2490  175.0200  147.2400 C   0  0  0  0  0  2  0  0  0  0  0  0
  190.3020  177.0490  146.8870 C   0  0  0  0  0  2  0  0  0  0  0  0
  189.0250  176.9960  146.0860 C   0  0  0  0  0  2  0  0  0  0  0  0
  190.1200  173.4520  139.8090 C   0  0  0  0  0  2  0  0  0  0  0  0
  191.3740  173.2400  138.9710 C   0  0  0  0  0  2  0  0  0  0  0  0
  191.0910  173.2990  137.4650 C   0  0  2  0  0  3  0  0  0  0  0  0
  190.0260  170.4130  136.7930 C   0  0  0  0  0  2  0  0  0  0  0  0
  191.2260  170.7640  137.6120 C   0  0  0  0  0  0  0  0  0  0  0  0
  192.4300  171.9460  135.9230 O   0  0  0  0  0  1  0  0  0  0  0  0
  191.2750  171.9590  136.7120 C   0  0  2  0  0  0  0  0  0  0  0  0
  189.4460  172.0590  134.9530 O   0  0  0  0  0  0  0  0  0  0  0  0
  190.0740  171.6060  135.8960 C   0  0  0  0  0  0  0  0  0  0  0  0
  191.9750  170.1910  138.5520 C   0  0  0  0  0  2  0  0  0  0  0  0
  191.1770  175.0760  135.6750 N   0  0  0  0  0  1  0  0  0  0  0  0
  191.7780  174.4580  136.8040 C   0  0  0  0  0  0  0  0  0  0  0  0
  192.8780  174.8880  137.2400 O   0  0  0  0  0  0  0  0  0  0  0  0
  1 43  1  6  0  0  0
  1 22  1  0  0  0  0
  2 10  1  1  0  0  0
  2  3  1  0  0  0  0
  4  5  2  0  0  0  0
  5  7  1  0  0  0  0
  5  8  1  0  0  0  0
  6 19  1  0  0  0  0
  6  3  1  1  0  0  0
  7  2  1  0  0  0  0
  8  1  1  6  0  0  0
  8  6  1  0  0  0  0
  9 13  1  0  0  0  0
 11 10  1  0  0  0  0
 11  9  1  0  0  0  0
 12 11  2  0  0  0  0
 13 14  1  0  0  0  0
 14 15  1  0  0  0  0
 15 16  2  0  0  0  0
 15 17  1  0  0  0  0
 19 20  1  6  0  0  0
 19 21  1  0  0  0  0
 20 21  1  0  0  0  0
 21 18  2  0  0  0  0
 22 23  1  0  0  0  0
 23 24  1  0  0  0  0
 25 26  1  0  0  0  0
 25 24  1  0  0  0  0
 26 27  1  0  0  0  0
 27 28  1  0  0  0  0
 28 30  1  0  0  0  0
 30 29  2  1  0  0  0
 30 34  1  0  0  0  0
 30 31  1  0  0  0  0
 33 34  1  0  0  0  0
 34 32  1  0  0  0  0
 35 34  1  0  0  0  0
 35 36  1  0  0  0  0
 36 37  1  0  0  0  0
 37 38  1  0  0  0  0
 39 40  1  0  0  0  0
 40 38  1  0  0  0  0
 41 38  1  0  0  0  0
 42 39  1  0  0  0  0
 42 41  1  0  0  0  0
 44 43  1  0  0  0  0
 45 44  1  1  0  0  0
 46 47  1  0  0  0  0
 47 52  2  0  0  0  0
 49 48  1  6  0  0  0
 49 45  1  0  0  0  0
 49 47  1  0  0  0  0
 50 51  2  0  0  0  0
 51 49  1  0  0  0  0
 51 46  1  0  0  0  0
 53 54  1  0  0  0  0
 54 55  2  0  0  0  0
 54 45  1  0  0  0  0
M  END
>  <MODEL>
3

>  <REMARK>
 VINA RESULT:      -5.7      2.568      3.672
  Name = 
  24 active torsions:
  status: ('A' for Active; 'I' for Inactive)
    1  A    between atoms: C_3  and  C_38
    2  A    between atoms: N_5  and  C_51
    3  A    between atoms: C_11  and  N_32
    4  A    between atoms: C_12  and  C_21
    5  A    between atoms: C_12  and  C_43
    6  A    between atoms: N_13  and  C_45
    7  A    between atoms: C_14  and  C_54
    8  A    between atoms: C_17  and  C_24
    9  A    between atoms: C_17  and  C_43
   10  A    between atoms: C_20  and  C_22
   11  A    between atoms: C_20  and  C_36
   12  A    between atoms: C_21  and  N_31
   13  A    between atoms: C_22  and  C_54
   14  A    between atoms: C_23  and  C_33
   15  A    between atoms: C_24  and  O_39
   16  A    between atoms: C_25  and  C_54
   17  A    between atoms: O_26  and  C_30
   18  A    between atoms: O_26  and  C_49
   19  A    between atoms: C_30  and  P_34
   20  A    between atoms: N_31  and  P_34
   21  A    between atoms: C_33  and  C_45
   22  A    between atoms: C_36  and  O_39
   23  A    between atoms: C_36  and  C_53
   24  A    between atoms: C_49  and  C_51
                            x       y       z     vdW  Elec       q    Type
                         _______ _______ _______ _____ _____    ______ ____

>  <TORSDO>
F 24

$$$$
=
 OpenBabel11062421313D

 55 58  0  0  1  0  0  0  0  0999 V2000
  192.1690  174.1590  144.6220 C   0  0  2  0  0  3  0  0  0  0  0  0
  188.9890  176.5470  143.8230 C   0  0  1  0  0  3  0  0  0  0  0  0
  189.0790  176.2250  145.1890 O   0  0  0  0  0  0  0  0  0  0  0  0
  190.0170  173.2860  142.7250 O   0  0  0  0  0  0  0  0  0  0  0  0
  189.9310  174.3260  143.4300 C   0  0  0  0  0  0  0  0  0  0  0  0
  190.4090  175.7980  145.3940 C   0  0  2  0  0  3  0  0  0  0  0  0
  189.0860  175.3630  143.0340 O   0  0  0  0  0  0  0  0  0  0  0  0
  190.6600  174.4210  144.7490 C   0  0  2  0  0  3  0  0  0  0  0  0
  186.2370  178.7020  142.2240 N   0  0  0  0  0  2  0  0  0  0  0  0
  187.7320  177.2310  143.5510 N   0  0  0  0  0  2  0  0  0  0  0  0
  187.5000  178.0570  142.4020 C   0  0  0  0  0  0  0  0  0  0  0  0
  188.4360  178.2500  141.5320 N   0  0  0  0  0  2  0  0  0  0  0  0
  185.1190  178.4880  143.1300 C   0  0  0  0  0  2  0  0  0  0  0  0
  185.0680  179.6020  144.1600 C   0  0  0  0  0  2  0  0  0  0  0  0
  184.9540  179.0210  145.5260 C   0  0  0  0  0  0  0  0  0  0  0  0
  186.0960  178.6840  146.2400 O   0  0  0  0  0  1  0  0  0  0  0  0
  183.8170  178.8160  146.0260 O   0  0  0  0  0  0  0  0  0  0  0  0
  189.9460  177.9580  147.9450 O   0  0  0  0  0  0  0  0  0  0  0  0
  190.8080  175.7920  146.8800 C   0  0  1  0  0  3  0  0  0  0  0  0
  191.9880  176.4600  147.0810 O   0  0  0  0  0  0  0  0  0  0  0  0
  190.6560  177.0340  147.4660 C   0  0  0  0  0  0  0  0  0  0  0  0
  192.6820  174.6690  143.4210 O   0  0  0  0  0  0  0  0  0  0  0  0
  193.1930  175.9340  143.7340 C   0  0  0  0  0  2  0  0  0  0  0  0
  194.6720  175.8580  144.0910 C   0  0  0  0  0  2  0  0  0  0  0  0
  195.5300  175.8470  142.8400 C   0  0  0  0  0  2  0  0  0  0  0  0
  196.5140  174.6970  142.9230 C   0  0  0  0  0  2  0  0  0  0  0  0
  197.2710  174.5600  141.6170 C   0  0  0  0  0  2  0  0  0  0  0  0
  196.8430  173.3570  140.9200 N   0  0  0  0  0  2  0  0  0  0  0  0
  196.2130  175.4440  139.1620 O   0  0  0  0  0  1  0  0  0  0  0  0
  195.8340  173.8470  139.5660 P   0  0  1  0  0  0  0  0  0  0  0  0
  196.1150  172.9580  138.3750 O   0  0  0  0  0  0  0  0  0  0  0  0
  193.9570  172.9960  141.1800 F   0  0  0  0  0  0  0  0  0  0  0  0
  193.5570  175.0000  140.2660 F   0  0  0  0  0  0  0  0  0  0  0  0
  194.0630  173.7320  140.0140 C   0  0  0  0  0  0  0  0  0  0  0  0
  193.3310  173.0580  139.0100 O   0  0  0  0  0  0  0  0  0  0  0  0
  192.4930  172.1040  139.6070 C   0  0  0  0  0  2  0  0  0  0  0  0
  191.0490  172.5600  139.4940 C   0  0  0  0  0  2  0  0  0  0  0  0
  190.1560  171.4250  139.6650 N   0  0  0  0  0  0  0  0  0  0  0  0
  190.5140  169.1260  139.2290 N   0  0  0  0  0  2  0  0  0  0  0  0
  190.9920  170.2760  139.9800 C   0  0  0  0  0  2  0  0  0  0  0  0
  189.5720  171.1300  138.3670 C   0  0  0  0  0  2  0  0  0  0  0  0
  189.8900  169.6900  138.0490 C   0  0  0  0  0  2  0  0  0  0  0  0
  192.4850  172.6770  144.7240 C   0  0  0  0  0  2  0  0  0  0  0  0
  193.9450  172.4270  144.3700 C   0  0  0  0  0  2  0  0  0  0  0  0
  194.3880  170.9920  144.6810 C   0  0  2  0  0  3  0  0  0  0  0  0
  196.9640  170.1430  146.2790 C   0  0  0  0  0  2  0  0  0  0  0  0
  196.6050  171.5160  145.8110 C   0  0  0  0  0  0  0  0  0  0  0  0
  196.5180  171.0420  143.4720 O   0  0  0  0  0  1  0  0  0  0  0  0
  195.9190  170.7710  144.7070 C   0  0  2  0  0  0  0  0  0  0  0  0
  196.1100  168.2420  144.8340 O   0  0  0  0  0  0  0  0  0  0  0  0
  196.2800  169.4000  145.1790 C   0  0  0  0  0  0  0  0  0  0  0  0
  196.9100  172.7730  146.1270 C   0  0  0  0  0  2  0  0  0  0  0  0
  192.8580  168.9930  144.5040 N   0  0  0  0  0  1  0  0  0  0  0  0
  193.6490  169.9790  143.8560 C   0  0  0  0  0  0  0  0  0  0  0  0
  193.7210  169.9960  142.6000 O   0  0  0  0  0  0  0  0  0  0  0  0
  1 43  1  6  0  0  0
  2 10  1  1  0  0  0
  2  3  1  0  0  0  0
  4  5  2  0  0  0  0
  5  8  1  0  0  0  0
  6  3  1  1  0  0  0
  6 19  1  0  0  0  0
  7  5  1  0  0  0  0
  7  2  1  0  0  0  0
  8  1  1  6  0  0  0
  8  6  1  0  0  0  0
  9 11  1  0  0  0  0
  9 13  1  0  0  0  0
 11 10  1  0  0  0  0
 12 11  2  0  0  0  0
 13 14  1  0  0  0  0
 14 15  1  0  0  0  0
 15 17  2  0  0  0  0
 15 16  1  0  0  0  0
 19 20  1  6  0  0  0
 19 21  1  0  0  0  0
 20 21  1  0  0  0  0
 21 18  2  0  0  0  0
 22 23  1  0  0  0  0
 22  1  1  0  0  0  0
 23 24  1  0  0  0  0
 25 26  1  0  0  0  0
 25 24  1  0  0  0  0
 27 26  1  0  0  0  0
 28 27  1  0  0  0  0
 29 30  1  0  0  0  0
 30 31  2  6  0  0  0
 30 34  1  0  0  0  0
 30 28  1  0  0  0  0
 34 33  1  0  0  0  0
 34 32  1  0  0  0  0
 35 36  1  0  0  0  0
 35 34  1  0  0  0  0
 37 36  1  0  0  0  0
 37 38  1  0  0  0  0
 38 40  1  0  0  0  0
 39 40  1  0  0  0  0
 41 38  1  0  0  0  0
 42 41  1  0  0  0  0
 42 39  1  0  0  0  0
 44 43  1  0  0  0  0
 45 44  1  6  0  0  0
 45 49  1  0  0  0  0
 47 52  2  0  0  0  0
 47 46  1  0  0  0  0
 49 48  1  6  0  0  0
 49 51  1  0  0  0  0
 49 47  1  0  0  0  0
 50 51  2  0  0  0  0
 51 46  1  0  0  0  0
 54 53  1  0  0  0  0
 54 45  1  0  0  0  0
 55 54  2  0  0  0  0
M  END
>  <MODEL>
4

>  <REMARK>
 VINA RESULT:      -5.7      3.631      7.364
  Name = 
  24 active torsions:
  status: ('A' for Active; 'I' for Inactive)
    1  A    between atoms: C_3  and  C_38
    2  A    between atoms: N_5  and  C_51
    3  A    between atoms: C_11  and  N_32
    4  A    between atoms: C_12  and  C_21
    5  A    between atoms: C_12  and  C_43
    6  A    between atoms: N_13  and  C_45
    7  A    between atoms: C_14  and  C_54
    8  A    between atoms: C_17  and  C_24
    9  A    between atoms: C_17  and  C_43
   10  A    between atoms: C_20  and  C_22
   11  A    between atoms: C_20  and  C_36
   12  A    between atoms: C_21  and  N_31
   13  A    between atoms: C_22  and  C_54
   14  A    between atoms: C_23  and  C_33
   15  A    between atoms: C_24  and  O_39
   16  A    between atoms: C_25  and  C_54
   17  A    between atoms: O_26  and  C_30
   18  A    between atoms: O_26  and  C_49
   19  A    between atoms: C_30  and  P_34
   20  A    between atoms: N_31  and  P_34
   21  A    between atoms: C_33  and  C_45
   22  A    between atoms: C_36  and  O_39
   23  A    between atoms: C_36  and  C_53
   24  A    between atoms: C_49  and  C_51
                            x       y       z     vdW  Elec       q    Type
                         _______ _______ _______ _____ _____    ______ ____

>  <TORSDO>
F 24

$$$$
=
 OpenBabel11062421313D

 55 58  0  0  1  0  0  0  0  0999 V2000
  191.2460  173.4450  141.2460 C   0  0  2  0  0  3  0  0  0  0  0  0
  188.0850  175.9780  141.4440 C   0  0  1  0  0  3  0  0  0  0  0  0
  188.9560  176.1330  142.5360 O   0  0  0  0  0  0  0  0  0  0  0  0
  188.4360  172.4060  141.3430 O   0  0  0  0  0  0  0  0  0  0  0  0
  188.7250  173.6200  141.5080 C   0  0  0  0  0  0  0  0  0  0  0  0
  190.1790  175.5550  142.1350 C   0  0  2  0  0  3  0  0  0  0  0  0
  187.7620  174.6000  141.2670 O   0  0  0  0  0  0  0  0  0  0  0  0
  190.0740  174.0200  142.0570 C   0  0  2  0  0  3  0  0  0  0  0  0
  185.0160  178.2350  140.9270 N   0  0  0  0  0  2  0  0  0  0  0  0
  186.8700  176.7560  141.6560 N   0  0  0  0  0  2  0  0  0  0  0  0
  186.1950  177.4870  140.6240 C   0  0  0  0  0  0  0  0  0  0  0  0
  186.6600  177.5020  139.4180 N   0  0  0  0  0  2  0  0  0  0  0  0
  184.4040  178.2210  142.2460 C   0  0  0  0  0  2  0  0  0  0  0  0
  185.1150  179.2060  143.1570 C   0  0  0  0  0  2  0  0  0  0  0  0
  185.3720  178.5750  144.4810 C   0  0  0  0  0  0  0  0  0  0  0  0
  186.6430  178.6140  145.0390 O   0  0  0  0  0  0  0  0  0  0  0  0
  184.4380  177.9860  145.0860 O   0  0  0  0  0  1  0  0  0  0  0  0
  190.8860  178.3480  143.8910 O   0  0  0  0  0  0  0  0  0  0  0  0
  191.3590  175.9830  143.0260 C   0  0  1  0  0  3  0  0  0  0  0  0
  192.2860  176.7000  142.3140 O   0  0  0  0  0  0  0  0  0  0  0  0
  191.3450  177.3380  143.2950 C   0  0  0  0  0  0  0  0  0  0  0  0
  192.3980  173.3040  142.0320 O   0  0  0  0  0  0  0  0  0  0  0  0
  192.6980  171.9360  142.0200 C   0  0  0  0  0  2  0  0  0  0  0  0
  191.6510  171.1370  142.7860 C   0  0  0  0  0  2  0  0  0  0  0  0
  191.4460  171.7070  144.1770 C   0  0  0  0  0  2  0  0  0  0  0  0
  189.9630  171.7340  144.4880 C   0  0  0  0  0  2  0  0  0  0  0  0
  189.6880  172.6630  145.6540 C   0  0  0  0  0  2  0  0  0  0  0  0
  190.3900  173.9220  145.4600 N   0  0  0  0  0  2  0  0  0  0  0  0
  188.4770  175.9640  145.5880 O   0  0  0  0  0  0  0  0  0  0  0  0
  189.6350  175.1280  146.4930 P   0  0  1  0  0  0  0  0  0  0  0  0
  188.9520  174.4440  147.6560 O   0  0  0  0  0  1  0  0  0  0  0  0
  190.3870  177.5860  146.9850 F   0  0  0  0  0  0  0  0  0  0  0  0
  191.1090  176.0800  148.4740 F   0  0  0  0  0  0  0  0  0  0  0  0
  190.8870  176.3040  147.1220 C   0  0  0  0  0  0  0  0  0  0  0  0
  192.0810  176.2240  146.3690 O   0  0  0  0  0  0  0  0  0  0  0  0
  193.0320  175.4800  147.0840 C   0  0  0  0  0  2  0  0  0  0  0  0
  194.3860  175.6150  146.4120 C   0  0  0  0  0  2  0  0  0  0  0  0
  194.2120  175.8730  144.9910 N   0  0  0  0  0  0  0  0  0  0  0  0
  195.4500  175.0770  143.1370 N   0  0  0  0  0  2  0  0  0  0  0  0
  194.6590  174.6780  144.2890 C   0  0  0  0  0  2  0  0  0  0  0  0
  195.1570  176.9130  144.6170 C   0  0  0  0  0  2  0  0  0  0  0  0
  196.0110  176.3630  143.5020 C   0  0  0  0  0  2  0  0  0  0  0  0
  191.5570  174.3070  140.0350 C   0  0  0  0  0  2  0  0  0  0  0  0
  191.7770  173.4290  138.8100 C   0  0  0  0  0  2  0  0  0  0  0  0
  190.4900  172.7360  138.3450 C   0  0  2  0  0  3  0  0  0  0  0  0
  192.2990  170.1860  137.9740 C   0  0  0  0  0  2  0  0  0  0  0  0
  191.9550  171.2060  136.9380 C   0  0  0  0  0  0  0  0  0  0  0  0
  189.5850  170.9150  136.9780 O   0  0  0  0  0  1  0  0  0  0  0  0
  190.6900  171.3300  137.7300 C   0  0  2  0  0  0  0  0  0  0  0  0
  190.5380  169.8110  139.7600 O   0  0  0  0  0  0  0  0  0  0  0  0
  191.0380  170.3090  138.7640 C   0  0  0  0  0  0  0  0  0  0  0  0
  192.4560  171.6430  135.7840 C   0  0  0  0  0  2  0  0  0  0  0  0
  188.2900  173.8960  137.9150 N   0  0  0  0  0  1  0  0  0  0  0  0
  189.6280  173.6380  137.5120 C   0  0  0  0  0  0  0  0  0  0  0  0
  190.0780  174.1700  136.4640 O   0  0  0  0  0  0  0  0  0  0  0  0
  1 43  1  6  0  0  0
  1 22  1  0  0  0  0
  2 10  1  1  0  0  0
  2  3  1  0  0  0  0
  4  5  2  0  0  0  0
  5  8  1  0  0  0  0
  6  3  1  1  0  0  0
  6 19  1  0  0  0  0
  7  2  1  0  0  0  0
  7  5  1  0  0  0  0
  8  1  1  6  0  0  0
  8  6  1  0  0  0  0
  9 13  1  0  0  0  0
 11  9  1  0  0  0  0
 11 10  1  0  0  0  0
 12 11  2  0  0  0  0
 13 14  1  0  0  0  0
 14 15  1  0  0  0  0
 15 16  2  0  0  0  0
 15 17  1  0  0  0  0
 19 20  1  6  0  0  0
 19 21  1  0  0  0  0
 20 21  1  0  0  0  0
 21 18  2  0  0  0  0
 23 22  1  0  0  0  0
 23 24  1  0  0  0  0
 24 25  1  0  0  0  0
 25 26  1  0  0  0  0
 26 27  1  0  0  0  0
 28 27  1  0  0  0  0
 28 30  1  0  0  0  0
 30 29  2  6  0  0  0
 30 34  1  0  0  0  0
 30 31  1  0  0  0  0
 32 34  1  0  0  0  0
 34 33  1  0  0  0  0
 35 36  1  0  0  0  0
 35 34  1  0  0  0  0
 37 36  1  0  0  0  0
 38 37  1  0  0  0  0
 39 42  1  0  0  0  0
 39 40  1  0  0  0  0
 40 38  1  0  0  0  0
 41 38  1  0  0  0  0
 42 41  1  0  0  0  0
 44 43  1  0  0  0  0
 45 44  1  6  0  0  0
 46 51  1  0  0  0  0
 47 49  1  0  0  0  0
 47 46  1  0  0  0  0
 49 48  1  6  0  0  0
 49 45  1  0  0  0  0
 49 51  1  0  0  0  0
 51 50  2  0  0  0  0
 52 47  2  0  0  0  0
 54 53  1  0  0  0  0
 54 45  1  0  0  0  0
 55 54  2  0  0  0  0
M  END
>  <MODEL>
5

>  <REMARK>
 VINA RESULT:      -5.6      2.036      4.249
  Name = 
  24 active torsions:
  status: ('A' for Active; 'I' for Inactive)
    1  A    between atoms: C_3  and  C_38
    2  A    between atoms: N_5  and  C_51
    3  A    between atoms: C_11  and  N_32
    4  A    between atoms: C_12  and  C_21
    5  A    between atoms: C_12  and  C_43
    6  A    between atoms: N_13  and  C_45
    7  A    between atoms: C_14  and  C_54
    8  A    between atoms: C_17  and  C_24
    9  A    between atoms: C_17  and  C_43
   10  A    between atoms: C_20  and  C_22
   11  A    between atoms: C_20  and  C_36
   12  A    between atoms: C_21  and  N_31
   13  A    between atoms: C_22  and  C_54
   14  A    between atoms: C_23  and  C_33
   15  A    between atoms: C_24  and  O_39
   16  A    between atoms: C_25  and  C_54
   17  A    between atoms: O_26  and  C_30
   18  A    between atoms: O_26  and  C_49
   19  A    between atoms: C_30  and  P_34
   20  A    between atoms: N_31  and  P_34
   21  A    between atoms: C_33  and  C_45
   22  A    between atoms: C_36  and  O_39
   23  A    between atoms: C_36  and  C_53
   24  A    between atoms: C_49  and  C_51
                            x       y       z     vdW  Elec       q    Type
                         _______ _______ _______ _____ _____    ______ ____

>  <TORSDO>
F 24

$$$$
=
 OpenBabel11062421313D

 55 58  0  0  1  0  0  0  0  0999 V2000
  191.6060  172.8890  144.0230 C   0  0  2  0  0  3  0  0  0  0  0  0
  190.6930  173.2300  140.0870 C   0  0  1  0  0  3  0  0  0  0  0  0
  191.4150  172.0560  140.3620 O   0  0  0  0  0  0  0  0  0  0  0  0
  192.5620  175.2300  142.4110 O   0  0  0  0  0  0  0  0  0  0  0  0
  191.9920  174.2300  141.9000 C   0  0  0  0  0  0  0  0  0  0  0  0
  191.2770  171.8390  141.7500 C   0  0  2  0  0  3  0  0  0  0  0  0
  191.3490  174.3550  140.6680 O   0  0  0  0  0  0  0  0  0  0  0  0
  192.0790  172.8750  142.5610 C   0  0  2  0  0  3  0  0  0  0  0  0
  189.2770  173.6910  136.5430 N   0  0  0  0  0  2  0  0  0  0  0  0
  190.5630  173.4130  138.6460 N   0  0  0  0  0  2  0  0  0  0  0  0
  189.3080  173.5280  137.9610 C   0  0  0  0  0  0  0  0  0  0  0  0
  188.1950  173.4570  138.6140 N   0  0  0  0  0  2  0  0  0  0  0  0
  190.4870  173.8350  135.7490 C   0  0  0  0  0  2  0  0  0  0  0  0
  191.2760  175.0430  136.2220 C   0  0  0  0  0  2  0  0  0  0  0  0
  191.6910  175.8650  135.0530 C   0  0  0  0  0  0  0  0  0  0  0  0
  190.8270  176.8160  134.5240 O   0  0  0  0  0  0  0  0  0  0  0  0
  192.8210  175.6820  134.5280 O   0  0  0  0  0  1  0  0  0  0  0  0
  192.5910  169.1970  140.1120 O   0  0  0  0  0  0  0  0  0  0  0  0
  191.6490  170.4050  142.1670 C   0  0  1  0  0  3  0  0  0  0  0  0
  190.6280  169.5290  141.9010 O   0  0  0  0  0  0  0  0  0  0  0  0
  191.8810  169.5890  141.0770 C   0  0  0  0  0  0  0  0  0  0  0  0
  190.7610  173.9760  144.2830 O   0  0  0  0  0  0  0  0  0  0  0  0
  189.9680  173.5880  145.3700 C   0  0  0  0  0  2  0  0  0  0  0  0
  189.9540  174.6600  146.4510 C   0  0  0  0  0  2  0  0  0  0  0  0
  188.6070  175.3560  146.5050 C   0  0  0  0  0  2  0  0  0  0  0  0
  188.8190  176.8550  146.4280 C   0  0  0  0  0  2  0  0  0  0  0  0
  188.4570  177.3660  145.0470 C   0  0  0  0  0  2  0  0  0  0  0  0
  187.5860  176.4120  144.3790 N   0  0  0  0  0  2  0  0  0  0  0  0
  189.7510  176.7950  142.6440 O   0  0  0  0  0  1  0  0  0  0  0  0
  188.1680  176.2070  142.7330 P   0  0  1  0  0  0  0  0  0  0  0  0
  188.1660  174.7380  142.3720 O   0  0  0  0  0  0  0  0  0  0  0  0
  187.5540  178.4340  141.5030 F   0  0  0  0  0  0  0  0  0  0  0  0
  187.2250  176.5840  140.2890 F   0  0  0  0  0  0  0  0  0  0  0  0
  187.1060  177.1280  141.5600 C   0  0  0  0  0  0  0  0  0  0  0  0
  185.7640  177.1500  142.0040 O   0  0  0  0  0  0  0  0  0  0  0  0
  185.4810  178.4050  142.5630 C   0  0  0  0  0  2  0  0  0  0  0  0
  184.1520  178.3430  143.2940 C   0  0  0  0  0  2  0  0  0  0  0  0
  184.1830  179.2170  144.4560 N   0  0  0  0  0  0  0  0  0  0  0  0
  185.9630  179.7210  145.9340 N   0  0  0  0  0  2  0  0  0  0  0  0
  185.5360  179.7500  144.5450 C   0  0  0  0  0  2  0  0  0  0  0  0
  184.0230  178.3810  145.6350 C   0  0  0  0  0  2  0  0  0  0  0  0
  185.2130  178.6320  146.5280 C   0  0  0  0  0  2  0  0  0  0  0  0
  192.7820  172.9150  144.9850 C   0  0  0  0  0  2  0  0  0  0  0  0
  194.0810  172.6640  144.2310 C   0  0  0  0  0  2  0  0  0  0  0  0
  195.3200  172.8760  145.1090 C   0  0  2  0  0  3  0  0  0  0  0  0
  195.3050  175.8220  144.0000 C   0  0  0  0  0  2  0  0  0  0  0  0
  196.0450  174.6510  143.4390 C   0  0  0  0  0  0  0  0  0  0  0  0
  197.3840  174.1730  145.3580 O   0  0  0  0  0  1  0  0  0  0  0  0
  196.0730  174.2060  144.8690 C   0  0  2  0  0  0  0  0  0  0  0  0
  194.9460  175.7830  146.5100 O   0  0  0  0  0  0  0  0  0  0  0  0
  195.3320  175.3780  145.4250 C   0  0  0  0  0  0  0  0  0  0  0  0
  196.5730  174.2900  142.2710 C   0  0  0  0  0  2  0  0  0  0  0  0
  196.5840  171.0590  143.8950 N   0  0  0  0  0  1  0  0  0  0  0  0
  196.2170  171.6730  145.1230 C   0  0  0  0  0  0  0  0  0  0  0  0
  196.6500  171.2040  146.2080 O   0  0  0  0  0  0  0  0  0  0  0  0
  1 22  1  0  0  0  0
  1 43  1  1  0  0  0
  2 10  1  6  0  0  0
  2  3  1  0  0  0  0
  2  7  1  0  0  0  0
  5  4  2  0  0  0  0
  5  8  1  0  0  0  0
  6  3  1  6  0  0  0
  6 19  1  0  0  0  0
  6  8  1  0  0  0  0
  7  5  1  0  0  0  0
  8  1  1  1  0  0  0
  9 11  1  0  0  0  0
 11 12  2  0  0  0  0
 11 10  1  0  0  0  0
 13 14  1  0  0  0  0
 13  9  1  0  0  0  0
 15 14  1  0  0  0  0
 16 15  2  0  0  0  0
 17 15  1  0  0  0  0
 18 21  2  0  0  0  0
 19 21  1  6  0  0  0
 20 19  1  0  0  0  0
 21 20  1  0  0  0  0
 22 23  1  0  0  0  0
 23 24  1  0  0  0  0
 24 25  1  0  0  0  0
 26 25  1  0  0  0  0
 27 26  1  0  0  0  0
 28 27  1  0  0  0  0
 29 30  1  0  0  0  0
 30 31  2  6  0  0  0
 30 28  1  0  0  0  0
 32 34  1  0  0  0  0
 33 34  1  0  0  0  0
 34 35  1  0  0  0  0
 34 30  1  0  0  0  0
 35 36  1  0  0  0  0
 36 37  1  0  0  0  0
 37 38  1  0  0  0  0
 38 40  1  0  0  0  0
 38 41  1  0  0  0  0
 39 42  1  0  0  0  0
 40 39  1  0  0  0  0
 41 42  1  0  0  0  0
 44 43  1  0  0  0  0
 45 44  1  6  0  0  0
 45 54  1  0  0  0  0
 46 51  1  0  0  0  0
 47 46  1  0  0  0  0
 47 49  1  0  0  0  0
 49 45  1  0  0  0  0
 49 48  1  1  0  0  0
 49 51  1  0  0  0  0
 51 50  2  0  0  0  0
 52 47  2  0  0  0  0
 53 54  1  0  0  0  0
 54 55  2  0  0  0  0
M  END
>  <MODEL>
6

>  <REMARK>
 VINA RESULT:      -5.5      2.886      7.070
  Name = 
  24 active torsions:
  status: ('A' for Active; 'I' for Inactive)
    1  A    between atoms: C_3  and  C_38
    2  A    between atoms: N_5  and  C_51
    3  A    between atoms: C_11  and  N_32
    4  A    between atoms: C_12  and  C_21
    5  A    between atoms: C_12  and  C_43
    6  A    between atoms: N_13  and  C_45
    7  A    between atoms: C_14  and  C_54
    8  A    between atoms: C_17  and  C_24
    9  A    between atoms: C_17  and  C_43
   10  A    between atoms: C_20  and  C_22
   11  A    between atoms: C_20  and  C_36
   12  A    between atoms: C_21  and  N_31
   13  A    between atoms: C_22  and  C_54
   14  A    between atoms: C_23  and  C_33
   15  A    between atoms: C_24  and  O_39
   16  A    between atoms: C_25  and  C_54
   17  A    between atoms: O_26  and  C_30
   18  A    between atoms: O_26  and  C_49
   19  A    between atoms: C_30  and  P_34
   20  A    between atoms: N_31  and  P_34
   21  A    between atoms: C_33  and  C_45
   22  A    between atoms: C_36  and  O_39
   23  A    between atoms: C_36  and  C_53
   24  A    between atoms: C_49  and  C_51
                            x       y       z     vdW  Elec       q    Type
                         _______ _______ _______ _____ _____    ______ ____

>  <TORSDO>
F 24

$$$$
=
 OpenBabel11062421313D

 55 58  0  0  1  0  0  0  0  0999 V2000
  191.3150  172.8710  141.2870 C   0  0  2  0  0  3  0  0  0  0  0  0
  188.3160  175.3330  142.4670 C   0  0  1  0  0  3  0  0  0  0  0  0
  188.2490  175.0370  141.0950 O   0  0  0  0  0  0  0  0  0  0  0  0
  191.9000  175.5480  142.5050 O   0  0  0  0  0  0  0  0  0  0  0  0
  190.7400  175.1750  142.1900 C   0  0  0  0  0  0  0  0  0  0  0  0
  189.0270  173.8740  140.9150 C   0  0  2  0  0  3  0  0  0  0  0  0
  189.6340  175.7550  142.8120 O   0  0  0  0  0  0  0  0  0  0  0  0
  190.5290  174.1750  141.0780 C   0  0  2  0  0  3  0  0  0  0  0  0
  186.3410  178.6280  142.5980 N   0  0  0  0  0  2  0  0  0  0  0  0
  187.3500  176.3710  142.8050 N   0  0  0  0  0  2  0  0  0  0  0  0
  187.3160  177.6670  142.1920 C   0  0  0  0  0  0  0  0  0  0  0  0
  188.1830  177.9880  141.2890 N   0  0  0  0  0  2  0  0  0  0  0  0
  185.3000  178.3200  143.5670 C   0  0  0  0  0  2  0  0  0  0  0  0
  185.6970  178.8440  144.9360 C   0  0  0  0  0  2  0  0  0  0  0  0
  185.1520  177.9530  145.9950 C   0  0  0  0  0  0  0  0  0  0  0  0
  185.8240  176.7880  146.3440 O   0  0  0  0  0  0  0  0  0  0  0  0
  184.0660  178.2450  146.5630 O   0  0  0  0  0  1  0  0  0  0  0  0
  190.4990  173.9660  137.8800 O   0  0  0  0  0  0  0  0  0  0  0  0
  188.7470  173.1730  139.5740 C   0  0  1  0  0  3  0  0  0  0  0  0
  187.9710  173.9540  138.7570 O   0  0  0  0  0  0  0  0  0  0  0  0
  189.4400  173.7520  138.5280 C   0  0  0  0  0  0  0  0  0  0  0  0
  191.4950  172.5880  142.6480 O   0  0  0  0  0  0  0  0  0  0  0  0
  190.6030  171.5500  142.9390 C   0  0  0  0  0  2  0  0  0  0  0  0
  189.7050  171.9100  144.1160 C   0  0  0  0  0  2  0  0  0  0  0  0
  190.3330  173.0020  144.9620 C   0  0  0  0  0  2  0  0  0  0  0  0
  189.3120  173.5030  145.9640 C   0  0  0  0  0  2  0  0  0  0  0  0
  189.6660  174.9060  146.4160 C   0  0  0  0  0  2  0  0  0  0  0  0
  190.9930  174.9140  147.0110 N   0  0  0  0  0  2  0  0  0  0  0  0
  190.6010  177.4610  145.9120 O   0  0  0  0  0  0  0  0  0  0  0  0
  191.6200  176.5540  146.9110 P   0  0  1  0  0  0  0  0  0  0  0  0
  191.6400  177.1760  148.2890 O   0  0  0  0  0  1  0  0  0  0  0  0
  193.3010  177.2710  145.0370 F   0  0  0  0  0  0  0  0  0  0  0  0
  194.1850  177.1830  147.0910 F   0  0  0  0  0  0  0  0  0  0  0  0
  193.3130  176.5490  146.2160 C   0  0  0  0  0  0  0  0  0  0  0  0
  193.7310  175.2330  145.9120 O   0  0  0  0  0  0  0  0  0  0  0  0
  195.1110  175.1210  146.1370 C   0  0  0  0  0  2  0  0  0  0  0  0
  195.8300  174.9980  144.8050 C   0  0  0  0  0  2  0  0  0  0  0  0
  197.0150  174.1680  144.9550 N   0  0  0  0  0  0  0  0  0  0  0  0
  197.3840  171.9160  144.3270 N   0  0  0  0  0  2  0  0  0  0  0  0
  197.0180  173.2350  143.8380 C   0  0  0  0  0  2  0  0  0  0  0  0
  196.8250  173.3470  146.1400 C   0  0  0  0  0  2  0  0  0  0  0  0
  196.9620  171.9060  145.7140 C   0  0  0  0  0  2  0  0  0  0  0  0
  192.6650  172.9210  140.5930 C   0  0  0  0  0  2  0  0  0  0  0  0
  193.1030  171.5170  140.1980 C   0  0  0  0  0  2  0  0  0  0  0  0
  192.3160  170.9700  139.0000 C   0  0  2  0  0  3  0  0  0  0  0  0
  190.4450  168.7540  140.2250 C   0  0  0  0  0  2  0  0  0  0  0  0
  191.8960  168.9690  140.5120 C   0  0  0  0  0  0  0  0  0  0  0  0
  192.7080  168.6600  138.2880 O   0  0  0  0  0  1  0  0  0  0  0  0
  191.9200  169.4780  139.1030 C   0  0  2  0  0  0  0  0  0  0  0  0
  189.6850  169.4150  137.8980 O   0  0  0  0  0  0  0  0  0  0  0  0
  190.4680  169.2630  138.8220 C   0  0  0  0  0  0  0  0  0  0  0  0
  192.7610  168.6740  141.4810 C   0  0  0  0  0  2  0  0  0  0  0  0
  194.3600  171.5100  137.6220 N   0  0  0  0  0  1  0  0  0  0  0  0
  192.9520  171.3330  137.6910 C   0  0  0  0  0  0  0  0  0  0  0  0
  192.2530  171.4800  136.6540 O   0  0  0  0  0  0  0  0  0  0  0  0
  1 43  1  6  0  0  0
  1 22  1  0  0  0  0
  2 10  1  6  0  0  0
  2  7  1  0  0  0  0
  3  2  1  0  0  0  0
  5  4  2  0  0  0  0
  5  7  1  0  0  0  0
  6  8  1  0  0  0  0
  6  3  1  6  0  0  0
  8  1  1  1  0  0  0
  8  5  1  0  0  0  0
  9 13  1  0  0  0  0
 11  9  1  0  0  0  0
 11 10  1  0  0  0  0
 12 11  2  0  0  0  0
 13 14  1  0  0  0  0
 14 15  1  0  0  0  0
 15 16  2  0  0  0  0
 15 17  1  0  0  0  0
 18 21  2  0  0  0  0
 19 21  1  6  0  0  0
 19  6  1  0  0  0  0
 20 19  1  0  0  0  0
 21 20  1  0  0  0  0
 22 23  1  0  0  0  0
 23 24  1  0  0  0  0
 24 25  1  0  0  0  0
 25 26  1  0  0  0  0
 26 27  1  0  0  0  0
 27 28  1  0  0  0  0
 30 29  2  6  0  0  0
 30 28  1  0  0  0  0
 30 31  1  0  0  0  0
 32 34  1  0  0  0  0
 34 30  1  0  0  0  0
 34 33  1  0  0  0  0
 35 36  1  0  0  0  0
 35 34  1  0  0  0  0
 37 38  1  0  0  0  0
 37 36  1  0  0  0  0
 38 41  1  0  0  0  0
 39 42  1  0  0  0  0
 40 39  1  0  0  0  0
 40 38  1  0  0  0  0
 42 41  1  0  0  0  0
 44 43  1  0  0  0  0
 45 49  1  0  0  0  0
 45 44  1  1  0  0  0
 46 47  1  0  0  0  0
 47 52  2  0  0  0  0
 49 48  1  6  0  0  0
 49 47  1  0  0  0  0
 50 51  2  0  0  0  0
 51 49  1  0  0  0  0
 51 46  1  0  0  0  0
 53 54  1  0  0  0  0
 54 45  1  0  0  0  0
 55 54  2  0  0  0  0
M  END
>  <MODEL>
7

>  <REMARK>
 VINA RESULT:      -5.5      2.566      5.640
  Name = 
  24 active torsions:
  status: ('A' for Active; 'I' for Inactive)
    1  A    between atoms: C_3  and  C_38
    2  A    between atoms: N_5  and  C_51
    3  A    between atoms: C_11  and  N_32
    4  A    between atoms: C_12  and  C_21
    5  A    between atoms: C_12  and  C_43
    6  A    between atoms: N_13  and  C_45
    7  A    between atoms: C_14  and  C_54
    8  A    between atoms: C_17  and  C_24
    9  A    between atoms: C_17  and  C_43
   10  A    between atoms: C_20  and  C_22
   11  A    between atoms: C_20  and  C_36
   12  A    between atoms: C_21  and  N_31
   13  A    between atoms: C_22  and  C_54
   14  A    between atoms: C_23  and  C_33
   15  A    between atoms: C_24  and  O_39
   16  A    between atoms: C_25  and  C_54
   17  A    between atoms: O_26  and  C_30
   18  A    between atoms: O_26  and  C_49
   19  A    between atoms: C_30  and  P_34
   20  A    between atoms: N_31  and  P_34
   21  A    between atoms: C_33  and  C_45
   22  A    between atoms: C_36  and  O_39
   23  A    between atoms: C_36  and  C_53
   24  A    between atoms: C_49  and  C_51
                            x       y       z     vdW  Elec       q    Type
                         _______ _______ _______ _____ _____    ______ ____

>  <TORSDO>
F 24

$$$$
=
 OpenBabel11062421313D

 55 58  0  0  1  0  0  0  0  0999 V2000
  187.6860  177.3690  142.6230 C   0  0  2  0  0  3  0  0  0  0  0  0
  183.7640  178.0430  141.8420 C   0  0  1  0  0  3  0  0  0  0  0  0
  184.5880  178.4090  140.7640 O   0  0  0  0  0  0  0  0  0  0  0  0
  186.0640  179.2230  144.3340 O   0  0  0  0  0  0  0  0  0  0  0  0
  185.6340  178.7260  143.2600 C   0  0  0  0  0  0  0  0  0  0  0  0
  185.8100  177.7340  140.9720 C   0  0  2  0  0  3  0  0  0  0  0  0
  184.2590  178.6130  143.0520 O   0  0  0  0  0  0  0  0  0  0  0  0
  186.5880  178.3390  142.1560 C   0  0  2  0  0  3  0  0  0  0  0  0
  180.2560  178.5280  140.3460 N   0  0  0  0  0  2  0  0  0  0  0  0
  182.3950  178.4850  141.6010 N   0  0  0  0  0  2  0  0  0  0  0  0
  181.5840  178.0280  140.5120 C   0  0  0  0  0  0  0  0  0  0  0  0
  182.0520  177.1810  139.6550 N   0  0  0  0  0  2  0  0  0  0  0  0
  179.6420  179.4390  141.3000 C   0  0  0  0  0  2  0  0  0  0  0  0
  178.2550  178.9430  141.6690 C   0  0  0  0  0  2  0  0  0  0  0  0
  178.3430  178.0070  142.8220 C   0  0  0  0  0  0  0  0  0  0  0  0
  178.4680  178.5000  144.1150 O   0  0  0  0  0  1  0  0  0  0  0  0
  178.3270  176.7640  142.6230 O   0  0  0  0  0  0  0  0  0  0  0  0
  185.3840  176.4240  137.8910 O   0  0  0  0  0  0  0  0  0  0  0  0
  186.6830  177.6850  139.7050 C   0  0  1  0  0  3  0  0  0  0  0  0
  187.4040  176.5200  139.6430 O   0  0  0  0  0  0  0  0  0  0  0  0
  186.2060  176.7790  138.7770 C   0  0  0  0  0  0  0  0  0  0  0  0
  187.2400  176.5500  143.6700 O   0  0  0  0  0  0  0  0  0  0  0  0
  186.9600  175.3100  143.0870 C   0  0  0  0  0  2  0  0  0  0  0  0
  188.1270  174.8250  142.2360 C   0  0  0  0  0  2  0  0  0  0  0  0
  188.9310  173.7700  142.9710 C   0  0  0  0  0  2  0  0  0  0  0  0
  189.6050  172.8640  141.9600 C   0  0  0  0  0  2  0  0  0  0  0  0
  191.1120  172.9520  142.0990 C   0  0  0  0  0  2  0  0  0  0  0  0
  191.6310  171.7090  142.6490 N   0  0  0  0  0  2  0  0  0  0  0  0
  193.9020  170.0700  142.7070 O   0  0  0  0  0  1  0  0  0  0  0  0
  193.2800  171.5090  142.0720 P   0  0  1  0  0  0  0  0  0  0  0  0
  193.2830  171.4240  140.5620 O   0  0  0  0  0  0  0  0  0  0  0  0
  194.2720  173.8900  141.6300 F   0  0  0  0  0  0  0  0  0  0  0  0
  193.8060  173.4640  143.7770 F   0  0  0  0  0  0  0  0  0  0  0  0
  194.3200  172.9150  142.6100 C   0  0  0  0  0  0  0  0  0  0  0  0
  195.6690  172.5180  142.7590 O   0  0  0  0  0  0  0  0  0  0  0  0
  196.1490  172.9640  144.0000 C   0  0  0  0  0  2  0  0  0  0  0  0
  197.5780  173.4520  143.8410 C   0  0  0  0  0  2  0  0  0  0  0  0
  197.6180  174.9040  143.9160 N   0  0  0  0  0  0  0  0  0  0  0  0
  195.8610  176.4850  143.7780 N   0  0  0  0  0  2  0  0  0  0  0  0
  196.3570  175.3290  144.5080 C   0  0  0  0  0  2  0  0  0  0  0  0
  197.5930  175.4120  142.5540 C   0  0  0  0  0  2  0  0  0  0  0  0
  196.4100  176.3430  142.4440 C   0  0  0  0  0  2  0  0  0  0  0  0
  188.9370  178.1140  143.0550 C   0  0  0  0  0  2  0  0  0  0  0  0
  189.2970  177.7470  144.4880 C   0  0  0  0  0  2  0  0  0  0  0  0
  190.5060  176.8080  144.5680 C   0  0  2  0  0  3  0  0  0  0  0  0
  192.1180  174.8820  146.4660 C   0  0  0  0  0  2  0  0  0  0  0  0
  190.6330  174.9790  146.3310 C   0  0  0  0  0  0  0  0  0  0  0  0
  190.4040  177.2680  146.9720 O   0  0  0  0  0  1  0  0  0  0  0  0
  190.9320  176.4090  146.0020 C   0  0  2  0  0  0  0  0  0  0  0  0
  193.3940  177.0310  146.0400 O   0  0  0  0  0  0  0  0  0  0  0  0
  192.4160  176.3070  146.1380 C   0  0  0  0  0  0  0  0  0  0  0  0
  189.5720  174.2110  146.5690 C   0  0  0  0  0  2  0  0  0  0  0  0
  192.3750  176.3340  142.9390 N   0  0  0  0  0  1  0  0  0  0  0  0
  191.6460  177.2770  143.7120 C   0  0  0  0  0  0  0  0  0  0  0  0
  191.9610  178.4950  143.6710 O   0  0  0  0  0  0  0  0  0  0  0  0
  1 43  1  1  0  0  0
  1 22  1  0  0  0  0
  2 10  1  6  0  0  0
  2  7  1  0  0  0  0
  3  2  1  0  0  0  0
  5  4  2  0  0  0  0
  6  3  1  6  0  0  0
  6  8  1  0  0  0  0
  7  5  1  0  0  0  0
  8  1  1  1  0  0  0
  8  5  1  0  0  0  0
  9 11  1  0  0  0  0
  9 13  1  0  0  0  0
 11 10  1  0  0  0  0
 12 11  2  0  0  0  0
 13 14  1  0  0  0  0
 14 15  1  0  0  0  0
 15 16  1  0  0  0  0
 17 15  2  0  0  0  0
 18 21  2  0  0  0  0
 19 21  1  6  0  0  0
 19  6  1  0  0  0  0
 20 19  1  0  0  0  0
 21 20  1  0  0  0  0
 23 22  1  0  0  0  0
 24 25  1  0  0  0  0
 24 23  1  0  0  0  0
 26 27  1  0  0  0  0
 26 25  1  0  0  0  0
 27 28  1  0  0  0  0
 30 31  2  6  0  0  0
 30 34  1  0  0  0  0
 30 28  1  0  0  0  0
 30 29  1  0  0  0  0
 32 34  1  0  0  0  0
 34 35  1  0  0  0  0
 34 33  1  0  0  0  0
 35 36  1  0  0  0  0
 37 38  1  0  0  0  0
 37 36  1  0  0  0  0
 38 40  1  0  0  0  0
 39 40  1  0  0  0  0
 41 38  1  0  0  0  0
 42 41  1  0  0  0  0
 42 39  1  0  0  0  0
 43 44  1  0  0  0  0
 45 44  1  1  0  0  0
 45 49  1  0  0  0  0
 47 46  1  0  0  0  0
 47 52  2  0  0  0  0
 49 51  1  0  0  0  0
 49 47  1  0  0  0  0
 49 48  1  1  0  0  0
 50 51  2  0  0  0  0
 51 46  1  0  0  0  0
 53 54  1  0  0  0  0
 54 45  1  0  0  0  0
 55 54  2  0  0  0  0
M  END
>  <MODEL>
8

>  <REMARK>
 VINA RESULT:      -5.4      3.591      7.948
  Name = 
  24 active torsions:
  status: ('A' for Active; 'I' for Inactive)
    1  A    between atoms: C_3  and  C_38
    2  A    between atoms: N_5  and  C_51
    3  A    between atoms: C_11  and  N_32
    4  A    between atoms: C_12  and  C_21
    5  A    between atoms: C_12  and  C_43
    6  A    between atoms: N_13  and  C_45
    7  A    between atoms: C_14  and  C_54
    8  A    between atoms: C_17  and  C_24
    9  A    between atoms: C_17  and  C_43
   10  A    between atoms: C_20  and  C_22
   11  A    between atoms: C_20  and  C_36
   12  A    between atoms: C_21  and  N_31
   13  A    between atoms: C_22  and  C_54
   14  A    between atoms: C_23  and  C_33
   15  A    between atoms: C_24  and  O_39
   16  A    between atoms: C_25  and  C_54
   17  A    between atoms: O_26  and  C_30
   18  A    between atoms: O_26  and  C_49
   19  A    between atoms: C_30  and  P_34
   20  A    between atoms: N_31  and  P_34
   21  A    between atoms: C_33  and  C_45
   22  A    between atoms: C_36  and  O_39
   23  A    between atoms: C_36  and  C_53
   24  A    between atoms: C_49  and  C_51
                            x       y       z     vdW  Elec       q    Type
                         _______ _______ _______ _____ _____    ______ ____

>  <TORSDO>
F 24

$$$$
=
 OpenBabel11062421313D

 55 58  0  0  1  0  0  0  0  0999 V2000
  191.0370  173.1210  141.0330 C   0  0  2  0  0  3  0  0  0  0  0  0
  188.1340  175.9240  141.4390 C   0  0  1  0  0  3  0  0  0  0  0  0
  189.0740  175.9810  142.4820 O   0  0  0  0  0  0  0  0  0  0  0  0
  188.1530  172.3370  141.2750 O   0  0  0  0  0  0  0  0  0  0  0  0
  188.5600  173.5170  141.4390 C   0  0  0  0  0  0  0  0  0  0  0  0
  190.2160  175.3030  142.0050 C   0  0  2  0  0  3  0  0  0  0  0  0
  187.6780  174.5830  141.2640 O   0  0  0  0  0  0  0  0  0  0  0  0
  189.9680  173.7850  141.9150 C   0  0  2  0  0  3  0  0  0  0  0  0
  185.2230  178.4140  141.1130 N   0  0  0  0  0  2  0  0  0  0  0  0
  187.0080  176.8040  141.7280 N   0  0  0  0  0  2  0  0  0  0  0  0
  186.3080  177.5650  140.7350 C   0  0  0  0  0  0  0  0  0  0  0  0
  186.6670  177.5130  139.4940 N   0  0  0  0  0  2  0  0  0  0  0  0
  184.7270  178.4810  142.4790 C   0  0  0  0  0  2  0  0  0  0  0  0
  185.7880  179.0790  143.3860 C   0  0  0  0  0  2  0  0  0  0  0  0
  185.6040  178.5810  144.7760 C   0  0  0  0  0  0  0  0  0  0  0  0
  185.8250  179.4260  145.8560 O   0  0  0  0  0  1  0  0  0  0  0  0
  185.2670  177.3840  144.9730 O   0  0  0  0  0  0  0  0  0  0  0  0
  191.3770  178.0630  143.5620 O   0  0  0  0  0  0  0  0  0  0  0  0
  191.4760  175.6070  142.8340 C   0  0  1  0  0  3  0  0  0  0  0  0
  192.4690  176.1410  142.0520 O   0  0  0  0  0  0  0  0  0  0  0  0
  191.6650  176.9640  143.0170 C   0  0  0  0  0  0  0  0  0  0  0  0
  192.2910  173.1140  141.6570 O   0  0  0  0  0  0  0  0  0  0  0  0
  192.5060  171.7910  142.0600 C   0  0  0  0  0  2  0  0  0  0  0  0
  191.2940  171.2360  142.7970 C   0  0  0  0  0  2  0  0  0  0  0  0
  191.2480  171.7480  144.2240 C   0  0  0  0  0  2  0  0  0  0  0  0
  189.8040  171.8280  144.6770 C   0  0  0  0  0  2  0  0  0  0  0  0
  189.6480  172.8860  145.7510 C   0  0  0  0  0  2  0  0  0  0  0  0
  190.3980  174.0770  145.3850 N   0  0  0  0  0  2  0  0  0  0  0  0
  189.2310  176.5950  145.7640 O   0  0  0  0  0  0  0  0  0  0  0  0
  190.0270  175.3320  146.5590 P   0  0  1  0  0  0  0  0  0  0  0  0
  189.1170  174.7740  147.6300 O   0  0  0  0  0  1  0  0  0  0  0  0
  191.2140  176.8430  148.3360 F   0  0  0  0  0  0  0  0  0  0  0  0
  192.2680  174.9160  147.9040 F   0  0  0  0  0  0  0  0  0  0  0  0
  191.5630  175.9640  147.3270 C   0  0  0  0  0  0  0  0  0  0  0  0
  192.3440  176.6730  146.3860 O   0  0  0  0  0  0  0  0  0  0  0  0
  193.6560  176.7930  146.8680 C   0  0  0  0  0  2  0  0  0  0  0  0
  194.5840  177.1510  145.7210 C   0  0  0  0  0  2  0  0  0  0  0  0
  194.7570  176.0030  144.8460 N   0  0  0  0  0  0  0  0  0  0  0  0
  196.4750  174.3740  144.7940 N   0  0  0  0  0  2  0  0  0  0  0  0
  195.4470  174.9830  145.6230 C   0  0  0  0  0  2  0  0  0  0  0  0
  195.6940  176.3880  143.8020 C   0  0  0  0  0  2  0  0  0  0  0  0
  196.8380  175.4040  143.8410 C   0  0  0  0  0  2  0  0  0  0  0  0
  191.1420  173.8060  139.6810 C   0  0  0  0  0  2  0  0  0  0  0  0
  190.7000  172.8560  138.5760 C   0  0  0  0  0  2  0  0  0  0  0  0
  191.7830  172.6500  137.5100 C   0  0  2  0  0  3  0  0  0  0  0  0
  189.7590  174.1180  135.5970 C   0  0  0  0  0  2  0  0  0  0  0  0
  189.9810  172.6450  135.7150 C   0  0  0  0  0  0  0  0  0  0  0  0
  192.2910  172.6230  135.1130 O   0  0  0  0  0  1  0  0  0  0  0  0
  191.3740  173.0610  136.0740 C   0  0  2  0  0  0  0  0  0  0  0  0
  191.7830  175.5670  136.0800 O   0  0  0  0  0  0  0  0  0  0  0  0
  191.1470  174.5330  135.9560 C   0  0  0  0  0  0  0  0  0  0  0  0
  189.3110  171.5260  135.4480 C   0  0  0  0  0  2  0  0  0  0  0  0
  193.8200  171.1610  137.5680 N   0  0  0  0  0  1  0  0  0  0  0  0
  192.4050  171.2870  137.5890 C   0  0  0  0  0  0  0  0  0  0  0  0
  191.6880  170.2560  137.6760 O   0  0  0  0  0  0  0  0  0  0  0  0
  1 43  1  6  0  0  0
  1 22  1  0  0  0  0
  2 10  1  1  0  0  0
  2  3  1  0  0  0  0
  4  5  2  0  0  0  0
  5  8  1  0  0  0  0
  6  3  1  1  0  0  0
  6 19  1  0  0  0  0
  7  2  1  0  0  0  0
  7  5  1  0  0  0  0
  8  1  1  6  0  0  0
  8  6  1  0  0  0  0
  9 13  1  0  0  0  0
 11  9  1  0  0  0  0
 11 10  1  0  0  0  0
 12 11  2  0  0  0  0
 13 14  1  0  0  0  0
 14 15  1  0  0  0  0
 15 17  2  0  0  0  0
 15 16  1  0  0  0  0
 19 20  1  6  0  0  0
 19 21  1  0  0  0  0
 20 21  1  0  0  0  0
 21 18  2  0  0  0  0
 22 23  1  0  0  0  0
 23 24  1  0  0  0  0
 24 25  1  0  0  0  0
 25 26  1  0  0  0  0
 26 27  1  0  0  0  0
 28 27  1  0  0  0  0
 28 30  1  0  0  0  0
 30 29  2  6  0  0  0
 30 34  1  0  0  0  0
 30 31  1  0  0  0  0
 34 33  1  0  0  0  0
 34 32  1  0  0  0  0
 35 36  1  0  0  0  0
 35 34  1  0  0  0  0
 37 36  1  0  0  0  0
 38 40  1  0  0  0  0
 38 37  1  0  0  0  0
 39 40  1  0  0  0  0
 41 42  1  0  0  0  0
 41 38  1  0  0  0  0
 42 39  1  0  0  0  0
 44 43  1  0  0  0  0
 45 54  1  0  0  0  0
 45 44  1  1  0  0  0
 46 47  1  0  0  0  0
 46 51  1  0  0  0  0
 47 49  1  0  0  0  0
 49 48  1  6  0  0  0
 49 45  1  0  0  0  0
 51 49  1  0  0  0  0
 51 50  2  0  0  0  0
 52 47  2  0  0  0  0
 53 54  1  0  0  0  0
 54 55  2  0  0  0  0
M  END
>  <MODEL>
9

>  <REMARK>
 VINA RESULT:      -5.3      2.314      4.711
  Name = 
  24 active torsions:
  status: ('A' for Active; 'I' for Inactive)
    1  A    between atoms: C_3  and  C_38
    2  A    between atoms: N_5  and  C_51
    3  A    between atoms: C_11  and  N_32
    4  A    between atoms: C_12  and  C_21
    5  A    between atoms: C_12  and  C_43
    6  A    between atoms: N_13  and  C_45
    7  A    between atoms: C_14  and  C_54
    8  A    between atoms: C_17  and  C_24
    9  A    between atoms: C_17  and  C_43
   10  A    between atoms: C_20  and  C_22
   11  A    between atoms: C_20  and  C_36
   12  A    between atoms: C_21  and  N_31
   13  A    between atoms: C_22  and  C_54
   14  A    between atoms: C_23  and  C_33
   15  A    between atoms: C_24  and  O_39
   16  A    between atoms: C_25  and  C_54
   17  A    between atoms: O_26  and  C_30
   18  A    between atoms: O_26  and  C_49
   19  A    between atoms: C_30  and  P_34
   20  A    between atoms: N_31  and  P_34
   21  A    between atoms: C_33  and  C_45
   22  A    between atoms: C_36  and  O_39
   23  A    between atoms: C_36  and  C_53
   24  A    between atoms: C_49  and  C_51
                            x       y       z     vdW  Elec       q    Type
                         _______ _______ _______ _____ _____    ______ ____

>  <TORSDO>
F 24

$$$$
