=
 OpenBabel11062420423D

 45 50  0  0  1  0  0  0  0  0999 V2000
  187.4420  177.0610  142.9240 C   0  0  1  0  0  3  0  0  0  0  0  0
  188.8340  175.2800  141.9400 N   0  0  0  0  0  0  0  0  0  0  0  0
  187.4570  175.7270  142.1700 C   0  0  0  0  0  2  0  0  0  0  0  0
  189.8070  177.4720  142.5350 C   0  0  2  0  0  3  0  0  0  0  0  0
  188.4330  177.9760  142.3560 N   0  0  0  0  0  2  0  0  0  0  0  0
  189.9230  175.9440  142.6550 C   0  0  0  0  0  2  0  0  0  0  0  0
  190.3290  173.6140  141.0400 C   0  0  0  0  0  3  0  0  0  0  0  0
  190.6600  172.4450  140.1480 C   0  0  1  0  0  3  0  0  0  0  0  0
  188.4640  174.1160  138.7120 C   0  0  0  0  0  0  0  0  0  0  0  0
  190.1900  171.4280  137.9680 N   0  0  0  0  0  1  0  0  0  0  0  0
  189.7410  173.7610  138.1680 N   0  0  0  0  0  2  0  0  0  0  0  0
  188.0730  173.7020  140.0890 C   0  0  0  0  0  2  0  0  0  0  0  0
  189.1190  174.1840  141.0530 C   0  0  0  0  0  0  0  0  0  0  0  0
  190.6000  172.6610  138.6160 C   0  0  1  0  0  3  0  0  0  0  0  0
  187.6900  174.8530  138.0470 O   0  0  0  0  0  0  0  0  0  0  0  0
  191.8140  171.7530  140.5720 O   0  0  0  0  0  0  0  0  0  0  0  0
  192.2260  172.2830  141.8100 C   0  0  0  0  0  2  0  0  0  0  0  0
  191.9170  171.3140  142.9460 C   0  0  2  0  0  3  0  0  0  0  0  0
  189.0920  171.7130  143.5160 O   0  0  0  0  0  0  0  0  0  0  0  0
  189.6900  172.8530  145.4090 O   0  0  0  0  0  1  0  0  0  0  0  0
  191.4410  172.0310  144.1220 N   0  0  0  0  0  2  0  0  0  0  0  0
  190.0520  172.2230  144.3830 C   0  0  0  0  0  0  0  0  0  0  0  0
  193.1100  170.5480  143.2810 N   0  0  0  0  0  2  0  0  0  0  0  0
  192.8640  168.4320  144.4130 N   0  0  0  0  0  2  0  0  0  0  0  0
  192.7920  169.1300  143.1620 C   0  0  1  0  0  0  0  0  0  0  0  0
  191.7070  168.6410  142.2230 C   0  0  0  0  0  1  0  0  0  0  0  0
  193.8210  168.2860  143.4130 O   0  0  0  0  0  0  0  0  0  0  0  0
  185.8880  178.9390  143.9210 C   0  0  0  0  0  2  0  0  0  0  0  0
  185.3570  177.8670  141.8150 O   0  0  0  0  0  1  0  0  0  0  0  0
  185.1650  177.6320  144.2390 C   0  0  1  0  0  3  0  0  0  0  0  0
  186.0640  177.7440  143.0100 C   0  0  1  0  0  0  0  0  0  0  0  0
  185.8330  176.9720  145.4340 C   0  0  0  0  0  1  0  0  0  0  0  0
  190.5400  178.1970  143.6660 C   0  0  0  0  0  2  0  0  0  0  0  0
  190.0740  177.1110  145.9010 C   0  0  0  0  0  0  0  0  0  0  0  0
  191.6850  175.6070  146.9320 C   0  0  0  0  0  3  0  0  0  0  0  0
  194.3850  175.8170  144.0220 C   0  0  0  0  0  3  0  0  0  0  0  0
  193.9580  173.5580  145.4770 O   0  0  0  0  0  0  0  0  0  0  0  0
  190.9300  177.2880  144.7970 C   0  0  0  0  0  0  0  0  0  0  0  0
  192.1570  176.6040  144.7740 C   0  0  0  0  0  0  0  0  0  0  0  0
  192.5130  175.7870  145.8270 C   0  0  0  0  0  0  0  0  0  0  0  0
  195.0480  175.4690  146.6380 O   0  0  0  0  0  0  0  0  0  0  0  0
  193.1590  176.6740  143.6550 C   0  0  0  0  0  3  0  0  0  0  0  0
  190.4560  176.2750  146.9630 C   0  0  0  0  0  3  0  0  0  0  0  0
  188.8690  177.7300  145.9510 F   0  0  0  0  0  0  0  0  0  0  0  0
  194.0510  175.0520  145.5940 S   0  0  0  0  0  0  0  0  0  0  0  0
  1  3  1  6  0  0  0
  1 31  1  0  0  0  0
  2  3  1  0  0  0  0
  2  6  1  0  0  0  0
  4  6  1  0  0  0  0
  4 33  1  1  0  0  0
  5  4  1  0  0  0  0
  5  1  1  0  0  0  0
  7 13  2  0  0  0  0
  8 16  1  1  0  0  0
  8  7  1  0  0  0  0
  9 12  1  0  0  0  0
 11 14  1  0  0  0  0
 11  9  1  0  0  0  0
 12 13  1  0  0  0  0
 13  2  1  0  0  0  0
 14 10  1  6  0  0  0
 14  8  1  0  0  0  0
 15  9  2  0  0  0  0
 16 17  1  0  0  0  0
 18 17  1  6  0  0  0
 18 23  1  0  0  0  0
 18 21  1  0  0  0  0
 19 22  2  0  0  0  0
 21 22  1  0  0  0  0
 22 20  1  0  0  0  0
 25 26  1  6  0  0  0
 25 23  1  0  0  0  0
 25 27  1  0  0  0  0
 25 24  1  0  0  0  0
 27 24  1  0  0  0  0
 28 30  1  0  0  0  0
 30 32  1  1  0  0  0
 31 29  1  6  0  0  0
 31 28  1  0  0  0  0
 31 30  1  0  0  0  0
 33 38  1  0  0  0  0
 34 44  1  0  0  0  0
 34 43  1  0  0  0  0
 35 43  2  0  0  0  0
 36 45  1  0  0  0  0
 37 45  2  0  0  0  0
 38 34  2  0  0  0  0
 39 38  1  0  0  0  0
 39 40  2  0  0  0  0
 40 35  1  0  0  0  0
 42 36  2  0  0  0  0
 42 39  1  0  0  0  0
 45 40  1  0  0  0  0
 45 41  2  0  0  0  0
M  END
>  <MODEL>
1

>  <REMARK>
 VINA RESULT:      -7.6      0.000      0.000
  Name = 
  10 active torsions:
  status: ('A' for Active; 'I' for Inactive)
    1  A    between atoms: O_3  and  C_11
    2  A    between atoms: O_3  and  C_40
    3  A    between atoms: C_4  and  N_22
    4  A    between atoms: C_4  and  N_32
    5  A    between atoms: C_4  and  C_40
    6  A    between atoms: C_10  and  C_18
    7  A    between atoms: C_12  and  C_15
    8  A    between atoms: C_12  and  C_29
    9  A    between atoms: N_21  and  C_39
   10  A    between atoms: N_22  and  C_34
                            x       y       z     vdW  Elec       q    Type
                         _______ _______ _______ _____ _____    ______ ____

>  <TORSDO>
F 10

$$$$
=
 OpenBabel11062420423D

 45 50  0  0  1  0  0  0  0  0999 V2000
  194.5060  174.3880  144.0480 C   0  0  1  0  0  3  0  0  0  0  0  0
  192.0730  174.5310  144.4240 N   0  0  0  0  0  0  0  0  0  0  0  0
  193.3860  174.9060  144.9580 C   0  0  0  0  0  2  0  0  0  0  0  0
  192.9830  173.8870  142.2190 C   0  0  2  0  0  3  0  0  0  0  0  0
  194.1770  174.6410  142.6440 N   0  0  0  0  0  2  0  0  0  0  0  0
  192.0010  173.5420  143.3500 C   0  0  0  0  0  2  0  0  0  0  0  0
  190.2510  176.1110  144.3440 C   0  0  0  0  0  3  0  0  0  0  0  0
  188.9690  176.7130  144.8590 C   0  0  1  0  0  3  0  0  0  0  0  0
  190.5350  175.6220  147.3150 C   0  0  0  0  0  0  0  0  0  0  0  0
  187.7100  177.2350  146.8950 N   0  0  0  0  0  1  0  0  0  0  0  0
  190.0660  176.9650  147.1460 N   0  0  0  0  0  2  0  0  0  0  0  0
  190.3100  174.5900  146.2630 C   0  0  0  0  0  2  0  0  0  0  0  0
  190.8650  175.0970  144.9640 C   0  0  0  0  0  0  0  0  0  0  0  0
  188.9970  177.4030  146.2440 C   0  0  1  0  0  3  0  0  0  0  0  0
  191.2140  175.3260  148.3320 O   0  0  0  0  0  0  0  0  0  0  0  0
  188.2900  177.4600  143.8730 O   0  0  0  0  0  0  0  0  0  0  0  0
  188.7840  177.0880  142.6080 C   0  0  0  0  0  2  0  0  0  0  0  0
  187.6940  176.4270  141.7710 C   0  0  2  0  0  3  0  0  0  0  0  0
  186.6110  177.4320  139.2640 O   0  0  0  0  0  0  0  0  0  0  0  0
  184.9720  178.4930  140.4600 O   0  0  0  0  0  1  0  0  0  0  0  0
  186.5090  177.2710  141.7040 N   0  0  0  0  0  2  0  0  0  0  0  0
  185.9950  177.7610  140.4660 C   0  0  0  0  0  0  0  0  0  0  0  0
  187.3480  175.1310  142.3420 N   0  0  0  0  0  2  0  0  0  0  0  0
  187.6290  172.7770  141.8960 N   0  0  0  0  0  2  0  0  0  0  0  0
  188.1110  174.1040  141.6430 C   0  0  1  0  0  0  0  0  0  0  0  0
  188.6410  174.3320  140.2410 C   0  0  0  0  0  1  0  0  0  0  0  0
  188.8130  173.2650  142.4420 O   0  0  0  0  0  0  0  0  0  0  0  0
  197.1230  174.2080  143.8220 C   0  0  0  0  0  2  0  0  0  0  0  0
  196.0600  176.3100  144.3880 O   0  0  0  0  0  1  0  0  0  0  0  0
  196.8650  174.2020  145.3260 C   0  0  1  0  0  3  0  0  0  0  0  0
  195.9120  174.9240  144.3780 C   0  0  1  0  0  0  0  0  0  0  0  0
  196.3920  172.8200  145.7450 C   0  0  0  0  0  1  0  0  0  0  0  0
  193.3500  172.6610  141.3790 C   0  0  0  0  0  2  0  0  0  0  0  0
  191.3870  171.2350  140.6670 C   0  0  0  0  0  0  0  0  0  0  0  0
  190.3130  171.5580  138.5080 C   0  0  0  0  0  3  0  0  0  0  0  0
  192.6280  174.5660  137.3260 C   0  0  0  0  0  3  0  0  0  0  0  0
  189.9970  174.3790  136.6580 O   0  0  0  0  0  0  0  0  0  0  0  0
  192.2860  172.2830  140.3880 C   0  0  0  0  0  0  0  0  0  0  0  0
  192.1730  172.9660  139.1660 C   0  0  0  0  0  0  0  0  0  0  0  0
  191.2030  172.5980  138.2540 C   0  0  0  0  0  0  0  0  0  0  0  0
  191.5560  172.7540  135.6020 O   0  0  0  0  0  0  0  0  0  0  0  0
  193.0400  174.1190  138.7410 C   0  0  0  0  0  3  0  0  0  0  0  0
  190.4090  170.8760  139.7260 C   0  0  0  0  0  3  0  0  0  0  0  0
  191.4440  170.5690  141.8460 F   0  0  0  0  0  0  0  0  0  0  0  0
  191.2440  173.5610  136.8300 S   0  0  0  0  0  0  0  0  0  0  0  0
  1 31  1  0  0  0  0
  1  3  1  1  0  0  0
  2  3  1  0  0  0  0
  2 13  1  0  0  0  0
  4 33  1  1  0  0  0
  4  5  1  0  0  0  0
  4  6  1  0  0  0  0
  5  1  1  0  0  0  0
  6  2  1  0  0  0  0
  7  8  1  0  0  0  0
  7 13  2  0  0  0  0
  8 16  1  6  0  0  0
  8 14  1  0  0  0  0
  9 15  2  0  0  0  0
 11  9  1  0  0  0  0
 12  9  1  0  0  0  0
 13 12  1  0  0  0  0
 14 10  1  1  0  0  0
 14 11  1  0  0  0  0
 17 16  1  0  0  0  0
 18 23  1  0  0  0  0
 18 17  1  1  0  0  0
 19 22  2  0  0  0  0
 20 22  1  0  0  0  0
 21 18  1  0  0  0  0
 22 21  1  0  0  0  0
 24 27  1  0  0  0  0
 25 26  1  6  0  0  0
 25 24  1  0  0  0  0
 25 23  1  0  0  0  0
 25 27  1  0  0  0  0
 28 31  1  0  0  0  0
 28 30  1  0  0  0  0
 30 32  1  6  0  0  0
 31 29  1  1  0  0  0
 31 30  1  0  0  0  0
 34 44  1  0  0  0  0
 35 43  1  0  0  0  0
 36 42  2  0  0  0  0
 37 45  2  0  0  0  0
 38 34  1  0  0  0  0
 38 33  1  0  0  0  0
 39 38  2  0  0  0  0
 40 35  2  0  0  0  0
 40 39  1  0  0  0  0
 41 45  2  0  0  0  0
 42 39  1  0  0  0  0
 43 34  2  0  0  0  0
 45 36  1  0  0  0  0
 45 40  1  0  0  0  0
M  END
>  <MODEL>
2

>  <REMARK>
 VINA RESULT:      -7.3      3.343      8.209
  Name = 
  10 active torsions:
  status: ('A' for Active; 'I' for Inactive)
    1  A    between atoms: O_3  and  C_11
    2  A    between atoms: O_3  and  C_40
    3  A    between atoms: C_4  and  N_22
    4  A    between atoms: C_4  and  N_32
    5  A    between atoms: C_4  and  C_40
    6  A    between atoms: C_10  and  C_18
    7  A    between atoms: C_12  and  C_15
    8  A    between atoms: C_12  and  C_29
    9  A    between atoms: N_21  and  C_39
   10  A    between atoms: N_22  and  C_34
                            x       y       z     vdW  Elec       q    Type
                         _______ _______ _______ _____ _____    ______ ____

>  <TORSDO>
F 10

$$$$
=
 OpenBabel11062420423D

 45 50  0  0  1  0  0  0  0  0999 V2000
  187.3690  177.0400  142.7720 C   0  0  1  0  0  3  0  0  0  0  0  0
  188.8400  175.2200  141.9950 N   0  0  0  0  0  0  0  0  0  0  0  0
  187.4510  175.6850  142.0590 C   0  0  0  0  0  2  0  0  0  0  0  0
  189.7670  177.4170  142.6380 C   0  0  2  0  0  3  0  0  0  0  0  0
  188.4280  177.9300  142.2950 N   0  0  0  0  0  2  0  0  0  0  0  0
  189.8500  175.8930  142.8100 C   0  0  0  0  0  2  0  0  0  0  0  0
  190.4430  173.5870  141.2290 C   0  0  0  0  0  3  0  0  0  0  0  0
  190.8600  172.3950  140.4080 C   0  0  1  0  0  3  0  0  0  0  0  0
  188.6420  173.8870  138.8170 C   0  0  0  0  0  0  0  0  0  0  0  0
  190.5190  171.2530  138.2670 N   0  0  0  0  0  1  0  0  0  0  0  0
  189.9540  173.5690  138.3350 N   0  0  0  0  0  2  0  0  0  0  0  0
  188.2220  173.5200  140.1990 C   0  0  0  0  0  2  0  0  0  0  0  0
  189.2080  174.0970  141.1730 C   0  0  0  0  0  0  0  0  0  0  0  0
  190.8460  172.5340  138.8660 C   0  0  1  0  0  3  0  0  0  0  0  0
  187.8600  174.5530  138.0910 O   0  0  0  0  0  0  0  0  0  0  0  0
  192.0300  171.7810  140.9050 O   0  0  0  0  0  0  0  0  0  0  0  0
  192.8500  172.7730  141.4750 C   0  0  0  0  0  2  0  0  0  0  0  0
  194.0650  172.1500  142.1540 C   0  0  2  0  0  3  0  0  0  0  0  0
  196.4770  173.1810  143.4140 O   0  0  0  0  0  1  0  0  0  0  0  0
  197.4790  173.2000  141.3550 O   0  0  0  0  0  0  0  0  0  0  0  0
  195.2820  172.4440  141.4100 N   0  0  0  0  0  2  0  0  0  0  0  0
  196.4540  172.9550  142.0420 C   0  0  0  0  0  0  0  0  0  0  0  0
  193.8860  170.7080  142.2640 N   0  0  0  0  0  2  0  0  0  0  0  0
  192.7560  169.3760  143.9270 N   0  0  0  0  0  2  0  0  0  0  0  0
  193.7610  170.3670  143.6760 C   0  0  1  0  0  0  0  0  0  0  0  0
  194.9770  170.2830  144.5780 C   0  0  0  0  0  1  0  0  0  0  0  0
  192.5860  170.7190  144.2510 O   0  0  0  0  0  0  0  0  0  0  0  0
  185.7920  179.0500  143.4090 C   0  0  0  0  0  2  0  0  0  0  0  0
  185.3570  177.6950  141.4500 O   0  0  0  0  0  1  0  0  0  0  0  0
  185.0350  177.8070  143.8690 C   0  0  1  0  0  3  0  0  0  0  0  0
  185.9980  177.7370  142.6860 C   0  0  1  0  0  0  0  0  0  0  0  0
  185.6290  177.3170  145.1790 C   0  0  0  0  0  1  0  0  0  0  0  0
  190.3790  178.1660  143.8250 C   0  0  0  0  0  2  0  0  0  0  0  0
  189.9940  177.0610  146.0660 C   0  0  0  0  0  0  0  0  0  0  0  0
  191.6530  175.5710  147.0390 C   0  0  0  0  0  3  0  0  0  0  0  0
  194.2620  175.8320  144.0510 C   0  0  0  0  0  3  0  0  0  0  0  0
  193.9070  173.5590  145.5040 O   0  0  0  0  0  0  0  0  0  0  0  0
  190.8140  177.2560  144.9380 C   0  0  0  0  0  0  0  0  0  0  0  0
  192.0480  176.5870  144.8740 C   0  0  0  0  0  0  0  0  0  0  0  0
  192.4460  175.7680  145.9110 C   0  0  0  0  0  0  0  0  0  0  0  0
  195.0070  175.4770  146.6430 O   0  0  0  0  0  0  0  0  0  0  0  0
  193.0150  176.6750  143.7260 C   0  0  0  0  0  3  0  0  0  0  0  0
  190.4180  176.2230  147.1110 C   0  0  0  0  0  3  0  0  0  0  0  0
  188.7830  177.6650  146.1560 F   0  0  0  0  0  0  0  0  0  0  0  0
  193.9850  175.0530  145.6280 S   0  0  0  0  0  0  0  0  0  0  0  0
  1  3  1  6  0  0  0
  2  3  1  0  0  0  0
  2  6  1  0  0  0  0
  4  6  1  0  0  0  0
  4 33  1  1  0  0  0
  5  4  1  0  0  0  0
  5  1  1  0  0  0  0
  8 16  1  1  0  0  0
  8  7  1  0  0  0  0
  9 12  1  0  0  0  0
 11  9  1  0  0  0  0
 11 14  1  0  0  0  0
 12 13  1  0  0  0  0
 13  7  2  0  0  0  0
 13  2  1  0  0  0  0
 14 10  1  6  0  0  0
 14  8  1  0  0  0  0
 15  9  2  0  0  0  0
 16 17  1  0  0  0  0
 18 17  1  6  0  0  0
 18 23  1  0  0  0  0
 20 22  2  0  0  0  0
 21 22  1  0  0  0  0
 21 18  1  0  0  0  0
 22 19  1  0  0  0  0
 23 25  1  0  0  0  0
 24 27  1  0  0  0  0
 25 24  1  0  0  0  0
 25 27  1  0  0  0  0
 25 26  1  1  0  0  0
 28 30  1  0  0  0  0
 30 32  1  1  0  0  0
 31 29  1  6  0  0  0
 31  1  1  0  0  0  0
 31 28  1  0  0  0  0
 31 30  1  0  0  0  0
 33 38  1  0  0  0  0
 34 44  1  0  0  0  0
 34 43  1  0  0  0  0
 35 43  2  0  0  0  0
 36 45  1  0  0  0  0
 37 45  2  0  0  0  0
 38 34  2  0  0  0  0
 39 38  1  0  0  0  0
 39 40  2  0  0  0  0
 40 35  1  0  0  0  0
 42 36  2  0  0  0  0
 42 39  1  0  0  0  0
 45 40  1  0  0  0  0
 45 41  2  0  0  0  0
M  END
>  <MODEL>
3

>  <REMARK>
 VINA RESULT:      -7.2      1.468      2.333
  Name = 
  10 active torsions:
  status: ('A' for Active; 'I' for Inactive)
    1  A    between atoms: O_3  and  C_11
    2  A    between atoms: O_3  and  C_40
    3  A    between atoms: C_4  and  N_22
    4  A    between atoms: C_4  and  N_32
    5  A    between atoms: C_4  and  C_40
    6  A    between atoms: C_10  and  C_18
    7  A    between atoms: C_12  and  C_15
    8  A    between atoms: C_12  and  C_29
    9  A    between atoms: N_21  and  C_39
   10  A    between atoms: N_22  and  C_34
                            x       y       z     vdW  Elec       q    Type
                         _______ _______ _______ _____ _____    ______ ____

>  <TORSDO>
F 10

$$$$
=
 OpenBabel11062420423D

 45 50  0  0  1  0  0  0  0  0999 V2000
  190.5330  175.3990  144.8890 C   0  0  1  0  0  3  0  0  0  0  0  0
  192.2180  175.5570  143.0950 N   0  0  0  0  0  0  0  0  0  0  0  0
  191.8440  174.8430  144.3200 C   0  0  0  0  0  2  0  0  0  0  0  0
  190.0000  176.6170  142.8540 C   0  0  2  0  0  3  0  0  0  0  0  0
  189.5570  175.5920  143.8160 N   0  0  0  0  0  2  0  0  0  0  0  0
  191.5220  176.7990  142.7590 C   0  0  0  0  0  2  0  0  0  0  0  0
  193.2020  173.8520  141.7000 C   0  0  0  0  0  3  0  0  0  0  0  0
  194.2710  173.3170  140.7830 C   0  0  1  0  0  3  0  0  0  0  0  0
  195.6430  175.2990  142.7490 C   0  0  0  0  0  0  0  0  0  0  0  0
  196.6780  173.3480  140.3250 N   0  0  0  0  0  1  0  0  0  0  0  0
  196.0140  173.9310  142.5390 N   0  0  0  0  0  2  0  0  0  0  0  0
  194.4990  175.9070  142.0130 C   0  0  0  0  0  2  0  0  0  0  0  0
  193.2740  175.0710  142.2470 C   0  0  0  0  0  0  0  0  0  0  0  0
  195.6920  173.1160  141.3650 C   0  0  1  0  0  3  0  0  0  0  0  0
  196.2420  175.9760  143.6240 O   0  0  0  0  0  0  0  0  0  0  0  0
  193.8210  172.2240  140.0110 O   0  0  0  0  0  0  0  0  0  0  0  0
  193.0690  171.3690  140.8380 C   0  0  0  0  0  2  0  0  0  0  0  0
  191.6400  171.2320  140.3220 C   0  0  2  0  0  3  0  0  0  0  0  0
  189.8420  173.3460  141.1980 O   0  0  0  0  0  0  0  0  0  0  0  0
  189.0490  171.9280  142.8110 O   0  0  0  0  0  1  0  0  0  0  0  0
  190.7050  171.0680  141.4270 N   0  0  0  0  0  2  0  0  0  0  0  0
  189.8340  172.1170  141.8480 C   0  0  0  0  0  0  0  0  0  0  0  0
  191.5460  170.0940  139.4190 N   0  0  0  0  0  2  0  0  0  0  0  0
  189.7800  169.6530  137.8360 N   0  0  0  0  0  2  0  0  0  0  0  0
  190.8560  170.5240  138.2090 C   0  0  1  0  0  0  0  0  0  0  0  0
  190.6130  171.9930  137.9190 C   0  0  0  0  0  1  0  0  0  0  0  0
  190.9870  169.6960  137.1450 O   0  0  0  0  0  0  0  0  0  0  0  0
  188.8270  175.1830  146.8830 C   0  0  0  0  0  2  0  0  0  0  0  0
  189.7130  173.2170  145.7800 O   0  0  0  0  0  1  0  0  0  0  0  0
  190.1870  174.8800  147.5060 C   0  0  1  0  0  3  0  0  0  0  0  0
  189.9200  174.5710  146.0350 C   0  0  1  0  0  0  0  0  0  0  0  0
  190.9300  176.1850  147.7390 C   0  0  0  0  0  1  0  0  0  0  0  0
  189.2720  177.9480  143.0600 C   0  0  0  0  0  2  0  0  0  0  0  0
  187.0220  177.5840  141.9640 C   0  0  0  0  0  0  0  0  0  0  0  0
  184.9720  177.5580  143.2730 C   0  0  0  0  0  3  0  0  0  0  0  0
  186.7110  178.1530  146.7990 C   0  0  0  0  0  3  0  0  0  0  0  0
  184.4830  176.6230  146.4940 O   0  0  0  0  0  0  0  0  0  0  0  0
  187.7780  177.8010  143.1330 C   0  0  0  0  0  0  0  0  0  0  0  0
  187.1120  177.8810  144.3660 C   0  0  0  0  0  0  0  0  0  0  0  0
  185.7370  177.7630  144.4190 C   0  0  0  0  0  0  0  0  0  0  0  0
  184.2240  179.0780  146.1970 O   0  0  0  0  0  0  0  0  0  0  0  0
  187.7840  178.0820  145.6960 C   0  0  0  0  0  3  0  0  0  0  0  0
  185.6250  177.4670  142.0400 C   0  0  0  0  0  3  0  0  0  0  0  0
  187.6290  177.4720  140.7570 F   0  0  0  0  0  0  0  0  0  0  0  0
  185.1300  177.8930  146.0230 S   0  0  0  0  0  0  0  0  0  0  0  0
  1  3  1  6  0  0  0
  1 31  1  0  0  0  0
  2  3  1  0  0  0  0
  4 33  1  1  0  0  0
  4  5  1  0  0  0  0
  5  1  1  0  0  0  0
  6  4  1  0  0  0  0
  6  2  1  0  0  0  0
  7 13  2  0  0  0  0
  8 16  1  1  0  0  0
  8 14  1  0  0  0  0
  8  7  1  0  0  0  0
  9 15  2  0  0  0  0
 11  9  1  0  0  0  0
 12 13  1  0  0  0  0
 12  9  1  0  0  0  0
 13  2  1  0  0  0  0
 14 10  1  6  0  0  0
 14 11  1  0  0  0  0
 16 17  1  0  0  0  0
 18 17  1  1  0  0  0
 18 21  1  0  0  0  0
 19 22  2  0  0  0  0
 21 22  1  0  0  0  0
 22 20  1  0  0  0  0
 23 18  1  0  0  0  0
 24 25  1  0  0  0  0
 25 26  1  6  0  0  0
 25 23  1  0  0  0  0
 27 24  1  0  0  0  0
 27 25  1  0  0  0  0
 28 30  1  0  0  0  0
 30 32  1  6  0  0  0
 31 29  1  6  0  0  0
 31 28  1  0  0  0  0
 31 30  1  0  0  0  0
 33 38  1  0  0  0  0
 34 43  2  0  0  0  0
 34 38  1  0  0  0  0
 35 40  2  0  0  0  0
 38 39  2  0  0  0  0
 39 40  1  0  0  0  0
 39 42  1  0  0  0  0
 40 45  1  0  0  0  0
 42 36  2  0  0  0  0
 43 35  1  0  0  0  0
 44 34  1  0  0  0  0
 45 41  2  0  0  0  0
 45 37  2  0  0  0  0
 45 36  1  0  0  0  0
M  END
>  <MODEL>
4

>  <REMARK>
 VINA RESULT:      -7.1      2.937      5.939
  Name = 
  10 active torsions:
  status: ('A' for Active; 'I' for Inactive)
    1  A    between atoms: O_3  and  C_11
    2  A    between atoms: O_3  and  C_40
    3  A    between atoms: C_4  and  N_22
    4  A    between atoms: C_4  and  N_32
    5  A    between atoms: C_4  and  C_40
    6  A    between atoms: C_10  and  C_18
    7  A    between atoms: C_12  and  C_15
    8  A    between atoms: C_12  and  C_29
    9  A    between atoms: N_21  and  C_39
   10  A    between atoms: N_22  and  C_34
                            x       y       z     vdW  Elec       q    Type
                         _______ _______ _______ _____ _____    ______ ____

>  <TORSDO>
F 10

$$$$
=
 OpenBabel11062420423D

 45 50  0  0  1  0  0  0  0  0999 V2000
  189.8920  173.9430  141.3890 C   0  0  1  0  0  3  0  0  0  0  0  0
  190.7700  175.2980  143.2530 N   0  0  0  0  0  0  0  0  0  0  0  0
  191.1280  174.3380  142.2050 C   0  0  0  0  0  2  0  0  0  0  0  0
  188.5470  175.7630  142.2800 C   0  0  2  0  0  3  0  0  0  0  0  0
  189.0970  175.1300  141.0680 N   0  0  0  0  0  2  0  0  0  0  0  0
  189.3570  175.5150  143.5620 C   0  0  0  0  0  2  0  0  0  0  0  0
  193.0790  175.7080  143.8210 C   0  0  0  0  0  3  0  0  0  0  0  0
  194.1740  176.4360  144.5560 C   0  0  1  0  0  3  0  0  0  0  0  0
  191.6530  176.4690  146.3780 C   0  0  0  0  0  0  0  0  0  0  0  0
  194.7390  177.5430  146.6670 N   0  0  0  0  0  1  0  0  0  0  0  0
  192.9470  175.9720  146.7410 N   0  0  0  0  0  2  0  0  0  0  0  0
  191.3970  177.0260  145.0190 C   0  0  0  0  0  2  0  0  0  0  0  0
  191.7850  175.9980  143.9960 C   0  0  0  0  0  0  0  0  0  0  0  0
  194.2190  176.3130  146.0980 C   0  0  1  0  0  3  0  0  0  0  0  0
  190.6990  176.3640  147.1910 O   0  0  0  0  0  0  0  0  0  0  0  0
  195.4350  176.2740  143.9420 O   0  0  0  0  0  0  0  0  0  0  0  0
  196.0610  175.1400  144.4950 C   0  0  0  0  0  2  0  0  0  0  0  0
  196.4050  174.1250  143.4110 C   0  0  2  0  0  3  0  0  0  0  0  0
  197.9390  173.2110  141.1130 O   0  0  0  0  0  1  0  0  0  0  0  0
  196.8970  174.8110  139.8500 O   0  0  0  0  0  0  0  0  0  0  0  0
  196.2750  174.7190  142.0860 N   0  0  0  0  0  2  0  0  0  0  0  0
  197.0400  174.2620  140.9720 C   0  0  0  0  0  0  0  0  0  0  0  0
  195.5300  172.9650  143.5230 N   0  0  0  0  0  2  0  0  0  0  0  0
  195.4060  170.8110  144.6000 N   0  0  0  0  0  2  0  0  0  0  0  0
  196.0730  172.0790  144.5450 C   0  0  1  0  0  0  0  0  0  0  0  0
  197.5590  172.0290  144.8380 C   0  0  0  0  0  1  0  0  0  0  0  0
  195.2300  171.7960  145.5670 O   0  0  0  0  0  0  0  0  0  0  0  0
  189.1560  172.1390  139.6190 C   0  0  0  0  0  2  0  0  0  0  0  0
  190.8270  173.8080  139.0800 O   0  0  0  0  0  1  0  0  0  0  0  0
  190.4970  171.6350  140.1480 C   0  0  1  0  0  3  0  0  0  0  0  0
  190.1860  173.1290  140.1150 C   0  0  1  0  0  0  0  0  0  0  0  0
  190.2850  170.9890  141.5070 C   0  0  0  0  0  1  0  0  0  0  0  0
  187.0600  175.4470  142.4670 C   0  0  0  0  0  2  0  0  0  0  0  0
  185.7000  177.4740  141.8080 C   0  0  0  0  0  0  0  0  0  0  0  0
  184.7250  178.9390  143.4890 C   0  0  0  0  0  3  0  0  0  0  0  0
  186.0480  176.9080  146.6400 C   0  0  0  0  0  3  0  0  0  0  0  0
  183.6620  178.2140  146.6240 O   0  0  0  0  0  0  0  0  0  0  0  0
  186.2390  176.6550  142.8190 C   0  0  0  0  0  0  0  0  0  0  0  0
  185.9980  176.9880  144.1620 C   0  0  0  0  0  0  0  0  0  0  0  0
  185.2580  178.1110  144.4740 C   0  0  0  0  0  0  0  0  0  0  0  0
  185.7200  179.6090  146.6480 O   0  0  0  0  0  0  0  0  0  0  0  0
  186.4840  176.1980  145.3450 C   0  0  0  0  0  3  0  0  0  0  0  0
  184.9490  178.6120  142.1470 C   0  0  0  0  0  3  0  0  0  0  0  0
  185.8840  177.1720  140.5000 F   0  0  0  0  0  0  0  0  0  0  0  0
  185.0880  178.3320  146.1720 S   0  0  0  0  0  0  0  0  0  0  0  0
  1  3  1  6  0  0  0
  2  6  1  0  0  0  0
  2 13  1  0  0  0  0
  3  2  1  0  0  0  0
  4 33  1  1  0  0  0
  4  6  1  0  0  0  0
  5  1  1  0  0  0  0
  5  4  1  0  0  0  0
  7 13  2  0  0  0  0
  7  8  1  0  0  0  0
  8 16  1  6  0  0  0
  8 14  1  0  0  0  0
  9 11  1  0  0  0  0
  9 15  2  0  0  0  0
 12  9  1  0  0  0  0
 13 12  1  0  0  0  0
 14 10  1  1  0  0  0
 14 11  1  0  0  0  0
 16 17  1  0  0  0  0
 18 23  1  0  0  0  0
 18 17  1  1  0  0  0
 20 22  2  0  0  0  0
 21 18  1  0  0  0  0
 22 19  1  0  0  0  0
 22 21  1  0  0  0  0
 23 25  1  0  0  0  0
 24 27  1  0  0  0  0
 25 24  1  0  0  0  0
 25 26  1  1  0  0  0
 25 27  1  0  0  0  0
 28 31  1  0  0  0  0
 28 30  1  0  0  0  0
 30 32  1  1  0  0  0
 31 29  1  6  0  0  0
 31 30  1  0  0  0  0
 31  1  1  0  0  0  0
 33 38  1  0  0  0  0
 34 43  2  0  0  0  0
 34 38  1  0  0  0  0
 35 40  2  0  0  0  0
 38 39  2  0  0  0  0
 39 40  1  0  0  0  0
 39 42  1  0  0  0  0
 40 45  1  0  0  0  0
 42 36  2  0  0  0  0
 43 35  1  0  0  0  0
 44 34  1  0  0  0  0
 45 37  2  0  0  0  0
 45 36  1  0  0  0  0
 45 41  2  0  0  0  0
M  END
>  <MODEL>
5

>  <REMARK>
 VINA RESULT:      -7.1      3.403      7.124
  Name = 
  10 active torsions:
  status: ('A' for Active; 'I' for Inactive)
    1  A    between atoms: O_3  and  C_11
    2  A    between atoms: O_3  and  C_40
    3  A    between atoms: C_4  and  N_22
    4  A    between atoms: C_4  and  N_32
    5  A    between atoms: C_4  and  C_40
    6  A    between atoms: C_10  and  C_18
    7  A    between atoms: C_12  and  C_15
    8  A    between atoms: C_12  and  C_29
    9  A    between atoms: N_21  and  C_39
   10  A    between atoms: N_22  and  C_34
                            x       y       z     vdW  Elec       q    Type
                         _______ _______ _______ _____ _____    ______ ____

>  <TORSDO>
F 10

$$$$
=
 OpenBabel11062420423D

 45 50  0  0  1  0  0  0  0  0999 V2000
  194.3000  173.5550  144.4460 C   0  0  1  0  0  3  0  0  0  0  0  0
  191.9310  174.2360  144.5270 N   0  0  0  0  0  0  0  0  0  0  0  0
  193.1640  174.1130  145.3110 C   0  0  0  0  0  2  0  0  0  0  0  0
  193.0920  173.9250  142.3690 C   0  0  2  0  0  3  0  0  0  0  0  0
  194.3150  174.2150  143.1400 N   0  0  0  0  0  2  0  0  0  0  0  0
  191.8570  173.5880  143.2180 C   0  0  0  0  0  2  0  0  0  0  0  0
  190.2870  175.9950  144.3770 C   0  0  0  0  0  3  0  0  0  0  0  0
  189.0800  176.7530  144.8660 C   0  0  1  0  0  3  0  0  0  0  0  0
  190.5360  175.6150  147.3670 C   0  0  0  0  0  0  0  0  0  0  0  0
  187.8960  177.4980  146.8780 N   0  0  0  0  0  1  0  0  0  0  0  0
  190.2110  176.9910  147.1370 N   0  0  0  0  0  2  0  0  0  0  0  0
  190.1960  174.5660  146.3650 C   0  0  0  0  0  2  0  0  0  0  0  0
  190.7940  174.9510  145.0420 C   0  0  0  0  0  0  0  0  0  0  0  0
  189.1890  177.4990  146.2180 C   0  0  1  0  0  3  0  0  0  0  0  0
  191.1870  175.2950  148.3960 O   0  0  0  0  0  0  0  0  0  0  0  0
  188.4780  177.5220  143.8470 O   0  0  0  0  0  0  0  0  0  0  0  0
  188.9350  177.0530  142.6010 C   0  0  0  0  0  2  0  0  0  0  0  0
  187.7720  176.5710  141.7410 C   0  0  2  0  0  3  0  0  0  0  0  0
  186.1950  177.1140  139.3560 O   0  0  0  0  0  0  0  0  0  0  0  0
  185.0420  178.6950  140.5450 O   0  0  0  0  0  1  0  0  0  0  0  0
  186.7060  177.5650  141.7060 N   0  0  0  0  0  2  0  0  0  0  0  0
  185.9470  177.8230  140.5260 C   0  0  0  0  0  0  0  0  0  0  0  0
  187.2590  175.3110  142.2630 N   0  0  0  0  0  2  0  0  0  0  0  0
  187.4610  172.9280  141.9490 N   0  0  0  0  0  2  0  0  0  0  0  0
  187.9980  174.2210  141.6370 C   0  0  1  0  0  0  0  0  0  0  0  0
  188.5650  174.3530  140.2370 C   0  0  0  0  0  1  0  0  0  0  0  0
  188.6510  173.4020  142.4960 O   0  0  0  0  0  0  0  0  0  0  0  0
  196.8470  172.8880  144.4260 C   0  0  0  0  0  2  0  0  0  0  0  0
  196.0740  174.8270  145.6540 O   0  0  0  0  0  1  0  0  0  0  0  0
  196.3320  172.4010  145.7790 C   0  0  1  0  0  3  0  0  0  0  0  0
  195.6970  173.6090  145.0940 C   0  0  1  0  0  0  0  0  0  0  0  0
  195.5650  171.1040  145.5820 C   0  0  0  0  0  1  0  0  0  0  0  0
  193.3410  172.8850  141.2730 C   0  0  0  0  0  2  0  0  0  0  0  0
  193.7480  174.4190  139.3050 C   0  0  0  0  0  0  0  0  0  0  0  0
  192.3350  174.3350  137.3260 C   0  0  0  0  0  3  0  0  0  0  0  0
  189.9770  171.4040  138.6140 C   0  0  0  0  0  3  0  0  0  0  0  0
  190.6450  171.7160  135.9960 O   0  0  0  0  0  0  0  0  0  0  0  0
  193.0000  173.3830  139.8970 C   0  0  0  0  0  0  0  0  0  0  0  0
  191.9290  172.8260  139.1800 C   0  0  0  0  0  0  0  0  0  0  0  0
  191.6130  173.3040  137.9240 C   0  0  0  0  0  0  0  0  0  0  0  0
  189.1050  173.4010  136.9840 O   0  0  0  0  0  0  0  0  0  0  0  0
  191.0590  171.7010  139.6690 C   0  0  0  0  0  3  0  0  0  0  0  0
  193.4110  174.8920  138.0260 C   0  0  0  0  0  3  0  0  0  0  0  0
  194.8080  174.9660  139.9500 F   0  0  0  0  0  0  0  0  0  0  0  0
  190.2700  172.4840  137.2300 S   0  0  0  0  0  0  0  0  0  0  0  0
  1 31  1  0  0  0  0
  1  3  1  1  0  0  0
  2 13  1  0  0  0  0
  2  3  1  0  0  0  0
  4 33  1  6  0  0  0
  4  5  1  0  0  0  0
  4  6  1  0  0  0  0
  5  1  1  0  0  0  0
  6  2  1  0  0  0  0
  7  8  1  0  0  0  0
  7 13  2  0  0  0  0
  8 16  1  6  0  0  0
  8 14  1  0  0  0  0
  9 15  2  0  0  0  0
 11  9  1  0  0  0  0
 12  9  1  0  0  0  0
 13 12  1  0  0  0  0
 14 10  1  1  0  0  0
 14 11  1  0  0  0  0
 17 16  1  0  0  0  0
 18 23  1  0  0  0  0
 18 17  1  1  0  0  0
 19 22  2  0  0  0  0
 21 18  1  0  0  0  0
 22 20  1  0  0  0  0
 22 21  1  0  0  0  0
 24 27  1  0  0  0  0
 25 26  1  6  0  0  0
 25 24  1  0  0  0  0
 25 23  1  0  0  0  0
 25 27  1  0  0  0  0
 28 31  1  0  0  0  0
 28 30  1  0  0  0  0
 30 32  1  6  0  0  0
 31 29  1  1  0  0  0
 31 30  1  0  0  0  0
 34 38  1  0  0  0  0
 34 44  1  0  0  0  0
 35 40  2  0  0  0  0
 35 43  1  0  0  0  0
 36 42  2  0  0  0  0
 37 45  2  0  0  0  0
 38 33  1  0  0  0  0
 39 42  1  0  0  0  0
 39 38  2  0  0  0  0
 40 39  1  0  0  0  0
 41 45  2  0  0  0  0
 43 34  2  0  0  0  0
 45 40  1  0  0  0  0
 45 36  1  0  0  0  0
M  END
>  <MODEL>
6

>  <REMARK>
 VINA RESULT:      -7.1      3.388      8.363
  Name = 
  10 active torsions:
  status: ('A' for Active; 'I' for Inactive)
    1  A    between atoms: O_3  and  C_11
    2  A    between atoms: O_3  and  C_40
    3  A    between atoms: C_4  and  N_22
    4  A    between atoms: C_4  and  N_32
    5  A    between atoms: C_4  and  C_40
    6  A    between atoms: C_10  and  C_18
    7  A    between atoms: C_12  and  C_15
    8  A    between atoms: C_12  and  C_29
    9  A    between atoms: N_21  and  C_39
   10  A    between atoms: N_22  and  C_34
                            x       y       z     vdW  Elec       q    Type
                         _______ _______ _______ _____ _____    ______ ____

>  <TORSDO>
F 10

$$$$
=
 OpenBabel11062420423D

 45 50  0  0  1  0  0  0  0  0999 V2000
  189.6340  174.4030  141.4150 C   0  0  1  0  0  3  0  0  0  0  0  0
  190.5620  175.5570  143.3860 N   0  0  0  0  0  0  0  0  0  0  0  0
  190.8960  174.7330  142.2210 C   0  0  0  0  0  2  0  0  0  0  0  0
  188.2920  176.0740  142.5620 C   0  0  2  0  0  3  0  0  0  0  0  0
  188.8030  175.5980  141.2640 N   0  0  0  0  0  2  0  0  0  0  0  0
  189.1600  175.7010  143.7740 C   0  0  0  0  0  2  0  0  0  0  0  0
  192.8830  175.9110  143.9450 C   0  0  0  0  0  3  0  0  0  0  0  0
  193.9940  176.5740  144.7160 C   0  0  1  0  0  3  0  0  0  0  0  0
  191.5050  176.4750  146.5780 C   0  0  0  0  0  0  0  0  0  0  0  0
  194.6010  177.5100  146.8980 N   0  0  0  0  0  1  0  0  0  0  0  0
  192.8020  175.9460  146.8790 N   0  0  0  0  0  2  0  0  0  0  0  0
  191.2290  177.1380  145.2720 C   0  0  0  0  0  2  0  0  0  0  0  0
  191.5940  176.1920  144.1640 C   0  0  0  0  0  0  0  0  0  0  0  0
  194.0650  176.3310  146.2430 C   0  0  1  0  0  3  0  0  0  0  0  0
  190.5630  176.3110  147.3960 O   0  0  0  0  0  0  0  0  0  0  0  0
  195.2440  176.4550  144.0700 O   0  0  0  0  0  0  0  0  0  0  0  0
  195.9280  175.3520  144.6160 C   0  0  0  0  0  2  0  0  0  0  0  0
  196.0860  174.2440  143.5810 C   0  0  2  0  0  3  0  0  0  0  0  0
  195.3680  171.9650  145.2420 O   0  0  0  0  0  1  0  0  0  0  0  0
  197.5650  171.3200  145.2110 O   0  0  0  0  0  0  0  0  0  0  0  0
  197.0570  173.2530  144.0270 N   0  0  0  0  0  2  0  0  0  0  0  0
  196.6890  172.1450  144.8470 C   0  0  0  0  0  0  0  0  0  0  0  0
  196.5060  174.8120  142.3070 N   0  0  0  0  0  2  0  0  0  0  0  0
  195.8120  174.9520  140.0010 N   0  0  0  0  0  2  0  0  0  0  0  0
  195.4280  174.6270  141.3440 C   0  0  1  0  0  0  0  0  0  0  0  0
  194.4530  173.4710  141.4640 C   0  0  0  0  0  1  0  0  0  0  0  0
  194.9740  175.7620  140.7620 O   0  0  0  0  0  0  0  0  0  0  0  0
  188.9160  173.9950  138.9150 C   0  0  0  0  0  2  0  0  0  0  0  0
  191.2160  173.7070  139.6160 O   0  0  0  0  0  1  0  0  0  0  0  0
  189.0430  172.5960  139.5120 C   0  0  1  0  0  3  0  0  0  0  0  0
  189.8910  173.7480  140.0450 C   0  0  1  0  0  0  0  0  0  0  0  0
  187.8100  172.2980  140.3500 C   0  0  0  0  0  1  0  0  0  0  0  0
  186.8210  175.7030  142.7700 C   0  0  0  0  0  2  0  0  0  0  0  0
  185.2160  177.6190  142.3860 C   0  0  0  0  0  0  0  0  0  0  0  0
  184.4520  179.0110  144.2290 C   0  0  0  0  0  3  0  0  0  0  0  0
  186.4670  177.0980  147.0720 C   0  0  0  0  0  3  0  0  0  0  0  0
  184.0250  178.2190  147.4960 O   0  0  0  0  0  0  0  0  0  0  0  0
  185.9880  176.8460  143.2760 C   0  0  0  0  0  0  0  0  0  0  0  0
  185.9680  177.1650  144.6440 C   0  0  0  0  0  0  0  0  0  0  0  0
  185.2130  178.2300  145.0940 C   0  0  0  0  0  0  0  0  0  0  0  0
  185.9440  179.7660  147.1650 O   0  0  0  0  0  0  0  0  0  0  0  0
  186.7160  176.4180  145.7130 C   0  0  0  0  0  3  0  0  0  0  0  0
  184.4560  178.6980  142.8660 C   0  0  0  0  0  3  0  0  0  0  0  0
  185.1850  177.3270  141.0630 F   0  0  0  0  0  0  0  0  0  0  0  0
  185.3350  178.4440  146.7970 S   0  0  0  0  0  0  0  0  0  0  0  0
  1  3  1  6  0  0  0
  2  6  1  0  0  0  0
  2 13  1  0  0  0  0
  3  2  1  0  0  0  0
  4 33  1  1  0  0  0
  4  6  1  0  0  0  0
  5  1  1  0  0  0  0
  5  4  1  0  0  0  0
  7 13  2  0  0  0  0
  7  8  1  0  0  0  0
  8 16  1  6  0  0  0
  8 14  1  0  0  0  0
  9 11  1  0  0  0  0
  9 15  2  0  0  0  0
 12  9  1  0  0  0  0
 13 12  1  0  0  0  0
 14 11  1  0  0  0  0
 14 10  1  1  0  0  0
 16 17  1  0  0  0  0
 18 21  1  0  0  0  0
 18 17  1  1  0  0  0
 21 22  1  0  0  0  0
 22 20  2  0  0  0  0
 22 19  1  0  0  0  0
 23 18  1  0  0  0  0
 24 27  1  0  0  0  0
 24 25  1  0  0  0  0
 25 26  1  1  0  0  0
 25 23  1  0  0  0  0
 27 25  1  0  0  0  0
 28 30  1  0  0  0  0
 28 31  1  0  0  0  0
 30 31  1  0  0  0  0
 30 32  1  1  0  0  0
 31 29  1  6  0  0  0
 31  1  1  0  0  0  0
 33 38  1  0  0  0  0
 34 43  2  0  0  0  0
 34 38  1  0  0  0  0
 35 40  2  0  0  0  0
 38 39  2  0  0  0  0
 39 40  1  0  0  0  0
 39 42  1  0  0  0  0
 40 45  1  0  0  0  0
 42 36  2  0  0  0  0
 43 35  1  0  0  0  0
 44 34  1  0  0  0  0
 45 36  1  0  0  0  0
 45 41  2  0  0  0  0
 45 37  2  0  0  0  0
M  END
>  <MODEL>
7

>  <REMARK>
 VINA RESULT:      -7.0      3.394      7.064
  Name = 
  10 active torsions:
  status: ('A' for Active; 'I' for Inactive)
    1  A    between atoms: O_3  and  C_11
    2  A    between atoms: O_3  and  C_40
    3  A    between atoms: C_4  and  N_22
    4  A    between atoms: C_4  and  N_32
    5  A    between atoms: C_4  and  C_40
    6  A    between atoms: C_10  and  C_18
    7  A    between atoms: C_12  and  C_15
    8  A    between atoms: C_12  and  C_29
    9  A    between atoms: N_21  and  C_39
   10  A    between atoms: N_22  and  C_34
                            x       y       z     vdW  Elec       q    Type
                         _______ _______ _______ _____ _____    ______ ____

>  <TORSDO>
F 10

$$$$
=
 OpenBabel11062420423D

 45 50  0  0  1  0  0  0  0  0999 V2000
  192.9700  175.0180  144.2790 C   0  0  1  0  0  3  0  0  0  0  0  0
  191.6130  174.2930  142.3530 N   0  0  0  0  0  0  0  0  0  0  0  0
  192.8510  174.0480  143.0990 C   0  0  0  0  0  2  0  0  0  0  0  0
  190.6450  175.7140  144.1260 C   0  0  2  0  0  3  0  0  0  0  0  0
  191.6890  175.1220  144.9820 N   0  0  0  0  0  2  0  0  0  0  0  0
  190.8570  175.5160  142.6170 C   0  0  0  0  0  2  0  0  0  0  0  0
  191.5970  173.4570  140.0890 C   0  0  0  0  0  3  0  0  0  0  0  0
  191.1680  172.4910  139.0160 C   0  0  1  0  0  3  0  0  0  0  0  0
  188.8380  172.6930  141.0660 C   0  0  0  0  0  0  0  0  0  0  0  0
  189.3050  171.1040  138.2350 N   0  0  0  0  0  1  0  0  0  0  0  0
  188.7420  172.9330  139.6570 N   0  0  0  0  0  2  0  0  0  0  0  0
  190.1370  172.3220  141.6950 C   0  0  0  0  0  2  0  0  0  0  0  0
  191.1570  173.3670  141.3490 C   0  0  0  0  0  0  0  0  0  0  0  0
  189.6700  172.4530  138.6290 C   0  0  1  0  0  3  0  0  0  0  0  0
  187.8290  172.8720  141.7960 O   0  0  0  0  0  0  0  0  0  0  0  0
  192.0350  172.5040  137.9020 O   0  0  0  0  0  0  0  0  0  0  0  0
  193.2040  171.7920  138.2340 C   0  0  0  0  0  2  0  0  0  0  0  0
  194.4490  172.5820  137.8480 C   0  0  2  0  0  3  0  0  0  0  0  0
  195.3730  173.1900  135.1570 O   0  0  0  0  0  0  0  0  0  0  0  0
  196.6440  171.2860  135.2220 O   0  0  0  0  0  1  0  0  0  0  0  0
  195.3940  171.7390  137.1270 N   0  0  0  0  0  2  0  0  0  0  0  0
  195.8320  172.0490  135.8050 C   0  0  0  0  0  0  0  0  0  0  0  0
  195.0810  173.1260  139.0430 N   0  0  0  0  0  2  0  0  0  0  0  0
  194.7750  175.3680  139.8770 N   0  0  0  0  0  2  0  0  0  0  0  0
  195.3140  174.5490  138.8310 C   0  0  1  0  0  0  0  0  0  0  0  0
  196.6120  175.0550  138.2320 C   0  0  0  0  0  1  0  0  0  0  0  0
  194.2010  175.2890  138.6120 O   0  0  0  0  0  0  0  0  0  0  0  0
  194.5170  175.7470  146.2820 C   0  0  0  0  0  2  0  0  0  0  0  0
  194.1290  173.4070  145.7910 O   0  0  0  0  0  1  0  0  0  0  0  0
  195.4860  175.3430  145.1740 C   0  0  1  0  0  3  0  0  0  0  0  0
  194.1050  174.6990  145.2710 C   0  0  1  0  0  0  0  0  0  0  0  0
  195.5740  176.4660  144.1550 C   0  0  0  0  0  1  0  0  0  0  0  0
  190.3750  177.1780  144.4840 C   0  0  0  0  0  2  0  0  0  0  0  0
  188.7380  177.1590  146.4110 C   0  0  0  0  0  0  0  0  0  0  0  0
  186.4130  177.8030  146.0960 C   0  0  0  0  0  3  0  0  0  0  0  0
  186.7210  178.6260  142.2190 C   0  0  0  0  0  3  0  0  0  0  0  0
  185.0630  179.9910  143.8880 O   0  0  0  0  0  0  0  0  0  0  0  0
  189.0010  177.4060  145.0490 C   0  0  0  0  0  0  0  0  0  0  0  0
  187.9580  177.8650  144.2290 C   0  0  0  0  0  0  0  0  0  0  0  0
  186.6960  178.0520  144.7550 C   0  0  0  0  0  0  0  0  0  0  0  0
  184.4510  177.6410  143.3500 O   0  0  0  0  0  0  0  0  0  0  0  0
  188.0940  178.1950  142.7680 C   0  0  0  0  0  3  0  0  0  0  0  0
  187.4460  177.3560  146.9260 C   0  0  0  0  0  3  0  0  0  0  0  0
  189.7230  176.7420  147.2430 F   0  0  0  0  0  0  0  0  0  0  0  0
  185.5730  178.6130  143.5790 S   0  0  0  0  0  0  0  0  0  0  0  0
  1  3  1  6  0  0  0
  1  5  1  0  0  0  0
  1 31  1  0  0  0  0
  2  6  1  0  0  0  0
  2  3  1  0  0  0  0
  4 33  1  6  0  0  0
  4  5  1  0  0  0  0
  6  4  1  0  0  0  0
  7 13  2  0  0  0  0
  8 16  1  6  0  0  0
  8  7  1  0  0  0  0
  9 12  1  0  0  0  0
  9 15  2  0  0  0  0
 11  9  1  0  0  0  0
 13 12  1  0  0  0  0
 13  2  1  0  0  0  0
 14 10  1  1  0  0  0
 14  8  1  0  0  0  0
 14 11  1  0  0  0  0
 16 17  1  0  0  0  0
 18 17  1  1  0  0  0
 18 23  1  0  0  0  0
 19 22  2  0  0  0  0
 20 22  1  0  0  0  0
 21 18  1  0  0  0  0
 22 21  1  0  0  0  0
 25 26  1  6  0  0  0
 25 23  1  0  0  0  0
 25 24  1  0  0  0  0
 27 25  1  0  0  0  0
 27 24  1  0  0  0  0
 30 32  1  6  0  0  0
 30 31  1  0  0  0  0
 30 28  1  0  0  0  0
 31 29  1  1  0  0  0
 31 28  1  0  0  0  0
 33 38  1  0  0  0  0
 34 43  1  0  0  0  0
 34 44  1  0  0  0  0
 35 43  2  0  0  0  0
 36 42  2  0  0  0  0
 36 45  1  0  0  0  0
 38 34  2  0  0  0  0
 39 40  2  0  0  0  0
 39 38  1  0  0  0  0
 40 35  1  0  0  0  0
 41 45  2  0  0  0  0
 42 39  1  0  0  0  0
 45 37  2  0  0  0  0
 45 40  1  0  0  0  0
M  END
>  <MODEL>
8

>  <REMARK>
 VINA RESULT:      -7.0      3.396      6.677
  Name = 
  10 active torsions:
  status: ('A' for Active; 'I' for Inactive)
    1  A    between atoms: O_3  and  C_11
    2  A    between atoms: O_3  and  C_40
    3  A    between atoms: C_4  and  N_22
    4  A    between atoms: C_4  and  N_32
    5  A    between atoms: C_4  and  C_40
    6  A    between atoms: C_10  and  C_18
    7  A    between atoms: C_12  and  C_15
    8  A    between atoms: C_12  and  C_29
    9  A    between atoms: N_21  and  C_39
   10  A    between atoms: N_22  and  C_34
                            x       y       z     vdW  Elec       q    Type
                         _______ _______ _______ _____ _____    ______ ____

>  <TORSDO>
F 10

$$$$
=
 OpenBabel11062420423D

 45 50  0  0  1  0  0  0  0  0999 V2000
  187.6870  177.0150  142.1560 C   0  0  1  0  0  3  0  0  0  0  0  0
  189.8450  176.4670  143.2150 N   0  0  0  0  0  0  0  0  0  0  0  0
  188.9320  177.5590  142.8660 C   0  0  0  0  0  2  0  0  0  0  0  0
  188.1570  174.7150  142.7880 C   0  0  2  0  0  3  0  0  0  0  0  0
  187.1890  175.8250  142.8470 N   0  0  0  0  0  2  0  0  0  0  0  0
  189.6240  175.1450  142.6310 C   0  0  0  0  0  2  0  0  0  0  0  0
  192.2090  176.3990  143.6940 C   0  0  0  0  0  3  0  0  0  0  0  0
  193.4110  176.6430  144.5680 C   0  0  1  0  0  3  0  0  0  0  0  0
  190.9960  176.0880  146.4470 C   0  0  0  0  0  0  0  0  0  0  0  0
  194.1930  176.6740  146.8900 N   0  0  0  0  0  1  0  0  0  0  0  0
  192.2410  175.3790  146.4460 N   0  0  0  0  0  2  0  0  0  0  0  0
  190.7430  177.1980  145.4860 C   0  0  0  0  0  2  0  0  0  0  0  0
  190.9650  176.6890  144.0910 C   0  0  0  0  0  0  0  0  0  0  0  0
  193.5130  175.8590  145.8990 C   0  0  1  0  0  3  0  0  0  0  0  0
  190.0730  175.7190  147.2200 O   0  0  0  0  0  0  0  0  0  0  0  0
  194.6170  176.6600  143.8340 O   0  0  0  0  0  0  0  0  0  0  0  0
  194.7090  175.4670  143.0930 C   0  0  0  0  0  2  0  0  0  0  0  0
  196.1150  174.8820  143.1770 C   0  0  2  0  0  3  0  0  0  0  0  0
  196.4650  172.4720  144.7700 O   0  0  0  0  0  0  0  0  0  0  0  0
  197.1840  173.7870  146.5010 O   0  0  0  0  0  1  0  0  0  0  0  0
  196.6050  174.9050  144.5490 N   0  0  0  0  0  2  0  0  0  0  0  0
  196.7640  173.7140  145.3180 C   0  0  0  0  0  0  0  0  0  0  0  0
  197.0170  175.6340  142.3150 N   0  0  0  0  0  2  0  0  0  0  0  0
  197.8740  175.6720  140.0610 N   0  0  0  0  0  2  0  0  0  0  0  0
  197.0930  174.9560  141.0270 C   0  0  1  0  0  0  0  0  0  0  0  0
  197.1970  173.4460  140.9360 C   0  0  0  0  0  1  0  0  0  0  0  0
  196.4850  175.5980  140.0010 O   0  0  0  0  0  0  0  0  0  0  0  0
  185.1450  177.5410  141.7130 C   0  0  0  0  0  2  0  0  0  0  0  0
  186.5910  179.1720  142.7680 O   0  0  0  0  0  1  0  0  0  0  0  0
  185.8900  178.2800  140.6040 C   0  0  1  0  0  3  0  0  0  0  0  0
  186.5520  178.0390  141.9590 C   0  0  1  0  0  0  0  0  0  0  0  0
  186.2990  177.2860  139.5300 C   0  0  0  0  0  1  0  0  0  0  0  0
  187.7520  173.6580  141.7570 C   0  0  0  0  0  2  0  0  0  0  0  0
  189.4080  171.8140  142.2600 C   0  0  0  0  0  0  0  0  0  0  0  0
  191.0380  171.0970  140.6030 C   0  0  0  0  0  3  0  0  0  0  0  0
  189.8720  173.6050  137.7470 C   0  0  0  0  0  3  0  0  0  0  0  0
  190.8210  171.1110  137.2210 O   0  0  0  0  0  0  0  0  0  0  0  0
  188.8870  172.7580  141.3540 C   0  0  0  0  0  0  0  0  0  0  0  0
  189.4470  172.8470  140.0700 C   0  0  0  0  0  0  0  0  0  0  0  0
  190.5020  172.0290  139.7180 C   0  0  0  0  0  0  0  0  0  0  0  0
  192.4530  172.7960  138.0480 O   0  0  0  0  0  0  0  0  0  0  0  0
  188.9810  173.7840  138.9900 C   0  0  0  0  0  3  0  0  0  0  0  0
  190.4820  170.9920  141.8820 C   0  0  0  0  0  3  0  0  0  0  0  0
  188.8780  171.6770  143.5000 F   0  0  0  0  0  0  0  0  0  0  0  0
  191.0340  172.3050  138.1050 S   0  0  0  0  0  0  0  0  0  0  0  0
  1  5  1  0  0  0  0
  1  3  1  1  0  0  0
  2 13  1  0  0  0  0
  3  2  1  0  0  0  0
  4 33  1  6  0  0  0
  4  5  1  0  0  0  0
  6  4  1  0  0  0  0
  6  2  1  0  0  0  0
  7 13  2  0  0  0  0
  7  8  1  0  0  0  0
  8 16  1  6  0  0  0
  8 14  1  0  0  0  0
  9 15  2  0  0  0  0
 11  9  1  0  0  0  0
 12  9  1  0  0  0  0
 13 12  1  0  0  0  0
 14 11  1  0  0  0  0
 14 10  1  1  0  0  0
 17 16  1  0  0  0  0
 18 17  1  1  0  0  0
 18 21  1  0  0  0  0
 19 22  2  0  0  0  0
 21 22  1  0  0  0  0
 22 20  1  0  0  0  0
 23 18  1  0  0  0  0
 24 25  1  0  0  0  0
 25 26  1  6  0  0  0
 25 23  1  0  0  0  0
 27 24  1  0  0  0  0
 27 25  1  0  0  0  0
 28 31  1  0  0  0  0
 30 32  1  6  0  0  0
 30 28  1  0  0  0  0
 30 31  1  0  0  0  0
 31  1  1  0  0  0  0
 31 29  1  1  0  0  0
 34 44  1  0  0  0  0
 35 43  2  0  0  0  0
 36 45  1  0  0  0  0
 36 42  2  0  0  0  0
 37 45  2  0  0  0  0
 38 33  1  0  0  0  0
 38 34  2  0  0  0  0
 39 38  1  0  0  0  0
 40 39  2  0  0  0  0
 40 35  1  0  0  0  0
 41 45  2  0  0  0  0
 42 39  1  0  0  0  0
 43 34  1  0  0  0  0
 45 40  1  0  0  0  0
M  END
>  <MODEL>
9

>  <REMARK>
 VINA RESULT:      -7.0      3.389      6.648
  Name = 
  10 active torsions:
  status: ('A' for Active; 'I' for Inactive)
    1  A    between atoms: O_3  and  C_11
    2  A    between atoms: O_3  and  C_40
    3  A    between atoms: C_4  and  N_22
    4  A    between atoms: C_4  and  N_32
    5  A    between atoms: C_4  and  C_40
    6  A    between atoms: C_10  and  C_18
    7  A    between atoms: C_12  and  C_15
    8  A    between atoms: C_12  and  C_29
    9  A    between atoms: N_21  and  C_39
   10  A    between atoms: N_22  and  C_34
                            x       y       z     vdW  Elec       q    Type
                         _______ _______ _______ _____ _____    ______ ____

>  <TORSDO>
F 10

$$$$
