=
 OpenBabel11062418323D

 54 59  0  0  1  0  0  0  0  0999 V2000
  189.7810  175.3360  145.6300 C   0  0  2  0  0  3  0  0  0  0  0  0
  188.7350  175.6030  144.5460 C   0  0  1  0  0  3  0  0  0  0  0  0
  188.6900  177.4810  146.0740 C   0  0  0  0  0  2  0  0  0  0  0  0
  189.1860  177.8470  143.7950 O   0  0  0  0  0  1  0  0  0  0  0  0
  188.3690  177.0860  144.6370 C   0  0  1  0  0  0  0  0  0  0  0  0
  189.3260  176.2670  146.7430 C   0  0  0  0  0  2  0  0  0  0  0  0
  193.2370  174.8670  144.2170 O   0  0  0  0  0  0  0  0  0  0  0  0
  191.2200  175.6990  145.2000 C   0  0  2  0  0  3  0  0  0  0  0  0
  192.0490  174.4430  144.8680 C   0  0  2  0  0  3  0  0  0  0  0  0
  194.6310  176.6590  145.0650 C   0  0  1  0  0  3  0  0  0  0  0  0
  194.9640  177.2690  146.2790 O   0  0  0  0  0  1  0  0  0  0  0  0
  192.4560  173.9610  146.1240 O   0  0  0  0  0  0  0  0  0  0  0  0
  195.9030  176.4280  144.2750 C   0  0  0  0  0  2  0  0  0  0  0  0
  195.2620  174.3490  145.3930 C   0  0  0  0  0  2  0  0  0  0  0  0
  192.0500  176.1120  146.3600 C   0  0  0  0  0  0  0  0  0  0  0  0
  194.0550  175.2640  145.3010 C   0  0  2  0  0  0  0  0  0  0  0  0
  196.3480  175.0050  144.5610 C   0  0  0  0  0  2  0  0  0  0  0  0
  193.1350  175.1040  146.5120 C   0  0  2  0  0  3  0  0  0  0  0  0
  191.9390  177.1440  147.0010 O   0  0  0  0  0  0  0  0  0  0  0  0
  189.1850  173.8260  142.9550 C   0  0  0  0  0  0  0  0  0  0  0  0
  189.3210  172.5440  142.7420 C   0  0  0  0  0  3  0  0  0  0  0  0
  189.0460  175.1030  143.1690 C   0  0  0  0  0  3  0  0  0  0  0  0
  190.1470  171.9930  141.6150 C   0  0  1  0  0  3  0  0  0  0  0  0
  188.9390  174.0170  138.0770 C   0  0  0  0  0  2  0  0  0  0  0  0
  189.9080  172.6940  140.2710 C   0  0  1  0  0  3  0  0  0  0  0  0
  188.4190  172.5950  138.3640 C   0  0  0  0  0  2  0  0  0  0  0  0
  192.6680  173.6520  137.7260 C   0  0  0  0  0  1  0  0  0  0  0  0
  190.2780  174.0490  137.4720 N   0  0  0  0  0  2  0  0  0  0  0  0
  191.2820  173.2400  138.1780 C   0  0  2  0  0  3  0  0  0  0  0  0
  191.1960  173.3220  139.7100 C   0  0  0  0  0  2  0  0  0  0  0  0
  189.2580  171.8170  139.2920 N   0  0  0  0  0  2  0  0  0  0  0  0
  191.6300  171.9560  141.9740 C   0  0  0  0  0  2  0  0  0  0  0  0
  192.1580  170.5230  142.0470 C   0  0  1  0  0  3  0  0  0  0  0  0
  193.3480  170.3050  141.1660 C   0  0  0  0  0  3  0  0  0  0  0  0
  193.2100  170.1230  139.9690 O   0  0  0  0  0  0  0  0  0  0  0  0
  192.4540  170.1010  143.4900 C   0  0  0  0  0  2  0  0  0  0  0  0
  193.4140  171.0320  144.2290 C   0  0  0  0  0  2  0  0  0  0  0  0
  194.3710  170.2510  145.1090 C   0  0  0  0  0  2  0  0  0  0  0  0
  195.8050  170.5480  144.7150 C   0  0  0  0  0  2  0  0  0  0  0  0
  196.7100  171.3450  142.5050 C   0  0  0  0  0  0  0  0  0  0  0  0
  195.8260  171.4990  143.6130 N   0  0  0  0  0  2  0  0  0  0  0  0
  197.4820  170.3480  142.4460 O   0  0  0  0  0  0  0  0  0  0  0  0
  196.6970  172.2970  141.4840 O   0  0  0  0  0  0  0  0  0  0  0  0
  194.7250  173.9150  141.1560 C   0  0  0  0  0  3  0  0  0  0  0  0
  195.6490  173.1580  141.3090 C   0  0  0  0  0  0  0  0  0  0  0  0
  186.8760  177.3510  144.3220 C   0  0  1  0  0  3  0  0  0  0  0  0
  185.1040  176.9890  146.0900 C   0  0  0  0  0  2  0  0  0  0  0  0
  184.6460  178.1260  145.2150 C   0  0  1  0  0  0  0  0  0  0  0  0
  186.1280  177.9660  145.5120 C   0  0  2  0  0  3  0  0  0  0  0  0
  184.1220  177.7310  143.9970 F   0  0  0  0  0  0  0  0  0  0  0  0
  183.9940  179.1330  145.9180 O   0  0  0  0  0  1  0  0  0  0  0  0
  186.7230  178.2580  143.0970 C   0  0  0  0  0  2  0  0  0  0  0  0
  186.4630  177.4440  141.8440 C   0  0  0  0  0  2  0  0  0  0  0  0
  185.4610  178.1730  140.9750 C   0  0  0  0  0  1  0  0  0  0  0  0
  1  6  1  1  0  0  0
  2 22  1  6  0  0  0
  2  5  1  0  0  0  0
  2  1  1  0  0  0  0
  3  6  1  0  0  0  0
  5  4  1  6  0  0  0
  5  3  1  0  0  0  0
  7 16  1  0  0  0  0
  8  1  1  0  0  0  0
  8 15  1  1  0  0  0
  9  7  1  6  0  0  0
  9  8  1  0  0  0  0
  9 12  1  0  0  0  0
 10 16  1  0  0  0  0
 10 11  1  1  0  0  0
 13 17  1  0  0  0  0
 13 10  1  0  0  0  0
 15 18  1  0  0  0  0
 15 19  2  0  0  0  0
 16 14  1  1  0  0  0
 16 18  1  0  0  0  0
 17 14  1  0  0  0  0
 18 12  1  6  0  0  0
 20 22  2  0  0  0  0
 21 20  2  0  0  0  0
 23 32  1  1  0  0  0
 23 21  1  0  0  0  0
 24 26  1  0  0  0  0
 25 23  1  1  0  0  0
 26 31  1  0  0  0  0
 28 24  1  0  0  0  0
 28 29  1  0  0  0  0
 29 27  1  6  0  0  0
 29 30  1  0  0  0  0
 30 25  1  0  0  0  0
 31 25  1  0  0  0  0
 32 33  1  0  0  0  0
 33 34  1  6  0  0  0
 33 36  1  0  0  0  0
 35 34  2  0  0  0  0
 36 37  1  0  0  0  0
 37 38  1  0  0  0  0
 39 38  1  0  0  0  0
 40 41  1  0  0  0  0
 41 39  1  0  0  0  0
 42 40  2  0  0  0  0
 43 40  1  0  0  0  0
 44 45  3  0  0  0  0
 45 43  1  0  0  0  0
 46 52  1  6  0  0  0
 46  5  1  0  0  0  0
 48 50  1  6  0  0  0
 48 49  1  0  0  0  0
 48 51  1  0  0  0  0
 48 47  1  0  0  0  0
 49 46  1  6  0  0  0
 49 47  1  0  0  0  0
 53 52  1  0  0  0  0
 54 53  1  0  0  0  0
M  END
>  <MODEL>
1

>  <REMARK>
 VINA RESULT:      -6.4      0.000      0.000
  Name = 
  18 active torsions:
  status: ('A' for Active; 'I' for Inactive)
    1  A    between atoms: C_1  and  C_54
    2  A    between atoms: C_4  and  O_34
    3  A    between atoms: C_6  and  C_14
    4  A    between atoms: N_7  and  C_12
    5  A    between atoms: C_10  and  C_14
    6  A    between atoms: C_10  and  C_24
    7  A    between atoms: C_11  and  C_14
    8  A    between atoms: C_12  and  C_41
    9  A    between atoms: C_13  and  C_24
   10  A    between atoms: C_16  and  C_25
   11  A    between atoms: C_17  and  C_19
   12  A    between atoms: C_20  and  C_26
   13  A    between atoms: C_24  and  C_46
   14  A    between atoms: C_25  and  C_45
   15  A    between atoms: C_25  and  C_54
   16  A    between atoms: O_34  and  C_43
   17  A    between atoms: C_41  and  C_51
   18  A    between atoms: C_46  and  C_51
                            x       y       z     vdW  Elec       q    Type
                         _______ _______ _______ _____ _____    ______ ____

>  <TORSDO>
F 18

$$$$
=
 OpenBabel11062418323D

 54 59  0  0  1  0  0  0  0  0999 V2000
  189.5660  175.0650  145.1050 C   0  0  2  0  0  3  0  0  0  0  0  0
  188.5660  175.6260  144.0930 C   0  0  1  0  0  3  0  0  0  0  0  0
  188.5640  177.1070  146.0090 C   0  0  0  0  0  2  0  0  0  0  0  0
  189.1420  177.9550  143.8820 O   0  0  0  0  0  1  0  0  0  0  0  0
  188.2670  177.0670  144.5140 C   0  0  1  0  0  0  0  0  0  0  0  0
  189.1230  175.7410  146.3930 C   0  0  0  0  0  2  0  0  0  0  0  0
  193.0370  174.7460  143.6870 O   0  0  0  0  0  0  0  0  0  0  0  0
  191.0320  175.4410  144.7940 C   0  0  2  0  0  3  0  0  0  0  0  0
  191.8120  174.2500  144.2030 C   0  0  2  0  0  3  0  0  0  0  0  0
  194.4860  176.2300  144.9400 C   0  0  1  0  0  3  0  0  0  0  0  0
  194.8110  176.5350  146.2660 O   0  0  0  0  0  1  0  0  0  0  0  0
  192.1590  173.4790  145.3270 O   0  0  0  0  0  0  0  0  0  0  0  0
  195.7690  176.1160  144.1420 C   0  0  0  0  0  2  0  0  0  0  0  0
  195.0010  173.8760  144.7530 C   0  0  0  0  0  2  0  0  0  0  0  0
  191.8460  175.5410  146.0320 C   0  0  0  0  0  0  0  0  0  0  0  0
  193.8400  174.8490  144.8460 C   0  0  2  0  0  0  0  0  0  0  0  0
  196.1400  174.6440  144.1090 C   0  0  0  0  0  2  0  0  0  0  0  0
  192.8780  174.4700  145.9740 C   0  0  2  0  0  3  0  0  0  0  0  0
  191.7630  176.4080  146.8860 O   0  0  0  0  0  0  0  0  0  0  0  0
  188.8470  174.2470  142.1160 C   0  0  0  0  0  0  0  0  0  0  0  0
  188.7980  173.0530  141.5870 C   0  0  0  0  0  3  0  0  0  0  0  0
  188.8910  175.4370  142.6430 C   0  0  0  0  0  3  0  0  0  0  0  0
  189.6070  172.6670  140.3810 C   0  0  1  0  0  3  0  0  0  0  0  0
  192.0430  169.2220  140.9060 C   0  0  0  0  0  2  0  0  0  0  0  0
  190.6300  171.5550  140.6510 C   0  0  1  0  0  3  0  0  0  0  0  0
  190.7990  169.4270  141.7940 C   0  0  0  0  0  2  0  0  0  0  0  0
  194.3140  172.1130  141.7090 C   0  0  0  0  0  1  0  0  0  0  0  0
  193.2280  169.9600  141.3650 N   0  0  0  0  0  2  0  0  0  0  0  0
  192.9880  171.3850  141.6380 C   0  0  2  0  0  3  0  0  0  0  0  0
  192.0770  172.0790  140.6140 C   0  0  0  0  0  2  0  0  0  0  0  0
  190.3450  170.8250  141.8900 N   0  0  0  0  0  2  0  0  0  0  0  0
  188.7120  172.3310  139.1910 C   0  0  0  0  0  2  0  0  0  0  0  0
  188.9130  173.3140  138.0370 C   0  0  1  0  0  3  0  0  0  0  0  0
  187.9070  174.4220  138.0460 C   0  0  0  0  0  3  0  0  0  0  0  0
  187.7970  175.1690  137.0900 O   0  0  0  0  0  0  0  0  0  0  0  0
  190.3420  173.8660  138.0070 C   0  0  0  0  0  2  0  0  0  0  0  0
  191.0320  173.7430  136.6500 C   0  0  0  0  0  2  0  0  0  0  0  0
  191.5150  175.0930  136.1530 C   0  0  0  0  0  2  0  0  0  0  0  0
  192.9750  175.0100  135.7510 C   0  0  0  0  0  2  0  0  0  0  0  0
  194.6730  174.3520  137.4890 C   0  0  0  0  0  0  0  0  0  0  0  0
  193.8200  175.3260  136.8930 N   0  0  0  0  0  2  0  0  0  0  0  0
  194.7330  173.1860  137.0090 O   0  0  0  0  0  0  0  0  0  0  0  0
  195.4500  174.7090  138.5920 O   0  0  0  0  0  0  0  0  0  0  0  0
  194.4170  175.7190  140.7200 C   0  0  0  0  0  3  0  0  0  0  0  0
  194.9000  175.2470  139.7230 C   0  0  0  0  0  0  0  0  0  0  0  0
  186.7980  177.4740  144.2420 C   0  0  1  0  0  3  0  0  0  0  0  0
  186.8670  178.3300  141.8630 C   0  0  0  0  0  2  0  0  0  0  0  0
  185.4230  178.2870  142.2880 C   0  0  1  0  0  0  0  0  0  0  0  0
  186.3780  177.2160  142.7900 C   0  0  2  0  0  3  0  0  0  0  0  0
  185.0390  179.3320  143.1070 F   0  0  0  0  0  0  0  0  0  0  0  0
  184.5620  177.8970  141.2680 O   0  0  0  0  0  1  0  0  0  0  0  0
  185.8390  176.7470  145.1890 C   0  0  0  0  0  2  0  0  0  0  0  0
  184.8550  177.7130  145.8190 C   0  0  0  0  0  2  0  0  0  0  0  0
  185.6140  178.8770  146.4190 C   0  0  0  0  0  1  0  0  0  0  0  0
  1  6  1  1  0  0  0
  2 22  1  6  0  0  0
  2  5  1  0  0  0  0
  2  1  1  0  0  0  0
  3  6  1  0  0  0  0
  5  4  1  6  0  0  0
  5  3  1  0  0  0  0
  7 16  1  0  0  0  0
  8  1  1  0  0  0  0
  8 15  1  1  0  0  0
  9  7  1  1  0  0  0
  9  8  1  0  0  0  0
  9 12  1  0  0  0  0
 10 11  1  1  0  0  0
 13 10  1  0  0  0  0
 15 19  2  0  0  0  0
 16 14  1  6  0  0  0
 16 10  1  0  0  0  0
 16 18  1  0  0  0  0
 17 13  1  0  0  0  0
 17 14  1  0  0  0  0
 18 12  1  6  0  0  0
 18 15  1  0  0  0  0
 20 22  2  0  0  0  0
 21 20  2  0  0  0  0
 23 32  1  6  0  0  0
 23 21  1  0  0  0  0
 24 28  1  0  0  0  0
 24 26  1  0  0  0  0
 25 23  1  1  0  0  0
 25 31  1  0  0  0  0
 26 31  1  0  0  0  0
 28 29  1  0  0  0  0
 29 27  1  6  0  0  0
 30 25  1  0  0  0  0
 30 29  1  0  0  0  0
 33 36  1  1  0  0  0
 33 34  1  0  0  0  0
 33 32  1  0  0  0  0
 35 34  2  0  0  0  0
 37 36  1  0  0  0  0
 38 37  1  0  0  0  0
 39 38  1  0  0  0  0
 39 41  1  0  0  0  0
 40 43  1  0  0  0  0
 41 40  1  0  0  0  0
 42 40  2  0  0  0  0
 43 45  1  0  0  0  0
 45 44  3  0  0  0  0
 46  5  1  0  0  0  0
 46 52  1  1  0  0  0
 47 48  1  0  0  0  0
 47 49  1  0  0  0  0
 48 51  1  6  0  0  0
 48 49  1  0  0  0  0
 48 50  1  0  0  0  0
 49 46  1  1  0  0  0
 52 53  1  0  0  0  0
 53 54  1  0  0  0  0
M  END
>  <MODEL>
2

>  <REMARK>
 VINA RESULT:      -6.3      2.041      4.265
  Name = 
  18 active torsions:
  status: ('A' for Active; 'I' for Inactive)
    1  A    between atoms: C_1  and  C_54
    2  A    between atoms: C_4  and  O_34
    3  A    between atoms: C_6  and  C_14
    4  A    between atoms: N_7  and  C_12
    5  A    between atoms: C_10  and  C_14
    6  A    between atoms: C_10  and  C_24
    7  A    between atoms: C_11  and  C_14
    8  A    between atoms: C_12  and  C_41
    9  A    between atoms: C_13  and  C_24
   10  A    between atoms: C_16  and  C_25
   11  A    between atoms: C_17  and  C_19
   12  A    between atoms: C_20  and  C_26
   13  A    between atoms: C_24  and  C_46
   14  A    between atoms: C_25  and  C_45
   15  A    between atoms: C_25  and  C_54
   16  A    between atoms: O_34  and  C_43
   17  A    between atoms: C_41  and  C_51
   18  A    between atoms: C_46  and  C_51
                            x       y       z     vdW  Elec       q    Type
                         _______ _______ _______ _____ _____    ______ ____

>  <TORSDO>
F 18

$$$$
=
 OpenBabel11062418323D

 54 59  0  0  1  0  0  0  0  0999 V2000
  189.4220  175.3620  144.9360 C   0  0  2  0  0  3  0  0  0  0  0  0
  188.5560  175.7840  143.7480 C   0  0  1  0  0  3  0  0  0  0  0  0
  188.3780  177.5210  145.4250 C   0  0  0  0  0  2  0  0  0  0  0  0
  189.2130  178.0530  143.2820 O   0  0  0  0  0  1  0  0  0  0  0  0
  188.2490  177.2720  143.9260 C   0  0  1  0  0  0  0  0  0  0  0  0
  188.8550  176.2180  146.0580 C   0  0  0  0  0  2  0  0  0  0  0  0
  192.9850  174.8840  143.8270 O   0  0  0  0  0  0  0  0  0  0  0  0
  190.9230  175.6750  144.7460 C   0  0  2  0  0  3  0  0  0  0  0  0
  191.7020  174.4440  144.2450 C   0  0  2  0  0  3  0  0  0  0  0  0
  194.3800  176.3350  145.1770 C   0  0  1  0  0  3  0  0  0  0  0  0
  194.6030  176.6530  146.5210 O   0  0  0  0  0  1  0  0  0  0  0  0
  191.9210  173.6830  145.4060 O   0  0  0  0  0  0  0  0  0  0  0  0
  195.7200  176.1580  144.4940 C   0  0  0  0  0  2  0  0  0  0  0  0
  194.8150  173.9600  145.0720 C   0  0  0  0  0  2  0  0  0  0  0  0
  191.6310  175.7690  146.0480 C   0  0  0  0  0  0  0  0  0  0  0  0
  193.6900  174.9780  145.0500 C   0  0  2  0  0  0  0  0  0  0  0  0
  196.0350  174.6720  144.5170 C   0  0  0  0  0  2  0  0  0  0  0  0
  192.6220  174.6580  146.0960 C   0  0  2  0  0  3  0  0  0  0  0  0
  191.5100  176.6540  146.8780 O   0  0  0  0  0  0  0  0  0  0  0  0
  188.9400  174.1480  141.9950 C   0  0  0  0  0  0  0  0  0  0  0  0
  188.8380  172.9060  141.6030 C   0  0  0  0  0  3  0  0  0  0  0  0
  189.0380  175.3870  142.3860 C   0  0  0  0  0  3  0  0  0  0  0  0
  189.7470  172.3060  140.5690 C   0  0  1  0  0  3  0  0  0  0  0  0
  189.1410  174.4150  136.9280 C   0  0  0  0  0  2  0  0  0  0  0  0
  189.5470  172.8800  139.1590 C   0  0  1  0  0  3  0  0  0  0  0  0
  187.9690  174.2300  137.9120 C   0  0  0  0  0  2  0  0  0  0  0  0
  190.0850  170.9340  135.8540 C   0  0  0  0  0  1  0  0  0  0  0  0
  189.3720  173.2550  136.0560 N   0  0  0  0  0  2  0  0  0  0  0  0
  189.4620  171.9700  136.7660 C   0  0  2  0  0  3  0  0  0  0  0  0
  190.2480  172.0320  138.0840 C   0  0  0  0  0  2  0  0  0  0  0  0
  188.1320  173.1000  138.8430 N   0  0  0  0  0  2  0  0  0  0  0  0
  191.2090  172.3740  141.0010 C   0  0  0  0  0  2  0  0  0  0  0  0
  191.5540  171.2710  142.0020 C   0  0  1  0  0  3  0  0  0  0  0  0
  191.0440  169.9300  141.5750 C   0  0  0  0  0  3  0  0  0  0  0  0
  191.4260  168.9140  142.1310 O   0  0  0  0  0  0  0  0  0  0  0  0
  193.0570  171.2220  142.2940 C   0  0  0  0  0  2  0  0  0  0  0  0
  193.8460  172.3950  141.7140 C   0  0  0  0  0  2  0  0  0  0  0  0
  195.3220  172.0630  141.5970 C   0  0  0  0  0  2  0  0  0  0  0  0
  196.0990  173.2850  141.1470 C   0  0  0  0  0  2  0  0  0  0  0  0
  195.1990  174.9530  139.4910 C   0  0  0  0  0  0  0  0  0  0  0  0
  195.6990  173.6540  139.7970 N   0  0  0  0  0  2  0  0  0  0  0  0
  195.1210  175.8300  140.3950 O   0  0  0  0  0  0  0  0  0  0  0  0
  194.8160  175.2450  138.1800 O   0  0  0  0  0  0  0  0  0  0  0  0
  196.3660  174.8040  136.1760 C   0  0  0  0  0  3  0  0  0  0  0  0
  195.6410  175.0120  137.1140 C   0  0  0  0  0  0  0  0  0  0  0  0
  186.8310  177.6510  143.4340 C   0  0  1  0  0  3  0  0  0  0  0  0
  185.1310  177.4710  145.2980 C   0  0  0  0  0  2  0  0  0  0  0  0
  184.5350  178.3390  144.2230 C   0  0  1  0  0  0  0  0  0  0  0  0
  186.0280  178.4140  144.4950 C   0  0  2  0  0  3  0  0  0  0  0  0
  184.0480  177.6420  143.1320 F   0  0  0  0  0  0  0  0  0  0  0  0
  183.7760  179.3920  144.7240 O   0  0  0  0  0  1  0  0  0  0  0  0
  186.8970  178.4800  142.1470 C   0  0  0  0  0  2  0  0  0  0  0  0
  186.0630  177.8510  141.0480 C   0  0  0  0  0  2  0  0  0  0  0  0
  186.9820  177.2730  139.9940 C   0  0  0  0  0  1  0  0  0  0  0  0
  1  6  1  1  0  0  0
  2 22  1  6  0  0  0
  2  5  1  0  0  0  0
  2  1  1  0  0  0  0
  3  6  1  0  0  0  0
  5  4  1  6  0  0  0
  5  3  1  0  0  0  0
  7 16  1  0  0  0  0
  8  1  1  0  0  0  0
  8 15  1  1  0  0  0
  9  7  1  1  0  0  0
  9  8  1  0  0  0  0
  9 12  1  0  0  0  0
 10 11  1  1  0  0  0
 13 17  1  0  0  0  0
 13 10  1  0  0  0  0
 15 18  1  0  0  0  0
 15 19  2  0  0  0  0
 16 14  1  1  0  0  0
 16 10  1  0  0  0  0
 16 18  1  0  0  0  0
 17 14  1  0  0  0  0
 18 12  1  6  0  0  0
 20 22  2  0  0  0  0
 21 20  2  0  0  0  0
 23 32  1  1  0  0  0
 23 21  1  0  0  0  0
 24 26  1  0  0  0  0
 25 23  1  1  0  0  0
 26 31  1  0  0  0  0
 28 29  1  0  0  0  0
 28 24  1  0  0  0  0
 29 27  1  6  0  0  0
 29 30  1  0  0  0  0
 30 25  1  0  0  0  0
 31 25  1  0  0  0  0
 33 32  1  6  0  0  0
 33 36  1  0  0  0  0
 34 33  1  0  0  0  0
 34 35  2  0  0  0  0
 37 36  1  0  0  0  0
 38 37  1  0  0  0  0
 39 38  1  0  0  0  0
 40 41  1  0  0  0  0
 40 42  2  0  0  0  0
 41 39  1  0  0  0  0
 43 40  1  0  0  0  0
 44 45  3  0  0  0  0
 45 43  1  0  0  0  0
 46 52  1  6  0  0  0
 46  5  1  0  0  0  0
 48 50  1  6  0  0  0
 48 49  1  0  0  0  0
 48 51  1  0  0  0  0
 48 47  1  0  0  0  0
 49 46  1  6  0  0  0
 49 47  1  0  0  0  0
 53 52  1  0  0  0  0
 54 53  1  0  0  0  0
M  END
>  <MODEL>
3

>  <REMARK>
 VINA RESULT:      -6.3      1.761      2.315
  Name = 
  18 active torsions:
  status: ('A' for Active; 'I' for Inactive)
    1  A    between atoms: C_1  and  C_54
    2  A    between atoms: C_4  and  O_34
    3  A    between atoms: C_6  and  C_14
    4  A    between atoms: N_7  and  C_12
    5  A    between atoms: C_10  and  C_14
    6  A    between atoms: C_10  and  C_24
    7  A    between atoms: C_11  and  C_14
    8  A    between atoms: C_12  and  C_41
    9  A    between atoms: C_13  and  C_24
   10  A    between atoms: C_16  and  C_25
   11  A    between atoms: C_17  and  C_19
   12  A    between atoms: C_20  and  C_26
   13  A    between atoms: C_24  and  C_46
   14  A    between atoms: C_25  and  C_45
   15  A    between atoms: C_25  and  C_54
   16  A    between atoms: O_34  and  C_43
   17  A    between atoms: C_41  and  C_51
   18  A    between atoms: C_46  and  C_51
                            x       y       z     vdW  Elec       q    Type
                         _______ _______ _______ _____ _____    ______ ____

>  <TORSDO>
F 18

$$$$
=
 OpenBabel11062418323D

 54 59  0  0  1  0  0  0  0  0999 V2000
  192.6230  169.7930  141.9790 C   0  0  2  0  0  3  0  0  0  0  0  0
  193.1650  170.8630  142.9280 C   0  0  1  0  0  3  0  0  0  0  0  0
  194.9870  169.3500  142.4270 C   0  0  0  0  0  2  0  0  0  0  0  0
  195.1930  171.6390  141.8870 O   0  0  0  0  0  1  0  0  0  0  0  0
  194.6920  170.7790  142.8680 C   0  0  1  0  0  0  0  0  0  0  0  0
  193.6470  168.6810  142.1400 C   0  0  0  0  0  2  0  0  0  0  0  0
  191.2230  171.2890  138.8230 O   0  0  0  0  0  0  0  0  0  0  0  0
  192.5710  170.2480  140.5040 C   0  0  2  0  0  3  0  0  0  0  0  0
  191.1390  170.6200  140.0720 C   0  0  2  0  0  3  0  0  0  0  0  0
  192.5250  170.4400  136.9630 C   0  0  1  0  0  3  0  0  0  0  0  0
  192.9860  169.2230  136.4500 O   0  0  0  0  0  1  0  0  0  0  0  0
  190.5320  169.3820  139.7990 O   0  0  0  0  0  0  0  0  0  0  0  0
  191.9600  171.2620  135.8220 C   0  0  0  0  0  2  0  0  0  0  0  0
  190.1230  170.1670  137.0100 C   0  0  0  0  0  2  0  0  0  0  0  0
  192.7040  169.0990  139.5720 C   0  0  0  0  0  0  0  0  0  0  0  0
  191.3450  170.2170  137.9090 C   0  0  2  0  0  0  0  0  0  0  0  0
  190.4620  171.0110  135.7960 C   0  0  0  0  0  2  0  0  0  0  0  0
  191.4260  168.9890  138.8170 C   0  0  2  0  0  3  0  0  0  0  0  0
  193.7100  168.4380  139.3750 O   0  0  0  0  0  0  0  0  0  0  0  0
  191.5560  172.5890  143.4990 C   0  0  0  0  0  0  0  0  0  0  0  0
  190.5180  172.9380  144.2110 C   0  0  0  0  0  3  0  0  0  0  0  0
  192.5930  172.2410  142.7920 C   0  0  0  0  0  3  0  0  0  0  0  0
  189.5600  174.0110  143.7760 C   0  0  1  0  0  3  0  0  0  0  0  0
  188.6940  177.3540  146.2550 C   0  0  0  0  0  2  0  0  0  0  0  0
  189.4130  175.1570  144.7860 C   0  0  1  0  0  3  0  0  0  0  0  0
  189.2680  177.5740  144.8420 C   0  0  0  0  0  2  0  0  0  0  0  0
  191.3620  175.4650  148.1190 C   0  0  0  0  0  1  0  0  0  0  0  0
  189.7130  177.0430  147.2670 N   0  0  0  0  0  2  0  0  0  0  0  0
  190.6380  175.9640  146.8870 C   0  0  2  0  0  3  0  0  0  0  0  0
  189.9670  174.7810  146.1710 C   0  0  0  0  0  2  0  0  0  0  0  0
  189.9870  176.4120  144.2910 N   0  0  0  0  0  2  0  0  0  0  0  0
  189.8970  174.5300  142.3810 C   0  0  0  0  0  2  0  0  0  0  0  0
  188.7150  174.3830  141.4220 C   0  0  1  0  0  3  0  0  0  0  0  0
  188.2280  172.9700  141.3260 C   0  0  0  0  0  3  0  0  0  0  0  0
  187.1910  172.6330  141.8710 O   0  0  0  0  0  0  0  0  0  0  0  0
  187.5730  175.3380  141.7820 C   0  0  0  0  0  2  0  0  0  0  0  0
  187.8390  176.7970  141.4180 C   0  0  0  0  0  2  0  0  0  0  0  0
  186.8570  177.2920  140.3720 C   0  0  0  0  0  2  0  0  0  0  0  0
  185.7690  178.1210  141.0280 C   0  0  0  0  0  2  0  0  0  0  0  0
  185.4080  178.9220  143.3880 C   0  0  0  0  0  0  0  0  0  0  0  0
  186.2660  178.6900  142.2730 N   0  0  0  0  0  2  0  0  0  0  0  0
  184.1880  178.6040  143.3240 O   0  0  0  0  0  0  0  0  0  0  0  0
  185.9370  179.4850  144.5500 O   0  0  0  0  0  0  0  0  0  0  0  0
  185.1570  178.7630  146.8920 C   0  0  0  0  0  3  0  0  0  0  0  0
  185.5230  179.1020  145.7960 C   0  0  0  0  0  0  0  0  0  0  0  0
  195.3590  171.0730  144.2340 C   0  0  1  0  0  3  0  0  0  0  0  0
  197.2690  172.7300  144.1990 C   0  0  0  0  0  2  0  0  0  0  0  0
  196.6730  172.7550  145.5820 C   0  0  1  0  0  0  0  0  0  0  0  0
  195.7630  172.5460  144.3830 C   0  0  2  0  0  3  0  0  0  0  0  0
  197.0450  171.6890  146.3810 F   0  0  0  0  0  0  0  0  0  0  0  0
  196.6450  174.0250  146.1460 O   0  0  0  0  0  1  0  0  0  0  0  0
  194.4410  170.6740  145.3940 C   0  0  0  0  0  2  0  0  0  0  0  0
  194.8930  169.3710  146.0250 C   0  0  0  0  0  2  0  0  0  0  0  0
  193.8060  168.3320  145.8550 C   0  0  0  0  0  1  0  0  0  0  0  0
  1  6  1  6  0  0  0
  1  2  1  0  0  0  0
  2 22  1  6  0  0  0
  3  5  1  0  0  0  0
  5  4  1  6  0  0  0
  5  2  1  0  0  0  0
  5 46  1  0  0  0  0
  6  3  1  0  0  0  0
  8 15  1  6  0  0  0
  8  1  1  0  0  0  0
  9  7  1  6  0  0  0
  9  8  1  0  0  0  0
 10 11  1  6  0  0  0
 10 16  1  0  0  0  0
 12  9  1  0  0  0  0
 13 10  1  0  0  0  0
 16 14  1  6  0  0  0
 16 18  1  0  0  0  0
 16  7  1  0  0  0  0
 17 13  1  0  0  0  0
 17 14  1  0  0  0  0
 18 15  1  1  0  0  0
 18 12  1  0  0  0  0
 19 15  2  0  0  0  0
 20 21  2  0  0  0  0
 22 20  2  0  0  0  0
 23 32  1  6  0  0  0
 23 21  1  0  0  0  0
 24 28  1  0  0  0  0
 25 23  1  6  0  0  0
 25 30  1  0  0  0  0
 26 24  1  0  0  0  0
 29 28  1  0  0  0  0
 29 27  1  1  0  0  0
 30 29  1  0  0  0  0
 31 25  1  0  0  0  0
 31 26  1  0  0  0  0
 33 34  1  1  0  0  0
 33 36  1  0  0  0  0
 33 32  1  0  0  0  0
 34 35  2  0  0  0  0
 37 36  1  0  0  0  0
 38 39  1  0  0  0  0
 38 37  1  0  0  0  0
 39 41  1  0  0  0  0
 40 43  1  0  0  0  0
 41 40  1  0  0  0  0
 42 40  2  0  0  0  0
 43 45  1  0  0  0  0
 45 44  3  0  0  0  0
 46 52  1  1  0  0  0
 47 49  1  0  0  0  0
 47 48  1  0  0  0  0
 48 51  1  1  0  0  0
 48 50  1  0  0  0  0
 49 46  1  1  0  0  0
 49 48  1  0  0  0  0
 52 53  1  0  0  0  0
 54 53  1  0  0  0  0
M  END
>  <MODEL>
4

>  <REMARK>
 VINA RESULT:      -6.0      3.510      9.977
  Name = 
  18 active torsions:
  status: ('A' for Active; 'I' for Inactive)
    1  A    between atoms: C_1  and  C_54
    2  A    between atoms: C_4  and  O_34
    3  A    between atoms: C_6  and  C_14
    4  A    between atoms: N_7  and  C_12
    5  A    between atoms: C_10  and  C_14
    6  A    between atoms: C_10  and  C_24
    7  A    between atoms: C_11  and  C_14
    8  A    between atoms: C_12  and  C_41
    9  A    between atoms: C_13  and  C_24
   10  A    between atoms: C_16  and  C_25
   11  A    between atoms: C_17  and  C_19
   12  A    between atoms: C_20  and  C_26
   13  A    between atoms: C_24  and  C_46
   14  A    between atoms: C_25  and  C_45
   15  A    between atoms: C_25  and  C_54
   16  A    between atoms: O_34  and  C_43
   17  A    between atoms: C_41  and  C_51
   18  A    between atoms: C_46  and  C_51
                            x       y       z     vdW  Elec       q    Type
                         _______ _______ _______ _____ _____    ______ ____

>  <TORSDO>
F 18

$$$$
=
 OpenBabel11062418323D

 54 59  0  0  1  0  0  0  0  0999 V2000
  193.4730  172.4490  141.3410 C   0  0  2  0  0  3  0  0  0  0  0  0
  192.0290  172.7830  140.9620 C   0  0  1  0  0  3  0  0  0  0  0  0
  192.8570  171.1970  139.3310 C   0  0  0  0  0  2  0  0  0  0  0  0
  190.9670  170.6460  140.6350 O   0  0  0  0  0  1  0  0  0  0  0  0
  191.5720  171.7150  139.9660 C   0  0  1  0  0  0  0  0  0  0  0  0
  194.0180  171.8870  140.0380 C   0  0  0  0  0  2  0  0  0  0  0  0
  193.6670  171.0340  144.8230 O   0  0  0  0  0  0  0  0  0  0  0  0
  193.5860  171.3860  142.4570 C   0  0  2  0  0  3  0  0  0  0  0  0
  193.8630  172.0290  143.8300 C   0  0  2  0  0  3  0  0  0  0  0  0
  194.6270  168.8140  144.6650 C   0  0  1  0  0  3  0  0  0  0  0  0
  195.7280  168.1660  144.0970 O   0  0  0  0  0  1  0  0  0  0  0  0
  195.2460  172.2820  143.8150 O   0  0  0  0  0  0  0  0  0  0  0  0
  194.4670  168.3340  146.0930 C   0  0  0  0  0  2  0  0  0  0  0  0
  195.6250  170.4880  146.0950 C   0  0  0  0  0  2  0  0  0  0  0  0
  194.8730  170.6500  142.3840 C   0  0  0  0  0  0  0  0  0  0  0  0
  194.8840  170.3160  144.7820 C   0  0  2  0  0  0  0  0  0  0  0  0
  195.1800  169.3400  146.9810 C   0  0  0  0  0  2  0  0  0  0  0  0
  195.6380  170.9680  143.6220 C   0  0  2  0  0  3  0  0  0  0  0  0
  195.2020  169.8450  141.5290 O   0  0  0  0  0  0  0  0  0  0  0  0
  190.3110  174.1080  142.0490 C   0  0  0  0  0  0  0  0  0  0  0  0
  189.5370  175.1600  142.0080 C   0  0  0  0  0  3  0  0  0  0  0  0
  191.0800  173.0570  142.0880 C   0  0  0  0  0  3  0  0  0  0  0  0
  189.0000  175.8200  143.2470 C   0  0  1  0  0  3  0  0  0  0  0  0
  185.3620  177.6980  142.1000 C   0  0  0  0  0  2  0  0  0  0  0  0
  187.6510  176.5230  143.0390 C   0  0  1  0  0  3  0  0  0  0  0  0
  186.7060  178.4130  141.8570 C   0  0  0  0  0  2  0  0  0  0  0  0
  185.1000  177.3380  145.8370 C   0  0  0  0  0  1  0  0  0  0  0  0
  184.8480  177.8510  143.4690 N   0  0  0  0  0  2  0  0  0  0  0  0
  185.8250  177.5370  144.5220 C   0  0  2  0  0  3  0  0  0  0  0  0
  186.6980  176.3080  144.2280 C   0  0  0  0  0  2  0  0  0  0  0  0
  187.8070  177.9440  142.7150 N   0  0  0  0  0  2  0  0  0  0  0  0
  188.9530  174.8490  144.4230 C   0  0  0  0  0  2  0  0  0  0  0  0
  189.9180  175.2610  145.5350 C   0  0  1  0  0  3  0  0  0  0  0  0
  189.2270  175.4700  146.8460 C   0  0  0  0  0  3  0  0  0  0  0  0
  189.0730  174.5420  147.6210 O   0  0  0  0  0  0  0  0  0  0  0  0
  191.0780  174.2700  145.6730 C   0  0  0  0  0  2  0  0  0  0  0  0
  192.4570  174.9250  145.7380 C   0  0  0  0  0  2  0  0  0  0  0  0
  192.8150  175.5860  144.4210 C   0  0  0  0  0  2  0  0  0  0  0  0
  194.2630  176.0360  144.4380 C   0  0  0  0  0  2  0  0  0  0  0  0
  196.1390  175.8380  142.7700 C   0  0  0  0  0  0  0  0  0  0  0  0
  194.7730  176.1100  143.0770 N   0  0  0  0  0  2  0  0  0  0  0  0
  196.9360  175.4940  143.6860 O   0  0  0  0  0  0  0  0  0  0  0  0
  196.5740  175.9410  141.4480 O   0  0  0  0  0  0  0  0  0  0  0  0
  195.0800  175.2790  139.4620 C   0  0  0  0  0  3  0  0  0  0  0  0
  195.7780  175.5890  140.3920 C   0  0  0  0  0  0  0  0  0  0  0  0
  190.6200  172.2790  138.8830 C   0  0  1  0  0  3  0  0  0  0  0  0
  191.8580  174.1260  137.6750 C   0  0  0  0  0  2  0  0  0  0  0  0
  190.6370  173.7890  136.8600 C   0  0  1  0  0  0  0  0  0  0  0  0
  191.3640  172.6810  137.6020 C   0  0  2  0  0  3  0  0  0  0  0  0
  189.4580  174.3170  137.3550 F   0  0  0  0  0  0  0  0  0  0  0  0
  190.8600  173.8450  135.4890 O   0  0  0  0  0  1  0  0  0  0  0  0
  189.5160  171.2750  138.5400 C   0  0  0  0  0  2  0  0  0  0  0  0
  189.8690  170.4770  137.2990 C   0  0  0  0  0  2  0  0  0  0  0  0
  190.1600  169.0460  137.6930 C   0  0  0  0  0  1  0  0  0  0  0  0
  1  6  1  6  0  0  0
  1  8  1  0  0  0  0
  2  1  1  0  0  0  0
  2 22  1  1  0  0  0
  3  5  1  0  0  0  0
  3  6  1  0  0  0  0
  5  4  1  1  0  0  0
  5  2  1  0  0  0  0
  8 15  1  6  0  0  0
  8  9  1  0  0  0  0
  9 12  1  6  0  0  0
  9  7  1  0  0  0  0
 10 11  1  1  0  0  0
 10 16  1  0  0  0  0
 10 13  1  0  0  0  0
 13 17  1  0  0  0  0
 14 17  1  0  0  0  0
 16  7  1  0  0  0  0
 16 14  1  1  0  0  0
 18 15  1  6  0  0  0
 18 12  1  0  0  0  0
 18 16  1  0  0  0  0
 19 15  2  0  0  0  0
 20 22  2  0  0  0  0
 21 20  2  0  0  0  0
 23 21  1  6  0  0  0
 23 32  1  0  0  0  0
 24 28  1  0  0  0  0
 25 23  1  1  0  0  0
 25 30  1  0  0  0  0
 26 24  1  0  0  0  0
 26 31  1  0  0  0  0
 28 29  1  0  0  0  0
 29 27  1  1  0  0  0
 30 29  1  0  0  0  0
 31 25  1  0  0  0  0
 33 32  1  6  0  0  0
 33 36  1  0  0  0  0
 33 34  1  0  0  0  0
 34 35  2  0  0  0  0
 36 37  1  0  0  0  0
 38 39  1  0  0  0  0
 38 37  1  0  0  0  0
 40 41  1  0  0  0  0
 40 42  2  0  0  0  0
 41 39  1  0  0  0  0
 43 40  1  0  0  0  0
 44 45  3  0  0  0  0
 45 43  1  0  0  0  0
 46 52  1  6  0  0  0
 46  5  1  0  0  0  0
 48 51  1  6  0  0  0
 48 50  1  0  0  0  0
 48 49  1  0  0  0  0
 48 47  1  0  0  0  0
 49 47  1  0  0  0  0
 49 46  1  1  0  0  0
 53 54  1  0  0  0  0
 53 52  1  0  0  0  0
M  END
>  <MODEL>
5

>  <REMARK>
 VINA RESULT:      -5.9      2.911      7.349
  Name = 
  18 active torsions:
  status: ('A' for Active; 'I' for Inactive)
    1  A    between atoms: C_1  and  C_54
    2  A    between atoms: C_4  and  O_34
    3  A    between atoms: C_6  and  C_14
    4  A    between atoms: N_7  and  C_12
    5  A    between atoms: C_10  and  C_14
    6  A    between atoms: C_10  and  C_24
    7  A    between atoms: C_11  and  C_14
    8  A    between atoms: C_12  and  C_41
    9  A    between atoms: C_13  and  C_24
   10  A    between atoms: C_16  and  C_25
   11  A    between atoms: C_17  and  C_19
   12  A    between atoms: C_20  and  C_26
   13  A    between atoms: C_24  and  C_46
   14  A    between atoms: C_25  and  C_45
   15  A    between atoms: C_25  and  C_54
   16  A    between atoms: O_34  and  C_43
   17  A    between atoms: C_41  and  C_51
   18  A    between atoms: C_46  and  C_51
                            x       y       z     vdW  Elec       q    Type
                         _______ _______ _______ _____ _____    ______ ____

>  <TORSDO>
F 18

$$$$
=
 OpenBabel11062418323D

 54 59  0  0  1  0  0  0  0  0999 V2000
  192.7240  176.3080  144.1690 C   0  0  2  0  0  3  0  0  0  0  0  0
  193.5050  175.0010  144.0240 C   0  0  1  0  0  3  0  0  0  0  0  0
  193.3870  175.5150  146.3870 C   0  0  0  0  0  2  0  0  0  0  0  0
  192.4730  173.4890  145.5900 O   0  0  0  0  0  1  0  0  0  0  0  0
  193.5560  174.3560  145.4110 C   0  0  1  0  0  0  0  0  0  0  0  0
  193.1380  176.7700  145.5570 C   0  0  0  0  0  2  0  0  0  0  0  0
  189.2720  176.0910  142.6880 O   0  0  0  0  0  0  0  0  0  0  0  0
  191.1920  176.1180  144.1160 C   0  0  2  0  0  3  0  0  0  0  0  0
  190.6100  176.5580  142.7590 C   0  0  2  0  0  3  0  0  0  0  0  0
  187.6760  176.3990  144.4860 C   0  0  1  0  0  3  0  0  0  0  0  0
  187.4140  177.2790  145.5410 O   0  0  0  0  0  1  0  0  0  0  0  0
  190.5180  177.9570  142.8640 O   0  0  0  0  0  0  0  0  0  0  0  0
  186.3760  176.1080  143.7660 C   0  0  0  0  0  2  0  0  0  0  0  0
  187.6150  177.8170  142.5290 C   0  0  0  0  0  2  0  0  0  0  0  0
  190.4840  177.1520  144.9130 C   0  0  0  0  0  0  0  0  0  0  0  0
  188.5680  177.0620  143.4370 C   0  0  2  0  0  0  0  0  0  0  0  0
  186.2960  177.0680  142.5920 C   0  0  0  0  0  2  0  0  0  0  0  0
  189.6790  177.9710  143.9660 C   0  0  2  0  0  3  0  0  0  0  0  0
  190.4710  177.2470  146.1300 O   0  0  0  0  0  0  0  0  0  0  0  0
  193.6500  174.2070  141.7350 C   0  0  0  0  0  0  0  0  0  0  0  0
  194.2080  174.3250  140.5590 C   0  0  0  0  0  3  0  0  0  0  0  0
  193.0970  174.0890  142.9080 C   0  0  0  0  0  3  0  0  0  0  0  0
  193.5250  173.8960  139.2910 C   0  0  1  0  0  3  0  0  0  0  0  0
  195.8620  174.8420  135.8680 C   0  0  0  0  0  2  0  0  0  0  0  0
  194.2240  174.3850  138.0150 C   0  0  1  0  0  3  0  0  0  0  0  0
  196.3840  175.1930  137.2750 C   0  0  0  0  0  2  0  0  0  0  0  0
  192.7170  176.8660  135.4510 C   0  0  0  0  0  1  0  0  0  0  0  0
  194.9160  175.8270  135.3230 N   0  0  0  0  0  2  0  0  0  0  0  0
  193.8170  176.1810  136.2340 C   0  0  2  0  0  3  0  0  0  0  0  0
  193.2300  174.9910  137.0080 C   0  0  0  0  0  2  0  0  0  0  0  0
  195.3340  175.2990  138.3030 N   0  0  0  0  0  2  0  0  0  0  0  0
  193.2950  172.3870  139.2630 C   0  0  0  0  0  2  0  0  0  0  0  0
  191.8160  172.0450  139.0850 C   0  0  1  0  0  3  0  0  0  0  0  0
  191.5480  171.3050  137.8110 C   0  0  0  0  0  3  0  0  0  0  0  0
  192.3420  171.3510  136.8870 O   0  0  0  0  0  0  0  0  0  0  0  0
  191.2620  171.2830  140.2930 C   0  0  0  0  0  2  0  0  0  0  0  0
  190.4550  172.1470  141.2610 C   0  0  0  0  0  2  0  0  0  0  0  0
  190.0230  173.4470  140.6090 C   0  0  0  0  0  2  0  0  0  0  0  0
  188.5380  173.4110  140.3050 C   0  0  0  0  0  2  0  0  0  0  0  0
  188.2410  174.1620  137.9200 C   0  0  0  0  0  0  0  0  0  0  0  0
  188.2110  174.4320  139.3200 N   0  0  0  0  0  2  0  0  0  0  0  0
  188.5280  173.0050  137.5050 O   0  0  0  0  0  0  0  0  0  0  0  0
  187.9340  175.1850  137.0220 O   0  0  0  0  0  0  0  0  0  0  0  0
  189.1180  175.4070  134.7490 C   0  0  0  0  0  3  0  0  0  0  0  0
  188.5640  175.3040  135.8130 C   0  0  0  0  0  0  0  0  0  0  0  0
  194.8890  173.6140  145.6750 C   0  0  1  0  0  3  0  0  0  0  0  0
  194.5900  171.1350  145.2720 C   0  0  0  0  0  2  0  0  0  0  0  0
  196.0690  171.4190  145.2750 C   0  0  1  0  0  0  0  0  0  0  0  0
  195.1150  172.4520  144.6990 C   0  0  2  0  0  3  0  0  0  0  0  0
  196.6140  171.5850  146.5350 F   0  0  0  0  0  0  0  0  0  0  0  0
  196.7760  170.6650  144.3440 O   0  0  0  0  0  1  0  0  0  0  0  0
  196.0780  174.5760  145.6100 C   0  0  0  0  0  2  0  0  0  0  0  0
  196.8640  174.3880  144.3260 C   0  0  0  0  0  2  0  0  0  0  0  0
  196.8210  175.6700  143.5240 C   0  0  0  0  0  1  0  0  0  0  0  0
  1  6  1  1  0  0  0
  2 22  1  6  0  0  0
  2  1  1  0  0  0  0
  2  5  1  0  0  0  0
  5  4  1  1  0  0  0
  5 46  1  0  0  0  0
  5  3  1  0  0  0  0
  6  3  1  0  0  0  0
  7 16  1  0  0  0  0
  8  1  1  0  0  0  0
  8 15  1  1  0  0  0
  9  7  1  1  0  0  0
  9 12  1  0  0  0  0
  9  8  1  0  0  0  0
 10 11  1  1  0  0  0
 13 10  1  0  0  0  0
 14 17  1  0  0  0  0
 15 19  2  0  0  0  0
 16 14  1  6  0  0  0
 16 18  1  0  0  0  0
 16 10  1  0  0  0  0
 17 13  1  0  0  0  0
 18 12  1  6  0  0  0
 18 15  1  0  0  0  0
 20 22  2  0  0  0  0
 21 20  2  0  0  0  0
 23 32  1  6  0  0  0
 23 21  1  0  0  0  0
 24 26  1  0  0  0  0
 25 31  1  0  0  0  0
 25 23  1  1  0  0  0
 26 31  1  0  0  0  0
 28 24  1  0  0  0  0
 28 29  1  0  0  0  0
 29 27  1  6  0  0  0
 29 30  1  0  0  0  0
 30 25  1  0  0  0  0
 33 34  1  6  0  0  0
 33 32  1  0  0  0  0
 33 36  1  0  0  0  0
 35 34  2  0  0  0  0
 36 37  1  0  0  0  0
 38 37  1  0  0  0  0
 39 38  1  0  0  0  0
 40 41  1  0  0  0  0
 41 39  1  0  0  0  0
 42 40  2  0  0  0  0
 43 40  1  0  0  0  0
 44 45  3  0  0  0  0
 45 43  1  0  0  0  0
 46 52  1  6  0  0  0
 47 48  1  0  0  0  0
 48 51  1  6  0  0  0
 48 50  1  0  0  0  0
 49 47  1  0  0  0  0
 49 48  1  0  0  0  0
 49 46  1  1  0  0  0
 53 52  1  0  0  0  0
 54 53  1  0  0  0  0
M  END
>  <MODEL>
6

>  <REMARK>
 VINA RESULT:      -5.8      3.156      7.590
  Name = 
  18 active torsions:
  status: ('A' for Active; 'I' for Inactive)
    1  A    between atoms: C_1  and  C_54
    2  A    between atoms: C_4  and  O_34
    3  A    between atoms: C_6  and  C_14
    4  A    between atoms: N_7  and  C_12
    5  A    between atoms: C_10  and  C_14
    6  A    between atoms: C_10  and  C_24
    7  A    between atoms: C_11  and  C_14
    8  A    between atoms: C_12  and  C_41
    9  A    between atoms: C_13  and  C_24
   10  A    between atoms: C_16  and  C_25
   11  A    between atoms: C_17  and  C_19
   12  A    between atoms: C_20  and  C_26
   13  A    between atoms: C_24  and  C_46
   14  A    between atoms: C_25  and  C_45
   15  A    between atoms: C_25  and  C_54
   16  A    between atoms: O_34  and  C_43
   17  A    between atoms: C_41  and  C_51
   18  A    between atoms: C_46  and  C_51
                            x       y       z     vdW  Elec       q    Type
                         _______ _______ _______ _____ _____    ______ ____

>  <TORSDO>
F 18

$$$$
=
 OpenBabel11062418323D

 54 59  0  0  1  0  0  0  0  0999 V2000
  192.6490  176.4190  144.3800 C   0  0  2  0  0  3  0  0  0  0  0  0
  193.4980  175.1850  144.0700 C   0  0  1  0  0  3  0  0  0  0  0  0
  193.1310  175.2280  146.4630 C   0  0  0  0  0  2  0  0  0  0  0  0
  192.3880  173.3730  145.2040 O   0  0  0  0  0  1  0  0  0  0  0  0
  193.4430  174.2840  145.3060 C   0  0  1  0  0  0  0  0  0  0  0  0
  192.9070  176.6130  145.8660 C   0  0  0  0  0  2  0  0  0  0  0  0
  189.3870  176.3110  142.5090 O   0  0  0  0  0  0  0  0  0  0  0  0
  191.1390  176.2050  144.1350 C   0  0  2  0  0  3  0  0  0  0  0  0
  190.6930  176.7940  142.7830 C   0  0  2  0  0  3  0  0  0  0  0  0
  187.5970  176.3650  144.1410 C   0  0  1  0  0  3  0  0  0  0  0  0
  187.1920  177.1050  145.2570 O   0  0  0  0  0  1  0  0  0  0  0  0
  190.5420  178.1680  143.0420 O   0  0  0  0  0  0  0  0  0  0  0  0
  186.3930  176.1370  143.2500 C   0  0  0  0  0  2  0  0  0  0  0  0
  187.6990  178.0090  142.3710 C   0  0  0  0  0  2  0  0  0  0  0  0
  190.3150  177.1190  144.9650 C   0  0  0  0  0  0  0  0  0  0  0  0
  188.5730  177.1690  143.2840 C   0  0  2  0  0  0  0  0  0  0  0  0
  186.4080  177.2310  142.1970 C   0  0  0  0  0  2  0  0  0  0  0  0
  189.5890  178.0300  144.0370 C   0  0  2  0  0  3  0  0  0  0  0  0
  190.1670  177.0660  146.1750 O   0  0  0  0  0  0  0  0  0  0  0  0
  193.9850  174.7630  141.7300 C   0  0  0  0  0  0  0  0  0  0  0  0
  194.7340  175.0290  140.6930 C   0  0  0  0  0  3  0  0  0  0  0  0
  193.2400  174.4970  142.7650 C   0  0  0  0  0  3  0  0  0  0  0  0
  194.2530  174.8600  139.2800 C   0  0  1  0  0  3  0  0  0  0  0  0
  197.2990  173.2930  136.7630 C   0  0  0  0  0  2  0  0  0  0  0  0
  195.3620  174.4870  138.2870 C   0  0  1  0  0  3  0  0  0  0  0  0
  197.5790  173.5120  138.2630 C   0  0  0  0  0  2  0  0  0  0  0  0
  196.6040  176.7210  135.3770 C   0  0  0  0  0  1  0  0  0  0  0  0
  197.4440  174.5070  135.9480 N   0  0  0  0  0  2  0  0  0  0  0  0
  196.7180  175.6760  136.4670 C   0  0  2  0  0  3  0  0  0  0  0  0
  195.3200  175.3570  137.0190 C   0  0  0  0  0  2  0  0  0  0  0  0
  196.6910  174.4940  138.9090 N   0  0  0  0  0  2  0  0  0  0  0  0
  193.0780  173.8880  139.2010 C   0  0  0  0  0  2  0  0  0  0  0  0
  193.5040  172.5330  138.6370 C   0  0  1  0  0  3  0  0  0  0  0  0
  193.4760  171.4480  139.6680 C   0  0  0  0  0  3  0  0  0  0  0  0
  192.8950  171.6140  140.7280 O   0  0  0  0  0  0  0  0  0  0  0  0
  192.6770  172.1460  137.4070 C   0  0  0  0  0  2  0  0  0  0  0  0
  192.0220  170.7690  137.5010 C   0  0  0  0  0  2  0  0  0  0  0  0
  190.5860  170.8080  137.0110 C   0  0  0  0  0  2  0  0  0  0  0  0
  189.6380  170.4850  138.1490 C   0  0  0  0  0  2  0  0  0  0  0  0
  189.1220  172.6250  139.3710 C   0  0  0  0  0  0  0  0  0  0  0  0
  189.8580  171.4090  139.2520 N   0  0  0  0  0  2  0  0  0  0  0  0
  188.2310  172.9110  138.5240 O   0  0  0  0  0  0  0  0  0  0  0  0
  189.3870  173.4800  140.4420 O   0  0  0  0  0  0  0  0  0  0  0  0
  189.9610  172.5920  142.7870 C   0  0  0  0  0  3  0  0  0  0  0  0
  189.6910  173.0080  141.6890 C   0  0  0  0  0  0  0  0  0  0  0  0
  194.7760  173.5390  145.5600 C   0  0  1  0  0  3  0  0  0  0  0  0
  194.4810  171.0480  145.2360 C   0  0  0  0  0  2  0  0  0  0  0  0
  195.9560  171.3410  145.1750 C   0  0  1  0  0  0  0  0  0  0  0  0
  194.9730  172.3520  144.6080 C   0  0  2  0  0  3  0  0  0  0  0  0
  196.5490  171.5450  146.4080 F   0  0  0  0  0  0  0  0  0  0  0  0
  196.6320  170.5660  144.2380 O   0  0  0  0  0  1  0  0  0  0  0  0
  195.9710  174.4900  145.4460 C   0  0  0  0  0  2  0  0  0  0  0  0
  196.7530  174.2360  144.1720 C   0  0  0  0  0  2  0  0  0  0  0  0
  197.1660  175.5610  143.5690 C   0  0  0  0  0  1  0  0  0  0  0  0
  1  6  1  1  0  0  0
  2 22  1  6  0  0  0
  2  1  1  0  0  0  0
  2  5  1  0  0  0  0
  5  4  1  6  0  0  0
  5 46  1  0  0  0  0
  5  3  1  0  0  0  0
  6  3  1  0  0  0  0
  7 16  1  0  0  0  0
  8  1  1  0  0  0  0
  8 15  1  1  0  0  0
  9  7  1  1  0  0  0
  9 12  1  0  0  0  0
  9  8  1  0  0  0  0
 10 11  1  1  0  0  0
 13 10  1  0  0  0  0
 15 19  2  0  0  0  0
 16 14  1  6  0  0  0
 16 18  1  0  0  0  0
 16 10  1  0  0  0  0
 17 14  1  0  0  0  0
 17 13  1  0  0  0  0
 18 12  1  6  0  0  0
 18 15  1  0  0  0  0
 20 22  2  0  0  0  0
 21 20  2  0  0  0  0
 23 32  1  1  0  0  0
 23 21  1  0  0  0  0
 24 26  1  0  0  0  0
 25 31  1  0  0  0  0
 25 23  1  1  0  0  0
 26 31  1  0  0  0  0
 28 29  1  0  0  0  0
 28 24  1  0  0  0  0
 29 27  1  6  0  0  0
 29 30  1  0  0  0  0
 30 25  1  0  0  0  0
 33 36  1  6  0  0  0
 33 32  1  0  0  0  0
 33 34  1  0  0  0  0
 34 35  2  0  0  0  0
 36 37  1  0  0  0  0
 38 37  1  0  0  0  0
 38 39  1  0  0  0  0
 39 41  1  0  0  0  0
 40 43  1  0  0  0  0
 41 40  1  0  0  0  0
 42 40  2  0  0  0  0
 43 45  1  0  0  0  0
 45 44  3  0  0  0  0
 46 52  1  6  0  0  0
 48 51  1  6  0  0  0
 48 47  1  0  0  0  0
 48 50  1  0  0  0  0
 49 48  1  0  0  0  0
 49 47  1  0  0  0  0
 49 46  1  1  0  0  0
 53 52  1  0  0  0  0
 54 53  1  0  0  0  0
M  END
>  <MODEL>
7

>  <REMARK>
 VINA RESULT:      -5.8      3.230      7.610
  Name = 
  18 active torsions:
  status: ('A' for Active; 'I' for Inactive)
    1  A    between atoms: C_1  and  C_54
    2  A    between atoms: C_4  and  O_34
    3  A    between atoms: C_6  and  C_14
    4  A    between atoms: N_7  and  C_12
    5  A    between atoms: C_10  and  C_14
    6  A    between atoms: C_10  and  C_24
    7  A    between atoms: C_11  and  C_14
    8  A    between atoms: C_12  and  C_41
    9  A    between atoms: C_13  and  C_24
   10  A    between atoms: C_16  and  C_25
   11  A    between atoms: C_17  and  C_19
   12  A    between atoms: C_20  and  C_26
   13  A    between atoms: C_24  and  C_46
   14  A    between atoms: C_25  and  C_45
   15  A    between atoms: C_25  and  C_54
   16  A    between atoms: O_34  and  C_43
   17  A    between atoms: C_41  and  C_51
   18  A    between atoms: C_46  and  C_51
                            x       y       z     vdW  Elec       q    Type
                         _______ _______ _______ _____ _____    ______ ____

>  <TORSDO>
F 18

$$$$
=
 OpenBabel11062418323D

 54 59  0  0  1  0  0  0  0  0999 V2000
  193.3430  175.5240  143.7850 C   0  0  2  0  0  3  0  0  0  0  0  0
  193.7680  174.1260  143.3330 C   0  0  1  0  0  3  0  0  0  0  0  0
  195.0040  174.6410  145.3500 C   0  0  0  0  0  2  0  0  0  0  0  0
  193.5820  172.7570  145.3050 O   0  0  0  0  0  1  0  0  0  0  0  0
  194.4860  173.4740  144.5160 C   0  0  1  0  0  0  0  0  0  0  0  0
  194.4900  175.9210  144.7000 C   0  0  0  0  0  2  0  0  0  0  0  0
  189.6310  175.6240  144.3920 O   0  0  0  0  0  0  0  0  0  0  0  0
  192.0150  175.5380  144.5750 C   0  0  2  0  0  3  0  0  0  0  0  0
  190.8210  175.9110  143.6750 C   0  0  2  0  0  3  0  0  0  0  0  0
  189.2760  176.3260  146.6840 C   0  0  1  0  0  3  0  0  0  0  0  0
  189.6750  177.3370  147.5640 O   0  0  0  0  0  1  0  0  0  0  0  0
  190.8830  177.3130  143.5900 O   0  0  0  0  0  0  0  0  0  0  0  0
  187.7770  176.1410  146.8090 C   0  0  0  0  0  2  0  0  0  0  0  0
  188.2540  177.5320  144.8550 C   0  0  0  0  0  2  0  0  0  0  0  0
  191.9110  176.7340  145.4490 C   0  0  0  0  0  0  0  0  0  0  0  0
  189.4990  176.7520  145.2330 C   0  0  2  0  0  0  0  0  0  0  0  0
  187.1350  176.9780  145.7170 C   0  0  0  0  0  2  0  0  0  0  0  0
  190.7720  177.5520  144.9490 C   0  0  2  0  0  3  0  0  0  0  0  0
  192.5600  176.9540  146.4580 O   0  0  0  0  0  0  0  0  0  0  0  0
  192.4910  173.4060  141.3980 C   0  0  0  0  0  0  0  0  0  0  0  0
  192.2640  173.5300  140.1170 C   0  0  0  0  0  3  0  0  0  0  0  0
  192.7210  173.2810  142.6740 C   0  0  0  0  0  3  0  0  0  0  0  0
  190.9410  173.1880  139.4920 C   0  0  1  0  0  3  0  0  0  0  0  0
  191.1650  171.3610  135.6600 C   0  0  0  0  0  2  0  0  0  0  0  0
  191.0460  172.7240  138.0330 C   0  0  1  0  0  3  0  0  0  0  0  0
  192.3240  171.1900  136.6620 C   0  0  0  0  0  2  0  0  0  0  0  0
  191.0230  175.0510  134.9370 C   0  0  0  0  0  1  0  0  0  0  0  0
  191.2120  172.6230  134.9080 N   0  0  0  0  0  2  0  0  0  0  0  0
  191.3840  173.8210  135.7430 C   0  0  2  0  0  3  0  0  0  0  0  0
  190.5710  173.8050  137.0460 C   0  0  0  0  0  2  0  0  0  0  0  0
  192.3870  172.2330  137.7000 N   0  0  0  0  0  2  0  0  0  0  0  0
  190.1600  172.1910  140.3450 C   0  0  0  0  0  2  0  0  0  0  0  0
  188.8600  172.7980  140.8740 C   0  0  1  0  0  3  0  0  0  0  0  0
  188.8500  172.9190  142.3660 C   0  0  0  0  0  3  0  0  0  0  0  0
  188.5180  171.9750  143.0630 O   0  0  0  0  0  0  0  0  0  0  0  0
  188.5520  174.1430  140.2090 C   0  0  0  0  0  2  0  0  0  0  0  0
  188.2370  175.2690  141.1920 C   0  0  0  0  0  2  0  0  0  0  0  0
  187.4560  176.3840  140.5220 C   0  0  0  0  0  2  0  0  0  0  0  0
  187.1050  177.4580  141.5340 C   0  0  0  0  0  2  0  0  0  0  0  0
  185.0480  178.4480  142.5940 C   0  0  0  0  0  0  0  0  0  0  0  0
  185.6670  177.4740  141.7570 N   0  0  0  0  0  2  0  0  0  0  0  0
  185.7450  179.3460  143.1420 O   0  0  0  0  0  0  0  0  0  0  0  0
  183.6660  178.4050  142.7840 O   0  0  0  0  0  0  0  0  0  0  0  0
  182.0260  178.1780  140.8150 C   0  0  0  0  0  3  0  0  0  0  0  0
  182.7930  178.2850  141.7370 C   0  0  0  0  0  0  0  0  0  0  0  0
  195.6560  172.5620  144.0740 C   0  0  1  0  0  3  0  0  0  0  0  0
  196.0200  170.7550  145.8070 C   0  0  0  0  0  2  0  0  0  0  0  0
  196.7320  170.3290  144.5500 C   0  0  1  0  0  0  0  0  0  0  0  0
  195.4220  171.0900  144.4400 C   0  0  2  0  0  3  0  0  0  0  0  0
  197.9410  170.9660  144.3360 F   0  0  0  0  0  0  0  0  0  0  0  0
  196.6560  168.9600  144.3130 O   0  0  0  0  0  1  0  0  0  0  0  0
  195.9100  172.6800  142.5690 C   0  0  0  0  0  2  0  0  0  0  0  0
  197.3180  173.1700  142.2890 C   0  0  0  0  0  2  0  0  0  0  0  0
  197.7320  174.1420  143.3710 C   0  0  0  0  0  1  0  0  0  0  0  0
  1  8  1  0  0  0  0
  1  6  1  1  0  0  0
  2 22  1  1  0  0  0
  2  1  1  0  0  0  0
  2  5  1  0  0  0  0
  5  4  1  1  0  0  0
  5  3  1  0  0  0  0
  6  3  1  0  0  0  0
  7 16  1  0  0  0  0
  8 15  1  1  0  0  0
  9 12  1  1  0  0  0
  9  7  1  0  0  0  0
  9  8  1  0  0  0  0
 10 13  1  0  0  0  0
 10 11  1  1  0  0  0
 14 17  1  0  0  0  0
 15 19  2  0  0  0  0
 16 14  1  6  0  0  0
 16 10  1  0  0  0  0
 17 13  1  0  0  0  0
 18 12  1  6  0  0  0
 18 16  1  0  0  0  0
 18 15  1  0  0  0  0
 20 22  2  0  0  0  0
 21 20  2  0  0  0  0
 23 21  1  1  0  0  0
 23 32  1  0  0  0  0
 24 26  1  0  0  0  0
 25 23  1  1  0  0  0
 26 31  1  0  0  0  0
 28 24  1  0  0  0  0
 28 29  1  0  0  0  0
 29 27  1  6  0  0  0
 29 30  1  0  0  0  0
 30 25  1  0  0  0  0
 31 25  1  0  0  0  0
 32 33  1  0  0  0  0
 33 36  1  6  0  0  0
 33 34  1  0  0  0  0
 34 35  2  0  0  0  0
 36 37  1  0  0  0  0
 38 37  1  0  0  0  0
 38 39  1  0  0  0  0
 39 41  1  0  0  0  0
 40 43  1  0  0  0  0
 40 42  2  0  0  0  0
 41 40  1  0  0  0  0
 44 45  3  0  0  0  0
 45 43  1  0  0  0  0
 46 52  1  6  0  0  0
 46  5  1  0  0  0  0
 48 51  1  6  0  0  0
 48 47  1  0  0  0  0
 49 46  1  6  0  0  0
 49 48  1  0  0  0  0
 49 47  1  0  0  0  0
 50 48  1  0  0  0  0
 53 52  1  0  0  0  0
 53 54  1  0  0  0  0
M  END
>  <MODEL>
8

>  <REMARK>
 VINA RESULT:      -5.7      3.061      8.399
  Name = 
  18 active torsions:
  status: ('A' for Active; 'I' for Inactive)
    1  A    between atoms: C_1  and  C_54
    2  A    between atoms: C_4  and  O_34
    3  A    between atoms: C_6  and  C_14
    4  A    between atoms: N_7  and  C_12
    5  A    between atoms: C_10  and  C_14
    6  A    between atoms: C_10  and  C_24
    7  A    between atoms: C_11  and  C_14
    8  A    between atoms: C_12  and  C_41
    9  A    between atoms: C_13  and  C_24
   10  A    between atoms: C_16  and  C_25
   11  A    between atoms: C_17  and  C_19
   12  A    between atoms: C_20  and  C_26
   13  A    between atoms: C_24  and  C_46
   14  A    between atoms: C_25  and  C_45
   15  A    between atoms: C_25  and  C_54
   16  A    between atoms: O_34  and  C_43
   17  A    between atoms: C_41  and  C_51
   18  A    between atoms: C_46  and  C_51
                            x       y       z     vdW  Elec       q    Type
                         _______ _______ _______ _____ _____    ______ ____

>  <TORSDO>
F 18

$$$$
=
 OpenBabel11062418323D

 54 59  0  0  1  0  0  0  0  0999 V2000
  192.3560  170.0680  142.0580 C   0  0  2  0  0  3  0  0  0  0  0  0
  193.2730  170.9780  142.8760 C   0  0  1  0  0  3  0  0  0  0  0  0
  194.3730  168.8300  142.6810 C   0  0  0  0  0  2  0  0  0  0  0  0
  195.4370  170.7630  141.8400 O   0  0  0  0  0  1  0  0  0  0  0  0
  194.6510  170.3130  142.9050 C   0  0  1  0  0  0  0  0  0  0  0  0
  192.8770  168.6870  142.4230 C   0  0  0  0  0  2  0  0  0  0  0  0
  192.1700  171.8540  138.7510 O   0  0  0  0  0  0  0  0  0  0  0  0
  192.4730  170.2860  140.5330 C   0  0  2  0  0  3  0  0  0  0  0  0
  191.7750  171.5860  140.0880 C   0  0  2  0  0  3  0  0  0  0  0  0
  192.1260  170.1730  137.0060 C   0  0  1  0  0  3  0  0  0  0  0  0
  191.4380  169.0030  136.6680 O   0  0  0  0  0  1  0  0  0  0  0  0
  190.4150  171.2360  140.0190 O   0  0  0  0  0  0  0  0  0  0  0  0
  192.2330  171.0440  135.7700 C   0  0  0  0  0  2  0  0  0  0  0  0
  190.3800  171.8390  137.1550 C   0  0  0  0  0  2  0  0  0  0  0  0
  191.5710  169.3770  139.7790 C   0  0  0  0  0  0  0  0  0  0  0  0
  191.3210  171.0050  138.0040 C   0  0  2  0  0  0  0  0  0  0  0  0
  191.0760  172.0270  135.8200 C   0  0  0  0  0  2  0  0  0  0  0  0
  190.5660  170.2270  139.0820 C   0  0  2  0  0  3  0  0  0  0  0  0
  191.6940  168.1700  139.6570 O   0  0  0  0  0  0  0  0  0  0  0  0
  192.6750  173.2930  143.2970 C   0  0  0  0  0  0  0  0  0  0  0  0
  192.0790  174.1540  144.0770 C   0  0  0  0  0  3  0  0  0  0  0  0
  193.2720  172.4340  142.5210 C   0  0  0  0  0  3  0  0  0  0  0  0
  191.5400  175.4650  143.5770 C   0  0  1  0  0  3  0  0  0  0  0  0
  187.4770  174.7460  142.5530 C   0  0  0  0  0  2  0  0  0  0  0  0
  190.0720  175.4030  143.1360 C   0  0  1  0  0  3  0  0  0  0  0  0
  188.6040  174.0600  141.7550 C   0  0  0  0  0  2  0  0  0  0  0  0
  187.9570  178.4320  141.9690 C   0  0  0  0  0  1  0  0  0  0  0  0
  187.1980  176.1230  142.1220 N   0  0  0  0  0  2  0  0  0  0  0  0
  188.3880  176.9810  142.0220 C   0  0  2  0  0  3  0  0  0  0  0  0
  189.4020  176.7880  143.1600 C   0  0  0  0  0  2  0  0  0  0  0  0
  189.9070  174.7410  141.8380 N   0  0  0  0  0  2  0  0  0  0  0  0
  191.7780  176.5880  144.5840 C   0  0  0  0  0  2  0  0  0  0  0  0
  192.2980  176.0500  145.9170 C   0  0  1  0  0  3  0  0  0  0  0  0
  193.6940  176.5030  146.2120 C   0  0  0  0  0  3  0  0  0  0  0  0
  193.9370  177.1590  147.2100 O   0  0  0  0  0  0  0  0  0  0  0  0
  191.3520  176.3910  147.0720 C   0  0  0  0  0  2  0  0  0  0  0  0
  190.4500  175.2360  147.5040 C   0  0  0  0  0  2  0  0  0  0  0  0
  189.1190  175.2740  146.7780 C   0  0  0  0  0  2  0  0  0  0  0  0
  188.5150  176.6620  146.8670 C   0  0  0  0  0  2  0  0  0  0  0  0
  186.0840  177.2870  146.6770 C   0  0  0  0  0  0  0  0  0  0  0  0
  187.2620  176.7030  146.1260 N   0  0  0  0  0  2  0  0  0  0  0  0
  186.1150  177.8130  147.8240 O   0  0  0  0  0  0  0  0  0  0  0  0
  184.9070  177.2830  145.9270 O   0  0  0  0  0  0  0  0  0  0  0  0
  184.7290  178.4950  143.6650 C   0  0  0  0  0  3  0  0  0  0  0  0
  184.8110  177.9280  144.7240 C   0  0  0  0  0  0  0  0  0  0  0  0
  195.3880  170.5290  144.2490 C   0  0  1  0  0  3  0  0  0  0  0  0
  197.5240  171.8810  144.3550 C   0  0  0  0  0  2  0  0  0  0  0  0
  196.7870  172.0940  145.6510 C   0  0  1  0  0  0  0  0  0  0  0  0
  195.9960  171.9330  144.3640 C   0  0  2  0  0  3  0  0  0  0  0  0
  196.8980  171.0480  146.5480 F   0  0  0  0  0  0  0  0  0  0  0  0
  196.8930  173.3930  146.1360 O   0  0  0  0  0  1  0  0  0  0  0  0
  194.4560  170.2760  145.4370 C   0  0  0  0  0  2  0  0  0  0  0  0
  194.5910  168.8530  145.9440 C   0  0  0  0  0  2  0  0  0  0  0  0
  194.5610  168.8580  147.4570 C   0  0  0  0  0  1  0  0  0  0  0  0
  1  6  1  6  0  0  0
  1  2  1  0  0  0  0
  2 22  1  6  0  0  0
  2  5  1  0  0  0  0
  3  5  1  0  0  0  0
  5  4  1  6  0  0  0
  5 46  1  0  0  0  0
  6  3  1  0  0  0  0
  8 15  1  6  0  0  0
  8  1  1  0  0  0  0
  9  7  1  6  0  0  0
  9  8  1  0  0  0  0
 10 11  1  6  0  0  0
 10 16  1  0  0  0  0
 12  9  1  0  0  0  0
 13 17  1  0  0  0  0
 13 10  1  0  0  0  0
 16 14  1  6  0  0  0
 16  7  1  0  0  0  0
 16 18  1  0  0  0  0
 17 14  1  0  0  0  0
 18 15  1  1  0  0  0
 18 12  1  0  0  0  0
 19 15  2  0  0  0  0
 20 21  2  0  0  0  0
 22 20  2  0  0  0  0
 23 21  1  1  0  0  0
 23 32  1  0  0  0  0
 25 30  1  0  0  0  0
 25 23  1  6  0  0  0
 26 31  1  0  0  0  0
 26 24  1  0  0  0  0
 28 24  1  0  0  0  0
 29 27  1  1  0  0  0
 29 28  1  0  0  0  0
 29 30  1  0  0  0  0
 31 25  1  0  0  0  0
 33 32  1  6  0  0  0
 33 34  1  0  0  0  0
 33 36  1  0  0  0  0
 34 35  2  0  0  0  0
 36 37  1  0  0  0  0
 38 39  1  0  0  0  0
 38 37  1  0  0  0  0
 40 42  2  0  0  0  0
 41 40  1  0  0  0  0
 41 39  1  0  0  0  0
 43 40  1  0  0  0  0
 44 45  3  0  0  0  0
 45 43  1  0  0  0  0
 46 52  1  1  0  0  0
 47 49  1  0  0  0  0
 47 48  1  0  0  0  0
 48 51  1  1  0  0  0
 48 50  1  0  0  0  0
 49 46  1  1  0  0  0
 49 48  1  0  0  0  0
 52 53  1  0  0  0  0
 53 54  1  0  0  0  0
M  END
>  <MODEL>
9

>  <REMARK>
 VINA RESULT:      -5.6      3.173      9.540
  Name = 
  18 active torsions:
  status: ('A' for Active; 'I' for Inactive)
    1  A    between atoms: C_1  and  C_54
    2  A    between atoms: C_4  and  O_34
    3  A    between atoms: C_6  and  C_14
    4  A    between atoms: N_7  and  C_12
    5  A    between atoms: C_10  and  C_14
    6  A    between atoms: C_10  and  C_24
    7  A    between atoms: C_11  and  C_14
    8  A    between atoms: C_12  and  C_41
    9  A    between atoms: C_13  and  C_24
   10  A    between atoms: C_16  and  C_25
   11  A    between atoms: C_17  and  C_19
   12  A    between atoms: C_20  and  C_26
   13  A    between atoms: C_24  and  C_46
   14  A    between atoms: C_25  and  C_45
   15  A    between atoms: C_25  and  C_54
   16  A    between atoms: O_34  and  C_43
   17  A    between atoms: C_41  and  C_51
   18  A    between atoms: C_46  and  C_51
                            x       y       z     vdW  Elec       q    Type
                         _______ _______ _______ _____ _____    ______ ____

>  <TORSDO>
F 18

$$$$
