=
 OpenBabel11062420073D

 35 38  0  0  1  0  0  0  0  0999 V2000
  189.0370  177.9350  145.5510 O   0  0  0  0  0  0  0  0  0  0  0  0
  188.3090  173.4290  140.5890 C   0  0  2  0  0  3  0  0  0  0  0  0
  193.3440  171.7760  144.7580 C   0  0  0  0  0  2  0  0  0  0  0  0
  190.1030  170.9080  141.9930 F   0  0  0  0  0  0  0  0  0  0  0  0
  188.1100  177.1060  145.7650 C   0  0  0  0  0  0  0  0  0  0  0  0
  193.6620  173.2170  145.1430 C   0  0  2  0  0  3  0  0  0  0  0  0
  186.6410  177.4720  143.7800 C   0  0  0  0  0  0  0  0  0  0  0  0
  187.3630  174.5500  142.6150 C   0  0  0  0  0  2  0  0  0  0  0  0
  188.6340  174.1210  141.8980 C   0  0  1  0  0  3  0  0  0  0  0  0
  189.3510  173.0590  142.6730 C   0  0  1  0  0  3  0  0  0  0  0  0
  186.7200  177.3760  145.2810 C   0  0  2  0  0  3  0  0  0  0  0  0
  186.8790  175.7960  142.0470 N   0  0  0  0  0  2  0  0  0  0  0  0
  191.8010  174.3790  145.9360 C   0  0  0  0  0  2  0  0  0  0  0  0
  191.7540  173.2410  143.8060 C   0  0  2  0  0  3  0  0  0  0  0  0
  188.3750  175.8860  146.4610 N   0  0  0  0  0  2  0  0  0  0  0  0
  189.7810  174.4570  144.5750 N   0  0  0  0  0  0  0  0  0  0  0  0
  191.9350  171.8030  144.2290 C   0  0  0  0  0  2  0  0  0  0  0  0
  191.1870  172.7060  141.1510 F   0  0  0  0  0  0  0  0  0  0  0  0
  190.5570  175.1670  145.5680 C   0  0  1  0  0  3  0  0  0  0  0  0
  189.0760  172.2500  140.4680 O   0  0  0  0  0  0  0  0  0  0  0  0
  192.5550  174.0710  144.7200 N   0  0  2  0  0  0  0  0  0  0  0  0
  189.9590  172.2140  141.5630 C   0  0  0  0  0  0  0  0  0  0  0  0
  185.9590  176.3850  143.0090 C   0  0  0  0  0  2  0  0  0  0  0  0
  188.6020  174.3560  139.4250 C   0  0  0  0  0  1  0  0  0  0  0  0
  187.1290  178.4230  143.1880 O   0  0  0  0  0  0  0  0  0  0  0  0
  190.2900  173.6470  143.7100 C   0  0  0  0  0  0  0  0  0  0  0  0
  189.7170  175.4350  146.8140 C   0  0  0  0  0  2  0  0  0  0  0  0
  186.0340  178.5180  146.0460 C   0  0  0  0  0  3  0  0  0  0  0  0
  184.5790  178.7150  145.6550 C   0  0  0  0  0  1  0  0  0  0  0  0
  186.1480  178.3130  147.5450 C   0  0  0  0  0  1  0  0  0  0  0  0
  194.9490  173.6720  144.4700 C   0  0  0  0  0  2  0  0  0  0  0  0
  195.3720  175.1110  142.6390 C   0  0  0  0  0  1  0  0  0  0  0  0
  194.8110  175.0390  143.9820 N   0  0  0  0  0  0  0  0  0  0  0  0
  195.5340  175.9570  144.8700 C   0  0  0  0  0  2  0  0  0  0  0  0
  194.6260  176.9460  145.6020 C   0  0  0  0  0  1  0  0  0  0  0  0
  1  5  2  0  0  0  0
  2 24  1  6  0  0  0
  2  9  1  0  0  0  0
  3  6  1  0  0  0  0
  5 15  1  0  0  0  0
  6 31  1  6  0  0  0
  7 11  1  0  0  0  0
  9  8  1  1  0  0  0
  9 10  1  0  0  0  0
 10 26  1  1  0  0  0
 11  5  1  0  0  0  0
 11 28  1  1  0  0  0
 12  8  1  0  0  0  0
 12 23  1  0  0  0  0
 14 17  1  1  0  0  0
 14 21  1  0  0  0  0
 15 27  1  0  0  0  0
 16 19  1  0  0  0  0
 17  3  1  0  0  0  0
 18 22  1  0  0  0  0
 19 13  1  1  0  0  0
 19 27  1  0  0  0  0
 20  2  1  0  0  0  0
 20 22  1  0  0  0  0
 21  6  1  0  0  0  0
 21 13  1  1  0  0  0
 22  4  1  0  0  0  0
 22 10  1  0  0  0  0
 23  7  1  0  0  0  0
 25  7  2  0  0  0  0
 26 14  1  0  0  0  0
 26 16  2  0  0  0  0
 28 30  1  0  0  0  0
 29 28  1  0  0  0  0
 32 33  1  0  0  0  0
 33 31  1  0  0  0  0
 33 34  1  0  0  0  0
 34 35  1  0  0  0  0
M  END
>  <MODEL>
1

>  <REMARK>
 VINA RESULT:      -7.7      0.000      0.000
  Name = 
  4 active torsions:
  status: ('A' for Active; 'I' for Inactive)
    1  A    between atoms: C_4  and  N_20
    2  A    between atoms: C_7  and  C_14
    3  A    between atoms: C_8  and  C_26
    4  A    between atoms: N_20  and  C_26
                            x       y       z     vdW  Elec       q    Type
                         _______ _______ _______ _____ _____    ______ ____

>  <TORSDO>
F 4

$$$$
=
 OpenBabel11062420073D

 35 38  0  0  1  0  0  0  0  0999 V2000
  185.9850  175.4560  143.1640 O   0  0  0  0  0  0  0  0  0  0  0  0
  191.6130  176.3440  146.7690 C   0  0  2  0  0  3  0  0  0  0  0  0
  192.8550  173.2720  140.8960 C   0  0  0  0  0  2  0  0  0  0  0  0
  193.8470  175.8430  144.2590 F   0  0  0  0  0  0  0  0  0  0  0  0
  186.4600  176.6210  143.0650 C   0  0  0  0  0  0  0  0  0  0  0  0
  191.4810  172.6170  140.8080 C   0  0  2  0  0  3  0  0  0  0  0  0
  186.4630  177.3660  145.4480 C   0  0  0  0  0  0  0  0  0  0  0  0
  189.6900  177.3490  145.5250 C   0  0  0  0  0  2  0  0  0  0  0  0
  190.6120  176.1450  145.6480 C   0  0  1  0  0  3  0  0  0  0  0  0
  191.4830  176.0140  144.4370 C   0  0  1  0  0  3  0  0  0  0  0  0
  186.0620  177.6910  144.0320 C   0  0  2  0  0  3  0  0  0  0  0  0
  188.6340  177.2580  146.5180 N   0  0  0  0  0  2  0  0  0  0  0  0
  189.7290  174.1470  140.9970 C   0  0  0  0  0  2  0  0  0  0  0  0
  191.4780  174.0320  142.6590 C   0  0  2  0  0  3  0  0  0  0  0  0
  187.3990  176.9350  142.0350 N   0  0  0  0  0  2  0  0  0  0  0  0
  189.6600  175.6410  142.9210 N   0  0  0  0  0  0  0  0  0  0  0  0
  192.6900  174.4260  141.8490 C   0  0  0  0  0  2  0  0  0  0  0  0
  192.7360  174.0730  145.1230 F   0  0  0  0  0  0  0  0  0  0  0  0
  188.8510  174.9470  141.9430 C   0  0  1  0  0  3  0  0  0  0  0  0
  192.9050  175.9860  146.3250 O   0  0  0  0  0  0  0  0  0  0  0  0
  190.5930  173.2570  141.7750 N   0  0  2  0  0  0  0  0  0  0  0  0
  192.7670  175.4560  145.0290 C   0  0  0  0  0  0  0  0  0  0  0  0
  187.5620  178.1480  146.0970 C   0  0  0  0  0  2  0  0  0  0  0  0
  191.2260  175.4970  147.9660 C   0  0  0  0  0  1  0  0  0  0  0  0
  185.9050  176.4730  146.0670 O   0  0  0  0  0  0  0  0  0  0  0  0
  190.8080  175.2210  143.3330 C   0  0  0  0  0  0  0  0  0  0  0  0
  187.9960  175.9350  141.1560 C   0  0  0  0  0  2  0  0  0  0  0  0
  184.6050  178.1430  143.8540 C   0  0  0  0  0  3  0  0  0  0  0  0
  184.2820  179.4350  144.5870 C   0  0  0  0  0  1  0  0  0  0  0  0
  184.2530  178.2760  142.3840 C   0  0  0  0  0  1  0  0  0  0  0  0
  191.5840  171.1290  141.1110 C   0  0  0  0  0  2  0  0  0  0  0  0
  190.9680  168.9770  140.3440 C   0  0  0  0  0  1  0  0  0  0  0  0
  190.5910  170.3850  140.3460 N   0  0  0  0  0  0  0  0  0  0  0  0
  190.5480  170.8870  138.9680 C   0  0  0  0  0  2  0  0  0  0  0  0
  189.7260  170.0110  138.0210 C   0  0  0  0  0  1  0  0  0  0  0  0
  2 24  1  1  0  0  0
  3 17  1  0  0  0  0
  4 22  1  0  0  0  0
  5  1  2  0  0  0  0
  5 11  1  0  0  0  0
  6  3  1  0  0  0  0
  6 31  1  1  0  0  0
  6 21  1  0  0  0  0
  7 25  2  0  0  0  0
  7 23  1  0  0  0  0
  8 12  1  0  0  0  0
  9  8  1  6  0  0  0
  9  2  1  0  0  0  0
 10 26  1  6  0  0  0
 10 22  1  0  0  0  0
 10  9  1  0  0  0  0
 11 28  1  1  0  0  0
 11  7  1  0  0  0  0
 14 17  1  6  0  0  0
 14 26  1  0  0  0  0
 15  5  1  0  0  0  0
 16 26  2  0  0  0  0
 19 13  1  6  0  0  0
 19 16  1  0  0  0  0
 20  2  1  0  0  0  0
 21 13  1  6  0  0  0
 21 14  1  0  0  0  0
 22 18  1  0  0  0  0
 22 20  1  0  0  0  0
 23 12  1  0  0  0  0
 27 19  1  0  0  0  0
 27 15  1  0  0  0  0
 28 29  1  0  0  0  0
 30 28  1  0  0  0  0
 32 33  1  0  0  0  0
 33 31  1  0  0  0  0
 34 33  1  0  0  0  0
 35 34  1  0  0  0  0
M  END
>  <MODEL>
2

>  <REMARK>
 VINA RESULT:      -7.3      2.654      5.405
  Name = 
  4 active torsions:
  status: ('A' for Active; 'I' for Inactive)
    1  A    between atoms: C_4  and  N_20
    2  A    between atoms: C_7  and  C_14
    3  A    between atoms: C_8  and  C_26
    4  A    between atoms: N_20  and  C_26
                            x       y       z     vdW  Elec       q    Type
                         _______ _______ _______ _____ _____    ______ ____

>  <TORSDO>
F 4

$$$$
=
 OpenBabel11062420073D

 35 38  0  0  1  0  0  0  0  0999 V2000
  193.9300  174.9100  146.2050 O   0  0  0  0  0  0  0  0  0  0  0  0
  190.3510  172.2350  141.1570 C   0  0  2  0  0  3  0  0  0  0  0  0
  187.3710  177.7170  143.7120 C   0  0  0  0  0  2  0  0  0  0  0  0
  188.3590  174.9160  140.5360 F   0  0  0  0  0  0  0  0  0  0  0  0
  194.3590  175.2370  145.0640 C   0  0  0  0  0  0  0  0  0  0  0  0
  187.9500  177.5300  145.1100 C   0  0  2  0  0  3  0  0  0  0  0  0
  194.8560  173.0070  144.0580 C   0  0  0  0  0  0  0  0  0  0  0  0
  192.4510  173.3490  141.9320 C   0  0  0  0  0  2  0  0  0  0  0  0
  190.9600  173.1760  142.1770 C   0  0  1  0  0  3  0  0  0  0  0  0
  190.2270  174.4580  141.9340 C   0  0  1  0  0  3  0  0  0  0  0  0
  195.3720  174.3900  144.3600 C   0  0  2  0  0  3  0  0  0  0  0  0
  193.1740  172.2240  142.5010 N   0  0  0  0  0  2  0  0  0  0  0  0
  190.2760  177.3360  145.1130 C   0  0  0  0  0  2  0  0  0  0  0  0
  188.9010  175.9170  143.7230 C   0  0  2  0  0  3  0  0  0  0  0  0
  193.8740  176.4150  144.4170 N   0  0  0  0  0  2  0  0  0  0  0  0
  191.3290  175.6540  143.6990 N   0  0  0  0  0  0  0  0  0  0  0  0
  188.2670  176.9260  142.7970 C   0  0  0  0  0  2  0  0  0  0  0  0
  187.9960  173.6690  142.3880 F   0  0  0  0  0  0  0  0  0  0  0  0
  191.4630  176.4090  144.9260 C   0  0  1  0  0  3  0  0  0  0  0  0
  189.1530  172.7860  140.6530 O   0  0  0  0  0  0  0  0  0  0  0  0
  189.0380  176.5580  145.0410 N   0  0  2  0  0  0  0  0  0  0  0  0
  188.9000  173.9640  141.3800 C   0  0  0  0  0  0  0  0  0  0  0  0
  194.5660  172.6250  142.6400 C   0  0  0  0  0  2  0  0  0  0  0  0
  190.0700  170.8880  141.7950 C   0  0  0  0  0  1  0  0  0  0  0  0
  194.6700  172.1990  144.9550 O   0  0  0  0  0  0  0  0  0  0  0  0
  190.1960  175.3390  143.1690 C   0  0  0  0  0  0  0  0  0  0  0  0
  192.7600  177.2110  144.9230 C   0  0  0  0  0  2  0  0  0  0  0  0
  196.7560  174.4390  145.0250 C   0  0  0  0  0  3  0  0  0  0  0  0
  196.9260  173.4180  146.1380 C   0  0  0  0  0  1  0  0  0  0  0  0
  197.8590  174.2760  143.9960 C   0  0  0  0  0  1  0  0  0  0  0  0
  186.8750  177.0330  146.0660 C   0  0  0  0  0  2  0  0  0  0  0  0
  186.3160  178.2560  148.0130 C   0  0  0  0  0  1  0  0  0  0  0  0
  186.0920  178.1520  146.5760 N   0  0  0  0  0  0  0  0  0  0  0  0
  184.6680  177.9210  146.3130 C   0  0  0  0  0  2  0  0  0  0  0  0
  184.0670  178.8880  145.2930 C   0  0  0  0  0  1  0  0  0  0  0  0
  2 24  1  1  0  0  0
  2  9  1  0  0  0  0
  3  6  1  0  0  0  0
  4 22  1  0  0  0  0
  5  1  2  0  0  0  0
  6 31  1  1  0  0  0
  7 11  1  0  0  0  0
  7 25  2  0  0  0  0
  8 12  1  0  0  0  0
  9  8  1  6  0  0  0
 10  9  1  0  0  0  0
 10 26  1  1  0  0  0
 11 28  1  1  0  0  0
 11  5  1  0  0  0  0
 12 23  1  0  0  0  0
 14 17  1  6  0  0  0
 14 21  1  0  0  0  0
 15 27  1  0  0  0  0
 15  5  1  0  0  0  0
 16 19  1  0  0  0  0
 17  3  1  0  0  0  0
 19 27  1  6  0  0  0
 19 13  1  0  0  0  0
 20  2  1  0  0  0  0
 20 22  1  0  0  0  0
 21  6  1  0  0  0  0
 21 13  1  6  0  0  0
 22 10  1  0  0  0  0
 22 18  1  0  0  0  0
 23  7  1  0  0  0  0
 26 16  2  0  0  0  0
 26 14  1  0  0  0  0
 28 29  1  0  0  0  0
 30 28  1  0  0  0  0
 31 33  1  0  0  0  0
 33 32  1  0  0  0  0
 34 33  1  0  0  0  0
 35 34  1  0  0  0  0
M  END
>  <MODEL>
3

>  <REMARK>
 VINA RESULT:      -7.2      2.432      7.315
  Name = 
  4 active torsions:
  status: ('A' for Active; 'I' for Inactive)
    1  A    between atoms: C_4  and  N_20
    2  A    between atoms: C_7  and  C_14
    3  A    between atoms: C_8  and  C_26
    4  A    between atoms: N_20  and  C_26
                            x       y       z     vdW  Elec       q    Type
                         _______ _______ _______ _____ _____    ______ ____

>  <TORSDO>
F 4

$$$$
=
 OpenBabel11062420073D

 35 38  0  0  1  0  0  0  0  0999 V2000
  189.3340  177.9200  145.4260 O   0  0  0  0  0  0  0  0  0  0  0  0
  189.6390  172.9440  140.8880 C   0  0  2  0  0  3  0  0  0  0  0  0
  194.6120  172.5120  145.4210 C   0  0  0  0  0  2  0  0  0  0  0  0
  191.7250  170.8850  142.6070 F   0  0  0  0  0  0  0  0  0  0  0  0
  188.5410  176.9720  145.6760 C   0  0  0  0  0  0  0  0  0  0  0  0
  194.6710  174.0140  145.6810 C   0  0  2  0  0  3  0  0  0  0  0  0
  187.1550  176.9170  143.6000 C   0  0  0  0  0  0  0  0  0  0  0  0
  188.4050  174.0640  142.7530 C   0  0  0  0  0  2  0  0  0  0  0  0
  189.7700  173.7900  142.1380 C   0  0  1  0  0  3  0  0  0  0  0  0
  190.5990  172.9330  143.0430 C   0  0  1  0  0  3  0  0  0  0  0  0
  187.1570  176.9650  145.1050 C   0  0  2  0  0  3  0  0  0  0  0  0
  187.7630  175.1590  142.0470 N   0  0  0  0  0  2  0  0  0  0  0  0
  192.6030  174.9170  146.2740 C   0  0  0  0  0  2  0  0  0  0  0  0
  192.8680  173.6060  144.2620 C   0  0  2  0  0  3  0  0  0  0  0  0
  188.9550  175.8770  146.4960 N   0  0  0  0  0  2  0  0  0  0  0  0
  190.6830  174.5430  144.8210 N   0  0  0  0  0  0  0  0  0  0  0  0
  193.2510  172.2600  144.8280 C   0  0  0  0  0  2  0  0  0  0  0  0
  192.5570  172.7570  141.6480 F   0  0  0  0  0  0  0  0  0  0  0  0
  191.2740  175.4540  145.7760 C   0  0  1  0  0  3  0  0  0  0  0  0
  190.5910  171.9010  140.9160 O   0  0  0  0  0  0  0  0  0  0  0  0
  193.4690  174.6330  145.1290 N   0  0  2  0  0  0  0  0  0  0  0  0
  191.4000  172.1070  142.0480 C   0  0  0  0  0  0  0  0  0  0  0  0
  186.7040  175.6700  142.9060 C   0  0  0  0  0  2  0  0  0  0  0  0
  189.8500  173.8020  139.6560 C   0  0  0  0  0  1  0  0  0  0  0  0
  187.5190  177.8800  142.9420 O   0  0  0  0  0  0  0  0  0  0  0  0
  191.3670  173.7550  144.0620 C   0  0  0  0  0  0  0  0  0  0  0  0
  190.3280  175.6860  146.9510 C   0  0  0  0  0  2  0  0  0  0  0  0
  186.2520  178.0410  145.7250 C   0  0  0  0  0  3  0  0  0  0  0  0
  184.8140  177.9700  145.2380 C   0  0  0  0  0  1  0  0  0  0  0  0
  186.2930  177.9770  147.2410 C   0  0  0  0  0  1  0  0  0  0  0  0
  195.9070  174.6150  145.0270 C   0  0  0  0  0  2  0  0  0  0  0  0
  197.9220  173.5380  144.4090 C   0  0  0  0  0  1  0  0  0  0  0  0
  196.5040  173.6630  144.0980 N   0  0  0  0  0  0  0  0  0  0  0  0
  196.3410  174.1440  142.7220 C   0  0  0  0  0  2  0  0  0  0  0  0
  195.8660  173.0670  141.7460 C   0  0  0  0  0  1  0  0  0  0  0  0
  1  5  2  0  0  0  0
  2 24  1  6  0  0  0
  2 20  1  0  0  0  0
  2  9  1  0  0  0  0
  3  6  1  0  0  0  0
  5 15  1  0  0  0  0
  6 31  1  6  0  0  0
  7 11  1  0  0  0  0
  9  8  1  1  0  0  0
  9 10  1  0  0  0  0
 10 26  1  1  0  0  0
 11  5  1  0  0  0  0
 11 28  1  6  0  0  0
 12  8  1  0  0  0  0
 12 23  1  0  0  0  0
 14 17  1  1  0  0  0
 14 21  1  0  0  0  0
 15 27  1  0  0  0  0
 16 19  1  0  0  0  0
 17  3  1  0  0  0  0
 18 22  1  0  0  0  0
 19 13  1  1  0  0  0
 19 27  1  0  0  0  0
 20 22  1  0  0  0  0
 21  6  1  0  0  0  0
 21 13  1  1  0  0  0
 22  4  1  0  0  0  0
 22 10  1  0  0  0  0
 23  7  1  0  0  0  0
 25  7  2  0  0  0  0
 26 14  1  0  0  0  0
 26 16  2  0  0  0  0
 28 30  1  0  0  0  0
 29 28  1  0  0  0  0
 33 32  1  0  0  0  0
 33 31  1  0  0  0  0
 34 33  1  0  0  0  0
 35 34  1  0  0  0  0
M  END
>  <MODEL>
4

>  <REMARK>
 VINA RESULT:      -7.2      1.244      1.669
  Name = 
  4 active torsions:
  status: ('A' for Active; 'I' for Inactive)
    1  A    between atoms: C_4  and  N_20
    2  A    between atoms: C_7  and  C_14
    3  A    between atoms: C_8  and  C_26
    4  A    between atoms: N_20  and  C_26
                            x       y       z     vdW  Elec       q    Type
                         _______ _______ _______ _____ _____    ______ ____

>  <TORSDO>
F 4

$$$$
=
 OpenBabel11062420073D

 35 38  0  0  1  0  0  0  0  0999 V2000
  190.4330  173.7850  140.0910 O   0  0  0  0  0  0  0  0  0  0  0  0
  193.0460  175.1230  146.1590 C   0  0  2  0  0  3  0  0  0  0  0  0
  186.5660  176.9460  145.7620 C   0  0  0  0  0  2  0  0  0  0  0  0
  190.1200  175.5400  147.8350 F   0  0  0  0  0  0  0  0  0  0  0  0
  190.4730  172.7750  140.8470 C   0  0  0  0  0  0  0  0  0  0  0  0
  186.6070  177.2170  144.2620 C   0  0  2  0  0  3  0  0  0  0  0  0
  192.9130  172.6290  141.3560 C   0  0  0  0  0  0  0  0  0  0  0  0
  192.3920  173.4290  144.4390 C   0  0  0  0  0  2  0  0  0  0  0  0
  192.1100  174.8120  145.0080 C   0  0  1  0  0  3  0  0  0  0  0  0
  190.7580  174.8590  145.6490 C   0  0  1  0  0  3  0  0  0  0  0  0
  191.6850  171.8980  140.8810 C   0  0  2  0  0  3  0  0  0  0  0  0
  193.5260  173.4950  143.5330 N   0  0  0  0  0  2  0  0  0  0  0  0
  187.4050  175.4020  143.0300 C   0  0  0  0  0  2  0  0  0  0  0  0
  188.6640  176.3130  144.8800 C   0  0  2  0  0  3  0  0  0  0  0  0
  189.3680  172.4620  141.6970 N   0  0  0  0  0  2  0  0  0  0  0  0
  189.5590  174.4260  143.6150 N   0  0  0  0  0  0  0  0  0  0  0  0
  187.7370  176.0410  146.0390 C   0  0  0  0  0  2  0  0  0  0  0  0
  190.8170  177.1470  146.4040 F   0  0  0  0  0  0  0  0  0  0  0  0
  188.6310  174.6600  142.5310 C   0  0  1  0  0  3  0  0  0  0  0  0
  192.3130  175.6640  147.2380 O   0  0  0  0  0  0  0  0  0  0  0  0
  187.8250  176.6280  143.7120 N   0  0  2  0  0  0  0  0  0  0  0  0
  190.9860  175.8290  146.7980 C   0  0  0  0  0  0  0  0  0  0  0  0
  193.4880  172.3030  142.6990 C   0  0  0  0  0  2  0  0  0  0  0  0
  194.1080  176.1090  145.7130 C   0  0  0  0  0  1  0  0  0  0  0  0
  193.4400  173.4830  140.6600 O   0  0  0  0  0  0  0  0  0  0  0  0
  189.6650  175.1900  144.6490 C   0  0  0  0  0  0  0  0  0  0  0  0
  188.2190  173.3420  141.8830 C   0  0  0  0  0  2  0  0  0  0  0  0
  191.8670  171.0840  139.5910 C   0  0  0  0  0  3  0  0  0  0  0  0
  193.0480  170.1280  139.6440 C   0  0  0  0  0  1  0  0  0  0  0  0
  190.6000  170.3260  139.2430 C   0  0  0  0  0  1  0  0  0  0  0  0
  186.5940  178.7150  143.9950 C   0  0  0  0  0  2  0  0  0  0  0  0
  184.3860  179.4160  144.4770 C   0  0  0  0  0  1  0  0  0  0  0  0
  185.3230  179.1150  143.4030 N   0  0  0  0  0  0  0  0  0  0  0  0
  184.7960  178.0220  142.5780 C   0  0  0  0  0  2  0  0  0  0  0  0
  184.8830  178.2910  141.0750 C   0  0  0  0  0  1  0  0  0  0  0  0
  1  5  2  0  0  0  0
  2 24  1  6  0  0  0
  2 20  1  0  0  0  0
  3 17  1  0  0  0  0
  5 11  1  0  0  0  0
  5 15  1  0  0  0  0
  6 31  1  1  0  0  0
  6  3  1  0  0  0  0
  7 23  1  0  0  0  0
  9  8  1  1  0  0  0
  9 10  1  0  0  0  0
  9  2  1  0  0  0  0
 10 26  1  6  0  0  0
 10 22  1  0  0  0  0
 11 28  1  6  0  0  0
 11  7  1  0  0  0  0
 12  8  1  0  0  0  0
 14 17  1  1  0  0  0
 15 27  1  0  0  0  0
 16 26  2  0  0  0  0
 18 22  1  0  0  0  0
 19 27  1  1  0  0  0
 19 13  1  0  0  0  0
 19 16  1  0  0  0  0
 21 13  1  1  0  0  0
 21  6  1  0  0  0  0
 21 14  1  0  0  0  0
 22 20  1  0  0  0  0
 22  4  1  0  0  0  0
 23 12  1  0  0  0  0
 25  7  2  0  0  0  0
 26 14  1  0  0  0  0
 28 29  1  0  0  0  0
 30 28  1  0  0  0  0
 33 31  1  0  0  0  0
 33 32  1  0  0  0  0
 34 33  1  0  0  0  0
 35 34  1  0  0  0  0
M  END
>  <MODEL>
5

>  <REMARK>
 VINA RESULT:      -7.2      2.749      7.997
  Name = 
  4 active torsions:
  status: ('A' for Active; 'I' for Inactive)
    1  A    between atoms: C_4  and  N_20
    2  A    between atoms: C_7  and  C_14
    3  A    between atoms: C_8  and  C_26
    4  A    between atoms: N_20  and  C_26
                            x       y       z     vdW  Elec       q    Type
                         _______ _______ _______ _____ _____    ______ ____

>  <TORSDO>
F 4

$$$$
=
 OpenBabel11062420073D

 35 38  0  0  1  0  0  0  0  0999 V2000
  189.9070  177.9880  144.6130 O   0  0  0  0  0  0  0  0  0  0  0  0
  188.6090  173.2550  139.9920 C   0  0  2  0  0  3  0  0  0  0  0  0
  194.4900  172.1710  143.1070 C   0  0  0  0  0  2  0  0  0  0  0  0
  190.8560  170.9410  141.0630 F   0  0  0  0  0  0  0  0  0  0  0  0
  189.1160  177.0960  145.0250 C   0  0  0  0  0  0  0  0  0  0  0  0
  194.7520  173.6460  143.3910 C   0  0  2  0  0  3  0  0  0  0  0  0
  187.2590  177.2670  143.3650 C   0  0  0  0  0  0  0  0  0  0  0  0
  187.9870  174.3710  142.1410 C   0  0  0  0  0  2  0  0  0  0  0  0
  189.1250  174.0190  141.1940 C   0  0  1  0  0  3  0  0  0  0  0  0
  190.0690  173.0490  141.8330 C   0  0  1  0  0  3  0  0  0  0  0  0
  187.6400  177.2340  144.8220 C   0  0  2  0  0  3  0  0  0  0  0  0
  187.2950  175.5520  141.6550 N   0  0  0  0  0  2  0  0  0  0  0  0
  192.9890  174.6840  144.5140 C   0  0  0  0  0  2  0  0  0  0  0  0
  192.6230  173.4660  142.4610 C   0  0  2  0  0  3  0  0  0  0  0  0
  189.6170  175.9290  145.6790 N   0  0  0  0  0  2  0  0  0  0  0  0
  190.7430  174.5480  143.5820 N   0  0  0  0  0  0  0  0  0  0  0  0
  193.0070  172.0640  142.8690 C   0  0  0  0  0  2  0  0  0  0  0  0
  191.5930  172.7870  139.9840 F   0  0  0  0  0  0  0  0  0  0  0  0
  191.6340  175.3550  144.3850 C   0  0  1  0  0  3  0  0  0  0  0  0
  189.4370  172.1370  139.7450 O   0  0  0  0  0  0  0  0  0  0  0  0
  193.5130  174.3920  143.1790 N   0  0  2  0  0  0  0  0  0  0  0  0
  190.5170  172.2140  140.6430 C   0  0  0  0  0  0  0  0  0  0  0  0
  186.5350  176.1010  142.7690 C   0  0  0  0  0  2  0  0  0  0  0  0
  188.5860  174.1570  138.7730 C   0  0  0  0  0  1  0  0  0  0  0  0
  187.5360  178.2310  142.6680 O   0  0  0  0  0  0  0  0  0  0  0  0
  191.1390  173.7490  142.6500 C   0  0  0  0  0  0  0  0  0  0  0  0
  191.0370  175.6010  145.7670 C   0  0  0  0  0  2  0  0  0  0  0  0
  187.0220  178.3460  145.6840 C   0  0  0  0  0  3  0  0  0  0  0  0
  185.6840  178.8410  145.1580 C   0  0  0  0  0  1  0  0  0  0  0  0
  186.8800  177.8990  147.1270 C   0  0  0  0  0  1  0  0  0  0  0  0
  195.8370  174.1780  142.4650 C   0  0  0  0  0  2  0  0  0  0  0  0
  196.7160  174.5940  144.6220 C   0  0  0  0  0  1  0  0  0  0  0  0
  196.8030  174.9690  143.2170 N   0  0  0  0  0  0  0  0  0  0  0  0
  196.4990  176.3970  143.0670 C   0  0  0  0  0  2  0  0  0  0  0  0
  196.0740  176.7880  141.6500 C   0  0  0  0  0  1  0  0  0  0  0  0
  1  5  2  0  0  0  0
  2 24  1  6  0  0  0
  2  9  1  0  0  0  0
  3  6  1  0  0  0  0
  5 15  1  0  0  0  0
  6 31  1  6  0  0  0
  7 11  1  0  0  0  0
  9 10  1  0  0  0  0
  9  8  1  1  0  0  0
 10 26  1  6  0  0  0
 11  5  1  0  0  0  0
 11 28  1  6  0  0  0
 12  8  1  0  0  0  0
 12 23  1  0  0  0  0
 14 26  1  0  0  0  0
 14 17  1  1  0  0  0
 14 21  1  0  0  0  0
 15 27  1  0  0  0  0
 16 19  1  0  0  0  0
 17  3  1  0  0  0  0
 18 22  1  0  0  0  0
 19 13  1  1  0  0  0
 19 27  1  0  0  0  0
 20  2  1  0  0  0  0
 20 22  1  0  0  0  0
 21  6  1  0  0  0  0
 21 13  1  1  0  0  0
 22  4  1  0  0  0  0
 22 10  1  0  0  0  0
 23  7  1  0  0  0  0
 25  7  2  0  0  0  0
 26 16  2  0  0  0  0
 28 30  1  0  0  0  0
 29 28  1  0  0  0  0
 31 33  1  0  0  0  0
 33 32  1  0  0  0  0
 34 33  1  0  0  0  0
 35 34  1  0  0  0  0
M  END
>  <MODEL>
6

>  <REMARK>
 VINA RESULT:      -7.1      1.318      1.589
  Name = 
  4 active torsions:
  status: ('A' for Active; 'I' for Inactive)
    1  A    between atoms: C_4  and  N_20
    2  A    between atoms: C_7  and  C_14
    3  A    between atoms: C_8  and  C_26
    4  A    between atoms: N_20  and  C_26
                            x       y       z     vdW  Elec       q    Type
                         _______ _______ _______ _____ _____    ______ ____

>  <TORSDO>
F 4

$$$$
=
 OpenBabel11062420073D

 35 38  0  0  1  0  0  0  0  0999 V2000
  193.3990  175.7610  144.9960 O   0  0  0  0  0  0  0  0  0  0  0  0
  190.5660  171.5090  140.5980 C   0  0  2  0  0  3  0  0  0  0  0  0
  186.5990  176.8120  141.8700 C   0  0  0  0  0  2  0  0  0  0  0  0
  188.1920  173.6170  139.3880 F   0  0  0  0  0  0  0  0  0  0  0  0
  193.8250  175.9100  143.8170 C   0  0  0  0  0  0  0  0  0  0  0  0
  187.1310  177.0260  143.2830 C   0  0  2  0  0  3  0  0  0  0  0  0
  194.7320  173.6370  143.3220 C   0  0  0  0  0  0  0  0  0  0  0  0
  192.4120  173.1060  141.1420 C   0  0  0  0  0  2  0  0  0  0  0  0
  190.9600  172.7340  141.3990 C   0  0  1  0  0  3  0  0  0  0  0  0
  190.0380  173.7920  140.8750 C   0  0  1  0  0  3  0  0  0  0  0  0
  194.9970  175.1200  143.3260 C   0  0  2  0  0  3  0  0  0  0  0  0
  193.2810  172.2670  141.9490 N   0  0  0  0  0  2  0  0  0  0  0  0
  189.4540  177.2390  143.3580 C   0  0  0  0  0  2  0  0  0  0  0  0
  188.4030  175.3440  142.2900 C   0  0  2  0  0  3  0  0  0  0  0  0
  193.1850  176.8240  142.9250 N   0  0  0  0  0  2  0  0  0  0  0  0
  190.8390  175.5030  142.3550 N   0  0  0  0  0  0  0  0  0  0  0  0
  187.6580  176.0110  141.1590 C   0  0  0  0  0  2  0  0  0  0  0  0
  187.9480  172.7450  141.4600 F   0  0  0  0  0  0  0  0  0  0  0  0
  190.7850  176.5110  143.3910 C   0  0  1  0  0  3  0  0  0  0  0  0
  189.3200  171.7280  139.9710 O   0  0  0  0  0  0  0  0  0  0  0  0
  188.3670  176.2620  143.4400 N   0  0  2  0  0  0  0  0  0  0  0  0
  188.8400  172.9710  140.4240 C   0  0  0  0  0  0  0  0  0  0  0  0
  194.5790  172.9210  142.0170 C   0  0  0  0  0  2  0  0  0  0  0  0
  190.4790  170.2990  141.5090 C   0  0  0  0  0  1  0  0  0  0  0  0
  194.6370  173.0160  144.3710 O   0  0  0  0  0  0  0  0  0  0  0  0
  189.8010  174.8940  141.8900 C   0  0  0  0  0  0  0  0  0  0  0  0
  191.9310  177.5050  143.2320 C   0  0  0  0  0  2  0  0  0  0  0  0
  196.3190  175.5450  143.9820 C   0  0  0  0  0  3  0  0  0  0  0  0
  197.4280  174.5180  143.8220 C   0  0  0  0  0  1  0  0  0  0  0  0
  196.7770  176.8930  143.4570 C   0  0  0  0  0  1  0  0  0  0  0  0
  186.1070  176.5640  144.3090 C   0  0  0  0  0  2  0  0  0  0  0  0
  185.3670  176.8420  146.5400 C   0  0  0  0  0  1  0  0  0  0  0  0
  186.0630  177.4890  145.4360 N   0  0  0  0  0  0  0  0  0  0  0  0
  185.3480  178.7090  145.0480 C   0  0  0  0  0  2  0  0  0  0  0  0
  183.9840  178.8620  145.7230 C   0  0  0  0  0  1  0  0  0  0  0  0
  2  9  1  0  0  0  0
  2 24  1  1  0  0  0
  3  6  1  0  0  0  0
  4 22  1  0  0  0  0
  5  1  2  0  0  0  0
  6 21  1  0  0  0  0
  6 31  1  1  0  0  0
  7 11  1  0  0  0  0
  7 25  2  0  0  0  0
  8 12  1  0  0  0  0
  9  8  1  6  0  0  0
 10  9  1  0  0  0  0
 10 26  1  1  0  0  0
 11  5  1  0  0  0  0
 11 28  1  1  0  0  0
 12 23  1  0  0  0  0
 13 19  1  0  0  0  0
 14 17  1  6  0  0  0
 14 21  1  0  0  0  0
 15 27  1  0  0  0  0
 15  5  1  0  0  0  0
 16 19  1  0  0  0  0
 17  3  1  0  0  0  0
 19 27  1  6  0  0  0
 20 22  1  0  0  0  0
 20  2  1  0  0  0  0
 21 13  1  6  0  0  0
 22 10  1  0  0  0  0
 22 18  1  0  0  0  0
 23  7  1  0  0  0  0
 26 14  1  0  0  0  0
 26 16  2  0  0  0  0
 29 28  1  0  0  0  0
 30 28  1  0  0  0  0
 31 33  1  0  0  0  0
 33 32  1  0  0  0  0
 34 33  1  0  0  0  0
 34 35  1  0  0  0  0
M  END
>  <MODEL>
7

>  <REMARK>
 VINA RESULT:      -6.8      2.582      7.238
  Name = 
  4 active torsions:
  status: ('A' for Active; 'I' for Inactive)
    1  A    between atoms: C_4  and  N_20
    2  A    between atoms: C_7  and  C_14
    3  A    between atoms: C_8  and  C_26
    4  A    between atoms: N_20  and  C_26
                            x       y       z     vdW  Elec       q    Type
                         _______ _______ _______ _____ _____    ______ ____

>  <TORSDO>
F 4

$$$$
=
 OpenBabel11062420073D

 35 38  0  0  1  0  0  0  0  0999 V2000
  186.3560  175.9670  143.6280 O   0  0  0  0  0  0  0  0  0  0  0  0
  192.9060  174.7840  144.6920 C   0  0  2  0  0  3  0  0  0  0  0  0
  190.9820  172.8660  138.5200 C   0  0  0  0  0  2  0  0  0  0  0  0
  193.8280  174.3600  141.4490 F   0  0  0  0  0  0  0  0  0  0  0  0
  187.0760  176.9910  143.4740 C   0  0  0  0  0  0  0  0  0  0  0  0
  189.5440  172.5660  138.9280 C   0  0  2  0  0  3  0  0  0  0  0  0
  188.1620  177.1810  145.7140 C   0  0  0  0  0  0  0  0  0  0  0  0
  191.0420  176.4340  144.4630 C   0  0  0  0  0  2  0  0  0  0  0  0
  191.5560  175.0600  144.0630 C   0  0  1  0  0  3  0  0  0  0  0  0
  191.8480  175.0060  142.5950 C   0  0  1  0  0  3  0  0  0  0  0  0
  187.3850  177.8860  144.6330 C   0  0  2  0  0  3  0  0  0  0  0  0
  190.4420  176.3660  145.7850 N   0  0  0  0  0  2  0  0  0  0  0  0
  188.5040  174.3670  139.9880 C   0  0  0  0  0  2  0  0  0  0  0  0
  190.6240  173.5090  140.7650 C   0  0  2  0  0  3  0  0  0  0  0  0
  187.6240  177.3070  142.1930 N   0  0  0  0  0  2  0  0  0  0  0  0
  189.5740  175.3840  141.9260 N   0  0  0  0  0  0  0  0  0  0  0  0
  191.5160  173.7920  139.5810 C   0  0  0  0  0  2  0  0  0  0  0  0
  192.6460  172.7350  142.4870 F   0  0  0  0  0  0  0  0  0  0  0  0
  188.3020  175.1150  141.2920 C   0  0  1  0  0  3  0  0  0  0  0  0
  193.7860  174.2540  143.7220 O   0  0  0  0  0  0  0  0  0  0  0  0
  189.2940  173.1610  140.2390 N   0  0  2  0  0  0  0  0  0  0  0  0
  193.0390  174.0620  142.5450 C   0  0  0  0  0  0  0  0  0  0  0  0
  189.5970  177.5410  145.9410 C   0  0  0  0  0  2  0  0  0  0  0  0
  192.7550  173.8040  145.8390 C   0  0  0  0  0  1  0  0  0  0  0  0
  187.6350  176.3200  146.4030 O   0  0  0  0  0  0  0  0  0  0  0  0
  190.6190  174.6420  141.7830 C   0  0  0  0  0  0  0  0  0  0  0  0
  187.5440  176.4150  141.0400 C   0  0  0  0  0  2  0  0  0  0  0  0
  186.1610  178.6770  145.1180 C   0  0  0  0  0  3  0  0  0  0  0  0
  185.5660  179.5800  144.0500 C   0  0  0  0  0  1  0  0  0  0  0  0
  185.0950  177.7460  145.6660 C   0  0  0  0  0  1  0  0  0  0  0  0
  189.3160  171.0630  138.9940 C   0  0  0  0  0  2  0  0  0  0  0  0
  190.4660  169.2630  137.9750 C   0  0  0  0  0  1  0  0  0  0  0  0
  190.5880  170.3530  138.9350 N   0  0  0  0  0  0  0  0  0  0  0  0
  190.9150  169.8110  140.2580 C   0  0  0  0  0  2  0  0  0  0  0  0
  192.3860  169.9750  140.6430 C   0  0  0  0  0  1  0  0  0  0  0  0
  2 24  1  1  0  0  0
  3  6  1  0  0  0  0
  3 17  1  0  0  0  0
  4 22  1  0  0  0  0
  5  1  2  0  0  0  0
  5 11  1  0  0  0  0
  6 31  1  1  0  0  0
  6 21  1  0  0  0  0
  7 23  1  0  0  0  0
  7 25  2  0  0  0  0
  8 12  1  0  0  0  0
  9  8  1  1  0  0  0
  9  2  1  0  0  0  0
 10 26  1  6  0  0  0
 10  9  1  0  0  0  0
 11 28  1  1  0  0  0
 11  7  1  0  0  0  0
 12 23  1  0  0  0  0
 14 17  1  6  0  0  0
 14 26  1  0  0  0  0
 15  5  1  0  0  0  0
 18 22  1  0  0  0  0
 19 13  1  6  0  0  0
 19 16  1  0  0  0  0
 20  2  1  0  0  0  0
 21 13  1  6  0  0  0
 21 14  1  0  0  0  0
 22 10  1  0  0  0  0
 22 20  1  0  0  0  0
 26 16  2  0  0  0  0
 27 19  1  0  0  0  0
 27 15  1  0  0  0  0
 28 30  1  0  0  0  0
 29 28  1  0  0  0  0
 32 33  1  0  0  0  0
 33 31  1  0  0  0  0
 33 34  1  0  0  0  0
 34 35  1  0  0  0  0
M  END
>  <MODEL>
8

>  <REMARK>
 VINA RESULT:      -6.7      2.724      5.376
  Name = 
  4 active torsions:
  status: ('A' for Active; 'I' for Inactive)
    1  A    between atoms: C_4  and  N_20
    2  A    between atoms: C_7  and  C_14
    3  A    between atoms: C_8  and  C_26
    4  A    between atoms: N_20  and  C_26
                            x       y       z     vdW  Elec       q    Type
                         _______ _______ _______ _____ _____    ______ ____

>  <TORSDO>
F 4

$$$$
=
 OpenBabel11062420073D

 35 38  0  0  1  0  0  0  0  0999 V2000
  189.6710  173.7910  139.2000 O   0  0  0  0  0  0  0  0  0  0  0  0
  194.5190  174.9980  143.7260 C   0  0  2  0  0  3  0  0  0  0  0  0
  188.3770  176.1240  146.2700 C   0  0  0  0  0  2  0  0  0  0  0  0
  192.5650  174.9800  146.5050 F   0  0  0  0  0  0  0  0  0  0  0  0
  190.1010  172.7430  139.7570 C   0  0  0  0  0  0  0  0  0  0  0  0
  187.7560  176.4970  144.9290 C   0  0  2  0  0  3  0  0  0  0  0  0
  192.5290  172.8300  139.1810 C   0  0  0  0  0  0  0  0  0  0  0  0
  193.3170  173.3610  142.2660 C   0  0  0  0  0  2  0  0  0  0  0  0
  193.2070  174.6640  143.0450 C   0  0  1  0  0  3  0  0  0  0  0  0
  192.2570  174.5200  144.1930 C   0  0  1  0  0  3  0  0  0  0  0  0
  191.2700  172.0030  139.1880 C   0  0  2  0  0  3  0  0  0  0  0  0
  193.9490  173.6120  140.9820 N   0  0  0  0  0  2  0  0  0  0  0  0
  188.0790  174.8670  143.2900 C   0  0  0  0  0  2  0  0  0  0  0  0
  189.9390  175.7850  144.5300 C   0  0  2  0  0  3  0  0  0  0  0  0
  189.4890  172.2550  140.9520 N   0  0  0  0  0  2  0  0  0  0  0  0
  190.3400  174.0950  142.8130 N   0  0  0  0  0  0  0  0  0  0  0  0
  189.6160  175.3360  145.9340 C   0  0  0  0  0  2  0  0  0  0  0  0
  192.4710  176.7450  145.0950 F   0  0  0  0  0  0  0  0  0  0  0  0
  189.0240  174.2990  142.2480 C   0  0  1  0  0  3  0  0  0  0  0  0
  194.2800  175.3820  145.0630 O   0  0  0  0  0  0  0  0  0  0  0  0
  188.6620  176.0830  143.8600 N   0  0  2  0  0  0  0  0  0  0  0  0
  192.8840  175.4300  145.2380 C   0  0  0  0  0  0  0  0  0  0  0  0
  193.6430  172.4810  140.1180 C   0  0  0  0  0  2  0  0  0  0  0  0
  195.2180  176.1210  142.9840 C   0  0  0  0  0  1  0  0  0  0  0  0
  192.6480  173.7820  138.4240 O   0  0  0  0  0  0  0  0  0  0  0  0
  190.8220  174.7950  143.7830 C   0  0  0  0  0  0  0  0  0  0  0  0
  188.4700  172.9900  141.6940 C   0  0  0  0  0  2  0  0  0  0  0  0
  190.9430  171.3020  137.8610 C   0  0  0  0  0  3  0  0  0  0  0  0
  192.1120  170.5160  137.2910 C   0  0  0  0  0  1  0  0  0  0  0  0
  189.7310  170.4010  138.0070 C   0  0  0  0  0  1  0  0  0  0  0  0
  187.5250  178.0000  144.8540 C   0  0  0  0  0  2  0  0  0  0  0  0
  185.9410  179.2770  143.6450 C   0  0  0  0  0  1  0  0  0  0  0  0
  186.1030  178.2880  144.7030 N   0  0  0  0  0  0  0  0  0  0  0  0
  185.5700  178.8190  145.9620 C   0  0  0  0  0  2  0  0  0  0  0  0
  184.0540  178.6690  146.0980 C   0  0  0  0  0  1  0  0  0  0  0  0
  1  5  2  0  0  0  0
  2 24  1  6  0  0  0
  2 20  1  0  0  0  0
  5 15  1  0  0  0  0
  6 31  1  1  0  0  0
  6  3  1  0  0  0  0
  7 11  1  0  0  0  0
  7 23  1  0  0  0  0
  9  8  1  1  0  0  0
  9  2  1  0  0  0  0
  9 10  1  0  0  0  0
 10 26  1  6  0  0  0
 10 22  1  0  0  0  0
 11 28  1  6  0  0  0
 11  5  1  0  0  0  0
 12  8  1  0  0  0  0
 14 17  1  1  0  0  0
 15 27  1  0  0  0  0
 16 26  2  0  0  0  0
 17  3  1  0  0  0  0
 18 22  1  0  0  0  0
 19 27  1  1  0  0  0
 19 16  1  0  0  0  0
 19 13  1  0  0  0  0
 20 22  1  0  0  0  0
 21 13  1  1  0  0  0
 21 14  1  0  0  0  0
 21  6  1  0  0  0  0
 22  4  1  0  0  0  0
 23 12  1  0  0  0  0
 25  7  2  0  0  0  0
 26 14  1  0  0  0  0
 28 30  1  0  0  0  0
 29 28  1  0  0  0  0
 32 33  1  0  0  0  0
 33 31  1  0  0  0  0
 33 34  1  0  0  0  0
 34 35  1  0  0  0  0
M  END
>  <MODEL>
9

>  <REMARK>
 VINA RESULT:      -6.7      2.967      7.747
  Name = 
  4 active torsions:
  status: ('A' for Active; 'I' for Inactive)
    1  A    between atoms: C_4  and  N_20
    2  A    between atoms: C_7  and  C_14
    3  A    between atoms: C_8  and  C_26
    4  A    between atoms: N_20  and  C_26
                            x       y       z     vdW  Elec       q    Type
                         _______ _______ _______ _____ _____    ______ ____

>  <TORSDO>
F 4

$$$$
