=
 OpenBabel11072409223D

 39 43  0  0  1  0  0  0  0  0999 V2000
  187.6430  177.5590  143.7120 C   0  0  1  0  0  3  0  0  0  0  0  0
  184.0990  177.8960  142.8380 O   0  0  0  0  0  0  0  0  0  0  0  0
  185.3510  177.9410  142.7080 C   0  0  0  0  0  0  0  0  0  0  0  0
  188.1420  177.4990  145.1870 C   0  0  1  0  0  3  0  0  0  0  0  0
  186.7710  177.4900  147.2110 O   0  0  0  0  0  0  0  0  0  0  0  0
  185.9600  178.2520  141.3850 C   0  0  0  0  0  2  0  0  0  0  0  0
  187.6570  176.3220  141.4310 C   0  0  0  0  0  0  0  0  0  0  0  0
  186.7680  177.1200  140.8150 C   0  0  0  0  0  3  0  0  0  0  0  0
  187.8980  176.2720  142.9240 C   0  0  0  0  0  2  0  0  0  0  0  0
  186.8620  177.5380  145.9560 C   0  0  0  0  0  0  0  0  0  0  0  0
  185.7770  177.6890  145.1250 O   0  0  0  0  0  0  0  0  0  0  0  0
  186.2040  177.7430  143.8270 N   0  0  0  0  0  0  0  0  0  0  0  0
  188.3210  175.3590  140.6070 N   0  0  0  0  0  2  0  0  0  0  0  0
  188.5580  173.6980  141.0530 S   0  0  0  0  0  0  0  0  0  0  0  0
  188.3140  172.8300  139.8510 O   0  0  0  0  0  0  0  0  0  0  0  0
  187.5850  173.3250  142.1350 O   0  0  0  0  0  0  0  0  0  0  0  0
  190.2220  173.4330  141.6270 C   0  0  0  0  0  2  0  0  0  0  0  0
  190.2840  173.6040  143.1380 C   0  0  0  0  0  2  0  0  0  0  0  0
  190.5250  171.2310  142.9150 O   0  0  0  0  0  1  0  0  0  0  0  0
  189.3920  172.0420  144.7240 O   0  0  0  0  0  1  0  0  0  0  0  0
  190.4520  172.2670  143.8460 C   0  0  0  0  0  3  0  0  0  0  0  0
  188.9530  176.2530  145.5390 C   0  0  0  0  0  2  0  0  0  0  0  0
  191.4200  176.2530  145.3290 C   0  0  0  0  0  2  0  0  0  0  0  0
  190.2540  176.6420  146.2180 C   0  0  2  0  0  3  0  0  0  0  0  0
  190.4100  175.8770  147.5230 C   0  0  0  0  0  2  0  0  0  0  0  0
  191.7870  175.2490  147.4970 C   0  0  0  0  0  2  0  0  0  0  0  0
  192.1260  175.1040  146.0330 C   0  0  2  0  0  3  0  0  0  0  0  0
  194.1940  172.0890  143.1760 C   0  0  0  0  0  2  0  0  0  0  0  0
  194.3270  174.0970  141.8860 O   0  0  0  0  0  0  0  0  0  0  0  0
  193.6480  175.0580  145.8120 C   0  0  2  0  0  3  0  0  0  0  0  0
  194.7620  174.3600  144.2380 C   0  0  2  0  0  3  0  0  0  0  0  0
  193.7820  172.4090  145.5870 C   0  0  0  0  0  3  0  0  0  0  0  0
  194.0690  175.6650  144.4920 C   0  0  2  0  0  3  0  0  0  0  0  0
  194.3730  173.5610  143.0230 C   0  0  0  0  0  0  0  0  0  0  0  0
  193.9580  171.5460  144.3920 C   0  0  0  0  0  3  0  0  0  0  0  0
  194.1320  173.6770  145.4200 C   0  0  2  0  0  3  0  0  0  0  0  0
  194.8480  177.7530  145.6440 O   0  0  0  0  0  1  0  0  0  0  0  0
  196.0870  176.8310  143.9540 O   0  0  0  0  0  0  0  0  0  0  0  0
  195.0710  176.7610  144.6940 C   0  0  0  0  0  0  0  0  0  0  0  0
  1  9  1  1  0  0  0
  1 12  1  0  0  0  0
  1  4  1  0  0  0  0
  3  2  2  0  0  0  0
  3 12  1  0  0  0  0
  4 22  1  6  0  0  0
  4 10  1  0  0  0  0
  6  3  1  0  0  0  0
  7  9  1  0  0  0  0
  8  6  1  0  0  0  0
  8  7  2  0  0  0  0
 10  5  2  0  0  0  0
 11 10  1  0  0  0  0
 12 11  1  0  0  0  0
 13 14  1  0  0  0  0
 13  7  1  0  0  0  0
 14 17  1  0  0  0  0
 14 16  2  0  0  0  0
 15 14  2  0  0  0  0
 17 18  1  0  0  0  0
 18 21  1  0  0  0  0
 19 21  1  0  0  0  0
 21 20  1  0  0  0  0
 23 24  1  0  0  0  0
 24 22  1  6  0  0  0
 24 25  1  0  0  0  0
 26 25  1  0  0  0  0
 27 23  1  6  0  0  0
 27 26  1  0  0  0  0
 28 35  1  0  0  0  0
 29 34  2  0  0  0  0
 30 27  1  6  0  0  0
 31 34  1  6  0  0  0
 31 33  1  0  0  0  0
 31 36  1  0  0  0  0
 33 39  1  1  0  0  0
 33 30  1  0  0  0  0
 34 28  1  0  0  0  0
 35 32  2  0  0  0  0
 36 32  1  6  0  0  0
 36 30  1  0  0  0  0
 38 39  2  0  0  0  0
 39 37  1  0  0  0  0
M  END
>  <MODEL>
1

>  <REMARK>
 VINA RESULT:      -7.8      0.000      0.000
  Name = 
  9 active torsions:
  status: ('A' for Active; 'I' for Inactive)
    1  A    between atoms: S_7  and  N_23
    2  A    between atoms: S_7  and  C_31
    3  A    between atoms: C_9  and  C_28
    4  A    between atoms: C_10  and  C_39
    5  A    between atoms: C_14  and  C_28
    6  A    between atoms: C_17  and  C_22
    7  A    between atoms: C_17  and  C_31
    8  A    between atoms: C_20  and  C_36
    9  A    between atoms: C_21  and  N_23
                            x       y       z     vdW  Elec       q    Type
                         _______ _______ _______ _____ _____    ______ ____

>  <TORSDO>
F 9

$$$$
=
 OpenBabel11072409223D

 39 43  0  0  1  0  0  0  0  0999 V2000
  186.2510  177.0120  144.3870 C   0  0  1  0  0  3  0  0  0  0  0  0
  183.9170  178.3080  146.8980 O   0  0  0  0  0  0  0  0  0  0  0  0
  184.8250  177.5950  146.3960 C   0  0  0  0  0  0  0  0  0  0  0  0
  186.0350  177.2150  142.8570 C   0  0  1  0  0  3  0  0  0  0  0  0
  184.2500  178.4840  141.7720 O   0  0  0  0  0  0  0  0  0  0  0  0
  185.6130  176.6640  147.2510 C   0  0  0  0  0  2  0  0  0  0  0  0
  187.9110  177.3790  146.3480 C   0  0  0  0  0  0  0  0  0  0  0  0
  187.0720  177.0140  147.3320 C   0  0  0  0  0  3  0  0  0  0  0  0
  187.5000  177.7110  144.9290 C   0  0  0  0  0  2  0  0  0  0  0  0
  184.7980  178.0510  142.8190 C   0  0  0  0  0  0  0  0  0  0  0  0
  184.2860  178.2530  144.0790 O   0  0  0  0  0  0  0  0  0  0  0  0
  185.0840  177.6300  144.9980 N   0  0  0  0  0  0  0  0  0  0  0  0
  189.2740  177.5940  146.7230 N   0  0  0  0  0  2  0  0  0  0  0  0
  190.4860  176.3520  146.7380 S   0  0  0  0  0  0  0  0  0  0  0  0
  189.8480  175.0430  146.3650 O   0  0  0  0  0  0  0  0  0  0  0  0
  191.0730  176.2390  148.1160 O   0  0  0  0  0  0  0  0  0  0  0  0
  191.7750  176.7190  145.5670 C   0  0  0  0  0  2  0  0  0  0  0  0
  192.8090  175.6020  145.5640 C   0  0  0  0  0  2  0  0  0  0  0  0
  194.1060  177.0820  146.9310 O   0  0  0  0  0  1  0  0  0  0  0  0
  194.8200  176.6650  144.8020 O   0  0  0  0  0  1  0  0  0  0  0  0
  194.1940  176.1210  145.9240 C   0  0  0  0  0  3  0  0  0  0  0  0
  187.1870  177.9110  142.1340 C   0  0  0  0  0  2  0  0  0  0  0  0
  187.6740  175.4930  141.9200 C   0  0  0  0  0  2  0  0  0  0  0  0
  188.1200  176.8860  141.5150 C   0  0  2  0  0  3  0  0  0  0  0  0
  189.5320  177.0760  142.0480 C   0  0  0  0  0  2  0  0  0  0  0  0
  190.0010  175.7210  142.5320 C   0  0  0  0  0  2  0  0  0  0  0  0
  188.7390  174.9630  142.8680 C   0  0  2  0  0  3  0  0  0  0  0  0
  190.7550  172.8540  139.2610 C   0  0  0  0  0  2  0  0  0  0  0  0
  192.5180  172.7760  140.8720 O   0  0  0  0  0  0  0  0  0  0  0  0
  188.9610  173.4430  142.7960 C   0  0  2  0  0  3  0  0  0  0  0  0
  190.3190  172.3270  141.7390 C   0  0  2  0  0  3  0  0  0  0  0  0
  188.5020  173.2520  140.1810 C   0  0  0  0  0  3  0  0  0  0  0  0
  190.3990  173.0460  143.0520 C   0  0  2  0  0  3  0  0  0  0  0  0
  191.2830  172.7080  140.6470 C   0  0  0  0  0  0  0  0  0  0  0  0
  189.4380  173.0670  139.0440 C   0  0  0  0  0  3  0  0  0  0  0  0
  188.9930  172.9320  141.3700 C   0  0  2  0  0  3  0  0  0  0  0  0
  189.4890  171.9880  145.1360 O   0  0  0  0  0  1  0  0  0  0  0  0
  191.5320  171.3620  144.3150 O   0  0  0  0  0  0  0  0  0  0  0  0
  190.4980  172.0680  144.1820 C   0  0  0  0  0  0  0  0  0  0  0  0
  1  9  1  1  0  0  0
  1 12  1  0  0  0  0
  3  2  2  0  0  0  0
  3  6  1  0  0  0  0
  4 22  1  1  0  0  0
  4  1  1  0  0  0  0
  5 10  2  0  0  0  0
  6  8  1  0  0  0  0
  7 13  1  0  0  0  0
  7  8  2  0  0  0  0
  9  7  1  0  0  0  0
 10  4  1  0  0  0  0
 10 11  1  0  0  0  0
 11 12  1  0  0  0  0
 12  3  1  0  0  0  0
 13 14  1  0  0  0  0
 14 16  2  0  0  0  0
 15 14  2  0  0  0  0
 17 14  1  0  0  0  0
 18 17  1  0  0  0  0
 18 21  1  0  0  0  0
 20 21  1  0  0  0  0
 21 19  1  0  0  0  0
 24 23  1  0  0  0  0
 24 25  1  0  0  0  0
 24 22  1  1  0  0  0
 25 26  1  0  0  0  0
 26 27  1  0  0  0  0
 27 23  1  6  0  0  0
 28 34  1  0  0  0  0
 30 27  1  6  0  0  0
 30 33  1  0  0  0  0
 31 34  1  6  0  0  0
 31 33  1  0  0  0  0
 33 39  1  1  0  0  0
 34 29  2  0  0  0  0
 35 28  1  0  0  0  0
 35 32  2  0  0  0  0
 36 32  1  6  0  0  0
 36 31  1  0  0  0  0
 36 30  1  0  0  0  0
 39 38  2  0  0  0  0
 39 37  1  0  0  0  0
M  END
>  <MODEL>
2

>  <REMARK>
 VINA RESULT:      -7.3      2.485      5.532
  Name = 
  9 active torsions:
  status: ('A' for Active; 'I' for Inactive)
    1  A    between atoms: S_7  and  N_23
    2  A    between atoms: S_7  and  C_31
    3  A    between atoms: C_9  and  C_28
    4  A    between atoms: C_10  and  C_39
    5  A    between atoms: C_14  and  C_28
    6  A    between atoms: C_17  and  C_22
    7  A    between atoms: C_17  and  C_31
    8  A    between atoms: C_20  and  C_36
    9  A    between atoms: C_21  and  N_23
                            x       y       z     vdW  Elec       q    Type
                         _______ _______ _______ _____ _____    ______ ____

>  <TORSDO>
F 9

$$$$
=
 OpenBabel11072409223D

 39 43  0  0  1  0  0  0  0  0999 V2000
  193.4260  173.6090  145.6050 C   0  0  1  0  0  3  0  0  0  0  0  0
  197.0140  172.8580  145.5940 O   0  0  0  0  0  0  0  0  0  0  0  0
  195.7710  172.6550  145.6070 C   0  0  0  0  0  0  0  0  0  0  0  0
  192.8600  174.9920  146.0440 C   0  0  1  0  0  3  0  0  0  0  0  0
  194.1370  176.9730  146.6940 O   0  0  0  0  0  0  0  0  0  0  0  0
  195.2320  171.2740  145.4660 C   0  0  0  0  0  2  0  0  0  0  0  0
  193.4810  171.8690  143.6800 C   0  0  0  0  0  0  0  0  0  0  0  0
  194.4190  171.0700  144.2190 C   0  0  0  0  0  3  0  0  0  0  0  0
  193.1730  173.2800  144.1320 C   0  0  0  0  0  2  0  0  0  0  0  0
  194.1040  175.7700  146.3230 C   0  0  0  0  0  0  0  0  0  0  0  0
  195.2290  174.9940  146.1770 O   0  0  0  0  0  0  0  0  0  0  0  0
  194.8630  173.7310  145.8010 N   0  0  0  0  0  0  0  0  0  0  0  0
  192.8290  171.3780  142.5060 N   0  0  0  0  0  2  0  0  0  0  0  0
  191.1070  171.3270  142.3010 S   0  0  0  0  0  0  0  0  0  0  0  0
  190.4500  171.7990  143.5670 O   0  0  0  0  0  0  0  0  0  0  0  0
  190.6760  169.9150  142.0190 O   0  0  0  0  0  0  0  0  0  0  0  0
  190.6030  172.3850  140.9600 C   0  0  0  0  0  2  0  0  0  0  0  0
  190.2000  173.7500  141.4980 C   0  0  0  0  0  2  0  0  0  0  0  0
  187.8810  173.5470  142.0660 O   0  0  0  0  0  1  0  0  0  0  0  0
  188.4550  173.6200  139.8570 O   0  0  0  0  0  1  0  0  0  0  0  0
  188.7620  174.0930  141.1330 C   0  0  0  0  0  3  0  0  0  0  0  0
  192.0000  175.6940  144.9940 C   0  0  0  0  0  2  0  0  0  0  0  0
  189.5710  175.5340  144.5430 C   0  0  0  0  0  2  0  0  0  0  0  0
  190.6150  175.9790  145.5490 C   0  0  2  0  0  3  0  0  0  0  0  0
  190.4330  177.4750  145.7530 C   0  0  0  0  0  2  0  0  0  0  0  0
  189.1340  177.8510  145.0730 C   0  0  0  0  0  2  0  0  0  0  0  0
  188.9300  176.8040  144.0050 C   0  0  2  0  0  3  0  0  0  0  0  0
  185.5120  178.8940  146.3440 C   0  0  0  0  0  2  0  0  0  0  0  0
  185.6090  180.2520  144.3800 O   0  0  0  0  0  0  0  0  0  0  0  0
  187.4440  176.6630  143.6330 C   0  0  2  0  0  3  0  0  0  0  0  0
  185.8390  177.8860  144.0030 C   0  0  2  0  0  3  0  0  0  0  0  0
  186.5620  176.6720  146.1450 C   0  0  0  0  0  3  0  0  0  0  0  0
  186.8940  177.8890  142.9370 C   0  0  2  0  0  3  0  0  0  0  0  0
  185.6980  179.1010  144.8800 C   0  0  0  0  0  0  0  0  0  0  0  0
  185.8810  177.7320  146.9290 C   0  0  0  0  0  3  0  0  0  0  0  0
  186.5320  176.8390  144.8290 C   0  0  2  0  0  3  0  0  0  0  0  0
  187.1080  177.0940  140.5670 O   0  0  0  0  0  0  0  0  0  0  0  0
  185.0670  177.7050  141.4040 O   0  0  0  0  0  1  0  0  0  0  0  0
  186.2980  177.5350  141.6080 C   0  0  0  0  0  0  0  0  0  0  0  0
  1  9  1  6  0  0  0
  1 12  1  0  0  0  0
  1  4  1  0  0  0  0
  2  3  2  0  0  0  0
  3 12  1  0  0  0  0
  4 22  1  6  0  0  0
  4 10  1  0  0  0  0
  6  3  1  0  0  0  0
  7  9  1  0  0  0  0
  7  8  2  0  0  0  0
  8  6  1  0  0  0  0
 10  5  2  0  0  0  0
 11 10  1  0  0  0  0
 12 11  1  0  0  0  0
 13  7  1  0  0  0  0
 14 13  1  0  0  0  0
 14 15  2  0  0  0  0
 16 14  2  0  0  0  0
 17 18  1  0  0  0  0
 17 14  1  0  0  0  0
 20 21  1  0  0  0  0
 21 18  1  0  0  0  0
 21 19  1  0  0  0  0
 23 24  1  0  0  0  0
 24 22  1  6  0  0  0
 24 25  1  0  0  0  0
 26 25  1  0  0  0  0
 27 23  1  1  0  0  0
 27 26  1  0  0  0  0
 28 35  1  0  0  0  0
 29 34  2  0  0  0  0
 30 27  1  1  0  0  0
 30 36  1  0  0  0  0
 31 36  1  0  0  0  0
 31 34  1  1  0  0  0
 32 35  2  0  0  0  0
 33 39  1  6  0  0  0
 33 30  1  0  0  0  0
 33 31  1  0  0  0  0
 34 28  1  0  0  0  0
 36 32  1  1  0  0  0
 37 39  2  0  0  0  0
 38 39  1  0  0  0  0
M  END
>  <MODEL>
3

>  <REMARK>
 VINA RESULT:      -7.3      2.548      7.851
  Name = 
  9 active torsions:
  status: ('A' for Active; 'I' for Inactive)
    1  A    between atoms: S_7  and  N_23
    2  A    between atoms: S_7  and  C_31
    3  A    between atoms: C_9  and  C_28
    4  A    between atoms: C_10  and  C_39
    5  A    between atoms: C_14  and  C_28
    6  A    between atoms: C_17  and  C_22
    7  A    between atoms: C_17  and  C_31
    8  A    between atoms: C_20  and  C_36
    9  A    between atoms: C_21  and  N_23
                            x       y       z     vdW  Elec       q    Type
                         _______ _______ _______ _____ _____    ______ ____

>  <TORSDO>
F 9

$$$$
=
 OpenBabel11072409223D

 39 43  0  0  1  0  0  0  0  0999 V2000
  186.4300  176.5860  143.7620 C   0  0  1  0  0  3  0  0  0  0  0  0
  184.4880  179.4090  145.0630 O   0  0  0  0  0  0  0  0  0  0  0  0
  185.0510  178.2830  145.0370 C   0  0  0  0  0  0  0  0  0  0  0  0
  186.6470  176.3490  142.2370 C   0  0  1  0  0  3  0  0  0  0  0  0
  185.9010  177.7770  140.3980 O   0  0  0  0  0  0  0  0  0  0  0  0
  185.1340  177.4540  146.2710 C   0  0  0  0  0  2  0  0  0  0  0  0
  187.6350  176.9060  146.0380 C   0  0  0  0  0  0  0  0  0  0  0  0
  186.5410  177.2280  146.7490 C   0  0  0  0  0  3  0  0  0  0  0  0
  187.7200  176.8920  144.5270 C   0  0  0  0  0  2  0  0  0  0  0  0
  185.9650  177.5320  141.6320 C   0  0  0  0  0  0  0  0  0  0  0  0
  185.3570  178.3090  142.5880 O   0  0  0  0  0  0  0  0  0  0  0  0
  185.5760  177.7640  143.8230 N   0  0  0  0  0  0  0  0  0  0  0  0
  188.8370  176.6960  146.7830 N   0  0  0  0  0  2  0  0  0  0  0  0
  189.4850  175.1310  147.1610 S   0  0  0  0  0  0  0  0  0  0  0  0
  189.7120  174.3750  145.8820 O   0  0  0  0  0  0  0  0  0  0  0  0
  188.5060  174.3750  148.0130 O   0  0  0  0  0  0  0  0  0  0  0  0
  191.0350  175.2850  148.0230 C   0  0  0  0  0  2  0  0  0  0  0  0
  191.7280  176.5780  147.6200 C   0  0  0  0  0  2  0  0  0  0  0  0
  193.9360  176.9150  146.7510 O   0  0  0  0  0  1  0  0  0  0  0  0
  192.1810  176.9230  145.2900 O   0  0  0  0  0  1  0  0  0  0  0  0
  192.6900  176.3590  146.4600 C   0  0  0  0  0  3  0  0  0  0  0  0
  188.1100  176.2800  141.8020 C   0  0  0  0  0  2  0  0  0  0  0  0
  189.9870  174.8500  142.5500 C   0  0  0  0  0  2  0  0  0  0  0  0
  188.6220  174.8540  141.8900 C   0  0  2  0  0  3  0  0  0  0  0  0
  188.7980  174.2760  140.4940 C   0  0  0  0  0  2  0  0  0  0  0  0
  190.1980  173.7030  140.4340 C   0  0  0  0  0  2  0  0  0  0  0  0
  190.9850  174.4750  141.4650 C   0  0  2  0  0  3  0  0  0  0  0  0
  195.3380  176.0720  141.2910 C   0  0  0  0  0  2  0  0  0  0  0  0
  194.8640  176.3060  143.6220 O   0  0  0  0  0  0  0  0  0  0  0  0
  192.1990  173.6720  141.9610 C   0  0  2  0  0  3  0  0  0  0  0  0
  194.0470  174.2820  142.6090 C   0  0  2  0  0  3  0  0  0  0  0  0
  193.8550  174.5320  140.0620 C   0  0  0  0  0  3  0  0  0  0  0  0
  192.7200  174.1580  143.2960 C   0  0  2  0  0  3  0  0  0  0  0  0
  194.7170  175.6290  142.5720 C   0  0  0  0  0  0  0  0  0  0  0  0
  194.9590  175.5220  140.1150 C   0  0  0  0  0  3  0  0  0  0  0  0
  193.4750  174.0500  141.2380 C   0  0  2  0  0  3  0  0  0  0  0  0
  192.0770  171.8560  144.0590 O   0  0  0  0  0  0  0  0  0  0  0  0
  193.3280  173.2180  145.4080 O   0  0  0  0  0  1  0  0  0  0  0  0
  192.7510  173.0490  144.3030 C   0  0  0  0  0  0  0  0  0  0  0  0
  1 12  1  0  0  0  0
  1  9  1  1  0  0  0
  3  2  2  0  0  0  0
  3  6  1  0  0  0  0
  4 22  1  1  0  0  0
  4  1  1  0  0  0  0
  5 10  2  0  0  0  0
  6  8  1  0  0  0  0
  7  8  2  0  0  0  0
  7 13  1  0  0  0  0
  9  7  1  0  0  0  0
 10  4  1  0  0  0  0
 10 11  1  0  0  0  0
 11 12  1  0  0  0  0
 12  3  1  0  0  0  0
 13 14  1  0  0  0  0
 14 16  2  0  0  0  0
 14 17  1  0  0  0  0
 15 14  2  0  0  0  0
 18 17  1  0  0  0  0
 20 21  1  0  0  0  0
 21 19  1  0  0  0  0
 21 18  1  0  0  0  0
 24 22  1  6  0  0  0
 24 23  1  0  0  0  0
 25 24  1  0  0  0  0
 26 25  1  0  0  0  0
 27 26  1  6  0  0  0
 27 23  1  0  0  0  0
 28 34  1  0  0  0  0
 30 27  1  6  0  0  0
 30 33  1  0  0  0  0
 31 34  1  6  0  0  0
 31 33  1  0  0  0  0
 32 35  2  0  0  0  0
 33 39  1  1  0  0  0
 34 29  2  0  0  0  0
 35 28  1  0  0  0  0
 36 32  1  6  0  0  0
 36 30  1  0  0  0  0
 36 31  1  0  0  0  0
 37 39  2  0  0  0  0
 39 38  1  0  0  0  0
M  END
>  <MODEL>
4

>  <REMARK>
 VINA RESULT:      -7.3      2.381      4.959
  Name = 
  9 active torsions:
  status: ('A' for Active; 'I' for Inactive)
    1  A    between atoms: S_7  and  N_23
    2  A    between atoms: S_7  and  C_31
    3  A    between atoms: C_9  and  C_28
    4  A    between atoms: C_10  and  C_39
    5  A    between atoms: C_14  and  C_28
    6  A    between atoms: C_17  and  C_22
    7  A    between atoms: C_17  and  C_31
    8  A    between atoms: C_20  and  C_36
    9  A    between atoms: C_21  and  N_23
                            x       y       z     vdW  Elec       q    Type
                         _______ _______ _______ _____ _____    ______ ____

>  <TORSDO>
F 9

$$$$
=
 OpenBabel11072409223D

 39 43  0  0  1  0  0  0  0  0999 V2000
  186.7240  178.1550  143.4880 C   0  0  1  0  0  3  0  0  0  0  0  0
  183.2370  178.1390  142.3580 O   0  0  0  0  0  0  0  0  0  0  0  0
  184.4850  178.2940  142.3130 C   0  0  0  0  0  0  0  0  0  0  0  0
  187.1170  178.1900  144.9960 C   0  0  1  0  0  3  0  0  0  0  0  0
  185.6090  178.1260  146.9190 O   0  0  0  0  0  0  0  0  0  0  0  0
  185.1590  178.6130  141.0240 C   0  0  0  0  0  2  0  0  0  0  0  0
  187.0120  176.8480  141.2650 C   0  0  0  0  0  0  0  0  0  0  0  0
  186.1030  177.5410  140.5580 C   0  0  0  0  0  3  0  0  0  0  0  0
  187.1470  176.8700  142.7720 C   0  0  0  0  0  2  0  0  0  0  0  0
  185.7860  178.1400  145.6720 C   0  0  0  0  0  0  0  0  0  0  0  0
  184.7560  178.1630  144.7630 O   0  0  0  0  0  0  0  0  0  0  0  0
  185.2690  178.2120  143.4960 N   0  0  0  0  0  0  0  0  0  0  0  0
  187.8160  175.9220  140.5290 N   0  0  0  0  0  2  0  0  0  0  0  0
  188.6490  174.5770  141.2430 S   0  0  0  0  0  0  0  0  0  0  0  0
  187.6630  173.7450  142.0130 O   0  0  0  0  0  0  0  0  0  0  0  0
  189.7060  175.0830  142.1830 O   0  0  0  0  0  0  0  0  0  0  0  0
  189.4010  173.5650  139.9860 C   0  0  0  0  0  2  0  0  0  0  0  0
  189.6920  172.1780  140.5400 C   0  0  0  0  0  2  0  0  0  0  0  0
  191.6510  172.5310  139.2070 O   0  0  0  0  0  1  0  0  0  0  0  0
  190.5270  170.5550  138.9840 O   0  0  0  0  0  1  0  0  0  0  0  0
  190.9120  171.5550  139.8770 C   0  0  0  0  0  3  0  0  0  0  0  0
  188.0070  177.0360  145.4520 C   0  0  0  0  0  2  0  0  0  0  0  0
  190.4300  176.6110  145.1740 C   0  0  0  0  0  2  0  0  0  0  0  0
  189.3990  177.5410  145.7850 C   0  0  2  0  0  3  0  0  0  0  0  0
  189.6150  177.5200  147.2910 C   0  0  0  0  0  2  0  0  0  0  0  0
  190.9190  176.7910  147.5330 C   0  0  0  0  0  2  0  0  0  0  0  0
  191.0960  175.8890  146.3360 C   0  0  2  0  0  3  0  0  0  0  0  0
  192.6370  173.6390  142.5820 C   0  0  0  0  0  3  0  0  0  0  0  0
  193.3520  175.8680  142.0970 O   0  0  0  0  0  0  0  0  0  0  0  0
  192.5770  175.5410  146.1090 C   0  0  2  0  0  3  0  0  0  0  0  0
  193.6290  175.1780  144.3860 C   0  0  2  0  0  3  0  0  0  0  0  0
  192.1020  173.1930  144.9480 C   0  0  0  0  0  2  0  0  0  0  0  0
  193.2430  176.4430  145.0930 C   0  0  2  0  0  3  0  0  0  0  0  0
  193.1710  174.9770  142.9670 C   0  0  0  0  0  0  0  0  0  0  0  0
  192.1740  172.7860  143.5220 C   0  0  0  0  0  3  0  0  0  0  0  0
  192.7540  174.3090  145.2460 C   0  0  2  0  0  3  0  0  0  0  0  0
  195.5930  177.3020  144.8970 O   0  0  0  0  0  0  0  0  0  0  0  0
  194.4700  177.4380  146.8880 O   0  0  0  0  0  1  0  0  0  0  0  0
  194.4530  177.1110  145.6730 C   0  0  0  0  0  0  0  0  0  0  0  0
  1  9  1  1  0  0  0
  1 12  1  0  0  0  0
  1  4  1  0  0  0  0
  3  2  2  0  0  0  0
  3 12  1  0  0  0  0
  4 22  1  1  0  0  0
  4 10  1  0  0  0  0
  6  3  1  0  0  0  0
  7  9  1  0  0  0  0
  8  6  1  0  0  0  0
  8  7  2  0  0  0  0
 10  5  2  0  0  0  0
 11 10  1  0  0  0  0
 12 11  1  0  0  0  0
 13 14  1  0  0  0  0
 13  7  1  0  0  0  0
 14 15  2  0  0  0  0
 14 16  2  0  0  0  0
 17 18  1  0  0  0  0
 17 14  1  0  0  0  0
 19 21  1  0  0  0  0
 20 21  1  0  0  0  0
 21 18  1  0  0  0  0
 23 24  1  0  0  0  0
 24 22  1  1  0  0  0
 24 25  1  0  0  0  0
 25 26  1  0  0  0  0
 27 23  1  6  0  0  0
 27 26  1  0  0  0  0
 28 34  1  0  0  0  0
 28 35  2  0  0  0  0
 29 34  2  0  0  0  0
 30 27  1  6  0  0  0
 31 34  1  6  0  0  0
 31 33  1  0  0  0  0
 31 36  1  0  0  0  0
 33 39  1  1  0  0  0
 33 30  1  0  0  0  0
 35 32  1  0  0  0  0
 36 32  1  6  0  0  0
 36 30  1  0  0  0  0
 37 39  2  0  0  0  0
 39 38  1  0  0  0  0
M  END
>  <MODEL>
5

>  <REMARK>
 VINA RESULT:      -7.3      1.589      2.074
  Name = 
  9 active torsions:
  status: ('A' for Active; 'I' for Inactive)
    1  A    between atoms: S_7  and  N_23
    2  A    between atoms: S_7  and  C_31
    3  A    between atoms: C_9  and  C_28
    4  A    between atoms: C_10  and  C_39
    5  A    between atoms: C_14  and  C_28
    6  A    between atoms: C_17  and  C_22
    7  A    between atoms: C_17  and  C_31
    8  A    between atoms: C_20  and  C_36
    9  A    between atoms: C_21  and  N_23
                            x       y       z     vdW  Elec       q    Type
                         _______ _______ _______ _____ _____    ______ ____

>  <TORSDO>
F 9

$$$$
=
 OpenBabel11072409223D

 39 43  0  0  1  0  0  0  0  0999 V2000
  192.2220  174.2370  141.4000 C   0  0  1  0  0  3  0  0  0  0  0  0
  193.8020  173.7350  138.1300 O   0  0  0  0  0  0  0  0  0  0  0  0
  193.5990  174.2200  139.2750 C   0  0  0  0  0  0  0  0  0  0  0  0
  190.7600  173.7930  141.7020 C   0  0  1  0  0  3  0  0  0  0  0  0
  189.2390  172.5980  140.2060 O   0  0  0  0  0  0  0  0  0  0  0  0
  194.5710  175.1760  139.8720 C   0  0  0  0  0  2  0  0  0  0  0  0
  194.6930  174.0120  142.1610 C   0  0  0  0  0  0  0  0  0  0  0  0
  195.2380  174.6560  141.1150 C   0  0  0  0  0  3  0  0  0  0  0  0
  193.2740  173.4880  142.2210 C   0  0  0  0  0  2  0  0  0  0  0  0
  190.3570  173.1360  140.4220 C   0  0  0  0  0  0  0  0  0  0  0  0
  191.3440  173.2340  139.4710 O   0  0  0  0  0  0  0  0  0  0  0  0
  192.4170  173.8990  139.9970 N   0  0  0  0  0  0  0  0  0  0  0  0
  195.5780  173.6880  143.2370 N   0  0  0  0  0  2  0  0  0  0  0  0
  196.2290  174.8560  144.3440 S   0  0  0  0  0  0  0  0  0  0  0  0
  196.0360  176.2320  143.7720 O   0  0  0  0  0  0  0  0  0  0  0  0
  197.6970  174.6030  144.5350 O   0  0  0  0  0  0  0  0  0  0  0  0
  195.3970  174.7630  145.9160 C   0  0  0  0  0  2  0  0  0  0  0  0
  193.8890  174.7760  145.7070 C   0  0  0  0  0  2  0  0  0  0  0  0
  193.0300  176.8420  144.8490 O   0  0  0  0  0  1  0  0  0  0  0  0
  194.1600  176.8770  146.8330 O   0  0  0  0  0  1  0  0  0  0  0  0
  193.2930  176.1400  146.0260 C   0  0  0  0  0  3  0  0  0  0  0  0
  190.6130  172.8320  142.8800 C   0  0  0  0  0  2  0  0  0  0  0  0
  189.2480  174.7850  143.5540 C   0  0  0  0  0  2  0  0  0  0  0  0
  189.5340  173.3210  143.8300 C   0  0  2  0  0  3  0  0  0  0  0  0
  190.0230  173.2240  145.2680 C   0  0  0  0  0  2  0  0  0  0  0  0
  189.7780  174.5760  145.9030 C   0  0  0  0  0  2  0  0  0  0  0  0
  189.7750  175.5560  144.7550 C   0  0  2  0  0  3  0  0  0  0  0  0
  187.2950  177.9360  141.6380 C   0  0  0  0  0  2  0  0  0  0  0  0
  185.5570  176.8210  142.8420 O   0  0  0  0  0  0  0  0  0  0  0  0
  188.9770  176.8240  145.1020 C   0  0  2  0  0  3  0  0  0  0  0  0
  187.3500  177.6840  144.1960 C   0  0  2  0  0  3  0  0  0  0  0  0
  189.4680  178.0620  142.7970 C   0  0  0  0  0  3  0  0  0  0  0  0
  187.4870  176.5730  145.1940 C   0  0  2  0  0  3  0  0  0  0  0  0
  186.6770  177.3930  142.8810 C   0  0  0  0  0  0  0  0  0  0  0  0
  188.6000  178.2890  141.6150 C   0  0  0  0  0  3  0  0  0  0  0  0
  188.8250  177.7530  143.9150 C   0  0  2  0  0  3  0  0  0  0  0  0
  185.6050  176.8030  146.8370 O   0  0  0  0  0  0  0  0  0  0  0  0
  187.6930  177.5920  147.3470 O   0  0  0  0  0  1  0  0  0  0  0  0
  186.9480  176.9950  146.5270 C   0  0  0  0  0  0  0  0  0  0  0  0
  1  4  1  0  0  0  0
  1  9  1  1  0  0  0
  2  3  2  0  0  0  0
  3  6  1  0  0  0  0
  3 12  1  0  0  0  0
  4 22  1  1  0  0  0
  5 10  2  0  0  0  0
  6  8  1  0  0  0  0
  7  9  1  0  0  0  0
  7 13  1  0  0  0  0
  8  7  2  0  0  0  0
 10  4  1  0  0  0  0
 11 12  1  0  0  0  0
 11 10  1  0  0  0  0
 12  1  1  0  0  0  0
 13 14  1  0  0  0  0
 14 16  2  0  0  0  0
 14 17  1  0  0  0  0
 15 14  2  0  0  0  0
 18 17  1  0  0  0  0
 18 21  1  0  0  0  0
 19 21  1  0  0  0  0
 21 20  1  0  0  0  0
 23 24  1  0  0  0  0
 24 22  1  6  0  0  0
 24 25  1  0  0  0  0
 25 26  1  0  0  0  0
 27 23  1  6  0  0  0
 27 26  1  0  0  0  0
 28 34  1  0  0  0  0
 29 34  2  0  0  0  0
 30 27  1  6  0  0  0
 30 33  1  0  0  0  0
 31 34  1  6  0  0  0
 31 33  1  0  0  0  0
 33 39  1  1  0  0  0
 35 28  1  0  0  0  0
 35 32  2  0  0  0  0
 36 32  1  6  0  0  0
 36 31  1  0  0  0  0
 36 30  1  0  0  0  0
 39 37  2  0  0  0  0
 39 38  1  0  0  0  0
M  END
>  <MODEL>
6

>  <REMARK>
 VINA RESULT:      -7.3      2.711      7.587
  Name = 
  9 active torsions:
  status: ('A' for Active; 'I' for Inactive)
    1  A    between atoms: S_7  and  N_23
    2  A    between atoms: S_7  and  C_31
    3  A    between atoms: C_9  and  C_28
    4  A    between atoms: C_10  and  C_39
    5  A    between atoms: C_14  and  C_28
    6  A    between atoms: C_17  and  C_22
    7  A    between atoms: C_17  and  C_31
    8  A    between atoms: C_20  and  C_36
    9  A    between atoms: C_21  and  N_23
                            x       y       z     vdW  Elec       q    Type
                         _______ _______ _______ _____ _____    ______ ____

>  <TORSDO>
F 9

$$$$
=
 OpenBabel11072409223D

 39 43  0  0  1  0  0  0  0  0999 V2000
  193.6170  174.8150  144.6510 C   0  0  1  0  0  3  0  0  0  0  0  0
  197.1600  175.2250  143.8060 O   0  0  0  0  0  0  0  0  0  0  0  0
  196.0190  174.6950  143.8600 C   0  0  0  0  0  0  0  0  0  0  0  0
  192.9390  175.5870  145.8230 C   0  0  1  0  0  3  0  0  0  0  0  0
  193.9580  177.2790  147.2630 O   0  0  0  0  0  0  0  0  0  0  0  0
  195.7210  173.4650  143.0760 C   0  0  0  0  0  2  0  0  0  0  0  0
  193.4980  174.3180  142.1070 C   0  0  0  0  0  0  0  0  0  0  0  0
  194.6700  173.6660  142.0200 C   0  0  0  0  0  3  0  0  0  0  0  0
  193.0630  175.1800  143.2720 C   0  0  0  0  0  2  0  0  0  0  0  0
  194.0510  176.4520  146.3180 C   0  0  0  0  0  0  0  0  0  0  0  0
  195.2240  176.2020  145.6460 O   0  0  0  0  0  0  0  0  0  0  0  0
  195.0100  175.2330  144.7060 N   0  0  0  0  0  0  0  0  0  0  0  0
  192.6700  174.2920  140.9410 N   0  0  0  0  0  2  0  0  0  0  0  0
  191.1200  173.5160  140.8680 S   0  0  0  0  0  0  0  0  0  0  0  0
  190.8440  173.1080  139.4480 O   0  0  0  0  0  0  0  0  0  0  0  0
  190.0560  174.4750  141.3210 O   0  0  0  0  0  0  0  0  0  0  0  0
  191.0950  172.0640  141.8990 C   0  0  0  0  0  2  0  0  0  0  0  0
  189.8740  172.0910  142.8070 C   0  0  0  0  0  2  0  0  0  0  0  0
  191.5220  171.9510  144.5410 O   0  0  0  0  0  1  0  0  0  0  0  0
  189.3160  171.9160  145.1330 O   0  0  0  0  0  1  0  0  0  0  0  0
  190.2510  172.4410  144.2400 C   0  0  0  0  0  3  0  0  0  0  0  0
  191.7290  176.4280  145.4200 C   0  0  0  0  0  2  0  0  0  0  0  0
  189.5650  176.1370  144.2540 C   0  0  0  0  0  2  0  0  0  0  0  0
  190.4930  175.5550  145.3030 C   0  0  2  0  0  3  0  0  0  0  0  0
  189.7330  175.5480  146.6210 C   0  0  0  0  0  2  0  0  0  0  0  0
  188.2930  175.8810  146.2930 C   0  0  0  0  0  2  0  0  0  0  0  0
  188.3520  176.6660  145.0050 C   0  0  2  0  0  3  0  0  0  0  0  0
  184.5420  179.0420  146.1730 C   0  0  0  0  0  2  0  0  0  0  0  0
  185.2750  180.2760  144.2630 O   0  0  0  0  0  0  0  0  0  0  0  0
  187.0270  176.5710  144.2290 C   0  0  2  0  0  3  0  0  0  0  0  0
  185.4600  177.8850  144.0700 C   0  0  2  0  0  3  0  0  0  0  0  0
  185.4690  176.7660  146.3790 C   0  0  0  0  0  3  0  0  0  0  0  0
  186.7720  177.7770  143.3520 C   0  0  2  0  0  3  0  0  0  0  0  0
  185.1480  179.1540  144.8170 C   0  0  0  0  0  0  0  0  0  0  0  0
  184.6590  177.9000  146.8880 C   0  0  0  0  0  3  0  0  0  0  0  0
  185.8250  176.8570  145.1050 C   0  0  2  0  0  3  0  0  0  0  0  0
  185.6910  178.0950  141.1110 O   0  0  0  0  0  0  0  0  0  0  0  0
  187.1110  176.3360  141.4750 O   0  0  0  0  0  1  0  0  0  0  0  0
  186.5590  177.3740  141.9250 C   0  0  0  0  0  0  0  0  0  0  0  0
  1  9  1  6  0  0  0
  1 12  1  0  0  0  0
  1  4  1  0  0  0  0
  2  3  2  0  0  0  0
  3 12  1  0  0  0  0
  4 22  1  6  0  0  0
  4 10  1  0  0  0  0
  6  3  1  0  0  0  0
  7  9  1  0  0  0  0
  8  7  2  0  0  0  0
  8  6  1  0  0  0  0
 10  5  2  0  0  0  0
 11 10  1  0  0  0  0
 12 11  1  0  0  0  0
 13  7  1  0  0  0  0
 14 13  1  0  0  0  0
 14 16  2  0  0  0  0
 14 17  1  0  0  0  0
 15 14  2  0  0  0  0
 17 18  1  0  0  0  0
 18 21  1  0  0  0  0
 21 19  1  0  0  0  0
 21 20  1  0  0  0  0
 23 24  1  0  0  0  0
 24 22  1  1  0  0  0
 24 25  1  0  0  0  0
 26 25  1  0  0  0  0
 27 23  1  6  0  0  0
 27 26  1  0  0  0  0
 28 35  1  0  0  0  0
 29 34  2  0  0  0  0
 30 27  1  1  0  0  0
 30 36  1  0  0  0  0
 31 34  1  1  0  0  0
 31 36  1  0  0  0  0
 32 35  2  0  0  0  0
 33 39  1  6  0  0  0
 33 31  1  0  0  0  0
 33 30  1  0  0  0  0
 34 28  1  0  0  0  0
 36 32  1  1  0  0  0
 37 39  2  0  0  0  0
 38 39  1  0  0  0  0
M  END
>  <MODEL>
7

>  <REMARK>
 VINA RESULT:      -7.2      2.360      7.501
  Name = 
  9 active torsions:
  status: ('A' for Active; 'I' for Inactive)
    1  A    between atoms: S_7  and  N_23
    2  A    between atoms: S_7  and  C_31
    3  A    between atoms: C_9  and  C_28
    4  A    between atoms: C_10  and  C_39
    5  A    between atoms: C_14  and  C_28
    6  A    between atoms: C_17  and  C_22
    7  A    between atoms: C_17  and  C_31
    8  A    between atoms: C_20  and  C_36
    9  A    between atoms: C_21  and  N_23
                            x       y       z     vdW  Elec       q    Type
                         _______ _______ _______ _____ _____    ______ ____

>  <TORSDO>
F 9

$$$$
=
 OpenBabel11072409223D

 39 43  0  0  1  0  0  0  0  0999 V2000
  189.1120  177.1430  144.0290 C   0  0  1  0  0  3  0  0  0  0  0  0
  185.5840  176.8270  144.9740 O   0  0  0  0  0  0  0  0  0  0  0  0
  186.5920  177.0760  144.2600 C   0  0  0  0  0  0  0  0  0  0  0  0
  190.2560  177.2510  145.0810 C   0  0  1  0  0  3  0  0  0  0  0  0
  190.0440  177.1250  147.5140 O   0  0  0  0  0  0  0  0  0  0  0  0
  186.4300  177.4090  142.8180 C   0  0  0  0  0  2  0  0  0  0  0  0
  188.2510  175.8000  141.9820 C   0  0  0  0  0  0  0  0  0  0  0  0
  187.0520  176.4000  141.8940 C   0  0  0  0  0  3  0  0  0  0  0  0
  189.1800  175.8750  143.1750 C   0  0  0  0  0  2  0  0  0  0  0  0
  189.5150  177.1170  146.3710 C   0  0  0  0  0  0  0  0  0  0  0  0
  188.1580  177.0350  146.1680 O   0  0  0  0  0  0  0  0  0  0  0  0
  187.8960  177.0880  144.8270 N   0  0  0  0  0  0  0  0  0  0  0  0
  188.5990  174.9180  140.9110 N   0  0  0  0  0  2  0  0  0  0  0  0
  188.5340  173.1870  141.0170 S   0  0  0  0  0  0  0  0  0  0  0  0
  188.1810  172.6280  139.6690 O   0  0  0  0  0  0  0  0  0  0  0  0
  187.4810  172.7840  142.0100 O   0  0  0  0  0  0  0  0  0  0  0  0
  190.1110  172.5300  141.5190 C   0  0  0  0  0  2  0  0  0  0  0  0
  189.9330  171.6050  142.7140 C   0  0  0  0  0  2  0  0  0  0  0  0
  189.7010  172.8150  144.7690 O   0  0  0  0  0  1  0  0  0  0  0  0
  191.6500  173.0280  143.5970 O   0  0  0  0  0  1  0  0  0  0  0  0
  190.6220  172.1550  143.9550 C   0  0  0  0  0  3  0  0  0  0  0  0
  191.3410  176.1820  144.9600 C   0  0  0  0  0  2  0  0  0  0  0  0
  193.7150  176.1310  144.2600 C   0  0  0  0  0  2  0  0  0  0  0  0
  192.7120  176.7920  145.1870 C   0  0  2  0  0  3  0  0  0  0  0  0
  193.1740  176.5230  146.6110 C   0  0  0  0  0  2  0  0  0  0  0  0
  194.5650  175.9350  146.5140 C   0  0  0  0  0  2  0  0  0  0  0  0
  194.6300  175.2990  145.1460 C   0  0  2  0  0  3  0  0  0  0  0  0
  196.8010  171.2540  144.4780 C   0  0  0  0  0  2  0  0  0  0  0  0
  196.3420  171.8970  142.2230 O   0  0  0  0  0  0  0  0  0  0  0  0
  196.0810  175.1920  144.6460 C   0  0  2  0  0  3  0  0  0  0  0  0
  197.0630  173.6790  143.6700 C   0  0  2  0  0  3  0  0  0  0  0  0
  196.6990  173.0750  146.1370 C   0  0  0  0  0  3  0  0  0  0  0  0
  196.1720  174.7860  143.1910 C   0  0  2  0  0  3  0  0  0  0  0  0
  196.6620  172.2570  143.3850 C   0  0  0  0  0  0  0  0  0  0  0  0
  196.8600  171.6460  145.7700 C   0  0  0  0  0  3  0  0  0  0  0  0
  196.7630  173.9260  145.1220 C   0  0  2  0  0  3  0  0  0  0  0  0
  197.6810  176.7850  143.0410 O   0  0  0  0  0  1  0  0  0  0  0  0
  196.9070  175.7710  141.1400 O   0  0  0  0  0  0  0  0  0  0  0  0
  196.9570  175.7870  142.3980 C   0  0  0  0  0  0  0  0  0  0  0  0
  1  9  1  1  0  0  0
  1 12  1  0  0  0  0
  1  4  1  0  0  0  0
  3 12  1  0  0  0  0
  3  2  2  0  0  0  0
  4 22  1  6  0  0  0
  4 10  1  0  0  0  0
  6  3  1  0  0  0  0
  7  9  1  0  0  0  0
  8  7  2  0  0  0  0
  8  6  1  0  0  0  0
 10  5  2  0  0  0  0
 11 10  1  0  0  0  0
 12 11  1  0  0  0  0
 13 14  1  0  0  0  0
 13  7  1  0  0  0  0
 14 17  1  0  0  0  0
 14 16  2  0  0  0  0
 15 14  2  0  0  0  0
 17 18  1  0  0  0  0
 18 21  1  0  0  0  0
 20 21  1  0  0  0  0
 21 19  1  0  0  0  0
 23 24  1  0  0  0  0
 24 22  1  1  0  0  0
 24 25  1  0  0  0  0
 26 25  1  0  0  0  0
 27 23  1  6  0  0  0
 27 26  1  0  0  0  0
 28 35  1  0  0  0  0
 29 34  2  0  0  0  0
 30 36  1  0  0  0  0
 30 27  1  1  0  0  0
 31 34  1  6  0  0  0
 31 36  1  0  0  0  0
 33 39  1  6  0  0  0
 33 31  1  0  0  0  0
 33 30  1  0  0  0  0
 34 28  1  0  0  0  0
 35 32  2  0  0  0  0
 36 32  1  6  0  0  0
 38 39  2  0  0  0  0
 39 37  1  0  0  0  0
M  END
>  <MODEL>
8

>  <REMARK>
 VINA RESULT:      -7.0      1.821      2.425
  Name = 
  9 active torsions:
  status: ('A' for Active; 'I' for Inactive)
    1  A    between atoms: S_7  and  N_23
    2  A    between atoms: S_7  and  C_31
    3  A    between atoms: C_9  and  C_28
    4  A    between atoms: C_10  and  C_39
    5  A    between atoms: C_14  and  C_28
    6  A    between atoms: C_17  and  C_22
    7  A    between atoms: C_17  and  C_31
    8  A    between atoms: C_20  and  C_36
    9  A    between atoms: C_21  and  N_23
                            x       y       z     vdW  Elec       q    Type
                         _______ _______ _______ _____ _____    ______ ____

>  <TORSDO>
F 9

$$$$
=
 OpenBabel11072409223D

 39 43  0  0  1  0  0  0  0  0999 V2000
  193.1890  174.1720  145.8190 C   0  0  1  0  0  3  0  0  0  0  0  0
  196.6310  173.0930  145.1630 O   0  0  0  0  0  0  0  0  0  0  0  0
  195.3940  173.0050  145.3840 C   0  0  0  0  0  0  0  0  0  0  0  0
  192.8470  175.5790  146.3950 C   0  0  1  0  0  3  0  0  0  0  0  0
  194.4060  177.3980  146.8780 O   0  0  0  0  0  0  0  0  0  0  0  0
  194.7030  171.6890  145.2940 C   0  0  0  0  0  2  0  0  0  0  0  0
  192.7450  172.5310  143.8580 C   0  0  0  0  0  0  0  0  0  0  0  0
  193.6750  171.6240  144.2000 C   0  0  0  0  0  3  0  0  0  0  0  0
  192.6590  173.9410  144.4030 C   0  0  0  0  0  2  0  0  0  0  0  0
  194.1910  176.2230  146.4800 C   0  0  0  0  0  0  0  0  0  0  0  0
  195.1920  175.3540  146.1160 O   0  0  0  0  0  0  0  0  0  0  0  0
  194.6440  174.1510  145.7680 N   0  0  0  0  0  0  0  0  0  0  0  0
  191.8580  172.1620  142.7990 N   0  0  0  0  0  2  0  0  0  0  0  0
  191.8130  172.9460  141.2510 S   0  0  0  0  0  0  0  0  0  0  0  0
  190.9470  174.1690  141.3480 O   0  0  0  0  0  0  0  0  0  0  0  0
  191.2310  172.0090  140.2310 O   0  0  0  0  0  0  0  0  0  0  0  0
  193.4490  173.4360  140.7490 C   0  0  0  0  0  2  0  0  0  0  0  0
  193.6560  174.9190  141.0250 C   0  0  0  0  0  2  0  0  0  0  0  0
  195.5820  173.9810  142.0970 O   0  0  0  0  0  1  0  0  0  0  0  0
  194.8380  176.0250  142.7940 O   0  0  0  0  0  1  0  0  0  0  0  0
  194.9970  175.1820  141.6940 C   0  0  0  0  0  3  0  0  0  0  0  0
  191.8960  176.4080  145.5340 C   0  0  0  0  0  2  0  0  0  0  0  0
  189.6550  175.9960  144.5660 C   0  0  0  0  0  2  0  0  0  0  0  0
  190.4530  176.0610  145.8540 C   0  0  2  0  0  3  0  0  0  0  0  0
  189.8320  177.1550  146.7100 C   0  0  0  0  0  2  0  0  0  0  0  0
  188.5310  177.5440  146.0420 C   0  0  0  0  0  2  0  0  0  0  0  0
  188.7140  177.1910  144.5850 C   0  0  2  0  0  3  0  0  0  0  0  0
  184.7070  178.9260  146.1520 C   0  0  0  0  0  2  0  0  0  0  0  0
  185.1210  180.3610  144.2860 O   0  0  0  0  0  0  0  0  0  0  0  0
  187.3620  176.9520  143.8910 C   0  0  2  0  0  3  0  0  0  0  0  0
  185.6210  178.0360  143.9210 C   0  0  2  0  0  3  0  0  0  0  0  0
  185.9540  176.7990  146.1450 C   0  0  0  0  0  3  0  0  0  0  0  0
  186.8790  178.1580  143.1150 C   0  0  2  0  0  3  0  0  0  0  0  0
  185.1920  179.2020  144.7700 C   0  0  0  0  0  0  0  0  0  0  0  0
  185.0330  177.7750  146.7800 C   0  0  0  0  0  3  0  0  0  0  0  0
  186.1990  177.0130  144.8590 C   0  0  2  0  0  3  0  0  0  0  0  0
  187.6510  177.8570  140.7470 O   0  0  0  0  0  0  0  0  0  0  0  0
  185.4510  177.5460  141.2980 O   0  0  0  0  0  1  0  0  0  0  0  0
  186.6210  177.8110  141.6810 C   0  0  0  0  0  0  0  0  0  0  0  0
  1  9  1  6  0  0  0
  1  4  1  0  0  0  0
  2  3  2  0  0  0  0
  3 12  1  0  0  0  0
  4 22  1  6  0  0  0
  4 10  1  0  0  0  0
  6  3  1  0  0  0  0
  7  8  2  0  0  0  0
  7  9  1  0  0  0  0
  8  6  1  0  0  0  0
 10  5  2  0  0  0  0
 11 10  1  0  0  0  0
 12  1  1  0  0  0  0
 12 11  1  0  0  0  0
 13  7  1  0  0  0  0
 14 15  2  0  0  0  0
 14 13  1  0  0  0  0
 16 14  2  0  0  0  0
 17 18  1  0  0  0  0
 17 14  1  0  0  0  0
 18 21  1  0  0  0  0
 21 19  1  0  0  0  0
 21 20  1  0  0  0  0
 23 24  1  0  0  0  0
 24 22  1  6  0  0  0
 24 25  1  0  0  0  0
 26 25  1  0  0  0  0
 27 23  1  1  0  0  0
 27 26  1  0  0  0  0
 28 35  1  0  0  0  0
 29 34  2  0  0  0  0
 30 27  1  1  0  0  0
 30 36  1  0  0  0  0
 31 34  1  1  0  0  0
 31 36  1  0  0  0  0
 32 35  2  0  0  0  0
 33 39  1  6  0  0  0
 33 30  1  0  0  0  0
 33 31  1  0  0  0  0
 34 28  1  0  0  0  0
 36 32  1  1  0  0  0
 37 39  2  0  0  0  0
 38 39  1  0  0  0  0
M  END
>  <MODEL>
9

>  <REMARK>
 VINA RESULT:      -6.9      2.562      7.863
  Name = 
  9 active torsions:
  status: ('A' for Active; 'I' for Inactive)
    1  A    between atoms: S_7  and  N_23
    2  A    between atoms: S_7  and  C_31
    3  A    between atoms: C_9  and  C_28
    4  A    between atoms: C_10  and  C_39
    5  A    between atoms: C_14  and  C_28
    6  A    between atoms: C_17  and  C_22
    7  A    between atoms: C_17  and  C_31
    8  A    between atoms: C_20  and  C_36
    9  A    between atoms: C_21  and  N_23
                            x       y       z     vdW  Elec       q    Type
                         _______ _______ _______ _____ _____    ______ ____

>  <TORSDO>
F 9

$$$$
