=
 OpenBabel11072408243D

 34 35  0  0  1  0  0  0  0  0999 V2000
  185.2330  178.9940  144.8020 C   0  0  0  0  0  0  0  0  0  0  0  0
  185.5230  178.7120  146.1810 N   0  0  0  0  0  2  0  0  0  0  0  0
  185.4830  180.1760  144.3450 N   0  0  0  0  0  2  0  0  0  0  0  0
  187.9990  176.1390  146.6290 C   0  0  0  0  0  3  0  0  0  0  0  0
  186.8690  176.7840  146.7060 C   0  0  0  0  0  0  0  0  0  0  0  0
  185.7360  177.4280  146.7850 C   0  0  0  0  0  3  0  0  0  0  0  0
  189.2760  176.8370  146.9430 C   0  0  0  0  0  2  0  0  0  0  0  0
  189.8550  177.4740  145.6880 C   0  0  0  0  0  2  0  0  0  0  0  0
  190.8250  176.5290  144.9840 C   0  0  2  0  0  3  0  0  0  0  0  0
  192.8670  176.5040  146.3830 N   0  0  0  0  0  2  0  0  0  0  0  0
  193.6490  174.5240  145.6560 C   0  0  0  0  0  2  0  0  0  0  0  0
  192.2000  174.5110  145.4660 C   0  0  0  0  0  0  0  0  0  0  0  0
  191.6740  175.7540  146.0050 C   0  0  2  0  0  3  0  0  0  0  0  0
  192.0930  172.3470  144.5180 O   0  0  0  0  0  1  0  0  0  0  0  0
  193.9340  175.6420  146.4660 O   0  0  0  0  0  0  0  0  0  0  0  0
  191.4820  173.5110  144.9670 C   0  0  0  0  0  3  0  0  0  0  0  0
  191.6380  177.2390  143.8940 C   0  0  0  0  0  2  0  0  0  0  0  0
  191.4870  176.6080  142.6570 O   0  0  0  0  0  1  0  0  0  0  0  0
  184.6840  177.9490  143.8660 C   0  0  1  0  0  3  0  0  0  0  0  0
  184.9960  178.2790  142.5320 O   0  0  0  0  0  0  0  0  0  0  0  0
  185.6890  177.1780  143.0620 C   0  0  1  0  0  3  0  0  0  0  0  0
  187.1510  177.5640  143.2540 C   0  0  0  0  0  2  0  0  0  0  0  0
  187.9120  177.3030  142.0030 C   0  0  0  0  0  0  0  0  0  0  0  0
  188.7310  178.1630  141.5830 O   0  0  0  0  0  0  0  0  0  0  0  0
  187.6910  176.1170  141.2970 O   0  0  0  0  0  0  0  0  0  0  0  0
  188.1620  174.8560  141.7590 C   0  0  0  0  0  2  0  0  0  0  0  0
  189.0990  174.2250  140.7320 C   0  0  1  0  0  3  0  0  0  0  0  0
  190.1110  173.3160  141.3600 C   0  0  0  0  0  0  0  0  0  0  0  0
  191.5050  173.5120  141.1390 N   0  0  0  0  0  1  0  0  0  0  0  0
  189.7260  172.3830  142.1110 O   0  0  0  0  0  0  0  0  0  0  0  0
  188.3370  173.5510  139.5870 C   0  0  0  0  0  2  0  0  0  0  0  0
  188.7160  174.0560  138.2260 C   0  0  0  0  0  0  0  0  0  0  0  0
  187.7580  174.9010  137.4600 C   0  0  0  0  0  1  0  0  0  0  0  0
  189.7870  173.7520  137.7290 O   0  0  0  0  0  0  0  0  0  0  0  0
  1  2  1  0  0  0  0
  2  6  1  0  0  0  0
  3  1  2  0  0  0  0
  4  5  2  0  0  0  0
  4  7  1  0  0  0  0
  5  6  2  0  0  0  0
  8  7  1  0  0  0  0
  9 17  1  6  0  0  0
  9  8  1  0  0  0  0
 10 15  1  0  0  0  0
 11 15  1  0  0  0  0
 12 11  1  0  0  0  0
 12 13  1  0  0  0  0
 13  9  1  6  0  0  0
 13 10  1  0  0  0  0
 14 16  1  0  0  0  0
 16 12  2  0  0  0  0
 18 17  1  0  0  0  0
 19  1  1  1  0  0  0
 20 21  1  0  0  0  0
 20 19  1  0  0  0  0
 21 22  1  1  0  0  0
 21 19  1  0  0  0  0
 23 22  1  0  0  0  0
 24 23  2  0  0  0  0
 25 26  1  0  0  0  0
 25 23  1  0  0  0  0
 27 31  1  6  0  0  0
 27 28  1  0  0  0  0
 27 26  1  0  0  0  0
 28 30  2  0  0  0  0
 29 28  1  0  0  0  0
 32 31  1  0  0  0  0
 33 32  1  0  0  0  0
 34 32  2  0  0  0  0
M  END
>  <MODEL>
1

>  <REMARK>
 VINA RESULT:      -5.8      0.000      0.000
  Name = 
  15 active torsions:
  status: ('A' for Active; 'I' for Inactive)
    1  A    between atoms: C_1  and  C_33
    2  A    between atoms: C_2  and  C_21
    3  A    between atoms: C_4  and  C_18
    4  A    between atoms: C_4  and  O_28
    5  A    between atoms: C_5  and  C_15
    6  A    between atoms: C_6  and  C_21
    7  A    between atoms: C_6  and  C_33
    8  A    between atoms: C_10  and  C_34
    9  A    between atoms: C_11  and  O_28
   10  A    between atoms: C_11  and  C_34
   11  A    between atoms: C_12  and  C_32
   12  A    between atoms: C_13  and  C_33
   13  A    between atoms: N_17  and  C_30
   14  A    between atoms: C_18  and  C_26
   15  A    between atoms: C_32  and  C_34
                            x       y       z     vdW  Elec       q    Type
                         _______ _______ _______ _____ _____    ______ ____

>  <TORSDO>
F 15

$$$$
=
 OpenBabel11072408243D

 34 35  0  0  1  0  0  0  0  0999 V2000
  185.2950  179.1590  144.9480 C   0  0  0  0  0  0  0  0  0  0  0  0
  185.6440  179.0740  146.3390 N   0  0  0  0  0  2  0  0  0  0  0  0
  185.5450  180.2560  144.3120 N   0  0  0  0  0  2  0  0  0  0  0  0
  187.7450  176.1620  146.5820 C   0  0  0  0  0  3  0  0  0  0  0  0
  186.8040  177.0240  146.8470 C   0  0  0  0  0  0  0  0  0  0  0  0
  185.8610  177.8870  147.1160 C   0  0  0  0  0  3  0  0  0  0  0  0
  189.1380  176.6320  146.3490 C   0  0  0  0  0  2  0  0  0  0  0  0
  190.1290  175.5100  146.6200 C   0  0  0  0  0  2  0  0  0  0  0  0
  191.3670  175.6370  145.7370 C   0  0  2  0  0  3  0  0  0  0  0  0
  193.4090  176.5160  146.8260 N   0  0  0  0  0  2  0  0  0  0  0  0
  194.8630  175.1680  145.7650 C   0  0  0  0  0  2  0  0  0  0  0  0
  193.5720  174.4840  145.7770 C   0  0  0  0  0  0  0  0  0  0  0  0
  192.6430  175.3100  146.5290 C   0  0  2  0  0  3  0  0  0  0  0  0
  194.2970  172.5650  144.5990 O   0  0  0  0  0  1  0  0  0  0  0  0
  194.7460  176.2540  146.6560 O   0  0  0  0  0  0  0  0  0  0  0  0
  193.3130  173.2850  145.2650 C   0  0  0  0  0  3  0  0  0  0  0  0
  191.4110  176.9770  144.9910 C   0  0  0  0  0  2  0  0  0  0  0  0
  191.9860  176.8340  143.7260 O   0  0  0  0  0  1  0  0  0  0  0  0
  184.6840  178.0030  144.2000 C   0  0  1  0  0  3  0  0  0  0  0  0
  184.7370  178.2400  142.8120 O   0  0  0  0  0  0  0  0  0  0  0  0
  185.5990  177.2380  143.2900 C   0  0  1  0  0  3  0  0  0  0  0  0
  187.0350  177.7390  143.1940 C   0  0  0  0  0  2  0  0  0  0  0  0
  187.7460  177.0320  142.0960 C   0  0  0  0  0  0  0  0  0  0  0  0
  187.2410  177.0070  140.9420 O   0  0  0  0  0  0  0  0  0  0  0  0
  188.9540  176.3830  142.3640 O   0  0  0  0  0  0  0  0  0  0  0  0
  189.0100  175.0770  142.9280 C   0  0  0  0  0  2  0  0  0  0  0  0
  188.9280  174.0160  141.8330 C   0  0  1  0  0  3  0  0  0  0  0  0
  190.2030  173.8900  141.0570 C   0  0  0  0  0  0  0  0  0  0  0  0
  190.2070  173.3400  139.7430 N   0  0  0  0  0  1  0  0  0  0  0  0
  191.2800  174.2960  141.5640 O   0  0  0  0  0  0  0  0  0  0  0  0
  188.4310  172.6690  142.3670 C   0  0  0  0  0  2  0  0  0  0  0  0
  189.4700  171.8960  143.1240 C   0  0  0  0  0  0  0  0  0  0  0  0
  189.7410  172.2240  144.5510 C   0  0  0  0  0  1  0  0  0  0  0  0
  190.1190  171.0240  142.5690 O   0  0  0  0  0  0  0  0  0  0  0  0
  1  2  1  0  0  0  0
  2  6  1  0  0  0  0
  3  1  2  0  0  0  0
  4  5  2  0  0  0  0
  5  6  2  0  0  0  0
  7  4  1  0  0  0  0
  7  8  1  0  0  0  0
  9 17  1  1  0  0  0
  9  8  1  0  0  0  0
 11 12  1  0  0  0  0
 11 15  1  0  0  0  0
 12 13  1  0  0  0  0
 13  9  1  6  0  0  0
 13 10  1  0  0  0  0
 14 16  1  0  0  0  0
 15 10  1  0  0  0  0
 16 12  2  0  0  0  0
 18 17  1  0  0  0  0
 19  1  1  1  0  0  0
 20 21  1  0  0  0  0
 20 19  1  0  0  0  0
 21 22  1  1  0  0  0
 21 19  1  0  0  0  0
 23 25  1  0  0  0  0
 23 22  1  0  0  0  0
 24 23  2  0  0  0  0
 25 26  1  0  0  0  0
 27 31  1  1  0  0  0
 27 26  1  0  0  0  0
 28 30  2  0  0  0  0
 28 27  1  0  0  0  0
 29 28  1  0  0  0  0
 31 32  1  0  0  0  0
 32 33  1  0  0  0  0
 34 32  2  0  0  0  0
M  END
>  <MODEL>
2

>  <REMARK>
 VINA RESULT:      -5.8      1.587      2.281
  Name = 
  15 active torsions:
  status: ('A' for Active; 'I' for Inactive)
    1  A    between atoms: C_1  and  C_33
    2  A    between atoms: C_2  and  C_21
    3  A    between atoms: C_4  and  C_18
    4  A    between atoms: C_4  and  O_28
    5  A    between atoms: C_5  and  C_15
    6  A    between atoms: C_6  and  C_21
    7  A    between atoms: C_6  and  C_33
    8  A    between atoms: C_10  and  C_34
    9  A    between atoms: C_11  and  O_28
   10  A    between atoms: C_11  and  C_34
   11  A    between atoms: C_12  and  C_32
   12  A    between atoms: C_13  and  C_33
   13  A    between atoms: N_17  and  C_30
   14  A    between atoms: C_18  and  C_26
   15  A    between atoms: C_32  and  C_34
                            x       y       z     vdW  Elec       q    Type
                         _______ _______ _______ _____ _____    ______ ____

>  <TORSDO>
F 15

$$$$
=
 OpenBabel11072408243D

 34 35  0  0  1  0  0  0  0  0999 V2000
  189.9220  172.6710  143.2080 C   0  0  0  0  0  0  0  0  0  0  0  0
  189.5130  173.0580  144.5300 N   0  0  0  0  0  2  0  0  0  0  0  0
  189.0250  172.2400  142.3830 N   0  0  0  0  0  2  0  0  0  0  0  0
  189.1420  176.1210  146.3840 C   0  0  0  0  0  3  0  0  0  0  0  0
  189.6700  175.0270  145.9100 C   0  0  0  0  0  0  0  0  0  0  0  0
  190.2010  173.9320  145.4380 C   0  0  0  0  0  3  0  0  0  0  0  0
  187.7730  176.0920  146.9690 C   0  0  0  0  0  2  0  0  0  0  0  0
  187.0830  177.4330  146.7700 C   0  0  0  0  0  2  0  0  0  0  0  0
  185.9100  177.3150  145.8010 C   0  0  2  0  0  3  0  0  0  0  0  0
  185.1600  178.9190  144.0720 N   0  0  0  0  0  2  0  0  0  0  0  0
  185.3950  177.5310  142.3190 C   0  0  0  0  0  2  0  0  0  0  0  0
  186.3130  177.0710  143.3570 C   0  0  0  0  0  0  0  0  0  0  0  0
  186.2280  178.0070  144.4670 C   0  0  2  0  0  3  0  0  0  0  0  0
  187.1620  175.2280  142.1410 O   0  0  0  0  0  1  0  0  0  0  0  0
  184.9450  178.8050  142.7200 O   0  0  0  0  0  0  0  0  0  0  0  0
  187.1380  176.0330  143.2740 C   0  0  0  0  0  3  0  0  0  0  0  0
  184.5840  177.7500  146.4400 C   0  0  0  0  0  2  0  0  0  0  0  0
  184.8020  178.5480  147.5650 O   0  0  0  0  0  1  0  0  0  0  0  0
  191.3500  172.7850  142.7420 C   0  0  1  0  0  3  0  0  0  0  0  0
  191.3910  173.0140  141.3520 O   0  0  0  0  0  0  0  0  0  0  0  0
  191.7580  174.1050  142.1580 C   0  0  1  0  0  3  0  0  0  0  0  0
  190.6720  175.1710  142.0660 C   0  0  0  0  0  2  0  0  0  0  0  0
  191.1200  176.4100  142.7570 C   0  0  0  0  0  0  0  0  0  0  0  0
  190.2790  177.3090  143.0280 O   0  0  0  0  0  0  0  0  0  0  0  0
  192.4700  176.5710  143.0760 O   0  0  0  0  0  0  0  0  0  0  0  0
  192.9070  176.9540  144.3760 C   0  0  0  0  0  2  0  0  0  0  0  0
  194.3210  176.4450  144.6380 C   0  0  1  0  0  3  0  0  0  0  0  0
  194.4110  175.6120  145.8810 C   0  0  0  0  0  0  0  0  0  0  0  0
  193.2750  175.4260  146.7190 N   0  0  0  0  0  1  0  0  0  0  0  0
  195.4980  175.0510  146.1730 O   0  0  0  0  0  0  0  0  0  0  0  0
  194.9220  175.7420  143.4170 C   0  0  0  0  0  2  0  0  0  0  0  0
  196.2000  176.3590  142.9290 C   0  0  0  0  0  0  0  0  0  0  0  0
  196.7950  175.9020  141.6430 C   0  0  0  0  0  1  0  0  0  0  0  0
  196.7720  177.2050  143.5950 O   0  0  0  0  0  0  0  0  0  0  0  0
  1  2  1  0  0  0  0
  2  6  1  0  0  0  0
  3  1  2  0  0  0  0
  4  7  1  0  0  0  0
  5  4  2  0  0  0  0
  6  5  2  0  0  0  0
  8  7  1  0  0  0  0
  9 17  1  1  0  0  0
  9  8  1  0  0  0  0
 10 13  1  0  0  0  0
 11 15  1  0  0  0  0
 11 12  1  0  0  0  0
 12 13  1  0  0  0  0
 13  9  1  1  0  0  0
 14 16  1  0  0  0  0
 15 10  1  0  0  0  0
 16 12  2  0  0  0  0
 17 18  1  0  0  0  0
 19  1  1  1  0  0  0
 20 21  1  0  0  0  0
 20 19  1  0  0  0  0
 21 22  1  1  0  0  0
 21 19  1  0  0  0  0
 22 23  1  0  0  0  0
 23 24  2  0  0  0  0
 23 25  1  0  0  0  0
 25 26  1  0  0  0  0
 26 27  1  0  0  0  0
 27 31  1  6  0  0  0
 27 28  1  0  0  0  0
 28 30  2  0  0  0  0
 28 29  1  0  0  0  0
 32 31  1  0  0  0  0
 32 34  2  0  0  0  0
 33 32  1  0  0  0  0
M  END
>  <MODEL>
3

>  <REMARK>
 VINA RESULT:      -5.7      2.306      6.933
  Name = 
  15 active torsions:
  status: ('A' for Active; 'I' for Inactive)
    1  A    between atoms: C_1  and  C_33
    2  A    between atoms: C_2  and  C_21
    3  A    between atoms: C_4  and  C_18
    4  A    between atoms: C_4  and  O_28
    5  A    between atoms: C_5  and  C_15
    6  A    between atoms: C_6  and  C_21
    7  A    between atoms: C_6  and  C_33
    8  A    between atoms: C_10  and  C_34
    9  A    between atoms: C_11  and  O_28
   10  A    between atoms: C_11  and  C_34
   11  A    between atoms: C_12  and  C_32
   12  A    between atoms: C_13  and  C_33
   13  A    between atoms: N_17  and  C_30
   14  A    between atoms: C_18  and  C_26
   15  A    between atoms: C_32  and  C_34
                            x       y       z     vdW  Elec       q    Type
                         _______ _______ _______ _____ _____    ______ ____

>  <TORSDO>
F 15

$$$$
=
 OpenBabel11072408243D

 34 35  0  0  1  0  0  0  0  0999 V2000
  189.8560  174.8860  146.1370 C   0  0  0  0  0  0  0  0  0  0  0  0
  189.7080  173.7160  145.3170 N   0  0  0  0  0  2  0  0  0  0  0  0
  189.5990  174.7950  147.4000 N   0  0  0  0  0  2  0  0  0  0  0  0
  189.1040  173.8860  141.7730 C   0  0  0  0  0  3  0  0  0  0  0  0
  189.7080  173.6710  142.9080 C   0  0  0  0  0  0  0  0  0  0  0  0
  190.3170  173.4570  144.0440 C   0  0  0  0  0  3  0  0  0  0  0  0
  188.4260  175.1880  141.5270 C   0  0  0  0  0  2  0  0  0  0  0  0
  187.4980  175.5310  142.6820 C   0  0  0  0  0  2  0  0  0  0  0  0
  187.6580  176.9880  143.1080 C   0  0  2  0  0  3  0  0  0  0  0  0
  186.1480  178.9390  142.9110 N   0  0  0  0  0  2  0  0  0  0  0  0
  185.8040  179.2180  145.1150 C   0  0  0  0  0  2  0  0  0  0  0  0
  186.1510  177.8150  144.9080 C   0  0  0  0  0  0  0  0  0  0  0  0
  186.2990  177.6030  143.4780 C   0  0  2  0  0  3  0  0  0  0  0  0
  186.0340  177.1910  147.1870 O   0  0  0  0  0  1  0  0  0  0  0  0
  185.5520  179.7580  143.8380 O   0  0  0  0  0  0  0  0  0  0  0  0
  186.2370  176.8790  145.8480 C   0  0  0  0  0  3  0  0  0  0  0  0
  188.4670  177.8040  142.0910 C   0  0  0  0  0  2  0  0  0  0  0  0
  189.7190  178.1530  142.6030 O   0  0  0  0  0  1  0  0  0  0  0  0
  190.3360  176.2020  145.5820 C   0  0  1  0  0  3  0  0  0  0  0  0
  191.0140  176.9320  146.5790 O   0  0  0  0  0  0  0  0  0  0  0  0
  191.8210  176.4120  145.5540 C   0  0  1  0  0  3  0  0  0  0  0  0
  192.6770  175.2870  146.1250 C   0  0  0  0  0  2  0  0  0  0  0  0
  194.0980  175.7200  146.1990 C   0  0  0  0  0  0  0  0  0  0  0  0
  194.3700  176.9140  146.4990 O   0  0  0  0  0  0  0  0  0  0  0  0
  195.1130  174.8040  145.9120 O   0  0  0  0  0  0  0  0  0  0  0  0
  196.0950  175.0430  144.9090 C   0  0  0  0  0  2  0  0  0  0  0  0
  195.4310  175.3910  143.5800 C   0  0  1  0  0  3  0  0  0  0  0  0
  196.1890  176.4330  142.8140 C   0  0  0  0  0  0  0  0  0  0  0  0
  195.7830  176.8150  141.5030 N   0  0  0  0  0  1  0  0  0  0  0  0
  197.1810  176.9940  143.3460 O   0  0  0  0  0  0  0  0  0  0  0  0
  195.1320  174.1470  142.7370 C   0  0  0  0  0  2  0  0  0  0  0  0
  193.6900  174.0120  142.3450 C   0  0  0  0  0  0  0  0  0  0  0  0
  193.1900  172.7160  141.8070 C   0  0  0  0  0  1  0  0  0  0  0  0
  192.9330  174.9650  142.4320 O   0  0  0  0  0  0  0  0  0  0  0  0
  1  3  2  0  0  0  0
  2  1  1  0  0  0  0
  4  5  2  0  0  0  0
  5  6  2  0  0  0  0
  6  2  1  0  0  0  0
  7  4  1  0  0  0  0
  7  8  1  0  0  0  0
  8  9  1  0  0  0  0
  9 17  1  6  0  0  0
 10 13  1  0  0  0  0
 10 15  1  0  0  0  0
 12 11  1  0  0  0  0
 12 16  2  0  0  0  0
 13  9  1  1  0  0  0
 13 12  1  0  0  0  0
 15 11  1  0  0  0  0
 16 14  1  0  0  0  0
 17 18  1  0  0  0  0
 19  1  1  1  0  0  0
 19 20  1  0  0  0  0
 21 19  1  0  0  0  0
 21 22  1  1  0  0  0
 21 20  1  0  0  0  0
 22 23  1  0  0  0  0
 23 24  2  0  0  0  0
 25 23  1  0  0  0  0
 26 25  1  0  0  0  0
 27 31  1  6  0  0  0
 27 26  1  0  0  0  0
 28 30  2  0  0  0  0
 28 27  1  0  0  0  0
 29 28  1  0  0  0  0
 32 34  2  0  0  0  0
 32 31  1  0  0  0  0
 33 32  1  0  0  0  0
M  END
>  <MODEL>
4

>  <REMARK>
 VINA RESULT:      -5.7      2.579      6.864
  Name = 
  15 active torsions:
  status: ('A' for Active; 'I' for Inactive)
    1  A    between atoms: C_1  and  C_33
    2  A    between atoms: C_2  and  C_21
    3  A    between atoms: C_4  and  C_18
    4  A    between atoms: C_4  and  O_28
    5  A    between atoms: C_5  and  C_15
    6  A    between atoms: C_6  and  C_21
    7  A    between atoms: C_6  and  C_33
    8  A    between atoms: C_10  and  C_34
    9  A    between atoms: C_11  and  O_28
   10  A    between atoms: C_11  and  C_34
   11  A    between atoms: C_12  and  C_32
   12  A    between atoms: C_13  and  C_33
   13  A    between atoms: N_17  and  C_30
   14  A    between atoms: C_18  and  C_26
   15  A    between atoms: C_32  and  C_34
                            x       y       z     vdW  Elec       q    Type
                         _______ _______ _______ _____ _____    ______ ____

>  <TORSDO>
F 15

$$$$
=
 OpenBabel11072408243D

 34 35  0  0  1  0  0  0  0  0999 V2000
  185.8960  178.4250  147.2020 C   0  0  0  0  0  0  0  0  0  0  0  0
  187.1020  177.6520  147.3130 N   0  0  0  0  0  2  0  0  0  0  0  0
  185.8990  179.6430  147.6320 N   0  0  0  0  0  2  0  0  0  0  0  0
  189.9120  175.5830  146.4320 C   0  0  0  0  0  3  0  0  0  0  0  0
  188.6920  176.0370  146.4940 C   0  0  0  0  0  0  0  0  0  0  0  0
  187.4680  176.4880  146.5560 C   0  0  0  0  0  3  0  0  0  0  0  0
  190.6990  175.3930  147.6810 C   0  0  0  0  0  2  0  0  0  0  0  0
  192.1270  174.9810  147.3530 C   0  0  0  0  0  2  0  0  0  0  0  0
  192.4910  175.3430  145.9160 C   0  0  2  0  0  3  0  0  0  0  0  0
  194.2950  174.6810  144.3560 N   0  0  0  0  0  2  0  0  0  0  0  0
  193.0220  173.3850  143.0310 C   0  0  0  0  0  2  0  0  0  0  0  0
  192.3830  173.4170  144.3430 C   0  0  0  0  0  0  0  0  0  0  0  0
  193.2380  174.1870  145.2310 C   0  0  2  0  0  3  0  0  0  0  0  0
  190.5480  172.0420  143.7600 O   0  0  0  0  0  1  0  0  0  0  0  0
  194.3070  173.9390  143.2000 O   0  0  0  0  0  0  0  0  0  0  0  0
  191.2640  172.7880  144.6890 C   0  0  0  0  0  3  0  0  0  0  0  0
  193.2020  176.7000  145.8220 C   0  0  0  0  0  2  0  0  0  0  0  0
  194.0130  176.9250  146.9370 O   0  0  0  0  0  1  0  0  0  0  0  0
  184.6440  177.8750  146.5700 C   0  0  1  0  0  3  0  0  0  0  0  0
  183.7850  178.9280  146.1960 O   0  0  0  0  0  0  0  0  0  0  0  0
  184.4030  178.2430  145.1360 C   0  0  1  0  0  3  0  0  0  0  0  0
  185.4320  179.1620  144.4900 C   0  0  0  0  0  2  0  0  0  0  0  0
  186.0940  178.4630  143.3560 C   0  0  0  0  0  0  0  0  0  0  0  0
  185.8980  178.8650  142.1780 O   0  0  0  0  0  0  0  0  0  0  0  0
  186.9060  177.3550  143.6090 O   0  0  0  0  0  0  0  0  0  0  0  0
  187.0790  176.3040  142.6650 C   0  0  0  0  0  2  0  0  0  0  0  0
  188.5600  176.0930  142.3620 C   0  0  1  0  0  3  0  0  0  0  0  0
  188.7850  175.1470  141.2220 C   0  0  0  0  0  0  0  0  0  0  0  0
  189.7920  174.1420  141.2940 N   0  0  0  0  0  1  0  0  0  0  0  0
  188.0590  175.2280  140.1970 O   0  0  0  0  0  0  0  0  0  0  0  0
  189.3100  177.4170  142.1810 C   0  0  0  0  0  2  0  0  0  0  0  0
  190.4890  177.5770  143.0950 C   0  0  0  0  0  0  0  0  0  0  0  0
  191.7790  176.9150  142.7570 C   0  0  0  0  0  1  0  0  0  0  0  0
  190.3880  178.2150  144.1300 O   0  0  0  0  0  0  0  0  0  0  0  0
  1  2  1  0  0  0  0
  1  3  2  0  0  0  0
  4  5  2  0  0  0  0
  4  7  1  0  0  0  0
  5  6  2  0  0  0  0
  6  2  1  0  0  0  0
  8  7  1  0  0  0  0
  9 17  1  1  0  0  0
  9  8  1  0  0  0  0
 10 13  1  0  0  0  0
 11 15  1  0  0  0  0
 11 12  1  0  0  0  0
 12 16  2  0  0  0  0
 12 13  1  0  0  0  0
 13  9  1  6  0  0  0
 14 16  1  0  0  0  0
 15 10  1  0  0  0  0
 17 18  1  0  0  0  0
 19  1  1  1  0  0  0
 20 19  1  0  0  0  0
 21 22  1  1  0  0  0
 21 20  1  0  0  0  0
 21 19  1  0  0  0  0
 23 25  1  0  0  0  0
 23 22  1  0  0  0  0
 24 23  2  0  0  0  0
 26 25  1  0  0  0  0
 27 31  1  6  0  0  0
 27 26  1  0  0  0  0
 28 29  1  0  0  0  0
 28 27  1  0  0  0  0
 30 28  2  0  0  0  0
 31 32  1  0  0  0  0
 32 34  2  0  0  0  0
 33 32  1  0  0  0  0
M  END
>  <MODEL>
5

>  <REMARK>
 VINA RESULT:      -5.6      1.922      3.420
  Name = 
  15 active torsions:
  status: ('A' for Active; 'I' for Inactive)
    1  A    between atoms: C_1  and  C_33
    2  A    between atoms: C_2  and  C_21
    3  A    between atoms: C_4  and  C_18
    4  A    between atoms: C_4  and  O_28
    5  A    between atoms: C_5  and  C_15
    6  A    between atoms: C_6  and  C_21
    7  A    between atoms: C_6  and  C_33
    8  A    between atoms: C_10  and  C_34
    9  A    between atoms: C_11  and  O_28
   10  A    between atoms: C_11  and  C_34
   11  A    between atoms: C_12  and  C_32
   12  A    between atoms: C_13  and  C_33
   13  A    between atoms: N_17  and  C_30
   14  A    between atoms: C_18  and  C_26
   15  A    between atoms: C_32  and  C_34
                            x       y       z     vdW  Elec       q    Type
                         _______ _______ _______ _____ _____    ______ ____

>  <TORSDO>
F 15

$$$$
=
 OpenBabel11072408243D

 34 35  0  0  1  0  0  0  0  0999 V2000
  190.0080  172.6990  143.2880 C   0  0  0  0  0  0  0  0  0  0  0  0
  189.7010  173.1000  144.6330 N   0  0  0  0  0  2  0  0  0  0  0  0
  189.6770  171.5100  142.9040 N   0  0  0  0  0  2  0  0  0  0  0  0
  191.0350  175.3590  147.0960 C   0  0  0  0  0  3  0  0  0  0  0  0
  190.3060  174.8970  146.1200 C   0  0  0  0  0  0  0  0  0  0  0  0
  189.5750  174.4360  145.1400 C   0  0  0  0  0  3  0  0  0  0  0  0
  192.5130  175.1820  147.0680 C   0  0  0  0  0  2  0  0  0  0  0  0
  193.1570  176.2370  146.1810 C   0  0  0  0  0  2  0  0  0  0  0  0
  193.9010  175.5990  145.0110 C   0  0  2  0  0  3  0  0  0  0  0  0
  195.8150  176.6780  143.8740 N   0  0  0  0  0  2  0  0  0  0  0  0
  197.1900  174.9000  143.9460 C   0  0  0  0  0  2  0  0  0  0  0  0
  196.2430  174.7570  145.0480 C   0  0  0  0  0  0  0  0  0  0  0  0
  195.3980  175.9400  145.0610 C   0  0  2  0  0  3  0  0  0  0  0  0
  197.0980  172.7010  145.8460 O   0  0  0  0  0  1  0  0  0  0  0  0
  197.0410  176.2150  143.4610 O   0  0  0  0  0  0  0  0  0  0  0  0
  196.2090  173.7650  145.9330 C   0  0  0  0  0  3  0  0  0  0  0  0
  193.2270  175.8960  143.6650 C   0  0  0  0  0  2  0  0  0  0  0  0
  192.1530  176.7750  143.8190 O   0  0  0  0  0  1  0  0  0  0  0  0
  190.6680  173.6280  142.3030 C   0  0  1  0  0  3  0  0  0  0  0  0
  190.2720  173.3050  140.9890 O   0  0  0  0  0  0  0  0  0  0  0  0
  189.7560  174.5080  141.5000 C   0  0  1  0  0  3  0  0  0  0  0  0
  188.2610  174.3370  141.7450 C   0  0  0  0  0  2  0  0  0  0  0  0
  187.6190  175.6690  141.9070 C   0  0  0  0  0  0  0  0  0  0  0  0
  187.4590  176.4090  140.8990 O   0  0  0  0  0  0  0  0  0  0  0  0
  187.2230  176.0920  143.1780 O   0  0  0  0  0  0  0  0  0  0  0  0
  187.4500  177.4180  143.6450 C   0  0  0  0  0  2  0  0  0  0  0  0
  186.1820  177.9880  144.2760 C   0  0  1  0  0  3  0  0  0  0  0  0
  185.2470  178.5720  143.2610 C   0  0  0  0  0  0  0  0  0  0  0  0
  183.8790  178.8100  143.5800 N   0  0  0  0  0  1  0  0  0  0  0  0
  185.6820  178.8780  142.1210 O   0  0  0  0  0  0  0  0  0  0  0  0
  185.4900  176.9810  145.2000 C   0  0  0  0  0  2  0  0  0  0  0  0
  185.3450  177.4560  146.6150 C   0  0  0  0  0  0  0  0  0  0  0  0
  186.2770  176.9510  147.6620 C   0  0  0  0  0  1  0  0  0  0  0  0
  184.4490  178.2250  146.9220 O   0  0  0  0  0  0  0  0  0  0  0  0
  1  2  1  0  0  0  0
  2  6  1  0  0  0  0
  3  1  2  0  0  0  0
  5  4  2  0  0  0  0
  6  5  2  0  0  0  0
  7  4  1  0  0  0  0
  8  7  1  0  0  0  0
  9 17  1  6  0  0  0
  9  8  1  0  0  0  0
 10 13  1  0  0  0  0
 11 12  1  0  0  0  0
 12 13  1  0  0  0  0
 12 16  2  0  0  0  0
 13  9  1  6  0  0  0
 14 16  1  0  0  0  0
 15 10  1  0  0  0  0
 15 11  1  0  0  0  0
 17 18  1  0  0  0  0
 19  1  1  1  0  0  0
 20 21  1  0  0  0  0
 20 19  1  0  0  0  0
 21 22  1  1  0  0  0
 21 19  1  0  0  0  0
 22 23  1  0  0  0  0
 23 25  1  0  0  0  0
 24 23  2  0  0  0  0
 25 26  1  0  0  0  0
 27 26  1  6  0  0  0
 27 31  1  0  0  0  0
 28 29  1  0  0  0  0
 28 27  1  0  0  0  0
 30 28  2  0  0  0  0
 31 32  1  0  0  0  0
 32 34  2  0  0  0  0
 32 33  1  0  0  0  0
M  END
>  <MODEL>
6

>  <REMARK>
 VINA RESULT:      -5.6      2.323      6.039
  Name = 
  15 active torsions:
  status: ('A' for Active; 'I' for Inactive)
    1  A    between atoms: C_1  and  C_33
    2  A    between atoms: C_2  and  C_21
    3  A    between atoms: C_4  and  C_18
    4  A    between atoms: C_4  and  O_28
    5  A    between atoms: C_5  and  C_15
    6  A    between atoms: C_6  and  C_21
    7  A    between atoms: C_6  and  C_33
    8  A    between atoms: C_10  and  C_34
    9  A    between atoms: C_11  and  O_28
   10  A    between atoms: C_11  and  C_34
   11  A    between atoms: C_12  and  C_32
   12  A    between atoms: C_13  and  C_33
   13  A    between atoms: N_17  and  C_30
   14  A    between atoms: C_18  and  C_26
   15  A    between atoms: C_32  and  C_34
                            x       y       z     vdW  Elec       q    Type
                         _______ _______ _______ _____ _____    ______ ____

>  <TORSDO>
F 15

$$$$
=
 OpenBabel11072408243D

 34 35  0  0  1  0  0  0  0  0999 V2000
  189.8560  173.2950  142.5290 C   0  0  0  0  0  0  0  0  0  0  0  0
  190.8360  174.0380  143.2720 N   0  0  0  0  0  2  0  0  0  0  0  0
  189.2020  172.3570  143.1290 N   0  0  0  0  0  2  0  0  0  0  0  0
  192.3310  176.9330  144.8010 C   0  0  0  0  0  3  0  0  0  0  0  0
  191.8420  176.1380  143.8910 C   0  0  0  0  0  0  0  0  0  0  0  0
  191.3540  175.3430  142.9770 C   0  0  0  0  0  3  0  0  0  0  0  0
  193.3350  176.4200  145.7730 C   0  0  0  0  0  2  0  0  0  0  0  0
  194.7460  176.6580  145.2560 C   0  0  0  0  0  2  0  0  0  0  0  0
  195.3480  175.3800  144.6790 C   0  0  2  0  0  3  0  0  0  0  0  0
  196.9000  173.9730  145.9960 N   0  0  0  0  0  2  0  0  0  0  0  0
  195.9220  172.0040  145.5240 C   0  0  0  0  0  2  0  0  0  0  0  0
  194.8990  173.0370  145.3880 C   0  0  0  0  0  0  0  0  0  0  0  0
  195.4990  174.3050  145.7670 C   0  0  2  0  0  3  0  0  0  0  0  0
  193.1520  171.5730  144.7520 O   0  0  0  0  0  1  0  0  0  0  0  0
  197.0210  172.6150  146.1610 O   0  0  0  0  0  0  0  0  0  0  0  0
  193.6260  172.8430  145.0570 C   0  0  0  0  0  3  0  0  0  0  0  0
  196.6270  175.6520  143.8760 C   0  0  0  0  0  2  0  0  0  0  0  0
  196.6010  176.9230  143.2980 O   0  0  0  0  0  1  0  0  0  0  0  0
  189.5420  173.5990  141.0870 C   0  0  1  0  0  3  0  0  0  0  0  0
  188.2260  173.1950  140.7810 O   0  0  0  0  0  0  0  0  0  0  0  0
  188.4370  174.5830  140.8370 C   0  0  1  0  0  3  0  0  0  0  0  0
  187.7320  175.1370  142.0690 C   0  0  0  0  0  2  0  0  0  0  0  0
  187.3130  176.5430  141.8220 C   0  0  0  0  0  0  0  0  0  0  0  0
  187.0830  176.9250  140.6440 O   0  0  0  0  0  0  0  0  0  0  0  0
  187.2010  177.4270  142.8980 O   0  0  0  0  0  0  0  0  0  0  0  0
  188.2150  177.5550  143.8890 C   0  0  0  0  0  2  0  0  0  0  0  0
  187.7110  177.0510  145.2390 C   0  0  1  0  0  3  0  0  0  0  0  0
  188.7920  176.4000  146.0490 C   0  0  0  0  0  0  0  0  0  0  0  0
  189.5400  177.1480  147.0040 N   0  0  0  0  0  1  0  0  0  0  0  0
  189.0240  175.1730  145.9000 O   0  0  0  0  0  0  0  0  0  0  0  0
  186.9650  178.1360  146.0230 C   0  0  0  0  0  2  0  0  0  0  0  0
  185.8320  177.6130  146.8540 C   0  0  0  0  0  0  0  0  0  0  0  0
  184.4340  177.7330  146.3540 C   0  0  0  0  0  1  0  0  0  0  0  0
  186.0430  177.1220  147.9500 O   0  0  0  0  0  0  0  0  0  0  0  0
  1  3  2  0  0  0  0
  1  2  1  0  0  0  0
  4  7  1  0  0  0  0
  5  4  2  0  0  0  0
  6  2  1  0  0  0  0
  6  5  2  0  0  0  0
  8  7  1  0  0  0  0
  9 17  1  1  0  0  0
  9  8  1  0  0  0  0
 10 15  1  0  0  0  0
 11 15  1  0  0  0  0
 12 11  1  0  0  0  0
 12 13  1  0  0  0  0
 13  9  1  6  0  0  0
 13 10  1  0  0  0  0
 14 16  1  0  0  0  0
 16 12  2  0  0  0  0
 18 17  1  0  0  0  0
 19  1  1  1  0  0  0
 20 21  1  0  0  0  0
 20 19  1  0  0  0  0
 21 19  1  0  0  0  0
 21 22  1  1  0  0  0
 23 22  1  0  0  0  0
 23 25  1  0  0  0  0
 24 23  2  0  0  0  0
 25 26  1  0  0  0  0
 27 26  1  6  0  0  0
 27 31  1  0  0  0  0
 27 28  1  0  0  0  0
 28 29  1  0  0  0  0
 30 28  2  0  0  0  0
 31 32  1  0  0  0  0
 32 34  2  0  0  0  0
 33 32  1  0  0  0  0
M  END
>  <MODEL>
7

>  <REMARK>
 VINA RESULT:      -5.5      2.549      5.865
  Name = 
  15 active torsions:
  status: ('A' for Active; 'I' for Inactive)
    1  A    between atoms: C_1  and  C_33
    2  A    between atoms: C_2  and  C_21
    3  A    between atoms: C_4  and  C_18
    4  A    between atoms: C_4  and  O_28
    5  A    between atoms: C_5  and  C_15
    6  A    between atoms: C_6  and  C_21
    7  A    between atoms: C_6  and  C_33
    8  A    between atoms: C_10  and  C_34
    9  A    between atoms: C_11  and  O_28
   10  A    between atoms: C_11  and  C_34
   11  A    between atoms: C_12  and  C_32
   12  A    between atoms: C_13  and  C_33
   13  A    between atoms: N_17  and  C_30
   14  A    between atoms: C_18  and  C_26
   15  A    between atoms: C_32  and  C_34
                            x       y       z     vdW  Elec       q    Type
                         _______ _______ _______ _____ _____    ______ ____

>  <TORSDO>
F 15

$$$$
=
 OpenBabel11072408243D

 34 35  0  0  1  0  0  0  0  0999 V2000
  185.8090  178.4210  145.9060 C   0  0  0  0  0  0  0  0  0  0  0  0
  186.5690  177.7200  146.9040 N   0  0  0  0  0  2  0  0  0  0  0  0
  185.8680  179.7110  145.8740 N   0  0  0  0  0  2  0  0  0  0  0  0
  189.5000  175.6440  146.6800 C   0  0  0  0  0  3  0  0  0  0  0  0
  188.2490  175.9980  146.7780 C   0  0  0  0  0  0  0  0  0  0  0  0
  186.9960  176.3500  146.8770 C   0  0  0  0  0  3  0  0  0  0  0  0
  190.5190  176.2620  147.5720 C   0  0  0  0  0  2  0  0  0  0  0  0
  191.8690  175.5870  147.3830 C   0  0  0  0  0  2  0  0  0  0  0  0
  192.6710  176.2530  146.2690 C   0  0  2  0  0  3  0  0  0  0  0  0
  193.6020  174.8640  144.4440 N   0  0  0  0  0  2  0  0  0  0  0  0
  193.0500  176.2510  142.7620 C   0  0  0  0  0  2  0  0  0  0  0  0
  192.1170  176.5080  143.8560 C   0  0  0  0  0  0  0  0  0  0  0  0
  192.4130  175.5630  144.9200 C   0  0  2  0  0  3  0  0  0  0  0  0
  190.9090  178.2180  142.7550 O   0  0  0  0  0  1  0  0  0  0  0  0
  193.7290  175.0610  143.0900 O   0  0  0  0  0  0  0  0  0  0  0  0
  191.1230  177.3910  143.8510 C   0  0  0  0  0  3  0  0  0  0  0  0
  194.1550  176.4000  146.6310 C   0  0  0  0  0  2  0  0  0  0  0  0
  194.7020  177.5560  146.0680 O   0  0  0  0  0  1  0  0  0  0  0  0
  184.9780  177.7010  144.8760 C   0  0  1  0  0  3  0  0  0  0  0  0
  184.7710  178.5280  143.7540 O   0  0  0  0  0  0  0  0  0  0  0  0
  185.6340  177.4380  143.5530 C   0  0  1  0  0  3  0  0  0  0  0  0
  187.0560  177.9630  143.3850 C   0  0  0  0  0  2  0  0  0  0  0  0
  187.5240  177.7190  141.9950 C   0  0  0  0  0  0  0  0  0  0  0  0
  188.0670  178.6540  141.3480 O   0  0  0  0  0  0  0  0  0  0  0  0
  187.3360  176.4620  141.4150 O   0  0  0  0  0  0  0  0  0  0  0  0
  188.3780  175.4940  141.3350 C   0  0  0  0  0  2  0  0  0  0  0  0
  188.1440  174.3690  142.3390 C   0  0  1  0  0  3  0  0  0  0  0  0
  187.8150  173.0660  141.6760 C   0  0  0  0  0  0  0  0  0  0  0  0
  188.1770  172.8250  140.3190 N   0  0  0  0  0  1  0  0  0  0  0  0
  187.2340  172.1650  142.3340 O   0  0  0  0  0  0  0  0  0  0  0  0
  189.2910  174.2410  143.3460 C   0  0  0  0  0  2  0  0  0  0  0  0
  190.3790  173.3050  142.9110 C   0  0  0  0  0  0  0  0  0  0  0  0
  190.6500  172.0710  143.7000 C   0  0  0  0  0  1  0  0  0  0  0  0
  191.0650  173.5630  141.9350 O   0  0  0  0  0  0  0  0  0  0  0  0
  1  2  1  0  0  0  0
  3  1  2  0  0  0  0
  4  5  2  0  0  0  0
  4  7  1  0  0  0  0
  5  6  2  0  0  0  0
  6  2  1  0  0  0  0
  8  7  1  0  0  0  0
  9 17  1  1  0  0  0
  9  8  1  0  0  0  0
 10 13  1  0  0  0  0
 11 15  1  0  0  0  0
 11 12  1  0  0  0  0
 12 13  1  0  0  0  0
 13  9  1  1  0  0  0
 14 16  1  0  0  0  0
 15 10  1  0  0  0  0
 16 12  2  0  0  0  0
 18 17  1  0  0  0  0
 19  1  1  1  0  0  0
 20 19  1  0  0  0  0
 21 22  1  1  0  0  0
 21 20  1  0  0  0  0
 21 19  1  0  0  0  0
 23 22  1  0  0  0  0
 24 23  2  0  0  0  0
 25 23  1  0  0  0  0
 26 25  1  0  0  0  0
 27 26  1  6  0  0  0
 27 31  1  0  0  0  0
 28 30  2  0  0  0  0
 28 27  1  0  0  0  0
 29 28  1  0  0  0  0
 32 31  1  0  0  0  0
 32 33  1  0  0  0  0
 34 32  2  0  0  0  0
M  END
>  <MODEL>
8

>  <REMARK>
 VINA RESULT:      -5.5      1.936      3.033
  Name = 
  15 active torsions:
  status: ('A' for Active; 'I' for Inactive)
    1  A    between atoms: C_1  and  C_33
    2  A    between atoms: C_2  and  C_21
    3  A    between atoms: C_4  and  C_18
    4  A    between atoms: C_4  and  O_28
    5  A    between atoms: C_5  and  C_15
    6  A    between atoms: C_6  and  C_21
    7  A    between atoms: C_6  and  C_33
    8  A    between atoms: C_10  and  C_34
    9  A    between atoms: C_11  and  O_28
   10  A    between atoms: C_11  and  C_34
   11  A    between atoms: C_12  and  C_32
   12  A    between atoms: C_13  and  C_33
   13  A    between atoms: N_17  and  C_30
   14  A    between atoms: C_18  and  C_26
   15  A    between atoms: C_32  and  C_34
                            x       y       z     vdW  Elec       q    Type
                         _______ _______ _______ _____ _____    ______ ____

>  <TORSDO>
F 15

$$$$
=
 OpenBabel11072408243D

 34 35  0  0  1  0  0  0  0  0999 V2000
  191.3850  172.6000  143.3730 C   0  0  0  0  0  0  0  0  0  0  0  0
  190.5230  172.4250  144.5090 N   0  0  0  0  0  2  0  0  0  0  0  0
  191.8070  171.5510  142.7460 N   0  0  0  0  0  2  0  0  0  0  0  0
  190.3400  175.1400  146.8640 C   0  0  0  0  0  3  0  0  0  0  0  0
  189.9800  174.2610  145.9710 C   0  0  0  0  0  0  0  0  0  0  0  0
  189.6170  173.3830  145.0760 C   0  0  0  0  0  3  0  0  0  0  0  0
  191.5580  175.9680  146.6430 C   0  0  0  0  0  2  0  0  0  0  0  0
  192.7540  175.0810  146.3320 C   0  0  0  0  0  2  0  0  0  0  0  0
  193.8450  175.8570  145.5990 C   0  0  2  0  0  3  0  0  0  0  0  0
  195.9380  174.5440  145.7420 N   0  0  0  0  0  2  0  0  0  0  0  0
  196.8860  175.3740  143.8800 C   0  0  0  0  0  2  0  0  0  0  0  0
  195.4410  175.5060  143.7220 C   0  0  0  0  0  0  0  0  0  0  0  0
  194.8130  174.9000  144.8850 C   0  0  2  0  0  3  0  0  0  0  0  0
  195.5160  176.5280  141.5900 O   0  0  0  0  0  1  0  0  0  0  0  0
  197.0900  174.5360  144.9940 O   0  0  0  0  0  0  0  0  0  0  0  0
  194.8080  176.0120  142.6680 C   0  0  0  0  0  3  0  0  0  0  0  0
  194.5280  176.8910  146.5030 C   0  0  0  0  0  2  0  0  0  0  0  0
  194.9140  178.0220  145.7790 O   0  0  0  0  0  1  0  0  0  0  0  0
  191.7810  173.9630  142.8660 C   0  0  1  0  0  3  0  0  0  0  0  0
  191.9600  173.9290  141.4690 O   0  0  0  0  0  0  0  0  0  0  0  0
  190.8260  174.6260  141.9180 C   0  0  1  0  0  3  0  0  0  0  0  0
  189.5800  173.8320  141.5440 C   0  0  0  0  0  2  0  0  0  0  0  0
  188.3960  174.7310  141.5180 C   0  0  0  0  0  0  0  0  0  0  0  0
  188.1300  175.3790  140.4700 O   0  0  0  0  0  0  0  0  0  0  0  0
  187.6060  174.8640  142.6630 O   0  0  0  0  0  0  0  0  0  0  0  0
  186.5600  175.8240  142.7610 C   0  0  0  0  0  2  0  0  0  0  0  0
  186.9080  176.8940  143.7920 C   0  0  1  0  0  3  0  0  0  0  0  0
  188.1560  177.6460  143.4410 C   0  0  0  0  0  0  0  0  0  0  0  0
  189.3350  177.5140  144.2300 N   0  0  0  0  0  1  0  0  0  0  0  0
  188.1690  178.3840  142.4230 O   0  0  0  0  0  0  0  0  0  0  0  0
  185.7270  177.8240  144.0850 C   0  0  0  0  0  2  0  0  0  0  0  0
  185.1250  177.6300  145.4450 C   0  0  0  0  0  0  0  0  0  0  0  0
  184.0530  178.5510  145.9160 C   0  0  0  0  0  1  0  0  0  0  0  0
  185.5310  176.7460  146.1810 O   0  0  0  0  0  0  0  0  0  0  0  0
  1  2  1  0  0  0  0
  2  6  1  0  0  0  0
  3  1  2  0  0  0  0
  5  4  2  0  0  0  0
  6  5  2  0  0  0  0
  7  4  1  0  0  0  0
  8  7  1  0  0  0  0
  9  8  1  1  0  0  0
  9 17  1  0  0  0  0
 11 15  1  0  0  0  0
 12 11  1  0  0  0  0
 12 13  1  0  0  0  0
 13  9  1  1  0  0  0
 13 10  1  0  0  0  0
 14 16  1  0  0  0  0
 15 10  1  0  0  0  0
 16 12  2  0  0  0  0
 18 17  1  0  0  0  0
 19  1  1  6  0  0  0
 20 21  1  0  0  0  0
 20 19  1  0  0  0  0
 21 22  1  6  0  0  0
 21 19  1  0  0  0  0
 23 22  1  0  0  0  0
 23 25  1  0  0  0  0
 24 23  2  0  0  0  0
 25 26  1  0  0  0  0
 27 26  1  6  0  0  0
 27 31  1  0  0  0  0
 28 27  1  0  0  0  0
 28 29  1  0  0  0  0
 30 28  2  0  0  0  0
 31 32  1  0  0  0  0
 32 33  1  0  0  0  0
 32 34  2  0  0  0  0
M  END
>  <MODEL>
9

>  <REMARK>
 VINA RESULT:      -5.4      2.483      5.877
  Name = 
  15 active torsions:
  status: ('A' for Active; 'I' for Inactive)
    1  A    between atoms: C_1  and  C_33
    2  A    between atoms: C_2  and  C_21
    3  A    between atoms: C_4  and  C_18
    4  A    between atoms: C_4  and  O_28
    5  A    between atoms: C_5  and  C_15
    6  A    between atoms: C_6  and  C_21
    7  A    between atoms: C_6  and  C_33
    8  A    between atoms: C_10  and  C_34
    9  A    between atoms: C_11  and  O_28
   10  A    between atoms: C_11  and  C_34
   11  A    between atoms: C_12  and  C_32
   12  A    between atoms: C_13  and  C_33
   13  A    between atoms: N_17  and  C_30
   14  A    between atoms: C_18  and  C_26
   15  A    between atoms: C_32  and  C_34
                            x       y       z     vdW  Elec       q    Type
                         _______ _______ _______ _____ _____    ______ ____

>  <TORSDO>
F 15

$$$$
