=
 OpenBabel11062421143D

 33 37  0  0  1  0  0  0  0  0999 V2000
  187.6660  176.3780  144.3440 C   0  0  0  0  0  0  0  0  0  0  0  0
  184.8490  178.2220  145.1940 C   0  0  0  0  0  3  0  0  0  0  0  0
  186.5170  176.7770  146.2500 C   0  0  1  0  0  3  0  0  0  0  0  0
  186.2370  177.4030  147.5450 C   0  0  0  0  0  3  0  0  0  0  0  0
  185.5350  176.8840  145.1290 C   0  0  2  0  0  3  0  0  0  0  0  0
  186.0480  176.9100  142.6330 O   0  0  0  0  0  1  0  0  0  0  0  0
  185.3440  178.3980  147.5540 C   0  0  0  0  0  3  0  0  0  0  0  0
  187.7200  176.4470  145.8020 C   0  0  0  0  0  0  0  0  0  0  0  0
  186.4380  176.7150  143.9530 C   0  0  1  0  0  3  0  0  0  0  0  0
  184.7350  178.8590  146.3280 N   0  0  0  0  0  0  0  0  0  0  0  0
  188.9000  176.4500  146.6120 N   0  0  0  0  0  2  0  0  0  0  0  0
  189.6350  175.2440  146.9690 C   0  0  2  0  0  3  0  0  0  0  0  0
  188.8460  174.4290  147.7850 O   0  0  0  0  0  1  0  0  0  0  0  0
  190.9510  175.6080  147.6590 C   0  0  2  0  0  3  0  0  0  0  0  0
  190.9530  177.0040  148.0680 N   0  0  0  0  0  1  0  0  0  0  0  0
  192.2020  175.2800  146.8380 C   0  0  0  0  0  2  0  0  0  0  0  0
  192.4630  176.6430  144.8760 C   0  0  0  0  0  2  0  0  0  0  0  0
  193.2950  174.6670  141.6720 C   0  0  0  0  0  2  0  0  0  0  0  0
  192.8240  176.4860  146.2940 N   0  0  0  0  0  0  0  0  0  0  0  0
  193.0600  175.5400  144.0000 C   0  0  2  0  0  3  0  0  0  0  0  0
  194.5810  175.5330  144.1580 C   0  0  1  0  0  3  0  0  0  0  0  0
  192.6850  175.7650  142.5390 C   0  0  0  0  0  2  0  0  0  0  0  0
  194.2830  176.4180  146.4700 C   0  0  0  0  0  2  0  0  0  0  0  0
  194.9310  175.3180  145.6200 C   0  0  0  0  0  2  0  0  0  0  0  0
  195.1880  174.4270  143.3010 C   0  0  0  0  0  2  0  0  0  0  0  0
  194.8140  174.6400  141.8350 C   0  0  0  0  0  2  0  0  0  0  0  0
  188.8110  176.2430  143.4900 N   0  0  0  0  0  2  0  0  0  0  0  0
  190.3430  172.7520  142.9870 C   0  0  0  0  0  2  0  0  0  0  0  0
  189.6540  173.8860  143.7440 C   0  0  0  0  0  2  0  0  0  0  0  0
  189.1240  174.8780  141.5310 C   0  0  0  0  0  3  0  0  0  0  0  0
  189.2580  175.0390  142.8570 C   0  0  0  0  0  0  0  0  0  0  0  0
  189.5490  172.4180  141.7340 C   0  0  0  0  0  2  0  0  0  0  0  0
  189.5580  173.6310  140.8110 C   0  0  0  0  0  2  0  0  0  0  0  0
  1  8  2  0  0  0  0
  2 10  2  0  0  0  0
  3  4  1  6  0  0  0
  4  7  2  0  0  0  0
  5  2  1  6  0  0  0
  5  3  1  0  0  0  0
  8  3  1  0  0  0  0
  8 11  1  0  0  0  0
  9  6  1  1  0  0  0
  9  1  1  0  0  0  0
  9  5  1  0  0  0  0
 10  7  1  0  0  0  0
 11 12  1  0  0  0  0
 12 14  1  0  0  0  0
 12 13  1  1  0  0  0
 14 15  1  6  0  0  0
 16 14  1  0  0  0  0
 17 19  1  0  0  0  0
 18 26  1  0  0  0  0
 18 22  1  0  0  0  0
 19 23  1  0  0  0  0
 19 16  1  0  0  0  0
 20 22  1  6  0  0  0
 20 21  1  0  0  0  0
 20 17  1  0  0  0  0
 21 25  1  6  0  0  0
 21 24  1  0  0  0  0
 24 23  1  0  0  0  0
 26 25  1  0  0  0  0
 27  1  1  0  0  0  0
 28 29  1  0  0  0  0
 30 31  2  0  0  0  0
 31 27  1  0  0  0  0
 31 29  1  0  0  0  0
 32 28  1  0  0  0  0
 33 30  1  0  0  0  0
 33 32  1  0  0  0  0
M  END
>  <MODEL>
1

>  <REMARK>
 VINA RESULT:      -7.6      0.000      0.000
  Name = 
  7 active torsions:
  status: ('A' for Active; 'I' for Inactive)
    1  A    between atoms: C_1  and  N_24
    2  A    between atoms: C_4  and  C_7
    3  A    between atoms: C_4  and  N_21
    4  A    between atoms: C_7  and  C_9
    5  A    between atoms: C_9  and  N_15
    6  A    between atoms: C_20  and  N_24
    7  A    between atoms: N_21  and  C_22
                            x       y       z     vdW  Elec       q    Type
                         _______ _______ _______ _____ _____    ______ ____

>  <TORSDO>
F 7

$$$$
=
 OpenBabel11062421143D

 33 37  0  0  1  0  0  0  0  0999 V2000
  187.5220  176.8940  145.1200 C   0  0  0  0  0  0  0  0  0  0  0  0
  184.7360  178.9020  145.6320 C   0  0  0  0  0  3  0  0  0  0  0  0
  186.1170  178.0670  143.7940 C   0  0  1  0  0  3  0  0  0  0  0  0
  185.0020  178.2730  142.8650 C   0  0  0  0  0  3  0  0  0  0  0  0
  186.1420  178.7670  145.1130 C   0  0  2  0  0  3  0  0  0  0  0  0
  187.2020  177.9320  147.2750 O   0  0  0  0  0  1  0  0  0  0  0  0
  183.8550  178.7180  143.3880 C   0  0  0  0  0  3  0  0  0  0  0  0
  186.9370  177.0260  143.7880 C   0  0  0  0  0  0  0  0  0  0  0  0
  187.0010  177.8360  145.9030 C   0  0  1  0  0  3  0  0  0  0  0  0
  183.7210  178.9280  144.8110 N   0  0  0  0  0  0  0  0  0  0  0  0
  186.9910  176.0600  142.7340 N   0  0  0  0  0  2  0  0  0  0  0  0
  187.9930  176.0750  141.6770 C   0  0  2  0  0  3  0  0  0  0  0  0
  187.4070  176.4600  140.4690 O   0  0  0  0  0  1  0  0  0  0  0  0
  188.6590  174.7020  141.5550 C   0  0  2  0  0  3  0  0  0  0  0  0
  187.7490  173.6470  141.9720 N   0  0  0  0  0  1  0  0  0  0  0  0
  189.9980  174.5870  142.2890 C   0  0  0  0  0  2  0  0  0  0  0  0
  191.3600  172.6830  142.8320 C   0  0  0  0  0  2  0  0  0  0  0  0
  193.8990  173.3060  145.6660 C   0  0  0  0  0  2  0  0  0  0  0  0
  190.8250  173.5130  141.7400 N   0  0  0  0  0  0  0  0  0  0  0  0
  192.3520  173.4480  143.7100 C   0  0  2  0  0  3  0  0  0  0  0  0
  193.4950  173.9770  142.8430 C   0  0  1  0  0  3  0  0  0  0  0  0
  192.9010  172.5370  144.8030 C   0  0  0  0  0  2  0  0  0  0  0  0
  191.9070  174.0830  140.9230 C   0  0  0  0  0  2  0  0  0  0  0  0
  192.9260  174.8720  141.7560 C   0  0  0  0  0  2  0  0  0  0  0  0
  194.4840  174.7550  143.7040 C   0  0  0  0  0  2  0  0  0  0  0  0
  195.0370  173.8540  144.8060 C   0  0  0  0  0  2  0  0  0  0  0  0
  188.3040  175.7740  145.5610 N   0  0  0  0  0  2  0  0  0  0  0  0
  192.0700  176.5480  145.6590 C   0  0  0  0  0  2  0  0  0  0  0  0
  190.6030  176.7620  145.2900 C   0  0  0  0  0  2  0  0  0  0  0  0
  190.0390  175.1870  147.1250 C   0  0  0  0  0  3  0  0  0  0  0  0
  189.6680  175.8140  145.9970 C   0  0  0  0  0  0  0  0  0  0  0  0
  192.2060  176.4410  147.1700 C   0  0  0  0  0  2  0  0  0  0  0  0
  191.4500  175.2050  147.6430 C   0  0  0  0  0  2  0  0  0  0  0  0
  1 27  1  0  0  0  0
  1  9  1  0  0  0  0
  3  4  1  1  0  0  0
  3  5  1  0  0  0  0
  4  7  2  0  0  0  0
  5  2  1  1  0  0  0
  5  9  1  0  0  0  0
  7 10  1  0  0  0  0
  8  3  1  0  0  0  0
  8  1  2  0  0  0  0
  9  6  1  1  0  0  0
 10  2  2  0  0  0  0
 11  8  1  0  0  0  0
 12 13  1  6  0  0  0
 12 11  1  0  0  0  0
 14 12  1  0  0  0  0
 14 15  1  1  0  0  0
 14 16  1  0  0  0  0
 19 16  1  0  0  0  0
 19 17  1  0  0  0  0
 20 17  1  6  0  0  0
 20 22  1  0  0  0  0
 21 24  1  6  0  0  0
 21 25  1  0  0  0  0
 21 20  1  0  0  0  0
 22 18  1  0  0  0  0
 23 19  1  0  0  0  0
 23 24  1  0  0  0  0
 25 26  1  0  0  0  0
 26 18  1  0  0  0  0
 27 31  1  0  0  0  0
 28 32  1  0  0  0  0
 29 28  1  0  0  0  0
 29 31  1  0  0  0  0
 30 33  1  0  0  0  0
 31 30  2  0  0  0  0
 32 33  1  0  0  0  0
M  END
>  <MODEL>
2

>  <REMARK>
 VINA RESULT:      -7.4      1.862      4.579
  Name = 
  7 active torsions:
  status: ('A' for Active; 'I' for Inactive)
    1  A    between atoms: C_1  and  N_24
    2  A    between atoms: C_4  and  C_7
    3  A    between atoms: C_4  and  N_21
    4  A    between atoms: C_7  and  C_9
    5  A    between atoms: C_9  and  N_15
    6  A    between atoms: C_20  and  N_24
    7  A    between atoms: N_21  and  C_22
                            x       y       z     vdW  Elec       q    Type
                         _______ _______ _______ _____ _____    ______ ____

>  <TORSDO>
F 7

$$$$
=
 OpenBabel11062421143D

 33 37  0  0  1  0  0  0  0  0999 V2000
  187.4070  177.1830  146.1690 C   0  0  0  0  0  0  0  0  0  0  0  0
  184.3420  178.7910  145.8860 C   0  0  0  0  0  3  0  0  0  0  0  0
  186.4310  178.5320  144.6390 C   0  0  1  0  0  3  0  0  0  0  0  0
  185.7300  178.8710  143.3980 C   0  0  0  0  0  3  0  0  0  0  0  0
  185.8420  178.8930  145.9640 C   0  0  2  0  0  3  0  0  0  0  0  0
  186.1320  177.6440  148.1670 O   0  0  0  0  0  1  0  0  0  0  0  0
  184.4140  179.0880  143.4870 C   0  0  0  0  0  3  0  0  0  0  0  0
  187.3530  177.5880  144.7670 C   0  0  0  0  0  0  0  0  0  0  0  0
  186.4810  177.8660  146.8400 C   0  0  1  0  0  3  0  0  0  0  0  0
  183.7220  178.9380  144.7470 N   0  0  0  0  0  0  0  0  0  0  0  0
  187.9580  176.9120  143.6610 N   0  0  0  0  0  2  0  0  0  0  0  0
  189.1930  177.3500  143.0250 C   0  0  2  0  0  3  0  0  0  0  0  0
  188.9100  178.2880  142.0290 O   0  0  0  0  0  1  0  0  0  0  0  0
  189.9540  176.1510  142.4550 C   0  0  2  0  0  3  0  0  0  0  0  0
  189.1080  174.9700  142.4220 N   0  0  0  0  0  1  0  0  0  0  0  0
  191.2780  175.8530  143.1670 C   0  0  0  0  0  2  0  0  0  0  0  0
  192.5310  173.8820  142.6010 C   0  0  0  0  0  2  0  0  0  0  0  0
  194.1940  172.1430  145.6140 C   0  0  0  0  0  2  0  0  0  0  0  0
  192.2690  175.2880  142.2520 N   0  0  0  0  0  0  0  0  0  0  0  0
  193.2190  173.7410  143.9610 C   0  0  2  0  0  3  0  0  0  0  0  0
  194.5250  174.5350  143.9550 C   0  0  1  0  0  3  0  0  0  0  0  0
  193.4980  172.2720  144.2610 C   0  0  0  0  0  2  0  0  0  0  0  0
  193.5010  176.0890  142.2950 C   0  0  0  0  0  2  0  0  0  0  0  0
  194.2250  175.9910  143.6430 C   0  0  0  0  0  2  0  0  0  0  0  0
  195.2140  174.4150  145.3100 C   0  0  0  0  0  2  0  0  0  0  0  0
  195.4940  172.9470  145.6240 C   0  0  0  0  0  2  0  0  0  0  0  0
  188.1390  176.0530  146.6650 N   0  0  0  0  0  2  0  0  0  0  0  0
  191.7600  174.7900  146.9530 C   0  0  0  0  0  2  0  0  0  0  0  0
  190.3450  174.8750  146.3830 C   0  0  0  0  0  2  0  0  0  0  0  0
  190.1430  177.0630  147.5380 C   0  0  0  0  0  3  0  0  0  0  0  0
  189.5400  176.0140  146.9570 C   0  0  0  0  0  0  0  0  0  0  0  0
  192.4020  176.1690  146.9320 C   0  0  0  0  0  2  0  0  0  0  0  0
  191.6130  177.0900  147.8540 C   0  0  0  0  0  2  0  0  0  0  0  0
  1 27  1  0  0  0  0
  1  9  1  0  0  0  0
  3  4  1  6  0  0  0
  3  8  1  0  0  0  0
  3  5  1  0  0  0  0
  4  7  2  0  0  0  0
  5  2  1  6  0  0  0
  5  9  1  0  0  0  0
  7 10  1  0  0  0  0
  8  1  2  0  0  0  0
  9  6  1  6  0  0  0
 10  2  2  0  0  0  0
 11  8  1  0  0  0  0
 12 13  1  6  0  0  0
 12 11  1  0  0  0  0
 14 15  1  1  0  0  0
 14 12  1  0  0  0  0
 14 16  1  0  0  0  0
 18 26  1  0  0  0  0
 19 23  1  0  0  0  0
 19 17  1  0  0  0  0
 19 16  1  0  0  0  0
 20 17  1  6  0  0  0
 20 22  1  0  0  0  0
 21 24  1  1  0  0  0
 21 20  1  0  0  0  0
 21 25  1  0  0  0  0
 22 18  1  0  0  0  0
 23 24  1  0  0  0  0
 25 26  1  0  0  0  0
 27 31  1  0  0  0  0
 29 28  1  0  0  0  0
 29 31  1  0  0  0  0
 30 33  1  0  0  0  0
 31 30  2  0  0  0  0
 32 28  1  0  0  0  0
 32 33  1  0  0  0  0
M  END
>  <MODEL>
3

>  <REMARK>
 VINA RESULT:      -7.4      2.041      4.245
  Name = 
  7 active torsions:
  status: ('A' for Active; 'I' for Inactive)
    1  A    between atoms: C_1  and  N_24
    2  A    between atoms: C_4  and  C_7
    3  A    between atoms: C_4  and  N_21
    4  A    between atoms: C_7  and  C_9
    5  A    between atoms: C_9  and  N_15
    6  A    between atoms: C_20  and  N_24
    7  A    between atoms: N_21  and  C_22
                            x       y       z     vdW  Elec       q    Type
                         _______ _______ _______ _____ _____    ______ ____

>  <TORSDO>
F 7

$$$$
=
 OpenBabel11062421143D

 33 37  0  0  1  0  0  0  0  0999 V2000
  187.5350  177.0010  145.6990 C   0  0  0  0  0  0  0  0  0  0  0  0
  184.4180  178.2760  146.5470 C   0  0  0  0  0  3  0  0  0  0  0  0
  186.2940  178.7790  145.0590 C   0  0  1  0  0  3  0  0  0  0  0  0
  185.3990  179.5530  144.1950 C   0  0  0  0  0  3  0  0  0  0  0  0
  185.9080  178.4750  146.4700 C   0  0  2  0  0  3  0  0  0  0  0  0
  186.5730  176.4310  147.8390 O   0  0  0  0  0  1  0  0  0  0  0  0
  184.1070  179.5850  144.5380 C   0  0  0  0  0  3  0  0  0  0  0  0
  187.2510  177.9640  144.6390 C   0  0  0  0  0  0  0  0  0  0  0  0
  186.7050  177.2360  146.7140 C   0  0  1  0  0  3  0  0  0  0  0  0
  183.6230  178.8410  145.6780 N   0  0  0  0  0  0  0  0  0  0  0  0
  187.6960  177.8930  143.2810 N   0  0  0  0  0  2  0  0  0  0  0  0
  186.8780  177.3840  142.1890 C   0  0  2  0  0  3  0  0  0  0  0  0
  186.0530  176.3540  142.6510 O   0  0  0  0  0  1  0  0  0  0  0  0
  187.7630  176.9070  141.0360 C   0  0  2  0  0  3  0  0  0  0  0  0
  186.9540  176.4710  139.9100 N   0  0  0  0  0  1  0  0  0  0  0  0
  188.7770  175.8290  141.4280 C   0  0  0  0  0  2  0  0  0  0  0  0
  188.2490  173.6110  142.1890 C   0  0  0  0  0  2  0  0  0  0  0  0
  190.8520  172.1000  144.5990 C   0  0  0  0  0  2  0  0  0  0  0  0
  188.3370  174.4960  141.0160 N   0  0  0  0  0  0  0  0  0  0  0  0
  189.6200  173.3300  142.8070 C   0  0  2  0  0  3  0  0  0  0  0  0
  190.5370  172.7140  141.7510 C   0  0  1  0  0  3  0  0  0  0  0  0
  189.4790  172.3840  143.9950 C   0  0  0  0  0  2  0  0  0  0  0  0
  189.2600  173.9560  140.0070 C   0  0  0  0  0  2  0  0  0  0  0  0
  190.6550  173.6660  140.5740 C   0  0  0  0  0  2  0  0  0  0  0  0
  191.9130  172.4420  142.3510 C   0  0  0  0  0  2  0  0  0  0  0  0
  191.7830  171.4990  143.5460 C   0  0  0  0  0  2  0  0  0  0  0  0
  188.3670  175.8420  145.5480 N   0  0  0  0  0  2  0  0  0  0  0  0
  191.5660  175.3090  147.6160 C   0  0  0  0  0  2  0  0  0  0  0  0
  190.0950  175.1400  147.2380 C   0  0  0  0  0  2  0  0  0  0  0  0
  190.7040  175.9830  144.9840 C   0  0  0  0  0  3  0  0  0  0  0  0
  189.7520  175.7430  145.8990 C   0  0  0  0  0  0  0  0  0  0  0  0
  192.4440  174.9190  146.4370 C   0  0  0  0  0  2  0  0  0  0  0  0
  192.1730  175.8810  145.2860 C   0  0  0  0  0  2  0  0  0  0  0  0
  1  9  1  0  0  0  0
  3  4  1  6  0  0  0
  3  5  1  0  0  0  0
  4  7  2  0  0  0  0
  5  2  1  6  0  0  0
  5  9  1  0  0  0  0
  7 10  1  0  0  0  0
  8  3  1  0  0  0  0
  8  1  2  0  0  0  0
  9  6  1  6  0  0  0
 10  2  2  0  0  0  0
 11  8  1  0  0  0  0
 12 13  1  1  0  0  0
 12 11  1  0  0  0  0
 14 15  1  6  0  0  0
 14 16  1  0  0  0  0
 14 12  1  0  0  0  0
 19 16  1  0  0  0  0
 19 17  1  0  0  0  0
 20 17  1  6  0  0  0
 20 22  1  0  0  0  0
 21 24  1  6  0  0  0
 21 25  1  0  0  0  0
 21 20  1  0  0  0  0
 22 18  1  0  0  0  0
 23 24  1  0  0  0  0
 23 19  1  0  0  0  0
 25 26  1  0  0  0  0
 26 18  1  0  0  0  0
 27  1  1  0  0  0  0
 27 31  1  0  0  0  0
 29 28  1  0  0  0  0
 30 33  1  0  0  0  0
 30 31  2  0  0  0  0
 31 29  1  0  0  0  0
 32 28  1  0  0  0  0
 33 32  1  0  0  0  0
M  END
>  <MODEL>
4

>  <REMARK>
 VINA RESULT:      -7.3      2.077      5.015
  Name = 
  7 active torsions:
  status: ('A' for Active; 'I' for Inactive)
    1  A    between atoms: C_1  and  N_24
    2  A    between atoms: C_4  and  C_7
    3  A    between atoms: C_4  and  N_21
    4  A    between atoms: C_7  and  C_9
    5  A    between atoms: C_9  and  N_15
    6  A    between atoms: C_20  and  N_24
    7  A    between atoms: N_21  and  C_22
                            x       y       z     vdW  Elec       q    Type
                         _______ _______ _______ _____ _____    ______ ____

>  <TORSDO>
F 7

$$$$
=
 OpenBabel11062421143D

 33 37  0  0  1  0  0  0  0  0999 V2000
  186.3610  177.5730  145.2960 C   0  0  0  0  0  0  0  0  0  0  0  0
  183.5330  178.9770  143.8500 C   0  0  0  0  0  3  0  0  0  0  0  0
  185.7250  178.1110  143.1940 C   0  0  1  0  0  3  0  0  0  0  0  0
  185.2230  177.8720  141.8390 C   0  0  0  0  0  3  0  0  0  0  0  0
  185.0140  179.0530  144.1100 C   0  0  2  0  0  3  0  0  0  0  0  0
  184.8980  178.9330  146.6530 O   0  0  0  0  0  1  0  0  0  0  0  0
  183.9350  178.1490  141.6140 C   0  0  0  0  0  3  0  0  0  0  0  0
  186.5240  177.2990  143.8710 C   0  0  0  0  0  0  0  0  0  0  0  0
  185.4310  178.5160  145.4390 C   0  0  1  0  0  3  0  0  0  0  0  0
  183.0780  178.6100  142.6830 N   0  0  0  0  0  0  0  0  0  0  0  0
  187.1930  176.1750  143.2910 N   0  0  0  0  0  2  0  0  0  0  0  0
  188.6060  176.1710  142.9380 C   0  0  2  0  0  3  0  0  0  0  0  0
  188.8470  177.1050  141.9270 O   0  0  0  0  0  1  0  0  0  0  0  0
  189.0440  174.7690  142.5100 C   0  0  2  0  0  3  0  0  0  0  0  0
  187.8910  173.9230  142.2490 N   0  0  0  0  0  1  0  0  0  0  0  0
  190.0080  174.0880  143.4860 C   0  0  0  0  0  2  0  0  0  0  0  0
  192.2070  173.1690  143.7960 C   0  0  0  0  0  2  0  0  0  0  0  0
  194.3760  175.0750  146.3510 C   0  0  0  0  0  2  0  0  0  0  0  0
  191.1990  173.5800  142.8060 N   0  0  0  0  0  0  0  0  0  0  0  0
  192.7600  174.3560  144.5870 C   0  0  2  0  0  3  0  0  0  0  0  0
  193.3590  175.3770  143.6200 C   0  0  1  0  0  3  0  0  0  0  0  0
  193.8220  173.8830  145.5740 C   0  0  0  0  0  2  0  0  0  0  0  0
  191.7300  174.6060  141.8960 C   0  0  0  0  0  2  0  0  0  0  0  0
  192.2890  175.8260  142.6400 C   0  0  0  0  0  2  0  0  0  0  0  0
  193.9010  176.5730  144.3950 C   0  0  0  0  0  2  0  0  0  0  0  0
  194.9620  176.1110  145.3920 C   0  0  0  0  0  2  0  0  0  0  0  0
  186.9080  176.7690  146.3510 N   0  0  0  0  0  2  0  0  0  0  0  0
  190.7480  176.9540  146.2480 C   0  0  0  0  0  2  0  0  0  0  0  0
  189.3180  177.4910  146.2880 C   0  0  0  0  0  2  0  0  0  0  0  0
  188.6240  175.2370  147.0640 C   0  0  0  0  0  3  0  0  0  0  0  0
  188.2860  176.4160  146.5190 C   0  0  0  0  0  0  0  0  0  0  0  0
  190.9750  176.0190  147.4260 C   0  0  0  0  0  2  0  0  0  0  0  0
  190.0510  174.8160  147.2810 C   0  0  0  0  0  2  0  0  0  0  0  0
  1  9  1  0  0  0  0
  1 27  1  0  0  0  0
  3  4  1  1  0  0  0
  3  8  1  0  0  0  0
  3  5  1  0  0  0  0
  5  2  1  1  0  0  0
  5  9  1  0  0  0  0
  7  4  2  0  0  0  0
  7 10  1  0  0  0  0
  8  1  2  0  0  0  0
  9  6  1  6  0  0  0
 10  2  2  0  0  0  0
 11  8  1  0  0  0  0
 12 13  1  6  0  0  0
 12 11  1  0  0  0  0
 14 15  1  1  0  0  0
 14 12  1  0  0  0  0
 14 16  1  0  0  0  0
 19 16  1  0  0  0  0
 19 17  1  0  0  0  0
 20 17  1  6  0  0  0
 20 22  1  0  0  0  0
 21 24  1  6  0  0  0
 21 25  1  0  0  0  0
 21 20  1  0  0  0  0
 22 18  1  0  0  0  0
 23 24  1  0  0  0  0
 23 19  1  0  0  0  0
 25 26  1  0  0  0  0
 26 18  1  0  0  0  0
 27 31  1  0  0  0  0
 28 29  1  0  0  0  0
 28 32  1  0  0  0  0
 29 31  1  0  0  0  0
 30 33  1  0  0  0  0
 31 30  2  0  0  0  0
 33 32  1  0  0  0  0
M  END
>  <MODEL>
5

>  <REMARK>
 VINA RESULT:      -7.3      2.182      4.495
  Name = 
  7 active torsions:
  status: ('A' for Active; 'I' for Inactive)
    1  A    between atoms: C_1  and  N_24
    2  A    between atoms: C_4  and  C_7
    3  A    between atoms: C_4  and  N_21
    4  A    between atoms: C_7  and  C_9
    5  A    between atoms: C_9  and  N_15
    6  A    between atoms: C_20  and  N_24
    7  A    between atoms: N_21  and  C_22
                            x       y       z     vdW  Elec       q    Type
                         _______ _______ _______ _____ _____    ______ ____

>  <TORSDO>
F 7

$$$$
=
 OpenBabel11062421143D

 33 37  0  0  1  0  0  0  0  0999 V2000
  187.7340  176.5050  144.1740 C   0  0  0  0  0  0  0  0  0  0  0  0
  184.8240  178.1810  145.0590 C   0  0  0  0  0  3  0  0  0  0  0  0
  186.5470  176.7750  146.0790 C   0  0  1  0  0  3  0  0  0  0  0  0
  186.2230  177.3350  147.3940 C   0  0  0  0  0  3  0  0  0  0  0  0
  185.5730  176.8800  144.9510 C   0  0  2  0  0  3  0  0  0  0  0  0
  186.1110  177.0280  142.4650 O   0  0  0  0  0  1  0  0  0  0  0  0
  185.2850  178.2860  147.4310 C   0  0  0  0  0  3  0  0  0  0  0  0
  187.7680  176.5180  145.6350 C   0  0  0  0  0  0  0  0  0  0  0  0
  186.4960  176.7990  143.7810 C   0  0  1  0  0  3  0  0  0  0  0  0
  184.6680  178.7670  146.2160 N   0  0  0  0  0  0  0  0  0  0  0  0
  188.9380  176.5440  146.4590 N   0  0  0  0  0  2  0  0  0  0  0  0
  189.7290  175.3620  146.7720 C   0  0  2  0  0  3  0  0  0  0  0  0
  188.9090  174.3670  147.3110 O   0  0  0  0  0  1  0  0  0  0  0  0
  190.8660  175.7210  147.7310 C   0  0  2  0  0  3  0  0  0  0  0  0
  190.9260  177.1570  147.9480 N   0  0  0  0  0  1  0  0  0  0  0  0
  192.2350  175.1760  147.3120 C   0  0  0  0  0  2  0  0  0  0  0  0
  192.7380  173.9200  145.3260 C   0  0  0  0  0  2  0  0  0  0  0  0
  195.7350  171.5210  145.6840 C   0  0  0  0  0  2  0  0  0  0  0  0
  192.4300  175.2550  145.8650 N   0  0  0  0  0  0  0  0  0  0  0  0
  194.0910  173.3970  145.8120 C   0  0  2  0  0  3  0  0  0  0  0  0
  195.1890  174.3880  145.4250 C   0  0  1  0  0  3  0  0  0  0  0  0
  194.3780  172.0290  145.2010 C   0  0  0  0  0  2  0  0  0  0  0  0
  193.4990  176.2160  145.5560 C   0  0  0  0  0  2  0  0  0  0  0  0
  194.8770  175.7430  146.0340 C   0  0  0  0  0  2  0  0  0  0  0  0
  196.5410  173.8850  145.9170 C   0  0  0  0  0  2  0  0  0  0  0  0
  196.8380  172.5120  145.3160 C   0  0  0  0  0  2  0  0  0  0  0  0
  188.8930  176.4570  143.3300 N   0  0  0  0  0  2  0  0  0  0  0  0
  191.4430  174.1180  141.6520 C   0  0  0  0  0  2  0  0  0  0  0  0
  190.9640  175.3300  142.4500 C   0  0  0  0  0  2  0  0  0  0  0  0
  188.8230  174.1150  142.7730 C   0  0  0  0  0  3  0  0  0  0  0  0
  189.4940  175.2770  142.7850 C   0  0  0  0  0  0  0  0  0  0  0  0
  190.9270  172.8430  142.3000 C   0  0  0  0  0  2  0  0  0  0  0  0
  189.4050  172.8400  142.2300 C   0  0  0  0  0  2  0  0  0  0  0  0
  1  8  2  0  0  0  0
  2 10  2  0  0  0  0
  3  4  1  6  0  0  0
  4  7  2  0  0  0  0
  5  2  1  1  0  0  0
  5  3  1  0  0  0  0
  8  3  1  0  0  0  0
  8 11  1  0  0  0  0
  9  6  1  1  0  0  0
  9  1  1  0  0  0  0
  9  5  1  0  0  0  0
 10  7  1  0  0  0  0
 11 12  1  0  0  0  0
 12 13  1  1  0  0  0
 12 14  1  0  0  0  0
 14 15  1  6  0  0  0
 16 14  1  0  0  0  0
 17 20  1  0  0  0  0
 17 19  1  0  0  0  0
 19 16  1  0  0  0  0
 20 22  1  6  0  0  0
 21 20  1  0  0  0  0
 21 25  1  1  0  0  0
 21 24  1  0  0  0  0
 22 18  1  0  0  0  0
 23 19  1  0  0  0  0
 23 24  1  0  0  0  0
 26 18  1  0  0  0  0
 26 25  1  0  0  0  0
 27  1  1  0  0  0  0
 28 32  1  0  0  0  0
 28 29  1  0  0  0  0
 29 31  1  0  0  0  0
 30 31  2  0  0  0  0
 31 27  1  0  0  0  0
 33 32  1  0  0  0  0
 33 30  1  0  0  0  0
M  END
>  <MODEL>
6

>  <REMARK>
 VINA RESULT:      -7.3      1.387      1.969
  Name = 
  7 active torsions:
  status: ('A' for Active; 'I' for Inactive)
    1  A    between atoms: C_1  and  N_24
    2  A    between atoms: C_4  and  C_7
    3  A    between atoms: C_4  and  N_21
    4  A    between atoms: C_7  and  C_9
    5  A    between atoms: C_9  and  N_15
    6  A    between atoms: C_20  and  N_24
    7  A    between atoms: N_21  and  C_22
                            x       y       z     vdW  Elec       q    Type
                         _______ _______ _______ _____ _____    ______ ____

>  <TORSDO>
F 7

$$$$
=
 OpenBabel11062421143D

 33 37  0  0  1  0  0  0  0  0999 V2000
  190.5950  174.7660  142.3780 C   0  0  0  0  0  0  0  0  0  0  0  0
  191.1340  173.4800  139.1980 C   0  0  0  0  0  3  0  0  0  0  0  0
  189.2790  174.0090  140.7030 C   0  0  1  0  0  3  0  0  0  0  0  0
  188.3770  174.1070  139.5530 C   0  0  0  0  0  3  0  0  0  0  0  0
  190.5800  173.2850  140.5840 C   0  0  2  0  0  3  0  0  0  0  0  0
  192.7330  173.7730  141.8590 O   0  0  0  0  0  1  0  0  0  0  0  0
  188.9200  173.9380  138.3430 C   0  0  0  0  0  3  0  0  0  0  0  0
  189.2760  174.8190  141.7510 C   0  0  0  0  0  0  0  0  0  0  0  0
  191.3690  173.9560  141.6590 C   0  0  1  0  0  3  0  0  0  0  0  0
  190.3410  173.7250  138.1910 N   0  0  0  0  0  0  0  0  0  0  0  0
  188.2440  175.7740  142.0170 N   0  0  0  0  0  2  0  0  0  0  0  0
  188.1880  177.0930  141.4020 C   0  0  2  0  0  3  0  0  0  0  0  0
  189.0830  177.9560  142.0400 O   0  0  0  0  0  1  0  0  0  0  0  0
  186.7610  177.6430  141.4500 C   0  0  2  0  0  3  0  0  0  0  0  0
  186.3020  178.0060  140.1190 N   0  0  0  0  0  1  0  0  0  0  0  0
  186.5690  178.8060  142.4280 C   0  0  0  0  0  2  0  0  0  0  0  0
  185.1960  179.5510  144.2540 C   0  0  0  0  0  2  0  0  0  0  0  0
  186.6350  178.7650  147.7430 C   0  0  0  0  0  2  0  0  0  0  0  0
  185.2090  178.8460  142.9620 N   0  0  0  0  0  0  0  0  0  0  0  0
  185.9550  178.7870  145.3400 C   0  0  2  0  0  3  0  0  0  0  0  0
  185.3500  177.3910  145.4970 C   0  0  1  0  0  3  0  0  0  0  0  0
  185.8850  179.5410  146.6640 C   0  0  0  0  0  2  0  0  0  0  0  0
  184.6850  177.4780  143.0950 C   0  0  0  0  0  2  0  0  0  0  0  0
  185.4200  176.6630  144.1660 C   0  0  0  0  0  2  0  0  0  0  0  0
  186.1080  176.6130  146.5670 C   0  0  0  0  0  2  0  0  0  0  0  0
  186.0490  177.3620  147.8970 C   0  0  0  0  0  2  0  0  0  0  0  0
  191.0410  175.6490  143.4180 N   0  0  0  0  0  2  0  0  0  0  0  0
  189.3740  174.7610  146.7680 C   0  0  0  0  0  2  0  0  0  0  0  0
  190.2160  174.5280  145.5150 C   0  0  0  0  0  2  0  0  0  0  0  0
  190.3350  176.9970  145.2850 C   0  0  0  0  0  3  0  0  0  0  0  0
  190.4590  175.7860  144.7190 C   0  0  0  0  0  0  0  0  0  0  0  0
  189.9090  175.9660  147.5260 C   0  0  0  0  0  2  0  0  0  0  0  0
  189.7480  177.2040  146.6530 C   0  0  0  0  0  2  0  0  0  0  0  0
  1 27  1  0  0  0  0
  3  4  1  6  0  0  0
  3  8  1  0  0  0  0
  5  2  1  6  0  0  0
  5  3  1  0  0  0  0
  5  9  1  0  0  0  0
  7  4  2  0  0  0  0
  8 11  1  0  0  0  0
  8  1  2  0  0  0  0
  9  6  1  6  0  0  0
  9  1  1  0  0  0  0
 10  7  1  0  0  0  0
 10  2  2  0  0  0  0
 12 14  1  0  0  0  0
 12 11  1  0  0  0  0
 12 13  1  1  0  0  0
 14 15  1  6  0  0  0
 14 16  1  0  0  0  0
 16 19  1  0  0  0  0
 18 26  1  0  0  0  0
 19 23  1  0  0  0  0
 19 17  1  0  0  0  0
 20 17  1  6  0  0  0
 20 21  1  0  0  0  0
 20 22  1  0  0  0  0
 21 24  1  6  0  0  0
 21 25  1  0  0  0  0
 22 18  1  0  0  0  0
 23 24  1  0  0  0  0
 25 26  1  0  0  0  0
 27 31  1  0  0  0  0
 28 32  1  0  0  0  0
 29 28  1  0  0  0  0
 30 33  1  0  0  0  0
 31 30  2  0  0  0  0
 31 29  1  0  0  0  0
 33 32  1  0  0  0  0
M  END
>  <MODEL>
7

>  <REMARK>
 VINA RESULT:      -7.3      2.818      7.778
  Name = 
  7 active torsions:
  status: ('A' for Active; 'I' for Inactive)
    1  A    between atoms: C_1  and  N_24
    2  A    between atoms: C_4  and  C_7
    3  A    between atoms: C_4  and  N_21
    4  A    between atoms: C_7  and  C_9
    5  A    between atoms: C_9  and  N_15
    6  A    between atoms: C_20  and  N_24
    7  A    between atoms: N_21  and  C_22
                            x       y       z     vdW  Elec       q    Type
                         _______ _______ _______ _____ _____    ______ ____

>  <TORSDO>
F 7

$$$$
=
 OpenBabel11062421143D

 33 37  0  0  1  0  0  0  0  0999 V2000
  188.3080  176.6270  143.3380 C   0  0  0  0  0  0  0  0  0  0  0  0
  187.7380  173.5880  141.7580 C   0  0  0  0  0  3  0  0  0  0  0  0
  189.3920  174.6470  143.2170 C   0  0  1  0  0  3  0  0  0  0  0  0
  189.8340  173.3260  143.6710 C   0  0  0  0  0  3  0  0  0  0  0  0
  188.6230  174.7910  141.9440 C   0  0  2  0  0  3  0  0  0  0  0  0
  186.8730  176.5620  141.3980 O   0  0  0  0  0  1  0  0  0  0  0  0
  189.1760  172.2680  143.1840 C   0  0  0  0  0  3  0  0  0  0  0  0
  189.2440  175.7130  143.9890 C   0  0  0  0  0  0  0  0  0  0  0  0
  187.8840  176.0610  142.2100 C   0  0  1  0  0  3  0  0  0  0  0  0
  188.0500  172.4400  142.2950 N   0  0  0  0  0  0  0  0  0  0  0  0
  189.7070  175.7890  145.3410 N   0  0  0  0  0  2  0  0  0  0  0  0
  190.6220  176.8140  145.8230 C   0  0  2  0  0  3  0  0  0  0  0  0
  191.1880  177.4950  144.7420 O   0  0  0  0  0  1  0  0  0  0  0  0
  191.7020  176.1910  146.7100 C   0  0  2  0  0  3  0  0  0  0  0  0
  191.5380  176.6050  148.0940 N   0  0  0  0  0  1  0  0  0  0  0  0
  193.1340  176.4510  146.2310 C   0  0  0  0  0  2  0  0  0  0  0  0
  195.2390  175.4940  145.5780 C   0  0  0  0  0  2  0  0  0  0  0  0
  196.5270  176.6880  142.1450 C   0  0  0  0  0  2  0  0  0  0  0  0
  193.9020  175.2110  146.1240 N   0  0  0  0  0  0  0  0  0  0  0  0
  195.1840  175.9740  144.1260 C   0  0  2  0  0  3  0  0  0  0  0  0
  194.4770  174.9220  143.2700 C   0  0  1  0  0  3  0  0  0  0  0  0
  196.5920  176.2210  143.5970 C   0  0  0  0  0  2  0  0  0  0  0  0
  193.1760  174.2440  145.2860 C   0  0  0  0  0  2  0  0  0  0  0  0
  193.0820  174.6840  143.8200 C   0  0  0  0  0  2  0  0  0  0  0  0
  194.4010  175.3950  141.8220 C   0  0  0  0  0  2  0  0  0  0  0  0
  195.8070  175.6520  141.2830 C   0  0  0  0  0  2  0  0  0  0  0  0
  187.7450  177.7950  143.9540 N   0  0  0  0  0  2  0  0  0  0  0  0
  184.9500  176.9690  146.4630 C   0  0  0  0  0  2  0  0  0  0  0  0
  186.3760  177.0170  145.9170 C   0  0  0  0  0  2  0  0  0  0  0  0
  185.5930  178.7920  144.3680 C   0  0  0  0  0  3  0  0  0  0  0  0
  186.5090  177.8600  144.6740 C   0  0  0  0  0  0  0  0  0  0  0  0
  184.3760  178.3760  146.5170 C   0  0  0  0  0  2  0  0  0  0  0  0
  184.2840  178.9220  145.0970 C   0  0  0  0  0  2  0  0  0  0  0  0
  1 27  1  0  0  0  0
  1  8  2  0  0  0  0
  2 10  2  0  0  0  0
  3  4  1  1  0  0  0
  3  8  1  0  0  0  0
  5  2  1  1  0  0  0
  5  9  1  0  0  0  0
  5  3  1  0  0  0  0
  7  4  2  0  0  0  0
  8 11  1  0  0  0  0
  9  6  1  1  0  0  0
  9  1  1  0  0  0  0
 10  7  1  0  0  0  0
 11 12  1  0  0  0  0
 12 13  1  6  0  0  0
 12 14  1  0  0  0  0
 14 15  1  1  0  0  0
 16 14  1  0  0  0  0
 17 19  1  0  0  0  0
 18 22  1  0  0  0  0
 19 16  1  0  0  0  0
 20 22  1  6  0  0  0
 20 17  1  0  0  0  0
 21 25  1  6  0  0  0
 21 24  1  0  0  0  0
 21 20  1  0  0  0  0
 23 19  1  0  0  0  0
 24 23  1  0  0  0  0
 26 25  1  0  0  0  0
 26 18  1  0  0  0  0
 27 31  1  0  0  0  0
 28 32  1  0  0  0  0
 29 28  1  0  0  0  0
 30 31  2  0  0  0  0
 30 33  1  0  0  0  0
 31 29  1  0  0  0  0
 33 32  1  0  0  0  0
M  END
>  <MODEL>
8

>  <REMARK>
 VINA RESULT:      -7.2      1.755      4.593
  Name = 
  7 active torsions:
  status: ('A' for Active; 'I' for Inactive)
    1  A    between atoms: C_1  and  N_24
    2  A    between atoms: C_4  and  C_7
    3  A    between atoms: C_4  and  N_21
    4  A    between atoms: C_7  and  C_9
    5  A    between atoms: C_9  and  N_15
    6  A    between atoms: C_20  and  N_24
    7  A    between atoms: N_21  and  C_22
                            x       y       z     vdW  Elec       q    Type
                         _______ _______ _______ _____ _____    ______ ____

>  <TORSDO>
F 7

$$$$
=
 OpenBabel11062421143D

 33 37  0  0  1  0  0  0  0  0999 V2000
  187.6800  176.2200  144.2620 C   0  0  0  0  0  0  0  0  0  0  0  0
  184.9930  178.4140  144.0930 C   0  0  0  0  0  3  0  0  0  0  0  0
  186.0030  176.8240  145.6530 C   0  0  1  0  0  3  0  0  0  0  0  0
  185.3730  177.5260  146.7740 C   0  0  0  0  0  3  0  0  0  0  0  0
  185.4890  177.0020  144.2630 C   0  0  2  0  0  3  0  0  0  0  0  0
  186.8290  176.8730  142.0990 O   0  0  0  0  0  1  0  0  0  0  0  0
  184.6620  178.6190  146.4790 C   0  0  0  0  0  3  0  0  0  0  0  0
  187.2360  176.3380  145.6490 C   0  0  0  0  0  0  0  0  0  0  0  0
  186.7140  176.6840  143.4710 C   0  0  1  0  0  3  0  0  0  0  0  0
  184.5750  179.1030  145.1200 N   0  0  0  0  0  0  0  0  0  0  0  0
  188.0550  176.2320  146.8170 N   0  0  0  0  0  2  0  0  0  0  0  0
  189.1060  175.2370  146.9780 C   0  0  2  0  0  3  0  0  0  0  0  0
  188.7200  174.2840  147.9240 O   0  0  0  0  0  1  0  0  0  0  0  0
  190.4210  175.9100  147.3770 C   0  0  2  0  0  3  0  0  0  0  0  0
  190.2850  177.3570  147.3660 N   0  0  0  0  0  1  0  0  0  0  0  0
  191.6290  175.4700  146.5440 C   0  0  0  0  0  2  0  0  0  0  0  0
  192.4460  176.6320  144.6060 C   0  0  0  0  0  2  0  0  0  0  0  0
  194.0460  174.3470  141.9450 C   0  0  0  0  0  2  0  0  0  0  0  0
  192.4100  176.6150  146.0770 N   0  0  0  0  0  0  0  0  0  0  0  0
  193.2230  175.4460  144.0310 C   0  0  2  0  0  3  0  0  0  0  0  0
  194.6450  175.4490  144.5930 C   0  0  1  0  0  3  0  0  0  0  0  0
  193.2600  175.5280  142.5090 C   0  0  0  0  0  2  0  0  0  0  0  0
  193.7660  176.5580  146.6450 C   0  0  0  0  0  2  0  0  0  0  0  0
  194.5850  175.3780  146.1080 C   0  0  0  0  0  2  0  0  0  0  0  0
  195.4250  174.2620  144.0380 C   0  0  0  0  0  2  0  0  0  0  0  0
  195.4640  174.3300  142.5130 C   0  0  0  0  0  2  0  0  0  0  0  0
  189.0230  175.9190  143.8570 N   0  0  0  0  0  2  0  0  0  0  0  0
  189.9560  173.5150  141.0040 C   0  0  0  0  0  2  0  0  0  0  0  0
  189.7470  174.8640  141.6900 C   0  0  0  0  0  2  0  0  0  0  0  0
  189.7860  173.6350  143.8470 C   0  0  0  0  0  3  0  0  0  0  0  0
  189.4540  174.7430  143.1640 C   0  0  0  0  0  0  0  0  0  0  0  0
  190.9080  172.6640  141.8300 C   0  0  0  0  0  2  0  0  0  0  0  0
  190.2610  172.3750  143.1790 C   0  0  0  0  0  2  0  0  0  0  0  0
  1  8  2  0  0  0  0
  2 10  2  0  0  0  0
  3  4  1  6  0  0  0
  5  2  1  1  0  0  0
  5  3  1  0  0  0  0
  7  4  2  0  0  0  0
  8  3  1  0  0  0  0
  8 11  1  0  0  0  0
  9  6  1  1  0  0  0
  9  1  1  0  0  0  0
  9  5  1  0  0  0  0
 10  7  1  0  0  0  0
 11 12  1  0  0  0  0
 12 14  1  0  0  0  0
 12 13  1  1  0  0  0
 14 15  1  6  0  0  0
 16 14  1  0  0  0  0
 17 19  1  0  0  0  0
 18 22  1  0  0  0  0
 18 26  1  0  0  0  0
 19 16  1  0  0  0  0
 19 23  1  0  0  0  0
 20 22  1  6  0  0  0
 20 21  1  0  0  0  0
 20 17  1  0  0  0  0
 21 25  1  6  0  0  0
 21 24  1  0  0  0  0
 24 23  1  0  0  0  0
 26 25  1  0  0  0  0
 27  1  1  0  0  0  0
 28 29  1  0  0  0  0
 28 32  1  0  0  0  0
 29 31  1  0  0  0  0
 31 30  2  0  0  0  0
 31 27  1  0  0  0  0
 32 33  1  0  0  0  0
 33 30  1  0  0  0  0
M  END
>  <MODEL>
9

>  <REMARK>
 VINA RESULT:      -7.0      0.747      1.143
  Name = 
  7 active torsions:
  status: ('A' for Active; 'I' for Inactive)
    1  A    between atoms: C_1  and  N_24
    2  A    between atoms: C_4  and  C_7
    3  A    between atoms: C_4  and  N_21
    4  A    between atoms: C_7  and  C_9
    5  A    between atoms: C_9  and  N_15
    6  A    between atoms: C_20  and  N_24
    7  A    between atoms: N_21  and  C_22
                            x       y       z     vdW  Elec       q    Type
                         _______ _______ _______ _____ _____    ______ ____

>  <TORSDO>
F 7

$$$$
