=
 OpenBabel11062422123D

 44 49  0  0  1  0  0  0  0  0999 V2000
  194.0410  175.9050  142.7030 C   0  0  0  0  0  3  0  0  0  0  0  0
  190.1220  178.1540  142.7770 C   0  0  0  0  0  2  0  0  0  0  0  0
  190.4250  174.3710  143.4100 C   0  0  0  0  0  3  0  0  0  0  0  0
  194.7220  171.6900  141.6320 N   0  0  0  0  0  2  0  0  0  0  0  0
  191.1900  173.2940  143.2050 C   0  0  0  0  0  3  0  0  0  0  0  0
  194.0180  175.7950  141.4480 O   0  0  0  0  0  0  0  0  0  0  0  0
  192.6180  177.1470  145.4880 C   0  0  0  0  0  2  0  0  0  0  0  0
  193.8220  174.9270  145.0140 C   0  0  2  0  0  3  0  0  0  0  0  0
  190.5740  177.8240  144.1920 C   0  0  2  0  0  3  0  0  0  0  0  0
  192.3400  175.2270  146.8680 O   0  0  0  0  0  1  0  0  0  0  0  0
  192.0880  177.6710  144.1650 C   0  0  0  0  0  2  0  0  0  0  0  0
  193.8100  174.7740  143.5580 N   0  0  0  0  0  0  0  0  0  0  0  0
  192.3430  173.2590  142.2480 C   0  0  1  0  0  3  0  0  0  0  0  0
  194.8780  173.0350  142.1770 C   0  0  0  0  0  2  0  0  0  0  0  0
  193.5810  171.7010  140.7230 C   0  0  0  0  0  2  0  0  0  0  0  0
  190.5950  175.6620  142.6710 C   0  0  0  0  0  2  0  0  0  0  0  0
  189.8160  176.7910  143.3570 C   0  0  2  0  0  0  0  0  0  0  0  0
  193.6610  173.4170  143.0280 C   0  0  1  0  0  3  0  0  0  0  0  0
  192.2990  171.9190  141.5170 C   0  0  0  0  0  2  0  0  0  0  0  0
  192.5610  175.6230  145.5490 C   0  0  1  0  0  3  0  0  0  0  0  0
  186.2130  178.8950  143.1820 C   0  0  0  0  0  2  0  0  0  0  0  0
  186.3620  178.4690  145.9370 C   0  0  1  0  0  3  0  0  0  0  0  0
  186.1880  178.2480  147.4280 C   0  0  0  0  0  1  0  0  0  0  0  0
  185.5880  177.5740  143.6370 C   0  0  1  0  0  3  0  0  0  0  0  0
  187.4590  176.1470  142.5170 C   0  0  1  0  0  3  0  0  0  0  0  0
  188.0670  176.0080  145.0510 C   0  0  0  0  0  2  0  0  0  0  0  0
  185.9510  176.4160  142.6920 C   0  0  0  0  0  2  0  0  0  0  0  0
  188.3270  176.6540  143.6870 C   0  0  1  0  0  3  0  0  0  0  0  0
  185.8170  177.2690  145.1460 C   0  0  1  0  0  3  0  0  0  0  0  0
  186.5850  175.9650  145.4310 C   0  0  0  0  0  2  0  0  0  0  0  0
  185.6180  179.7420  145.5400 C   0  0  0  0  0  2  0  0  0  0  0  0
  185.7490  180.0710  144.0460 C   0  0  0  0  0  2  0  0  0  0  0  0
  187.6920  174.6690  142.2250 C   0  0  0  0  0  2  0  0  0  0  0  0
  187.9240  174.4340  140.7410 C   0  0  0  0  0  2  0  0  0  0  0  0
  188.4390  172.5770  139.3060 N   0  0  0  0  0  2  0  0  0  0  0  0
  188.4100  173.0450  140.4980 C   0  0  0  0  0  3  0  0  0  0  0  0
  195.1280  175.5350  145.5220 C   0  0  0  0  0  2  0  0  0  0  0  0
  195.9370  174.5060  146.1520 N   0  0  0  0  0  2  0  0  0  0  0  0
  197.0080  174.1890  145.2240 C   0  0  0  0  0  2  0  0  0  0  0  0
  197.9240  170.7300  144.4190 C   0  0  0  0  0  3  0  0  0  0  0  0
  197.9410  172.0200  144.1260 C   0  0  0  0  0  3  0  0  0  0  0  0
  197.1840  172.7130  145.1510 C   0  0  0  0  0  0  0  0  0  0  0  0
  197.1460  170.4900  145.6730 C   0  0  0  0  0  2  0  0  0  0  0  0
  196.7340  171.8690  146.0600 C   0  0  0  0  0  3  0  0  0  0  0  0
  1 12  1  0  0  0  0
  2 17  1  0  0  0  0
  4 14  1  0  0  0  0
  5  3  2  0  0  0  0
  6  1  2  0  0  0  0
  7 20  1  0  0  0  0
  8 37  1  6  0  0  0
  8 20  1  0  0  0  0
  9  2  1  6  0  0  0
 11  9  1  0  0  0  0
 11  7  1  0  0  0  0
 12  8  1  0  0  0  0
 13 19  1  1  0  0  0
 13 18  1  0  0  0  0
 13  5  1  0  0  0  0
 15 19  1  0  0  0  0
 15  4  1  0  0  0  0
 16  3  1  0  0  0  0
 17 16  1  6  0  0  0
 17 28  1  0  0  0  0
 17  9  1  0  0  0  0
 18 14  1  6  0  0  0
 18 12  1  0  0  0  0
 20 10  1  1  0  0  0
 21 24  1  0  0  0  0
 21 32  1  0  0  0  0
 22 23  1  1  0  0  0
 24 27  1  6  0  0  0
 24 29  1  0  0  0  0
 25 33  1  1  0  0  0
 25 27  1  0  0  0  0
 25 28  1  0  0  0  0
 26 30  1  0  0  0  0
 28 26  1  1  0  0  0
 29 30  1  6  0  0  0
 29 22  1  0  0  0  0
 31 22  1  0  0  0  0
 32 31  1  0  0  0  0
 34 33  1  0  0  0  0
 35 36  2  0  0  0  0
 36 34  1  0  0  0  0
 37 38  1  0  0  0  0
 39 38  1  0  0  0  0
 40 43  1  0  0  0  0
 41 40  2  0  0  0  0
 41 42  1  0  0  0  0
 42 39  1  0  0  0  0
 42 44  2  0  0  0  0
 43 44  1  0  0  0  0
M  END
>  <MODEL>
1

>  <REMARK>
 VINA RESULT:      -7.9      0.000      0.000
  Name = 
  8 active torsions:
  status: ('A' for Active; 'I' for Inactive)
    1  A    between atoms: C_6  and  C_25
    2  A    between atoms: C_6  and  C_33
    3  A    between atoms: C_16  and  C_42
    4  A    between atoms: C_17  and  N_18
    5  A    between atoms: C_17  and  C_19
    6  A    between atoms: N_18  and  C_42
    7  A    between atoms: C_22  and  C_25
    8  A    between atoms: C_32  and  C_35
                            x       y       z     vdW  Elec       q    Type
                         _______ _______ _______ _____ _____    ______ ____

>  <TORSDO>
F 8

$$$$
=
 OpenBabel11062422123D

 44 49  0  0  1  0  0  0  0  0999 V2000
  192.2220  169.6590  142.7350 C   0  0  0  0  0  3  0  0  0  0  0  0
  189.7680  172.6690  145.0440 C   0  0  0  0  0  2  0  0  0  0  0  0
  193.1180  173.4990  143.3450 C   0  0  0  0  0  3  0  0  0  0  0  0
  196.5900  169.5700  142.1980 N   0  0  0  0  0  2  0  0  0  0  0  0
  194.2590  172.9790  142.8830 C   0  0  0  0  0  3  0  0  0  0  0  0
  192.7520  169.2040  143.7830 O   0  0  0  0  0  0  0  0  0  0  0  0
  189.9900  171.7560  141.3430 C   0  0  0  0  0  2  0  0  0  0  0  0
  192.3290  170.9940  140.6020 C   0  0  2  0  0  3  0  0  0  0  0  0
  189.6300  172.9050  143.5480 C   0  0  2  0  0  3  0  0  0  0  0  0
  191.2920  172.9840  139.7720 O   0  0  0  0  0  1  0  0  0  0  0  0
  189.9080  171.5820  142.8490 C   0  0  0  0  0  2  0  0  0  0  0  0
  192.9700  170.4590  141.8040 N   0  0  0  0  0  0  0  0  0  0  0  0
  194.7140  171.5800  143.1690 C   0  0  1  0  0  3  0  0  0  0  0  0
  195.1580  169.3470  142.0280 C   0  0  0  0  0  2  0  0  0  0  0  0
  196.7960  170.2200  143.4870 C   0  0  0  0  0  2  0  0  0  0  0  0
  192.1760  172.7640  144.2460 C   0  0  0  0  0  2  0  0  0  0  0  0
  190.8200  173.4780  144.3190 C   0  0  2  0  0  0  0  0  0  0  0  0
  194.4090  170.6840  141.9550 C   0  0  1  0  0  3  0  0  0  0  0  0
  196.2150  171.6280  143.4470 C   0  0  0  0  0  2  0  0  0  0  0  0
  191.3910  172.1730  140.9030 C   0  0  1  0  0  3  0  0  0  0  0  0
  188.1510  176.2970  145.8570 C   0  0  0  0  0  2  0  0  0  0  0  0
  188.6150  177.4270  143.3470 C   0  0  1  0  0  3  0  0  0  0  0  0
  188.8160  178.2630  142.0970 C   0  0  0  0  0  1  0  0  0  0  0  0
  189.3550  177.2420  145.8200 C   0  0  1  0  0  3  0  0  0  0  0  0
  191.0620  175.2990  146.1360 C   0  0  1  0  0  3  0  0  0  0  0  0
  191.3170  175.8830  143.6060 C   0  0  0  0  0  2  0  0  0  0  0  0
  190.5500  176.6760  146.6040 C   0  0  0  0  0  2  0  0  0  0  0  0
  190.7130  174.9640  144.6720 C   0  0  1  0  0  3  0  0  0  0  0  0
  189.7040  177.7410  144.3860 C   0  0  1  0  0  3  0  0  0  0  0  0
  191.1190  177.3720  143.9020 C   0  0  0  0  0  2  0  0  0  0  0  0
  187.2350  177.7310  143.9240 C   0  0  0  0  0  2  0  0  0  0  0  0
  186.9210  176.9160  145.1870 C   0  0  0  0  0  2  0  0  0  0  0  0
  192.5560  175.1790  146.4140 C   0  0  0  0  0  2  0  0  0  0  0  0
  193.1310  176.5010  146.8970 C   0  0  0  0  0  2  0  0  0  0  0  0
  194.6090  176.3510  145.0090 N   0  0  0  0  0  2  0  0  0  0  0  0
  194.4050  176.8110  146.1870 C   0  0  0  0  0  3  0  0  0  0  0  0
  191.6940  169.8990  139.7470 C   0  0  0  0  0  2  0  0  0  0  0  0
  192.2710  169.9200  138.4140 N   0  0  0  0  0  2  0  0  0  0  0  0
  191.4040  169.1160  137.5700 C   0  0  0  0  0  2  0  0  0  0  0  0
  189.5000  171.5100  135.5470 C   0  0  0  0  0  3  0  0  0  0  0  0
  189.7080  170.8870  136.6960 C   0  0  0  0  0  2  0  0  0  0  0  0
  190.8140  169.9690  136.5040 C   0  0  0  0  0  0  0  0  0  0  0  0
  190.4700  171.0360  134.5130 C   0  0  0  0  0  3  0  0  0  0  0  0
  191.2840  170.0440  135.2730 C   0  0  0  0  0  3  0  0  0  0  0  0
  1  6  2  0  0  0  0
  3 16  1  0  0  0  0
  4 15  1  0  0  0  0
  5  3  2  0  0  0  0
  7 11  1  0  0  0  0
  8 37  1  1  0  0  0
  8 20  1  0  0  0  0
  8 12  1  0  0  0  0
  9 11  1  6  0  0  0
  9 17  1  0  0  0  0
  9  2  1  0  0  0  0
 12 18  1  0  0  0  0
 12  1  1  0  0  0  0
 13  5  1  6  0  0  0
 13 19  1  0  0  0  0
 14  4  1  0  0  0  0
 17 16  1  6  0  0  0
 17 28  1  0  0  0  0
 17  2  1  0  0  0  0
 18 14  1  1  0  0  0
 18 13  1  0  0  0  0
 19 15  1  0  0  0  0
 20 10  1  6  0  0  0
 20  7  1  0  0  0  0
 22 23  1  6  0  0  0
 22 31  1  0  0  0  0
 22 29  1  0  0  0  0
 24 21  1  6  0  0  0
 24 27  1  0  0  0  0
 25 33  1  6  0  0  0
 25 27  1  0  0  0  0
 26 30  1  0  0  0  0
 28 26  1  6  0  0  0
 28 25  1  0  0  0  0
 29 30  1  6  0  0  0
 29 24  1  0  0  0  0
 31 32  1  0  0  0  0
 32 21  1  0  0  0  0
 33 34  1  0  0  0  0
 35 36  2  0  0  0  0
 36 34  1  0  0  0  0
 38 37  1  0  0  0  0
 39 38  1  0  0  0  0
 40 41  1  0  0  0  0
 42 41  1  0  0  0  0
 42 39  1  0  0  0  0
 43 44  1  0  0  0  0
 43 40  2  0  0  0  0
 44 42  2  0  0  0  0
M  END
>  <MODEL>
2

>  <REMARK>
 VINA RESULT:      -7.8      2.918      6.808
  Name = 
  8 active torsions:
  status: ('A' for Active; 'I' for Inactive)
    1  A    between atoms: C_6  and  C_25
    2  A    between atoms: C_6  and  C_33
    3  A    between atoms: C_16  and  C_42
    4  A    between atoms: C_17  and  N_18
    5  A    between atoms: C_17  and  C_19
    6  A    between atoms: N_18  and  C_42
    7  A    between atoms: C_22  and  C_25
    8  A    between atoms: C_32  and  C_35
                            x       y       z     vdW  Elec       q    Type
                         _______ _______ _______ _____ _____    ______ ____

>  <TORSDO>
F 8

$$$$
=
 OpenBabel11062422123D

 44 49  0  0  1  0  0  0  0  0999 V2000
  195.3640  175.6290  143.4920 C   0  0  0  0  0  3  0  0  0  0  0  0
  191.3690  177.1340  144.9690 C   0  0  0  0  0  2  0  0  0  0  0  0
  191.7720  174.6710  142.0410 C   0  0  0  0  0  3  0  0  0  0  0  0
  196.4420  174.3720  139.4130 N   0  0  0  0  0  2  0  0  0  0  0  0
  192.6180  174.2240  141.1080 C   0  0  0  0  0  3  0  0  0  0  0  0
  195.5520  176.6540  142.7850 O   0  0  0  0  0  0  0  0  0  0  0  0
  193.4390  174.0170  145.7320 C   0  0  0  0  0  2  0  0  0  0  0  0
  194.8260  173.1800  143.7360 C   0  0  2  0  0  3  0  0  0  0  0  0
  191.6010  175.7020  145.4270 C   0  0  2  0  0  3  0  0  0  0  0  0
  193.0460  171.9060  144.7030 O   0  0  0  0  0  1  0  0  0  0  0  0
  193.1050  175.4750  145.4770 C   0  0  0  0  0  2  0  0  0  0  0  0
  195.0590  174.3560  142.8970 N   0  0  0  0  0  0  0  0  0  0  0  0
  193.9120  174.8960  140.7630 C   0  0  1  0  0  3  0  0  0  0  0  0
  196.4330  174.5560  140.8600 C   0  0  0  0  0  2  0  0  0  0  0  0
  195.4660  175.2900  138.8350 C   0  0  0  0  0  2  0  0  0  0  0  0
  191.9890  175.9300  142.8230 C   0  0  0  0  0  2  0  0  0  0  0  0
  191.0470  175.9910  144.0320 C   0  0  2  0  0  0  0  0  0  0  0  0
  195.0740  174.1530  141.4460 C   0  0  1  0  0  3  0  0  0  0  0  0
  194.0610  174.8630  139.2430 C   0  0  0  0  0  2  0  0  0  0  0  0
  193.4570  173.2110  144.4350 C   0  0  1  0  0  3  0  0  0  0  0  0
  187.9270  176.5970  141.3230 C   0  0  0  0  0  2  0  0  0  0  0  0
  187.0350  178.2110  143.4190 C   0  0  1  0  0  3  0  0  0  0  0  0
  186.3160  179.0380  144.4680 C   0  0  0  0  0  1  0  0  0  0  0  0
  187.0790  175.8520  142.3570 C   0  0  1  0  0  3  0  0  0  0  0  0
  189.1120  174.4770  143.2330 C   0  0  1  0  0  3  0  0  0  0  0  0
  188.7480  176.2360  145.1260 C   0  0  0  0  0  2  0  0  0  0  0  0
  187.6690  174.4720  142.6900 C   0  0  0  0  0  2  0  0  0  0  0  0
  189.5340  175.8110  143.8810 C   0  0  1  0  0  3  0  0  0  0  0  0
  186.7220  176.7170  143.6010 C   0  0  1  0  0  3  0  0  0  0  0  0
  187.2300  176.1580  144.9430 C   0  0  0  0  0  2  0  0  0  0  0  0
  186.5870  178.6770  142.0360 C   0  0  0  0  0  2  0  0  0  0  0  0
  187.2750  177.9140  140.8940 C   0  0  0  0  0  2  0  0  0  0  0  0
  189.3190  173.2910  144.1680 C   0  0  0  0  0  2  0  0  0  0  0  0
  188.9810  171.9810  143.4740 C   0  0  0  0  0  2  0  0  0  0  0  0
  190.0530  171.4920  141.3810 N   0  0  0  0  0  2  0  0  0  0  0  0
  190.1350  171.5040  142.6580 C   0  0  0  0  0  3  0  0  0  0  0  0
  195.9960  172.8960  144.6760 C   0  0  0  0  0  2  0  0  0  0  0  0
  196.3310  171.4840  144.6310 N   0  0  0  0  0  2  0  0  0  0  0  0
  196.9230  171.1530  145.9150 C   0  0  0  0  0  2  0  0  0  0  0  0
  195.8790  168.1720  147.7790 C   0  0  0  0  0  3  0  0  0  0  0  0
  196.8150  169.0420  147.4360 C   0  0  0  0  0  2  0  0  0  0  0  0
  196.2210  169.9790  146.5010 C   0  0  0  0  0  0  0  0  0  0  0  0
  194.5930  168.4870  147.0850 C   0  0  0  0  0  3  0  0  0  0  0  0
  194.9480  169.7010  146.2950 C   0  0  0  0  0  3  0  0  0  0  0  0
  3 16  1  0  0  0  0
  4 14  1  0  0  0  0
  5  3  2  0  0  0  0
  6  1  2  0  0  0  0
  8 20  1  0  0  0  0
  8 37  1  1  0  0  0
  9  2  1  1  0  0  0
  9 11  1  0  0  0  0
 11  7  1  0  0  0  0
 12  1  1  0  0  0  0
 12  8  1  0  0  0  0
 13 19  1  6  0  0  0
 13  5  1  0  0  0  0
 13 18  1  0  0  0  0
 15 19  1  0  0  0  0
 15  4  1  0  0  0  0
 17 16  1  6  0  0  0
 17  2  1  0  0  0  0
 17  9  1  0  0  0  0
 18 14  1  6  0  0  0
 18 12  1  0  0  0  0
 20 10  1  1  0  0  0
 20  7  1  0  0  0  0
 22 29  1  0  0  0  0
 22 23  1  1  0  0  0
 24 21  1  6  0  0  0
 24 27  1  0  0  0  0
 24 29  1  0  0  0  0
 25 28  1  0  0  0  0
 25 33  1  1  0  0  0
 27 25  1  0  0  0  0
 28 17  1  0  0  0  0
 28 26  1  1  0  0  0
 29 30  1  1  0  0  0
 30 26  1  0  0  0  0
 31 22  1  0  0  0  0
 32 21  1  0  0  0  0
 32 31  1  0  0  0  0
 34 33  1  0  0  0  0
 35 36  2  0  0  0  0
 36 34  1  0  0  0  0
 38 37  1  0  0  0  0
 38 39  1  0  0  0  0
 39 42  1  0  0  0  0
 41 40  1  0  0  0  0
 42 41  1  0  0  0  0
 43 40  2  0  0  0  0
 44 42  2  0  0  0  0
 44 43  1  0  0  0  0
M  END
>  <MODEL>
3

>  <REMARK>
 VINA RESULT:      -7.8      2.085      2.972
  Name = 
  8 active torsions:
  status: ('A' for Active; 'I' for Inactive)
    1  A    between atoms: C_6  and  C_25
    2  A    between atoms: C_6  and  C_33
    3  A    between atoms: C_16  and  C_42
    4  A    between atoms: C_17  and  N_18
    5  A    between atoms: C_17  and  C_19
    6  A    between atoms: N_18  and  C_42
    7  A    between atoms: C_22  and  C_25
    8  A    between atoms: C_32  and  C_35
                            x       y       z     vdW  Elec       q    Type
                         _______ _______ _______ _____ _____    ______ ____

>  <TORSDO>
F 8

$$$$
=
 OpenBabel11062422123D

 44 49  0  0  1  0  0  0  0  0999 V2000
  192.5630  170.5950  142.8760 C   0  0  0  0  0  3  0  0  0  0  0  0
  189.8860  173.2270  145.3900 C   0  0  0  0  0  2  0  0  0  0  0  0
  192.4150  174.5830  142.8270 C   0  0  0  0  0  3  0  0  0  0  0  0
  196.5540  171.5390  141.2760 N   0  0  0  0  0  2  0  0  0  0  0  0
  193.5340  174.3020  142.1540 C   0  0  0  0  0  3  0  0  0  0  0  0
  193.4110  170.4790  143.8000 O   0  0  0  0  0  0  0  0  0  0  0  0
  189.5780  171.7780  141.8700 C   0  0  0  0  0  2  0  0  0  0  0  0
  191.8280  171.5250  140.6530 C   0  0  2  0  0  3  0  0  0  0  0  0
  189.3730  173.1580  143.9590 C   0  0  2  0  0  3  0  0  0  0  0  0
  190.1080  173.0090  139.9020 O   0  0  0  0  0  1  0  0  0  0  0  0
  189.8690  171.8510  143.3580 C   0  0  0  0  0  2  0  0  0  0  0  0
  192.8340  171.3880  141.7080 N   0  0  0  0  0  0  0  0  0  0  0  0
  194.4250  173.1370  142.4640 C   0  0  1  0  0  3  0  0  0  0  0  0
  195.2460  170.9310  141.4950 C   0  0  0  0  0  2  0  0  0  0  0  0
  196.8300  172.4320  142.3960 C   0  0  0  0  0  2  0  0  0  0  0  0
  191.9380  173.7980  144.0100 C   0  0  0  0  0  2  0  0  0  0  0  0
  190.4800  174.1410  144.3420 C   0  0  2  0  0  0  0  0  0  0  0  0
  194.1440  171.9970  141.4680 C   0  0  1  0  0  3  0  0  0  0  0  0
  195.8700  173.6150  142.3520 C   0  0  0  0  0  2  0  0  0  0  0  0
  190.6730  172.4580  141.0520 C   0  0  1  0  0  3  0  0  0  0  0  0
  187.5910  176.4150  146.3230 C   0  0  0  0  0  2  0  0  0  0  0  0
  187.0020  177.1210  143.6870 C   0  0  1  0  0  3  0  0  0  0  0  0
  186.5980  177.7230  142.3540 C   0  0  0  0  0  1  0  0  0  0  0  0
  188.3940  177.6140  145.8120 C   0  0  1  0  0  3  0  0  0  0  0  0
  190.6310  176.2780  145.7880 C   0  0  1  0  0  3  0  0  0  0  0  0
  190.0120  176.4090  143.2560 C   0  0  0  0  0  2  0  0  0  0  0  0
  189.8680  177.5380  146.2420 C   0  0  0  0  0  2  0  0  0  0  0  0
  190.0240  175.5880  144.5500 C   0  0  1  0  0  3  0  0  0  0  0  0
  188.1790  177.9000  144.2960 C   0  0  1  0  0  3  0  0  0  0  0  0
  189.4560  177.8240  143.4380 C   0  0  0  0  0  2  0  0  0  0  0  0
  185.8020  177.1610  144.6290 C   0  0  0  0  0  2  0  0  0  0  0  0
  186.1000  176.5520  146.0060 C   0  0  0  0  0  2  0  0  0  0  0  0
  192.1080  176.6050  145.5980 C   0  0  0  0  0  2  0  0  0  0  0  0
  192.9500  175.9990  146.7100 C   0  0  0  0  0  2  0  0  0  0  0  0
  194.7350  176.2860  145.1290 N   0  0  0  0  0  2  0  0  0  0  0  0
  194.3870  175.9460  146.3130 C   0  0  0  0  0  3  0  0  0  0  0  0
  191.3730  170.1740  140.1060 C   0  0  0  0  0  2  0  0  0  0  0  0
  191.5590  170.1380  138.6670 N   0  0  0  0  0  2  0  0  0  0  0  0
  190.2350  170.0610  138.0750 C   0  0  0  0  0  2  0  0  0  0  0  0
  190.9030  170.6250  134.5130 C   0  0  0  0  0  3  0  0  0  0  0  0
  191.1790  170.0040  135.6490 C   0  0  0  0  0  2  0  0  0  0  0  0
  190.2900  170.5340  136.6650 C   0  0  0  0  0  0  0  0  0  0  0  0
  189.8000  171.6140  134.7120 C   0  0  0  0  0  3  0  0  0  0  0  0
  189.4770  171.4410  136.1580 C   0  0  0  0  0  3  0  0  0  0  0  0
  1  6  2  0  0  0  0
  3 16  1  0  0  0  0
  4 14  1  0  0  0  0
  4 15  1  0  0  0  0
  5  3  2  0  0  0  0
  7 11  1  0  0  0  0
  8 37  1  1  0  0  0
  8 20  1  0  0  0  0
  8 12  1  0  0  0  0
  9 11  1  6  0  0  0
  9 17  1  0  0  0  0
  9  2  1  0  0  0  0
 12  1  1  0  0  0  0
 13  5  1  6  0  0  0
 17 16  1  6  0  0  0
 17 28  1  0  0  0  0
 17  2  1  0  0  0  0
 18 14  1  1  0  0  0
 18 12  1  0  0  0  0
 18 13  1  0  0  0  0
 19 15  1  0  0  0  0
 19 13  1  0  0  0  0
 20 10  1  6  0  0  0
 20  7  1  0  0  0  0
 22 23  1  6  0  0  0
 22 29  1  0  0  0  0
 22 31  1  0  0  0  0
 24 27  1  6  0  0  0
 24 21  1  0  0  0  0
 25 33  1  6  0  0  0
 25 27  1  0  0  0  0
 26 30  1  0  0  0  0
 28 26  1  6  0  0  0
 28 25  1  0  0  0  0
 29 30  1  6  0  0  0
 29 24  1  0  0  0  0
 31 32  1  0  0  0  0
 32 21  1  0  0  0  0
 33 34  1  0  0  0  0
 35 36  2  0  0  0  0
 36 34  1  0  0  0  0
 38 37  1  0  0  0  0
 39 38  1  0  0  0  0
 40 43  2  0  0  0  0
 40 41  1  0  0  0  0
 41 42  1  0  0  0  0
 42 39  1  0  0  0  0
 43 44  1  0  0  0  0
 44 42  2  0  0  0  0
M  END
>  <MODEL>
4

>  <REMARK>
 VINA RESULT:      -7.7      2.814      6.507
  Name = 
  8 active torsions:
  status: ('A' for Active; 'I' for Inactive)
    1  A    between atoms: C_6  and  C_25
    2  A    between atoms: C_6  and  C_33
    3  A    between atoms: C_16  and  C_42
    4  A    between atoms: C_17  and  N_18
    5  A    between atoms: C_17  and  C_19
    6  A    between atoms: N_18  and  C_42
    7  A    between atoms: C_22  and  C_25
    8  A    between atoms: C_32  and  C_35
                            x       y       z     vdW  Elec       q    Type
                         _______ _______ _______ _____ _____    ______ ____

>  <TORSDO>
F 8

$$$$
=
 OpenBabel11062422123D

 44 49  0  0  1  0  0  0  0  0999 V2000
  190.3120  176.7770  142.9890 C   0  0  0  0  0  3  0  0  0  0  0  0
  194.1250  174.5080  142.1380 C   0  0  0  0  0  2  0  0  0  0  0  0
  191.9820  173.9750  145.2890 C   0  0  0  0  0  3  0  0  0  0  0  0
  188.5970  177.8110  146.9090 N   0  0  0  0  0  2  0  0  0  0  0  0
  191.0700  174.5360  146.0880 C   0  0  0  0  0  3  0  0  0  0  0  0
  190.9380  177.7630  143.4610 O   0  0  0  0  0  0  0  0  0  0  0  0
  190.4350  173.7640  141.4950 C   0  0  0  0  0  2  0  0  0  0  0  0
  188.8560  174.7400  143.2730 C   0  0  2  0  0  3  0  0  0  0  0  0
  192.9130  173.6240  141.8870 C   0  0  2  0  0  3  0  0  0  0  0  0
  189.1140  172.3880  142.9200 O   0  0  0  0  0  1  0  0  0  0  0  0
  191.7380  174.5390  141.5670 C   0  0  0  0  0  2  0  0  0  0  0  0
  189.5610  175.8920  143.8380 N   0  0  0  0  0  0  0  0  0  0  0  0
  190.6990  175.9870  146.0420 C   0  0  1  0  0  3  0  0  0  0  0  0
  188.7610  177.5400  145.4850 C   0  0  0  0  0  2  0  0  0  0  0  0
  189.9230  177.8620  147.5150 C   0  0  0  0  0  2  0  0  0  0  0  0
  192.7840  174.7380  144.2800 C   0  0  0  0  0  2  0  0  0  0  0  0
  193.4770  173.7860  143.2980 C   0  0  2  0  0  0  0  0  0  0  0  0
  189.3790  176.1540  145.2670 C   0  0  1  0  0  3  0  0  0  0  0  0
  190.5510  176.4740  147.4820 C   0  0  0  0  0  2  0  0  0  0  0  0
  189.8050  173.5980  142.8750 C   0  0  1  0  0  3  0  0  0  0  0  0
  195.6220  170.4850  141.9040 C   0  0  0  0  0  2  0  0  0  0  0  0
  193.8130  169.1810  143.5830 C   0  0  1  0  0  3  0  0  0  0  0  0
  193.0120  168.2960  144.5190 C   0  0  0  0  0  1  0  0  0  0  0  0
  196.1010  170.3670  143.3530 C   0  0  1  0  0  3  0  0  0  0  0  0
  195.8660  172.9270  143.7800 C   0  0  1  0  0  3  0  0  0  0  0  0
  193.8040  171.9420  145.0400 C   0  0  0  0  0  2  0  0  0  0  0  0
  196.7550  171.6690  143.8450 C   0  0  0  0  0  2  0  0  0  0  0  0
  194.3530  172.6290  143.7850 C   0  0  1  0  0  3  0  0  0  0  0  0
  195.0220  169.7860  144.3140 C   0  0  1  0  0  3  0  0  0  0  0  0
  194.6180  170.7190  145.4700 C   0  0  0  0  0  2  0  0  0  0  0  0
  194.2820  168.3430  142.3960 C   0  0  0  0  0  2  0  0  0  0  0  0
  195.0880  169.1530  141.3710 C   0  0  0  0  0  2  0  0  0  0  0  0
  196.2650  173.9010  144.8840 C   0  0  0  0  0  2  0  0  0  0  0  0
  197.6130  174.5410  144.5890 C   0  0  0  0  0  2  0  0  0  0  0  0
  196.8170  176.5360  143.5140 N   0  0  0  0  0  2  0  0  0  0  0  0
  197.5130  175.4650  143.4220 C   0  0  0  0  0  3  0  0  0  0  0  0
  187.8760  175.1430  142.1720 C   0  0  0  0  0  2  0  0  0  0  0  0
  186.6500  175.6450  142.7660 N   0  0  0  0  0  2  0  0  0  0  0  0
  186.4180  176.9610  142.1970 C   0  0  0  0  0  2  0  0  0  0  0  0
  185.3390  179.7930  144.2630 C   0  0  0  0  0  3  0  0  0  0  0  0
  185.9420  179.3240  143.1830 C   0  0  0  0  0  3  0  0  0  0  0  0
  185.8980  177.8750  143.2500 C   0  0  0  0  0  0  0  0  0  0  0  0
  184.8520  178.6680  145.1190 C   0  0  0  0  0  2  0  0  0  0  0  0
  185.2650  177.4700  144.3340 C   0  0  0  0  0  3  0  0  0  0  0  0
  1  6  2  0  0  0  0
  1 12  1  0  0  0  0
  3  5  2  0  0  0  0
  4 15  1  0  0  0  0
  7 11  1  0  0  0  0
  7 20  1  0  0  0  0
  8 37  1  6  0  0  0
  8 12  1  0  0  0  0
  9 11  1  1  0  0  0
  9  2  1  0  0  0  0
  9 17  1  0  0  0  0
 12 18  1  0  0  0  0
 13  5  1  1  0  0  0
 13 19  1  0  0  0  0
 14  4  1  0  0  0  0
 16  3  1  0  0  0  0
 17  2  1  6  0  0  0
 17 28  1  0  0  0  0
 17 16  1  0  0  0  0
 18 14  1  6  0  0  0
 18 13  1  0  0  0  0
 19 15  1  0  0  0  0
 20 10  1  6  0  0  0
 20  8  1  0  0  0  0
 22 29  1  0  0  0  0
 22 23  1  1  0  0  0
 24 21  1  6  0  0  0
 24 27  1  0  0  0  0
 24 29  1  0  0  0  0
 25 28  1  0  0  0  0
 25 27  1  0  0  0  0
 25 33  1  1  0  0  0
 26 30  1  0  0  0  0
 28 26  1  1  0  0  0
 29 30  1  1  0  0  0
 31 22  1  0  0  0  0
 32 21  1  0  0  0  0
 32 31  1  0  0  0  0
 34 33  1  0  0  0  0
 36 35  2  0  0  0  0
 36 34  1  0  0  0  0
 37 38  1  0  0  0  0
 39 38  1  0  0  0  0
 39 42  1  0  0  0  0
 40 43  1  0  0  0  0
 41 42  1  0  0  0  0
 41 40  2  0  0  0  0
 42 44  2  0  0  0  0
 44 43  1  0  0  0  0
M  END
>  <MODEL>
5

>  <REMARK>
 VINA RESULT:      -7.6      2.674      9.469
  Name = 
  8 active torsions:
  status: ('A' for Active; 'I' for Inactive)
    1  A    between atoms: C_6  and  C_25
    2  A    between atoms: C_6  and  C_33
    3  A    between atoms: C_16  and  C_42
    4  A    between atoms: C_17  and  N_18
    5  A    between atoms: C_17  and  C_19
    6  A    between atoms: N_18  and  C_42
    7  A    between atoms: C_22  and  C_25
    8  A    between atoms: C_32  and  C_35
                            x       y       z     vdW  Elec       q    Type
                         _______ _______ _______ _____ _____    ______ ____

>  <TORSDO>
F 8

$$$$
=
 OpenBabel11062422123D

 44 49  0  0  1  0  0  0  0  0999 V2000
  189.3590  173.5850  143.2940 C   0  0  0  0  0  3  0  0  0  0  0  0
  193.1520  172.2970  145.3850 C   0  0  0  0  0  2  0  0  0  0  0  0
  193.0740  173.8330  141.8580 C   0  0  0  0  0  3  0  0  0  0  0  0
  188.5540  173.6840  138.9680 N   0  0  0  0  0  2  0  0  0  0  0  0
  192.3070  174.0500  140.7860 C   0  0  0  0  0  3  0  0  0  0  0  0
  189.1140  172.4140  142.8980 O   0  0  0  0  0  0  0  0  0  0  0  0
  191.3210  175.6370  145.1000 C   0  0  0  0  0  2  0  0  0  0  0  0
  190.0910  175.9570  142.8660 C   0  0  2  0  0  3  0  0  0  0  0  0
  193.0230  173.8130  145.4020 C   0  0  2  0  0  3  0  0  0  0  0  0
  191.9310  177.3300  143.5400 O   0  0  0  0  0  1  0  0  0  0  0  0
  191.5420  174.1470  145.2910 C   0  0  0  0  0  2  0  0  0  0  0  0
  189.7930  174.6070  142.3830 N   0  0  0  0  0  0  0  0  0  0  0  0
  190.9760  173.3980  140.5660 C   0  0  1  0  0  3  0  0  0  0  0  0
  188.4900  173.9250  140.4060 C   0  0  0  0  0  2  0  0  0  0  0  0
  189.4720  172.5740  138.7370 C   0  0  0  0  0  2  0  0  0  0  0  0
  192.7210  172.8720  142.9500 C   0  0  0  0  0  2  0  0  0  0  0  0
  193.6050  173.0960  144.1830 C   0  0  2  0  0  0  0  0  0  0  0  0
  189.8540  174.3850  140.9370 C   0  0  1  0  0  3  0  0  0  0  0  0
  190.8900  173.0030  139.0930 C   0  0  0  0  0  2  0  0  0  0  0  0
  191.4230  176.0340  143.6290 C   0  0  1  0  0  3  0  0  0  0  0  0
  196.7110  172.8540  141.4020 C   0  0  0  0  0  2  0  0  0  0  0  0
  197.3380  170.6410  142.9830 C   0  0  1  0  0  3  0  0  0  0  0  0
  197.9190  169.4800  143.7680 C   0  0  0  0  0  1  0  0  0  0  0  0
  197.6100  173.1840  142.5950 C   0  0  1  0  0  3  0  0  0  0  0  0
  195.7320  174.5160  143.8160 C   0  0  1  0  0  3  0  0  0  0  0  0
  195.8230  172.2840  145.1640 C   0  0  0  0  0  2  0  0  0  0  0  0
  197.1810  174.4870  143.2900 C   0  0  0  0  0  2  0  0  0  0  0  0
  195.1330  173.1210  144.0820 C   0  0  1  0  0  3  0  0  0  0  0  0
  197.8230  171.9800  143.5600 C   0  0  1  0  0  3  0  0  0  0  0  0
  197.3440  172.2190  145.0040 C   0  0  0  0  0  2  0  0  0  0  0  0
  197.7680  170.5100  141.5240 C   0  0  0  0  0  2  0  0  0  0  0  0
  197.2120  171.6300  140.6320 C   0  0  0  0  0  2  0  0  0  0  0  0
  195.6410  175.4250  145.0370 C   0  0  0  0  0  2  0  0  0  0  0  0
  195.2470  176.8390  144.6390 C   0  0  0  0  0  2  0  0  0  0  0  0
  194.1940  176.8720  146.7980 N   0  0  0  0  0  2  0  0  0  0  0  0
  194.5790  177.5380  145.7740 C   0  0  0  0  0  3  0  0  0  0  0  0
  188.9120  176.5790  143.6120 C   0  0  0  0  0  2  0  0  0  0  0  0
  187.8650  176.9310  142.6700 N   0  0  0  0  0  2  0  0  0  0  0  0
  186.6170  176.4420  143.2290 C   0  0  0  0  0  2  0  0  0  0  0  0
  185.3970  179.4130  145.0010 C   0  0  0  0  0  3  0  0  0  0  0  0
  185.9700  178.8620  143.9430 C   0  0  0  0  0  3  0  0  0  0  0  0
  186.0800  177.4370  144.1960 C   0  0  0  0  0  0  0  0  0  0  0  0
  185.0890  178.3730  146.0300 C   0  0  0  0  0  2  0  0  0  0  0  0
  185.5680  177.1240  145.3710 C   0  0  0  0  0  3  0  0  0  0  0  0
  2  9  1  0  0  0  0
  3 16  1  0  0  0  0
  4 14  1  0  0  0  0
  5  3  2  0  0  0  0
  6  1  2  0  0  0  0
  7 11  1  0  0  0  0
  8 37  1  1  0  0  0
  8 20  1  0  0  0  0
  9 11  1  6  0  0  0
 12  8  1  0  0  0  0
 12  1  1  0  0  0  0
 13 19  1  6  0  0  0
 13  5  1  0  0  0  0
 13 18  1  0  0  0  0
 15  4  1  0  0  0  0
 15 19  1  0  0  0  0
 17 16  1  6  0  0  0
 17  2  1  0  0  0  0
 17  9  1  0  0  0  0
 18 14  1  1  0  0  0
 18 12  1  0  0  0  0
 20 10  1  1  0  0  0
 20  7  1  0  0  0  0
 22 29  1  0  0  0  0
 22 23  1  1  0  0  0
 24 21  1  6  0  0  0
 24 27  1  0  0  0  0
 24 29  1  0  0  0  0
 25 28  1  0  0  0  0
 25 33  1  1  0  0  0
 27 25  1  0  0  0  0
 28 17  1  0  0  0  0
 28 26  1  1  0  0  0
 29 30  1  1  0  0  0
 30 26  1  0  0  0  0
 31 22  1  0  0  0  0
 32 21  1  0  0  0  0
 32 31  1  0  0  0  0
 34 33  1  0  0  0  0
 34 36  1  0  0  0  0
 36 35  2  0  0  0  0
 38 39  1  0  0  0  0
 38 37  1  0  0  0  0
 39 42  1  0  0  0  0
 40 43  1  0  0  0  0
 41 42  1  0  0  0  0
 41 40  2  0  0  0  0
 42 44  2  0  0  0  0
 44 43  1  0  0  0  0
M  END
>  <MODEL>
6

>  <REMARK>
 VINA RESULT:      -7.5      2.147      9.260
  Name = 
  8 active torsions:
  status: ('A' for Active; 'I' for Inactive)
    1  A    between atoms: C_6  and  C_25
    2  A    between atoms: C_6  and  C_33
    3  A    between atoms: C_16  and  C_42
    4  A    between atoms: C_17  and  N_18
    5  A    between atoms: C_17  and  C_19
    6  A    between atoms: N_18  and  C_42
    7  A    between atoms: C_22  and  C_25
    8  A    between atoms: C_32  and  C_35
                            x       y       z     vdW  Elec       q    Type
                         _______ _______ _______ _____ _____    ______ ____

>  <TORSDO>
F 8

$$$$
=
 OpenBabel11062422123D

 44 49  0  0  1  0  0  0  0  0999 V2000
  193.3660  175.6610  142.9540 C   0  0  0  0  0  3  0  0  0  0  0  0
  189.8530  178.4730  142.5510 C   0  0  0  0  0  2  0  0  0  0  0  0
  189.5160  174.6430  142.6970 C   0  0  0  0  0  3  0  0  0  0  0  0
  193.7130  171.5330  141.4640 N   0  0  0  0  0  2  0  0  0  0  0  0
  190.1600  173.4890  142.5010 C   0  0  0  0  0  3  0  0  0  0  0  0
  193.6050  175.6920  141.7180 O   0  0  0  0  0  0  0  0  0  0  0  0
  191.5400  176.7990  145.5410 C   0  0  0  0  0  2  0  0  0  0  0  0
  192.5200  174.4820  145.0140 C   0  0  2  0  0  3  0  0  0  0  0  0
  189.9360  177.9250  143.9680 C   0  0  2  0  0  3  0  0  0  0  0  0
  190.7190  174.8070  146.5550 O   0  0  0  0  0  1  0  0  0  0  0  0
  191.3860  177.5400  144.2250 C   0  0  0  0  0  2  0  0  0  0  0  0
  192.8080  174.4930  143.5790 N   0  0  0  0  0  0  0  0  0  0  0  0
  191.4810  173.3780  141.8010 C   0  0  1  0  0  3  0  0  0  0  0  0
  193.9190  172.7700  142.2110 C   0  0  0  0  0  2  0  0  0  0  0  0
  192.8110  171.8220  140.3540 C   0  0  0  0  0  2  0  0  0  0  0  0
  190.0100  175.9640  142.1960 C   0  0  0  0  0  2  0  0  0  0  0  0
  189.2530  177.1200  142.8620 C   0  0  2  0  0  0  0  0  0  0  0  0
  192.6040  173.2420  142.8450 C   0  0  1  0  0  3  0  0  0  0  0  0
  191.4250  172.1490  140.8960 C   0  0  0  0  0  2  0  0  0  0  0  0
  191.2730  175.3050  145.3760 C   0  0  1  0  0  3  0  0  0  0  0  0
  186.0780  179.7170  143.6480 C   0  0  0  0  0  2  0  0  0  0  0  0
  185.5100  177.7210  145.5150 C   0  0  1  0  0  3  0  0  0  0  0  0
  184.9590  176.7090  146.5020 C   0  0  0  0  0  1  0  0  0  0  0  0
  185.2070  178.5860  143.0950 C   0  0  1  0  0  3  0  0  0  0  0  0
  187.1050  177.6980  141.5460 C   0  0  1  0  0  3  0  0  0  0  0  0
  187.0670  175.9410  143.4750 C   0  0  0  0  0  2  0  0  0  0  0  0
  185.6430  178.1690  141.6810 C   0  0  0  0  0  2  0  0  0  0  0  0
  187.7230  177.1830  142.8620 C   0  0  1  0  0  3  0  0  0  0  0  0
  185.0290  177.4010  144.0900 C   0  0  1  0  0  3  0  0  0  0  0  0
  185.5430  176.0440  143.5740 C   0  0  0  0  0  2  0  0  0  0  0  0
  185.0430  179.1140  145.9270 C   0  0  0  0  0  2  0  0  0  0  0  0
  185.5660  180.2200  145.0000 C   0  0  0  0  0  2  0  0  0  0  0  0
  187.2200  176.6800  140.4170 C   0  0  0  0  0  2  0  0  0  0  0  0
  186.5120  177.1690  139.1640 C   0  0  0  0  0  2  0  0  0  0  0  0
  187.4590  175.1840  138.1960 N   0  0  0  0  0  2  0  0  0  0  0  0
  186.6930  176.1990  138.0450 C   0  0  0  0  0  3  0  0  0  0  0  0
  193.7500  174.8190  145.8550 C   0  0  0  0  0  2  0  0  0  0  0  0
  194.7910  173.8340  145.6200 N   0  0  0  0  0  2  0  0  0  0  0  0
  196.0610  174.5250  145.7600 C   0  0  0  0  0  2  0  0  0  0  0  0
  197.7460  173.9940  142.5460 C   0  0  0  0  0  3  0  0  0  0  0  0
  197.3150  173.5280  143.7080 C   0  0  0  0  0  2  0  0  0  0  0  0
  196.7190  174.6360  144.4300 C   0  0  0  0  0  0  0  0  0  0  0  0
  197.4550  175.4550  142.4290 C   0  0  0  0  0  3  0  0  0  0  0  0
  196.7660  175.7460  143.7190 C   0  0  0  0  0  3  0  0  0  0  0  0
  1 12  1  0  0  0  0
  2 17  1  0  0  0  0
  4 14  1  0  0  0  0
  5  3  2  0  0  0  0
  6  1  2  0  0  0  0
  8 20  1  0  0  0  0
  8 37  1  1  0  0  0
  9  2  1  6  0  0  0
  9 11  1  0  0  0  0
 11  7  1  0  0  0  0
 12  8  1  0  0  0  0
 13 19  1  6  0  0  0
 13  5  1  0  0  0  0
 13 18  1  0  0  0  0
 15 19  1  0  0  0  0
 15  4  1  0  0  0  0
 16  3  1  0  0  0  0
 17 16  1  6  0  0  0
 17 28  1  0  0  0  0
 17  9  1  0  0  0  0
 18 14  1  6  0  0  0
 18 12  1  0  0  0  0
 20  7  1  0  0  0  0
 20 10  1  1  0  0  0
 21 32  1  0  0  0  0
 22 31  1  0  0  0  0
 22 23  1  1  0  0  0
 24 27  1  6  0  0  0
 24 21  1  0  0  0  0
 24 29  1  0  0  0  0
 25 33  1  6  0  0  0
 25 27  1  0  0  0  0
 25 28  1  0  0  0  0
 26 30  1  0  0  0  0
 28 26  1  6  0  0  0
 29 30  1  6  0  0  0
 29 22  1  0  0  0  0
 32 31  1  0  0  0  0
 34 33  1  0  0  0  0
 36 35  2  0  0  0  0
 36 34  1  0  0  0  0
 38 39  1  0  0  0  0
 38 37  1  0  0  0  0
 40 41  1  0  0  0  0
 41 42  1  0  0  0  0
 42 39  1  0  0  0  0
 43 40  2  0  0  0  0
 43 44  1  0  0  0  0
 44 42  2  0  0  0  0
M  END
>  <MODEL>
7

>  <REMARK>
 VINA RESULT:      -7.5      1.542      2.029
  Name = 
  8 active torsions:
  status: ('A' for Active; 'I' for Inactive)
    1  A    between atoms: C_6  and  C_25
    2  A    between atoms: C_6  and  C_33
    3  A    between atoms: C_16  and  C_42
    4  A    between atoms: C_17  and  N_18
    5  A    between atoms: C_17  and  C_19
    6  A    between atoms: N_18  and  C_42
    7  A    between atoms: C_22  and  C_25
    8  A    between atoms: C_32  and  C_35
                            x       y       z     vdW  Elec       q    Type
                         _______ _______ _______ _____ _____    ______ ____

>  <TORSDO>
F 8

$$$$
=
 OpenBabel11062422123D

 44 49  0  0  1  0  0  0  0  0999 V2000
  186.5310  179.1380  143.4030 C   0  0  0  0  0  3  0  0  0  0  0  0
  190.9800  178.3810  143.6060 C   0  0  0  0  0  2  0  0  0  0  0  0
  188.3780  176.3560  145.5880 C   0  0  0  0  0  3  0  0  0  0  0  0
  183.5210  178.4330  146.5360 N   0  0  0  0  0  2  0  0  0  0  0  0
  187.1380  176.3760  146.0860 C   0  0  0  0  0  3  0  0  0  0  0  0
  186.5940  180.0710  144.2470 O   0  0  0  0  0  0  0  0  0  0  0  0
  188.1580  176.8700  141.5240 C   0  0  0  0  0  2  0  0  0  0  0  0
  185.8980  176.7900  142.7450 C   0  0  2  0  0  3  0  0  0  0  0  0
  190.2970  177.3130  142.7660 C   0  0  2  0  0  3  0  0  0  0  0  0
  187.0810  174.8200  142.0790 O   0  0  0  0  0  1  0  0  0  0  0  0
  189.0130  177.9170  142.2130 C   0  0  0  0  0  2  0  0  0  0  0  0
  185.9450  177.8680  143.7350 N   0  0  0  0  0  0  0  0  0  0  0  0
  186.2950  177.6110  146.1790 C   0  0  1  0  0  3  0  0  0  0  0  0
  184.1690  178.6580  145.2480 C   0  0  0  0  0  2  0  0  0  0  0  0
  184.5080  178.6660  147.5850 C   0  0  0  0  0  2  0  0  0  0  0  0
  189.0980  177.5780  145.1070 C   0  0  0  0  0  2  0  0  0  0  0  0
  190.3380  177.1950  144.2900 C   0  0  2  0  0  0  0  0  0  0  0  0
  185.2830  177.6290  145.0190 C   0  0  1  0  0  3  0  0  0  0  0  0
  185.5780  177.5840  147.5270 C   0  0  0  0  0  2  0  0  0  0  0  0
  187.2680  176.1300  142.5190 C   0  0  1  0  0  3  0  0  0  0  0  0
  194.4320  176.3870  144.1220 C   0  0  0  0  0  2  0  0  0  0  0  0
  193.4460  173.9630  143.1480 C   0  0  1  0  0  3  0  0  0  0  0  0
  193.1230  172.5460  142.7140 C   0  0  0  0  0  1  0  0  0  0  0  0
  194.1270  175.3610  145.2160 C   0  0  1  0  0  3  0  0  0  0  0  0
  192.1010  176.7280  146.1210 C   0  0  1  0  0  3  0  0  0  0  0  0
  190.9470  174.7720  144.8370 C   0  0  0  0  0  2  0  0  0  0  0  0
  193.4290  176.0070  146.4250 C   0  0  0  0  0  2  0  0  0  0  0  0
  191.3980  176.2360  144.8400 C   0  0  1  0  0  3  0  0  0  0  0  0
  193.4280  174.0760  144.6800 C   0  0  1  0  0  3  0  0  0  0  0  0
  192.0390  173.7970  145.2860 C   0  0  0  0  0  2  0  0  0  0  0  0
  194.8240  174.3400  142.6090 C   0  0  0  0  0  2  0  0  0  0  0  0
  195.2390  175.7720  142.9750 C   0  0  0  0  0  2  0  0  0  0  0  0
  191.1870  176.6680  147.3390 C   0  0  0  0  0  2  0  0  0  0  0  0
  191.9130  177.1310  148.5920 C   0  0  0  0  0  2  0  0  0  0  0  0
  190.0760  178.6690  148.7620 N   0  0  0  0  0  2  0  0  0  0  0  0
  191.1110  178.1580  149.3170 C   0  0  0  0  0  3  0  0  0  0  0  0
  185.1950  177.2150  141.4580 C   0  0  0  0  0  2  0  0  0  0  0  0
  184.0230  178.0110  141.7770 N   0  0  0  0  0  2  0  0  0  0  0  0
  183.1560  177.9660  140.6130 C   0  0  0  0  0  2  0  0  0  0  0  0
  179.5640  178.6720  140.8400 C   0  0  0  0  0  3  0  0  0  0  0  0
  180.6160  178.2850  140.1360 C   0  0  0  0  0  3  0  0  0  0  0  0
  181.7770  178.3690  141.0020 C   0  0  0  0  0  0  0  0  0  0  0  0
  179.9710  179.0370  142.2310 C   0  0  0  0  0  2  0  0  0  0  0  0
  181.4390  178.7760  142.2100 C   0  0  0  0  0  3  0  0  0  0  0  0
  1 12  1  0  0  0  0
  1  6  2  0  0  0  0
  3  5  2  0  0  0  0
  4 15  1  0  0  0  0
  7 11  1  0  0  0  0
  7 20  1  0  0  0  0
  8 37  1  6  0  0  0
  8 12  1  0  0  0  0
  9 11  1  1  0  0  0
  9  2  1  0  0  0  0
  9 17  1  0  0  0  0
 12 18  1  0  0  0  0
 13  5  1  6  0  0  0
 13 19  1  0  0  0  0
 14  4  1  0  0  0  0
 16  3  1  0  0  0  0
 17  2  1  1  0  0  0
 17 28  1  0  0  0  0
 17 16  1  0  0  0  0
 18 14  1  1  0  0  0
 18 13  1  0  0  0  0
 19 15  1  0  0  0  0
 20 10  1  6  0  0  0
 20  8  1  0  0  0  0
 22 23  1  1  0  0  0
 22 29  1  0  0  0  0
 24 21  1  6  0  0  0
 24 27  1  0  0  0  0
 25 27  1  0  0  0  0
 25 33  1  1  0  0  0
 26 30  1  0  0  0  0
 28 26  1  1  0  0  0
 28 25  1  0  0  0  0
 29 24  1  0  0  0  0
 29 30  1  6  0  0  0
 31 32  1  0  0  0  0
 31 22  1  0  0  0  0
 32 21  1  0  0  0  0
 33 34  1  0  0  0  0
 34 36  1  0  0  0  0
 35 36  2  0  0  0  0
 37 38  1  0  0  0  0
 39 42  1  0  0  0  0
 39 38  1  0  0  0  0
 40 43  1  0  0  0  0
 41 40  2  0  0  0  0
 41 42  1  0  0  0  0
 42 44  2  0  0  0  0
 44 43  1  0  0  0  0
M  END
>  <MODEL>
8

>  <REMARK>
 VINA RESULT:      -7.5      3.812     10.348
  Name = 
  8 active torsions:
  status: ('A' for Active; 'I' for Inactive)
    1  A    between atoms: C_6  and  C_25
    2  A    between atoms: C_6  and  C_33
    3  A    between atoms: C_16  and  C_42
    4  A    between atoms: C_17  and  N_18
    5  A    between atoms: C_17  and  C_19
    6  A    between atoms: N_18  and  C_42
    7  A    between atoms: C_22  and  C_25
    8  A    between atoms: C_32  and  C_35
                            x       y       z     vdW  Elec       q    Type
                         _______ _______ _______ _____ _____    ______ ____

>  <TORSDO>
F 8

$$$$
=
 OpenBabel11062422123D

 44 49  0  0  1  0  0  0  0  0999 V2000
  190.5350  176.6090  142.7640 C   0  0  0  0  0  3  0  0  0  0  0  0
  193.5440  173.5350  141.3810 C   0  0  0  0  0  2  0  0  0  0  0  0
  191.3230  173.1000  144.4920 C   0  0  0  0  0  3  0  0  0  0  0  0
  189.1690  177.4000  146.8730 N   0  0  0  0  0  2  0  0  0  0  0  0
  190.6060  173.7500  145.4130 C   0  0  0  0  0  3  0  0  0  0  0  0
  191.4150  177.2820  143.3630 O   0  0  0  0  0  0  0  0  0  0  0  0
  189.7990  173.9870  140.7880 C   0  0  0  0  0  2  0  0  0  0  0  0
  188.5570  175.0500  142.7710 C   0  0  2  0  0  3  0  0  0  0  0  0
  192.1310  173.0870  141.0410 C   0  0  2  0  0  3  0  0  0  0  0  0
  188.1320  172.8170  142.0230 O   0  0  0  0  0  1  0  0  0  0  0  0
  191.2690  174.3370  140.9290 C   0  0  0  0  0  2  0  0  0  0  0  0
  189.5590  175.8410  143.4870 N   0  0  0  0  0  0  0  0  0  0  0  0
  190.6660  175.2320  145.6240 C   0  0  1  0  0  3  0  0  0  0  0  0
  189.2560  177.3420  145.4170 C   0  0  0  0  0  2  0  0  0  0  0  0
  190.4520  176.9690  147.4190 C   0  0  0  0  0  2  0  0  0  0  0  0
  192.3150  173.7660  143.5890 C   0  0  0  0  0  2  0  0  0  0  0  0
  192.7120  172.8390  142.4340 C   0  0  2  0  0  0  0  0  0  0  0  0
  189.4530  175.8960  144.9460 C   0  0  1  0  0  3  0  0  0  0  0  0
  190.6570  175.4870  147.1290 C   0  0  0  0  0  2  0  0  0  0  0  0
  189.1410  173.7720  142.1490 C   0  0  1  0  0  3  0  0  0  0  0  0
  194.1930  170.3700  145.4590 C   0  0  0  0  0  2  0  0  0  0  0  0
  196.3720  170.3160  143.7150 C   0  0  1  0  0  3  0  0  0  0  0  0
  197.6030  170.0570  142.8670 C   0  0  0  0  0  1  0  0  0  0  0  0
  194.1080  169.2680  144.4010 C   0  0  1  0  0  3  0  0  0  0  0  0
  192.1330  170.4260  143.1560 C   0  0  1  0  0  3  0  0  0  0  0  0
  194.1630  170.9090  141.5890 C   0  0  0  0  0  2  0  0  0  0  0  0
  192.6920  169.1480  143.8130 C   0  0  0  0  0  2  0  0  0  0  0  0
  193.2180  171.4150  142.6840 C   0  0  1  0  0  3  0  0  0  0  0  0
  195.2420  169.3450  143.3360 C   0  0  1  0  0  3  0  0  0  0  0  0
  194.7540  169.5290  141.8870 C   0  0  0  0  0  2  0  0  0  0  0  0
  196.7420  170.1420  145.1850 C   0  0  0  0  0  2  0  0  0  0  0  0
  195.5650  170.4050  146.1360 C   0  0  0  0  0  2  0  0  0  0  0  0
  191.1650  170.0550  142.0390 C   0  0  0  0  0  2  0  0  0  0  0  0
  191.2000  168.5610  141.7570 C   0  0  0  0  0  2  0  0  0  0  0  0
  191.6390  169.2770  139.5060 N   0  0  0  0  0  2  0  0  0  0  0  0
  191.3830  168.3050  140.2990 C   0  0  0  0  0  3  0  0  0  0  0  0
  187.7390  175.8950  141.7970 C   0  0  0  0  0  2  0  0  0  0  0  0
  187.1170  177.0000  142.5060 N   0  0  0  0  0  2  0  0  0  0  0  0
  186.0320  176.4360  143.2900 C   0  0  0  0  0  2  0  0  0  0  0  0
  185.4390  177.8370  146.6280 C   0  0  0  0  0  3  0  0  0  0  0  0
  185.5650  176.7900  145.8280 C   0  0  0  0  0  3  0  0  0  0  0  0
  185.7830  177.2900  144.4830 C   0  0  0  0  0  0  0  0  0  0  0  0
  185.5690  179.1070  145.8510 C   0  0  0  0  0  2  0  0  0  0  0  0
  185.8100  178.6090  144.4660 C   0  0  0  0  0  3  0  0  0  0  0  0
  1  6  2  0  0  0  0
  1 12  1  0  0  0  0
  3  5  2  0  0  0  0
  4 15  1  0  0  0  0
  7 11  1  0  0  0  0
  7 20  1  0  0  0  0
  8 37  1  6  0  0  0
  8 12  1  0  0  0  0
  9 11  1  1  0  0  0
  9  2  1  0  0  0  0
  9 17  1  0  0  0  0
 12 18  1  0  0  0  0
 13  5  1  1  0  0  0
 13 19  1  0  0  0  0
 14  4  1  0  0  0  0
 16  3  1  0  0  0  0
 17  2  1  6  0  0  0
 17 28  1  0  0  0  0
 17 16  1  0  0  0  0
 18 14  1  1  0  0  0
 18 13  1  0  0  0  0
 19 15  1  0  0  0  0
 20 10  1  6  0  0  0
 20  8  1  0  0  0  0
 21 32  1  0  0  0  0
 22 23  1  6  0  0  0
 22 31  1  0  0  0  0
 24 27  1  6  0  0  0
 24 21  1  0  0  0  0
 25 33  1  6  0  0  0
 25 27  1  0  0  0  0
 26 30  1  0  0  0  0
 28 26  1  6  0  0  0
 28 25  1  0  0  0  0
 29 30  1  6  0  0  0
 29 22  1  0  0  0  0
 29 24  1  0  0  0  0
 31 32  1  0  0  0  0
 34 33  1  0  0  0  0
 35 36  2  0  0  0  0
 36 34  1  0  0  0  0
 37 38  1  0  0  0  0
 38 39  1  0  0  0  0
 39 42  1  0  0  0  0
 41 40  2  0  0  0  0
 42 41  1  0  0  0  0
 43 40  1  0  0  0  0
 44 42  2  0  0  0  0
 44 43  1  0  0  0  0
M  END
>  <MODEL>
9

>  <REMARK>
 VINA RESULT:      -7.5      2.710      9.091
  Name = 
  8 active torsions:
  status: ('A' for Active; 'I' for Inactive)
    1  A    between atoms: C_6  and  C_25
    2  A    between atoms: C_6  and  C_33
    3  A    between atoms: C_16  and  C_42
    4  A    between atoms: C_17  and  N_18
    5  A    between atoms: C_17  and  C_19
    6  A    between atoms: N_18  and  C_42
    7  A    between atoms: C_22  and  C_25
    8  A    between atoms: C_32  and  C_35
                            x       y       z     vdW  Elec       q    Type
                         _______ _______ _______ _____ _____    ______ ____

>  <TORSDO>
F 8

$$$$
