=
 OpenBabel11062422393D

 44 49  0  0  1  0  0  0  0  0999 V2000
  189.9820  175.8730  142.5040 N   0  0  0  0  0  0  0  0  0  0  0  0
  192.4810  177.2940  144.6690 C   0  0  0  0  0  2  0  0  0  0  0  0
  189.8670  177.0560  144.5080 C   0  0  2  0  0  3  0  0  0  0  0  0
  187.8010  175.9000  143.4330 N   0  0  0  0  0  2  0  0  0  0  0  0
  191.2640  176.3770  142.7140 N   0  0  0  0  0  2  0  0  0  0  0  0
  192.4350  176.1720  145.6900 C   0  0  2  0  0  3  0  0  0  0  0  0
  191.2060  176.3360  146.5690 C   0  0  0  0  0  2  0  0  0  0  0  0
  191.2200  177.3300  143.8070 C   0  0  2  0  0  3  0  0  0  0  0  0
  189.9730  176.1030  145.7130 C   0  0  0  0  0  2  0  0  0  0  0  0
  189.1790  176.2840  143.4240 C   0  0  0  0  0  0  0  0  0  0  0  0
  193.7350  176.0610  146.4890 C   0  0  0  0  0  2  0  0  0  0  0  0
  194.9360  175.6230  145.7020 C   0  0  0  0  0  0  0  0  0  0  0  0
  196.3220  176.0110  143.6180 C   0  0  0  0  0  0  0  0  0  0  0  0
  195.3610  176.4240  144.5970 N   0  0  0  0  0  2  0  0  0  0  0  0
  195.6190  174.6260  146.0650 O   0  0  0  0  0  0  0  0  0  0  0  0
  196.3090  174.6950  143.0630 N   0  0  0  0  0  2  0  0  0  0  0  0
  197.1350  176.8850  143.1260 N   0  0  0  0  0  2  0  0  0  0  0  0
  195.2980  173.7650  143.3550 N   0  0  0  0  0  2  0  0  0  0  0  0
  194.2370  173.8710  142.3450 C   0  0  1  0  0  3  0  0  0  0  0  0
  193.6970  174.5680  140.0890 O   0  0  0  0  0  0  0  0  0  0  0  0
  194.1620  175.6610  140.7150 O   0  0  0  0  0  0  0  0  0  0  0  0
  194.7270  174.4360  140.9930 C   0  0  0  0  0  3  0  0  0  0  0  0
  193.9280  171.5470  141.8510 O   0  0  0  0  0  0  0  0  0  0  0  0
  193.3850  172.6160  142.2430 C   0  0  0  0  0  0  0  0  0  0  0  0
  189.6590  172.2240  142.1080 C   0  0  0  0  0  3  0  0  0  0  0  0
  191.0580  172.2120  141.7890 N   0  0  0  0  0  0  0  0  0  0  0  0
  191.5580  172.9620  143.9700 N   0  0  0  0  0  2  0  0  0  0  0  0
  189.2370  172.4770  143.3480 C   0  0  0  0  0  3  0  0  0  0  0  0
  190.2150  172.6740  144.4720 C   0  0  0  0  0  2  0  0  0  0  0  0
  191.9630  172.5720  142.6520 C   0  0  0  0  0  0  0  0  0  0  0  0
  186.7030  176.6900  143.9880 C   0  0  1  0  0  3  0  0  0  0  0  0
  184.8140  178.7870  147.3540 C   0  0  0  0  0  3  0  0  0  0  0  0
  186.2780  176.2140  145.3700 C   0  0  1  0  0  3  0  0  0  0  0  0
  186.7070  177.1430  146.3300 C   0  0  0  0  0  0  0  0  0  0  0  0
  184.2970  177.8580  146.3840 C   0  0  0  0  0  3  0  0  0  0  0  0
  185.3090  177.0790  145.9150 C   0  0  0  0  0  0  0  0  0  0  0  0
  187.2510  177.9950  147.2430 C   0  0  0  0  0  3  0  0  0  0  0  0
  186.2180  178.8490  147.7650 C   0  0  0  0  0  3  0  0  0  0  0  0
  187.0730  178.1690  144.0130 C   0  0  0  0  0  2  0  0  0  0  0  0
  186.2140  178.9480  143.0260 C   0  0  0  0  0  2  0  0  0  0  0  0
  185.1370  178.0580  142.4230 C   0  0  0  0  0  2  0  0  0  0  0  0
  184.1220  178.4940  140.3130 O   0  0  0  0  0  1  0  0  0  0  0  0
  186.3110  177.8050  140.2290 O   0  0  0  0  0  0  0  0  0  0  0  0
  185.1580  178.1400  140.9350 C   0  0  0  0  0  0  0  0  0  0  0  0
  1  5  1  0  0  0  0
  1 10  2  0  0  0  0
  2  6  1  0  0  0  0
  3  9  1  1  0  0  0
  4 31  1  0  0  0  0
  5  8  1  0  0  0  0
  6 11  1  1  0  0  0
  6  7  1  0  0  0  0
  8  3  1  0  0  0  0
  8  2  1  1  0  0  0
  9  7  1  0  0  0  0
 10  4  1  0  0  0  0
 10  3  1  0  0  0  0
 12 15  2  0  0  0  0
 12 11  1  0  0  0  0
 13 14  1  0  0  0  0
 14 12  1  0  0  0  0
 16 18  1  0  0  0  0
 16 13  1  0  0  0  0
 17 13  2  0  0  0  0
 19 24  1  6  0  0  0
 19 18  1  0  0  0  0
 20 21  1  0  0  0  0
 20 22  1  0  0  0  0
 21 22  1  0  0  0  0
 22 19  1  0  0  0  0
 23 24  2  0  0  0  0
 24 30  1  0  0  0  0
 25 28  2  0  0  0  0
 26 25  1  0  0  0  0
 26 30  2  0  0  0  0
 27 29  1  0  0  0  0
 28 29  1  0  0  0  0
 30 27  1  0  0  0  0
 31 39  1  1  0  0  0
 32 38  1  0  0  0  0
 33 31  1  6  0  0  0
 33 36  1  0  0  0  0
 33 34  1  0  0  0  0
 34 37  1  0  0  0  0
 35 32  2  0  0  0  0
 36 34  2  0  0  0  0
 36 35  1  0  0  0  0
 37 38  2  0  0  0  0
 40 39  1  0  0  0  0
 41 40  1  0  0  0  0
 42 44  1  0  0  0  0
 43 44  2  0  0  0  0
 44 41  1  0  0  0  0
M  END
>  <MODEL>
1

>  <REMARK>
 VINA RESULT:      -7.8      0.000      0.000
  Name = 
  13 active torsions:
  status: ('A' for Active; 'I' for Inactive)
    1  A    between atoms: C_4  and  C_8
    2  A    between atoms: C_5  and  C_33
    3  A    between atoms: C_8  and  C_26
    4  A    between atoms: N_10  and  C_33
    5  A    between atoms: C_17  and  C_22
    6  A    between atoms: C_17  and  C_32
    7  A    between atoms: C_19  and  N_31
    8  A    between atoms: C_19  and  C_43
    9  A    between atoms: C_19  and  C_44
   10  A    between atoms: C_22  and  C_30
   11  A    between atoms: N_24  and  N_31
   12  A    between atoms: C_32  and  C_33
   13  A    between atoms: C_39  and  C_44
                            x       y       z     vdW  Elec       q    Type
                         _______ _______ _______ _____ _____    ______ ____

>  <TORSDO>
F 13

$$$$
=
 OpenBabel11062422393D

 44 49  0  0  1  0  0  0  0  0999 V2000
  189.3540  177.4750  146.8110 N   0  0  0  0  0  0  0  0  0  0  0  0
  192.6030  175.9440  146.5660 C   0  0  0  0  0  2  0  0  0  0  0  0
  190.4030  176.2210  145.1510 C   0  0  2  0  0  3  0  0  0  0  0  0
  188.1370  177.4420  144.7770 N   0  0  0  0  0  2  0  0  0  0  0  0
  190.4980  176.9470  147.4070 N   0  0  0  0  0  2  0  0  0  0  0  0
  193.2010  177.0290  145.6890 C   0  0  2  0  0  3  0  0  0  0  0  0
  192.7210  176.8500  144.2590 C   0  0  0  0  0  2  0  0  0  0  0  0
  191.0750  175.9560  146.5200 C   0  0  2  0  0  3  0  0  0  0  0  0
  191.2280  177.1290  144.2190 C   0  0  0  0  0  2  0  0  0  0  0  0
  189.2340  177.0410  145.6040 C   0  0  0  0  0  0  0  0  0  0  0  0
  194.7250  177.0940  145.8080 C   0  0  0  0  0  2  0  0  0  0  0  0
  195.4730  176.0420  145.0420 C   0  0  0  0  0  0  0  0  0  0  0  0
  196.6010  175.4610  142.8500 C   0  0  0  0  0  0  0  0  0  0  0  0
  196.0760  176.4000  143.7960 N   0  0  0  0  0  2  0  0  0  0  0  0
  195.6550  174.8920  145.5300 O   0  0  0  0  0  0  0  0  0  0  0  0
  195.9080  174.2550  142.5260 N   0  0  0  0  0  2  0  0  0  0  0  0
  197.6550  175.7710  142.1730 N   0  0  0  0  0  2  0  0  0  0  0  0
  194.6270  173.9660  143.0250 N   0  0  0  0  0  2  0  0  0  0  0  0
  194.5180  172.5230  143.2730 C   0  0  1  0  0  3  0  0  0  0  0  0
  195.7490  170.4560  143.5570 O   0  0  0  0  0  0  0  0  0  0  0  0
  196.1650  170.9800  142.3930 O   0  0  0  0  0  0  0  0  0  0  0  0
  195.8840  171.8220  143.4460 C   0  0  0  0  0  3  0  0  0  0  0  0
  193.8590  172.0630  145.5310 O   0  0  0  0  0  0  0  0  0  0  0  0
  193.4830  172.1770  144.3320 C   0  0  0  0  0  0  0  0  0  0  0  0
  189.7630  172.6050  144.5040 C   0  0  0  0  0  3  0  0  0  0  0  0
  191.1770  172.7510  144.6990 N   0  0  0  0  0  0  0  0  0  0  0  0
  191.5700  171.1090  143.0520 N   0  0  0  0  0  2  0  0  0  0  0  0
  189.2770  171.8300  143.5320 C   0  0  0  0  0  3  0  0  0  0  0  0
  190.1950  171.1490  142.5560 C   0  0  0  0  0  2  0  0  0  0  0  0
  192.0390  172.0410  144.0330 C   0  0  0  0  0  0  0  0  0  0  0  0
  187.5520  176.6470  143.6980 C   0  0  1  0  0  3  0  0  0  0  0  0
  184.5560  179.2110  145.6330 C   0  0  0  0  0  3  0  0  0  0  0  0
  186.0390  176.5320  143.8100 C   0  0  1  0  0  3  0  0  0  0  0  0
  185.6530  176.7860  145.1350 C   0  0  0  0  0  0  0  0  0  0  0  0
  184.9170  179.0220  144.2520 C   0  0  0  0  0  3  0  0  0  0  0  0
  185.4660  177.7880  144.0900 C   0  0  0  0  0  0  0  0  0  0  0  0
  185.3270  176.9060  146.4520 C   0  0  0  0  0  3  0  0  0  0  0  0
  184.7480  178.2030  146.6770 C   0  0  0  0  0  3  0  0  0  0  0  0
  187.9560  177.2140  142.3420 C   0  0  0  0  0  2  0  0  0  0  0  0
  188.0880  176.0960  141.3170 C   0  0  0  0  0  2  0  0  0  0  0  0
  189.1960  175.1290  141.7090 C   0  0  0  0  0  2  0  0  0  0  0  0
  190.5400  173.7640  140.2940 O   0  0  0  0  0  1  0  0  0  0  0  0
  188.2720  173.4850  140.0650 O   0  0  0  0  0  0  0  0  0  0  0  0
  189.3790  174.0860  140.6590 C   0  0  0  0  0  0  0  0  0  0  0  0
  1  5  1  0  0  0  0
  3  9  1  6  0  0  0
  3 10  1  0  0  0  0
  3  8  1  0  0  0  0
  4 10  1  0  0  0  0
  6 11  1  6  0  0  0
  6  2  1  0  0  0  0
  7  6  1  0  0  0  0
  8  2  1  6  0  0  0
  8  5  1  0  0  0  0
  9  7  1  0  0  0  0
 10  1  2  0  0  0  0
 12 15  2  0  0  0  0
 12 11  1  0  0  0  0
 13 14  1  0  0  0  0
 14 12  1  0  0  0  0
 16 13  1  0  0  0  0
 16 18  1  0  0  0  0
 17 13  2  0  0  0  0
 19 18  1  1  0  0  0
 19 22  1  0  0  0  0
 19 24  1  0  0  0  0
 21 22  1  0  0  0  0
 21 20  1  0  0  0  0
 22 20  1  0  0  0  0
 24 23  2  0  0  0  0
 25 26  1  0  0  0  0
 27 30  1  0  0  0  0
 28 25  2  0  0  0  0
 29 27  1  0  0  0  0
 29 28  1  0  0  0  0
 30 24  1  0  0  0  0
 30 26  2  0  0  0  0
 31 39  1  6  0  0  0
 31  4  1  0  0  0  0
 32 38  1  0  0  0  0
 33 31  1  1  0  0  0
 33 36  1  0  0  0  0
 33 34  1  0  0  0  0
 34 37  1  0  0  0  0
 35 32  2  0  0  0  0
 36 35  1  0  0  0  0
 36 34  2  0  0  0  0
 37 38  2  0  0  0  0
 40 41  1  0  0  0  0
 40 39  1  0  0  0  0
 42 44  1  0  0  0  0
 43 44  2  0  0  0  0
 44 41  1  0  0  0  0
M  END
>  <MODEL>
2

>  <REMARK>
 VINA RESULT:      -7.7      2.116      3.061
  Name = 
  13 active torsions:
  status: ('A' for Active; 'I' for Inactive)
    1  A    between atoms: C_4  and  C_8
    2  A    between atoms: C_5  and  C_33
    3  A    between atoms: C_8  and  C_26
    4  A    between atoms: N_10  and  C_33
    5  A    between atoms: C_17  and  C_22
    6  A    between atoms: C_17  and  C_32
    7  A    between atoms: C_19  and  N_31
    8  A    between atoms: C_19  and  C_43
    9  A    between atoms: C_19  and  C_44
   10  A    between atoms: C_22  and  C_30
   11  A    between atoms: N_24  and  N_31
   12  A    between atoms: C_32  and  C_33
   13  A    between atoms: C_39  and  C_44
                            x       y       z     vdW  Elec       q    Type
                         _______ _______ _______ _____ _____    ______ ____

>  <TORSDO>
F 13

$$$$
=
 OpenBabel11062422393D

 44 49  0  0  1  0  0  0  0  0999 V2000
  187.8190  174.0360  141.7830 N   0  0  0  0  0  0  0  0  0  0  0  0
  191.0780  172.5260  142.0180 C   0  0  0  0  0  2  0  0  0  0  0  0
  189.8430  174.7490  142.6910 C   0  0  2  0  0  3  0  0  0  0  0  0
  187.6100  176.0340  143.0410 N   0  0  0  0  0  2  0  0  0  0  0  0
  188.7730  173.1250  141.3330 N   0  0  0  0  0  2  0  0  0  0  0  0
  190.9320  172.1070  143.4700 C   0  0  2  0  0  3  0  0  0  0  0  0
  191.1390  173.3130  144.3700 C   0  0  0  0  0  2  0  0  0  0  0  0
  190.0940  173.6340  141.6460 C   0  0  2  0  0  3  0  0  0  0  0  0
  189.9850  174.2760  144.1500 C   0  0  0  0  0  2  0  0  0  0  0  0
  188.3790  174.9740  142.4650 C   0  0  0  0  0  0  0  0  0  0  0  0
  191.8400  170.9280  143.8260 C   0  0  0  0  0  2  0  0  0  0  0  0
  193.3130  171.1950  143.7100 C   0  0  0  0  0  0  0  0  0  0  0  0
  195.3510  172.1830  144.8430 C   0  0  0  0  0  0  0  0  0  0  0  0
  194.0180  171.6580  144.8640 N   0  0  0  0  0  2  0  0  0  0  0  0
  193.9380  170.9220  142.6480 O   0  0  0  0  0  0  0  0  0  0  0  0
  195.7850  173.0880  143.8280 N   0  0  0  0  0  2  0  0  0  0  0  0
  196.1390  171.9400  145.8360 N   0  0  0  0  0  2  0  0  0  0  0  0
  194.9110  173.6050  142.8570 N   0  0  0  0  0  2  0  0  0  0  0  0
  195.3320  174.9670  142.5030 C   0  0  1  0  0  3  0  0  0  0  0  0
  195.0390  176.8010  140.9480 O   0  0  0  0  0  0  0  0  0  0  0  0
  195.5880  175.7990  140.2420 O   0  0  0  0  0  0  0  0  0  0  0  0
  194.6620  175.5040  141.2190 C   0  0  0  0  0  3  0  0  0  0  0  0
  196.3250  176.6370  143.9040 O   0  0  0  0  0  0  0  0  0  0  0  0
  195.3090  175.9230  143.6850 C   0  0  0  0  0  0  0  0  0  0  0  0
  193.0100  175.7900  146.6430 C   0  0  0  0  0  3  0  0  0  0  0  0
  194.1560  175.7040  145.7840 N   0  0  0  0  0  0  0  0  0  0  0  0
  192.9140  176.6860  144.0350 N   0  0  0  0  0  2  0  0  0  0  0  0
  191.8980  176.4130  146.2490 C   0  0  0  0  0  3  0  0  0  0  0  0
  191.8370  177.1190  144.9240 C   0  0  0  0  0  2  0  0  0  0  0  0
  194.1200  176.1080  144.5480 C   0  0  0  0  0  0  0  0  0  0  0  0
  188.0910  177.3910  143.2970 C   0  0  1  0  0  3  0  0  0  0  0  0
  184.2990  179.4360  144.1500 C   0  0  0  0  0  3  0  0  0  0  0  0
  187.3120  178.4450  142.5250 C   0  0  1  0  0  3  0  0  0  0  0  0
  185.9560  178.0830  142.4900 C   0  0  0  0  0  0  0  0  0  0  0  0
  185.6690  179.8690  144.2360 C   0  0  0  0  0  3  0  0  0  0  0  0
  186.4320  179.1370  143.3810 C   0  0  0  0  0  0  0  0  0  0  0  0
  184.6760  177.6360  142.3620 C   0  0  0  0  0  3  0  0  0  0  0  0
  183.8260  178.3770  143.2560 C   0  0  0  0  0  3  0  0  0  0  0  0
  188.0710  177.6880  144.7930 C   0  0  0  0  0  2  0  0  0  0  0  0
  187.4890  176.5090  145.5600 C   0  0  0  0  0  2  0  0  0  0  0  0
  187.0980  176.9190  146.9730 C   0  0  0  0  0  2  0  0  0  0  0  0
  184.7790  176.7870  146.4530 O   0  0  0  0  0  0  0  0  0  0  0  0
  185.4210  178.6600  147.6150 O   0  0  0  0  0  1  0  0  0  0  0  0
  185.7030  177.4410  147.0030 C   0  0  0  0  0  0  0  0  0  0  0  0
  1 10  2  0  0  0  0
  2  6  1  0  0  0  0
  3  9  1  1  0  0  0
  4 31  1  0  0  0  0
  5  8  1  0  0  0  0
  5  1  1  0  0  0  0
  6 11  1  1  0  0  0
  6  7  1  0  0  0  0
  8  2  1  1  0  0  0
  8  3  1  0  0  0  0
  9  7  1  0  0  0  0
 10  3  1  0  0  0  0
 10  4  1  0  0  0  0
 12 11  1  0  0  0  0
 12 14  1  0  0  0  0
 13 14  1  0  0  0  0
 13 17  2  0  0  0  0
 15 12  2  0  0  0  0
 16 13  1  0  0  0  0
 18 16  1  0  0  0  0
 19 18  1  1  0  0  0
 19 24  1  0  0  0  0
 20 22  1  0  0  0  0
 21 20  1  0  0  0  0
 21 22  1  0  0  0  0
 22 19  1  0  0  0  0
 24 23  2  0  0  0  0
 24 30  1  0  0  0  0
 26 25  1  0  0  0  0
 27 30  1  0  0  0  0
 27 29  1  0  0  0  0
 28 25  2  0  0  0  0
 29 28  1  0  0  0  0
 30 26  2  0  0  0  0
 31 39  1  1  0  0  0
 32 35  1  0  0  0  0
 33 31  1  1  0  0  0
 33 36  1  0  0  0  0
 34 33  1  0  0  0  0
 34 36  1  0  0  0  0
 36 35  2  0  0  0  0
 37 34  2  0  0  0  0
 37 38  1  0  0  0  0
 38 32  2  0  0  0  0
 39 40  1  0  0  0  0
 40 41  1  0  0  0  0
 41 44  1  0  0  0  0
 42 44  2  0  0  0  0
 44 43  1  0  0  0  0
M  END
>  <MODEL>
3

>  <REMARK>
 VINA RESULT:      -7.6      2.213      4.375
  Name = 
  13 active torsions:
  status: ('A' for Active; 'I' for Inactive)
    1  A    between atoms: C_4  and  C_8
    2  A    between atoms: C_5  and  C_33
    3  A    between atoms: C_8  and  C_26
    4  A    between atoms: N_10  and  C_33
    5  A    between atoms: C_17  and  C_22
    6  A    between atoms: C_17  and  C_32
    7  A    between atoms: C_19  and  N_31
    8  A    between atoms: C_19  and  C_43
    9  A    between atoms: C_19  and  C_44
   10  A    between atoms: C_22  and  C_30
   11  A    between atoms: N_24  and  N_31
   12  A    between atoms: C_32  and  C_33
   13  A    between atoms: C_39  and  C_44
                            x       y       z     vdW  Elec       q    Type
                         _______ _______ _______ _____ _____    ______ ____

>  <TORSDO>
F 13

$$$$
=
 OpenBabel11062422393D

 44 49  0  0  1  0  0  0  0  0999 V2000
  191.0630  173.6720  144.6050 N   0  0  0  0  0  0  0  0  0  0  0  0
  188.8480  175.0920  147.0610 C   0  0  0  0  0  2  0  0  0  0  0  0
  191.4220  174.8610  146.5770 C   0  0  2  0  0  3  0  0  0  0  0  0
  193.3290  174.3050  144.8970 N   0  0  0  0  0  2  0  0  0  0  0  0
  189.8270  173.7170  145.2450 N   0  0  0  0  0  2  0  0  0  0  0  0
  188.9660  176.5150  146.5480 C   0  0  2  0  0  3  0  0  0  0  0  0
  190.2840  177.1140  147.0100 C   0  0  0  0  0  2  0  0  0  0  0  0
  190.0130  174.2210  146.5920 C   0  0  2  0  0  3  0  0  0  0  0  0
  191.4140  176.3780  146.3100 C   0  0  0  0  0  2  0  0  0  0  0  0
  191.9700  174.2220  145.3360 C   0  0  0  0  0  0  0  0  0  0  0  0
  187.7540  177.3690  146.9240 C   0  0  0  0  0  2  0  0  0  0  0  0
  186.9760  177.9250  145.7670 C   0  0  0  0  0  0  0  0  0  0  0  0
  184.6700  178.3090  144.7930 C   0  0  0  0  0  0  0  0  0  0  0  0
  185.5560  178.0350  145.8850 N   0  0  0  0  0  2  0  0  0  0  0  0
  187.5680  178.3800  144.7490 O   0  0  0  0  0  0  0  0  0  0  0  0
  184.8300  177.6790  143.5210 N   0  0  0  0  0  2  0  0  0  0  0  0
  183.6250  179.0380  144.9980 N   0  0  0  0  0  2  0  0  0  0  0  0
  185.7870  176.6770  143.2920 N   0  0  0  0  0  2  0  0  0  0  0  0
  186.2820  176.7850  141.9140 C   0  0  1  0  0  3  0  0  0  0  0  0
  186.0420  178.0000  139.8320 O   0  0  0  0  0  0  0  0  0  0  0  0
  184.7970  177.7970  140.2900 O   0  0  0  0  0  0  0  0  0  0  0  0
  185.8070  178.0630  141.1880 C   0  0  0  0  0  3  0  0  0  0  0  0
  188.5770  177.4640  141.7900 O   0  0  0  0  0  0  0  0  0  0  0  0
  187.7690  176.4950  141.7920 C   0  0  0  0  0  0  0  0  0  0  0  0
  188.0350  172.7630  142.0290 C   0  0  0  0  0  3  0  0  0  0  0  0
  187.5390  174.1090  141.9840 N   0  0  0  0  0  0  0  0  0  0  0  0
  189.7110  174.8880  141.4930 N   0  0  0  0  0  2  0  0  0  0  0  0
  189.2960  172.4810  141.6970 C   0  0  0  0  0  3  0  0  0  0  0  0
  190.2160  173.5510  141.1840 C   0  0  0  0  0  2  0  0  0  0  0  0
  188.3200  175.1210  141.7480 C   0  0  0  0  0  0  0  0  0  0  0  0
  194.5030  174.3330  145.7690 C   0  0  1  0  0  3  0  0  0  0  0  0
  194.3680  170.9830  142.9310 C   0  0  0  0  0  3  0  0  0  0  0  0
  195.5310  173.2740  145.4020 C   0  0  1  0  0  3  0  0  0  0  0  0
  194.9090  172.0160  145.3760 C   0  0  0  0  0  0  0  0  0  0  0  0
  195.0140  172.2680  142.8770 C   0  0  0  0  0  3  0  0  0  0  0  0
  195.2410  172.7180  144.1400 C   0  0  0  0  0  0  0  0  0  0  0  0
  194.3050  170.8000  145.4890 C   0  0  0  0  0  3  0  0  0  0  0  0
  194.0350  170.2840  144.1740 C   0  0  0  0  0  3  0  0  0  0  0  0
  195.1310  175.7230  145.7690 C   0  0  0  0  0  2  0  0  0  0  0  0
  194.8350  176.4390  144.4580 C   0  0  0  0  0  2  0  0  0  0  0  0
  196.0340  176.3760  143.5220 C   0  0  0  0  0  2  0  0  0  0  0  0
  196.1740  177.0470  141.2420 O   0  0  0  0  0  0  0  0  0  0  0  0
  194.5190  175.5310  141.7220 O   0  0  0  0  0  1  0  0  0  0  0  0
  195.5910  176.3350  142.1000 C   0  0  0  0  0  0  0  0  0  0  0  0
  1  5  1  0  0  0  0
  1 10  2  0  0  0  0
  3  9  1  6  0  0  0
  3  8  1  0  0  0  0
  4 10  1  0  0  0  0
  4 31  1  0  0  0  0
  5  8  1  0  0  0  0
  6 11  1  1  0  0  0
  6  7  1  0  0  0  0
  6  2  1  0  0  0  0
  8  2  1  6  0  0  0
  9  7  1  0  0  0  0
 10  3  1  0  0  0  0
 12 14  1  0  0  0  0
 12 11  1  0  0  0  0
 13 17  2  0  0  0  0
 13 14  1  0  0  0  0
 15 12  2  0  0  0  0
 16 13  1  0  0  0  0
 18 16  1  0  0  0  0
 19 24  1  1  0  0  0
 19 18  1  0  0  0  0
 20 21  1  0  0  0  0
 20 22  1  0  0  0  0
 21 22  1  0  0  0  0
 22 19  1  0  0  0  0
 23 24  2  0  0  0  0
 26 25  1  0  0  0  0
 27 30  1  0  0  0  0
 28 25  2  0  0  0  0
 29 27  1  0  0  0  0
 29 28  1  0  0  0  0
 30 24  1  0  0  0  0
 30 26  2  0  0  0  0
 31 39  1  6  0  0  0
 32 38  1  0  0  0  0
 33 31  1  1  0  0  0
 34 33  1  0  0  0  0
 34 37  1  0  0  0  0
 35 32  2  0  0  0  0
 35 36  1  0  0  0  0
 36 34  2  0  0  0  0
 36 33  1  0  0  0  0
 38 37  2  0  0  0  0
 40 39  1  0  0  0  0
 41 40  1  0  0  0  0
 42 44  2  0  0  0  0
 43 44  1  0  0  0  0
 44 41  1  0  0  0  0
M  END
>  <MODEL>
4

>  <REMARK>
 VINA RESULT:      -7.5      2.265      8.381
  Name = 
  13 active torsions:
  status: ('A' for Active; 'I' for Inactive)
    1  A    between atoms: C_4  and  C_8
    2  A    between atoms: C_5  and  C_33
    3  A    between atoms: C_8  and  C_26
    4  A    between atoms: N_10  and  C_33
    5  A    between atoms: C_17  and  C_22
    6  A    between atoms: C_17  and  C_32
    7  A    between atoms: C_19  and  N_31
    8  A    between atoms: C_19  and  C_43
    9  A    between atoms: C_19  and  C_44
   10  A    between atoms: C_22  and  C_30
   11  A    between atoms: N_24  and  N_31
   12  A    between atoms: C_32  and  C_33
   13  A    between atoms: C_39  and  C_44
                            x       y       z     vdW  Elec       q    Type
                         _______ _______ _______ _____ _____    ______ ____

>  <TORSDO>
F 13

$$$$
=
 OpenBabel11062422393D

 44 49  0  0  1  0  0  0  0  0999 V2000
  189.3060  177.5670  146.7250 N   0  0  0  0  0  0  0  0  0  0  0  0
  192.3040  175.5980  147.0320 C   0  0  0  0  0  2  0  0  0  0  0  0
  190.2500  175.8860  145.4150 C   0  0  2  0  0  3  0  0  0  0  0  0
  188.2110  177.3030  144.6390 N   0  0  0  0  0  2  0  0  0  0  0  0
  190.3260  177.0170  147.4990 N   0  0  0  0  0  2  0  0  0  0  0  0
  193.1020  176.4030  146.0220 C   0  0  2  0  0  3  0  0  0  0  0  0
  192.6800  176.0140  144.6150 C   0  0  0  0  0  2  0  0  0  0  0  0
  190.8000  175.8050  146.8600 C   0  0  2  0  0  3  0  0  0  0  0  0
  191.2480  176.4770  144.4030 C   0  0  0  0  0  2  0  0  0  0  0  0
  189.1900  176.9270  145.6130 C   0  0  0  0  0  0  0  0  0  0  0  0
  194.6100  176.2850  146.2510 C   0  0  0  0  0  2  0  0  0  0  0  0
  195.3020  175.2280  145.4400 C   0  0  0  0  0  0  0  0  0  0  0  0
  196.6690  174.7510  143.3620 C   0  0  0  0  0  0  0  0  0  0  0  0
  196.1480  175.6340  144.3620 N   0  0  0  0  0  2  0  0  0  0  0  0
  195.2210  174.0100  145.7620 O   0  0  0  0  0  0  0  0  0  0  0  0
  195.8590  173.7400  142.7590 N   0  0  0  0  0  2  0  0  0  0  0  0
  197.8550  174.9560  142.8970 N   0  0  0  0  0  2  0  0  0  0  0  0
  194.4850  173.6200  143.0230 N   0  0  0  0  0  2  0  0  0  0  0  0
  194.1080  172.2010  142.9900 C   0  0  1  0  0  3  0  0  0  0  0  0
  192.7790  170.4770  144.0520 O   0  0  0  0  0  0  0  0  0  0  0  0
  193.4690  171.0740  145.0370 O   0  0  0  0  0  0  0  0  0  0  0  0
  192.9910  171.8360  143.9930 C   0  0  0  0  0  3  0  0  0  0  0  0
  194.7460  170.8730  141.1010 O   0  0  0  0  0  0  0  0  0  0  0  0
  193.8980  171.6750  141.5790 C   0  0  0  0  0  0  0  0  0  0  0  0
  191.4750  173.5520  139.4210 C   0  0  0  0  0  3  0  0  0  0  0  0
  192.6380  173.1510  140.1600 N   0  0  0  0  0  0  0  0  0  0  0  0
  191.6010  171.0940  140.6700 N   0  0  0  0  0  2  0  0  0  0  0  0
  190.4650  172.7050  139.2130 C   0  0  0  0  0  3  0  0  0  0  0  0
  190.5470  171.2770  139.6720 C   0  0  0  0  0  2  0  0  0  0  0  0
  192.7050  172.0020  140.7660 C   0  0  0  0  0  0  0  0  0  0  0  0
  187.5760  176.3990  143.6820 C   0  0  1  0  0  3  0  0  0  0  0  0
  184.8780  179.3330  145.5280 C   0  0  0  0  0  3  0  0  0  0  0  0
  186.0600  176.5330  143.6650 C   0  0  1  0  0  3  0  0  0  0  0  0
  185.6050  176.7840  144.9690 C   0  0  0  0  0  0  0  0  0  0  0  0
  185.3240  179.1520  144.1710 C   0  0  0  0  0  3  0  0  0  0  0  0
  185.6770  177.8530  143.9770 C   0  0  0  0  0  0  0  0  0  0  0  0
  185.1880  176.8940  146.2610 C   0  0  0  0  0  3  0  0  0  0  0  0
  184.8100  178.2580  146.5200 C   0  0  0  0  0  3  0  0  0  0  0  0
  188.1560  176.6090  142.2870 C   0  0  0  0  0  2  0  0  0  0  0  0
  188.2780  175.2790  141.5560 C   0  0  0  0  0  2  0  0  0  0  0  0
  189.2080  174.3330  142.3020 C   0  0  0  0  0  2  0  0  0  0  0  0
  189.2330  172.0530  142.9870 O   0  0  0  0  0  1  0  0  0  0  0  0
  187.3650  172.7110  141.8260 O   0  0  0  0  0  0  0  0  0  0  0  0
  188.6060  172.9730  142.4010 C   0  0  0  0  0  0  0  0  0  0  0  0
  1  5  1  0  0  0  0
  3  9  1  6  0  0  0
  3 10  1  0  0  0  0
  3  8  1  0  0  0  0
  4 10  1  0  0  0  0
  6 11  1  6  0  0  0
  6  2  1  0  0  0  0
  7  6  1  0  0  0  0
  8  2  1  6  0  0  0
  8  5  1  0  0  0  0
  9  7  1  0  0  0  0
 10  1  2  0  0  0  0
 12 15  2  0  0  0  0
 12 11  1  0  0  0  0
 13 14  1  0  0  0  0
 14 12  1  0  0  0  0
 16 18  1  0  0  0  0
 16 13  1  0  0  0  0
 17 13  2  0  0  0  0
 19 24  1  6  0  0  0
 19 18  1  0  0  0  0
 19 22  1  0  0  0  0
 20 21  1  0  0  0  0
 22 20  1  0  0  0  0
 22 21  1  0  0  0  0
 23 24  2  0  0  0  0
 25 26  1  0  0  0  0
 26 30  2  0  0  0  0
 27 30  1  0  0  0  0
 28 25  2  0  0  0  0
 28 29  1  0  0  0  0
 29 27  1  0  0  0  0
 30 24  1  0  0  0  0
 31 39  1  6  0  0  0
 31  4  1  0  0  0  0
 32 38  1  0  0  0  0
 33 31  1  1  0  0  0
 33 36  1  0  0  0  0
 33 34  1  0  0  0  0
 34 37  1  0  0  0  0
 35 32  2  0  0  0  0
 36 35  1  0  0  0  0
 36 34  2  0  0  0  0
 37 38  2  0  0  0  0
 40 39  1  0  0  0  0
 40 41  1  0  0  0  0
 41 44  1  0  0  0  0
 43 44  2  0  0  0  0
 44 42  1  0  0  0  0
M  END
>  <MODEL>
5

>  <REMARK>
 VINA RESULT:      -7.4      2.310      3.415
  Name = 
  13 active torsions:
  status: ('A' for Active; 'I' for Inactive)
    1  A    between atoms: C_4  and  C_8
    2  A    between atoms: C_5  and  C_33
    3  A    between atoms: C_8  and  C_26
    4  A    between atoms: N_10  and  C_33
    5  A    between atoms: C_17  and  C_22
    6  A    between atoms: C_17  and  C_32
    7  A    between atoms: C_19  and  N_31
    8  A    between atoms: C_19  and  C_43
    9  A    between atoms: C_19  and  C_44
   10  A    between atoms: C_22  and  C_30
   11  A    between atoms: N_24  and  N_31
   12  A    between atoms: C_32  and  C_33
   13  A    between atoms: C_39  and  C_44
                            x       y       z     vdW  Elec       q    Type
                         _______ _______ _______ _____ _____    ______ ____

>  <TORSDO>
F 13

$$$$
=
 OpenBabel11062422393D

 44 49  0  0  1  0  0  0  0  0999 V2000
  189.2290  177.5040  146.8880 N   0  0  0  0  0  0  0  0  0  0  0  0
  192.3140  175.6510  146.9790 C   0  0  0  0  0  2  0  0  0  0  0  0
  190.2430  176.0220  145.4010 C   0  0  2  0  0  3  0  0  0  0  0  0
  188.1400  177.4220  144.7840 N   0  0  0  0  0  2  0  0  0  0  0  0
  190.2760  176.9180  147.5980 N   0  0  0  0  0  2  0  0  0  0  0  0
  193.0710  176.5980  146.0650 C   0  0  2  0  0  3  0  0  0  0  0  0
  192.6620  176.3480  144.6230 C   0  0  0  0  0  2  0  0  0  0  0  0
  190.8020  175.8070  146.8290 C   0  0  2  0  0  3  0  0  0  0  0  0
  191.2100  176.7660  144.4610 C   0  0  0  0  0  2  0  0  0  0  0  0
  189.1380  176.9860  145.7120 C   0  0  0  0  0  0  0  0  0  0  0  0
  194.5850  176.5240  146.2810 C   0  0  0  0  0  2  0  0  0  0  0  0
  195.3150  175.5660  145.3850 C   0  0  0  0  0  0  0  0  0  0  0  0
  196.4650  175.2620  143.1490 C   0  0  0  0  0  0  0  0  0  0  0  0
  195.9510  176.0750  144.2110 N   0  0  0  0  0  2  0  0  0  0  0  0
  195.4520  174.3540  145.7100 O   0  0  0  0  0  0  0  0  0  0  0  0
  195.7410  174.1360  142.6500 N   0  0  0  0  0  2  0  0  0  0  0  0
  197.5410  175.6290  142.5390 N   0  0  0  0  0  2  0  0  0  0  0  0
  194.4430  173.8220  143.0850 N   0  0  0  0  0  2  0  0  0  0  0  0
  194.0080  172.5740  142.4470 C   0  0  1  0  0  3  0  0  0  0  0  0
  192.5410  171.8690  140.6520 O   0  0  0  0  0  0  0  0  0  0  0  0
  192.2170  173.1450  140.9190 O   0  0  0  0  0  0  0  0  0  0  0  0
  193.5380  172.7590  140.9870 C   0  0  0  0  0  3  0  0  0  0  0  0
  195.6320  170.9890  141.6790 O   0  0  0  0  0  0  0  0  0  0  0  0
  194.9780  171.4240  142.6660 C   0  0  0  0  0  0  0  0  0  0  0  0
  194.5580  169.4690  145.8370 C   0  0  0  0  0  3  0  0  0  0  0  0
  194.3880  170.0090  144.5180 N   0  0  0  0  0  0  0  0  0  0  0  0
  196.4110  171.2010  144.7480 N   0  0  0  0  0  2  0  0  0  0  0  0
  195.6740  169.6920  146.5340 C   0  0  0  0  0  3  0  0  0  0  0  0
  196.8250  170.4440  145.9290 C   0  0  0  0  0  2  0  0  0  0  0  0
  195.2450  170.8380  143.9990 C   0  0  0  0  0  0  0  0  0  0  0  0
  187.5420  176.6010  143.7320 C   0  0  1  0  0  3  0  0  0  0  0  0
  184.7100  179.2720  145.7670 C   0  0  0  0  0  3  0  0  0  0  0  0
  186.0210  176.6440  143.7470 C   0  0  1  0  0  3  0  0  0  0  0  0
  185.5770  176.8030  145.0690 C   0  0  0  0  0  0  0  0  0  0  0  0
  185.1400  179.1860  144.3960 C   0  0  0  0  0  3  0  0  0  0  0  0
  185.5660  177.9210  144.1310 C   0  0  0  0  0  0  0  0  0  0  0  0
  185.1800  176.8240  146.3720 C   0  0  0  0  0  3  0  0  0  0  0  0
  184.7260  178.1480  146.7050 C   0  0  0  0  0  3  0  0  0  0  0  0
  188.0840  177.0110  142.3670 C   0  0  0  0  0  2  0  0  0  0  0  0
  188.1700  175.8030  141.4450 C   0  0  0  0  0  2  0  0  0  0  0  0
  189.3520  174.9190  141.8170 C   0  0  0  0  0  2  0  0  0  0  0  0
  187.7310  173.1850  142.0090 O   0  0  0  0  0  0  0  0  0  0  0  0
  189.7040  172.8150  143.1230 O   0  0  0  0  0  1  0  0  0  0  0  0
  188.8830  173.5930  142.3100 C   0  0  0  0  0  0  0  0  0  0  0  0
  1  5  1  0  0  0  0
  3  9  1  6  0  0  0
  3 10  1  0  0  0  0
  3  8  1  0  0  0  0
  4 10  1  0  0  0  0
  6 11  1  6  0  0  0
  6  2  1  0  0  0  0
  7  6  1  0  0  0  0
  8  2  1  6  0  0  0
  8  5  1  0  0  0  0
  9  7  1  0  0  0  0
 10  1  2  0  0  0  0
 12 15  2  0  0  0  0
 12 11  1  0  0  0  0
 13 14  1  0  0  0  0
 14 12  1  0  0  0  0
 16 18  1  0  0  0  0
 16 13  1  0  0  0  0
 17 13  2  0  0  0  0
 19 24  1  6  0  0  0
 19 18  1  0  0  0  0
 20 21  1  0  0  0  0
 20 22  1  0  0  0  0
 21 22  1  0  0  0  0
 22 19  1  0  0  0  0
 23 24  2  0  0  0  0
 24 30  1  0  0  0  0
 25 28  2  0  0  0  0
 26 25  1  0  0  0  0
 27 29  1  0  0  0  0
 29 28  1  0  0  0  0
 30 26  2  0  0  0  0
 30 27  1  0  0  0  0
 31 39  1  6  0  0  0
 31  4  1  0  0  0  0
 32 38  1  0  0  0  0
 33 31  1  1  0  0  0
 33 36  1  0  0  0  0
 33 34  1  0  0  0  0
 34 37  1  0  0  0  0
 35 32  2  0  0  0  0
 36 35  1  0  0  0  0
 36 34  2  0  0  0  0
 37 38  2  0  0  0  0
 40 41  1  0  0  0  0
 40 39  1  0  0  0  0
 41 44  1  0  0  0  0
 42 44  2  0  0  0  0
 44 43  1  0  0  0  0
M  END
>  <MODEL>
6

>  <REMARK>
 VINA RESULT:      -7.2      2.485      3.551
  Name = 
  13 active torsions:
  status: ('A' for Active; 'I' for Inactive)
    1  A    between atoms: C_4  and  C_8
    2  A    between atoms: C_5  and  C_33
    3  A    between atoms: C_8  and  C_26
    4  A    between atoms: N_10  and  C_33
    5  A    between atoms: C_17  and  C_22
    6  A    between atoms: C_17  and  C_32
    7  A    between atoms: C_19  and  N_31
    8  A    between atoms: C_19  and  C_43
    9  A    between atoms: C_19  and  C_44
   10  A    between atoms: C_22  and  C_30
   11  A    between atoms: N_24  and  N_31
   12  A    between atoms: C_32  and  C_33
   13  A    between atoms: C_39  and  C_44
                            x       y       z     vdW  Elec       q    Type
                         _______ _______ _______ _____ _____    ______ ____

>  <TORSDO>
F 13

$$$$
=
 OpenBabel11062422393D

 44 49  0  0  1  0  0  0  0  0999 V2000
  190.8780  176.6200  142.7820 N   0  0  0  0  0  0  0  0  0  0  0  0
  191.1190  173.2530  144.0330 C   0  0  0  0  0  2  0  0  0  0  0  0
  189.3150  175.1290  143.6570 C   0  0  2  0  0  3  0  0  0  0  0  0
  188.6460  177.3800  142.5390 N   0  0  0  0  0  2  0  0  0  0  0  0
  191.6210  175.5760  143.3300 N   0  0  0  0  0  2  0  0  0  0  0  0
  190.5760  172.5990  142.7750 C   0  0  2  0  0  3  0  0  0  0  0  0
  189.0640  172.7530  142.7340 C   0  0  0  0  0  2  0  0  0  0  0  0
  190.7400  174.7310  144.1120 C   0  0  2  0  0  3  0  0  0  0  0  0
  188.7400  174.2260  142.5500 C   0  0  0  0  0  2  0  0  0  0  0  0
  189.6220  176.4440  143.0060 C   0  0  0  0  0  0  0  0  0  0  0  0
  191.0350  171.1460  142.6330 C   0  0  0  0  0  2  0  0  0  0  0  0
  192.5150  170.9550  142.4730 C   0  0  0  0  0  0  0  0  0  0  0  0
  194.6710  170.2900  143.6260 C   0  0  0  0  0  0  0  0  0  0  0  0
  193.2420  170.3200  143.5280 N   0  0  0  0  0  2  0  0  0  0  0  0
  193.0940  171.2540  141.3920 O   0  0  0  0  0  0  0  0  0  0  0  0
  195.4650  171.4450  143.3510 N   0  0  0  0  0  2  0  0  0  0  0  0
  195.2480  169.2390  144.1010 N   0  0  0  0  0  2  0  0  0  0  0  0
  194.8980  172.7010  143.0790 N   0  0  0  0  0  2  0  0  0  0  0  0
  195.9630  173.7090  143.0110 C   0  0  1  0  0  3  0  0  0  0  0  0
  197.0080  175.1790  141.3940 O   0  0  0  0  0  0  0  0  0  0  0  0
  196.3690  174.2370  140.6820 O   0  0  0  0  0  0  0  0  0  0  0  0
  195.7950  174.7060  141.8430 C   0  0  0  0  0  3  0  0  0  0  0  0
  197.4140  174.1880  144.8570 O   0  0  0  0  0  0  0  0  0  0  0  0
  196.2660  174.3460  144.3580 C   0  0  0  0  0  0  0  0  0  0  0  0
  193.3970  175.4370  146.5090 C   0  0  0  0  0  3  0  0  0  0  0  0
  194.4040  174.6590  145.8470 N   0  0  0  0  0  0  0  0  0  0  0  0
  195.3030  176.6280  144.9090 N   0  0  0  0  0  2  0  0  0  0  0  0
  193.4180  176.7700  146.4700 C   0  0  0  0  0  3  0  0  0  0  0  0
  194.5460  177.5050  145.8020 C   0  0  0  0  0  2  0  0  0  0  0  0
  195.2990  175.2060  145.0780 C   0  0  0  0  0  0  0  0  0  0  0  0
  187.3550  177.6470  143.1710 C   0  0  1  0  0  3  0  0  0  0  0  0
  184.5330  177.2450  146.5130 C   0  0  0  0  0  3  0  0  0  0  0  0
  187.4830  177.9760  144.6510 C   0  0  1  0  0  3  0  0  0  0  0  0
  186.3350  178.6640  145.0720 C   0  0  0  0  0  0  0  0  0  0  0  0
  185.6860  176.4760  146.1270 C   0  0  0  0  0  3  0  0  0  0  0  0
  186.5330  177.2560  145.4020 C   0  0  0  0  0  0  0  0  0  0  0  0
  185.2700  179.4430  145.4140 C   0  0  0  0  0  3  0  0  0  0  0  0
  184.3380  178.6570  146.1780 C   0  0  0  0  0  3  0  0  0  0  0  0
  186.6200  178.7590  142.4290 C   0  0  0  0  0  2  0  0  0  0  0  0
  185.5360  178.1740  141.5350 C   0  0  0  0  0  2  0  0  0  0  0  0
  184.2580  177.9230  142.3220 C   0  0  0  0  0  2  0  0  0  0  0  0
  182.0120  178.6490  142.0150 O   0  0  0  0  0  1  0  0  0  0  0  0
  183.0860  177.9410  140.1140 O   0  0  0  0  0  0  0  0  0  0  0  0
  183.0590  178.2000  141.4820 C   0  0  0  0  0  0  0  0  0  0  0  0
  1 10  2  0  0  0  0
  1  5  1  0  0  0  0
  3  9  1  6  0  0  0
  3  8  1  0  0  0  0
  4 10  1  0  0  0  0
  4 31  1  0  0  0  0
  5  8  1  0  0  0  0
  6 11  1  1  0  0  0
  6  2  1  0  0  0  0
  7  6  1  0  0  0  0
  8  2  1  6  0  0  0
  9  7  1  0  0  0  0
 10  3  1  0  0  0  0
 12 11  1  0  0  0  0
 12 14  1  0  0  0  0
 13 17  2  0  0  0  0
 14 13  1  0  0  0  0
 15 12  2  0  0  0  0
 16 13  1  0  0  0  0
 18 16  1  0  0  0  0
 19 18  1  1  0  0  0
 19 24  1  0  0  0  0
 20 22  1  0  0  0  0
 21 20  1  0  0  0  0
 21 22  1  0  0  0  0
 22 19  1  0  0  0  0
 24 23  2  0  0  0  0
 24 30  1  0  0  0  0
 26 25  1  0  0  0  0
 27 30  1  0  0  0  0
 27 29  1  0  0  0  0
 28 25  2  0  0  0  0
 29 28  1  0  0  0  0
 30 26  2  0  0  0  0
 31 39  1  6  0  0  0
 33 31  1  6  0  0  0
 33 34  1  0  0  0  0
 33 36  1  0  0  0  0
 34 36  2  0  0  0  0
 34 37  1  0  0  0  0
 35 32  2  0  0  0  0
 36 35  1  0  0  0  0
 37 38  2  0  0  0  0
 38 32  1  0  0  0  0
 40 41  1  0  0  0  0
 40 39  1  0  0  0  0
 43 44  2  0  0  0  0
 44 42  1  0  0  0  0
 44 41  1  0  0  0  0
M  END
>  <MODEL>
7

>  <REMARK>
 VINA RESULT:      -7.2      1.773      4.102
  Name = 
  13 active torsions:
  status: ('A' for Active; 'I' for Inactive)
    1  A    between atoms: C_4  and  C_8
    2  A    between atoms: C_5  and  C_33
    3  A    between atoms: C_8  and  C_26
    4  A    between atoms: N_10  and  C_33
    5  A    between atoms: C_17  and  C_22
    6  A    between atoms: C_17  and  C_32
    7  A    between atoms: C_19  and  N_31
    8  A    between atoms: C_19  and  C_43
    9  A    between atoms: C_19  and  C_44
   10  A    between atoms: C_22  and  C_30
   11  A    between atoms: N_24  and  N_31
   12  A    between atoms: C_32  and  C_33
   13  A    between atoms: C_39  and  C_44
                            x       y       z     vdW  Elec       q    Type
                         _______ _______ _______ _____ _____    ______ ____

>  <TORSDO>
F 13

$$$$
=
 OpenBabel11062422393D

 44 49  0  0  1  0  0  0  0  0999 V2000
  190.6890  173.8090  144.9220 N   0  0  0  0  0  0  0  0  0  0  0  0
  189.9900  171.8390  141.9920 C   0  0  0  0  0  2  0  0  0  0  0  0
  189.0280  173.9130  143.2910 C   0  0  2  0  0  3  0  0  0  0  0  0
  189.3670  175.7710  145.0800 N   0  0  0  0  0  2  0  0  0  0  0  0
  190.7980  172.6220  144.2010 N   0  0  0  0  0  2  0  0  0  0  0  0
  190.5810  172.8350  141.0110 C   0  0  2  0  0  3  0  0  0  0  0  0
  189.6020  173.9770  140.7950 C   0  0  0  0  0  2  0  0  0  0  0  0
  189.6470  172.4950  143.3290 C   0  0  2  0  0  3  0  0  0  0  0  0
  189.4920  174.7620  142.0920 C   0  0  0  0  0  2  0  0  0  0  0  0
  189.6890  174.5020  144.5000 C   0  0  0  0  0  0  0  0  0  0  0  0
  191.0250  172.1700  139.7070 C   0  0  0  0  0  2  0  0  0  0  0  0
  192.1740  172.8350  139.0060 C   0  0  0  0  0  0  0  0  0  0  0  0
  194.6720  172.7970  138.5930 C   0  0  0  0  0  0  0  0  0  0  0  0
  193.4450  172.1810  139.0000 N   0  0  0  0  0  2  0  0  0  0  0  0
  192.0020  173.8990  138.3490 O   0  0  0  0  0  0  0  0  0  0  0  0
  195.0080  174.1290  138.9840 N   0  0  0  0  0  2  0  0  0  0  0  0
  195.5560  172.0900  137.9720 N   0  0  0  0  0  2  0  0  0  0  0  0
  194.2180  174.8740  139.8750 N   0  0  0  0  0  2  0  0  0  0  0  0
  194.9010  174.9610  141.1710 C   0  0  1  0  0  3  0  0  0  0  0  0
  196.6450  176.2530  142.2470 O   0  0  0  0  0  0  0  0  0  0  0  0
  196.8030  176.4420  140.9270 O   0  0  0  0  0  0  0  0  0  0  0  0
  195.5300  176.3450  141.4450 C   0  0  0  0  0  3  0  0  0  0  0  0
  193.7380  173.1800  142.2740 O   0  0  0  0  0  0  0  0  0  0  0  0
  194.0780  174.3950  142.3170 C   0  0  0  0  0  0  0  0  0  0  0  0
  192.5360  177.0010  144.5260 C   0  0  0  0  0  3  0  0  0  0  0  0
  192.8640  176.1580  143.4130 N   0  0  0  0  0  0  0  0  0  0  0  0
  194.3290  174.9200  144.7870 N   0  0  0  0  0  2  0  0  0  0  0  0
  192.9940  176.7360  145.7510 C   0  0  0  0  0  3  0  0  0  0  0  0
  193.8000  175.4970  146.0220 C   0  0  0  0  0  2  0  0  0  0  0  0
  193.7190  175.1830  143.5180 C   0  0  0  0  0  0  0  0  0  0  0  0
  188.0310  176.3590  145.1460 C   0  0  1  0  0  3  0  0  0  0  0  0
  184.7560  178.5550  147.0830 C   0  0  0  0  0  3  0  0  0  0  0  0
  187.4010  176.2310  146.5250 C   0  0  1  0  0  3  0  0  0  0  0  0
  187.2550  177.5100  147.0860 C   0  0  0  0  0  0  0  0  0  0  0  0
  184.8240  177.2400  146.5010 C   0  0  0  0  0  3  0  0  0  0  0  0
  186.1090  176.7940  146.5330 C   0  0  0  0  0  0  0  0  0  0  0  0
  187.2500  178.7490  147.6510 C   0  0  0  0  0  3  0  0  0  0  0  0
  185.9090  179.2700  147.6330 C   0  0  0  0  0  3  0  0  0  0  0  0
  188.0700  177.8170  144.6990 C   0  0  0  0  0  2  0  0  0  0  0  0
  187.8680  177.9160  143.1930 C   0  0  0  0  0  2  0  0  0  0  0  0
  186.4980  177.3880  142.7920 C   0  0  0  0  0  2  0  0  0  0  0  0
  185.3730  178.2930  140.8980 O   0  0  0  0  0  1  0  0  0  0  0  0
  187.0750  176.8270  140.4240 O   0  0  0  0  0  0  0  0  0  0  0  0
  186.2850  177.5380  141.3240 C   0  0  0  0  0  0  0  0  0  0  0  0
  3  9  1  6  0  0  0
  3  8  1  0  0  0  0
  3 10  1  0  0  0  0
  4 31  1  0  0  0  0
  5  1  1  0  0  0  0
  6 11  1  6  0  0  0
  6  2  1  0  0  0  0
  7  6  1  0  0  0  0
  7  9  1  0  0  0  0
  8  2  1  6  0  0  0
  8  5  1  0  0  0  0
 10  1  2  0  0  0  0
 10  4  1  0  0  0  0
 12 11  1  0  0  0  0
 13 16  1  0  0  0  0
 13 14  1  0  0  0  0
 14 12  1  0  0  0  0
 15 12  2  0  0  0  0
 16 18  1  0  0  0  0
 17 13  2  0  0  0  0
 19 18  1  6  0  0  0
 19 22  1  0  0  0  0
 19 24  1  0  0  0  0
 21 22  1  0  0  0  0
 21 20  1  0  0  0  0
 22 20  1  0  0  0  0
 23 24  2  0  0  0  0
 24 30  1  0  0  0  0
 25 28  2  0  0  0  0
 26 30  2  0  0  0  0
 26 25  1  0  0  0  0
 27 29  1  0  0  0  0
 28 29  1  0  0  0  0
 30 27  1  0  0  0  0
 31 39  1  1  0  0  0
 32 38  1  0  0  0  0
 33 31  1  6  0  0  0
 33 36  1  0  0  0  0
 33 34  1  0  0  0  0
 34 37  1  0  0  0  0
 35 36  1  0  0  0  0
 35 32  2  0  0  0  0
 36 34  2  0  0  0  0
 38 37  2  0  0  0  0
 40 39  1  0  0  0  0
 41 40  1  0  0  0  0
 42 44  1  0  0  0  0
 43 44  2  0  0  0  0
 44 41  1  0  0  0  0
M  END
>  <MODEL>
8

>  <REMARK>
 VINA RESULT:      -7.1      2.085      4.245
  Name = 
  13 active torsions:
  status: ('A' for Active; 'I' for Inactive)
    1  A    between atoms: C_4  and  C_8
    2  A    between atoms: C_5  and  C_33
    3  A    between atoms: C_8  and  C_26
    4  A    between atoms: N_10  and  C_33
    5  A    between atoms: C_17  and  C_22
    6  A    between atoms: C_17  and  C_32
    7  A    between atoms: C_19  and  N_31
    8  A    between atoms: C_19  and  C_43
    9  A    between atoms: C_19  and  C_44
   10  A    between atoms: C_22  and  C_30
   11  A    between atoms: N_24  and  N_31
   12  A    between atoms: C_32  and  C_33
   13  A    between atoms: C_39  and  C_44
                            x       y       z     vdW  Elec       q    Type
                         _______ _______ _______ _____ _____    ______ ____

>  <TORSDO>
F 13

$$$$
=
 OpenBabel11062422393D

 44 49  0  0  1  0  0  0  0  0999 V2000
  191.7790  177.5400  144.3210 N   0  0  0  0  0  0  0  0  0  0  0  0
  192.9400  174.6580  146.1380 C   0  0  0  0  0  2  0  0  0  0  0  0
  190.6950  175.6930  145.2410 C   0  0  2  0  0  3  0  0  0  0  0  0
  189.4970  177.4040  143.6910 N   0  0  0  0  0  2  0  0  0  0  0  0
  192.7290  176.9080  145.1210 N   0  0  0  0  0  2  0  0  0  0  0  0
  192.8780  173.7120  144.9520 C   0  0  2  0  0  3  0  0  0  0  0  0
  191.4360  173.3000  144.7060 C   0  0  0  0  0  2  0  0  0  0  0  0
  192.0700  175.8960  145.9220 C   0  0  2  0  0  3  0  0  0  0  0  0
  190.6630  174.5230  144.2400 C   0  0  0  0  0  2  0  0  0  0  0  0
  190.6400  176.9460  144.4210 C   0  0  0  0  0  0  0  0  0  0  0  0
  193.8240  172.5210  145.1110 C   0  0  0  0  0  2  0  0  0  0  0  0
  195.1090  172.6150  144.3410 C   0  0  0  0  0  0  0  0  0  0  0  0
  196.8890  174.1710  143.4310 C   0  0  0  0  0  0  0  0  0  0  0  0
  195.8000  173.8670  144.3110 N   0  0  0  0  0  2  0  0  0  0  0  0
  195.6250  171.5900  143.8140 O   0  0  0  0  0  0  0  0  0  0  0  0
  196.8680  173.7930  142.0540 N   0  0  0  0  0  2  0  0  0  0  0  0
  197.8500  174.9200  143.8550 N   0  0  0  0  0  2  0  0  0  0  0  0
  195.7450  173.2030  141.4520 N   0  0  0  0  0  2  0  0  0  0  0  0
  194.9570  174.2400  140.7750 C   0  0  1  0  0  3  0  0  0  0  0  0
  194.2910  175.1550  138.6340 O   0  0  0  0  0  0  0  0  0  0  0  0
  195.6320  175.2000  138.6570 O   0  0  0  0  0  0  0  0  0  0  0  0
  194.9860  174.1300  139.2350 C   0  0  0  0  0  3  0  0  0  0  0  0
  193.3190  175.4940  141.9960 O   0  0  0  0  0  0  0  0  0  0  0  0
  193.5730  174.4240  141.3770 C   0  0  0  0  0  0  0  0  0  0  0  0
  191.6910  171.1820  141.3370 C   0  0  0  0  0  3  0  0  0  0  0  0
  192.6840  172.1960  141.5480 N   0  0  0  0  0  0  0  0  0  0  0  0
  191.2250  173.8100  140.6370 N   0  0  0  0  0  2  0  0  0  0  0  0
  190.4670  171.4940  140.9060 C   0  0  0  0  0  3  0  0  0  0  0  0
  190.0610  172.9270  140.7080 C   0  0  0  0  0  2  0  0  0  0  0  0
  192.4830  173.4350  141.2090 C   0  0  0  0  0  0  0  0  0  0  0  0
  188.1050  177.2520  144.1110 C   0  0  1  0  0  3  0  0  0  0  0  0
  184.4390  177.5480  146.5120 C   0  0  0  0  0  3  0  0  0  0  0  0
  187.8210  177.9160  145.4510 C   0  0  1  0  0  3  0  0  0  0  0  0
  186.6280  178.6490  145.3590 C   0  0  0  0  0  0  0  0  0  0  0  0
  185.6230  176.7440  146.6560 C   0  0  0  0  0  3  0  0  0  0  0  0
  186.6700  177.3600  146.0440 C   0  0  0  0  0  0  0  0  0  0  0  0
  185.5420  179.4550  145.1970 C   0  0  0  0  0  3  0  0  0  0  0  0
  184.4020  178.8390  145.8230 C   0  0  0  0  0  3  0  0  0  0  0  0
  187.1650  177.7810  143.0330 C   0  0  0  0  0  2  0  0  0  0  0  0
  186.6730  176.6410  142.1520 C   0  0  0  0  0  2  0  0  0  0  0  0
  187.3930  176.6430  140.8100 C   0  0  0  0  0  2  0  0  0  0  0  0
  185.5610  177.9480  140.0290 O   0  0  0  0  0  1  0  0  0  0  0  0
  186.6910  176.7730  138.4130 O   0  0  0  0  0  0  0  0  0  0  0  0
  186.5020  177.1660  139.7360 C   0  0  0  0  0  0  0  0  0  0  0  0
  1 10  2  0  0  0  0
  1  5  1  0  0  0  0
  3  9  1  6  0  0  0
  3  8  1  0  0  0  0
  4 31  1  0  0  0  0
  4 10  1  0  0  0  0
  5  8  1  0  0  0  0
  6 11  1  1  0  0  0
  6  2  1  0  0  0  0
  7  6  1  0  0  0  0
  8  2  1  6  0  0  0
  9  7  1  0  0  0  0
 10  3  1  0  0  0  0
 12 11  1  0  0  0  0
 13 17  2  0  0  0  0
 13 14  1  0  0  0  0
 14 12  1  0  0  0  0
 15 12  2  0  0  0  0
 16 13  1  0  0  0  0
 18 16  1  0  0  0  0
 19 24  1  1  0  0  0
 19 18  1  0  0  0  0
 20 21  1  0  0  0  0
 20 22  1  0  0  0  0
 21 22  1  0  0  0  0
 22 19  1  0  0  0  0
 24 23  2  0  0  0  0
 25 26  1  0  0  0  0
 27 29  1  0  0  0  0
 27 30  1  0  0  0  0
 28 25  2  0  0  0  0
 29 28  1  0  0  0  0
 30 24  1  0  0  0  0
 30 26  2  0  0  0  0
 31 39  1  6  0  0  0
 32 35  1  0  0  0  0
 33 31  1  6  0  0  0
 33 36  1  0  0  0  0
 34 33  1  0  0  0  0
 34 36  1  0  0  0  0
 36 35  2  0  0  0  0
 37 34  2  0  0  0  0
 37 38  1  0  0  0  0
 38 32  2  0  0  0  0
 40 39  1  0  0  0  0
 41 40  1  0  0  0  0
 43 44  2  0  0  0  0
 44 42  1  0  0  0  0
 44 41  1  0  0  0  0
M  END
>  <MODEL>
9

>  <REMARK>
 VINA RESULT:      -7.0      1.772      2.508
  Name = 
  13 active torsions:
  status: ('A' for Active; 'I' for Inactive)
    1  A    between atoms: C_4  and  C_8
    2  A    between atoms: C_5  and  C_33
    3  A    between atoms: C_8  and  C_26
    4  A    between atoms: N_10  and  C_33
    5  A    between atoms: C_17  and  C_22
    6  A    between atoms: C_17  and  C_32
    7  A    between atoms: C_19  and  N_31
    8  A    between atoms: C_19  and  C_43
    9  A    between atoms: C_19  and  C_44
   10  A    between atoms: C_22  and  C_30
   11  A    between atoms: N_24  and  N_31
   12  A    between atoms: C_32  and  C_33
   13  A    between atoms: C_39  and  C_44
                            x       y       z     vdW  Elec       q    Type
                         _______ _______ _______ _____ _____    ______ ____

>  <TORSDO>
F 13

$$$$
