=
 OpenBabel11072409003D

 45 47  0  0  1  0  0  0  0  0999 V2000
  192.8880  174.9340  146.1500 C   0  0  0  0  0  2  0  0  0  0  0  0
  194.3650  174.9040  146.5230 C   0  0  0  0  0  2  0  0  0  0  0  0
  194.7000  176.4990  144.5090 C   0  0  0  0  0  2  0  0  0  0  0  0
  195.1770  175.3390  145.3350 C   0  0  0  0  0  0  0  0  0  0  0  0
  196.3000  174.7040  144.9830 C   0  0  0  0  0  3  0  0  0  0  0  0
  192.4220  176.3140  145.6510 C   0  0  1  0  0  3  0  0  0  0  0  0
  193.5670  177.2450  145.2170 C   0  0  0  0  0  2  0  0  0  0  0  0
  196.8510  173.5470  145.7580 C   0  0  0  0  0  2  0  0  0  0  0  0
  196.3250  172.2460  145.1840 C   0  0  0  0  0  2  0  0  0  0  0  0
  196.2830  172.3280  143.6680 C   0  0  0  0  0  2  0  0  0  0  0  0
  195.1230  171.6030  143.1710 N   0  0  0  0  0  2  0  0  0  0  0  0
  193.9460  172.3310  143.6180 C   0  0  0  0  0  2  0  0  0  0  0  0
  193.1290  172.8010  142.4240 C   0  0  1  0  0  3  0  0  0  0  0  0
  189.4540  172.1620  141.7630 C   0  0  0  0  0  3  0  0  0  0  0  0
  190.8070  172.4230  141.5440 C   0  0  0  0  0  0  0  0  0  0  0  0
  191.2600  172.6130  140.2800 F   0  0  0  0  0  0  0  0  0  0  0  0
  191.1900  172.3170  143.8990 N   0  0  0  0  0  0  0  0  0  0  0  0
  189.4320  171.8860  145.3970 F   0  0  0  0  0  0  0  0  0  0  0  0
  191.6770  172.4960  142.6380 C   0  0  0  0  0  0  0  0  0  0  0  0
  189.8750  172.0580  144.1310 C   0  0  0  0  0  0  0  0  0  0  0  0
  188.9810  171.9770  143.0630 C   0  0  0  0  0  3  0  0  0  0  0  0
  193.3450  174.2960  142.1930 C   0  0  0  0  0  2  0  0  0  0  0  0
  194.9150  174.9950  140.3070 C   0  0  0  0  0  0  0  0  0  0  0  0
  195.0530  175.2350  139.0770 O   0  0  0  0  0  0  0  0  0  0  0  0
  193.6350  174.5770  140.7910 N   0  0  0  0  0  2  0  0  0  0  0  0
  196.6060  176.3280  141.4720 C   0  0  0  0  0  2  0  0  0  0  0  0
  196.0560  175.1470  141.2220 C   0  0  0  0  0  3  0  0  0  0  0  0
  191.5200  176.1520  144.5950 O   0  0  0  0  0  0  0  0  0  0  0  0
  190.4640  177.0270  144.8740 C   0  0  1  0  0  3  0  0  0  0  0  0
  186.9520  176.2580  146.0930 O   0  0  0  0  0  1  0  0  0  0  0  0
  189.6220  177.3380  142.5120 C   0  0  0  0  0  2  0  0  0  0  0  0
  188.4170  178.1530  142.0410 C   0  0  0  0  0  2  0  0  0  0  0  0
  187.7070  178.2790  144.9990 C   0  0  0  0  0  2  0  0  0  0  0  0
  186.6560  178.3080  143.8880 C   0  0  0  0  0  2  0  0  0  0  0  0
  189.2850  175.0190  145.4440 O   0  0  0  0  0  0  0  0  0  0  0  0
  187.0290  177.6580  142.5300 C   0  0  1  0  0  0  0  0  0  0  0  0
  190.2710  178.0020  143.7110 C   0  0  0  0  0  2  0  0  0  0  0  0
  187.9530  176.9240  145.4700 N   0  0  0  0  0  0  0  0  0  0  0  0
  189.2110  176.2640  145.2550 C   0  0  0  0  0  0  0  0  0  0  0  0
  186.2020  177.8540  140.1210 N   0  0  0  0  0  1  0  0  0  0  0  0
  186.0010  178.1040  141.5120 C   0  0  0  0  0  0  0  0  0  0  0  0
  184.9130  178.6220  141.8830 O   0  0  0  0  0  0  0  0  0  0  0  0
  185.9720  175.6000  143.2170 O   0  0  0  0  0  1  0  0  0  0  0  0
  187.9500  175.3510  142.1060 O   0  0  0  0  0  0  0  0  0  0  0  0
  186.9250  176.1480  142.6010 C   0  0  0  0  0  0  0  0  0  0  0  0
  1  2  1  0  0  0  0
  3  7  1  0  0  0  0
  3  4  1  0  0  0  0
  4  2  1  0  0  0  0
  5  4  2  0  0  0  0
  5  8  1  0  0  0  0
  6 28  1  6  0  0  0
  6  1  1  0  0  0  0
  7  6  1  0  0  0  0
  9  8  1  0  0  0  0
 10  9  1  0  0  0  0
 11 12  1  0  0  0  0
 11 10  1  0  0  0  0
 13 22  1  1  0  0  0
 13 19  1  0  0  0  0
 13 12  1  0  0  0  0
 14 21  1  0  0  0  0
 15 14  2  0  0  0  0
 15 19  1  0  0  0  0
 16 15  1  0  0  0  0
 17 20  1  0  0  0  0
 19 17  2  0  0  0  0
 20 18  1  0  0  0  0
 21 20  2  0  0  0  0
 23 25  1  0  0  0  0
 23 27  1  0  0  0  0
 24 23  2  0  0  0  0
 25 22  1  0  0  0  0
 27 26  2  0  0  0  0
 29 28  1  6  0  0  0
 29 39  1  0  0  0  0
 31 37  1  0  0  0  0
 32 31  1  0  0  0  0
 32 36  1  0  0  0  0
 33 38  1  0  0  0  0
 34 33  1  0  0  0  0
 36 41  1  6  0  0  0
 36 45  1  0  0  0  0
 36 34  1  0  0  0  0
 37 29  1  0  0  0  0
 38 30  1  0  0  0  0
 39 35  2  0  0  0  0
 39 38  1  0  0  0  0
 40 41  1  0  0  0  0
 41 42  2  0  0  0  0
 44 45  2  0  0  0  0
 45 43  1  0  0  0  0
M  END
>  <MODEL>
1

>  <REMARK>
 VINA RESULT:      -6.6      0.000      0.000
  Name = 
  14 active torsions:
  status: ('A' for Active; 'I' for Inactive)
    1  A    between atoms: C_1  and  O_40
    2  A    between atoms: C_2  and  C_18
    3  A    between atoms: C_2  and  N_37
    4  A    between atoms: C_5  and  C_25
    5  A    between atoms: C_5  and  C_35
    6  A    between atoms: C_7  and  C_26
    7  A    between atoms: C_11  and  C_44
    8  A    between atoms: C_18  and  C_23
    9  A    between atoms: C_18  and  C_32
   10  A    between atoms: C_23  and  N_43
   11  A    between atoms: C_25  and  N_43
   12  A    between atoms: C_26  and  C_39
   13  A    between atoms: C_29  and  C_35
   14  A    between atoms: O_40  and  C_41
                            x       y       z     vdW  Elec       q    Type
                         _______ _______ _______ _____ _____    ______ ____

>  <TORSDO>
F 14

$$$$
=
 OpenBabel11072409003D

 45 47  0  0  1  0  0  0  0  0999 V2000
  193.1990  175.0260  146.1710 C   0  0  0  0  0  2  0  0  0  0  0  0
  194.6870  174.9940  146.4970 C   0  0  0  0  0  2  0  0  0  0  0  0
  194.9860  176.3780  144.3260 C   0  0  0  0  0  2  0  0  0  0  0  0
  195.4660  175.2920  145.2460 C   0  0  0  0  0  0  0  0  0  0  0  0
  196.5610  174.5960  144.9200 C   0  0  0  0  0  3  0  0  0  0  0  0
  192.7470  176.3630  145.5560 C   0  0  1  0  0  3  0  0  0  0  0  0
  193.8960  177.2180  144.9950 C   0  0  0  0  0  2  0  0  0  0  0  0
  197.1130  173.5060  145.7860 C   0  0  0  0  0  2  0  0  0  0  0  0
  196.9180  172.1630  145.1100 C   0  0  0  0  0  2  0  0  0  0  0  0
  195.8620  171.3600  145.8490 C   0  0  0  0  0  2  0  0  0  0  0  0
  194.5470  171.6630  145.3070 N   0  0  0  0  0  2  0  0  0  0  0  0
  194.6290  171.4710  143.8670 C   0  0  0  0  0  2  0  0  0  0  0  0
  193.5850  172.3210  143.1590 C   0  0  1  0  0  3  0  0  0  0  0  0
  194.1640  175.3070  140.9000 C   0  0  0  0  0  3  0  0  0  0  0  0
  193.5360  174.4090  141.7640 C   0  0  0  0  0  0  0  0  0  0  0  0
  192.2390  174.6050  142.1130 F   0  0  0  0  0  0  0  0  0  0  0  0
  195.5490  173.1280  141.8700 N   0  0  0  0  0  0  0  0  0  0  0  0
  197.4670  173.7800  140.6790 F   0  0  0  0  0  0  0  0  0  0  0  0
  194.2520  173.3090  142.2510 C   0  0  0  0  0  0  0  0  0  0  0  0
  196.1790  173.9950  141.0320 C   0  0  0  0  0  0  0  0  0  0  0  0
  195.4940  175.1020  140.5300 C   0  0  0  0  0  3  0  0  0  0  0  0
  192.6190  171.4290  142.3810 C   0  0  0  0  0  2  0  0  0  0  0  0
  190.1260  171.9590  142.2530 C   0  0  0  0  0  0  0  0  0  0  0  0
  189.0160  171.9810  142.8500 O   0  0  0  0  0  0  0  0  0  0  0  0
  191.2780  171.4780  142.9530 N   0  0  0  0  0  2  0  0  0  0  0  0
  190.0440  171.6060  139.8320 C   0  0  0  0  0  2  0  0  0  0  0  0
  190.2270  172.4230  140.8610 C   0  0  0  0  0  3  0  0  0  0  0  0
  191.8050  176.1220  144.5510 O   0  0  0  0  0  0  0  0  0  0  0  0
  190.7170  176.9470  144.8600 C   0  0  1  0  0  3  0  0  0  0  0  0
  187.2140  176.0020  145.9820 O   0  0  0  0  0  1  0  0  0  0  0  0
  189.8970  177.3590  142.5060 C   0  0  0  0  0  2  0  0  0  0  0  0
  188.6740  178.1600  142.0600 C   0  0  0  0  0  2  0  0  0  0  0  0
  187.9190  178.1030  145.0100 C   0  0  0  0  0  2  0  0  0  0  0  0
  186.8830  178.1590  143.8860 C   0  0  0  0  0  2  0  0  0  0  0  0
  189.5960  174.8760  145.3040 O   0  0  0  0  0  0  0  0  0  0  0  0
  187.2950  177.5950  142.5010 C   0  0  1  0  0  0  0  0  0  0  0  0
  190.5080  177.9770  143.7480 C   0  0  0  0  0  2  0  0  0  0  0  0
  188.2030  176.7330  145.4110 N   0  0  0  0  0  0  0  0  0  0  0  0
  189.4830  176.1250  145.1810 C   0  0  0  0  0  0  0  0  0  0  0  0
  186.4110  177.7420  140.1090 N   0  0  0  0  0  1  0  0  0  0  0  0
  186.2680  178.0640  141.4920 C   0  0  0  0  0  0  0  0  0  0  0  0
  185.2260  178.6650  141.8700 O   0  0  0  0  0  0  0  0  0  0  0  0
  186.2610  175.4720  143.0000 O   0  0  0  0  0  1  0  0  0  0  0  0
  188.3280  175.3430  142.0380 O   0  0  0  0  0  0  0  0  0  0  0  0
  187.2390  176.0820  142.4890 C   0  0  0  0  0  0  0  0  0  0  0  0
  1  2  1  0  0  0  0
  3  7  1  0  0  0  0
  3  4  1  0  0  0  0
  4  2  1  0  0  0  0
  5  4  2  0  0  0  0
  5  8  1  0  0  0  0
  6 28  1  6  0  0  0
  6  1  1  0  0  0  0
  7  6  1  0  0  0  0
  9  8  1  0  0  0  0
  9 10  1  0  0  0  0
 11 10  1  0  0  0  0
 12 11  1  0  0  0  0
 13 22  1  6  0  0  0
 13 12  1  0  0  0  0
 14 15  1  0  0  0  0
 15 16  1  0  0  0  0
 15 19  2  0  0  0  0
 17 19  1  0  0  0  0
 18 20  1  0  0  0  0
 19 13  1  0  0  0  0
 20 17  2  0  0  0  0
 21 14  2  0  0  0  0
 21 20  1  0  0  0  0
 22 25  1  0  0  0  0
 23 24  2  0  0  0  0
 23 25  1  0  0  0  0
 26 27  2  0  0  0  0
 27 23  1  0  0  0  0
 29 28  1  6  0  0  0
 29 39  1  0  0  0  0
 31 37  1  0  0  0  0
 32 36  1  0  0  0  0
 32 31  1  0  0  0  0
 33 38  1  0  0  0  0
 34 33  1  0  0  0  0
 36 41  1  6  0  0  0
 36 34  1  0  0  0  0
 37 29  1  0  0  0  0
 38 30  1  0  0  0  0
 39 35  2  0  0  0  0
 39 38  1  0  0  0  0
 40 41  1  0  0  0  0
 41 42  2  0  0  0  0
 44 45  2  0  0  0  0
 45 36  1  0  0  0  0
 45 43  1  0  0  0  0
M  END
>  <MODEL>
2

>  <REMARK>
 VINA RESULT:      -6.5      1.559      3.455
  Name = 
  14 active torsions:
  status: ('A' for Active; 'I' for Inactive)
    1  A    between atoms: C_1  and  O_40
    2  A    between atoms: C_2  and  C_18
    3  A    between atoms: C_2  and  N_37
    4  A    between atoms: C_5  and  C_25
    5  A    between atoms: C_5  and  C_35
    6  A    between atoms: C_7  and  C_26
    7  A    between atoms: C_11  and  C_44
    8  A    between atoms: C_18  and  C_23
    9  A    between atoms: C_18  and  C_32
   10  A    between atoms: C_23  and  N_43
   11  A    between atoms: C_25  and  N_43
   12  A    between atoms: C_26  and  C_39
   13  A    between atoms: C_29  and  C_35
   14  A    between atoms: O_40  and  C_41
                            x       y       z     vdW  Elec       q    Type
                         _______ _______ _______ _____ _____    ______ ____

>  <TORSDO>
F 14

$$$$
=
 OpenBabel11072409003D

 45 47  0  0  1  0  0  0  0  0999 V2000
  192.0690  173.1700  142.4380 C   0  0  0  0  0  2  0  0  0  0  0  0
  192.9160  171.9270  142.1900 C   0  0  0  0  0  2  0  0  0  0  0  0
  190.6670  170.6400  142.1950 C   0  0  0  0  0  2  0  0  0  0  0  0
  192.1190  170.7110  142.5720 C   0  0  0  0  0  0  0  0  0  0  0  0
  192.6660  169.7020  143.2590 C   0  0  0  0  0  3  0  0  0  0  0  0
  190.7260  173.1420  141.6840 C   0  0  1  0  0  3  0  0  0  0  0  0
  190.3060  171.7450  141.2000 C   0  0  0  0  0  2  0  0  0  0  0  0
  194.1070  169.6880  143.6640 C   0  0  0  0  0  2  0  0  0  0  0  0
  194.2210  169.8130  145.1700 C   0  0  0  0  0  2  0  0  0  0  0  0
  195.6380  170.2030  145.5520 C   0  0  0  0  0  2  0  0  0  0  0  0
  196.1640  171.1480  144.5800 N   0  0  0  0  0  2  0  0  0  0  0  0
  196.1510  172.4580  145.2140 C   0  0  0  0  0  2  0  0  0  0  0  0
  195.3860  173.4540  144.3560 C   0  0  1  0  0  3  0  0  0  0  0  0
  192.6830  174.9190  146.5700 C   0  0  0  0  0  3  0  0  0  0  0  0
  193.3960  174.0140  145.7820 C   0  0  0  0  0  0  0  0  0  0  0  0
  192.8920  172.7750  145.5560 F   0  0  0  0  0  0  0  0  0  0  0  0
  195.0930  175.6620  145.4550 N   0  0  0  0  0  0  0  0  0  0  0  0
  194.9190  177.7940  146.4280 F   0  0  0  0  0  0  0  0  0  0  0  0
  194.6190  174.4040  145.2250 C   0  0  0  0  0  0  0  0  0  0  0  0
  194.4140  176.5550  146.2240 C   0  0  0  0  0  0  0  0  0  0  0  0
  193.1920  176.1980  146.7940 C   0  0  0  0  0  3  0  0  0  0  0  0
  196.3480  174.2070  143.4380 C   0  0  0  0  0  2  0  0  0  0  0  0
  195.2250  174.9350  141.2660 C   0  0  0  0  0  0  0  0  0  0  0  0
  194.9620  174.6580  140.0650 O   0  0  0  0  0  0  0  0  0  0  0  0
  196.0010  174.0120  142.0350 N   0  0  0  0  0  2  0  0  0  0  0  0
  193.4840  176.3340  142.2690 C   0  0  0  0  0  2  0  0  0  0  0  0
  194.7380  176.1900  141.8580 C   0  0  0  0  0  3  0  0  0  0  0  0
  189.7230  173.6830  142.4940 O   0  0  0  0  0  0  0  0  0  0  0  0
  189.5800  175.0080  142.0690 C   0  0  1  0  0  3  0  0  0  0  0  0
  190.3440  178.2330  143.9220 O   0  0  0  0  0  1  0  0  0  0  0  0
  187.1120  175.2730  142.5390 C   0  0  0  0  0  2  0  0  0  0  0  0
  186.2460  176.5200  142.3600 C   0  0  0  0  0  2  0  0  0  0  0  0
  188.9040  177.9620  141.9970 C   0  0  0  0  0  2  0  0  0  0  0  0
  187.6620  178.6380  142.5810 C   0  0  0  0  0  2  0  0  0  0  0  0
  190.4470  175.5330  144.2410 O   0  0  0  0  0  0  0  0  0  0  0  0
  186.6050  177.7310  143.2640 C   0  0  1  0  0  0  0  0  0  0  0  0
  188.1870  175.2200  141.4720 C   0  0  0  0  0  2  0  0  0  0  0  0
  189.7480  177.3960  143.0400 N   0  0  0  0  0  0  0  0  0  0  0  0
  189.9290  175.9780  143.1810 C   0  0  0  0  0  0  0  0  0  0  0  0
  185.4200  179.9010  143.9090 N   0  0  0  0  0  1  0  0  0  0  0  0
  185.3460  178.5530  143.4450 C   0  0  0  0  0  0  0  0  0  0  0  0
  184.2240  178.0900  143.1040 O   0  0  0  0  0  0  0  0  0  0  0  0
  186.5780  176.2940  145.2030 O   0  0  0  0  0  0  0  0  0  0  0  0
  187.8770  178.1620  145.3970 O   0  0  0  0  0  1  0  0  0  0  0  0
  187.0490  177.3270  144.6550 C   0  0  0  0  0  0  0  0  0  0  0  0
  2  1  1  0  0  0  0
  2  4  1  0  0  0  0
  3  4  1  0  0  0  0
  4  5  2  0  0  0  0
  5  8  1  0  0  0  0
  6  1  1  0  0  0  0
  6 28  1  1  0  0  0
  7  6  1  0  0  0  0
  7  3  1  0  0  0  0
  8  9  1  0  0  0  0
  9 10  1  0  0  0  0
 11 12  1  0  0  0  0
 11 10  1  0  0  0  0
 13 22  1  1  0  0  0
 13 12  1  0  0  0  0
 13 19  1  0  0  0  0
 14 21  1  0  0  0  0
 15 14  2  0  0  0  0
 16 15  1  0  0  0  0
 17 20  1  0  0  0  0
 19 17  2  0  0  0  0
 19 15  1  0  0  0  0
 20 18  1  0  0  0  0
 20 21  2  0  0  0  0
 23 27  1  0  0  0  0
 23 25  1  0  0  0  0
 24 23  2  0  0  0  0
 25 22  1  0  0  0  0
 27 26  2  0  0  0  0
 29 28  1  1  0  0  0
 29 39  1  0  0  0  0
 32 31  1  0  0  0  0
 32 36  1  0  0  0  0
 33 34  1  0  0  0  0
 33 38  1  0  0  0  0
 34 36  1  0  0  0  0
 36 41  1  1  0  0  0
 36 45  1  0  0  0  0
 37 29  1  0  0  0  0
 37 31  1  0  0  0  0
 38 39  1  0  0  0  0
 38 30  1  0  0  0  0
 39 35  2  0  0  0  0
 41 40  1  0  0  0  0
 42 41  2  0  0  0  0
 45 43  2  0  0  0  0
 45 44  1  0  0  0  0
M  END
>  <MODEL>
3

>  <REMARK>
 VINA RESULT:      -6.5      2.309      4.330
  Name = 
  14 active torsions:
  status: ('A' for Active; 'I' for Inactive)
    1  A    between atoms: C_1  and  O_40
    2  A    between atoms: C_2  and  C_18
    3  A    between atoms: C_2  and  N_37
    4  A    between atoms: C_5  and  C_25
    5  A    between atoms: C_5  and  C_35
    6  A    between atoms: C_7  and  C_26
    7  A    between atoms: C_11  and  C_44
    8  A    between atoms: C_18  and  C_23
    9  A    between atoms: C_18  and  C_32
   10  A    between atoms: C_23  and  N_43
   11  A    between atoms: C_25  and  N_43
   12  A    between atoms: C_26  and  C_39
   13  A    between atoms: C_29  and  C_35
   14  A    between atoms: O_40  and  C_41
                            x       y       z     vdW  Elec       q    Type
                         _______ _______ _______ _____ _____    ______ ____

>  <TORSDO>
F 14

$$$$
=
 OpenBabel11072409003D

 45 47  0  0  1  0  0  0  0  0999 V2000
  191.4190  176.7420  146.9500 C   0  0  0  0  0  2  0  0  0  0  0  0
  190.1140  176.7000  147.7370 C   0  0  0  0  0  2  0  0  0  0  0  0
  189.3700  174.9090  146.0170 C   0  0  0  0  0  2  0  0  0  0  0  0
  189.0420  176.1020  146.8690 C   0  0  0  0  0  0  0  0  0  0  0  0
  187.8090  176.6200  146.8200 C   0  0  0  0  0  3  0  0  0  0  0  0
  191.8510  175.3590  146.4280 C   0  0  1  0  0  3  0  0  0  0  0  0
  190.7240  174.3130  146.4100 C   0  0  0  0  0  2  0  0  0  0  0  0
  187.3960  177.8000  147.6440 C   0  0  0  0  0  2  0  0  0  0  0  0
  185.9710  178.1910  147.3070 C   0  0  0  0  0  2  0  0  0  0  0  0
  185.8940  178.6790  145.8710 C   0  0  0  0  0  2  0  0  0  0  0  0
  184.8290  177.9770  145.1710 N   0  0  0  0  0  2  0  0  0  0  0  0
  185.4470  177.2700  144.0600 C   0  0  0  0  0  2  0  0  0  0  0  0
  186.7110  177.9880  143.6120 C   0  0  1  0  0  3  0  0  0  0  0  0
  190.0260  176.2990  142.8980 C   0  0  0  0  0  3  0  0  0  0  0  0
  189.0900  177.2200  143.3690 C   0  0  0  0  0  0  0  0  0  0  0  0
  189.5090  178.3240  144.0380 F   0  0  0  0  0  0  0  0  0  0  0  0
  187.3370  175.8870  142.4460 N   0  0  0  0  0  0  0  0  0  0  0  0
  187.8060  173.8870  141.3030 F   0  0  0  0  0  0  0  0  0  0  0  0
  187.7280  176.9960  143.1350 C   0  0  0  0  0  0  0  0  0  0  0  0
  188.2350  174.9760  141.9820 C   0  0  0  0  0  0  0  0  0  0  0  0
  189.5990  175.1680  142.1990 C   0  0  0  0  0  3  0  0  0  0  0  0
  186.3810  179.0020  142.5180 C   0  0  0  0  0  2  0  0  0  0  0  0
  185.0880  178.0630  140.5290 C   0  0  0  0  0  0  0  0  0  0  0  0
  183.9620  177.8230  140.0150 O   0  0  0  0  0  0  0  0  0  0  0  0
  185.1420  178.6530  141.8310 N   0  0  0  0  0  2  0  0  0  0  0  0
  186.3540  176.8040  138.8540 C   0  0  0  0  0  2  0  0  0  0  0  0
  186.3200  177.7410  139.7930 C   0  0  0  0  0  3  0  0  0  0  0  0
  192.3930  175.4900  145.1460 O   0  0  0  0  0  0  0  0  0  0  0  0
  193.2700  174.4080  145.0040 C   0  0  1  0  0  3  0  0  0  0  0  0
  196.9740  174.1820  145.8070 O   0  0  0  0  0  1  0  0  0  0  0  0
  193.7760  174.6750  142.5430 C   0  0  0  0  0  2  0  0  0  0  0  0
  194.7300  173.8470  141.6820 C   0  0  0  0  0  2  0  0  0  0  0  0
  195.7070  172.7320  144.3420 C   0  0  0  0  0  2  0  0  0  0  0  0
  196.6060  172.8590  143.1100 C   0  0  0  0  0  2  0  0  0  0  0  0
  194.8910  175.9290  145.9000 O   0  0  0  0  0  0  0  0  0  0  0  0
  196.2340  173.9350  142.0580 C   0  0  1  0  0  0  0  0  0  0  0  0
  193.1340  173.8040  143.6050 C   0  0  0  0  0  2  0  0  0  0  0  0
  195.7970  173.9080  145.1950 N   0  0  0  0  0  0  0  0  0  0  0  0
  194.6870  174.8020  145.3720 C   0  0  0  0  0  0  0  0  0  0  0  0
  197.7730  172.4310  140.6810 N   0  0  0  0  0  1  0  0  0  0  0  0
  197.0340  173.6460  140.8050 C   0  0  0  0  0  0  0  0  0  0  0  0
  196.9860  174.4300  139.8180 O   0  0  0  0  0  0  0  0  0  0  0  0
  195.8910  176.3060  142.3530 O   0  0  0  0  0  0  0  0  0  0  0  0
  197.9400  175.5340  143.0000 O   0  0  0  0  0  1  0  0  0  0  0  0
  196.6540  175.3160  142.5170 C   0  0  0  0  0  0  0  0  0  0  0  0
  1  2  1  0  0  0  0
  3  7  1  0  0  0  0
  3  4  1  0  0  0  0
  4  2  1  0  0  0  0
  5  4  2  0  0  0  0
  5  8  1  0  0  0  0
  6 28  1  6  0  0  0
  6  1  1  0  0  0  0
  7  6  1  0  0  0  0
  9  8  1  0  0  0  0
 10  9  1  0  0  0  0
 11 10  1  0  0  0  0
 12 11  1  0  0  0  0
 13 22  1  6  0  0  0
 13 12  1  0  0  0  0
 14 15  1  0  0  0  0
 15 16  1  0  0  0  0
 17 19  1  0  0  0  0
 18 20  1  0  0  0  0
 19 15  2  0  0  0  0
 19 13  1  0  0  0  0
 20 21  1  0  0  0  0
 20 17  2  0  0  0  0
 21 14  2  0  0  0  0
 23 25  1  0  0  0  0
 24 23  2  0  0  0  0
 25 22  1  0  0  0  0
 26 27  2  0  0  0  0
 27 23  1  0  0  0  0
 29 28  1  6  0  0  0
 29 39  1  0  0  0  0
 31 37  1  0  0  0  0
 32 36  1  0  0  0  0
 32 31  1  0  0  0  0
 33 38  1  0  0  0  0
 34 33  1  0  0  0  0
 36 41  1  6  0  0  0
 36 45  1  0  0  0  0
 36 34  1  0  0  0  0
 37 29  1  0  0  0  0
 38 39  1  0  0  0  0
 38 30  1  0  0  0  0
 39 35  2  0  0  0  0
 40 41  1  0  0  0  0
 42 41  2  0  0  0  0
 43 45  2  0  0  0  0
 45 44  1  0  0  0  0
M  END
>  <MODEL>
4

>  <REMARK>
 VINA RESULT:      -6.4      2.634      8.451
  Name = 
  14 active torsions:
  status: ('A' for Active; 'I' for Inactive)
    1  A    between atoms: C_1  and  O_40
    2  A    between atoms: C_2  and  C_18
    3  A    between atoms: C_2  and  N_37
    4  A    between atoms: C_5  and  C_25
    5  A    between atoms: C_5  and  C_35
    6  A    between atoms: C_7  and  C_26
    7  A    between atoms: C_11  and  C_44
    8  A    between atoms: C_18  and  C_23
    9  A    between atoms: C_18  and  C_32
   10  A    between atoms: C_23  and  N_43
   11  A    between atoms: C_25  and  N_43
   12  A    between atoms: C_26  and  C_39
   13  A    between atoms: C_29  and  C_35
   14  A    between atoms: O_40  and  C_41
                            x       y       z     vdW  Elec       q    Type
                         _______ _______ _______ _____ _____    ______ ____

>  <TORSDO>
F 14

$$$$
=
 OpenBabel11072409003D

 45 47  0  0  1  0  0  0  0  0999 V2000
  192.6740  173.7200  145.0860 C   0  0  0  0  0  2  0  0  0  0  0  0
  193.9270  173.3440  145.8680 C   0  0  0  0  0  2  0  0  0  0  0  0
  194.3060  175.8970  146.1000 C   0  0  0  0  0  2  0  0  0  0  0  0
  194.8640  174.5200  145.8830 C   0  0  0  0  0  0  0  0  0  0  0  0
  196.1780  174.3720  145.6840 C   0  0  0  0  0  3  0  0  0  0  0  0
  191.9690  174.9690  145.6470 C   0  0  1  0  0  3  0  0  0  0  0  0
  192.8500  175.8280  146.5680 C   0  0  0  0  0  2  0  0  0  0  0  0
  196.8170  173.0350  145.4710 C   0  0  0  0  0  2  0  0  0  0  0  0
  196.8550  172.7110  143.9910 C   0  0  0  0  0  2  0  0  0  0  0  0
  196.7480  171.2100  143.7860 C   0  0  0  0  0  2  0  0  0  0  0  0
  196.0210  170.9340  142.5560 N   0  0  0  0  0  2  0  0  0  0  0  0
  194.8670  171.8200  142.5400 C   0  0  0  0  0  2  0  0  0  0  0  0
  194.4730  172.1510  141.1090 C   0  0  1  0  0  3  0  0  0  0  0  0
  191.0820  171.7020  139.4800 C   0  0  0  0  0  3  0  0  0  0  0  0
  192.4610  171.8460  139.6360 C   0  0  0  0  0  0  0  0  0  0  0  0
  193.2640  171.8750  138.5430 F   0  0  0  0  0  0  0  0  0  0  0  0
  192.1650  171.9540  142.0030 N   0  0  0  0  0  0  0  0  0  0  0  0
  190.0270  171.8010  142.9670 F   0  0  0  0  0  0  0  0  0  0  0  0
  192.9970  171.9700  140.9230 C   0  0  0  0  0  0  0  0  0  0  0  0
  190.8180  171.8110  141.8700 C   0  0  0  0  0  0  0  0  0  0  0  0
  190.2520  171.6840  140.6010 C   0  0  0  0  0  3  0  0  0  0  0  0
  194.8970  173.5770  140.7610 C   0  0  0  0  0  2  0  0  0  0  0  0
  194.6340  175.7240  142.1130 C   0  0  0  0  0  0  0  0  0  0  0  0
  193.8550  176.4950  142.7370 O   0  0  0  0  0  0  0  0  0  0  0  0
  194.0960  174.5570  141.4870 N   0  0  0  0  0  2  0  0  0  0  0  0
  196.7080  176.6630  143.0140 C   0  0  0  0  0  2  0  0  0  0  0  0
  196.0710  176.0280  142.0380 C   0  0  0  0  0  3  0  0  0  0  0  0
  191.4880  175.7490  144.5910 O   0  0  0  0  0  0  0  0  0  0  0  0
  190.1790  175.3040  144.3700 C   0  0  1  0  0  3  0  0  0  0  0  0
  188.4040  174.5600  141.0970 O   0  0  0  0  0  1  0  0  0  0  0  0
  189.0050  177.5340  144.5490 C   0  0  0  0  0  2  0  0  0  0  0  0
  187.5180  177.8340  144.3620 C   0  0  0  0  0  2  0  0  0  0  0  0
  187.3810  175.0050  143.2440 C   0  0  0  0  0  2  0  0  0  0  0  0
  186.4450  176.1260  142.7900 C   0  0  0  0  0  2  0  0  0  0  0  0
  190.8120  175.3830  142.0590 O   0  0  0  0  0  0  0  0  0  0  0  0
  186.9490  177.5860  142.9380 C   0  0  1  0  0  0  0  0  0  0  0  0
  189.1930  176.1610  145.1650 C   0  0  0  0  0  2  0  0  0  0  0  0
  188.5610  174.9130  142.3950 N   0  0  0  0  0  0  0  0  0  0  0  0
  189.8730  175.2250  142.8870 C   0  0  0  0  0  0  0  0  0  0  0  0
  184.5880  178.0460  142.0790 N   0  0  0  0  0  1  0  0  0  0  0  0
  185.7570  178.5020  142.7590 C   0  0  0  0  0  0  0  0  0  0  0  0
  185.7440  179.6480  143.2850 O   0  0  0  0  0  0  0  0  0  0  0  0
  188.9950  178.5530  142.1000 O   0  0  0  0  0  1  0  0  0  0  0  0
  187.5890  177.7220  140.5040 O   0  0  0  0  0  0  0  0  0  0  0  0
  187.9250  177.9420  141.8360 C   0  0  0  0  0  0  0  0  0  0  0  0
  1  6  1  0  0  0  0
  1  2  1  0  0  0  0
  2  4  1  0  0  0  0
  3  7  1  0  0  0  0
  4  3  1  0  0  0  0
  5  4  2  0  0  0  0
  6 28  1  6  0  0  0
  6  7  1  0  0  0  0
  8  5  1  0  0  0  0
  9  8  1  0  0  0  0
 10  9  1  0  0  0  0
 11 10  1  0  0  0  0
 12 11  1  0  0  0  0
 13 22  1  1  0  0  0
 13 12  1  0  0  0  0
 14 15  2  0  0  0  0
 14 21  1  0  0  0  0
 15 19  1  0  0  0  0
 16 15  1  0  0  0  0
 19 13  1  0  0  0  0
 19 17  2  0  0  0  0
 20 17  1  0  0  0  0
 20 18  1  0  0  0  0
 21 20  2  0  0  0  0
 22 25  1  0  0  0  0
 23 24  2  0  0  0  0
 25 23  1  0  0  0  0
 27 23  1  0  0  0  0
 27 26  2  0  0  0  0
 29 28  1  6  0  0  0
 29 37  1  0  0  0  0
 30 38  1  0  0  0  0
 31 37  1  0  0  0  0
 32 31  1  0  0  0  0
 34 36  1  0  0  0  0
 34 33  1  0  0  0  0
 35 39  2  0  0  0  0
 36 45  1  6  0  0  0
 36 32  1  0  0  0  0
 38 39  1  0  0  0  0
 38 33  1  0  0  0  0
 39 29  1  0  0  0  0
 40 41  1  0  0  0  0
 41 36  1  0  0  0  0
 41 42  2  0  0  0  0
 44 45  2  0  0  0  0
 45 43  1  0  0  0  0
M  END
>  <MODEL>
5

>  <REMARK>
 VINA RESULT:      -6.3      1.862      2.406
  Name = 
  14 active torsions:
  status: ('A' for Active; 'I' for Inactive)
    1  A    between atoms: C_1  and  O_40
    2  A    between atoms: C_2  and  C_18
    3  A    between atoms: C_2  and  N_37
    4  A    between atoms: C_5  and  C_25
    5  A    between atoms: C_5  and  C_35
    6  A    between atoms: C_7  and  C_26
    7  A    between atoms: C_11  and  C_44
    8  A    between atoms: C_18  and  C_23
    9  A    between atoms: C_18  and  C_32
   10  A    between atoms: C_23  and  N_43
   11  A    between atoms: C_25  and  N_43
   12  A    between atoms: C_26  and  C_39
   13  A    between atoms: C_29  and  C_35
   14  A    between atoms: O_40  and  C_41
                            x       y       z     vdW  Elec       q    Type
                         _______ _______ _______ _____ _____    ______ ____

>  <TORSDO>
F 14

$$$$
=
 OpenBabel11072409003D

 45 47  0  0  1  0  0  0  0  0999 V2000
  193.5900  173.9070  142.7710 C   0  0  0  0  0  2  0  0  0  0  0  0
  194.1440  174.6010  144.0090 C   0  0  0  0  0  2  0  0  0  0  0  0
  193.6980  172.3530  145.2210 C   0  0  0  0  0  2  0  0  0  0  0  0
  193.6850  173.8550  145.2310 C   0  0  0  0  0  0  0  0  0  0  0  0
  193.2420  174.4970  146.3190 C   0  0  0  0  0  3  0  0  0  0  0  0
  193.9900  172.4230  142.6830 C   0  0  1  0  0  3  0  0  0  0  0  0
  194.4750  171.8230  144.0130 C   0  0  0  0  0  2  0  0  0  0  0  0
  193.2070  175.9900  146.4170 C   0  0  0  0  0  2  0  0  0  0  0  0
  191.8200  176.4960  146.0750 C   0  0  0  0  0  2  0  0  0  0  0  0
  190.9690  176.5660  147.3310 C   0  0  0  0  0  2  0  0  0  0  0  0
  189.6760  175.9480  147.0820 N   0  0  0  0  0  2  0  0  0  0  0  0
  188.7380  177.0250  146.8060 C   0  0  0  0  0  2  0  0  0  0  0  0
  187.8480  176.6630  145.6270 C   0  0  1  0  0  3  0  0  0  0  0  0
  184.4120  178.0870  146.3510 C   0  0  0  0  0  3  0  0  0  0  0  0
  185.5360  177.2630  146.4080 C   0  0  0  0  0  0  0  0  0  0  0  0
  185.5420  176.1880  147.2350 F   0  0  0  0  0  0  0  0  0  0  0  0
  186.6010  178.6300  144.7640 N   0  0  0  0  0  0  0  0  0  0  0  0
  185.5150  180.5060  143.8570 F   0  0  0  0  0  0  0  0  0  0  0  0
  186.6410  177.5530  145.5980 C   0  0  0  0  0  0  0  0  0  0  0  0
  185.5150  179.4470  144.6980 C   0  0  0  0  0  0  0  0  0  0  0  0
  184.3980  179.1870  145.4920 C   0  0  0  0  0  3  0  0  0  0  0  0
  188.6340  176.7650  144.3220 C   0  0  0  0  0  2  0  0  0  0  0  0
  188.8230  174.5720  143.0320 C   0  0  0  0  0  0  0  0  0  0  0  0
  188.3350  173.8170  142.1480 O   0  0  0  0  0  0  0  0  0  0  0  0
  188.1540  175.7990  143.3400 N   0  0  0  0  0  2  0  0  0  0  0  0
  190.0810  173.2410  144.6570 C   0  0  0  0  0  2  0  0  0  0  0  0
  190.0600  174.1900  143.7290 C   0  0  0  0  0  3  0  0  0  0  0  0
  192.9150  171.6750  142.1930 O   0  0  0  0  0  0  0  0  0  0  0  0
  192.5360  172.3110  141.0050 C   0  0  1  0  0  3  0  0  0  0  0  0
  189.1490  172.3980  139.2900 O   0  0  0  0  0  1  0  0  0  0  0  0
  193.3600  170.5600  139.3810 C   0  0  0  0  0  2  0  0  0  0  0  0
  193.2370  170.5540  137.8570 C   0  0  0  0  0  2  0  0  0  0  0  0
  191.3030  172.8660  138.2930 C   0  0  0  0  0  2  0  0  0  0  0  0
  191.1910  171.8960  137.1150 C   0  0  0  0  0  2  0  0  0  0  0  0
  190.3770  171.3940  141.5010 O   0  0  0  0  0  0  0  0  0  0  0  0
  191.7910  170.4780  137.2930 C   0  0  1  0  0  0  0  0  0  0  0  0
  193.5300  171.9770  139.8910 C   0  0  0  0  0  2  0  0  0  0  0  0
  190.4970  172.4320  139.4240 N   0  0  0  0  0  0  0  0  0  0  0  0
  191.0930  172.0010  140.6580 C   0  0  0  0  0  0  0  0  0  0  0  0
  191.1120  170.3620  134.8330 N   0  0  0  0  0  1  0  0  0  0  0  0
  191.8710  169.8390  135.9230 C   0  0  0  0  0  0  0  0  0  0  0  0
  192.6770  168.8940  135.7020 O   0  0  0  0  0  0  0  0  0  0  0  0
  191.3520  168.7690  138.9400 O   0  0  0  0  0  1  0  0  0  0  0  0
  189.5060  169.5910  137.8780 O   0  0  0  0  0  0  0  0  0  0  0  0
  190.8750  169.5960  138.1170 C   0  0  0  0  0  0  0  0  0  0  0  0
  1  2  1  0  0  0  0
  2  4  1  0  0  0  0
  3  4  1  0  0  0  0
  4  5  2  0  0  0  0
  5  8  1  0  0  0  0
  6 28  1  1  0  0  0
  6  1  1  0  0  0  0
  6  7  1  0  0  0  0
  7  3  1  0  0  0  0
  9  8  1  0  0  0  0
  9 10  1  0  0  0  0
 11 10  1  0  0  0  0
 12 11  1  0  0  0  0
 13 22  1  6  0  0  0
 13 12  1  0  0  0  0
 14 15  1  0  0  0  0
 15 16  1  0  0  0  0
 17 19  1  0  0  0  0
 18 20  1  0  0  0  0
 19 13  1  0  0  0  0
 19 15  2  0  0  0  0
 20 17  2  0  0  0  0
 20 21  1  0  0  0  0
 21 14  2  0  0  0  0
 23 25  1  0  0  0  0
 23 27  1  0  0  0  0
 24 23  2  0  0  0  0
 25 22  1  0  0  0  0
 27 26  2  0  0  0  0
 29 28  1  1  0  0  0
 30 38  1  0  0  0  0
 31 37  1  0  0  0  0
 32 31  1  0  0  0  0
 33 38  1  0  0  0  0
 34 36  1  0  0  0  0
 34 33  1  0  0  0  0
 36 41  1  6  0  0  0
 36 32  1  0  0  0  0
 36 45  1  0  0  0  0
 37 29  1  0  0  0  0
 38 39  1  0  0  0  0
 39 29  1  0  0  0  0
 39 35  2  0  0  0  0
 40 41  1  0  0  0  0
 42 41  2  0  0  0  0
 44 45  2  0  0  0  0
 45 43  1  0  0  0  0
M  END
>  <MODEL>
6

>  <REMARK>
 VINA RESULT:      -6.3      3.915      7.830
  Name = 
  14 active torsions:
  status: ('A' for Active; 'I' for Inactive)
    1  A    between atoms: C_1  and  O_40
    2  A    between atoms: C_2  and  C_18
    3  A    between atoms: C_2  and  N_37
    4  A    between atoms: C_5  and  C_25
    5  A    between atoms: C_5  and  C_35
    6  A    between atoms: C_7  and  C_26
    7  A    between atoms: C_11  and  C_44
    8  A    between atoms: C_18  and  C_23
    9  A    between atoms: C_18  and  C_32
   10  A    between atoms: C_23  and  N_43
   11  A    between atoms: C_25  and  N_43
   12  A    between atoms: C_26  and  C_39
   13  A    between atoms: C_29  and  C_35
   14  A    between atoms: O_40  and  C_41
                            x       y       z     vdW  Elec       q    Type
                         _______ _______ _______ _____ _____    ______ ____

>  <TORSDO>
F 14

$$$$
=
 OpenBabel11072409003D

 45 47  0  0  1  0  0  0  0  0999 V2000
  191.4190  176.7320  146.3840 C   0  0  0  0  0  2  0  0  0  0  0  0
  190.2490  176.9260  147.3420 C   0  0  0  0  0  2  0  0  0  0  0  0
  189.3270  174.7190  146.3420 C   0  0  0  0  0  2  0  0  0  0  0  0
  189.0840  176.1090  146.8580 C   0  0  0  0  0  0  0  0  0  0  0  0
  187.8380  176.5980  146.8540 C   0  0  0  0  0  3  0  0  0  0  0  0
  191.8220  175.2550  146.2190 C   0  0  1  0  0  3  0  0  0  0  0  0
  190.7470  174.2550  146.6750 C   0  0  0  0  0  2  0  0  0  0  0  0
  187.5070  177.9670  147.3610 C   0  0  0  0  0  2  0  0  0  0  0  0
  186.0040  178.1160  147.4980 C   0  0  0  0  0  2  0  0  0  0  0  0
  185.3850  178.3970  146.1400 C   0  0  0  0  0  2  0  0  0  0  0  0
  185.1610  177.1450  145.4360 N   0  0  0  0  0  2  0  0  0  0  0  0
  185.1580  177.4540  144.0140 C   0  0  0  0  0  2  0  0  0  0  0  0
  186.5010  178.0310  143.5950 C   0  0  1  0  0  3  0  0  0  0  0  0
  189.7060  176.0880  143.0400 C   0  0  0  0  0  3  0  0  0  0  0  0
  188.8330  177.1180  143.3880 C   0  0  0  0  0  0  0  0  0  0  0  0
  189.3280  178.2950  143.8460 F   0  0  0  0  0  0  0  0  0  0  0  0
  186.9840  175.7380  142.7700 N   0  0  0  0  0  0  0  0  0  0  0  0
  187.3150  173.5580  141.9580 F   0  0  0  0  0  0  0  0  0  0  0  0
  187.4530  176.9250  143.2490 C   0  0  0  0  0  0  0  0  0  0  0  0
  187.8210  174.7210  142.4290 C   0  0  0  0  0  0  0  0  0  0  0  0
  189.2010  174.8800  142.5570 C   0  0  0  0  0  3  0  0  0  0  0  0
  186.3210  178.9850  142.4150 C   0  0  0  0  0  2  0  0  0  0  0  0
  185.1170  177.9920  140.3960 C   0  0  0  0  0  0  0  0  0  0  0  0
  184.0190  177.7860  139.8130 O   0  0  0  0  0  0  0  0  0  0  0  0
  185.1150  178.6660  141.6580 N   0  0  0  0  0  2  0  0  0  0  0  0
  186.3970  176.8230  138.6670 C   0  0  0  0  0  2  0  0  0  0  0  0
  186.3760  177.5430  139.7810 C   0  0  0  0  0  3  0  0  0  0  0  0
  192.1610  175.0090  144.8850 O   0  0  0  0  0  0  0  0  0  0  0  0
  193.5480  175.1890  144.8180 C   0  0  1  0  0  3  0  0  0  0  0  0
  195.8270  175.2550  141.7810 O   0  0  0  0  0  1  0  0  0  0  0  0
  194.2460  172.8180  145.3430 C   0  0  0  0  0  2  0  0  0  0  0  0
  195.6600  172.2410  145.3950 C   0  0  0  0  0  2  0  0  0  0  0  0
  196.4700  174.8670  144.0820 C   0  0  0  0  0  2  0  0  0  0  0  0
  197.2260  173.5550  143.8580 C   0  0  0  0  0  2  0  0  0  0  0  0
  193.2060  174.9780  142.4550 O   0  0  0  0  0  0  0  0  0  0  0  0
  196.4400  172.2320  144.0510 C   0  0  1  0  0  0  0  0  0  0  0  0
  194.2460  174.2600  145.8120 C   0  0  0  0  0  2  0  0  0  0  0  0
  195.4450  175.0760  143.0690 N   0  0  0  0  0  0  0  0  0  0  0  0
  194.0460  175.0540  143.3920 C   0  0  0  0  0  0  0  0  0  0  0  0
  197.8170  170.5360  145.3740 N   0  0  0  0  0  1  0  0  0  0  0  0
  197.4490  171.1060  144.1190 C   0  0  0  0  0  0  0  0  0  0  0  0
  197.9120  170.5950  143.0620 O   0  0  0  0  0  0  0  0  0  0  0  0
  194.5290  171.2250  142.9740 O   0  0  0  0  0  1  0  0  0  0  0  0
  195.9520  172.3410  141.5810 O   0  0  0  0  0  0  0  0  0  0  0  0
  195.5600  171.9400  142.8530 C   0  0  0  0  0  0  0  0  0  0  0  0
  1  2  1  0  0  0  0
  3  7  1  0  0  0  0
  3  4  1  0  0  0  0
  4  2  1  0  0  0  0
  5  4  2  0  0  0  0
  5  8  1  0  0  0  0
  6 28  1  6  0  0  0
  6  1  1  0  0  0  0
  6  7  1  0  0  0  0
  8  9  1  0  0  0  0
 10  9  1  0  0  0  0
 11 10  1  0  0  0  0
 12 11  1  0  0  0  0
 13 22  1  6  0  0  0
 13 12  1  0  0  0  0
 14 15  1  0  0  0  0
 15 16  1  0  0  0  0
 17 19  1  0  0  0  0
 18 20  1  0  0  0  0
 19 15  2  0  0  0  0
 19 13  1  0  0  0  0
 20 21  1  0  0  0  0
 20 17  2  0  0  0  0
 21 14  2  0  0  0  0
 23 25  1  0  0  0  0
 24 23  2  0  0  0  0
 25 22  1  0  0  0  0
 26 27  2  0  0  0  0
 27 23  1  0  0  0  0
 29 28  1  6  0  0  0
 29 37  1  0  0  0  0
 30 38  1  0  0  0  0
 31 32  1  0  0  0  0
 31 37  1  0  0  0  0
 34 36  1  0  0  0  0
 34 33  1  0  0  0  0
 35 39  2  0  0  0  0
 36 45  1  6  0  0  0
 36 41  1  0  0  0  0
 36 32  1  0  0  0  0
 38 39  1  0  0  0  0
 38 33  1  0  0  0  0
 39 29  1  0  0  0  0
 41 40  1  0  0  0  0
 42 41  2  0  0  0  0
 44 45  2  0  0  0  0
 45 43  1  0  0  0  0
M  END
>  <MODEL>
7

>  <REMARK>
 VINA RESULT:      -6.3      2.695      8.691
  Name = 
  14 active torsions:
  status: ('A' for Active; 'I' for Inactive)
    1  A    between atoms: C_1  and  O_40
    2  A    between atoms: C_2  and  C_18
    3  A    between atoms: C_2  and  N_37
    4  A    between atoms: C_5  and  C_25
    5  A    between atoms: C_5  and  C_35
    6  A    between atoms: C_7  and  C_26
    7  A    between atoms: C_11  and  C_44
    8  A    between atoms: C_18  and  C_23
    9  A    between atoms: C_18  and  C_32
   10  A    between atoms: C_23  and  N_43
   11  A    between atoms: C_25  and  N_43
   12  A    between atoms: C_26  and  C_39
   13  A    between atoms: C_29  and  C_35
   14  A    between atoms: O_40  and  C_41
                            x       y       z     vdW  Elec       q    Type
                         _______ _______ _______ _____ _____    ______ ____

>  <TORSDO>
F 14

$$$$
=
 OpenBabel11072409003D

 45 47  0  0  1  0  0  0  0  0999 V2000
  192.4590  175.5630  142.7770 C   0  0  0  0  0  2  0  0  0  0  0  0
  193.3730  176.1820  143.8280 C   0  0  0  0  0  2  0  0  0  0  0  0
  194.2410  173.7690  144.2040 C   0  0  0  0  0  2  0  0  0  0  0  0
  193.8380  175.1030  144.7650 C   0  0  0  0  0  0  0  0  0  0  0  0
  193.8790  175.2930  146.0890 C   0  0  0  0  0  3  0  0  0  0  0  0
  193.1310  174.4180  141.9960 C   0  0  1  0  0  3  0  0  0  0  0  0
  194.3790  173.8370  142.6810 C   0  0  0  0  0  2  0  0  0  0  0  0
  193.5060  176.5950  146.7290 C   0  0  0  0  0  2  0  0  0  0  0  0
  192.3210  176.3930  147.6520 C   0  0  0  0  0  2  0  0  0  0  0  0
  191.1010  175.9800  146.8470 C   0  0  0  0  0  2  0  0  0  0  0  0
  190.5830  177.1290  146.1210 N   0  0  0  0  0  2  0  0  0  0  0  0
  189.2430  177.3810  146.6290 C   0  0  0  0  0  2  0  0  0  0  0  0
  188.2010  176.7840  145.6950 C   0  0  1  0  0  3  0  0  0  0  0  0
  184.8220  178.0830  146.8130 C   0  0  0  0  0  3  0  0  0  0  0  0
  186.0090  177.3490  146.7830 C   0  0  0  0  0  0  0  0  0  0  0  0
  186.2480  176.4150  147.7370 F   0  0  0  0  0  0  0  0  0  0  0  0
  186.6590  178.5150  144.8020 N   0  0  0  0  0  0  0  0  0  0  0  0
  185.2750  180.1590  143.8520 F   0  0  0  0  0  0  0  0  0  0  0  0
  186.9330  177.5810  145.7570 C   0  0  0  0  0  0  0  0  0  0  0  0
  185.5100  179.2420  144.8180 C   0  0  0  0  0  0  0  0  0  0  0  0
  184.5680  179.0360  145.8260 C   0  0  0  0  0  3  0  0  0  0  0  0
  188.7430  176.7310  144.2670 C   0  0  0  0  0  2  0  0  0  0  0  0
  187.7350  175.4410  142.3100 C   0  0  0  0  0  0  0  0  0  0  0  0
  187.4140  174.3180  141.8340 O   0  0  0  0  0  0  0  0  0  0  0  0
  188.3520  175.4940  143.6000 N   0  0  0  0  0  2  0  0  0  0  0  0
  186.2640  177.2090  141.4720 C   0  0  0  0  0  2  0  0  0  0  0  0
  187.4740  176.6700  141.5460 C   0  0  0  0  0  3  0  0  0  0  0  0
  192.2020  173.3990  141.7660 O   0  0  0  0  0  0  0  0  0  0  0  0
  191.5320  173.7690  140.5940 C   0  0  1  0  0  3  0  0  0  0  0  0
  188.1880  172.5750  139.2480 O   0  0  0  0  0  1  0  0  0  0  0  0
  192.7660  172.2660  138.9820 C   0  0  0  0  0  2  0  0  0  0  0  0
  192.5260  172.0920  137.4820 C   0  0  0  0  0  2  0  0  0  0  0  0
  189.9630  173.6510  138.0040 C   0  0  0  0  0  2  0  0  0  0  0  0
  190.0910  172.6050  136.8950 C   0  0  0  0  0  2  0  0  0  0  0  0
  189.8640  172.2280  141.3620 O   0  0  0  0  0  0  0  0  0  0  0  0
  191.1520  171.4890  137.0800 C   0  0  1  0  0  0  0  0  0  0  0  0
  192.4850  173.6950  139.4000 C   0  0  0  0  0  2  0  0  0  0  0  0
  189.4500  173.0680  139.2350 N   0  0  0  0  0  0  0  0  0  0  0  0
  190.2570  172.9660  140.4190 C   0  0  0  0  0  0  0  0  0  0  0  0
  190.4670  171.1070  134.6490 N   0  0  0  0  0  1  0  0  0  0  0  0
  191.3310  170.8020  135.7430 C   0  0  0  0  0  0  0  0  0  0  0  0
  192.3010  170.0200  135.5490 O   0  0  0  0  0  0  0  0  0  0  0  0
  191.4120  170.0000  138.9610 O   0  0  0  0  0  1  0  0  0  0  0  0
  189.4360  169.8050  137.8340 O   0  0  0  0  0  0  0  0  0  0  0  0
  190.6640  170.4240  138.0400 C   0  0  0  0  0  0  0  0  0  0  0  0
  1  2  1  0  0  0  0
  2  4  1  0  0  0  0
  3  4  1  0  0  0  0
  4  5  2  0  0  0  0
  5  8  1  0  0  0  0
  6 28  1  1  0  0  0
  6  7  1  0  0  0  0
  6  1  1  0  0  0  0
  7  3  1  0  0  0  0
  8  9  1  0  0  0  0
 10  9  1  0  0  0  0
 11 12  1  0  0  0  0
 11 10  1  0  0  0  0
 13 22  1  6  0  0  0
 13 19  1  0  0  0  0
 13 12  1  0  0  0  0
 15 14  1  0  0  0  0
 15 16  1  0  0  0  0
 17 20  2  0  0  0  0
 17 19  1  0  0  0  0
 18 20  1  0  0  0  0
 19 15  2  0  0  0  0
 20 21  1  0  0  0  0
 21 14  2  0  0  0  0
 23 25  1  0  0  0  0
 24 23  2  0  0  0  0
 25 22  1  0  0  0  0
 26 27  2  0  0  0  0
 27 23  1  0  0  0  0
 29 28  1  1  0  0  0
 31 37  1  0  0  0  0
 32 31  1  0  0  0  0
 33 38  1  0  0  0  0
 34 36  1  0  0  0  0
 34 33  1  0  0  0  0
 36 41  1  6  0  0  0
 36 32  1  0  0  0  0
 36 45  1  0  0  0  0
 37 29  1  0  0  0  0
 38 30  1  0  0  0  0
 38 39  1  0  0  0  0
 39 29  1  0  0  0  0
 39 35  2  0  0  0  0
 40 41  1  0  0  0  0
 42 41  2  0  0  0  0
 44 45  2  0  0  0  0
 45 43  1  0  0  0  0
M  END
>  <MODEL>
8

>  <REMARK>
 VINA RESULT:      -6.1      3.736      7.530
  Name = 
  14 active torsions:
  status: ('A' for Active; 'I' for Inactive)
    1  A    between atoms: C_1  and  O_40
    2  A    between atoms: C_2  and  C_18
    3  A    between atoms: C_2  and  N_37
    4  A    between atoms: C_5  and  C_25
    5  A    between atoms: C_5  and  C_35
    6  A    between atoms: C_7  and  C_26
    7  A    between atoms: C_11  and  C_44
    8  A    between atoms: C_18  and  C_23
    9  A    between atoms: C_18  and  C_32
   10  A    between atoms: C_23  and  N_43
   11  A    between atoms: C_25  and  N_43
   12  A    between atoms: C_26  and  C_39
   13  A    between atoms: C_29  and  C_35
   14  A    between atoms: O_40  and  C_41
                            x       y       z     vdW  Elec       q    Type
                         _______ _______ _______ _____ _____    ______ ____

>  <TORSDO>
F 14

$$$$
=
 OpenBabel11072409003D

 45 47  0  0  1  0  0  0  0  0999 V2000
  189.3340  174.0030  140.8680 C   0  0  0  0  0  2  0  0  0  0  0  0
  188.1900  173.9210  139.8640 C   0  0  0  0  0  2  0  0  0  0  0  0
  190.0380  173.4920  138.0980 C   0  0  0  0  0  2  0  0  0  0  0  0
  188.7390  174.1410  138.4820 C   0  0  0  0  0  0  0  0  0  0  0  0
  188.1110  174.9190  137.5930 C   0  0  0  0  0  3  0  0  0  0  0  0
  190.4680  173.0050  140.5690 C   0  0  1  0  0  3  0  0  0  0  0  0
  190.4540  172.4470  139.1370 C   0  0  0  0  0  2  0  0  0  0  0  0
  186.8070  175.5930  137.8900 C   0  0  0  0  0  2  0  0  0  0  0  0
  187.0590  176.9980  138.4010 C   0  0  0  0  0  2  0  0  0  0  0  0
  186.3070  177.2190  139.7020 C   0  0  0  0  0  2  0  0  0  0  0  0
  187.2530  177.4830  140.7750 N   0  0  0  0  0  2  0  0  0  0  0  0
  186.8600  176.6480  141.9000 C   0  0  0  0  0  2  0  0  0  0  0  0
  187.4710  177.1760  143.1900 C   0  0  1  0  0  3  0  0  0  0  0  0
  184.8940  179.4100  144.8400 C   0  0  0  0  0  3  0  0  0  0  0  0
  185.8800  178.9600  143.9600 C   0  0  0  0  0  0  0  0  0  0  0  0
  186.3350  179.7820  142.9820 F   0  0  0  0  0  0  0  0  0  0  0  0
  185.9290  176.8680  145.1120 N   0  0  0  0  0  0  0  0  0  0  0  0
  184.5310  176.4660  146.9590 F   0  0  0  0  0  0  0  0  0  0  0  0
  186.3930  177.6660  144.1090 C   0  0  0  0  0  0  0  0  0  0  0  0
  184.9660  177.2890  145.9760 C   0  0  0  0  0  0  0  0  0  0  0  0
  184.4320  178.5720  145.8550 C   0  0  0  0  0  3  0  0  0  0  0  0
  188.3080  176.0870  143.8600 C   0  0  0  0  0  2  0  0  0  0  0  0
  189.7650  176.6400  145.8800 C   0  0  0  0  0  0  0  0  0  0  0  0
  190.8240  177.1720  146.3090 O   0  0  0  0  0  0  0  0  0  0  0  0
  189.5070  176.6470  144.4730 N   0  0  0  0  0  2  0  0  0  0  0  0
  188.9510  174.7720  147.2390 C   0  0  0  0  0  2  0  0  0  0  0  0
  188.8150  176.0240  146.8190 C   0  0  0  0  0  3  0  0  0  0  0  0
  191.7030  173.6070  140.8290 O   0  0  0  0  0  0  0  0  0  0  0  0
  191.7360  173.7980  142.2150 C   0  0  1  0  0  3  0  0  0  0  0  0
  193.3630  176.5750  144.2300 O   0  0  0  0  0  1  0  0  0  0  0  0
  193.6460  172.2330  142.7490 C   0  0  0  0  0  2  0  0  0  0  0  0
  194.2900  171.9610  144.1080 C   0  0  0  0  0  2  0  0  0  0  0  0
  192.6990  174.3890  145.0270 C   0  0  0  0  0  2  0  0  0  0  0  0
  194.0390  173.9880  145.6460 C   0  0  0  0  0  2  0  0  0  0  0  0
  192.9890  175.7640  141.6600 O   0  0  0  0  0  0  0  0  0  0  0  0
  195.0170  173.1640  144.7690 C   0  0  1  0  0  0  0  0  0  0  0  0
  192.1640  172.5050  142.9120 C   0  0  0  0  0  2  0  0  0  0  0  0
  192.8730  175.3450  143.9430 N   0  0  0  0  0  0  0  0  0  0  0  0
  192.5790  175.0040  142.5790 C   0  0  0  0  0  0  0  0  0  0  0  0
  196.8750  173.4710  146.4960 N   0  0  0  0  0  1  0  0  0  0  0  0
  196.0880  172.6030  145.6800 C   0  0  0  0  0  0  0  0  0  0  0  0
  196.2400  171.3570  145.8010 O   0  0  0  0  0  0  0  0  0  0  0  0
  196.1170  173.5860  142.6630 O   0  0  0  0  0  0  0  0  0  0  0  0
  196.0990  175.3450  144.1180 O   0  0  0  0  0  1  0  0  0  0  0  0
  195.7340  174.0490  143.7700 C   0  0  0  0  0  0  0  0  0  0  0  0
  2  1  1  0  0  0  0
  3  4  1  0  0  0  0
  3  7  1  0  0  0  0
  4  2  1  0  0  0  0
  5  8  1  0  0  0  0
  5  4  2  0  0  0  0
  6 28  1  6  0  0  0
  6  1  1  0  0  0  0
  7  6  1  0  0  0  0
  8  9  1  0  0  0  0
  9 10  1  0  0  0  0
 10 11  1  0  0  0  0
 11 12  1  0  0  0  0
 13 12  1  6  0  0  0
 13 22  1  0  0  0  0
 13 19  1  0  0  0  0
 14 21  1  0  0  0  0
 15 19  1  0  0  0  0
 15 14  2  0  0  0  0
 16 15  1  0  0  0  0
 17 20  1  0  0  0  0
 19 17  2  0  0  0  0
 20 18  1  0  0  0  0
 21 20  2  0  0  0  0
 22 25  1  0  0  0  0
 23 24  2  0  0  0  0
 23 27  1  0  0  0  0
 25 23  1  0  0  0  0
 27 26  2  0  0  0  0
 29 28  1  6  0  0  0
 29 39  1  0  0  0  0
 29 37  1  0  0  0  0
 31 37  1  0  0  0  0
 31 32  1  0  0  0  0
 32 36  1  0  0  0  0
 33 34  1  0  0  0  0
 35 39  2  0  0  0  0
 36 45  1  6  0  0  0
 36 34  1  0  0  0  0
 36 41  1  0  0  0  0
 38 30  1  0  0  0  0
 38 33  1  0  0  0  0
 39 38  1  0  0  0  0
 41 42  2  0  0  0  0
 41 40  1  0  0  0  0
 43 45  2  0  0  0  0
 45 44  1  0  0  0  0
M  END
>  <MODEL>
9

>  <REMARK>
 VINA RESULT:      -6.1      3.154      8.700
  Name = 
  14 active torsions:
  status: ('A' for Active; 'I' for Inactive)
    1  A    between atoms: C_1  and  O_40
    2  A    between atoms: C_2  and  C_18
    3  A    between atoms: C_2  and  N_37
    4  A    between atoms: C_5  and  C_25
    5  A    between atoms: C_5  and  C_35
    6  A    between atoms: C_7  and  C_26
    7  A    between atoms: C_11  and  C_44
    8  A    between atoms: C_18  and  C_23
    9  A    between atoms: C_18  and  C_32
   10  A    between atoms: C_23  and  N_43
   11  A    between atoms: C_25  and  N_43
   12  A    between atoms: C_26  and  C_39
   13  A    between atoms: C_29  and  C_35
   14  A    between atoms: O_40  and  C_41
                            x       y       z     vdW  Elec       q    Type
                         _______ _______ _______ _____ _____    ______ ____

>  <TORSDO>
F 14

$$$$
