=
 OpenBabel11062422363D

 67 74  0  0  1  0  0  0  0  0999 V2000
  194.3840  172.3370  142.6700 C   0  0  2  0  0  3  0  0  0  0  0  0
  195.1600  171.5920  141.5780 C   0  0  2  0  0  3  0  0  0  0  0  0
  193.7240  171.1780  141.8920 C   0  0  2  0  0  3  0  0  0  0  0  0
  195.3650  168.3670  144.8080 C   0  0  0  0  0  2  0  0  0  0  0  0
  195.4630  169.3100  142.5740 N   0  0  0  0  0  2  0  0  0  0  0  0
  196.1650  170.5100  142.0770 C   0  0  2  0  0  0  0  0  0  0  0  0
  197.0850  169.9100  144.2780 C   0  0  2  0  0  3  0  0  0  0  0  0
  196.2890  168.7670  143.6600 C   0  0  1  0  0  3  0  0  0  0  0  0
  197.6860  171.9620  143.2530 O   0  0  0  0  0  0  0  0  0  0  0  0
  195.1520  169.6610  145.5730 C   0  0  2  0  0  3  0  0  0  0  0  0
  196.3850  170.4180  145.4850 N   0  0  0  0  0  2  0  0  0  0  0  0
  197.0460  170.9100  143.2010 C   0  0  0  0  0  0  0  0  0  0  0  0
  194.8350  169.3220  147.0120 C   0  0  0  0  0  3  0  0  0  0  0  0
  195.0930  168.1830  147.4070 O   0  0  0  0  0  0  0  0  0  0  0  0
  197.0010  170.1420  140.9270 N   0  0  0  0  0  2  0  0  0  0  0  0
  195.5020  169.2230  138.6120 C   0  0  0  0  0  1  0  0  0  0  0  0
  196.1840  170.5470  138.6440 C   0  0  0  0  0  0  0  0  0  0  0  0
  197.9400  171.9460  139.5310 C   0  0  0  0  0  3  0  0  0  0  0  0
  196.1680  171.3110  137.5180 N   0  0  0  0  0  0  0  0  0  0  0  0
  196.9500  172.4160  137.4090 C   0  0  0  0  0  3  0  0  0  0  0  0
  197.9140  172.7070  138.3800 C   0  0  0  0  0  3  0  0  0  0  0  0
  197.0370  170.8810  139.7030 C   0  0  0  0  0  0  0  0  0  0  0  0
  192.8980  171.5530  140.6840 C   0  0  0  0  0  2  0  0  0  0  0  0
  190.0600  171.2450  142.5830 C   0  0  2  0  0  3  0  0  0  0  0  0
  189.5900  172.0100  141.4150 C   0  0  0  0  0  0  0  0  0  0  0  0
  188.5380  172.6220  141.3860 O   0  0  0  0  0  0  0  0  0  0  0  0
  191.5220  170.8890  140.8240 C   0  0  2  0  0  3  0  0  0  0  0  0
  190.2510  172.0980  143.7670 N   0  0  0  0  0  1  0  0  0  0  0  0
  190.3660  171.6780  140.2300 C   0  0  2  0  0  3  0  0  0  0  0  0
  191.2660  170.6100  142.2040 O   0  0  0  0  0  0  0  0  0  0  0  0
  189.5380  172.3630  135.3480 N   0  0  0  0  0  0  0  0  0  0  0  0
  191.1410  173.9520  139.7700 O   0  0  0  0  0  0  0  0  0  0  0  0
  190.1770  173.9230  137.1100 C   0  0  0  0  0  2  0  0  0  0  0  0
  190.5890  171.4570  137.2840 C   0  0  0  0  0  3  0  0  0  0  0  0
  190.1720  171.2680  136.0350 C   0  0  0  0  0  3  0  0  0  0  0  0
  190.6690  172.8610  139.3190 C   0  0  0  0  0  0  0  0  0  0  0  0
  190.4140  172.7310  137.9240 N   0  0  0  0  0  0  0  0  0  0  0  0
  189.4990  173.5690  135.8010 C   0  0  0  0  0  3  0  0  0  0  0  0
  193.6950  173.6250  142.3000 C   0  0  0  0  0  2  0  0  0  0  0  0
  192.8730  174.2490  143.4480 C   0  0  0  0  0  2  0  0  0  0  0  0
  193.0830  175.7730  143.5280 C   0  0  2  0  0  3  0  0  0  0  0  0
  193.6420  176.1310  144.9220 C   0  0  0  0  0  2  0  0  0  0  0  0
  194.1260  174.8990  145.6760 C   0  0  0  0  0  2  0  0  0  0  0  0
  196.4210  174.8180  144.8480 C   0  0  0  0  0  2  0  0  0  0  0  0
  196.3580  173.7360  145.9120 C   0  0  0  0  0  2  0  0  0  0  0  0
  195.5830  175.0450  146.0940 C   0  0  0  0  0  3  0  0  0  0  0  0
  191.7800  176.5540  143.3270 C   0  0  0  0  0  2  0  0  0  0  0  0
  190.8030  175.7840  142.6260 O   0  0  0  0  0  0  0  0  0  0  0  0
  188.8370  175.7770  141.4520 O   0  0  0  0  0  0  0  0  0  0  0  0
  189.5760  176.3530  142.2940 C   0  0  0  0  0  0  0  0  0  0  0  0
  189.1240  177.5850  143.0150 C   0  0  0  0  0  2  0  0  0  0  0  0
  187.7420  177.3820  143.6520 C   0  0  1  0  0  3  0  0  0  0  0  0
  186.7910  178.5600  141.9200 O   0  0  0  0  0  0  0  0  0  0  0  0
  185.1590  177.3290  143.0240 C   0  0  0  0  0  1  0  0  0  0  0  0
  186.5610  177.8180  142.8640 C   0  0  0  0  0  0  0  0  0  0  0  0
  187.6040  176.1360  144.5350 C   0  0  0  0  0  2  0  0  0  0  0  0
  187.9460  176.5470  145.9610 C   0  0  2  0  0  0  0  0  0  0  0  0
  189.3370  176.2230  146.3980 C   0  0  2  0  0  3  0  0  0  0  0  0
  188.2490  175.4890  146.8620 O   0  0  0  0  0  0  0  0  0  0  0  0
  189.7900  177.2320  147.3440 N   0  0  0  0  0  2  0  0  0  0  0  0
  191.2600  175.4380  147.9170 N   0  0  0  0  0  1  0  0  0  0  0  0
  191.1660  176.8920  147.7220 C   0  0  2  0  0  3  0  0  0  0  0  0
  191.5550  177.5640  149.0640 C   0  0  0  0  0  1  0  0  0  0  0  0
  187.0260  177.6310  146.5910 C   0  0  0  0  0  2  0  0  0  0  0  0
  185.5230  177.2950  146.6720 C   0  0  0  0  0  2  0  0  0  0  0  0
  185.8530  179.2850  147.5770 C   0  0  0  0  0  1  0  0  0  0  0  0
  184.8610  178.3170  147.3350 O   0  0  0  0  0  0  0  0  0  0  0  0
  1 39  1  6  0  0  0
  2  3  1  0  0  0  0
  2  6  1  1  0  0  0
  2  1  1  0  0  0  0
  3 23  1  6  0  0  0
  3  1  1  0  0  0  0
  4 10  1  0  0  0  0
  5  8  1  0  0  0  0
  6 15  1  6  0  0  0
  6  5  1  0  0  0  0
  6 12  1  0  0  0  0
  7 12  1  6  0  0  0
  7 11  1  0  0  0  0
  8  7  1  0  0  0  0
  8  4  1  1  0  0  0
 10 13  1  1  0  0  0
 11 10  1  0  0  0  0
 12  9  2  0  0  0  0
 13 14  2  0  0  0  0
 16 17  1  0  0  0  0
 17 22  1  0  0  0  0
 18 22  2  0  0  0  0
 19 17  2  0  0  0  0
 20 19  1  0  0  0  0
 20 21  2  0  0  0  0
 21 18  1  0  0  0  0
 22 15  1  0  0  0  0
 24 28  1  1  0  0  0
 25 24  1  0  0  0  0
 26 25  2  0  0  0  0
 27 23  1  1  0  0  0
 27 30  1  0  0  0  0
 29 36  1  1  0  0  0
 29 27  1  0  0  0  0
 29 25  1  0  0  0  0
 30 24  1  0  0  0  0
 31 38  2  0  0  0  0
 31 35  1  0  0  0  0
 33 37  1  0  0  0  0
 34 37  1  0  0  0  0
 35 34  2  0  0  0  0
 36 32  2  0  0  0  0
 37 36  1  0  0  0  0
 38 33  1  0  0  0  0
 39 40  1  0  0  0  0
 40 41  1  0  0  0  0
 41 47  1  1  0  0  0
 41 42  1  0  0  0  0
 42 43  1  0  0  0  0
 43 46  1  0  0  0  0
 44 45  1  0  0  0  0
 44 46  1  0  0  0  0
 45 46  1  0  0  0  0
 48 47  1  0  0  0  0
 49 50  2  0  0  0  0
 50 48  1  0  0  0  0
 50 51  1  0  0  0  0
 52 51  1  6  0  0  0
 52 56  1  0  0  0  0
 53 55  2  0  0  0  0
 55 54  1  0  0  0  0
 55 52  1  0  0  0  0
 57 56  1  6  0  0  0
 57 58  1  0  0  0  0
 57 64  1  0  0  0  0
 57 59  1  0  0  0  0
 58 59  1  0  0  0  0
 58 60  1  1  0  0  0
 60 62  1  0  0  0  0
 62 61  1  0  0  0  0
 62 63  1  1  0  0  0
 64 65  1  0  0  0  0
 65 67  1  0  0  0  0
 67 66  1  0  0  0  0
M  END
>  <MODEL>
1

>  <REMARK>
 VINA RESULT:      -5.7      0.000      0.000
  Name = 
  26 active torsions:
  status: ('A' for Active; 'I' for Inactive)
    1  A    between atoms: C_2  and  C_52
    2  A    between atoms: C_2  and  C_54
    3  A    between atoms: C_6  and  C_54
    4  A    between atoms: C_6  and  O_67
    5  A    between atoms: C_7  and  C_36
    6  A    between atoms: C_7  and  C_63
    7  A    between atoms: N_10  and  C_21
    8  A    between atoms: N_10  and  C_47
    9  A    between atoms: C_14  and  N_33
   10  A    between atoms: C_15  and  O_29
   11  A    between atoms: C_15  and  C_51
   12  A    between atoms: C_19  and  C_30
   13  A    between atoms: C_19  and  C_61
   14  A    between atoms: C_21  and  C_41
   15  A    between atoms: C_22  and  N_33
   16  A    between atoms: C_23  and  C_51
   17  A    between atoms: C_23  and  C_53
   18  A    between atoms: C_26  and  CA_49
   19  A    between atoms: O_29  and  C_66
   20  A    between atoms: C_31  and  C_32
   21  A    between atoms: C_31  and  C_52
   22  A    between atoms: C_31  and  C_60
   23  A    between atoms: C_32  and  C_66
   24  A    between atoms: C_42  and  C_48
   25  A    between atoms: C_51  and  C_63
   26  A    between atoms: C_53  and  C_59
                            x       y       z     vdW  Elec       q    Type
                         _______ _______ _______ _____ _____    ______ ____

>  <TORSDO>
F 26

$$$$
=
 OpenBabel11062422363D

 67 74  0  0  1  0  0  0  0  0999 V2000
  194.4710  171.8130  140.3480 C   0  0  2  0  0  3  0  0  0  0  0  0
  195.0930  172.8870  139.4490 C   0  0  2  0  0  3  0  0  0  0  0  0
  194.2320  171.7910  138.8230 C   0  0  2  0  0  3  0  0  0  0  0  0
  197.5720  171.5940  135.8350 C   0  0  0  0  0  2  0  0  0  0  0  0
  196.8550  173.0130  137.6680 N   0  0  0  0  0  2  0  0  0  0  0  0
  196.5940  172.6820  139.0830 C   0  0  2  0  0  0  0  0  0  0  0  0
  197.8740  170.8450  138.0640 C   0  0  2  0  0  3  0  0  0  0  0  0
  197.9300  172.1160  137.2240 C   0  0  1  0  0  3  0  0  0  0  0  0
  196.9510  170.5940  140.2330 O   0  0  0  0  0  0  0  0  0  0  0  0
  196.6560  170.4140  136.1130 C   0  0  2  0  0  3  0  0  0  0  0  0
  197.1200  169.7920  137.3370 N   0  0  0  0  0  2  0  0  0  0  0  0
  197.1180  171.3020  139.2380 C   0  0  0  0  0  0  0  0  0  0  0  0
  196.7520  169.4480  134.9530 C   0  0  0  0  0  3  0  0  0  0  0  0
  197.8740  169.1740  134.5220 O   0  0  0  0  0  0  0  0  0  0  0  0
  197.3700  173.5830  139.9450 N   0  0  0  0  0  2  0  0  0  0  0  0
  197.1350  172.9260  142.7670 C   0  0  0  0  0  1  0  0  0  0  0  0
  196.8220  174.2830  142.2370 C   0  0  0  0  0  0  0  0  0  0  0  0
  196.1300  175.6690  140.3860 C   0  0  0  0  0  3  0  0  0  0  0  0
  196.3340  175.2170  143.0960 N   0  0  0  0  0  0  0  0  0  0  0  0
  195.8240  176.3910  142.6420 C   0  0  0  0  0  3  0  0  0  0  0  0
  195.6340  176.6040  141.2730 C   0  0  0  0  0  3  0  0  0  0  0  0
  196.7800  174.5140  140.8560 C   0  0  0  0  0  0  0  0  0  0  0  0
  192.9790  172.4690  138.3210 C   0  0  0  0  0  2  0  0  0  0  0  0
  191.9500  169.3510  137.3330 C   0  0  2  0  0  3  0  0  0  0  0  0
  190.6830  170.0930  137.4420 C   0  0  0  0  0  0  0  0  0  0  0  0
  189.5890  169.5610  137.4840 O   0  0  0  0  0  0  0  0  0  0  0  0
  192.4010  171.6160  137.1840 C   0  0  2  0  0  3  0  0  0  0  0  0
  192.1700  168.4520  138.4770 N   0  0  0  0  0  1  0  0  0  0  0  0
  190.8840  171.5070  137.1700 C   0  0  2  0  0  3  0  0  0  0  0  0
  192.9840  170.3100  137.2240 O   0  0  0  0  0  0  0  0  0  0  0  0
  188.1260  175.5190  136.0340 N   0  0  0  0  0  0  0  0  0  0  0  0
  189.9190  172.2340  139.2960 O   0  0  0  0  0  0  0  0  0  0  0  0
  188.2880  174.1990  138.0780 C   0  0  0  0  0  2  0  0  0  0  0  0
  190.1170  174.2540  136.3660 C   0  0  0  0  0  3  0  0  0  0  0  0
  189.4810  175.1950  135.6720 C   0  0  0  0  0  3  0  0  0  0  0  0
  190.0680  172.4450  138.0520 C   0  0  0  0  0  0  0  0  0  0  0  0
  189.4620  173.5870  137.4560 N   0  0  0  0  0  0  0  0  0  0  0  0
  187.5410  175.0800  137.0950 C   0  0  0  0  0  3  0  0  0  0  0  0
  193.1710  172.1300  141.0400 C   0  0  0  0  0  2  0  0  0  0  0  0
  193.3280  173.0130  142.2960 C   0  0  0  0  0  2  0  0  0  0  0  0
  192.1040  172.8930  143.2250 C   0  0  2  0  0  3  0  0  0  0  0  0
  192.4850  172.0310  144.4480 C   0  0  0  0  0  2  0  0  0  0  0  0
  193.9830  171.7600  144.5110 C   0  0  0  0  0  2  0  0  0  0  0  0
  195.7660  170.1190  144.7990 C   0  0  0  0  0  2  0  0  0  0  0  0
  195.1820  169.8160  143.4300 C   0  0  0  0  0  2  0  0  0  0  0  0
  194.2720  170.2670  144.5760 C   0  0  0  0  0  3  0  0  0  0  0  0
  190.9080  172.2280  142.5340 C   0  0  0  0  0  2  0  0  0  0  0  0
  189.6660  172.7600  142.9960 O   0  0  0  0  0  0  0  0  0  0  0  0
  187.8120  173.2420  141.7410 O   0  0  0  0  0  0  0  0  0  0  0  0
  188.9320  173.6170  142.1810 C   0  0  0  0  0  0  0  0  0  0  0  0
  189.4460  175.0010  141.9250 C   0  0  0  0  0  2  0  0  0  0  0  0
  189.1560  175.9310  143.1120 C   0  0  1  0  0  3  0  0  0  0  0  0
  189.9580  177.9950  142.4890 O   0  0  0  0  0  0  0  0  0  0  0  0
  187.6480  178.0860  142.7270 C   0  0  0  0  0  1  0  0  0  0  0  0
  188.9560  177.3720  142.8110 C   0  0  0  0  0  0  0  0  0  0  0  0
  188.3360  175.3070  144.2480 C   0  0  0  0  0  2  0  0  0  0  0  0
  189.1180  175.5110  145.5390 C   0  0  2  0  0  0  0  0  0  0  0  0
  190.5840  175.2390  145.4410 C   0  0  2  0  0  3  0  0  0  0  0  0
  189.7300  174.3510  146.0890 O   0  0  0  0  0  0  0  0  0  0  0  0
  191.2960  176.1170  146.3580 N   0  0  0  0  0  2  0  0  0  0  0  0
  192.4530  176.3740  144.2830 N   0  0  0  0  0  1  0  0  0  0  0  0
  192.5920  176.4310  145.7460 C   0  0  2  0  0  3  0  0  0  0  0  0
  193.6640  175.3860  146.1480 C   0  0  0  0  0  1  0  0  0  0  0  0
  188.4300  176.3990  146.6140 C   0  0  0  0  0  2  0  0  0  0  0  0
  186.9760  176.8270  146.3240 C   0  0  0  0  0  2  0  0  0  0  0  0
  186.3740  178.4790  147.6640 C   0  0  0  0  0  1  0  0  0  0  0  0
  186.3270  177.0800  147.5220 O   0  0  0  0  0  0  0  0  0  0  0  0
  1 39  1  1  0  0  0
  2  6  1  6  0  0  0
  2  1  1  0  0  0  0
  3 23  1  1  0  0  0
  3  2  1  0  0  0  0
  3  1  1  0  0  0  0
  4 10  1  0  0  0  0
  5  6  1  0  0  0  0
  6 12  1  0  0  0  0
  6 15  1  1  0  0  0
  7 11  1  6  0  0  0
  7 12  1  0  0  0  0
  8  4  1  6  0  0  0
  8  5  1  0  0  0  0
  8  7  1  0  0  0  0
 10 13  1  6  0  0  0
 10 11  1  0  0  0  0
 12  9  2  0  0  0  0
 14 13  2  0  0  0  0
 15 22  1  0  0  0  0
 17 16  1  0  0  0  0
 17 19  1  0  0  0  0
 18 22  1  0  0  0  0
 18 21  2  0  0  0  0
 20 19  2  0  0  0  0
 21 20  1  0  0  0  0
 22 17  2  0  0  0  0
 24 25  1  0  0  0  0
 24 28  1  1  0  0  0
 25 26  2  0  0  0  0
 27 30  1  0  0  0  0
 27 23  1  1  0  0  0
 29 27  1  0  0  0  0
 29 25  1  0  0  0  0
 29 36  1  1  0  0  0
 30 24  1  0  0  0  0
 31 38  2  0  0  0  0
 34 37  1  0  0  0  0
 35 31  1  0  0  0  0
 35 34  2  0  0  0  0
 36 32  2  0  0  0  0
 37 36  1  0  0  0  0
 37 33  1  0  0  0  0
 38 33  1  0  0  0  0
 39 40  1  0  0  0  0
 41 40  1  6  0  0  0
 41 42  1  0  0  0  0
 42 43  1  0  0  0  0
 43 46  1  0  0  0  0
 45 46  1  0  0  0  0
 45 44  1  0  0  0  0
 46 44  1  0  0  0  0
 47 48  1  0  0  0  0
 47 41  1  0  0  0  0
 49 50  2  0  0  0  0
 50 48  1  0  0  0  0
 51 50  1  0  0  0  0
 52 51  1  6  0  0  0
 52 56  1  0  0  0  0
 53 55  2  0  0  0  0
 54 55  1  0  0  0  0
 55 52  1  0  0  0  0
 57 56  1  6  0  0  0
 57 59  1  0  0  0  0
 57 64  1  0  0  0  0
 58 57  1  0  0  0  0
 58 59  1  0  0  0  0
 58 60  1  1  0  0  0
 61 62  1  0  0  0  0
 62 63  1  1  0  0  0
 62 60  1  0  0  0  0
 65 64  1  0  0  0  0
 65 67  1  0  0  0  0
 67 66  1  0  0  0  0
M  END
>  <MODEL>
2

>  <REMARK>
 VINA RESULT:      -4.9      2.576      4.752
  Name = 
  26 active torsions:
  status: ('A' for Active; 'I' for Inactive)
    1  A    between atoms: C_2  and  C_52
    2  A    between atoms: C_2  and  C_54
    3  A    between atoms: C_6  and  C_54
    4  A    between atoms: C_6  and  O_67
    5  A    between atoms: C_7  and  C_36
    6  A    between atoms: C_7  and  C_63
    7  A    between atoms: N_10  and  C_21
    8  A    between atoms: N_10  and  C_47
    9  A    between atoms: C_14  and  N_33
   10  A    between atoms: C_15  and  O_29
   11  A    between atoms: C_15  and  C_51
   12  A    between atoms: C_19  and  C_30
   13  A    between atoms: C_19  and  C_61
   14  A    between atoms: C_21  and  C_41
   15  A    between atoms: C_22  and  N_33
   16  A    between atoms: C_23  and  C_51
   17  A    between atoms: C_23  and  C_53
   18  A    between atoms: C_26  and  CA_49
   19  A    between atoms: O_29  and  C_66
   20  A    between atoms: C_31  and  C_32
   21  A    between atoms: C_31  and  C_52
   22  A    between atoms: C_31  and  C_60
   23  A    between atoms: C_32  and  C_66
   24  A    between atoms: C_42  and  C_48
   25  A    between atoms: C_51  and  C_63
   26  A    between atoms: C_53  and  C_59
                            x       y       z     vdW  Elec       q    Type
                         _______ _______ _______ _____ _____    ______ ____

>  <TORSDO>
F 26

$$$$
=
 OpenBabel11062422363D

 67 74  0  0  1  0  0  0  0  0999 V2000
  193.4360  172.6270  142.1060 C   0  0  2  0  0  3  0  0  0  0  0  0
  194.3820  172.8430  140.9200 C   0  0  2  0  0  3  0  0  0  0  0  0
  193.4230  171.6540  140.9070 C   0  0  2  0  0  3  0  0  0  0  0  0
  196.5700  169.3000  142.8020 C   0  0  0  0  0  2  0  0  0  0  0  0
  195.9460  170.8880  141.0760 N   0  0  0  0  0  2  0  0  0  0  0  0
  195.8500  172.3600  141.1260 C   0  0  2  0  0  0  0  0  0  0  0  0
  197.1430  171.5850  143.0700 C   0  0  2  0  0  3  0  0  0  0  0  0
  197.0290  170.5120  141.9940 C   0  0  1  0  0  3  0  0  0  0  0  0
  196.4590  173.8510  142.9190 O   0  0  0  0  0  0  0  0  0  0  0  0
  195.7690  169.9040  143.9420 C   0  0  2  0  0  3  0  0  0  0  0  0
  196.3930  171.1680  144.2810 N   0  0  0  0  0  2  0  0  0  0  0  0
  196.4780  172.7240  142.4200 C   0  0  0  0  0  0  0  0  0  0  0  0
  195.8140  168.9540  145.1170 C   0  0  0  0  0  3  0  0  0  0  0  0
  195.9820  169.4340  146.2410 O   0  0  0  0  0  0  0  0  0  0  0  0
  196.6460  172.9370  140.0340 N   0  0  0  0  0  2  0  0  0  0  0  0
  195.3530  175.0470  138.5090 C   0  0  0  0  0  1  0  0  0  0  0  0
  195.8890  173.8150  137.8660 C   0  0  0  0  0  0  0  0  0  0  0  0
  196.4880  171.4840  138.0470 C   0  0  0  0  0  3  0  0  0  0  0  0
  195.6900  173.6420  136.5310 N   0  0  0  0  0  0  0  0  0  0  0  0
  195.9540  172.4530  135.9310 C   0  0  0  0  0  3  0  0  0  0  0  0
  196.2770  171.3250  136.6920 C   0  0  0  0  0  3  0  0  0  0  0  0
  196.3460  172.7470  138.6480 C   0  0  0  0  0  0  0  0  0  0  0  0
  192.4140  171.9330  139.8170 C   0  0  0  0  0  2  0  0  0  0  0  0
  192.6650  169.2760  137.6640 C   0  0  2  0  0  3  0  0  0  0  0  0
  191.7870  170.2060  136.9340 C   0  0  0  0  0  0  0  0  0  0  0  0
  191.1040  169.8830  135.9800 O   0  0  0  0  0  0  0  0  0  0  0  0
  192.9910  171.4130  138.4940 C   0  0  2  0  0  3  0  0  0  0  0  0
  191.9180  168.1660  138.2760 N   0  0  0  0  0  1  0  0  0  0  0  0
  192.0830  171.5860  137.2860 C   0  0  2  0  0  3  0  0  0  0  0  0
  193.3520  170.0360  138.6400 O   0  0  0  0  0  0  0  0  0  0  0  0
  190.9920  175.9500  135.1070 N   0  0  0  0  0  0  0  0  0  0  0  0
  189.8390  172.1460  138.0810 O   0  0  0  0  0  0  0  0  0  0  0  0
  189.6100  174.3890  136.3710 C   0  0  0  0  0  2  0  0  0  0  0  0
  192.1040  174.4690  136.6050 C   0  0  0  0  0  3  0  0  0  0  0  0
  192.1730  175.5420  135.8210 C   0  0  0  0  0  3  0  0  0  0  0  0
  190.8600  172.4860  137.4040 C   0  0  0  0  0  0  0  0  0  0  0  0
  190.8710  173.7440  136.7370 N   0  0  0  0  0  0  0  0  0  0  0  0
  189.8220  175.4470  135.3070 C   0  0  0  0  0  3  0  0  0  0  0  0
  192.1370  173.3910  142.1280 C   0  0  0  0  0  2  0  0  0  0  0  0
  191.1710  172.9540  143.2490 C   0  0  0  0  0  2  0  0  0  0  0  0
  191.2940  173.8670  144.4850 C   0  0  2  0  0  3  0  0  0  0  0  0
  192.3290  173.2600  145.4560 C   0  0  0  0  0  2  0  0  0  0  0  0
  193.4890  174.2110  145.7210 C   0  0  0  0  0  2  0  0  0  0  0  0
  194.5400  176.3350  145.1370 C   0  0  0  0  0  2  0  0  0  0  0  0
  193.4760  176.7000  146.1570 C   0  0  0  0  0  2  0  0  0  0  0  0
  193.2170  175.5900  145.1350 C   0  0  0  0  0  3  0  0  0  0  0  0
  189.9670  174.0100  145.2390 C   0  0  0  0  0  2  0  0  0  0  0  0
  189.4500  175.3390  145.1550 O   0  0  0  0  0  0  0  0  0  0  0  0
  190.0810  176.7370  146.8550 O   0  0  0  0  0  0  0  0  0  0  0  0
  189.1710  176.0510  146.3180 C   0  0  0  0  0  0  0  0  0  0  0  0
  187.7700  176.0610  146.8500 C   0  0  0  0  0  2  0  0  0  0  0  0
  186.9520  177.2090  146.2410 C   0  0  1  0  0  3  0  0  0  0  0  0
  186.4990  178.9240  147.7050 O   0  0  0  0  0  0  0  0  0  0  0  0
  184.5720  177.6810  147.3280 C   0  0  0  0  0  1  0  0  0  0  0  0
  186.0320  177.9420  147.1480 C   0  0  0  0  0  0  0  0  0  0  0  0
  187.6560  177.9970  145.1300 C   0  0  0  0  0  2  0  0  0  0  0  0
  186.9900  177.6220  143.8130 C   0  0  2  0  0  0  0  0  0  0  0  0
  187.9100  177.0750  142.7710 C   0  0  2  0  0  3  0  0  0  0  0  0
  187.3990  178.3660  142.6710 O   0  0  0  0  0  0  0  0  0  0  0  0
  187.1880  176.1110  141.9530 N   0  0  0  0  0  2  0  0  0  0  0  0
  187.9660  173.9520  141.2850 N   0  0  0  0  0  1  0  0  0  0  0  0
  188.1790  175.3990  141.1380 C   0  0  2  0  0  3  0  0  0  0  0  0
  189.6190  175.7050  141.6240 C   0  0  0  0  0  1  0  0  0  0  0  0
  185.4510  177.4030  143.8710 C   0  0  0  0  0  2  0  0  0  0  0  0
  184.5710  178.6590  143.7100 C   0  0  0  0  0  2  0  0  0  0  0  0
  184.1960  178.1310  141.5960 C   0  0  0  0  0  1  0  0  0  0  0  0
  183.5460  178.3880  142.8170 O   0  0  0  0  0  0  0  0  0  0  0  0
  1 39  1  6  0  0  0
  2  6  1  1  0  0  0
  2  1  1  0  0  0  0
  3 23  1  6  0  0  0
  3  2  1  0  0  0  0
  3  1  1  0  0  0  0
  4 10  1  0  0  0  0
  5  6  1  0  0  0  0
  5  8  1  0  0  0  0
  6 15  1  6  0  0  0
  6 12  1  0  0  0  0
  7 12  1  6  0  0  0
  7 11  1  0  0  0  0
  8  4  1  1  0  0  0
  8  7  1  0  0  0  0
 10 11  1  0  0  0  0
 10 13  1  1  0  0  0
 12  9  2  0  0  0  0
 13 14  2  0  0  0  0
 17 16  1  0  0  0  0
 17 22  1  0  0  0  0
 18 22  2  0  0  0  0
 19 17  2  0  0  0  0
 20 19  1  0  0  0  0
 20 21  2  0  0  0  0
 21 18  1  0  0  0  0
 22 15  1  0  0  0  0
 24 28  1  1  0  0  0
 24 30  1  0  0  0  0
 25 29  1  0  0  0  0
 25 24  1  0  0  0  0
 26 25  2  0  0  0  0
 27 30  1  0  0  0  0
 27 23  1  1  0  0  0
 29 36  1  1  0  0  0
 29 27  1  0  0  0  0
 31 38  2  0  0  0  0
 31 35  1  0  0  0  0
 33 37  1  0  0  0  0
 34 37  1  0  0  0  0
 35 34  2  0  0  0  0
 36 32  2  0  0  0  0
 37 36  1  0  0  0  0
 38 33  1  0  0  0  0
 39 40  1  0  0  0  0
 41 40  1  6  0  0  0
 41 47  1  0  0  0  0
 41 42  1  0  0  0  0
 42 43  1  0  0  0  0
 44 45  1  0  0  0  0
 46 44  1  0  0  0  0
 46 43  1  0  0  0  0
 46 45  1  0  0  0  0
 48 47  1  0  0  0  0
 48 50  1  0  0  0  0
 50 51  1  0  0  0  0
 50 49  2  0  0  0  0
 52 56  1  1  0  0  0
 52 51  1  0  0  0  0
 52 55  1  0  0  0  0
 55 54  1  0  0  0  0
 55 53  2  0  0  0  0
 57 64  1  1  0  0  0
 57 56  1  0  0  0  0
 58 60  1  6  0  0  0
 58 57  1  0  0  0  0
 59 58  1  0  0  0  0
 59 57  1  0  0  0  0
 62 61  1  0  0  0  0
 62 63  1  1  0  0  0
 62 60  1  0  0  0  0
 65 64  1  0  0  0  0
 66 67  1  0  0  0  0
 67 65  1  0  0  0  0
M  END
>  <MODEL>
3

>  <REMARK>
 VINA RESULT:      -4.8      2.221      3.800
  Name = 
  26 active torsions:
  status: ('A' for Active; 'I' for Inactive)
    1  A    between atoms: C_2  and  C_52
    2  A    between atoms: C_2  and  C_54
    3  A    between atoms: C_6  and  C_54
    4  A    between atoms: C_6  and  O_67
    5  A    between atoms: C_7  and  C_36
    6  A    between atoms: C_7  and  C_63
    7  A    between atoms: N_10  and  C_21
    8  A    between atoms: N_10  and  C_47
    9  A    between atoms: C_14  and  N_33
   10  A    between atoms: C_15  and  O_29
   11  A    between atoms: C_15  and  C_51
   12  A    between atoms: C_19  and  C_30
   13  A    between atoms: C_19  and  C_61
   14  A    between atoms: C_21  and  C_41
   15  A    between atoms: C_22  and  N_33
   16  A    between atoms: C_23  and  C_51
   17  A    between atoms: C_23  and  C_53
   18  A    between atoms: C_26  and  CA_49
   19  A    between atoms: O_29  and  C_66
   20  A    between atoms: C_31  and  C_32
   21  A    between atoms: C_31  and  C_52
   22  A    between atoms: C_31  and  C_60
   23  A    between atoms: C_32  and  C_66
   24  A    between atoms: C_42  and  C_48
   25  A    between atoms: C_51  and  C_63
   26  A    between atoms: C_53  and  C_59
                            x       y       z     vdW  Elec       q    Type
                         _______ _______ _______ _____ _____    ______ ____

>  <TORSDO>
F 26

$$$$
=
 OpenBabel11062422363D

 67 74  0  0  1  0  0  0  0  0999 V2000
  192.3110  173.1160  139.0190 C   0  0  2  0  0  3  0  0  0  0  0  0
  192.5970  171.6180  138.8640 C   0  0  2  0  0  3  0  0  0  0  0  0
  193.6630  172.6310  138.4520 C   0  0  2  0  0  3  0  0  0  0  0  0
  191.0920  172.8260  134.7230 C   0  0  0  0  0  2  0  0  0  0  0  0
  192.3980  171.6050  136.3640 N   0  0  0  0  0  2  0  0  0  0  0  0
  191.9750  170.9340  137.6090 C   0  0  2  0  0  0  0  0  0  0  0  0
  189.9850  171.3680  136.2310 C   0  0  2  0  0  3  0  0  0  0  0  0
  191.2750  171.4830  135.4260 C   0  0  1  0  0  3  0  0  0  0  0  0
  189.7460  170.6020  138.4620 O   0  0  0  0  0  0  0  0  0  0  0  0
  190.2390  173.6300  135.6890 C   0  0  2  0  0  3  0  0  0  0  0  0
  189.3390  172.7000  136.3430 N   0  0  0  0  0  2  0  0  0  0  0  0
  190.4940  170.9310  137.5380 C   0  0  0  0  0  0  0  0  0  0  0  0
  189.4620  174.6610  134.9020 C   0  0  0  0  0  3  0  0  0  0  0  0
  189.5830  175.8450  135.2260 O   0  0  0  0  0  0  0  0  0  0  0  0
  192.4540  169.5450  137.5990 N   0  0  0  0  0  2  0  0  0  0  0  0
  192.2990  168.1660  135.0450 C   0  0  0  0  0  1  0  0  0  0  0  0
  193.5930  168.6180  135.6280 C   0  0  0  0  0  0  0  0  0  0  0  0
  194.8940  169.1850  137.5800 C   0  0  0  0  0  3  0  0  0  0  0  0
  194.7440  168.3000  134.9760 N   0  0  0  0  0  0  0  0  0  0  0  0
  195.9560  168.4860  135.5590 C   0  0  0  0  0  3  0  0  0  0  0  0
  196.0510  168.8530  136.9050 C   0  0  0  0  0  3  0  0  0  0  0  0
  193.6470  169.1220  136.9340 C   0  0  0  0  0  0  0  0  0  0  0  0
  194.7990  172.4790  139.4370 C   0  0  0  0  0  2  0  0  0  0  0  0
  196.2490  173.5380  136.5160 C   0  0  2  0  0  3  0  0  0  0  0  0
  196.4730  174.6760  137.4220 C   0  0  0  0  0  0  0  0  0  0  0  0
  196.7910  175.7890  137.0450 O   0  0  0  0  0  0  0  0  0  0  0  0
  196.1090  172.7860  138.7010 C   0  0  2  0  0  3  0  0  0  0  0  0
  195.1520  173.7870  135.5670 N   0  0  0  0  0  1  0  0  0  0  0  0
  196.5790  174.2290  138.8020 C   0  0  2  0  0  3  0  0  0  0  0  0
  195.9840  172.4090  137.3260 O   0  0  0  0  0  0  0  0  0  0  0  0
  197.9410  175.5180  143.4360 N   0  0  0  0  0  0  0  0  0  0  0  0
  194.8830  175.8300  139.5380 O   0  0  0  0  0  0  0  0  0  0  0  0
  196.2580  176.4420  141.9340 C   0  0  0  0  0  2  0  0  0  0  0  0
  197.1120  174.0970  141.7140 C   0  0  0  0  0  3  0  0  0  0  0  0
  197.8160  174.2150  142.8370 C   0  0  0  0  0  3  0  0  0  0  0  0
  195.9200  175.1510  139.8200 C   0  0  0  0  0  0  0  0  0  0  0  0
  196.4880  175.2470  141.1220 N   0  0  0  0  0  0  0  0  0  0  0  0
  197.2760  176.5530  143.0520 C   0  0  0  0  0  3  0  0  0  0  0  0
  192.5480  173.7490  140.3660 C   0  0  0  0  0  2  0  0  0  0  0  0
  191.9840  172.9350  141.5500 C   0  0  0  0  0  2  0  0  0  0  0  0
  192.8560  173.0960  142.8100 C   0  0  2  0  0  3  0  0  0  0  0  0
  193.1920  171.6970  143.3700 C   0  0  0  0  0  2  0  0  0  0  0  0
  194.6910  171.4990  143.5520 C   0  0  0  0  0  2  0  0  0  0  0  0
  196.5820  171.4540  145.0950 C   0  0  0  0  0  2  0  0  0  0  0  0
  195.4990  170.6480  145.7910 C   0  0  0  0  0  2  0  0  0  0  0  0
  195.1310  171.8810  144.9590 C   0  0  0  0  0  3  0  0  0  0  0  0
  192.1470  173.8890  143.9140 C   0  0  0  0  0  2  0  0  0  0  0  0
  191.2770  174.8850  143.3750 O   0  0  0  0  0  0  0  0  0  0  0  0
  191.5010  177.0960  142.8250 O   0  0  0  0  0  0  0  0  0  0  0  0
  191.4460  176.2210  143.7290 C   0  0  0  0  0  0  0  0  0  0  0  0
  191.4640  176.5950  145.1790 C   0  0  0  0  0  2  0  0  0  0  0  0
  190.1250  176.2690  145.8550 C   0  0  1  0  0  3  0  0  0  0  0  0
  191.2320  175.2090  147.5700 O   0  0  0  0  0  0  0  0  0  0  0  0
  188.9820  174.6300  147.6100 C   0  0  0  0  0  1  0  0  0  0  0  0
  190.1560  175.3260  147.0030 C   0  0  0  0  0  0  0  0  0  0  0  0
  189.1100  177.4180  145.8870 C   0  0  0  0  0  2  0  0  0  0  0  0
  187.8360  176.9190  145.2180 C   0  0  2  0  0  0  0  0  0  0  0  0
  186.6290  177.7720  145.4380 C   0  0  2  0  0  3  0  0  0  0  0  0
  186.7740  176.5510  146.0900 O   0  0  0  0  0  0  0  0  0  0  0  0
  185.7680  177.6950  144.2670 N   0  0  0  0  0  2  0  0  0  0  0  0
  185.3000  180.0360  144.1550 N   0  0  0  0  0  1  0  0  0  0  0  0
  184.7220  178.7110  144.4260 C   0  0  2  0  0  3  0  0  0  0  0  0
  184.1830  178.7320  145.8790 C   0  0  0  0  0  1  0  0  0  0  0  0
  188.0350  175.9120  144.0500 C   0  0  0  0  0  2  0  0  0  0  0  0
  187.1840  176.1500  142.7850 C   0  0  0  0  0  2  0  0  0  0  0  0
  188.2410  175.2020  141.0900 C   0  0  0  0  0  1  0  0  0  0  0  0
  187.1930  175.0020  142.0070 O   0  0  0  0  0  0  0  0  0  0  0  0
  1 39  1  1  0  0  0
  2  6  1  6  0  0  0
  2  1  1  0  0  0  0
  3  2  1  0  0  0  0
  3  1  1  0  0  0  0
  3 23  1  1  0  0  0
  4 10  1  0  0  0  0
  5  6  1  0  0  0  0
  6 15  1  6  0  0  0
  7 11  1  1  0  0  0
  7 12  1  0  0  0  0
  8  4  1  6  0  0  0
  8  7  1  0  0  0  0
  8  5  1  0  0  0  0
 10 13  1  6  0  0  0
 10 11  1  0  0  0  0
 12  6  1  0  0  0  0
 12  9  2  0  0  0  0
 13 14  2  0  0  0  0
 16 17  1  0  0  0  0
 17 22  1  0  0  0  0
 19 20  1  0  0  0  0
 19 17  2  0  0  0  0
 20 21  2  0  0  0  0
 21 18  1  0  0  0  0
 22 18  2  0  0  0  0
 22 15  1  0  0  0  0
 24 28  1  6  0  0  0
 24 30  1  0  0  0  0
 24 25  1  0  0  0  0
 25 29  1  0  0  0  0
 26 25  2  0  0  0  0
 27 29  1  0  0  0  0
 27 23  1  1  0  0  0
 29 36  1  1  0  0  0
 30 27  1  0  0  0  0
 32 36  2  0  0  0  0
 33 38  1  0  0  0  0
 34 35  2  0  0  0  0
 35 31  1  0  0  0  0
 36 37  1  0  0  0  0
 37 34  1  0  0  0  0
 37 33  1  0  0  0  0
 38 31  2  0  0  0  0
 39 40  1  0  0  0  0
 41 40  1  6  0  0  0
 41 42  1  0  0  0  0
 41 47  1  0  0  0  0
 42 43  1  0  0  0  0
 43 46  1  0  0  0  0
 44 45  1  0  0  0  0
 46 44  1  0  0  0  0
 46 45  1  0  0  0  0
 48 50  1  0  0  0  0
 48 47  1  0  0  0  0
 49 50  2  0  0  0  0
 50 51  1  0  0  0  0
 52 51  1  1  0  0  0
 52 56  1  0  0  0  0
 52 55  1  0  0  0  0
 55 53  2  0  0  0  0
 55 54  1  0  0  0  0
 57 64  1  6  0  0  0
 57 58  1  0  0  0  0
 57 56  1  0  0  0  0
 57 59  1  0  0  0  0
 58 60  1  6  0  0  0
 58 59  1  0  0  0  0
 60 62  1  0  0  0  0
 61 62  1  0  0  0  0
 62 63  1  1  0  0  0
 65 64  1  0  0  0  0
 66 67  1  0  0  0  0
 67 65  1  0  0  0  0
M  END
>  <MODEL>
4

>  <REMARK>
 VINA RESULT:      -4.5      2.964      7.024
  Name = 
  26 active torsions:
  status: ('A' for Active; 'I' for Inactive)
    1  A    between atoms: C_2  and  C_52
    2  A    between atoms: C_2  and  C_54
    3  A    between atoms: C_6  and  C_54
    4  A    between atoms: C_6  and  O_67
    5  A    between atoms: C_7  and  C_36
    6  A    between atoms: C_7  and  C_63
    7  A    between atoms: N_10  and  C_21
    8  A    between atoms: N_10  and  C_47
    9  A    between atoms: C_14  and  N_33
   10  A    between atoms: C_15  and  O_29
   11  A    between atoms: C_15  and  C_51
   12  A    between atoms: C_19  and  C_30
   13  A    between atoms: C_19  and  C_61
   14  A    between atoms: C_21  and  C_41
   15  A    between atoms: C_22  and  N_33
   16  A    between atoms: C_23  and  C_51
   17  A    between atoms: C_23  and  C_53
   18  A    between atoms: C_26  and  CA_49
   19  A    between atoms: O_29  and  C_66
   20  A    between atoms: C_31  and  C_32
   21  A    between atoms: C_31  and  C_52
   22  A    between atoms: C_31  and  C_60
   23  A    between atoms: C_32  and  C_66
   24  A    between atoms: C_42  and  C_48
   25  A    between atoms: C_51  and  C_63
   26  A    between atoms: C_53  and  C_59
                            x       y       z     vdW  Elec       q    Type
                         _______ _______ _______ _____ _____    ______ ____

>  <TORSDO>
F 26

$$$$
=
 OpenBabel11062422363D

 67 74  0  0  1  0  0  0  0  0999 V2000
  193.8550  173.5700  141.4900 C   0  0  2  0  0  3  0  0  0  0  0  0
  194.7050  173.8230  140.2410 C   0  0  2  0  0  3  0  0  0  0  0  0
  194.3940  172.3870  140.6580 C   0  0  2  0  0  3  0  0  0  0  0  0
  197.9410  172.8150  143.3050 C   0  0  0  0  0  2  0  0  0  0  0  0
  196.9130  173.0160  141.1160 N   0  0  0  0  0  2  0  0  0  0  0  0
  196.2070  174.1550  140.4970 C   0  0  2  0  0  0  0  0  0  0  0  0
  197.4740  174.9730  142.4400 C   0  0  2  0  0  3  0  0  0  0  0  0
  197.9410  173.5930  141.9920 C   0  0  1  0  0  3  0  0  0  0  0  0
  195.9290  176.3960  141.3390 O   0  0  0  0  0  0  0  0  0  0  0  0
  196.8370  173.4700  144.1170 C   0  0  2  0  0  3  0  0  0  0  0  0
  196.8330  174.8790  143.7760 N   0  0  0  0  0  2  0  0  0  0  0  0
  196.4740  175.2920  141.4110 C   0  0  0  0  0  0  0  0  0  0  0  0
  197.1390  173.2760  145.5860 C   0  0  0  0  0  3  0  0  0  0  0  0
  196.6100  174.0470  146.3900 O   0  0  0  0  0  0  0  0  0  0  0  0
  196.8080  174.4470  139.1890 N   0  0  0  0  0  2  0  0  0  0  0  0
  197.8420  173.3310  136.7120 C   0  0  0  0  0  1  0  0  0  0  0  0
  196.4590  173.8760  136.8230 C   0  0  0  0  0  0  0  0  0  0  0  0
  194.9100  175.3720  137.9140 C   0  0  0  0  0  3  0  0  0  0  0  0
  195.6890  173.9230  135.7030 N   0  0  0  0  0  0  0  0  0  0  0  0
  194.5140  174.6040  135.6870 C   0  0  0  0  0  3  0  0  0  0  0  0
  194.1430  175.4120  136.7670 C   0  0  0  0  0  3  0  0  0  0  0  0
  196.0570  174.5600  137.9770 C   0  0  0  0  0  0  0  0  0  0  0  0
  193.4740  171.8270  139.5990 C   0  0  0  0  0  2  0  0  0  0  0  0
  195.6890  169.7320  138.0280 C   0  0  2  0  0  3  0  0  0  0  0  0
  194.4440  169.5190  137.2700 C   0  0  0  0  0  0  0  0  0  0  0  0
  194.2610  168.5760  136.5230 O   0  0  0  0  0  0  0  0  0  0  0  0
  194.3070  171.5640  138.3370 C   0  0  2  0  0  3  0  0  0  0  0  0
  195.9650  168.6320  138.9660 N   0  0  0  0  0  1  0  0  0  0  0  0
  193.6190  170.7170  137.2790 C   0  0  2  0  0  3  0  0  0  0  0  0
  195.5540  170.9670  138.7060 O   0  0  0  0  0  0  0  0  0  0  0  0
  189.7120  172.8780  135.0320 N   0  0  0  0  0  0  0  0  0  0  0  0
  191.6640  169.4980  138.0990 O   0  0  0  0  0  0  0  0  0  0  0  0
  189.8860  170.8350  136.3490 C   0  0  0  0  0  2  0  0  0  0  0  0
  191.5470  172.7010  136.5400 C   0  0  0  0  0  3  0  0  0  0  0  0
  190.8200  173.4710  135.7340 C   0  0  0  0  0  3  0  0  0  0  0  0
  192.1230  170.4550  137.3990 C   0  0  0  0  0  0  0  0  0  0  0  0
  191.2220  171.3130  136.7070 N   0  0  0  0  0  0  0  0  0  0  0  0
  189.2690  171.6900  135.2610 C   0  0  0  0  0  3  0  0  0  0  0  0
  192.3550  173.6200  141.3520 C   0  0  0  0  0  2  0  0  0  0  0  0
  191.5950  173.4160  142.6790 C   0  0  0  0  0  2  0  0  0  0  0  0
  190.8670  174.7020  143.1150 C   0  0  2  0  0  3  0  0  0  0  0  0
  191.9070  175.8240  143.3200 C   0  0  0  0  0  2  0  0  0  0  0  0
  192.8240  175.5430  144.5040 C   0  0  0  0  0  2  0  0  0  0  0  0
  194.6340  176.9450  145.3510 C   0  0  0  0  0  2  0  0  0  0  0  0
  193.8660  176.5180  146.5890 C   0  0  0  0  0  2  0  0  0  0  0  0
  193.1220  176.8160  145.2840 C   0  0  0  0  0  3  0  0  0  0  0  0
  190.1010  174.5230  144.4310 C   0  0  0  0  0  2  0  0  0  0  0  0
  189.0620  175.4920  144.5760 O   0  0  0  0  0  0  0  0  0  0  0  0
  189.8930  176.8980  146.1820 O   0  0  0  0  0  0  0  0  0  0  0  0
  188.9310  176.1960  145.7700 C   0  0  0  0  0  0  0  0  0  0  0  0
  187.6170  176.1780  146.4880 C   0  0  0  0  0  2  0  0  0  0  0  0
  186.7580  177.3930  146.1080 C   0  0  1  0  0  3  0  0  0  0  0  0
  187.1060  178.4590  148.1170 O   0  0  0  0  0  0  0  0  0  0  0  0
  185.0340  179.0610  147.2540 C   0  0  0  0  0  1  0  0  0  0  0  0
  186.3030  178.2750  147.2130 C   0  0  0  0  0  0  0  0  0  0  0  0
  187.0970  178.0380  144.7590 C   0  0  0  0  0  2  0  0  0  0  0  0
  186.0010  177.6440  143.7770 C   0  0  2  0  0  0  0  0  0  0  0  0
  185.1510  178.7720  143.2900 C   0  0  2  0  0  3  0  0  0  0  0  0
  184.6640  177.8530  144.2160 O   0  0  0  0  0  0  0  0  0  0  0  0
  184.7190  178.4930  141.9280 N   0  0  0  0  0  2  0  0  0  0  0  0
  182.8340  177.8110  140.6280 N   0  0  0  0  0  1  0  0  0  0  0  0
  183.3230  178.0460  141.9940 C   0  0  2  0  0  3  0  0  0  0  0  0
  182.4210  179.1370  142.6260 C   0  0  0  0  0  1  0  0  0  0  0  0
  186.1950  176.2780  143.0600 C   0  0  0  0  0  2  0  0  0  0  0  0
  187.2710  176.2270  141.9560 C   0  0  0  0  0  2  0  0  0  0  0  0
  188.4390  174.9090  140.6200 C   0  0  0  0  0  1  0  0  0  0  0  0
  187.2310  174.9890  141.3360 O   0  0  0  0  0  0  0  0  0  0  0  0
  1 39  1  6  0  0  0
  2  6  1  1  0  0  0
  2  3  1  0  0  0  0
  2  1  1  0  0  0  0
  3 23  1  6  0  0  0
  3  1  1  0  0  0  0
  4 10  1  0  0  0  0
  5  8  1  0  0  0  0
  6 15  1  6  0  0  0
  6  5  1  0  0  0  0
  6 12  1  0  0  0  0
  7 12  1  6  0  0  0
  7 11  1  0  0  0  0
  8  7  1  0  0  0  0
  8  4  1  1  0  0  0
  9 12  2  0  0  0  0
 10 13  1  1  0  0  0
 11 10  1  0  0  0  0
 13 14  2  0  0  0  0
 16 17  1  0  0  0  0
 17 22  1  0  0  0  0
 18 22  2  0  0  0  0
 19 17  2  0  0  0  0
 20 19  1  0  0  0  0
 20 21  2  0  0  0  0
 21 18  1  0  0  0  0
 22 15  1  0  0  0  0
 24 30  1  0  0  0  0
 24 28  1  1  0  0  0
 25 29  1  0  0  0  0
 25 24  1  0  0  0  0
 26 25  2  0  0  0  0
 27 30  1  0  0  0  0
 27 23  1  1  0  0  0
 29 36  1  1  0  0  0
 29 27  1  0  0  0  0
 31 38  2  0  0  0  0
 31 35  1  0  0  0  0
 33 37  1  0  0  0  0
 34 37  1  0  0  0  0
 35 34  2  0  0  0  0
 36 32  2  0  0  0  0
 37 36  1  0  0  0  0
 38 33  1  0  0  0  0
 39 40  1  0  0  0  0
 41 40  1  1  0  0  0
 41 42  1  0  0  0  0
 41 47  1  0  0  0  0
 42 43  1  0  0  0  0
 43 46  1  0  0  0  0
 44 45  1  0  0  0  0
 46 44  1  0  0  0  0
 46 45  1  0  0  0  0
 47 48  1  0  0  0  0
 48 50  1  0  0  0  0
 50 49  2  0  0  0  0
 50 51  1  0  0  0  0
 52 56  1  6  0  0  0
 52 51  1  0  0  0  0
 52 55  1  0  0  0  0
 55 54  1  0  0  0  0
 55 53  2  0  0  0  0
 57 64  1  6  0  0  0
 57 59  1  0  0  0  0
 57 56  1  0  0  0  0
 58 60  1  6  0  0  0
 58 57  1  0  0  0  0
 58 59  1  0  0  0  0
 60 62  1  0  0  0  0
 61 62  1  0  0  0  0
 62 63  1  6  0  0  0
 65 64  1  0  0  0  0
 66 67  1  0  0  0  0
 67 65  1  0  0  0  0
M  END
>  <MODEL>
5

>  <REMARK>
 VINA RESULT:      -4.4      2.972      4.987
  Name = 
  26 active torsions:
  status: ('A' for Active; 'I' for Inactive)
    1  A    between atoms: C_2  and  C_52
    2  A    between atoms: C_2  and  C_54
    3  A    between atoms: C_6  and  C_54
    4  A    between atoms: C_6  and  O_67
    5  A    between atoms: C_7  and  C_36
    6  A    between atoms: C_7  and  C_63
    7  A    between atoms: N_10  and  C_21
    8  A    between atoms: N_10  and  C_47
    9  A    between atoms: C_14  and  N_33
   10  A    between atoms: C_15  and  O_29
   11  A    between atoms: C_15  and  C_51
   12  A    between atoms: C_19  and  C_30
   13  A    between atoms: C_19  and  C_61
   14  A    between atoms: C_21  and  C_41
   15  A    between atoms: C_22  and  N_33
   16  A    between atoms: C_23  and  C_51
   17  A    between atoms: C_23  and  C_53
   18  A    between atoms: C_26  and  CA_49
   19  A    between atoms: O_29  and  C_66
   20  A    between atoms: C_31  and  C_32
   21  A    between atoms: C_31  and  C_52
   22  A    between atoms: C_31  and  C_60
   23  A    between atoms: C_32  and  C_66
   24  A    between atoms: C_42  and  C_48
   25  A    between atoms: C_51  and  C_63
   26  A    between atoms: C_53  and  C_59
                            x       y       z     vdW  Elec       q    Type
                         _______ _______ _______ _____ _____    ______ ____

>  <TORSDO>
F 26

$$$$
=
 OpenBabel11062422363D

 67 74  0  0  1  0  0  0  0  0999 V2000
  193.8840  172.5400  140.3910 C   0  0  2  0  0  3  0  0  0  0  0  0
  194.4020  171.1870  140.8920 C   0  0  2  0  0  3  0  0  0  0  0  0
  194.5680  171.5550  139.4190 C   0  0  2  0  0  3  0  0  0  0  0  0
  190.4340  169.9590  138.9900 C   0  0  0  0  0  2  0  0  0  0  0  0
  192.7190  169.7070  139.7670 N   0  0  0  0  0  2  0  0  0  0  0  0
  193.3300  170.0690  141.0610 C   0  0  2  0  0  0  0  0  0  0  0  0
  190.8840  170.0640  141.3160 C   0  0  2  0  0  3  0  0  0  0  0  0
  191.3290  169.3320  140.0550 C   0  0  1  0  0  3  0  0  0  0  0  0
  192.2610  170.9080  143.0510 O   0  0  0  0  0  0  0  0  0  0  0  0
  190.1930  171.3690  139.5000 C   0  0  2  0  0  3  0  0  0  0  0  0
  190.1450  171.2980  140.9470 N   0  0  0  0  0  2  0  0  0  0  0  0
  192.1750  170.4020  141.9310 C   0  0  0  0  0  0  0  0  0  0  0  0
  188.8760  171.8630  138.9450 C   0  0  0  0  0  3  0  0  0  0  0  0
  188.7850  173.0580  138.6520 O   0  0  0  0  0  0  0  0  0  0  0  0
  194.0200  168.8970  141.6170 N   0  0  0  0  0  2  0  0  0  0  0  0
  194.0820  168.5270  144.5000 C   0  0  0  0  0  1  0  0  0  0  0  0
  195.3240  168.6180  143.6820 C   0  0  0  0  0  0  0  0  0  0  0  0
  196.4320  169.4080  141.6890 C   0  0  0  0  0  3  0  0  0  0  0  0
  196.5240  168.6080  144.3230 N   0  0  0  0  0  0  0  0  0  0  0  0
  197.6740  168.9070  143.6660 C   0  0  0  0  0  3  0  0  0  0  0  0
  197.6400  169.3970  142.3560 C   0  0  0  0  0  3  0  0  0  0  0  0
  195.2590  168.9680  142.3280 C   0  0  0  0  0  0  0  0  0  0  0  0
  196.0500  171.7440  139.1910 C   0  0  0  0  0  2  0  0  0  0  0  0
  195.0830  169.5410  136.7470 C   0  0  2  0  0  3  0  0  0  0  0  0
  195.7180  170.6240  135.9780 C   0  0  0  0  0  0  0  0  0  0  0  0
  195.5810  170.7720  134.7780 O   0  0  0  0  0  0  0  0  0  0  0  0
  196.5050  170.7140  138.1490 C   0  0  2  0  0  3  0  0  0  0  0  0
  193.6140  169.5990  136.6850 N   0  0  0  0  0  1  0  0  0  0  0  0
  196.7580  171.2760  136.7590 C   0  0  2  0  0  3  0  0  0  0  0  0
  195.5480  169.6520  138.0790 O   0  0  0  0  0  0  0  0  0  0  0  0
  193.2690  174.8260  137.2240 N   0  0  0  0  0  0  0  0  0  0  0  0
  197.9350  173.3790  136.3400 O   0  0  0  0  0  0  0  0  0  0  0  0
  195.6950  174.9650  137.0280 C   0  0  0  0  0  2  0  0  0  0  0  0
  194.3940  172.9810  136.2230 C   0  0  0  0  0  3  0  0  0  0  0  0
  193.2420  173.5940  136.4810 C   0  0  0  0  0  3  0  0  0  0  0  0
  196.8350  172.7870  136.5760 C   0  0  0  0  0  0  0  0  0  0  0  0
  195.6350  173.5480  136.6710 N   0  0  0  0  0  0  0  0  0  0  0  0
  194.3490  175.4690  137.5100 C   0  0  0  0  0  3  0  0  0  0  0  0
  194.7680  173.7480  140.5630 C   0  0  0  0  0  2  0  0  0  0  0  0
  194.5870  174.4710  141.9140 C   0  0  0  0  0  2  0  0  0  0  0  0
  195.8810  175.1890  142.3470 C   0  0  2  0  0  3  0  0  0  0  0  0
  196.8810  174.1420  142.8810 C   0  0  0  0  0  2  0  0  0  0  0  0
  196.5460  173.7050  144.3020 C   0  0  0  0  0  2  0  0  0  0  0  0
  194.9310  172.0890  145.1610 C   0  0  0  0  0  2  0  0  0  0  0  0
  196.2520  171.6870  145.7940 C   0  0  0  0  0  2  0  0  0  0  0  0
  196.2140  172.2200  144.3590 C   0  0  0  0  0  3  0  0  0  0  0  0
  195.6350  176.2170  143.4560 C   0  0  0  0  0  2  0  0  0  0  0  0
  194.2830  176.1870  143.9170 O   0  0  0  0  0  0  0  0  0  0  0  0
  194.5320  177.1240  145.9910 O   0  0  0  0  0  0  0  0  0  0  0  0
  194.0140  176.2210  145.2830 C   0  0  0  0  0  0  0  0  0  0  0  0
  193.0410  175.2390  145.8600 C   0  0  0  0  0  2  0  0  0  0  0  0
  191.6640  175.8840  146.0760 C   0  0  1  0  0  3  0  0  0  0  0  0
  190.4790  175.1100  147.8900 O   0  0  0  0  0  0  0  0  0  0  0  0
  191.6070  177.0590  148.4600 C   0  0  0  0  0  1  0  0  0  0  0  0
  191.1890  176.0150  147.4770 C   0  0  0  0  0  0  0  0  0  0  0  0
  191.2920  176.9870  145.0780 C   0  0  0  0  0  2  0  0  0  0  0  0
  189.9080  176.6610  144.5330 C   0  0  2  0  0  0  0  0  0  0  0  0
  188.9480  177.8050  144.5170 C   0  0  2  0  0  3  0  0  0  0  0  0
  188.8300  176.7810  145.4520 O   0  0  0  0  0  0  0  0  0  0  0  0
  188.0410  177.6550  143.3880 N   0  0  0  0  0  2  0  0  0  0  0  0
  185.9190  176.5770  143.6070 N   0  0  0  0  0  1  0  0  0  0  0  0
  186.6750  177.8040  143.9020 C   0  0  2  0  0  3  0  0  0  0  0  0
  185.9420  178.9760  143.2000 C   0  0  0  0  0  1  0  0  0  0  0  0
  189.8110  175.3830  143.6520 C   0  0  0  0  0  2  0  0  0  0  0  0
  190.8330  175.2610  142.5030 C   0  0  0  0  0  2  0  0  0  0  0  0
  188.8770  174.7060  141.6340 C   0  0  0  0  0  1  0  0  0  0  0  0
  190.2640  174.5470  141.4600 O   0  0  0  0  0  0  0  0  0  0  0  0
  1 39  1  1  0  0  0
  1  2  1  0  0  0  0
  2  6  1  6  0  0  0
  3 23  1  1  0  0  0
  3  1  1  0  0  0  0
  3  2  1  0  0  0  0
  4 10  1  0  0  0  0
  5  8  1  0  0  0  0
  5  6  1  0  0  0  0
  6 15  1  1  0  0  0
  6 12  1  0  0  0  0
  7 11  1  6  0  0  0
  7 12  1  0  0  0  0
  8  4  1  6  0  0  0
  8  7  1  0  0  0  0
 10 13  1  6  0  0  0
 10 11  1  0  0  0  0
 12  9  2  0  0  0  0
 14 13  2  0  0  0  0
 15 22  1  0  0  0  0
 17 19  1  0  0  0  0
 17 16  1  0  0  0  0
 18 22  1  0  0  0  0
 18 21  2  0  0  0  0
 20 19  2  0  0  0  0
 21 20  1  0  0  0  0
 22 17  2  0  0  0  0
 24 28  1  1  0  0  0
 24 30  1  0  0  0  0
 25 24  1  0  0  0  0
 25 29  1  0  0  0  0
 26 25  2  0  0  0  0
 27 23  1  1  0  0  0
 29 36  1  1  0  0  0
 29 27  1  0  0  0  0
 30 27  1  0  0  0  0
 31 38  2  0  0  0  0
 32 36  2  0  0  0  0
 33 38  1  0  0  0  0
 34 35  2  0  0  0  0
 34 37  1  0  0  0  0
 35 31  1  0  0  0  0
 36 37  1  0  0  0  0
 37 33  1  0  0  0  0
 39 40  1  0  0  0  0
 41 40  1  1  0  0  0
 41 42  1  0  0  0  0
 41 47  1  0  0  0  0
 42 43  1  0  0  0  0
 43 46  1  0  0  0  0
 44 45  1  0  0  0  0
 46 44  1  0  0  0  0
 46 45  1  0  0  0  0
 47 48  1  0  0  0  0
 48 50  1  0  0  0  0
 50 51  1  0  0  0  0
 50 49  2  0  0  0  0
 51 52  1  0  0  0  0
 52 56  1  1  0  0  0
 52 55  1  0  0  0  0
 55 53  2  0  0  0  0
 55 54  1  0  0  0  0
 57 64  1  6  0  0  0
 57 56  1  0  0  0  0
 57 59  1  0  0  0  0
 58 60  1  6  0  0  0
 58 57  1  0  0  0  0
 58 59  1  0  0  0  0
 60 62  1  0  0  0  0
 61 62  1  0  0  0  0
 62 63  1  6  0  0  0
 65 64  1  0  0  0  0
 67 66  1  0  0  0  0
 67 65  1  0  0  0  0
M  END
>  <MODEL>
6

>  <REMARK>
 VINA RESULT:      -4.4      2.660      5.937
  Name = 
  26 active torsions:
  status: ('A' for Active; 'I' for Inactive)
    1  A    between atoms: C_2  and  C_52
    2  A    between atoms: C_2  and  C_54
    3  A    between atoms: C_6  and  C_54
    4  A    between atoms: C_6  and  O_67
    5  A    between atoms: C_7  and  C_36
    6  A    between atoms: C_7  and  C_63
    7  A    between atoms: N_10  and  C_21
    8  A    between atoms: N_10  and  C_47
    9  A    between atoms: C_14  and  N_33
   10  A    between atoms: C_15  and  O_29
   11  A    between atoms: C_15  and  C_51
   12  A    between atoms: C_19  and  C_30
   13  A    between atoms: C_19  and  C_61
   14  A    between atoms: C_21  and  C_41
   15  A    between atoms: C_22  and  N_33
   16  A    between atoms: C_23  and  C_51
   17  A    between atoms: C_23  and  C_53
   18  A    between atoms: C_26  and  CA_49
   19  A    between atoms: O_29  and  C_66
   20  A    between atoms: C_31  and  C_32
   21  A    between atoms: C_31  and  C_52
   22  A    between atoms: C_31  and  C_60
   23  A    between atoms: C_32  and  C_66
   24  A    between atoms: C_42  and  C_48
   25  A    between atoms: C_51  and  C_63
   26  A    between atoms: C_53  and  C_59
                            x       y       z     vdW  Elec       q    Type
                         _______ _______ _______ _____ _____    ______ ____

>  <TORSDO>
F 26

$$$$
=
 OpenBabel11062422363D

 67 74  0  0  1  0  0  0  0  0999 V2000
  192.2770  173.5140  143.6230 C   0  0  2  0  0  3  0  0  0  0  0  0
  193.7970  173.6950  143.5360 C   0  0  2  0  0  3  0  0  0  0  0  0
  193.1970  172.9510  144.7280 C   0  0  2  0  0  3  0  0  0  0  0  0
  193.6240  176.4170  147.2010 C   0  0  0  0  0  2  0  0  0  0  0  0
  194.6400  175.1180  145.4210 N   0  0  0  0  0  2  0  0  0  0  0  0
  194.3420  175.0870  143.9750 C   0  0  2  0  0  0  0  0  0  0  0  0
  193.3170  177.0990  144.9510 C   0  0  2  0  0  3  0  0  0  0  0  0
  194.3690  176.4890  145.8710 C   0  0  1  0  0  3  0  0  0  0  0  0
  192.8200  176.4700  142.7200 O   0  0  0  0  0  0  0  0  0  0  0  0
  192.1720  176.2280  146.7960 C   0  0  2  0  0  3  0  0  0  0  0  0
  191.9720  176.9650  145.5640 N   0  0  0  0  0  2  0  0  0  0  0  0
  193.4300  176.2380  143.7650 C   0  0  0  0  0  0  0  0  0  0  0  0
  191.2910  176.7760  147.8960 C   0  0  0  0  0  3  0  0  0  0  0  0
  191.8360  177.1720  148.9290 O   0  0  0  0  0  0  0  0  0  0  0  0
  195.5800  175.3180  143.2190 N   0  0  0  0  0  2  0  0  0  0  0  0
  194.5650  175.1790  140.4990 C   0  0  0  0  0  1  0  0  0  0  0  0
  195.7740  174.4260  140.9370 C   0  0  0  0  0  0  0  0  0  0  0  0
  197.0250  173.3830  142.7180 C   0  0  0  0  0  3  0  0  0  0  0  0
  196.3690  173.5840  140.0490 N   0  0  0  0  0  0  0  0  0  0  0  0
  197.3290  172.7100  140.4470 C   0  0  0  0  0  3  0  0  0  0  0  0
  197.6150  172.5330  141.8050 C   0  0  0  0  0  3  0  0  0  0  0  0
  196.1300  174.3800  142.2900 C   0  0  0  0  0  0  0  0  0  0  0  0
  193.6230  171.5080  144.5880 C   0  0  0  0  0  2  0  0  0  0  0  0
  196.6950  170.6160  145.8240 C   0  0  2  0  0  3  0  0  0  0  0  0
  196.4880  169.6470  144.7340 C   0  0  0  0  0  0  0  0  0  0  0  0
  197.1340  168.6240  144.6070 O   0  0  0  0  0  0  0  0  0  0  0  0
  195.1380  171.4820  144.3460 C   0  0  2  0  0  3  0  0  0  0  0  0
  196.4590  170.0230  147.1500 N   0  0  0  0  0  1  0  0  0  0  0  0
  195.6600  170.2170  143.6830 C   0  0  2  0  0  3  0  0  0  0  0  0
  195.8230  171.7040  145.5830 O   0  0  0  0  0  0  0  0  0  0  0  0
  194.2720  169.5250  138.9310 N   0  0  0  0  0  0  0  0  0  0  0  0
  194.0800  168.3520  143.7500 O   0  0  0  0  0  0  0  0  0  0  0  0
  193.8970  168.1840  140.9310 C   0  0  0  0  0  2  0  0  0  0  0  0
  194.4020  170.6370  141.0330 C   0  0  0  0  0  3  0  0  0  0  0  0
  194.3410  170.7350  139.7080 C   0  0  0  0  0  3  0  0  0  0  0  0
  194.6660  169.2450  143.0610 C   0  0  0  0  0  0  0  0  0  0  0  0
  194.3900  169.3490  141.6680 N   0  0  0  0  0  0  0  0  0  0  0  0
  194.0930  168.3540  139.4380 C   0  0  0  0  0  3  0  0  0  0  0  0
  191.6540  172.3630  142.8760 C   0  0  0  0  0  2  0  0  0  0  0  0
  191.4730  172.6210  141.3650 C   0  0  0  0  0  2  0  0  0  0  0  0
  189.9840  172.7500  140.9900 C   0  0  2  0  0  3  0  0  0  0  0  0
  189.8570  172.8040  139.4520 C   0  0  0  0  0  2  0  0  0  0  0  0
  191.0740  172.2060  138.7580 C   0  0  0  0  0  2  0  0  0  0  0  0
  189.6520  170.5730  137.6300 C   0  0  0  0  0  2  0  0  0  0  0  0
  191.0700  170.1560  137.2800 C   0  0  0  0  0  2  0  0  0  0  0  0
  190.7070  171.6390  137.3930 C   0  0  0  0  0  3  0  0  0  0  0  0
  189.3460  174.0220  141.5610 C   0  0  0  0  0  2  0  0  0  0  0  0
  188.0040  174.1930  141.1030 O   0  0  0  0  0  0  0  0  0  0  0  0
  187.6940  176.0090  139.7430 O   0  0  0  0  0  0  0  0  0  0  0  0
  187.5080  175.4730  140.8680 C   0  0  0  0  0  0  0  0  0  0  0  0
  186.6850  176.1430  141.9250 C   0  0  0  0  0  2  0  0  0  0  0  0
  186.5380  177.6450  141.6460 C   0  0  1  0  0  3  0  0  0  0  0  0
  185.1680  178.6160  140.0730 O   0  0  0  0  0  0  0  0  0  0  0  0
  183.9070  177.9330  141.9010 C   0  0  0  0  0  1  0  0  0  0  0  0
  185.2070  178.1240  141.1910 C   0  0  0  0  0  0  0  0  0  0  0  0
  187.3690  178.5640  142.5490 C   0  0  0  0  0  2  0  0  0  0  0  0
  186.9090  178.3310  143.9820 C   0  0  2  0  0  0  0  0  0  0  0  0
  187.7850  177.4290  144.7900 C   0  0  2  0  0  3  0  0  0  0  0  0
  186.5510  176.9960  144.3150 O   0  0  0  0  0  0  0  0  0  0  0  0
  187.7450  177.8450  146.1840 N   0  0  0  0  0  2  0  0  0  0  0  0
  188.5880  175.6100  146.1380 N   0  0  0  0  0  1  0  0  0  0  0  0
  188.0360  176.6630  147.0020 C   0  0  2  0  0  3  0  0  0  0  0  0
  186.7410  176.1000  147.6440 C   0  0  0  0  0  1  0  0  0  0  0  0
  185.9170  179.3830  144.5540 C   0  0  0  0  0  2  0  0  0  0  0  0
  184.4680  178.9070  144.7840 C   0  0  0  0  0  2  0  0  0  0  0  0
  184.0870  177.8530  146.6900 C   0  0  0  0  0  1  0  0  0  0  0  0
  184.1170  179.1330  146.1060 O   0  0  0  0  0  0  0  0  0  0  0  0
  1 39  1  6  0  0  0
  1  3  1  0  0  0  0
  2  1  1  0  0  0  0
  2  6  1  1  0  0  0
  2  3  1  0  0  0  0
  3 23  1  6  0  0  0
  5  8  1  0  0  0  0
  6 15  1  6  0  0  0
  6  5  1  0  0  0  0
  7 12  1  6  0  0  0
  7 11  1  0  0  0  0
  7  8  1  0  0  0  0
  8  4  1  1  0  0  0
  9 12  2  0  0  0  0
 10  4  1  0  0  0  0
 10 13  1  1  0  0  0
 11 10  1  0  0  0  0
 12  6  1  0  0  0  0
 13 14  2  0  0  0  0
 16 17  1  0  0  0  0
 17 22  1  0  0  0  0
 19 20  1  0  0  0  0
 19 17  2  0  0  0  0
 20 21  2  0  0  0  0
 21 18  1  0  0  0  0
 22 18  2  0  0  0  0
 22 15  1  0  0  0  0
 24 28  1  1  0  0  0
 25 24  1  0  0  0  0
 26 25  2  0  0  0  0
 27 23  1  1  0  0  0
 27 30  1  0  0  0  0
 29 36  1  1  0  0  0
 29 27  1  0  0  0  0
 29 25  1  0  0  0  0
 30 24  1  0  0  0  0
 31 38  2  0  0  0  0
 31 35  1  0  0  0  0
 33 37  1  0  0  0  0
 34 37  1  0  0  0  0
 35 34  2  0  0  0  0
 36 32  2  0  0  0  0
 37 36  1  0  0  0  0
 38 33  1  0  0  0  0
 40 39  1  0  0  0  0
 41 42  1  6  0  0  0
 41 40  1  0  0  0  0
 41 47  1  0  0  0  0
 43 42  1  0  0  0  0
 45 46  1  0  0  0  0
 45 44  1  0  0  0  0
 46 44  1  0  0  0  0
 46 43  1  0  0  0  0
 48 47  1  0  0  0  0
 49 50  2  0  0  0  0
 50 48  1  0  0  0  0
 50 51  1  0  0  0  0
 52 51  1  1  0  0  0
 52 56  1  0  0  0  0
 53 55  2  0  0  0  0
 55 52  1  0  0  0  0
 55 54  1  0  0  0  0
 57 56  1  6  0  0  0
 57 59  1  0  0  0  0
 57 64  1  0  0  0  0
 57 58  1  0  0  0  0
 58 60  1  1  0  0  0
 59 58  1  0  0  0  0
 60 62  1  0  0  0  0
 61 62  1  0  0  0  0
 62 63  1  6  0  0  0
 64 65  1  0  0  0  0
 65 67  1  0  0  0  0
 67 66  1  0  0  0  0
M  END
>  <MODEL>
7

>  <REMARK>
 VINA RESULT:      -4.2      2.285      5.826
  Name = 
  26 active torsions:
  status: ('A' for Active; 'I' for Inactive)
    1  A    between atoms: C_2  and  C_52
    2  A    between atoms: C_2  and  C_54
    3  A    between atoms: C_6  and  C_54
    4  A    between atoms: C_6  and  O_67
    5  A    between atoms: C_7  and  C_36
    6  A    between atoms: C_7  and  C_63
    7  A    between atoms: N_10  and  C_21
    8  A    between atoms: N_10  and  C_47
    9  A    between atoms: C_14  and  N_33
   10  A    between atoms: C_15  and  O_29
   11  A    between atoms: C_15  and  C_51
   12  A    between atoms: C_19  and  C_30
   13  A    between atoms: C_19  and  C_61
   14  A    between atoms: C_21  and  C_41
   15  A    between atoms: C_22  and  N_33
   16  A    between atoms: C_23  and  C_51
   17  A    between atoms: C_23  and  C_53
   18  A    between atoms: C_26  and  CA_49
   19  A    between atoms: O_29  and  C_66
   20  A    between atoms: C_31  and  C_32
   21  A    between atoms: C_31  and  C_52
   22  A    between atoms: C_31  and  C_60
   23  A    between atoms: C_32  and  C_66
   24  A    between atoms: C_42  and  C_48
   25  A    between atoms: C_51  and  C_63
   26  A    between atoms: C_53  and  C_59
                            x       y       z     vdW  Elec       q    Type
                         _______ _______ _______ _____ _____    ______ ____

>  <TORSDO>
F 26

$$$$
=
 OpenBabel11062422363D

 67 74  0  0  1  0  0  0  0  0999 V2000
  194.6130  173.4220  139.0460 C   0  0  2  0  0  3  0  0  0  0  0  0
  193.3790  172.5330  139.2400 C   0  0  2  0  0  3  0  0  0  0  0  0
  194.7720  171.9210  139.3740 C   0  0  2  0  0  3  0  0  0  0  0  0
  192.7720  173.9810  134.9500 C   0  0  0  0  0  2  0  0  0  0  0  0
  193.4260  172.4720  136.7340 N   0  0  0  0  0  2  0  0  0  0  0  0
  192.6850  172.0390  137.9350 C   0  0  2  0  0  0  0  0  0  0  0  0
  191.1000  173.0500  136.3490 C   0  0  2  0  0  3  0  0  0  0  0  0
  192.4220  172.6890  135.6840 C   0  0  1  0  0  3  0  0  0  0  0  0
  190.4040  172.5140  138.5520 O   0  0  0  0  0  0  0  0  0  0  0  0
  192.1540  175.0690  135.8110 C   0  0  2  0  0  3  0  0  0  0  0  0
  190.9350  174.5250  136.3770 N   0  0  0  0  0  2  0  0  0  0  0  0
  191.3030  172.5290  137.7090 C   0  0  0  0  0  0  0  0  0  0  0  0
  191.8500  176.2620  134.9340 C   0  0  0  0  0  3  0  0  0  0  0  0
  190.6760  176.6280  134.8440 O   0  0  0  0  0  0  0  0  0  0  0  0
  192.6650  170.5720  137.9920 N   0  0  0  0  0  2  0  0  0  0  0  0
  190.4700  168.9030  137.0700 C   0  0  0  0  0  1  0  0  0  0  0  0
  191.7300  169.0620  136.2920 C   0  0  0  0  0  0  0  0  0  0  0  0
  194.0950  169.5440  136.2650 C   0  0  0  0  0  3  0  0  0  0  0  0
  191.8840  168.3350  135.1520 N   0  0  0  0  0  0  0  0  0  0  0  0
  193.0840  168.2640  134.5210 C   0  0  0  0  0  3  0  0  0  0  0  0
  194.2340  168.7980  135.1120 C   0  0  0  0  0  3  0  0  0  0  0  0
  192.8280  169.7310  136.8470 C   0  0  0  0  0  0  0  0  0  0  0  0
  194.9400  171.5580  140.8310 C   0  0  0  0  0  2  0  0  0  0  0  0
  195.9210  168.4690  141.9520 C   0  0  2  0  0  3  0  0  0  0  0  0
  194.8940  168.8610  142.9310 C   0  0  0  0  0  0  0  0  0  0  0  0
  194.7470  168.3180  144.0110 O   0  0  0  0  0  0  0  0  0  0  0  0
  194.5600  170.0800  140.9970 C   0  0  2  0  0  3  0  0  0  0  0  0
  197.2850  168.6270  142.4810 N   0  0  0  0  0  1  0  0  0  0  0  0
  193.9010  169.7330  142.3230 C   0  0  2  0  0  3  0  0  0  0  0  0
  195.7190  169.2650  140.7990 O   0  0  0  0  0  0  0  0  0  0  0  0
  189.3540  171.7190  142.9280 N   0  0  0  0  0  0  0  0  0  0  0  0
  194.1760  171.4230  144.0690 O   0  0  0  0  0  0  0  0  0  0  0  0
  191.4010  171.9500  144.2320 C   0  0  0  0  0  2  0  0  0  0  0  0
  191.4130  171.2630  141.8220 C   0  0  0  0  0  3  0  0  0  0  0  0
  190.1030  171.4720  141.7240 C   0  0  0  0  0  3  0  0  0  0  0  0
  193.4120  170.8610  143.2230 C   0  0  0  0  0  0  0  0  0  0  0  0
  192.0600  171.2910  143.1040 N   0  0  0  0  0  0  0  0  0  0  0  0
  189.8930  171.9200  144.0810 C   0  0  0  0  0  3  0  0  0  0  0  0
  195.0990  174.2300  140.2210 C   0  0  0  0  0  2  0  0  0  0  0  0
  193.9740  174.9520  140.9940 C   0  0  0  0  0  2  0  0  0  0  0  0
  194.4640  176.2890  141.5830 C   0  0  2  0  0  3  0  0  0  0  0  0
  195.9420  176.1430  142.0020 C   0  0  0  0  0  2  0  0  0  0  0  0
  196.1360  176.3580  143.4970 C   0  0  0  0  0  2  0  0  0  0  0  0
  196.3660  173.9540  143.8500 C   0  0  0  0  0  2  0  0  0  0  0  0
  196.3570  174.5480  145.2470 C   0  0  0  0  0  2  0  0  0  0  0  0
  197.0420  175.2900  144.0960 C   0  0  0  0  0  3  0  0  0  0  0  0
  193.6620  176.7120  142.8190 C   0  0  0  0  0  2  0  0  0  0  0  0
  192.9400  175.6160  143.3830 O   0  0  0  0  0  0  0  0  0  0  0  0
  193.0520  174.7070  145.4820 O   0  0  0  0  0  0  0  0  0  0  0  0
  192.6120  175.6220  144.7360 C   0  0  0  0  0  0  0  0  0  0  0  0
  191.8220  176.7680  145.2900 C   0  0  0  0  0  2  0  0  0  0  0  0
  190.3170  176.4630  145.2800 C   0  0  1  0  0  3  0  0  0  0  0  0
  189.0970  174.5300  145.5380 O   0  0  0  0  0  0  0  0  0  0  0  0
  190.3270  174.9480  147.4650 C   0  0  0  0  0  1  0  0  0  0  0  0
  189.8530  175.3120  146.0960 C   0  0  0  0  0  0  0  0  0  0  0  0
  189.4010  177.6870  145.1650 C   0  0  0  0  0  2  0  0  0  0  0  0
  188.9230  177.7650  143.7220 C   0  0  2  0  0  0  0  0  0  0  0  0
  189.5740  176.8000  142.7860 C   0  0  2  0  0  3  0  0  0  0  0  0
  189.8970  178.1540  142.7600 O   0  0  0  0  0  0  0  0  0  0  0  0
  188.6240  176.4200  141.7500 N   0  0  0  0  0  2  0  0  0  0  0  0
  188.4420  174.5210  140.3120 N   0  0  0  0  0  1  0  0  0  0  0  0
  188.5830  174.9540  141.7100 C   0  0  2  0  0  3  0  0  0  0  0  0
  187.3560  174.4110  142.4870 C   0  0  0  0  0  1  0  0  0  0  0  0
  187.5470  178.4550  143.5010 C   0  0  0  0  0  2  0  0  0  0  0  0
  186.4950  178.2620  144.6120 C   0  0  0  0  0  2  0  0  0  0  0  0
  185.3040  176.7890  145.7530 C   0  0  0  0  0  1  0  0  0  0  0  0
  185.9770  176.9780  144.5320 O   0  0  0  0  0  0  0  0  0  0  0  0
  1  2  1  0  0  0  0
  1  3  1  0  0  0  0
  1 39  1  1  0  0  0
  2  6  1  6  0  0  0
  2  3  1  0  0  0  0
  3 23  1  1  0  0  0
  4 10  1  0  0  0  0
  5  6  1  0  0  0  0
  6 15  1  1  0  0  0
  7 11  1  1  0  0  0
  7 12  1  0  0  0  0
  8  4  1  6  0  0  0
  8  7  1  0  0  0  0
  8  5  1  0  0  0  0
 10 13  1  6  0  0  0
 10 11  1  0  0  0  0
 12  6  1  0  0  0  0
 12  9  2  0  0  0  0
 14 13  2  0  0  0  0
 17 22  1  0  0  0  0
 17 16  1  0  0  0  0
 18 22  2  0  0  0  0
 19 17  2  0  0  0  0
 20 21  2  0  0  0  0
 20 19  1  0  0  0  0
 21 18  1  0  0  0  0
 22 15  1  0  0  0  0
 24 28  1  1  0  0  0
 24 25  1  0  0  0  0
 25 26  2  0  0  0  0
 27 23  1  1  0  0  0
 27 29  1  0  0  0  0
 29 25  1  0  0  0  0
 29 36  1  1  0  0  0
 30 27  1  0  0  0  0
 30 24  1  0  0  0  0
 31 38  2  0  0  0  0
 34 37  1  0  0  0  0
 35 34  2  0  0  0  0
 35 31  1  0  0  0  0
 36 32  2  0  0  0  0
 37 36  1  0  0  0  0
 37 33  1  0  0  0  0
 38 33  1  0  0  0  0
 39 40  1  0  0  0  0
 41 40  1  1  0  0  0
 41 42  1  0  0  0  0
 41 47  1  0  0  0  0
 42 43  1  0  0  0  0
 43 46  1  0  0  0  0
 44 46  1  0  0  0  0
 44 45  1  0  0  0  0
 46 45  1  0  0  0  0
 47 48  1  0  0  0  0
 48 50  1  0  0  0  0
 50 51  1  0  0  0  0
 50 49  2  0  0  0  0
 52 56  1  1  0  0  0
 52 51  1  0  0  0  0
 52 55  1  0  0  0  0
 53 55  2  0  0  0  0
 55 54  1  0  0  0  0
 57 64  1  6  0  0  0
 57 56  1  0  0  0  0
 58 60  1  6  0  0  0
 58 57  1  0  0  0  0
 59 58  1  0  0  0  0
 59 57  1  0  0  0  0
 61 62  1  0  0  0  0
 62 60  1  0  0  0  0
 62 63  1  1  0  0  0
 64 65  1  0  0  0  0
 67 65  1  0  0  0  0
 67 66  1  0  0  0  0
M  END
>  <MODEL>
8

>  <REMARK>
 VINA RESULT:      -3.9      2.536      6.371
  Name = 
  26 active torsions:
  status: ('A' for Active; 'I' for Inactive)
    1  A    between atoms: C_2  and  C_52
    2  A    between atoms: C_2  and  C_54
    3  A    between atoms: C_6  and  C_54
    4  A    between atoms: C_6  and  O_67
    5  A    between atoms: C_7  and  C_36
    6  A    between atoms: C_7  and  C_63
    7  A    between atoms: N_10  and  C_21
    8  A    between atoms: N_10  and  C_47
    9  A    between atoms: C_14  and  N_33
   10  A    between atoms: C_15  and  O_29
   11  A    between atoms: C_15  and  C_51
   12  A    between atoms: C_19  and  C_30
   13  A    between atoms: C_19  and  C_61
   14  A    between atoms: C_21  and  C_41
   15  A    between atoms: C_22  and  N_33
   16  A    between atoms: C_23  and  C_51
   17  A    between atoms: C_23  and  C_53
   18  A    between atoms: C_26  and  CA_49
   19  A    between atoms: O_29  and  C_66
   20  A    between atoms: C_31  and  C_32
   21  A    between atoms: C_31  and  C_52
   22  A    between atoms: C_31  and  C_60
   23  A    between atoms: C_32  and  C_66
   24  A    between atoms: C_42  and  C_48
   25  A    between atoms: C_51  and  C_63
   26  A    between atoms: C_53  and  C_59
                            x       y       z     vdW  Elec       q    Type
                         _______ _______ _______ _____ _____    ______ ____

>  <TORSDO>
F 26

$$$$
=
 OpenBabel11062422363D

 67 74  0  0  1  0  0  0  0  0999 V2000
  191.6120  173.8240  143.1440 C   0  0  2  0  0  3  0  0  0  0  0  0
  193.1420  173.7640  143.0850 C   0  0  2  0  0  3  0  0  0  0  0  0
  192.4070  173.0510  144.2180 C   0  0  2  0  0  3  0  0  0  0  0  0
  193.6390  176.0040  147.0360 C   0  0  0  0  0  2  0  0  0  0  0  0
  194.3210  174.8350  145.0220 N   0  0  0  0  0  2  0  0  0  0  0  0
  193.8930  175.0200  143.6210 C   0  0  2  0  0  0  0  0  0  0  0  0
  193.2170  176.9940  144.9230 C   0  0  2  0  0  3  0  0  0  0  0  0
  194.2630  176.1600  145.6520 C   0  0  1  0  0  3  0  0  0  0  0  0
  192.4460  176.7120  142.6990 O   0  0  0  0  0  0  0  0  0  0  0  0
  192.1440  176.0310  146.7660 C   0  0  2  0  0  3  0  0  0  0  0  0
  191.9260  176.9350  145.6540 N   0  0  0  0  0  2  0  0  0  0  0  0
  193.1150  176.2830  143.6410 C   0  0  0  0  0  0  0  0  0  0  0  0
  191.4400  176.5310  148.0070 C   0  0  0  0  0  3  0  0  0  0  0  0
  190.4410  177.2380  147.8590 O   0  0  0  0  0  0  0  0  0  0  0  0
  195.0760  175.2050  142.7720 N   0  0  0  0  0  2  0  0  0  0  0  0
  197.1280  173.2240  142.2090 C   0  0  0  0  0  1  0  0  0  0  0  0
  196.0680  173.5750  141.2220 C   0  0  0  0  0  0  0  0  0  0  0  0
  194.4840  175.1880  140.3780 C   0  0  0  0  0  3  0  0  0  0  0  0
  196.1170  173.0030  139.9880 N   0  0  0  0  0  0  0  0  0  0  0  0
  195.3210  173.4420  138.9790 C   0  0  0  0  0  3  0  0  0  0  0  0
  194.5500  174.5990  139.1310 C   0  0  0  0  0  3  0  0  0  0  0  0
  195.2060  174.6520  141.4590 C   0  0  0  0  0  0  0  0  0  0  0  0
  192.6010  171.5710  143.9870 C   0  0  0  0  0  2  0  0  0  0  0  0
  195.4900  170.2050  145.2290 C   0  0  2  0  0  3  0  0  0  0  0  0
  195.1480  169.2950  144.1230 C   0  0  0  0  0  0  0  0  0  0  0  0
  195.6330  168.1870  143.9830 O   0  0  0  0  0  0  0  0  0  0  0  0
  194.0960  171.3190  143.7550 C   0  0  2  0  0  3  0  0  0  0  0  0
  195.1550  169.6340  146.5440 N   0  0  0  0  0  1  0  0  0  0  0  0
  194.4270  169.9990  143.0750 C   0  0  2  0  0  3  0  0  0  0  0  0
  194.7950  171.4150  145.0000 O   0  0  0  0  0  0  0  0  0  0  0  0
  193.2300  169.2860  138.2740 N   0  0  0  0  0  0  0  0  0  0  0  0
  192.5110  168.4800  143.1190 O   0  0  0  0  0  0  0  0  0  0  0  0
  192.4750  168.1720  140.3070 C   0  0  0  0  0  2  0  0  0  0  0  0
  193.4430  170.4830  140.3220 C   0  0  0  0  0  3  0  0  0  0  0  0
  193.4860  170.5070  138.9930 C   0  0  0  0  0  3  0  0  0  0  0  0
  193.3020  169.1980  142.4310 C   0  0  0  0  0  0  0  0  0  0  0  0
  193.1390  169.2640  141.0180 N   0  0  0  0  0  0  0  0  0  0  0  0
  192.7930  168.2060  138.8250 C   0  0  0  0  0  3  0  0  0  0  0  0
  190.8290  172.8380  142.3160 C   0  0  0  0  0  2  0  0  0  0  0  0
  190.9750  173.0430  140.7930 C   0  0  0  0  0  2  0  0  0  0  0  0
  189.6250  173.3960  140.1390 C   0  0  2  0  0  3  0  0  0  0  0  0
  189.8340  173.5770  138.6210 C   0  0  0  0  0  2  0  0  0  0  0  0
  190.3970  172.3210  137.9690 C   0  0  0  0  0  2  0  0  0  0  0  0
  189.4920  173.3940  135.9720 C   0  0  0  0  0  2  0  0  0  0  0  0
  189.5120  171.9140  135.6370 C   0  0  0  0  0  2  0  0  0  0  0  0
  190.6330  172.5300  136.4790 C   0  0  0  0  0  3  0  0  0  0  0  0
  189.0310  174.6970  140.6920 C   0  0  0  0  0  2  0  0  0  0  0  0
  187.7120  174.9300  140.1960 O   0  0  0  0  0  0  0  0  0  0  0  0
  187.0330  176.9220  139.2930 O   0  0  0  0  0  0  0  0  0  0  0  0
  187.1390  176.1930  140.3160 C   0  0  0  0  0  0  0  0  0  0  0  0
  186.5760  176.6180  141.6370 C   0  0  0  0  0  2  0  0  0  0  0  0
  186.1960  178.1060  141.6270 C   0  0  1  0  0  3  0  0  0  0  0  0
  184.4370  178.9000  140.3750 O   0  0  0  0  0  0  0  0  0  0  0  0
  183.6600  178.1310  142.4260 C   0  0  0  0  0  1  0  0  0  0  0  0
  184.7580  178.4380  141.4610 C   0  0  0  0  0  0  0  0  0  0  0  0
  187.0480  179.0060  142.5310 C   0  0  0  0  0  2  0  0  0  0  0  0
  186.9990  178.4180  143.9350 C   0  0  2  0  0  0  0  0  0  0  0  0
  185.6430  177.9960  144.3990 C   0  0  2  0  0  3  0  0  0  0  0  0
  186.2440  179.1500  144.8930 O   0  0  0  0  0  0  0  0  0  0  0  0
  185.7760  176.8550  145.2930 N   0  0  0  0  0  2  0  0  0  0  0  0
  184.0410  178.2640  146.1400 N   0  0  0  0  0  1  0  0  0  0  0  0
  184.8440  177.0620  146.4080 C   0  0  2  0  0  3  0  0  0  0  0  0
  185.6100  177.3050  147.7340 C   0  0  0  0  0  1  0  0  0  0  0  0
  188.3530  177.9010  144.5000 C   0  0  0  0  0  2  0  0  0  0  0  0
  188.9710  176.6780  143.7920 C   0  0  0  0  0  2  0  0  0  0  0  0
  189.1720  174.8320  144.9920 C   0  0  0  0  0  1  0  0  0  0  0  0
  188.2780  175.5360  144.1660 O   0  0  0  0  0  0  0  0  0  0  0  0
  1 39  1  6  0  0  0
  1  3  1  0  0  0  0
  2  1  1  0  0  0  0
  2  6  1  1  0  0  0
  2  3  1  0  0  0  0
  3 23  1  6  0  0  0
  5  8  1  0  0  0  0
  6 15  1  6  0  0  0
  6 12  1  0  0  0  0
  6  5  1  0  0  0  0
  7 12  1  6  0  0  0
  7  8  1  0  0  0  0
  7 11  1  0  0  0  0
  8  4  1  1  0  0  0
  9 12  2  0  0  0  0
 10  4  1  0  0  0  0
 10 13  1  1  0  0  0
 11 10  1  0  0  0  0
 14 13  2  0  0  0  0
 17 22  1  0  0  0  0
 17 16  1  0  0  0  0
 18 22  2  0  0  0  0
 19 17  2  0  0  0  0
 20 21  2  0  0  0  0
 20 19  1  0  0  0  0
 21 18  1  0  0  0  0
 22 15  1  0  0  0  0
 24 28  1  1  0  0  0
 25 24  1  0  0  0  0
 26 25  2  0  0  0  0
 27 23  1  1  0  0  0
 27 30  1  0  0  0  0
 29 36  1  1  0  0  0
 29 27  1  0  0  0  0
 29 25  1  0  0  0  0
 30 24  1  0  0  0  0
 31 38  2  0  0  0  0
 31 35  1  0  0  0  0
 33 37  1  0  0  0  0
 34 37  1  0  0  0  0
 35 34  2  0  0  0  0
 36 32  2  0  0  0  0
 37 36  1  0  0  0  0
 38 33  1  0  0  0  0
 40 39  1  0  0  0  0
 41 42  1  6  0  0  0
 41 47  1  0  0  0  0
 41 40  1  0  0  0  0
 43 42  1  0  0  0  0
 44 46  1  0  0  0  0
 45 44  1  0  0  0  0
 45 46  1  0  0  0  0
 46 43  1  0  0  0  0
 48 50  1  0  0  0  0
 48 47  1  0  0  0  0
 49 50  2  0  0  0  0
 50 51  1  0  0  0  0
 52 51  1  1  0  0  0
 52 56  1  0  0  0  0
 53 55  2  0  0  0  0
 55 52  1  0  0  0  0
 55 54  1  0  0  0  0
 57 56  1  6  0  0  0
 57 58  1  0  0  0  0
 57 64  1  0  0  0  0
 57 59  1  0  0  0  0
 58 59  1  0  0  0  0
 58 60  1  1  0  0  0
 60 62  1  0  0  0  0
 61 62  1  0  0  0  0
 62 63  1  1  0  0  0
 65 67  1  0  0  0  0
 65 64  1  0  0  0  0
 67 66  1  0  0  0  0
M  END
>  <MODEL>
9

>  <REMARK>
 VINA RESULT:      -3.9      2.367      5.948
  Name = 
  26 active torsions:
  status: ('A' for Active; 'I' for Inactive)
    1  A    between atoms: C_2  and  C_52
    2  A    between atoms: C_2  and  C_54
    3  A    between atoms: C_6  and  C_54
    4  A    between atoms: C_6  and  O_67
    5  A    between atoms: C_7  and  C_36
    6  A    between atoms: C_7  and  C_63
    7  A    between atoms: N_10  and  C_21
    8  A    between atoms: N_10  and  C_47
    9  A    between atoms: C_14  and  N_33
   10  A    between atoms: C_15  and  O_29
   11  A    between atoms: C_15  and  C_51
   12  A    between atoms: C_19  and  C_30
   13  A    between atoms: C_19  and  C_61
   14  A    between atoms: C_21  and  C_41
   15  A    between atoms: C_22  and  N_33
   16  A    between atoms: C_23  and  C_51
   17  A    between atoms: C_23  and  C_53
   18  A    between atoms: C_26  and  CA_49
   19  A    between atoms: O_29  and  C_66
   20  A    between atoms: C_31  and  C_32
   21  A    between atoms: C_31  and  C_52
   22  A    between atoms: C_31  and  C_60
   23  A    between atoms: C_32  and  C_66
   24  A    between atoms: C_42  and  C_48
   25  A    between atoms: C_51  and  C_63
   26  A    between atoms: C_53  and  C_59
                            x       y       z     vdW  Elec       q    Type
                         _______ _______ _______ _____ _____    ______ ____

>  <TORSDO>
F 26

$$$$
