=
 OpenBabel11072408503D

 26 30  0  0  1  0  0  0  0  0999 V2000
  187.1720  178.0040  142.2040 C   0  0  0  0  0  3  0  0  0  0  0  0
  185.6290  176.9360  146.2840 C   0  0  0  0  0  2  0  0  0  0  0  0
  184.3460  178.1320  142.0420 C   0  0  0  0  0  0  0  0  0  0  0  0
  185.0200  178.1890  143.2630 C   0  0  0  0  0  0  0  0  0  0  0  0
  185.1260  178.0220  140.8710 C   0  0  0  0  0  3  0  0  0  0  0  0
  185.5870  178.2200  145.4950 C   0  0  1  0  0  3  0  0  0  0  0  0
  186.7900  178.1470  144.6970 N   0  0  0  0  0  0  0  0  0  0  0  0
  184.4520  178.2170  144.5590 N   0  0  0  0  0  2  0  0  0  0  0  0
  186.3750  178.1400  143.3410 C   0  0  0  0  0  0  0  0  0  0  0  0
  186.9360  176.3990  146.2160 O   0  0  0  0  0  0  0  0  0  0  0  0
  187.6520  177.1090  145.2220 C   0  0  2  0  0  3  0  0  0  0  0  0
  186.5320  177.9560  140.9550 C   0  0  0  0  0  3  0  0  0  0  0  0
  192.2740  175.9850  145.5480 C   0  0  0  0  0  2  0  0  0  0  0  0
  190.1610  177.3130  145.0910 C   0  0  0  0  0  0  0  0  0  0  0  0
  191.7230  175.8810  142.5670 C   0  0  0  0  0  2  0  0  0  0  0  0
  190.9430  176.5840  145.8910 C   0  0  0  0  0  0  0  0  0  0  0  0
  189.1710  177.0920  147.1770 C   0  0  0  0  0  3  0  0  0  0  0  0
  188.9210  177.7110  145.8360 C   0  0  2  0  0  3  0  0  0  0  0  0
  192.1400  174.7530  144.6460 C   0  0  0  0  0  2  0  0  0  0  0  0
  190.3240  176.4420  147.1940 C   0  0  0  0  0  3  0  0  0  0  0  0
  191.1770  174.9640  143.5660 N   0  0  0  0  0  0  0  0  0  0  0  0
  191.0090  173.6820  142.9050 C   0  0  0  0  0  1  0  0  0  0  0  0
  190.4490  177.7920  143.6820 C   0  0  0  0  0  2  0  0  0  0  0  0
  191.7720  177.3270  143.0730 C   0  0  0  0  0  2  0  0  0  0  0  0
  182.2160  178.1930  140.7920 C   0  0  0  0  0  1  0  0  0  0  0  0
  182.9500  178.1780  142.0080 O   0  0  0  0  0  0  0  0  0  0  0  0
  1  9  1  0  0  0  0
  3  4  1  0  0  0  0
  4  9  2  0  0  0  0
  4  8  1  0  0  0  0
  5 12  1  0  0  0  0
  5  3  2  0  0  0  0
  6  2  1  1  0  0  0
  7 11  1  0  0  0  0
  7  6  1  0  0  0  0
  8  6  1  0  0  0  0
  9  7  1  0  0  0  0
 10  2  1  0  0  0  0
 11 18  1  0  0  0  0
 11 10  1  1  0  0  0
 12  1  2  0  0  0  0
 13 16  1  0  0  0  0
 14 18  1  0  0  0  0
 14 16  2  0  0  0  0
 15 24  1  0  0  0  0
 15 21  1  0  0  0  0
 16 20  1  0  0  0  0
 17 20  2  0  0  0  0
 18 17  1  1  0  0  0
 19 13  1  0  0  0  0
 21 19  1  0  0  0  0
 22 21  1  0  0  0  0
 23 14  1  0  0  0  0
 24 23  1  0  0  0  0
 25 26  1  0  0  0  0
 26  3  1  0  0  0  0
M  END
>  <MODEL>
1

>  <REMARK>
 VINA RESULT:      -8.2      0.000      0.000
  Name = 
  2 active torsions:
  status: ('A' for Active; 'I' for Inactive)
    1  A    between atoms: C_7  and  O_16
    2  A    between atoms: C_12  and  C_24
                            x       y       z     vdW  Elec       q    Type
                         _______ _______ _______ _____ _____    ______ ____

>  <TORSDO>
F 2

$$$$
=
 OpenBabel11072408503D

 26 30  0  0  1  0  0  0  0  0999 V2000
  186.1780  177.5030  147.2160 C   0  0  0  0  0  3  0  0  0  0  0  0
  189.5690  177.7460  144.2820 C   0  0  0  0  0  2  0  0  0  0  0  0
  185.0950  178.6060  144.8410 C   0  0  0  0  0  0  0  0  0  0  0  0
  186.2930  177.8900  144.8440 C   0  0  0  0  0  0  0  0  0  0  0  0
  184.4190  178.7530  146.0720 C   0  0  0  0  0  3  0  0  0  0  0  0
  188.3090  176.9190  144.2990 C   0  0  1  0  0  3  0  0  0  0  0  0
  188.0590  176.7420  145.7120 N   0  0  0  0  0  0  0  0  0  0  0  0
  187.1760  177.6850  143.7570 N   0  0  0  0  0  2  0  0  0  0  0  0
  186.8070  177.3510  145.9800 C   0  0  0  0  0  0  0  0  0  0  0  0
  190.1720  177.6910  145.5600 O   0  0  0  0  0  0  0  0  0  0  0  0
  189.2450  177.1080  146.4580 C   0  0  2  0  0  3  0  0  0  0  0  0
  184.9620  178.2060  147.2520 C   0  0  0  0  0  3  0  0  0  0  0  0
  192.4990  173.8040  145.3520 C   0  0  0  0  0  2  0  0  0  0  0  0
  191.2700  175.6170  146.6320 C   0  0  0  0  0  0  0  0  0  0  0  0
  193.9650  176.4220  144.9120 C   0  0  0  0  0  2  0  0  0  0  0  0
  191.3060  174.4440  145.9930 C   0  0  0  0  0  0  0  0  0  0  0  0
  189.1660  174.6410  146.6550 C   0  0  0  0  0  3  0  0  0  0  0  0
  189.8760  175.8760  147.1190 C   0  0  2  0  0  3  0  0  0  0  0  0
  192.8750  174.4740  144.0260 C   0  0  0  0  0  2  0  0  0  0  0  0
  189.9910  173.8340  146.0040 C   0  0  0  0  0  3  0  0  0  0  0  0
  192.8390  175.9330  144.1180 N   0  0  0  0  0  0  0  0  0  0  0  0
  193.0320  176.4380  142.7710 C   0  0  0  0  0  1  0  0  0  0  0  0
  192.4250  176.5480  146.9460 C   0  0  0  0  0  2  0  0  0  0  0  0
  193.7920  176.1260  146.4060 C   0  0  0  0  0  2  0  0  0  0  0  0
  183.8360  178.3940  142.7260 C   0  0  0  0  0  1  0  0  0  0  0  0
  184.6060  179.1500  143.6500 O   0  0  0  0  0  0  0  0  0  0  0  0
  1 12  1  0  0  0  0
  2 10  1  0  0  0  0
  3  4  2  0  0  0  0
  3  5  1  0  0  0  0
  4  9  1  0  0  0  0
  5 12  2  0  0  0  0
  6  2  1  1  0  0  0
  6  7  1  0  0  0  0
  7  9  1  0  0  0  0
  7 11  1  0  0  0  0
  8  6  1  0  0  0  0
  8  4  1  0  0  0  0
  9  1  2  0  0  0  0
 11 10  1  6  0  0  0
 11 18  1  0  0  0  0
 13 16  1  0  0  0  0
 14 23  1  0  0  0  0
 14 18  1  0  0  0  0
 15 24  1  0  0  0  0
 16 20  1  0  0  0  0
 16 14  2  0  0  0  0
 18 17  1  6  0  0  0
 19 21  1  0  0  0  0
 19 13  1  0  0  0  0
 20 17  2  0  0  0  0
 21 15  1  0  0  0  0
 22 21  1  0  0  0  0
 24 23  1  0  0  0  0
 25 26  1  0  0  0  0
 26  3  1  0  0  0  0
M  END
>  <MODEL>
2

>  <REMARK>
 VINA RESULT:      -8.0      1.852      3.324
  Name = 
  2 active torsions:
  status: ('A' for Active; 'I' for Inactive)
    1  A    between atoms: C_7  and  O_16
    2  A    between atoms: C_12  and  C_24
                            x       y       z     vdW  Elec       q    Type
                         _______ _______ _______ _____ _____    ______ ____

>  <TORSDO>
F 2

$$$$
=
 OpenBabel11072408503D

 26 30  0  0  1  0  0  0  0  0999 V2000
  188.1640  177.6220  142.4300 C   0  0  0  0  0  3  0  0  0  0  0  0
  186.5790  176.7930  146.5490 C   0  0  0  0  0  2  0  0  0  0  0  0
  185.3470  177.8830  142.2630 C   0  0  0  0  0  0  0  0  0  0  0  0
  186.0260  177.9550  143.4810 C   0  0  0  0  0  0  0  0  0  0  0  0
  186.1190  177.6890  141.0970 C   0  0  0  0  0  3  0  0  0  0  0  0
  186.5980  178.0460  145.7100 C   0  0  1  0  0  3  0  0  0  0  0  0
  187.7940  177.8820  144.9150 N   0  0  0  0  0  0  0  0  0  0  0  0
  185.4620  178.0620  144.7750 N   0  0  0  0  0  2  0  0  0  0  0  0
  187.3770  177.8420  143.5600 C   0  0  0  0  0  0  0  0  0  0  0  0
  187.8570  176.1900  146.5020 O   0  0  0  0  0  0  0  0  0  0  0  0
  188.6050  176.8240  145.4810 C   0  0  2  0  0  3  0  0  0  0  0  0
  187.5200  177.5570  141.1830 C   0  0  0  0  0  3  0  0  0  0  0  0
  193.0930  175.3560  146.1370 C   0  0  0  0  0  2  0  0  0  0  0  0
  191.1250  176.7940  145.4330 C   0  0  0  0  0  0  0  0  0  0  0  0
  192.6300  174.9280  143.1710 C   0  0  0  0  0  2  0  0  0  0  0  0
  191.8120  176.1050  146.3480 C   0  0  0  0  0  0  0  0  0  0  0  0
  190.0540  176.9210  147.4860 C   0  0  0  0  0  3  0  0  0  0  0  0
  189.9040  177.3870  146.0700 C   0  0  2  0  0  3  0  0  0  0  0  0
  192.8760  174.0370  145.3870 C   0  0  0  0  0  2  0  0  0  0  0  0
  191.1420  176.1810  147.6310 C   0  0  0  0  0  3  0  0  0  0  0  0
  191.9710  174.1930  144.2490 N   0  0  0  0  0  0  0  0  0  0  0  0
  191.7090  172.8590  143.7420 C   0  0  0  0  0  1  0  0  0  0  0  0
  191.5000  177.0660  143.9890 C   0  0  0  0  0  2  0  0  0  0  0  0
  192.7930  176.4160  143.4980 C   0  0  0  0  0  2  0  0  0  0  0  0
  183.2430  178.2910  141.0340 C   0  0  0  0  0  1  0  0  0  0  0  0
  183.9550  177.9970  142.2280 O   0  0  0  0  0  0  0  0  0  0  0  0
  1  9  1  0  0  0  0
  3  4  1  0  0  0  0
  4  9  2  0  0  0  0
  4  8  1  0  0  0  0
  5 12  1  0  0  0  0
  5  3  2  0  0  0  0
  6  2  1  1  0  0  0
  7 11  1  0  0  0  0
  7  6  1  0  0  0  0
  8  6  1  0  0  0  0
  9  7  1  0  0  0  0
 10  2  1  0  0  0  0
 11 18  1  0  0  0  0
 11 10  1  1  0  0  0
 12  1  2  0  0  0  0
 13 16  1  0  0  0  0
 14 18  1  0  0  0  0
 14 16  2  0  0  0  0
 15 24  1  0  0  0  0
 15 21  1  0  0  0  0
 16 20  1  0  0  0  0
 17 20  2  0  0  0  0
 18 17  1  1  0  0  0
 19 13  1  0  0  0  0
 21 19  1  0  0  0  0
 22 21  1  0  0  0  0
 23 14  1  0  0  0  0
 24 23  1  0  0  0  0
 25 26  1  0  0  0  0
 26  3  1  0  0  0  0
M  END
>  <MODEL>
3

>  <REMARK>
 VINA RESULT:      -7.8      1.052      1.133
  Name = 
  2 active torsions:
  status: ('A' for Active; 'I' for Inactive)
    1  A    between atoms: C_7  and  O_16
    2  A    between atoms: C_12  and  C_24
                            x       y       z     vdW  Elec       q    Type
                         _______ _______ _______ _____ _____    ______ ____

>  <TORSDO>
F 2

$$$$
=
 OpenBabel11072408503D

 26 30  0  0  1  0  0  0  0  0999 V2000
  186.6690  178.0160  145.7780 C   0  0  0  0  0  3  0  0  0  0  0  0
  190.3530  177.4330  143.2770 C   0  0  0  0  0  2  0  0  0  0  0  0
  185.9410  178.6900  143.1240 C   0  0  0  0  0  0  0  0  0  0  0  0
  187.0630  177.9100  143.4070 C   0  0  0  0  0  0  0  0  0  0  0  0
  185.1580  179.1270  144.2140 C   0  0  0  0  0  3  0  0  0  0  0  0
  189.0280  176.7140  143.3020 C   0  0  1  0  0  3  0  0  0  0  0  0
  188.6190  176.8420  144.6830 N   0  0  0  0  0  0  0  0  0  0  0  0
  188.0310  177.4310  142.4920 N   0  0  0  0  0  2  0  0  0  0  0  0
  187.4060  177.5760  144.6780 C   0  0  0  0  0  0  0  0  0  0  0  0
  190.8130  177.5940  144.6050 O   0  0  0  0  0  0  0  0  0  0  0  0
  189.7490  177.2680  145.4810 C   0  0  2  0  0  3  0  0  0  0  0  0
  185.5240  178.7930  145.5340 C   0  0  0  0  0  3  0  0  0  0  0  0
  193.0570  173.8350  145.5800 C   0  0  0  0  0  2  0  0  0  0  0  0
  191.6500  175.8230  146.2900 C   0  0  0  0  0  0  0  0  0  0  0  0
  194.6610  176.3560  145.0590 C   0  0  0  0  0  2  0  0  0  0  0  0
  191.7780  174.5660  145.8580 C   0  0  0  0  0  0  0  0  0  0  0  0
  189.5560  174.8610  146.0280 C   0  0  0  0  0  3  0  0  0  0  0  0
  190.1950  176.1540  146.4360 C   0  0  2  0  0  3  0  0  0  0  0  0
  193.7140  174.2930  144.2730 C   0  0  0  0  0  2  0  0  0  0  0  0
  190.4700  173.9640  145.6900 C   0  0  0  0  0  3  0  0  0  0  0  0
  193.7060  175.7490  144.1340 N   0  0  0  0  0  0  0  0  0  0  0  0
  194.1840  176.0400  142.7940 C   0  0  0  0  0  1  0  0  0  0  0  0
  192.7460  176.7930  146.6900 C   0  0  0  0  0  2  0  0  0  0  0  0
  194.1800  176.2940  146.5130 C   0  0  0  0  0  2  0  0  0  0  0  0
  184.6720  178.2910  141.0420 C   0  0  0  0  0  1  0  0  0  0  0  0
  185.6280  179.0170  141.8010 O   0  0  0  0  0  0  0  0  0  0  0  0
  2 10  1  0  0  0  0
  3  4  2  0  0  0  0
  3  5  1  0  0  0  0
  4  9  1  0  0  0  0
  5 12  2  0  0  0  0
  6  2  1  1  0  0  0
  6  7  1  0  0  0  0
  7 11  1  0  0  0  0
  8  6  1  0  0  0  0
  8  4  1  0  0  0  0
  9  7  1  0  0  0  0
  9  1  2  0  0  0  0
 11 10  1  6  0  0  0
 11 18  1  0  0  0  0
 12  1  1  0  0  0  0
 13 16  1  0  0  0  0
 14 18  1  0  0  0  0
 14 23  1  0  0  0  0
 15 24  1  0  0  0  0
 16 14  2  0  0  0  0
 18 17  1  6  0  0  0
 19 13  1  0  0  0  0
 20 16  1  0  0  0  0
 20 17  2  0  0  0  0
 21 19  1  0  0  0  0
 21 15  1  0  0  0  0
 22 21  1  0  0  0  0
 24 23  1  0  0  0  0
 25 26  1  0  0  0  0
 26  3  1  0  0  0  0
M  END
>  <MODEL>
4

>  <REMARK>
 VINA RESULT:      -7.4      1.943      3.284
  Name = 
  2 active torsions:
  status: ('A' for Active; 'I' for Inactive)
    1  A    between atoms: C_7  and  O_16
    2  A    between atoms: C_12  and  C_24
                            x       y       z     vdW  Elec       q    Type
                         _______ _______ _______ _____ _____    ______ ____

>  <TORSDO>
F 2

$$$$
=
 OpenBabel11072408503D

 26 30  0  0  1  0  0  0  0  0999 V2000
  188.0750  175.7590  142.0340 C   0  0  0  0  0  3  0  0  0  0  0  0
  184.4480  178.3370  142.6440 C   0  0  0  0  0  2  0  0  0  0  0  0
  187.0440  176.3020  139.4510 C   0  0  0  0  0  0  0  0  0  0  0  0
  186.7200  177.0890  140.5570 C   0  0  0  0  0  0  0  0  0  0  0  0
  187.9270  175.2210  139.6560 C   0  0  0  0  0  3  0  0  0  0  0  0
  185.7870  178.6150  142.0080 C   0  0  1  0  0  3  0  0  0  0  0  0
  186.6770  177.7410  142.7390 N   0  0  0  0  0  0  0  0  0  0  0  0
  185.8010  178.1650  140.6080 N   0  0  0  0  0  2  0  0  0  0  0  0
  187.2220  176.8370  141.7930 C   0  0  0  0  0  0  0  0  0  0  0  0
  184.6540  177.6670  143.8730 O   0  0  0  0  0  0  0  0  0  0  0  0
  186.0100  177.2660  143.9330 C   0  0  2  0  0  3  0  0  0  0  0  0
  188.4360  174.9510  140.9430 C   0  0  0  0  0  3  0  0  0  0  0  0
  189.2340  175.9040  147.1700 C   0  0  0  0  0  2  0  0  0  0  0  0
  188.0410  177.3060  145.4240 C   0  0  0  0  0  0  0  0  0  0  0  0
  190.6810  175.5460  144.5300 C   0  0  0  0  0  2  0  0  0  0  0  0
  188.0590  176.6110  146.5650 C   0  0  0  0  0  0  0  0  0  0  0  0
  185.9410  177.3460  146.4060 C   0  0  0  0  0  3  0  0  0  0  0  0
  186.6630  177.8470  145.1920 C   0  0  2  0  0  3  0  0  0  0  0  0
  189.5680  174.6010  146.4360 C   0  0  0  0  0  2  0  0  0  0  0  0
  186.7460  176.6330  147.1780 C   0  0  0  0  0  3  0  0  0  0  0  0
  189.5320  174.7640  144.9830 N   0  0  0  0  0  0  0  0  0  0  0  0
  189.6830  173.4370  144.4130 C   0  0  0  0  0  1  0  0  0  0  0  0
  189.2040  177.6290  144.5060 C   0  0  0  0  0  2  0  0  0  0  0  0
  190.5550  177.0280  144.8970 C   0  0  0  0  0  2  0  0  0  0  0  0
  186.8350  175.8600  137.0290 C   0  0  0  0  0  1  0  0  0  0  0  0
  186.4980  176.5930  138.1980 O   0  0  0  0  0  0  0  0  0  0  0  0
  2 10  1  0  0  0  0
  3  5  2  0  0  0  0
  3  4  1  0  0  0  0
  4  8  1  0  0  0  0
  4  9  2  0  0  0  0
  5 12  1  0  0  0  0
  6  2  1  1  0  0  0
  6  7  1  0  0  0  0
  7 11  1  0  0  0  0
  8  6  1  0  0  0  0
  9  1  1  0  0  0  0
  9  7  1  0  0  0  0
 11 10  1  6  0  0  0
 11 18  1  0  0  0  0
 12  1  2  0  0  0  0
 14 16  2  0  0  0  0
 15 24  1  0  0  0  0
 15 21  1  0  0  0  0
 16 13  1  0  0  0  0
 16 20  1  0  0  0  0
 17 20  2  0  0  0  0
 18 14  1  0  0  0  0
 18 17  1  1  0  0  0
 19 13  1  0  0  0  0
 21 19  1  0  0  0  0
 22 21  1  0  0  0  0
 23 24  1  0  0  0  0
 23 14  1  0  0  0  0
 25 26  1  0  0  0  0
 26  3  1  0  0  0  0
M  END
>  <MODEL>
5

>  <REMARK>
 VINA RESULT:      -7.4      2.347      3.354
  Name = 
  2 active torsions:
  status: ('A' for Active; 'I' for Inactive)
    1  A    between atoms: C_7  and  O_16
    2  A    between atoms: C_12  and  C_24
                            x       y       z     vdW  Elec       q    Type
                         _______ _______ _______ _____ _____    ______ ____

>  <TORSDO>
F 2

$$$$
=
 OpenBabel11072408503D

 26 30  0  0  1  0  0  0  0  0999 V2000
  186.6490  177.6320  146.6920 C   0  0  0  0  0  3  0  0  0  0  0  0
  189.6000  177.9600  143.3220 C   0  0  0  0  0  2  0  0  0  0  0  0
  185.2040  178.6200  144.4640 C   0  0  0  0  0  0  0  0  0  0  0  0
  186.4260  177.9630  144.3190 C   0  0  0  0  0  0  0  0  0  0  0  0
  184.6920  178.7670  145.7720 C   0  0  0  0  0  3  0  0  0  0  0  0
  188.3970  177.0740  143.5250 C   0  0  1  0  0  3  0  0  0  0  0  0
  188.3480  176.9230  144.9620 N   0  0  0  0  0  0  0  0  0  0  0  0
  187.1650  177.7720  143.1270 N   0  0  0  0  0  2  0  0  0  0  0  0
  187.1140  177.4780  145.3850 C   0  0  0  0  0  0  0  0  0  0  0  0
  190.3710  177.9660  144.5080 O   0  0  0  0  0  0  0  0  0  0  0  0
  189.6030  177.3630  145.5340 C   0  0  2  0  0  3  0  0  0  0  0  0
  185.4160  178.2770  146.8780 C   0  0  0  0  0  3  0  0  0  0  0  0
  190.1470  172.7120  144.6380 C   0  0  0  0  0  2  0  0  0  0  0  0
  190.7130  175.1420  145.0980 C   0  0  0  0  0  0  0  0  0  0  0  0
  190.8400  174.0320  141.9970 C   0  0  0  0  0  2  0  0  0  0  0  0
  190.0880  174.0010  145.4000 C   0  0  0  0  0  0  0  0  0  0  0  0
  189.4840  175.4070  147.0470 C   0  0  0  0  0  3  0  0  0  0  0  0
  190.3790  176.1800  146.1270 C   0  0  2  0  0  3  0  0  0  0  0  0
  189.3160  172.7610  143.3510 C   0  0  0  0  0  2  0  0  0  0  0  0
  189.3160  174.1660  146.6170 C   0  0  0  0  0  3  0  0  0  0  0  0
  189.5150  174.0100  142.6150 N   0  0  0  0  0  0  0  0  0  0  0  0
  188.5510  174.0090  141.5300 C   0  0  0  0  0  1  0  0  0  0  0  0
  191.6970  175.4010  143.9740 C   0  0  0  0  0  2  0  0  0  0  0  0
  191.9570  174.2300  143.0270 C   0  0  0  0  0  2  0  0  0  0  0  0
  183.6990  178.2910  142.5320 C   0  0  0  0  0  1  0  0  0  0  0  0
  184.5320  179.1100  143.3400 O   0  0  0  0  0  0  0  0  0  0  0  0
  1 12  1  0  0  0  0
  2 10  1  0  0  0  0
  3  5  1  0  0  0  0
  4  3  2  0  0  0  0
  4  9  1  0  0  0  0
  5 12  2  0  0  0  0
  6  2  1  1  0  0  0
  6  7  1  0  0  0  0
  7  9  1  0  0  0  0
  7 11  1  0  0  0  0
  8  6  1  0  0  0  0
  8  4  1  0  0  0  0
  9  1  2  0  0  0  0
 11 10  1  6  0  0  0
 11 18  1  0  0  0  0
 13 16  1  0  0  0  0
 14 16  2  0  0  0  0
 14 18  1  0  0  0  0
 15 21  1  0  0  0  0
 15 24  1  0  0  0  0
 16 20  1  0  0  0  0
 18 17  1  1  0  0  0
 19 13  1  0  0  0  0
 20 17  2  0  0  0  0
 21 19  1  0  0  0  0
 22 21  1  0  0  0  0
 23 14  1  0  0  0  0
 24 23  1  0  0  0  0
 25 26  1  0  0  0  0
 26  3  1  0  0  0  0
M  END
>  <MODEL>
6

>  <REMARK>
 VINA RESULT:      -7.2      1.855      3.230
  Name = 
  2 active torsions:
  status: ('A' for Active; 'I' for Inactive)
    1  A    between atoms: C_7  and  O_16
    2  A    between atoms: C_12  and  C_24
                            x       y       z     vdW  Elec       q    Type
                         _______ _______ _______ _____ _____    ______ ____

>  <TORSDO>
F 2

$$$$
=
 OpenBabel11072408503D

 26 30  0  0  1  0  0  0  0  0999 V2000
  187.7790  176.6590  146.8940 C   0  0  0  0  0  3  0  0  0  0  0  0
  190.9390  177.2340  143.7550 C   0  0  0  0  0  2  0  0  0  0  0  0
  186.5920  178.2220  144.8500 C   0  0  0  0  0  0  0  0  0  0  0  0
  187.7350  177.4530  144.6240 C   0  0  0  0  0  0  0  0  0  0  0  0
  186.0270  178.1850  146.1430 C   0  0  0  0  0  3  0  0  0  0  0  0
  189.6300  176.4860  143.7420 C   0  0  1  0  0  3  0  0  0  0  0  0
  189.4800  176.0750  145.1210 N   0  0  0  0  0  0  0  0  0  0  0  0
  188.5140  177.3970  143.4430 N   0  0  0  0  0  2  0  0  0  0  0  0
  188.2970  176.6950  145.6000 C   0  0  0  0  0  0  0  0  0  0  0  0
  191.6350  176.9200  144.9470 O   0  0  0  0  0  0  0  0  0  0  0  0
  190.7430  176.2380  145.8090 C   0  0  2  0  0  3  0  0  0  0  0  0
  186.6210  177.4090  147.1590 C   0  0  0  0  0  3  0  0  0  0  0  0
  194.0510  173.2500  144.1190 C   0  0  0  0  0  2  0  0  0  0  0  0
  192.7550  174.7220  145.7280 C   0  0  0  0  0  0  0  0  0  0  0  0
  195.5390  175.8780  144.3940 C   0  0  0  0  0  2  0  0  0  0  0  0
  192.8250  173.7350  144.8310 C   0  0  0  0  0  0  0  0  0  0  0  0
  190.6530  173.7960  145.4080 C   0  0  0  0  0  3  0  0  0  0  0  0
  191.3370  174.8760  146.1900 C   0  0  2  0  0  3  0  0  0  0  0  0
  194.4970  174.2110  143.0130 C   0  0  0  0  0  2  0  0  0  0  0  0
  191.5110  173.1570  144.6280 C   0  0  0  0  0  3  0  0  0  0  0  0
  194.4570  175.6070  143.4480 N   0  0  0  0  0  0  0  0  0  0  0  0
  194.7230  176.4160  142.2720 C   0  0  0  0  0  1  0  0  0  0  0  0
  193.8920  175.5360  146.3150 C   0  0  0  0  0  2  0  0  0  0  0  0
  195.2860  175.2370  145.7630 C   0  0  0  0  0  2  0  0  0  0  0  0
  185.2840  180.1650  144.0640 C   0  0  0  0  0  1  0  0  0  0  0  0
  186.0500  178.9950  143.8190 O   0  0  0  0  0  0  0  0  0  0  0  0
  1 12  1  0  0  0  0
  2 10  1  0  0  0  0
  3  5  1  0  0  0  0
  4  3  2  0  0  0  0
  4  9  1  0  0  0  0
  5 12  2  0  0  0  0
  6  2  1  1  0  0  0
  6  7  1  0  0  0  0
  7  9  1  0  0  0  0
  7 11  1  0  0  0  0
  8  6  1  0  0  0  0
  8  4  1  0  0  0  0
  9  1  2  0  0  0  0
 11 10  1  6  0  0  0
 11 18  1  0  0  0  0
 13 16  1  0  0  0  0
 14 18  1  0  0  0  0
 14 23  1  0  0  0  0
 15 24  1  0  0  0  0
 16 14  2  0  0  0  0
 18 17  1  6  0  0  0
 19 21  1  0  0  0  0
 19 13  1  0  0  0  0
 20 16  1  0  0  0  0
 20 17  2  0  0  0  0
 21 15  1  0  0  0  0
 22 21  1  0  0  0  0
 24 23  1  0  0  0  0
 26 25  1  0  0  0  0
 26  3  1  0  0  0  0
M  END
>  <MODEL>
7

>  <REMARK>
 VINA RESULT:      -6.8      2.455      4.297
  Name = 
  2 active torsions:
  status: ('A' for Active; 'I' for Inactive)
    1  A    between atoms: C_7  and  O_16
    2  A    between atoms: C_12  and  C_24
                            x       y       z     vdW  Elec       q    Type
                         _______ _______ _______ _____ _____    ______ ____

>  <TORSDO>
F 2

$$$$
=
 OpenBabel11072408503D

 26 30  0  0  1  0  0  0  0  0999 V2000
  190.3990  176.7330  143.6690 C   0  0  0  0  0  3  0  0  0  0  0  0
  190.2410  172.5190  142.1240 C   0  0  0  0  0  2  0  0  0  0  0  0
  188.2050  176.6260  141.8790 C   0  0  0  0  0  0  0  0  0  0  0  0
  188.7490  175.4750  142.4510 C   0  0  0  0  0  0  0  0  0  0  0  0
  188.7770  177.8650  142.2360 C   0  0  0  0  0  3  0  0  0  0  0  0
  189.3010  173.3070  143.0000 C   0  0  1  0  0  3  0  0  0  0  0  0
  190.1890  174.2160  143.6900 N   0  0  0  0  0  0  0  0  0  0  0  0
  188.3960  174.1310  142.1830 N   0  0  0  0  0  2  0  0  0  0  0  0
  189.7930  175.5270  143.3180 C   0  0  0  0  0  0  0  0  0  0  0  0
  191.5650  172.7090  142.5860 O   0  0  0  0  0  0  0  0  0  0  0  0
  191.5560  173.7700  143.5230 C   0  0  2  0  0  3  0  0  0  0  0  0
  189.8710  177.9160  143.1240 C   0  0  0  0  0  3  0  0  0  0  0  0
  195.7220  173.9970  145.8290 C   0  0  0  0  0  2  0  0  0  0  0  0
  193.2350  174.1730  145.3580 C   0  0  0  0  0  0  0  0  0  0  0  0
  195.0840  176.8990  145.2240 C   0  0  0  0  0  2  0  0  0  0  0  0
  194.3820  173.4890  145.3900 C   0  0  0  0  0  0  0  0  0  0  0  0
  192.8770  171.9980  144.6380 C   0  0  0  0  0  3  0  0  0  0  0  0
  192.1390  173.2840  144.8550 C   0  0  2  0  0  3  0  0  0  0  0  0
  196.3650  174.9160  144.7830 C   0  0  0  0  0  2  0  0  0  0  0  0
  194.1610  172.1300  144.9370 C   0  0  0  0  0  3  0  0  0  0  0  0
  195.4080  175.8750  144.2320 N   0  0  0  0  0  0  0  0  0  0  0  0
  196.0830  176.5530  143.1410 C   0  0  0  0  0  1  0  0  0  0  0  0
  192.9770  175.5910  145.8310 C   0  0  0  0  0  2  0  0  0  0  0  0
  194.1950  176.3580  146.3480 C   0  0  0  0  0  2  0  0  0  0  0  0
  186.2940  177.6290  140.6760 C   0  0  0  0  0  1  0  0  0  0  0  0
  187.1350  176.5260  140.9860 O   0  0  0  0  0  0  0  0  0  0  0  0
  2 10  1  0  0  0  0
  3  5  2  0  0  0  0
  3  4  1  0  0  0  0
  4  9  2  0  0  0  0
  5 12  1  0  0  0  0
  6  2  1  6  0  0  0
  6  7  1  0  0  0  0
  8  4  1  0  0  0  0
  8  6  1  0  0  0  0
  9  1  1  0  0  0  0
  9  7  1  0  0  0  0
 11 10  1  6  0  0  0
 11  7  1  0  0  0  0
 11 18  1  0  0  0  0
 12  1  2  0  0  0  0
 14 16  2  0  0  0  0
 14 23  1  0  0  0  0
 15 24  1  0  0  0  0
 16 13  1  0  0  0  0
 17 20  2  0  0  0  0
 18 17  1  6  0  0  0
 18 14  1  0  0  0  0
 19 13  1  0  0  0  0
 20 16  1  0  0  0  0
 21 19  1  0  0  0  0
 21 15  1  0  0  0  0
 22 21  1  0  0  0  0
 23 24  1  0  0  0  0
 25 26  1  0  0  0  0
 26  3  1  0  0  0  0
M  END
>  <MODEL>
8

>  <REMARK>
 VINA RESULT:      -6.8      3.178      5.126
  Name = 
  2 active torsions:
  status: ('A' for Active; 'I' for Inactive)
    1  A    between atoms: C_7  and  O_16
    2  A    between atoms: C_12  and  C_24
                            x       y       z     vdW  Elec       q    Type
                         _______ _______ _______ _____ _____    ______ ____

>  <TORSDO>
F 2

$$$$
=
 OpenBabel11072408503D

 26 30  0  0  1  0  0  0  0  0999 V2000
  187.7990  176.5300  146.2000 C   0  0  0  0  0  3  0  0  0  0  0  0
  189.1300  177.9160  142.1400 C   0  0  0  0  0  2  0  0  0  0  0  0
  185.8910  178.4450  145.3500 C   0  0  0  0  0  0  0  0  0  0  0  0
  186.7390  177.7960  144.4500 C   0  0  0  0  0  0  0  0  0  0  0  0
  186.0030  178.1020  146.7150 C   0  0  0  0  0  3  0  0  0  0  0  0
  187.9250  177.1310  142.5920 C   0  0  1  0  0  3  0  0  0  0  0  0
  188.4180  176.4240  143.7530 N   0  0  0  0  0  0  0  0  0  0  0  0
  186.8620  178.0340  143.0600 N   0  0  0  0  0  2  0  0  0  0  0  0
  187.6450  176.8700  144.8560 C   0  0  0  0  0  0  0  0  0  0  0  0
  190.2840  177.3830  142.7610 O   0  0  0  0  0  0  0  0  0  0  0  0
  189.8640  176.4900  143.7760 C   0  0  2  0  0  3  0  0  0  0  0  0
  186.9550  177.1520  147.1350 C   0  0  0  0  0  3  0  0  0  0  0  0
  194.2050  174.5190  143.7790 C   0  0  0  0  0  2  0  0  0  0  0  0
  191.7510  174.9010  144.2950 C   0  0  0  0  0  0  0  0  0  0  0  0
  194.0110  175.8170  146.5120 C   0  0  0  0  0  2  0  0  0  0  0  0
  192.7640  174.7480  143.4380 C   0  0  0  0  0  0  0  0  0  0  0  0
  190.9670  175.0210  142.1150 C   0  0  0  0  0  3  0  0  0  0  0  0
  190.4780  175.1060  143.5290 C   0  0  2  0  0  3  0  0  0  0  0  0
  194.8930  175.7940  144.2790 C   0  0  0  0  0  2  0  0  0  0  0  0
  192.2760  174.8260  142.0750 C   0  0  0  0  0  3  0  0  0  0  0  0
  194.0640  176.5270  145.2360 N   0  0  0  0  0  0  0  0  0  0  0  0
  194.7400  177.7870  145.4890 C   0  0  0  0  0  1  0  0  0  0  0  0
  191.7790  174.7960  145.8070 C   0  0  0  0  0  2  0  0  0  0  0  0
  193.1510  174.5510  146.4370 C   0  0  0  0  0  2  0  0  0  0  0  0
  183.7470  179.0420  144.2760 C   0  0  0  0  0  1  0  0  0  0  0  0
  184.9780  179.3980  144.8910 O   0  0  0  0  0  0  0  0  0  0  0  0
  1 12  1  0  0  0  0
  2 10  1  0  0  0  0
  3  5  1  0  0  0  0
  4  9  1  0  0  0  0
  4  3  2  0  0  0  0
  5 12  2  0  0  0  0
  6  2  1  1  0  0  0
  6  8  1  0  0  0  0
  6  7  1  0  0  0  0
  7 11  1  0  0  0  0
  7  9  1  0  0  0  0
  8  4  1  0  0  0  0
  9  1  2  0  0  0  0
 11 10  1  6  0  0  0
 13 19  1  0  0  0  0
 14 23  1  0  0  0  0
 16 13  1  0  0  0  0
 16 14  2  0  0  0  0
 18 17  1  6  0  0  0
 18 11  1  0  0  0  0
 18 14  1  0  0  0  0
 19 21  1  0  0  0  0
 20 17  2  0  0  0  0
 20 16  1  0  0  0  0
 21 22  1  0  0  0  0
 21 15  1  0  0  0  0
 23 24  1  0  0  0  0
 24 15  1  0  0  0  0
 25 26  1  0  0  0  0
 26  3  1  0  0  0  0
M  END
>  <MODEL>
9

>  <REMARK>
 VINA RESULT:      -6.8      2.216      4.226
  Name = 
  2 active torsions:
  status: ('A' for Active; 'I' for Inactive)
    1  A    between atoms: C_7  and  O_16
    2  A    between atoms: C_12  and  C_24
                            x       y       z     vdW  Elec       q    Type
                         _______ _______ _______ _____ _____    ______ ____

>  <TORSDO>
F 2

$$$$
