=
 OpenBabel11062419413D

 42 46  0  0  1  0  0  0  0  0999 V2000
  193.0090  174.4690  146.8400 F   0  0  0  0  0  0  0  0  0  0  0  0
  194.5880  176.1570  146.3010 C   0  0  0  0  0  1  0  0  0  0  0  0
  193.2960  175.4580  145.9110 C   0  0  2  0  0  0  0  0  0  0  0  0
  192.1740  176.4920  145.9100 C   0  0  0  0  0  2  0  0  0  0  0  0
  191.5270  176.8070  148.1840 O   0  0  0  0  0  0  0  0  0  0  0  0
  191.2400  176.2940  147.0720 C   0  0  0  0  0  0  0  0  0  0  0  0
  190.0940  175.5020  146.9610 O   0  0  0  0  0  0  0  0  0  0  0  0
  189.2620  175.5320  145.8110 C   0  0  0  0  0  2  0  0  0  0  0  0
  187.6590  176.9790  144.4950 C   0  0  2  0  0  0  0  0  0  0  0  0
  187.6920  175.9540  143.3980 C   0  0  0  0  0  3  0  0  0  0  0  0
  186.2560  177.4440  142.0730 C   0  0  0  0  0  0  0  0  0  0  0  0
  187.0400  176.2000  142.2590 C   0  0  0  0  0  3  0  0  0  0  0  0
  188.4880  176.8400  145.7670 C   0  0  2  0  0  3  0  0  0  0  0  0
  186.4680  177.9370  144.5270 C   0  0  1  0  0  3  0  0  0  0  0  0
  188.9830  177.7060  144.6170 C   0  0  0  0  0  2  0  0  0  0  0  0
  186.0240  178.2610  143.1170 C   0  0  0  0  0  3  0  0  0  0  0  0
  186.4890  177.6350  139.7190 O   0  0  0  0  0  0  0  0  0  0  0  0
  184.3680  178.3290  140.5380 C   0  0  0  0  0  1  0  0  0  0  0  0
  185.7490  177.7870  140.7300 C   0  0  0  0  0  0  0  0  0  0  0  0
  185.3210  177.2960  145.3000 C   0  0  0  0  0  2  0  0  0  0  0  0
  183.7140  178.9800  145.6760 O   0  0  0  0  0  0  0  0  0  0  0  0
  184.6150  178.3030  146.1470 C   0  0  0  0  0  0  0  0  0  0  0  0
  185.0150  178.4790  147.5700 C   0  0  0  0  0  1  0  0  0  0  0  0
  193.4200  174.8910  144.6040 O   0  0  0  0  0  0  0  0  0  0  0  0
  190.2220  173.6970  142.1080 C   0  0  0  0  0  0  0  0  0  0  0  0
  192.3560  174.4290  143.8200 C   0  0  0  0  0  0  0  0  0  0  0  0
  191.0090  174.7040  141.7510 C   0  0  0  0  0  3  0  0  0  0  0  0
  188.6770  172.1000  142.2680 C   0  0  0  0  0  3  0  0  0  0  0  0
  189.0700  173.0960  141.4750 C   0  0  0  0  0  0  0  0  0  0  0  0
  190.4010  172.9530  143.3170 C   0  0  0  0  0  0  0  0  0  0  0  0
  189.5180  172.0140  143.4320 N   0  0  0  0  0  0  0  0  0  0  0  0
  191.5080  173.2420  144.2790 C   0  0  0  0  0  2  0  0  0  0  0  0
  192.1160  175.0750  142.6600 C   0  0  0  0  0  3  0  0  0  0  0  0
  188.4660  173.4540  140.1580 C   0  0  0  0  0  2  0  0  0  0  0  0
  188.7270  173.1380  137.6940 C   0  0  0  0  0  2  0  0  0  0  0  0
  189.9300  173.8680  138.1540 N   0  0  0  0  0  0  0  0  0  0  0  0
  189.2670  172.8570  139.0130 C   0  0  1  0  0  0  0  0  0  0  0  0
  189.9010  171.4690  139.1610 C   0  0  0  0  0  1  0  0  0  0  0  0
  191.0570  173.3110  137.4130 C   0  0  0  0  0  2  0  0  0  0  0  0
  192.3270  174.0680  137.7700 C   0  0  0  0  0  2  0  0  0  0  0  0
  192.7450  173.7160  139.0540 O   0  0  0  0  0  0  0  0  0  0  0  0
  193.4570  172.5370  138.8810 C   0  0  0  0  0  1  0  0  0  0  0  0
  3  2  1  1  0  0  0
  3  1  1  0  0  0  0
  4  3  1  0  0  0  0
  4  6  1  0  0  0  0
  6  5  2  0  0  0  0
  7  6  1  0  0  0  0
  8  7  1  0  0  0  0
  9 10  1  6  0  0  0
  9 14  1  0  0  0  0
  9 15  1  0  0  0  0
  9 13  1  0  0  0  0
 11 12  1  0  0  0  0
 11 16  2  0  0  0  0
 12 10  2  0  0  0  0
 13  8  1  6  0  0  0
 14 20  1  1  0  0  0
 15 13  1  0  0  0  0
 16 14  1  0  0  0  0
 17 19  2  0  0  0  0
 18 19  1  0  0  0  0
 19 11  1  0  0  0  0
 20 22  1  0  0  0  0
 21 22  2  0  0  0  0
 22 23  1  0  0  0  0
 24  3  1  0  0  0  0
 25 30  1  0  0  0  0
 26 32  1  0  0  0  0
 26 24  1  0  0  0  0
 27 25  2  0  0  0  0
 27 33  1  0  0  0  0
 28 31  1  0  0  0  0
 29 25  1  0  0  0  0
 29 28  2  0  0  0  0
 30 31  2  0  0  0  0
 30 32  1  0  0  0  0
 33 26  2  0  0  0  0
 34 29  1  0  0  0  0
 35 36  1  0  0  0  0
 35 37  1  0  0  0  0
 36 37  1  0  0  0  0
 37 38  1  1  0  0  0
 37 34  1  0  0  0  0
 39 40  1  0  0  0  0
 39 36  1  0  0  0  0
 40 41  1  0  0  0  0
 42 41  1  0  0  0  0
M  END
>  <MODEL>
1

>  <REMARK>
 VINA RESULT:      -6.9      0.000      0.000
  Name = 
  15 active torsions:
  status: ('A' for Active; 'I' for Inactive)
    1  A    between atoms: C_3  and  O_39
    2  A    between atoms: O_7  and  C_13
    3  A    between atoms: C_9  and  C_38
    4  A    between atoms: C_13  and  C_22
    5  A    between atoms: C_14  and  O_33
    6  A    between atoms: C_14  and  C_35
    7  A    between atoms: C_16  and  C_41
    8  A    between atoms: C_17  and  C_21
    9  A    between atoms: C_17  and  C_29
   10  A    between atoms: N_19  and  C_22
   11  A    between atoms: C_23  and  C_25
   12  A    between atoms: C_23  and  O_33
   13  A    between atoms: C_32  and  C_35
   14  A    between atoms: C_32  and  O_39
   15  A    between atoms: C_36  and  C_41
                            x       y       z     vdW  Elec       q    Type
                         _______ _______ _______ _____ _____    ______ ____

>  <TORSDO>
F 15

$$$$
=
 OpenBabel11062419413D

 42 46  0  0  1  0  0  0  0  0999 V2000
  185.1920  176.4250  145.4420 F   0  0  0  0  0  0  0  0  0  0  0  0
  184.6950  178.5900  146.2760 C   0  0  0  0  0  1  0  0  0  0  0  0
  185.7290  177.6900  145.6200 C   0  0  2  0  0  0  0  0  0  0  0  0
  186.0860  178.2840  144.2610 C   0  0  0  0  0  2  0  0  0  0  0  0
  184.0550  177.9980  143.0460 O   0  0  0  0  0  0  0  0  0  0  0  0
  185.2640  177.6750  143.1590 C   0  0  0  0  0  0  0  0  0  0  0  0
  185.7980  176.7110  142.2980 O   0  0  0  0  0  0  0  0  0  0  0  0
  186.8890  175.8850  142.6710 C   0  0  0  0  0  2  0  0  0  0  0  0
  188.8000  174.5630  141.6690 C   0  0  2  0  0  0  0  0  0  0  0  0
  188.7850  173.6870  142.8890 C   0  0  0  0  0  3  0  0  0  0  0  0
  190.7380  172.5130  141.9680 C   0  0  0  0  0  0  0  0  0  0  0  0
  189.7170  172.7400  143.0190 C   0  0  0  0  0  3  0  0  0  0  0  0
  187.8610  175.7550  141.5090 C   0  0  2  0  0  3  0  0  0  0  0  0
  189.4500  173.9990  140.4060 C   0  0  1  0  0  3  0  0  0  0  0  0
  189.2900  175.9600  141.9920 C   0  0  0  0  0  2  0  0  0  0  0  0
  190.6280  173.1240  140.7740 C   0  0  0  0  0  3  0  0  0  0  0  0
  191.6850  170.4740  142.7270 O   0  0  0  0  0  0  0  0  0  0  0  0
  193.2870  172.0700  141.9930 C   0  0  0  0  0  1  0  0  0  0  0  0
  191.8820  171.6260  142.2500 C   0  0  0  0  0  0  0  0  0  0  0  0
  188.4220  173.1890  139.6240 C   0  0  0  0  0  2  0  0  0  0  0  0
  187.6430  174.5250  137.8450 O   0  0  0  0  0  0  0  0  0  0  0  0
  188.3770  173.6140  138.1940 C   0  0  0  0  0  0  0  0  0  0  0  0
  189.2320  172.9190  137.1920 C   0  0  0  0  0  1  0  0  0  0  0  0
  186.9060  177.6210  146.4310 O   0  0  0  0  0  0  0  0  0  0  0  0
  190.6010  175.8750  145.3470 C   0  0  0  0  0  0  0  0  0  0  0  0
  188.1390  177.1030  146.0210 C   0  0  0  0  0  0  0  0  0  0  0  0
  189.7160  175.1830  146.0530 C   0  0  0  0  0  3  0  0  0  0  0  0
  192.3560  176.6140  144.1910 C   0  0  0  0  0  3  0  0  0  0  0  0
  191.9220  175.5470  144.8610 C   0  0  0  0  0  0  0  0  0  0  0  0
  190.3730  177.2160  144.9010 C   0  0  1  0  0  3  0  0  0  0  0  0
  191.3770  177.6670  144.2220 N   0  0  0  0  0  0  0  0  0  0  0  0
  189.1000  177.9470  145.1820 C   0  0  0  0  0  3  0  0  0  0  0  0
  188.4370  175.8420  146.3990 C   0  0  0  0  0  3  0  0  0  0  0  0
  192.6470  174.2500  145.0030 C   0  0  0  0  0  2  0  0  0  0  0  0
  194.9000  173.2720  145.4560 C   0  0  0  0  0  2  0  0  0  0  0  0
  195.0680  174.2070  144.3210 N   0  0  0  0  0  0  0  0  0  0  0  0
  194.0950  174.4790  145.4060 C   0  0  1  0  0  0  0  0  0  0  0  0
  194.4380  175.5210  146.4760 C   0  0  0  0  0  1  0  0  0  0  0  0
  196.3400  174.8890  144.5350 C   0  0  0  0  0  2  0  0  0  0  0  0
  196.4720  176.0450  143.5560 C   0  0  0  0  0  2  0  0  0  0  0  0
  195.9050  175.6960  142.3290 O   0  0  0  0  0  0  0  0  0  0  0  0
  196.1780  176.7710  141.4960 C   0  0  0  0  0  1  0  0  0  0  0  0
  1  3  1  0  0  0  0
  3  2  1  1  0  0  0
  3 24  1  0  0  0  0
  4  3  1  0  0  0  0
  5  6  2  0  0  0  0
  6  4  1  0  0  0  0
  7  8  1  0  0  0  0
  7  6  1  0  0  0  0
  9 15  1  1  0  0  0
  9 10  1  0  0  0  0
 10 12  2  0  0  0  0
 11 19  1  0  0  0  0
 11 12  1  0  0  0  0
 13  9  1  0  0  0  0
 13 15  1  0  0  0  0
 13  8  1  1  0  0  0
 14 20  1  1  0  0  0
 14 16  1  0  0  0  0
 14  9  1  0  0  0  0
 16 11  2  0  0  0  0
 18 19  1  0  0  0  0
 19 17  2  0  0  0  0
 21 22  2  0  0  0  0
 22 20  1  0  0  0  0
 23 22  1  0  0  0  0
 25 27  1  0  0  0  0
 26 33  1  0  0  0  0
 26 24  1  0  0  0  0
 27 33  2  0  0  0  0
 28 31  2  0  0  0  0
 28 29  1  0  0  0  0
 29 34  1  0  0  0  0
 29 25  2  0  0  0  0
 30 32  1  6  0  0  0
 30 25  1  0  0  0  0
 31 30  1  0  0  0  0
 32 26  2  0  0  0  0
 34 37  1  0  0  0  0
 36 39  1  0  0  0  0
 36 37  1  0  0  0  0
 36 35  1  0  0  0  0
 37 35  1  0  0  0  0
 37 38  1  1  0  0  0
 40 39  1  0  0  0  0
 41 40  1  0  0  0  0
 42 41  1  0  0  0  0
M  END
>  <MODEL>
2

>  <REMARK>
 VINA RESULT:      -6.6      2.816      7.282
  Name = 
  15 active torsions:
  status: ('A' for Active; 'I' for Inactive)
    1  A    between atoms: C_3  and  O_39
    2  A    between atoms: O_7  and  C_13
    3  A    between atoms: C_9  and  C_38
    4  A    between atoms: C_13  and  C_22
    5  A    between atoms: C_14  and  O_33
    6  A    between atoms: C_14  and  C_35
    7  A    between atoms: C_16  and  C_41
    8  A    between atoms: C_17  and  C_21
    9  A    between atoms: C_17  and  C_29
   10  A    between atoms: N_19  and  C_22
   11  A    between atoms: C_23  and  C_25
   12  A    between atoms: C_23  and  O_33
   13  A    between atoms: C_32  and  C_35
   14  A    between atoms: C_32  and  O_39
   15  A    between atoms: C_36  and  C_41
                            x       y       z     vdW  Elec       q    Type
                         _______ _______ _______ _____ _____    ______ ____

>  <TORSDO>
F 15

$$$$
=
 OpenBabel11062419413D

 42 46  0  0  1  0  0  0  0  0999 V2000
  186.7040  179.1040  145.4760 F   0  0  0  0  0  0  0  0  0  0  0  0
  184.3980  179.1460  144.9190 C   0  0  0  0  0  1  0  0  0  0  0  0
  185.7060  178.3750  144.8490 C   0  0  2  0  0  0  0  0  0  0  0  0
  185.5170  177.0460  145.5740 C   0  0  0  0  0  2  0  0  0  0  0  0
  185.6670  177.7870  147.8350 O   0  0  0  0  0  0  0  0  0  0  0  0
  186.1600  177.0620  146.9330 C   0  0  0  0  0  0  0  0  0  0  0  0
  187.3270  176.3400  147.1970 O   0  0  0  0  0  0  0  0  0  0  0  0
  188.1740  175.8670  146.1610 C   0  0  0  0  0  2  0  0  0  0  0  0
  190.5570  175.0470  145.9390 C   0  0  2  0  0  0  0  0  0  0  0  0
  190.0430  173.8830  145.1410 C   0  0  0  0  0  3  0  0  0  0  0  0
  192.3440  173.0240  145.0660 C   0  0  0  0  0  0  0  0  0  0  0  0
  190.8970  172.9320  144.7560 C   0  0  0  0  0  3  0  0  0  0  0  0
  189.6290  176.1000  146.5360 C   0  0  2  0  0  3  0  0  0  0  0  0
  192.0330  175.4120  145.7800 C   0  0  1  0  0  3  0  0  0  0  0  0
  190.1420  174.9520  147.3930 C   0  0  0  0  0  2  0  0  0  0  0  0
  192.8580  174.1600  145.5720 C   0  0  0  0  0  3  0  0  0  0  0  0
  192.8870  170.9910  143.9700 O   0  0  0  0  0  0  0  0  0  0  0  0
  194.4710  171.6540  145.6140 C   0  0  0  0  0  1  0  0  0  0  0  0
  193.2110  171.8530  144.8330 C   0  0  0  0  0  0  0  0  0  0  0  0
  192.2000  176.3510  144.5910 C   0  0  0  0  0  2  0  0  0  0  0  0
  194.4240  177.0110  145.0100 O   0  0  0  0  0  0  0  0  0  0  0  0
  193.6380  176.5040  144.2240 C   0  0  0  0  0  0  0  0  0  0  0  0
  194.1120  176.0370  142.8910 C   0  0  0  0  0  1  0  0  0  0  0  0
  186.0550  178.1250  143.4840 O   0  0  0  0  0  0  0  0  0  0  0  0
  189.0300  175.4380  142.1390 C   0  0  0  0  0  0  0  0  0  0  0  0
  186.9880  177.1760  143.0510 C   0  0  0  0  0  0  0  0  0  0  0  0
  189.3490  176.6880  142.4510 C   0  0  0  0  0  3  0  0  0  0  0  0
  188.9860  173.2970  141.5240 C   0  0  0  0  0  3  0  0  0  0  0  0
  189.8190  174.3310  141.6480 C   0  0  0  0  0  0  0  0  0  0  0  0
  187.7010  174.9180  142.2470 C   0  0  1  0  0  3  0  0  0  0  0  0
  187.6500  173.6730  141.8990 N   0  0  0  0  0  0  0  0  0  0  0  0
  186.5560  175.7430  142.7380 C   0  0  0  0  0  3  0  0  0  0  0  0
  188.2680  177.5830  142.9210 C   0  0  0  0  0  3  0  0  0  0  0  0
  191.2890  174.3030  141.3940 C   0  0  0  0  0  2  0  0  0  0  0  0
  193.0230  173.4350  139.8190 C   0  0  0  0  0  2  0  0  0  0  0  0
  192.3080  172.2530  140.3520 N   0  0  0  0  0  0  0  0  0  0  0  0
  191.6060  173.5380  140.1200 C   0  0  1  0  0  0  0  0  0  0  0  0
  190.7010  173.6850  138.8910 C   0  0  0  0  0  1  0  0  0  0  0  0
  192.1540  171.3280  139.2340 C   0  0  0  0  0  2  0  0  0  0  0  0
  191.4730  170.0550  139.7140 C   0  0  0  0  0  2  0  0  0  0  0  0
  191.0680  169.2910  138.6180 O   0  0  0  0  0  0  0  0  0  0  0  0
  189.8960  169.8940  138.1840 C   0  0  0  0  0  1  0  0  0  0  0  0
  3  2  1  1  0  0  0
  3  1  1  0  0  0  0
  3  4  1  0  0  0  0
  4  6  1  0  0  0  0
  6  7  1  0  0  0  0
  6  5  2  0  0  0  0
  8  7  1  0  0  0  0
  9 10  1  6  0  0  0
  9 13  1  0  0  0  0
  9 15  1  0  0  0  0
 11 16  2  0  0  0  0
 12 11  1  0  0  0  0
 12 10  2  0  0  0  0
 13  8  1  6  0  0  0
 13 15  1  0  0  0  0
 14 20  1  6  0  0  0
 14  9  1  0  0  0  0
 16 14  1  0  0  0  0
 17 19  2  0  0  0  0
 19 11  1  0  0  0  0
 19 18  1  0  0  0  0
 22 20  1  0  0  0  0
 22 21  2  0  0  0  0
 23 22  1  0  0  0  0
 24  3  1  0  0  0  0
 25 30  1  0  0  0  0
 25 27  1  0  0  0  0
 26 24  1  0  0  0  0
 27 33  2  0  0  0  0
 28 29  1  0  0  0  0
 28 31  2  0  0  0  0
 29 25  2  0  0  0  0
 30 32  1  1  0  0  0
 31 30  1  0  0  0  0
 32 26  2  0  0  0  0
 33 26  1  0  0  0  0
 34 29  1  0  0  0  0
 35 37  1  0  0  0  0
 35 36  1  0  0  0  0
 37 38  1  6  0  0  0
 37 36  1  0  0  0  0
 37 34  1  0  0  0  0
 39 40  1  0  0  0  0
 39 36  1  0  0  0  0
 41 40  1  0  0  0  0
 42 41  1  0  0  0  0
M  END
>  <MODEL>
3

>  <REMARK>
 VINA RESULT:      -6.3      2.457      6.340
  Name = 
  15 active torsions:
  status: ('A' for Active; 'I' for Inactive)
    1  A    between atoms: C_3  and  O_39
    2  A    between atoms: O_7  and  C_13
    3  A    between atoms: C_9  and  C_38
    4  A    between atoms: C_13  and  C_22
    5  A    between atoms: C_14  and  O_33
    6  A    between atoms: C_14  and  C_35
    7  A    between atoms: C_16  and  C_41
    8  A    between atoms: C_17  and  C_21
    9  A    between atoms: C_17  and  C_29
   10  A    between atoms: N_19  and  C_22
   11  A    between atoms: C_23  and  C_25
   12  A    between atoms: C_23  and  O_33
   13  A    between atoms: C_32  and  C_35
   14  A    between atoms: C_32  and  O_39
   15  A    between atoms: C_36  and  C_41
                            x       y       z     vdW  Elec       q    Type
                         _______ _______ _______ _____ _____    ______ ____

>  <TORSDO>
F 15

$$$$
=
 OpenBabel11062419413D

 42 46  0  0  1  0  0  0  0  0999 V2000
  186.0230  176.4150  146.0310 F   0  0  0  0  0  0  0  0  0  0  0  0
  185.9930  178.6560  146.8090 C   0  0  0  0  0  1  0  0  0  0  0  0
  186.1230  177.7320  145.6100 C   0  0  2  0  0  0  0  0  0  0  0  0
  184.9840  178.0420  144.6430 C   0  0  0  0  0  2  0  0  0  0  0  0
  185.3430  180.2750  143.8880 O   0  0  0  0  0  0  0  0  0  0  0  0
  185.3980  179.0510  143.6070 C   0  0  0  0  0  0  0  0  0  0  0  0
  185.7800  178.6610  142.3200 O   0  0  0  0  0  0  0  0  0  0  0  0
  185.6800  177.3170  141.8760 C   0  0  0  0  0  2  0  0  0  0  0  0
  187.7840  175.9530  141.5460 C   0  0  2  0  0  0  0  0  0  0  0  0
  187.5970  175.3970  142.9290 C   0  0  0  0  0  3  0  0  0  0  0  0
  189.7230  174.1970  142.6460 C   0  0  0  0  0  0  0  0  0  0  0  0
  188.5300  174.5870  143.4350 C   0  0  0  0  0  3  0  0  0  0  0  0
  186.8400  176.9910  140.9490 C   0  0  2  0  0  3  0  0  0  0  0  0
  188.6630  175.1560  140.5810 C   0  0  1  0  0  3  0  0  0  0  0  0
  188.1560  177.4210  141.5820 C   0  0  0  0  0  2  0  0  0  0  0  0
  189.7950  174.4930  141.3350 C   0  0  0  0  0  3  0  0  0  0  0  0
  191.9130  173.2860  142.6920 O   0  0  0  0  0  0  0  0  0  0  0  0
  190.7150  173.0210  144.7270 C   0  0  0  0  0  1  0  0  0  0  0  0
  190.8370  173.4990  143.3150 C   0  0  0  0  0  0  0  0  0  0  0  0
  187.8170  174.1020  139.8760 C   0  0  0  0  0  2  0  0  0  0  0  0
  188.9090  172.2390  138.9310 O   0  0  0  0  0  0  0  0  0  0  0  0
  188.5970  173.4130  138.8060 C   0  0  0  0  0  0  0  0  0  0  0  0
  188.9960  174.1660  137.5850 C   0  0  0  0  0  1  0  0  0  0  0  0
  187.3750  177.9520  144.9540 O   0  0  0  0  0  0  0  0  0  0  0  0
  191.2230  176.6550  146.1340 C   0  0  0  0  0  0  0  0  0  0  0  0
  188.6160  177.4920  145.4100 C   0  0  0  0  0  0  0  0  0  0  0  0
  191.0870  177.5410  145.1550 C   0  0  0  0  0  3  0  0  0  0  0  0
  191.9410  175.2300  147.6880 C   0  0  0  0  0  3  0  0  0  0  0  0
  192.3870  176.0330  146.7220 C   0  0  0  0  0  0  0  0  0  0  0  0
  190.1140  176.1020  146.8510 C   0  0  0  0  0  0  0  0  0  0  0  0
  190.5060  175.2740  147.7640 N   0  0  0  0  0  0  0  0  0  0  0  0
  188.7010  176.4920  146.5640 C   0  0  0  0  0  2  0  0  0  0  0  0
  189.7160  177.9630  144.7880 C   0  0  0  0  0  3  0  0  0  0  0  0
  193.8190  176.2800  146.3830 C   0  0  0  0  0  2  0  0  0  0  0  0
  194.0220  175.8680  143.9280 C   0  0  0  0  0  2  0  0  0  0  0  0
  195.4010  175.9050  144.4630 N   0  0  0  0  0  0  0  0  0  0  0  0
  194.2790  175.3600  145.2640 C   0  0  1  0  0  0  0  0  0  0  0  0
  194.1300  173.8410  145.4080 C   0  0  0  0  0  1  0  0  0  0  0  0
  196.1410  174.8590  143.7640 C   0  0  0  0  0  2  0  0  0  0  0  0
  196.8100  175.4450  142.5300 C   0  0  0  0  0  2  0  0  0  0  0  0
  196.2620  174.8770  141.3780 O   0  0  0  0  0  0  0  0  0  0  0  0
  196.2820  173.5100  141.6170 C   0  0  0  0  0  1  0  0  0  0  0  0
  3  1  1  0  0  0  0
  3  2  1  1  0  0  0
  4  3  1  0  0  0  0
  6  5  2  0  0  0  0
  6  4  1  0  0  0  0
  7  6  1  0  0  0  0
  8  7  1  0  0  0  0
  9 15  1  1  0  0  0
  9 10  1  0  0  0  0
 10 12  2  0  0  0  0
 11 19  1  0  0  0  0
 11 12  1  0  0  0  0
 13  9  1  0  0  0  0
 13 15  1  0  0  0  0
 13  8  1  1  0  0  0
 14 20  1  1  0  0  0
 14 16  1  0  0  0  0
 14  9  1  0  0  0  0
 16 11  2  0  0  0  0
 17 19  2  0  0  0  0
 19 18  1  0  0  0  0
 22 21  2  0  0  0  0
 22 20  1  0  0  0  0
 23 22  1  0  0  0  0
 24 26  1  0  0  0  0
 24  3  1  0  0  0  0
 25 29  1  0  0  0  0
 25 30  1  0  0  0  0
 26 32  1  0  0  0  0
 27 25  2  0  0  0  0
 28 31  1  0  0  0  0
 29 28  2  0  0  0  0
 30 31  2  0  0  0  0
 32 30  1  0  0  0  0
 33 27  1  0  0  0  0
 33 26  2  0  0  0  0
 34 29  1  0  0  0  0
 35 36  1  0  0  0  0
 35 37  1  0  0  0  0
 36 37  1  0  0  0  0
 37 38  1  1  0  0  0
 37 34  1  0  0  0  0
 39 36  1  0  0  0  0
 40 39  1  0  0  0  0
 41 42  1  0  0  0  0
 41 40  1  0  0  0  0
M  END
>  <MODEL>
4

>  <REMARK>
 VINA RESULT:      -6.3      2.793      6.876
  Name = 
  15 active torsions:
  status: ('A' for Active; 'I' for Inactive)
    1  A    between atoms: C_3  and  O_39
    2  A    between atoms: O_7  and  C_13
    3  A    between atoms: C_9  and  C_38
    4  A    between atoms: C_13  and  C_22
    5  A    between atoms: C_14  and  O_33
    6  A    between atoms: C_14  and  C_35
    7  A    between atoms: C_16  and  C_41
    8  A    between atoms: C_17  and  C_21
    9  A    between atoms: C_17  and  C_29
   10  A    between atoms: N_19  and  C_22
   11  A    between atoms: C_23  and  C_25
   12  A    between atoms: C_23  and  O_33
   13  A    between atoms: C_32  and  C_35
   14  A    between atoms: C_32  and  O_39
   15  A    between atoms: C_36  and  C_41
                            x       y       z     vdW  Elec       q    Type
                         _______ _______ _______ _____ _____    ______ ____

>  <TORSDO>
F 15

$$$$
=
 OpenBabel11062419413D

 42 46  0  0  1  0  0  0  0  0999 V2000
  188.7500  172.2960  141.4730 F   0  0  0  0  0  0  0  0  0  0  0  0
  188.6880  173.8870  139.7130 C   0  0  0  0  0  1  0  0  0  0  0  0
  189.5540  173.1150  140.6940 C   0  0  2  0  0  0  0  0  0  0  0  0
  190.5300  172.2560  139.8970 C   0  0  0  0  0  2  0  0  0  0  0  0
  191.9570  173.8010  138.7740 O   0  0  0  0  0  0  0  0  0  0  0  0
  191.8460  172.9550  139.6980 C   0  0  0  0  0  0  0  0  0  0  0  0
  192.9650  172.6410  140.4750 O   0  0  0  0  0  0  0  0  0  0  0  0
  193.9430  173.6090  140.8210 C   0  0  0  0  0  2  0  0  0  0  0  0
  194.1750  173.9890  143.3110 C   0  0  2  0  0  0  0  0  0  0  0  0
  193.1720  175.1020  143.1970 C   0  0  0  0  0  3  0  0  0  0  0  0
  193.5250  175.5540  145.5870 C   0  0  0  0  0  0  0  0  0  0  0  0
  192.8940  175.8380  144.2760 C   0  0  0  0  0  3  0  0  0  0  0  0
  194.6520  173.1940  142.1000 C   0  0  2  0  0  3  0  0  0  0  0  0
  194.3840  173.3700  144.6930 C   0  0  1  0  0  3  0  0  0  0  0  0
  195.4840  174.3490  142.6390 C   0  0  0  0  0  2  0  0  0  0  0  0
  194.2420  174.4290  145.7640 C   0  0  0  0  0  3  0  0  0  0  0  0
  194.3170  177.3200  146.9600 O   0  0  0  0  0  0  0  0  0  0  0  0
  192.1260  176.5790  147.5080 C   0  0  0  0  0  1  0  0  0  0  0  0
  193.3760  176.5250  146.6880 C   0  0  0  0  0  0  0  0  0  0  0  0
  193.3590  172.2630  144.9130 C   0  0  0  0  0  2  0  0  0  0  0  0
  195.0000  170.7850  145.7390 O   0  0  0  0  0  0  0  0  0  0  0  0
  194.0220  170.9300  145.0210 C   0  0  0  0  0  0  0  0  0  0  0  0
  193.4870  169.7760  144.2480 C   0  0  0  0  0  1  0  0  0  0  0  0
  190.2870  174.0230  141.5210 O   0  0  0  0  0  0  0  0  0  0  0  0
  188.8070  176.0550  144.9220 C   0  0  0  0  0  0  0  0  0  0  0  0
  189.8000  174.6270  142.6860 C   0  0  0  0  0  0  0  0  0  0  0  0
  188.7590  176.6290  143.7260 C   0  0  0  0  0  3  0  0  0  0  0  0
  188.6650  175.5140  147.0780 C   0  0  0  0  0  3  0  0  0  0  0  0
  188.4000  176.5090  146.2320 C   0  0  0  0  0  0  0  0  0  0  0  0
  189.3330  174.7410  145.1400 C   0  0  0  0  0  0  0  0  0  0  0  0
  189.2560  174.4010  146.3860 N   0  0  0  0  0  0  0  0  0  0  0  0
  189.8600  173.8940  144.0270 C   0  0  0  0  0  2  0  0  0  0  0  0
  189.2860  175.8690  142.5700 C   0  0  0  0  0  3  0  0  0  0  0  0
  187.7430  177.8030  146.5820 C   0  0  0  0  0  2  0  0  0  0  0  0
  185.6030  179.0700  146.3560 C   0  0  0  0  0  2  0  0  0  0  0  0
  186.0070  178.6790  144.9870 N   0  0  0  0  0  0  0  0  0  0  0  0
  186.2860  177.8050  146.1510 C   0  0  1  0  0  0  0  0  0  0  0  0
  185.4150  176.5640  146.3820 C   0  0  0  0  0  1  0  0  0  0  0  0
  184.7820  178.2990  144.2900 C   0  0  0  0  0  2  0  0  0  0  0  0
  184.9580  178.5120  142.7940 C   0  0  0  0  0  2  0  0  0  0  0  0
  185.5220  177.3740  142.2160 O   0  0  0  0  0  0  0  0  0  0  0  0
  186.3370  177.8610  141.2040 C   0  0  0  0  0  1  0  0  0  0  0  0
  3  2  1  6  0  0  0
  3  1  1  0  0  0  0
  3 24  1  0  0  0  0
  4  3  1  0  0  0  0
  5  6  2  0  0  0  0
  6  4  1  0  0  0  0
  6  7  1  0  0  0  0
  7  8  1  0  0  0  0
  9 15  1  1  0  0  0
  9 14  1  0  0  0  0
 10  9  1  0  0  0  0
 10 12  2  0  0  0  0
 11 16  2  0  0  0  0
 11 19  1  0  0  0  0
 12 11  1  0  0  0  0
 13  8  1  6  0  0  0
 13 15  1  0  0  0  0
 13  9  1  0  0  0  0
 14 20  1  1  0  0  0
 14 16  1  0  0  0  0
 19 17  2  0  0  0  0
 19 18  1  0  0  0  0
 20 22  1  0  0  0  0
 22 21  2  0  0  0  0
 23 22  1  0  0  0  0
 24 26  1  0  0  0  0
 25 30  1  0  0  0  0
 25 29  1  0  0  0  0
 26 32  1  0  0  0  0
 27 25  2  0  0  0  0
 29 34  1  0  0  0  0
 29 28  2  0  0  0  0
 30 31  2  0  0  0  0
 31 28  1  0  0  0  0
 32 30  1  0  0  0  0
 33 26  2  0  0  0  0
 33 27  1  0  0  0  0
 36 37  1  0  0  0  0
 36 35  1  0  0  0  0
 37 35  1  0  0  0  0
 37 38  1  1  0  0  0
 37 34  1  0  0  0  0
 39 36  1  0  0  0  0
 40 39  1  0  0  0  0
 41 40  1  0  0  0  0
 42 41  1  0  0  0  0
M  END
>  <MODEL>
5

>  <REMARK>
 VINA RESULT:      -6.3      2.614      8.287
  Name = 
  15 active torsions:
  status: ('A' for Active; 'I' for Inactive)
    1  A    between atoms: C_3  and  O_39
    2  A    between atoms: O_7  and  C_13
    3  A    between atoms: C_9  and  C_38
    4  A    between atoms: C_13  and  C_22
    5  A    between atoms: C_14  and  O_33
    6  A    between atoms: C_14  and  C_35
    7  A    between atoms: C_16  and  C_41
    8  A    between atoms: C_17  and  C_21
    9  A    between atoms: C_17  and  C_29
   10  A    between atoms: N_19  and  C_22
   11  A    between atoms: C_23  and  C_25
   12  A    between atoms: C_23  and  O_33
   13  A    between atoms: C_32  and  C_35
   14  A    between atoms: C_32  and  O_39
   15  A    between atoms: C_36  and  C_41
                            x       y       z     vdW  Elec       q    Type
                         _______ _______ _______ _____ _____    ______ ____

>  <TORSDO>
F 15

$$$$
=
 OpenBabel11062419413D

 42 46  0  0  1  0  0  0  0  0999 V2000
  193.4670  173.4320  142.3690 F   0  0  0  0  0  0  0  0  0  0  0  0
  195.8130  173.7850  142.3820 C   0  0  0  0  0  1  0  0  0  0  0  0
  194.6070  173.2500  143.1360 C   0  0  2  0  0  0  0  0  0  0  0  0
  194.8190  171.7590  143.3810 C   0  0  0  0  0  2  0  0  0  0  0  0
  193.9260  170.9120  145.4230 O   0  0  0  0  0  0  0  0  0  0  0  0
  193.7120  171.1720  144.2110 C   0  0  0  0  0  0  0  0  0  0  0  0
  192.4720  170.8510  143.6520 O   0  0  0  0  0  0  0  0  0  0  0  0
  191.3080  171.6250  143.8960 C   0  0  0  0  0  2  0  0  0  0  0  0
  189.8290  172.8350  142.2390 C   0  0  2  0  0  0  0  0  0  0  0  0
  190.2020  174.1280  142.9060 C   0  0  0  0  0  3  0  0  0  0  0  0
  188.6440  175.2680  141.3860 C   0  0  0  0  0  0  0  0  0  0  0  0
  189.6190  175.2600  142.5020 C   0  0  0  0  0  3  0  0  0  0  0  0
  190.3400  171.4860  142.7320 C   0  0  2  0  0  3  0  0  0  0  0  0
  189.2920  172.9110  140.8100 C   0  0  1  0  0  3  0  0  0  0  0  0
  188.9580  171.9790  143.1350 C   0  0  0  0  0  2  0  0  0  0  0  0
  188.4710  174.1690  140.6290 C   0  0  0  0  0  3  0  0  0  0  0  0
  186.8780  176.4440  140.3240 O   0  0  0  0  0  0  0  0  0  0  0  0
  188.1880  177.7840  141.7860 C   0  0  0  0  0  1  0  0  0  0  0  0
  187.8520  176.4850  141.1260 C   0  0  0  0  0  0  0  0  0  0  0  0
  190.4580  172.9030  139.8280 C   0  0  0  0  0  2  0  0  0  0  0  0
  189.4360  171.1540  138.6220 O   0  0  0  0  0  0  0  0  0  0  0  0
  190.4790  171.6430  139.0280 C   0  0  0  0  0  0  0  0  0  0  0  0
  191.7790  170.9820  138.7290 C   0  0  0  0  0  1  0  0  0  0  0  0
  194.4750  173.9220  144.3910 O   0  0  0  0  0  0  0  0  0  0  0  0
  191.2430  176.3820  145.5700 C   0  0  0  0  0  0  0  0  0  0  0  0
  193.4340  174.7930  144.7340 C   0  0  0  0  0  0  0  0  0  0  0  0
  191.5240  175.2770  146.2480 C   0  0  0  0  0  3  0  0  0  0  0  0
  190.4100  178.2900  144.7760 C   0  0  0  0  0  3  0  0  0  0  0  0
  190.2120  177.3820  145.7310 C   0  0  2  0  0  3  0  0  0  0  0  0
  191.9980  176.8190  144.4350 C   0  0  0  0  0  0  0  0  0  0  0  0
  191.5370  177.9300  143.9580 N   0  0  0  0  0  0  0  0  0  0  0  0
  193.1850  176.0680  143.9260 C   0  0  0  0  0  3  0  0  0  0  0  0
  192.6700  174.4570  145.7940 C   0  0  0  0  0  3  0  0  0  0  0  0
  189.1650  177.4450  146.7930 C   0  0  0  0  0  2  0  0  0  0  0  0
  186.7260  177.1030  147.2100 C   0  0  0  0  0  2  0  0  0  0  0  0
  186.8370  178.2350  146.2620 N   0  0  0  0  0  0  0  0  0  0  0  0
  187.7960  177.1050  146.2280 C   0  0  1  0  0  0  0  0  0  0  0  0
  187.6600  176.0400  145.1340 C   0  0  0  0  0  1  0  0  0  0  0  0
  185.7530  178.0700  145.2980 C   0  0  0  0  0  2  0  0  0  0  0  0
  185.2740  179.4350  144.8290 C   0  0  0  0  0  2  0  0  0  0  0  0
  185.0110  179.4020  143.4590 O   0  0  0  0  0  0  0  0  0  0  0  0
  184.7680  178.0640  143.1800 C   0  0  0  0  0  1  0  0  0  0  0  0
  1  3  1  0  0  0  0
  3  2  1  6  0  0  0
  3  4  1  0  0  0  0
  3 24  1  0  0  0  0
  4  6  1  0  0  0  0
  6  5  2  0  0  0  0
  7  8  1  0  0  0  0
  7  6  1  0  0  0  0
  9 13  1  0  0  0  0
  9 10  1  1  0  0  0
  9 15  1  0  0  0  0
 11 12  1  0  0  0  0
 12 10  2  0  0  0  0
 13 15  1  0  0  0  0
 13  8  1  1  0  0  0
 14 20  1  6  0  0  0
 14  9  1  0  0  0  0
 16 14  1  0  0  0  0
 16 11  2  0  0  0  0
 17 19  2  0  0  0  0
 19 11  1  0  0  0  0
 19 18  1  0  0  0  0
 21 22  2  0  0  0  0
 22 20  1  0  0  0  0
 23 22  1  0  0  0  0
 24 26  1  0  0  0  0
 25 29  1  0  0  0  0
 25 27  1  0  0  0  0
 26 33  1  0  0  0  0
 28 29  1  0  0  0  0
 29 34  1  1  0  0  0
 30 25  2  0  0  0  0
 31 30  1  0  0  0  0
 31 28  2  0  0  0  0
 32 30  1  0  0  0  0
 32 26  2  0  0  0  0
 33 27  2  0  0  0  0
 36 35  1  0  0  0  0
 37 38  1  6  0  0  0
 37 36  1  0  0  0  0
 37 34  1  0  0  0  0
 37 35  1  0  0  0  0
 39 36  1  0  0  0  0
 40 39  1  0  0  0  0
 41 40  1  0  0  0  0
 42 41  1  0  0  0  0
M  END
>  <MODEL>
6

>  <REMARK>
 VINA RESULT:      -6.2      2.660      7.057
  Name = 
  15 active torsions:
  status: ('A' for Active; 'I' for Inactive)
    1  A    between atoms: C_3  and  O_39
    2  A    between atoms: O_7  and  C_13
    3  A    between atoms: C_9  and  C_38
    4  A    between atoms: C_13  and  C_22
    5  A    between atoms: C_14  and  O_33
    6  A    between atoms: C_14  and  C_35
    7  A    between atoms: C_16  and  C_41
    8  A    between atoms: C_17  and  C_21
    9  A    between atoms: C_17  and  C_29
   10  A    between atoms: N_19  and  C_22
   11  A    between atoms: C_23  and  C_25
   12  A    between atoms: C_23  and  O_33
   13  A    between atoms: C_32  and  C_35
   14  A    between atoms: C_32  and  O_39
   15  A    between atoms: C_36  and  C_41
                            x       y       z     vdW  Elec       q    Type
                         _______ _______ _______ _____ _____    ______ ____

>  <TORSDO>
F 15

$$$$
=
 OpenBabel11062419413D

 42 46  0  0  1  0  0  0  0  0999 V2000
  195.4880  174.1040  143.8490 F   0  0  0  0  0  0  0  0  0  0  0  0
  196.3330  176.3200  143.9070 C   0  0  0  0  0  1  0  0  0  0  0  0
  195.2230  175.3750  144.3340 C   0  0  2  0  0  0  0  0  0  0  0  0
  195.1880  175.3370  145.8590 C   0  0  0  0  0  2  0  0  0  0  0  0
  194.2620  177.4050  146.6020 O   0  0  0  0  0  0  0  0  0  0  0  0
  194.0680  176.1780  146.4070 C   0  0  0  0  0  0  0  0  0  0  0  0
  192.8390  175.6140  146.7630 O   0  0  0  0  0  0  0  0  0  0  0  0
  191.6340  176.3630  146.7610 C   0  0  0  0  0  2  0  0  0  0  0  0
  189.3030  176.4510  145.7840 C   0  0  2  0  0  0  0  0  0  0  0  0
  188.9330  177.4410  146.8520 C   0  0  0  0  0  3  0  0  0  0  0  0
  186.6350  177.3960  145.9800 C   0  0  0  0  0  0  0  0  0  0  0  0
  187.6680  177.8590  146.9380 C   0  0  0  0  0  3  0  0  0  0  0  0
  190.6880  175.8180  145.7040 C   0  0  2  0  0  3  0  0  0  0  0  0
  188.4320  176.4130  144.5280 C   0  0  1  0  0  3  0  0  0  0  0  0
  189.5370  175.0700  146.3620 C   0  0  0  0  0  2  0  0  0  0  0  0
  186.9900  176.6980  144.8860 C   0  0  0  0  0  3  0  0  0  0  0  0
  184.5050  176.8610  146.8790 O   0  0  0  0  0  0  0  0  0  0  0  0
  184.5850  178.9630  145.7720 C   0  0  0  0  0  1  0  0  0  0  0  0
  185.2140  177.6920  146.2480 C   0  0  0  0  0  0  0  0  0  0  0  0
  188.9370  177.4470  143.5290 C   0  0  0  0  0  2  0  0  0  0  0  0
  187.3690  178.6280  142.2230 O   0  0  0  0  0  0  0  0  0  0  0  0
  187.9940  177.5910  142.3800 C   0  0  0  0  0  0  0  0  0  0  0  0
  187.8170  176.4610  141.4270 C   0  0  0  0  0  1  0  0  0  0  0  0
  193.9640  175.8430  143.8430 O   0  0  0  0  0  0  0  0  0  0  0  0
  190.7010  173.5680  142.4070 C   0  0  0  0  0  0  0  0  0  0  0  0
  192.9150  175.0260  143.4030 C   0  0  0  0  0  0  0  0  0  0  0  0
  190.9440  174.7750  141.9120 C   0  0  0  0  0  3  0  0  0  0  0  0
  189.9180  171.5420  142.9050 C   0  0  0  0  0  3  0  0  0  0  0  0
  189.6710  172.5940  142.1250 C   0  0  0  0  0  0  0  0  0  0  0  0
  191.5090  172.9590  143.4190 C   0  0  0  0  0  0  0  0  0  0  0  0
  191.0770  171.7770  143.7230 N   0  0  0  0  0  0  0  0  0  0  0  0
  192.7120  173.6310  143.9970 C   0  0  0  0  0  2  0  0  0  0  0  0
  192.1030  175.5240  142.4480 C   0  0  0  0  0  3  0  0  0  0  0  0
  188.5790  172.6930  141.1110 C   0  0  0  0  0  2  0  0  0  0  0  0
  188.1810  172.8650  138.6520 C   0  0  0  0  0  2  0  0  0  0  0  0
  189.2530  173.8330  138.9730 N   0  0  0  0  0  0  0  0  0  0  0  0
  189.1310  172.5490  139.7030 C   0  0  1  0  0  0  0  0  0  0  0  0
  190.0950  171.4040  139.3690 C   0  0  0  0  0  1  0  0  0  0  0  0
  190.2150  173.7590  137.8780 C   0  0  0  0  0  2  0  0  0  0  0  0
  189.5510  174.2000  136.5830 C   0  0  0  0  0  2  0  0  0  0  0  0
  190.4110  173.9760  135.5070 O   0  0  0  0  0  0  0  0  0  0  0  0
  190.4230  172.5970  135.3470 C   0  0  0  0  0  1  0  0  0  0  0  0
  1  3  1  0  0  0  0
  3  2  1  6  0  0  0
  3  4  1  0  0  0  0
  4  6  1  0  0  0  0
  6  5  2  0  0  0  0
  6  7  1  0  0  0  0
  8  7  1  0  0  0  0
  9 15  1  1  0  0  0
  9 10  1  0  0  0  0
 10 12  2  0  0  0  0
 11 19  1  0  0  0  0
 11 12  1  0  0  0  0
 13  9  1  0  0  0  0
 13 15  1  0  0  0  0
 13  8  1  1  0  0  0
 14 20  1  6  0  0  0
 14 16  1  0  0  0  0
 14  9  1  0  0  0  0
 16 11  2  0  0  0  0
 18 19  1  0  0  0  0
 19 17  2  0  0  0  0
 21 22  2  0  0  0  0
 22 20  1  0  0  0  0
 23 22  1  0  0  0  0
 24  3  1  0  0  0  0
 25 30  1  0  0  0  0
 26 24  1  0  0  0  0
 26 32  1  0  0  0  0
 27 25  2  0  0  0  0
 27 33  1  0  0  0  0
 28 31  1  0  0  0  0
 29 25  1  0  0  0  0
 29 28  2  0  0  0  0
 30 31  2  0  0  0  0
 30 32  1  0  0  0  0
 33 26  2  0  0  0  0
 34 29  1  0  0  0  0
 35 36  1  0  0  0  0
 35 37  1  0  0  0  0
 36 37  1  0  0  0  0
 37 38  1  6  0  0  0
 37 34  1  0  0  0  0
 39 36  1  0  0  0  0
 40 39  1  0  0  0  0
 41 40  1  0  0  0  0
 42 41  1  0  0  0  0
M  END
>  <MODEL>
7

>  <REMARK>
 VINA RESULT:      -6.1      1.824      3.318
  Name = 
  15 active torsions:
  status: ('A' for Active; 'I' for Inactive)
    1  A    between atoms: C_3  and  O_39
    2  A    between atoms: O_7  and  C_13
    3  A    between atoms: C_9  and  C_38
    4  A    between atoms: C_13  and  C_22
    5  A    between atoms: C_14  and  O_33
    6  A    between atoms: C_14  and  C_35
    7  A    between atoms: C_16  and  C_41
    8  A    between atoms: C_17  and  C_21
    9  A    between atoms: C_17  and  C_29
   10  A    between atoms: N_19  and  C_22
   11  A    between atoms: C_23  and  C_25
   12  A    between atoms: C_23  and  O_33
   13  A    between atoms: C_32  and  C_35
   14  A    between atoms: C_32  and  O_39
   15  A    between atoms: C_36  and  C_41
                            x       y       z     vdW  Elec       q    Type
                         _______ _______ _______ _____ _____    ______ ____

>  <TORSDO>
F 15

$$$$
=
 OpenBabel11062419413D

 42 46  0  0  1  0  0  0  0  0999 V2000
  185.2170  176.3650  145.3490 F   0  0  0  0  0  0  0  0  0  0  0  0
  184.1360  178.2860  146.2270 C   0  0  0  0  0  1  0  0  0  0  0  0
  185.4270  177.6940  145.6860 C   0  0  2  0  0  0  0  0  0  0  0  0
  185.8260  178.4760  144.4390 C   0  0  0  0  0  2  0  0  0  0  0  0
  184.1850  177.9300  142.7970 O   0  0  0  0  0  0  0  0  0  0  0  0
  185.3720  177.7820  143.1840 C   0  0  0  0  0  0  0  0  0  0  0  0
  186.2220  176.9290  142.4740 O   0  0  0  0  0  0  0  0  0  0  0  0
  187.4420  176.4510  143.0190 C   0  0  0  0  0  2  0  0  0  0  0  0
  189.0770  174.6680  142.2800 C   0  0  2  0  0  0  0  0  0  0  0  0
  188.9500  174.0410  143.6400 C   0  0  0  0  0  3  0  0  0  0  0  0
  190.6540  172.4070  142.9550 C   0  0  0  0  0  0  0  0  0  0  0  0
  189.7140  172.9890  143.9440 C   0  0  0  0  0  3  0  0  0  0  0  0
  188.3460  175.9520  141.9030 C   0  0  2  0  0  3  0  0  0  0  0  0
  189.5890  173.7840  141.1430 C   0  0  1  0  0  3  0  0  0  0  0  0
  189.8020  175.9970  142.3460 C   0  0  0  0  0  2  0  0  0  0  0  0
  190.6150  172.8030  141.6690 C   0  0  0  0  0  3  0  0  0  0  0  0
  192.2950  171.5910  144.4610 O   0  0  0  0  0  0  0  0  0  0  0  0
  191.9000  170.1670  142.5990 C   0  0  0  0  0  1  0  0  0  0  0  0
  191.6420  171.4050  143.3980 C   0  0  0  0  0  0  0  0  0  0  0  0
  188.4200  173.0310  140.5190 C   0  0  0  0  0  2  0  0  0  0  0  0
  188.9520  171.9370  138.4990 O   0  0  0  0  0  0  0  0  0  0  0  0
  188.5570  172.9620  139.0340 C   0  0  0  0  0  0  0  0  0  0  0  0
  188.2120  174.1510  138.2060 C   0  0  0  0  0  1  0  0  0  0  0  0
  186.4640  177.8010  146.6650 O   0  0  0  0  0  0  0  0  0  0  0  0
  190.5030  176.7700  145.9520 C   0  0  0  0  0  0  0  0  0  0  0  0
  187.7920  177.4000  146.4810 C   0  0  0  0  0  0  0  0  0  0  0  0
  190.0330  177.9470  145.5570 C   0  0  0  0  0  3  0  0  0  0  0  0
  191.7220  174.9670  146.4250 C   0  0  0  0  0  3  0  0  0  0  0  0
  191.8060  176.1570  145.8310 C   0  0  0  0  0  0  0  0  0  0  0  0
  189.7080  175.8000  146.6420 C   0  0  0  0  0  0  0  0  0  0  0  0
  190.3950  174.7440  146.9330 N   0  0  0  0  0  0  0  0  0  0  0  0
  188.2750  176.0410  146.9900 C   0  0  0  0  0  2  0  0  0  0  0  0
  188.6130  178.2560  145.8380 C   0  0  0  0  0  3  0  0  0  0  0  0
  193.0370  176.7490  145.2300 C   0  0  0  0  0  2  0  0  0  0  0  0
  195.2290  176.0850  144.2330 C   0  0  0  0  0  2  0  0  0  0  0  0
  194.9760  175.1520  145.3530 N   0  0  0  0  0  0  0  0  0  0  0  0
  193.8650  175.6850  144.5290 C   0  0  1  0  0  0  0  0  0  0  0  0
  193.2190  174.7840  143.4700 C   0  0  0  0  0  1  0  0  0  0  0  0
  195.4200  173.8370  144.9000 C   0  0  0  0  0  2  0  0  0  0  0  0
  196.5980  173.3770  145.7450 C   0  0  0  0  0  2  0  0  0  0  0  0
  196.7930  172.0040  145.5800 O   0  0  0  0  0  0  0  0  0  0  0  0
  195.5330  171.4480  145.7480 C   0  0  0  0  0  1  0  0  0  0  0  0
  1  3  1  0  0  0  0
  3  2  1  1  0  0  0
  3 24  1  0  0  0  0
  4  3  1  0  0  0  0
  5  6  2  0  0  0  0
  6  4  1  0  0  0  0
  7  8  1  0  0  0  0
  7  6  1  0  0  0  0
  9 15  1  1  0  0  0
  9 10  1  0  0  0  0
 10 12  2  0  0  0  0
 11 19  1  0  0  0  0
 11 12  1  0  0  0  0
 13  9  1  0  0  0  0
 13 15  1  0  0  0  0
 13  8  1  1  0  0  0
 14 20  1  1  0  0  0
 14 16  1  0  0  0  0
 14  9  1  0  0  0  0
 16 11  2  0  0  0  0
 18 19  1  0  0  0  0
 19 17  2  0  0  0  0
 21 22  2  0  0  0  0
 22 20  1  0  0  0  0
 23 22  1  0  0  0  0
 25 30  1  0  0  0  0
 26 24  1  0  0  0  0
 26 32  1  0  0  0  0
 27 33  1  0  0  0  0
 27 25  2  0  0  0  0
 28 31  1  0  0  0  0
 29 25  1  0  0  0  0
 29 28  2  0  0  0  0
 30 31  2  0  0  0  0
 30 32  1  0  0  0  0
 33 26  2  0  0  0  0
 34 29  1  0  0  0  0
 35 37  1  0  0  0  0
 35 36  1  0  0  0  0
 37 38  1  6  0  0  0
 37 34  1  0  0  0  0
 37 36  1  0  0  0  0
 39 36  1  0  0  0  0
 39 40  1  0  0  0  0
 41 40  1  0  0  0  0
 41 42  1  0  0  0  0
M  END
>  <MODEL>
8

>  <REMARK>
 VINA RESULT:      -6.1      2.935      7.385
  Name = 
  15 active torsions:
  status: ('A' for Active; 'I' for Inactive)
    1  A    between atoms: C_3  and  O_39
    2  A    between atoms: O_7  and  C_13
    3  A    between atoms: C_9  and  C_38
    4  A    between atoms: C_13  and  C_22
    5  A    between atoms: C_14  and  O_33
    6  A    between atoms: C_14  and  C_35
    7  A    between atoms: C_16  and  C_41
    8  A    between atoms: C_17  and  C_21
    9  A    between atoms: C_17  and  C_29
   10  A    between atoms: N_19  and  C_22
   11  A    between atoms: C_23  and  C_25
   12  A    between atoms: C_23  and  O_33
   13  A    between atoms: C_32  and  C_35
   14  A    between atoms: C_32  and  O_39
   15  A    between atoms: C_36  and  C_41
                            x       y       z     vdW  Elec       q    Type
                         _______ _______ _______ _____ _____    ______ ____

>  <TORSDO>
F 15

$$$$
=
 OpenBabel11062419413D

 42 46  0  0  1  0  0  0  0  0999 V2000
  195.8330  173.2670  143.9310 F   0  0  0  0  0  0  0  0  0  0  0  0
  197.8330  174.2060  144.7970 C   0  0  0  0  0  1  0  0  0  0  0  0
  196.4750  173.6010  145.1140 C   0  0  2  0  0  0  0  0  0  0  0  0
  196.6960  172.3410  145.9440 C   0  0  0  0  0  2  0  0  0  0  0  0
  196.4240  170.1930  144.9430 O   0  0  0  0  0  0  0  0  0  0  0  0
  195.8570  171.1970  145.4450 C   0  0  0  0  0  0  0  0  0  0  0  0
  194.4600  171.2510  145.4700 O   0  0  0  0  0  0  0  0  0  0  0  0
  193.6560  170.4280  144.6400 C   0  0  0  0  0  2  0  0  0  0  0  0
  192.4170  171.6160  142.7830 C   0  0  2  0  0  0  0  0  0  0  0  0
  191.2190  171.7010  143.6850 C   0  0  0  0  0  3  0  0  0  0  0  0
  189.9860  172.7170  141.8180 C   0  0  0  0  0  0  0  0  0  0  0  0
  190.0800  172.2050  143.2060 C   0  0  0  0  0  3  0  0  0  0  0  0
  193.7110  170.9280  143.2060 C   0  0  2  0  0  3  0  0  0  0  0  0
  192.4870  172.5980  141.6130 C   0  0  1  0  0  3  0  0  0  0  0  0
  192.6900  170.1890  142.3520 C   0  0  0  0  0  2  0  0  0  0  0  0
  191.0980  172.8640  141.0740 C   0  0  0  0  0  3  0  0  0  0  0  0
  187.7930  173.6080  141.9740 O   0  0  0  0  0  0  0  0  0  0  0  0
  188.3200  172.7100  139.8380 C   0  0  0  0  0  1  0  0  0  0  0  0
  188.6630  173.0450  141.2540 C   0  0  0  0  0  0  0  0  0  0  0  0
  193.1230  173.9020  142.0810 C   0  0  0  0  0  2  0  0  0  0  0  0
  194.2160  175.5490  140.7980 O   0  0  0  0  0  0  0  0  0  0  0  0
  194.1600  174.3710  141.1160 C   0  0  0  0  0  0  0  0  0  0  0  0
  195.1260  173.3960  140.5390 C   0  0  0  0  0  1  0  0  0  0  0  0
  195.6870  174.5310  145.8620 O   0  0  0  0  0  0  0  0  0  0  0  0
  191.7190  175.6050  144.8700 C   0  0  0  0  0  0  0  0  0  0  0  0
  194.4000  174.9590  145.5160 C   0  0  0  0  0  0  0  0  0  0  0  0
  191.9610  174.4850  145.5400 C   0  0  0  0  0  3  0  0  0  0  0  0
  190.8340  177.3430  143.7940 C   0  0  0  0  0  3  0  0  0  0  0  0
  190.4930  176.2020  144.3910 C   0  0  0  0  0  0  0  0  0  0  0  0
  192.7480  176.5120  144.4600 C   0  0  1  0  0  3  0  0  0  0  0  0
  192.2580  177.5340  143.8370 N   0  0  0  0  0  0  0  0  0  0  0  0
  194.1910  176.2770  144.7700 C   0  0  0  0  0  3  0  0  0  0  0  0
  193.3680  174.1620  145.8650 C   0  0  0  0  0  3  0  0  0  0  0  0
  189.1010  175.6960  144.5810 C   0  0  0  0  0  2  0  0  0  0  0  0
  188.6450  177.5240  146.2210 C   0  0  0  0  0  2  0  0  0  0  0  0
  187.3330  176.9370  145.8700 N   0  0  0  0  0  0  0  0  0  0  0  0
  188.5560  176.1020  145.9400 C   0  0  1  0  0  0  0  0  0  0  0  0
  188.7760  175.1960  147.1570 C   0  0  0  0  0  1  0  0  0  0  0  0
  186.5600  176.8910  147.1070 C   0  0  0  0  0  2  0  0  0  0  0  0
  186.4780  178.2840  147.7110 C   0  0  0  0  0  2  0  0  0  0  0  0
  185.5690  179.0610  146.9910 O   0  0  0  0  0  0  0  0  0  0  0  0
  184.4230  178.2830  146.9160 C   0  0  0  0  0  1  0  0  0  0  0  0
  1  3  1  0  0  0  0
  3  2  1  6  0  0  0
  3 24  1  0  0  0  0
  3  4  1  0  0  0  0
  5  6  2  0  0  0  0
  6  7  1  0  0  0  0
  6  4  1  0  0  0  0
  8  7  1  0  0  0  0
  9 15  1  6  0  0  0
  9 13  1  0  0  0  0
  9 10  1  0  0  0  0
 11 12  1  0  0  0  0
 12 10  2  0  0  0  0
 13  8  1  1  0  0  0
 14 20  1  1  0  0  0
 14  9  1  0  0  0  0
 15 13  1  0  0  0  0
 16 14  1  0  0  0  0
 16 11  2  0  0  0  0
 18 19  1  0  0  0  0
 19 11  1  0  0  0  0
 19 17  2  0  0  0  0
 21 22  2  0  0  0  0
 22 20  1  0  0  0  0
 23 22  1  0  0  0  0
 25 27  1  0  0  0  0
 26 24  1  0  0  0  0
 26 33  1  0  0  0  0
 27 33  2  0  0  0  0
 28 31  2  0  0  0  0
 28 29  1  0  0  0  0
 29 34  1  0  0  0  0
 29 25  2  0  0  0  0
 30 32  1  1  0  0  0
 30 25  1  0  0  0  0
 31 30  1  0  0  0  0
 32 26  2  0  0  0  0
 34 37  1  0  0  0  0
 36 37  1  0  0  0  0
 36 35  1  0  0  0  0
 36 39  1  0  0  0  0
 37 35  1  0  0  0  0
 37 38  1  1  0  0  0
 39 40  1  0  0  0  0
 41 40  1  0  0  0  0
 42 41  1  0  0  0  0
M  END
>  <MODEL>
9

>  <REMARK>
 VINA RESULT:      -6.1      3.169      7.684
  Name = 
  15 active torsions:
  status: ('A' for Active; 'I' for Inactive)
    1  A    between atoms: C_3  and  O_39
    2  A    between atoms: O_7  and  C_13
    3  A    between atoms: C_9  and  C_38
    4  A    between atoms: C_13  and  C_22
    5  A    between atoms: C_14  and  O_33
    6  A    between atoms: C_14  and  C_35
    7  A    between atoms: C_16  and  C_41
    8  A    between atoms: C_17  and  C_21
    9  A    between atoms: C_17  and  C_29
   10  A    between atoms: N_19  and  C_22
   11  A    between atoms: C_23  and  C_25
   12  A    between atoms: C_23  and  O_33
   13  A    between atoms: C_32  and  C_35
   14  A    between atoms: C_32  and  O_39
   15  A    between atoms: C_36  and  C_41
                            x       y       z     vdW  Elec       q    Type
                         _______ _______ _______ _____ _____    ______ ____

>  <TORSDO>
F 15

$$$$
