=
 OpenBabel11072408303D

 56 63  0  0  1  0  0  0  0  0999 V2000
  186.7160  178.0630  146.6670 C   0  0  0  0  0  2  0  0  0  0  0  0
  185.3810  177.5760  146.1050 C   0  0  0  0  0  2  0  0  0  0  0  0
  185.2560  177.9450  144.6560 C   0  0  0  0  0  0  0  0  0  0  0  0
  184.1140  178.1620  144.1750 O   0  0  0  0  0  0  0  0  0  0  0  0
  189.0920  177.3150  146.3670 C   0  0  0  0  0  3  0  0  0  0  0  0
  190.0090  176.8740  144.1750 C   0  0  0  0  0  3  0  0  0  0  0  0
  190.1810  176.9340  145.5670 C   0  0  0  0  0  0  0  0  0  0  0  0
  188.7850  177.2120  143.5940 C   0  0  0  0  0  3  0  0  0  0  0  0
  187.7000  177.6060  144.3990 C   0  0  0  0  0  0  0  0  0  0  0  0
  186.4300  177.9760  143.8150 N   0  0  0  0  0  0  0  0  0  0  0  0
  187.8550  177.6270  145.7950 C   0  0  0  0  0  0  0  0  0  0  0  0
  186.3190  178.3500  142.3980 C   0  0  2  0  0  3  0  0  0  0  0  0
  185.0420  177.7830  141.8090 C   0  0  0  0  0  2  0  0  0  0  0  0
  186.3540  177.1040  141.5270 C   0  0  1  0  0  3  0  0  0  0  0  0
  186.8720  177.5320  139.8420 S   0  0  0  0  0  0  0  0  0  0  0  0
  187.3840  175.3900  138.3700 O   0  0  0  0  0  0  0  0  0  0  0  0
  187.9840  175.0970  140.6150 N   0  0  0  0  0  2  0  0  0  0  0  0
  187.4450  175.8660  139.5350 C   0  0  0  0  0  0  0  0  0  0  0  0
  188.6460  173.8080  140.4470 C   0  0  1  0  0  3  0  0  0  0  0  0
  190.1510  173.9950  140.3910 C   0  0  0  0  0  1  0  0  0  0  0  0
  188.3240  172.9280  141.6410 C   0  0  0  0  0  2  0  0  0  0  0  0
  189.5080  172.8430  142.5850 C   0  0  1  0  0  3  0  0  0  0  0  0
  189.2010  173.5260  143.7710 O   0  0  0  0  0  1  0  0  0  0  0  0
  191.1950  171.1820  143.0810 N   0  0  0  0  0  0  0  0  0  0  0  0
  190.8500  170.4500  140.4610 N   0  0  0  0  0  2  0  0  0  0  0  0
  190.6660  170.8950  141.8020 C   0  0  0  0  0  0  0  0  0  0  0  0
  189.8690  171.3630  142.8040 C   0  0  2  0  0  3  0  0  0  0  0  0
  192.0830  169.9520  140.0210 N   0  0  0  0  0  2  0  0  0  0  0  0
  192.4700  170.6790  138.8220 C   0  0  0  0  0  2  0  0  0  0  0  0
  192.2390  169.8060  137.5960 C   0  0  1  0  0  3  0  0  0  0  0  0
  191.6200  168.6090  137.9650 O   0  0  0  0  0  1  0  0  0  0  0  0
  189.5900  172.9040  136.5180 N   0  0  0  0  0  2  0  0  0  0  0  0
  191.9150  171.9910  136.3370 C   0  0  0  0  0  2  0  0  0  0  0  0
  190.8120  172.8390  135.6990 C   0  0  0  0  0  2  0  0  0  0  0  0
  189.4290  171.7800  137.4520 C   0  0  0  0  0  2  0  0  0  0  0  0
  191.4280  170.5460  136.5350 C   0  0  0  0  0  3  0  0  0  0  0  0
  189.9320  170.4650  136.8560 C   0  0  0  0  0  2  0  0  0  0  0  0
  191.5770  176.4790  147.6120 C   0  0  0  0  0  1  0  0  0  0  0  0
  191.4520  176.6020  146.1630 N   0  0  0  0  0  0  0  0  0  0  0  0
  193.3340  177.4650  145.0180 O   0  0  0  0  0  1  0  0  0  0  0  0
  192.6070  176.3060  145.3070 C   0  0  1  0  0  3  0  0  0  0  0  0
  195.8770  174.0490  142.6950 C   0  0  1  0  0  3  0  0  0  0  0  0
  195.3360  176.2380  140.9550 S   0  0  0  0  0  1  0  0  0  0  0  0
  195.6060  176.2590  143.7120 C   0  0  0  0  0  2  0  0  0  0  0  0
  191.6740  173.6270  145.4600 O   0  0  0  0  0  1  0  0  0  0  0  0
  195.9990  173.8840  144.2090 C   0  0  2  0  0  3  0  0  0  0  0  0
  195.1450  172.8900  144.7380 O   0  0  0  0  0  0  0  0  0  0  0  0
  194.4950  173.5720  142.2440 C   0  0  1  0  0  3  0  0  0  0  0  0
  193.7750  173.1160  144.4180 C   0  0  1  0  0  3  0  0  0  0  0  0
  194.5050  172.1150  141.8020 C   0  0  0  0  0  1  0  0  0  0  0  0
  196.0990  175.5540  142.4700 C   0  0  1  0  0  3  0  0  0  0  0  0
  193.0580  173.7370  145.6090 C   0  0  1  0  0  3  0  0  0  0  0  0
  193.4740  175.1830  145.9080 C   0  0  1  0  0  3  0  0  0  0  0  0
  195.8720  175.2780  144.8360 C   0  0  2  0  0  3  0  0  0  0  0  0
  193.5180  173.8400  143.2210 O   0  0  0  0  0  0  0  0  0  0  0  0
  194.9840  175.4400  146.0800 C   0  0  0  0  0  2  0  0  0  0  0  0
  2  1  1  0  0  0  0
  3  2  1  0  0  0  0
  4  3  2  0  0  0  0
  6  7  1  0  0  0  0
  7 39  1  0  0  0  0
  7  5  2  0  0  0  0
  8  6  2  0  0  0  0
  8  9  1  0  0  0  0
  9 11  2  0  0  0  0
 10  9  1  0  0  0  0
 10  3  1  0  0  0  0
 11  5  1  0  0  0  0
 11  1  1  0  0  0  0
 12 13  1  1  0  0  0
 12 10  1  0  0  0  0
 14 15  1  6  0  0  0
 14 13  1  0  0  0  0
 14 12  1  0  0  0  0
 16 18  2  0  0  0  0
 18 15  1  0  0  0  0
 18 17  1  0  0  0  0
 19 20  1  1  0  0  0
 19 17  1  0  0  0  0
 19 21  1  0  0  0  0
 21 22  1  0  0  0  0
 22 23  1  1  0  0  0
 25 26  1  0  0  0  0
 26 27  1  0  0  0  0
 26 24  2  0  0  0  0
 27 22  1  6  0  0  0
 27 24  1  0  0  0  0
 28 25  1  0  0  0  0
 29 28  1  0  0  0  0
 30 31  1  1  0  0  0
 30 29  1  0  0  0  0
 32 35  1  0  0  0  0
 33 36  1  0  0  0  0
 34 33  1  0  0  0  0
 34 32  1  0  0  0  0
 36 37  1  0  0  0  0
 36 30  1  0  0  0  0
 37 35  1  0  0  0  0
 39 38  1  0  0  0  0
 41 40  1  1  0  0  0
 41 53  1  0  0  0  0
 41 39  1  0  0  0  0
 42 46  1  0  0  0  0
 43 51  1  0  0  0  0
 44 54  1  0  0  0  0
 45 52  1  0  0  0  0
 46 47  1  0  0  0  0
 46 54  1  0  0  0  0
 48 42  1  0  0  0  0
 48 55  1  0  0  0  0
 49 47  1  0  0  0  0
 49 52  1  0  0  0  0
 50 48  1  0  0  0  0
 51 42  1  0  0  0  0
 51 44  1  0  0  0  0
 52 53  1  0  0  0  0
 53 56  1  0  0  0  0
 54 56  1  0  0  0  0
 55 49  1  0  0  0  0
M  END
>  <MODEL>
1

>  <REMARK>
 VINA RESULT:      -7.4      0.000      0.000
  Name = 
  14 active torsions:
  status: ('A' for Active; 'I' for Inactive)
    1  A    between atoms: C_2  and  N_32
    2  A    between atoms: C_2  and  C_41
    3  A    between atoms: N_6  and  N_20
    4  A    between atoms: C_10  and  C_48
    5  A    between atoms: C_10  and  C_49
    6  A    between atoms: C_18  and  N_36
    7  A    between atoms: C_18  and  C_53
    8  A    between atoms: N_20  and  C_48
    9  A    between atoms: C_25  and  N_50
   10  A    between atoms: N_32  and  C_39
   11  A    between atoms: C_33  and  C_35
   12  A    between atoms: C_35  and  C_53
   13  A    between atoms: C_40  and  S_47
   14  A    between atoms: C_45  and  S_47
                            x       y       z     vdW  Elec       q    Type
                         _______ _______ _______ _____ _____    ______ ____

>  <TORSDO>
F 14

$$$$
=
 OpenBabel11072408303D

 56 63  0  0  1  0  0  0  0  0999 V2000
  195.2370  175.6840  143.1440 C   0  0  0  0  0  2  0  0  0  0  0  0
  195.7710  176.6860  144.1670 C   0  0  0  0  0  2  0  0  0  0  0  0
  194.7920  176.8620  145.2890 C   0  0  0  0  0  0  0  0  0  0  0  0
  194.7370  177.9680  145.8870 O   0  0  0  0  0  0  0  0  0  0  0  0
  194.9430  173.1930  143.1560 C   0  0  0  0  0  3  0  0  0  0  0  0
  193.9200  172.0510  145.0250 C   0  0  0  0  0  3  0  0  0  0  0  0
  194.5100  171.9970  143.7530 C   0  0  0  0  0  0  0  0  0  0  0  0
  193.7430  173.2750  145.6760 C   0  0  0  0  0  3  0  0  0  0  0  0
  194.1670  174.4710  145.0690 C   0  0  0  0  0  0  0  0  0  0  0  0
  193.9770  175.7490  145.7190 N   0  0  0  0  0  0  0  0  0  0  0  0
  194.7960  174.4180  143.8140 C   0  0  0  0  0  0  0  0  0  0  0  0
  193.0060  175.9160  146.8080 C   0  0  2  0  0  3  0  0  0  0  0  0
  191.9020  174.8830  146.6850 C   0  0  0  0  0  2  0  0  0  0  0  0
  191.6480  176.2970  146.2400 C   0  0  1  0  0  3  0  0  0  0  0  0
  190.6480  177.1270  147.5070 S   0  0  0  0  0  0  0  0  0  0  0  0
  189.2410  176.4850  145.3570 O   0  0  0  0  0  0  0  0  0  0  0  0
  187.9500  177.5790  146.9770 N   0  0  0  0  0  2  0  0  0  0  0  0
  189.1810  177.0370  146.4880 C   0  0  0  0  0  0  0  0  0  0  0  0
  186.6620  177.3990  146.3170 C   0  0  1  0  0  3  0  0  0  0  0  0
  185.6510  176.8170  147.2880 C   0  0  0  0  0  1  0  0  0  0  0  0
  186.1490  178.7510  145.8570 C   0  0  0  0  0  2  0  0  0  0  0  0
  185.0470  178.5910  144.8280 C   0  0  1  0  0  3  0  0  0  0  0  0
  183.8450  179.0840  145.3590 O   0  0  0  0  0  1  0  0  0  0  0  0
  185.1130  178.5830  142.4100 N   0  0  0  0  0  0  0  0  0  0  0  0
  187.7970  178.1460  142.7590 N   0  0  0  0  0  2  0  0  0  0  0  0
  186.4450  178.5810  142.8800 C   0  0  0  0  0  0  0  0  0  0  0  0
  185.4740  179.2870  143.5230 C   0  0  2  0  0  3  0  0  0  0  0  0
  188.2240  177.3880  141.6610 N   0  0  0  0  0  2  0  0  0  0  0  0
  188.4020  176.0110  142.0950 C   0  0  0  0  0  2  0  0  0  0  0  0
  189.8200  175.5550  141.7800 C   0  0  1  0  0  3  0  0  0  0  0  0
  190.7370  176.2300  142.5890 O   0  0  0  0  0  1  0  0  0  0  0  0
  189.2790  172.0330  144.0350 N   0  0  0  0  0  2  0  0  0  0  0  0
  188.5950  173.3390  142.0100 C   0  0  0  0  0  2  0  0  0  0  0  0
  188.7450  171.9630  142.6640 C   0  0  0  0  0  2  0  0  0  0  0  0
  190.0520  173.2500  144.3200 C   0  0  0  0  0  2  0  0  0  0  0  0
  189.9590  174.0410  141.9270 C   0  0  0  0  0  3  0  0  0  0  0  0
  190.8720  173.7030  143.1110 C   0  0  0  0  0  2  0  0  0  0  0  0
  195.0380  169.5370  143.8250 C   0  0  0  0  0  1  0  0  0  0  0  0
  194.6740  170.7340  143.0740 N   0  0  0  0  0  0  0  0  0  0  0  0
  195.5750  170.6500  140.8890 O   0  0  0  0  0  1  0  0  0  0  0  0
  194.3940  170.6340  141.6370 C   0  0  1  0  0  3  0  0  0  0  0  0
  191.5820  170.5610  137.8030 C   0  0  1  0  0  3  0  0  0  0  0  0
  193.1990  172.8100  137.1390 S   0  0  0  0  0  1  0  0  0  0  0  0
  193.9800  170.4060  138.2730 C   0  0  0  0  0  2  0  0  0  0  0  0
  191.8390  170.3240  142.8400 O   0  0  0  0  0  1  0  0  0  0  0  0
  191.8410  169.2110  138.4700 C   0  0  2  0  0  3  0  0  0  0  0  0
  191.0110  168.9650  139.5870 O   0  0  0  0  0  0  0  0  0  0  0  0
  190.9690  171.5210  138.8250 C   0  0  1  0  0  3  0  0  0  0  0  0
  191.1100  169.9840  140.5780 C   0  0  1  0  0  3  0  0  0  0  0  0
  189.4480  171.5200  138.7730 C   0  0  0  0  0  1  0  0  0  0  0  0
  192.9730  171.0040  137.3180 C   0  0  1  0  0  3  0  0  0  0  0  0
  192.0170  169.5230  141.7110 C   0  0  1  0  0  3  0  0  0  0  0  0
  193.4980  169.4200  141.3260 C   0  0  1  0  0  3  0  0  0  0  0  0
  193.3500  169.1020  138.7220 C   0  0  2  0  0  3  0  0  0  0  0  0
  191.4720  171.2800  140.1170 O   0  0  0  0  0  0  0  0  0  0  0  0
  193.8260  168.5710  140.0830 C   0  0  0  0  0  2  0  0  0  0  0  0
  1 11  1  0  0  0  0
  1  2  1  0  0  0  0
  2  3  1  0  0  0  0
  3 10  1  0  0  0  0
  3  4  2  0  0  0  0
  5  7  2  0  0  0  0
  5 11  1  0  0  0  0
  6  8  2  0  0  0  0
  7  6  1  0  0  0  0
  9  8  1  0  0  0  0
  9 10  1  0  0  0  0
 11  9  2  0  0  0  0
 12 10  1  6  0  0  0
 13 12  1  0  0  0  0
 14 13  1  0  0  0  0
 14 12  1  0  0  0  0
 14 15  1  1  0  0  0
 16 18  2  0  0  0  0
 18 17  1  0  0  0  0
 18 15  1  0  0  0  0
 19 17  1  0  0  0  0
 19 20  1  1  0  0  0
 21 19  1  0  0  0  0
 22 23  1  1  0  0  0
 22 21  1  0  0  0  0
 24 26  2  0  0  0  0
 24 27  1  0  0  0  0
 25 26  1  0  0  0  0
 26 27  1  0  0  0  0
 27 22  1  1  0  0  0
 28 29  1  0  0  0  0
 28 25  1  0  0  0  0
 30 36  1  0  0  0  0
 30 29  1  0  0  0  0
 30 31  1  1  0  0  0
 32 35  1  0  0  0  0
 33 34  1  0  0  0  0
 34 32  1  0  0  0  0
 36 33  1  0  0  0  0
 36 37  1  0  0  0  0
 37 35  1  0  0  0  0
 39  7  1  0  0  0  0
 39 38  1  0  0  0  0
 41 40  1  6  0  0  0
 41 39  1  0  0  0  0
 42 46  1  0  0  0  0
 42 48  1  0  0  0  0
 43 51  1  0  0  0  0
 44 54  1  0  0  0  0
 46 54  1  0  0  0  0
 46 47  1  0  0  0  0
 47 49  1  0  0  0  0
 48 55  1  0  0  0  0
 49 52  1  0  0  0  0
 50 48  1  0  0  0  0
 51 42  1  0  0  0  0
 51 44  1  0  0  0  0
 52 45  1  0  0  0  0
 53 41  1  0  0  0  0
 53 52  1  0  0  0  0
 54 56  1  0  0  0  0
 55 49  1  0  0  0  0
 56 53  1  0  0  0  0
M  END
>  <MODEL>
2

>  <REMARK>
 VINA RESULT:      -7.3      2.655      7.767
  Name = 
  14 active torsions:
  status: ('A' for Active; 'I' for Inactive)
    1  A    between atoms: C_2  and  N_32
    2  A    between atoms: C_2  and  C_41
    3  A    between atoms: N_6  and  N_20
    4  A    between atoms: C_10  and  C_48
    5  A    between atoms: C_10  and  C_49
    6  A    between atoms: C_18  and  N_36
    7  A    between atoms: C_18  and  C_53
    8  A    between atoms: N_20  and  C_48
    9  A    between atoms: C_25  and  N_50
   10  A    between atoms: N_32  and  C_39
   11  A    between atoms: C_33  and  C_35
   12  A    between atoms: C_35  and  C_53
   13  A    between atoms: C_40  and  S_47
   14  A    between atoms: C_45  and  S_47
                            x       y       z     vdW  Elec       q    Type
                         _______ _______ _______ _____ _____    ______ ____

>  <TORSDO>
F 14

$$$$
=
 OpenBabel11072408303D

 56 63  0  0  1  0  0  0  0  0999 V2000
  195.3030  175.9430  143.0560 C   0  0  0  0  0  2  0  0  0  0  0  0
  195.8630  176.7420  144.2320 C   0  0  0  0  0  2  0  0  0  0  0  0
  194.8360  176.8660  145.3190 C   0  0  0  0  0  0  0  0  0  0  0  0
  194.8470  177.8840  146.0590 O   0  0  0  0  0  0  0  0  0  0  0  0
  194.7780  173.5130  142.7120 C   0  0  0  0  0  3  0  0  0  0  0  0
  193.5390  172.2450  144.3550 C   0  0  0  0  0  3  0  0  0  0  0  0
  194.1990  172.2990  143.1170 C   0  0  0  0  0  0  0  0  0  0  0  0
  193.4370  173.3830  145.1580 C   0  0  0  0  0  3  0  0  0  0  0  0
  194.0070  174.6000  144.7420 C   0  0  0  0  0  0  0  0  0  0  0  0
  193.8970  175.7940  145.5510 N   0  0  0  0  0  0  0  0  0  0  0  0
  194.7050  174.6500  143.5240 C   0  0  0  0  0  0  0  0  0  0  0  0
  192.8790  175.9130  146.6040 C   0  0  2  0  0  3  0  0  0  0  0  0
  191.7260  174.9680  146.3230 C   0  0  0  0  0  2  0  0  0  0  0  0
  191.5780  176.4320  146.0130 C   0  0  1  0  0  3  0  0  0  0  0  0
  190.5600  177.1940  147.3090 S   0  0  0  0  0  0  0  0  0  0  0  0
  189.3250  177.3360  144.9700 O   0  0  0  0  0  0  0  0  0  0  0  0
  187.8280  177.3150  146.7720 N   0  0  0  0  0  2  0  0  0  0  0  0
  189.1480  177.2960  146.2170 C   0  0  0  0  0  0  0  0  0  0  0  0
  186.6090  177.2110  145.9780 C   0  0  1  0  0  3  0  0  0  0  0  0
  185.5500  176.4380  146.7430 C   0  0  0  0  0  1  0  0  0  0  0  0
  186.0740  178.6050  145.7100 C   0  0  0  0  0  2  0  0  0  0  0  0
  184.6490  178.5480  145.1940 C   0  0  1  0  0  3  0  0  0  0  0  0
  183.7890  179.1090  146.1490 O   0  0  0  0  0  1  0  0  0  0  0  0
  183.8900  178.5210  142.8970 N   0  0  0  0  0  0  0  0  0  0  0  0
  186.5460  178.1720  142.3130 N   0  0  0  0  0  2  0  0  0  0  0  0
  185.3020  178.5650  142.8870 C   0  0  0  0  0  0  0  0  0  0  0  0
  184.5850  179.2460  143.8230 C   0  0  2  0  0  3  0  0  0  0  0  0
  186.6000  177.4190  141.1330 N   0  0  0  0  0  2  0  0  0  0  0  0
  187.8440  176.6650  141.1250 C   0  0  0  0  0  2  0  0  0  0  0  0
  187.8670  175.7020  142.3040 C   0  0  1  0  0  3  0  0  0  0  0  0
  186.5690  175.2910  142.6190 O   0  0  0  0  0  1  0  0  0  0  0  0
  189.6640  172.1020  143.5640 N   0  0  0  0  0  2  0  0  0  0  0  0
  188.0050  173.1790  142.0270 C   0  0  0  0  0  2  0  0  0  0  0  0
  188.9620  172.0100  142.2730 C   0  0  0  0  0  2  0  0  0  0  0  0
  189.7590  173.4670  144.1030 C   0  0  0  0  0  2  0  0  0  0  0  0
  188.7770  174.5080  142.0260 C   0  0  0  0  0  3  0  0  0  0  0  0
  189.9620  174.5050  142.9980 C   0  0  0  0  0  2  0  0  0  0  0  0
  195.2980  170.1070  142.5460 C   0  0  0  0  0  1  0  0  0  0  0  0
  194.2870  171.1270  142.2810 N   0  0  0  0  0  0  0  0  0  0  0  0
  192.1040  170.4120  141.7180 O   0  0  0  0  0  1  0  0  0  0  0  0
  193.3060  170.9160  141.2110 C   0  0  1  0  0  3  0  0  0  0  0  0
  191.2250  170.7610  136.9380 C   0  0  1  0  0  3  0  0  0  0  0  0
  190.5240  168.1660  137.8800 S   0  0  0  0  0  1  0  0  0  0  0  0
  190.5350  170.5570  139.2790 C   0  0  0  0  0  2  0  0  0  0  0  0
  195.3830  171.9220  139.5540 O   0  0  0  0  0  1  0  0  0  0  0  0
  191.3350  172.1430  137.5790 C   0  0  2  0  0  3  0  0  0  0  0  0
  192.5980  172.7510  137.3940 O   0  0  0  0  0  0  0  0  0  0  0  0
  192.6210  170.1490  136.8100 C   0  0  1  0  0  3  0  0  0  0  0  0
  193.6700  171.9450  137.8730 C   0  0  1  0  0  3  0  0  0  0  0  0
  193.2450  170.4210  135.4480 C   0  0  0  0  0  1  0  0  0  0  0  0
  190.3110  169.9820  137.8990 C   0  0  1  0  0  3  0  0  0  0  0  0
  194.1270  172.4410  139.2380 C   0  0  1  0  0  3  0  0  0  0  0  0
  193.1180  172.1910  140.3660 C   0  0  1  0  0  3  0  0  0  0  0  0
  190.8610  172.0170  139.0320 C   0  0  2  0  0  3  0  0  0  0  0  0
  193.4490  170.5390  137.8790 O   0  0  0  0  0  0  0  0  0  0  0  0
  191.6850  172.7060  140.1310 C   0  0  0  0  0  2  0  0  0  0  0  0
  1 11  1  0  0  0  0
  1  2  1  0  0  0  0
  2  3  1  0  0  0  0
  3 10  1  0  0  0  0
  3  4  2  0  0  0  0
  5  7  2  0  0  0  0
  5 11  1  0  0  0  0
  6  8  2  0  0  0  0
  7  6  1  0  0  0  0
  9  8  1  0  0  0  0
  9 10  1  0  0  0  0
 11  9  2  0  0  0  0
 12 10  1  6  0  0  0
 13 12  1  0  0  0  0
 14 13  1  0  0  0  0
 14 12  1  0  0  0  0
 14 15  1  1  0  0  0
 16 18  2  0  0  0  0
 18 17  1  0  0  0  0
 18 15  1  0  0  0  0
 19 20  1  1  0  0  0
 19 17  1  0  0  0  0
 21 19  1  0  0  0  0
 22 21  1  0  0  0  0
 22 23  1  1  0  0  0
 24 27  1  0  0  0  0
 25 26  1  0  0  0  0
 26 24  2  0  0  0  0
 26 27  1  0  0  0  0
 27 22  1  1  0  0  0
 28 25  1  0  0  0  0
 29 28  1  0  0  0  0
 29 30  1  0  0  0  0
 30 31  1  6  0  0  0
 32 35  1  0  0  0  0
 33 34  1  0  0  0  0
 34 32  1  0  0  0  0
 36 33  1  0  0  0  0
 36 30  1  0  0  0  0
 36 37  1  0  0  0  0
 37 35  1  0  0  0  0
 39 38  1  0  0  0  0
 39  7  1  0  0  0  0
 41 40  1  1  0  0  0
 41 39  1  0  0  0  0
 42 46  1  0  0  0  0
 42 51  1  0  0  0  0
 43 51  1  0  0  0  0
 46 54  1  0  0  0  0
 47 46  1  0  0  0  0
 47 49  1  0  0  0  0
 48 42  1  0  0  0  0
 48 55  1  0  0  0  0
 49 55  1  0  0  0  0
 49 52  1  0  0  0  0
 50 48  1  0  0  0  0
 51 44  1  0  0  0  0
 52 45  1  0  0  0  0
 52 53  1  0  0  0  0
 53 41  1  0  0  0  0
 54 44  1  0  0  0  0
 54 56  1  0  0  0  0
 56 53  1  0  0  0  0
M  END
>  <MODEL>
3

>  <REMARK>
 VINA RESULT:      -7.0      2.725      7.996
  Name = 
  14 active torsions:
  status: ('A' for Active; 'I' for Inactive)
    1  A    between atoms: C_2  and  N_32
    2  A    between atoms: C_2  and  C_41
    3  A    between atoms: N_6  and  N_20
    4  A    between atoms: C_10  and  C_48
    5  A    between atoms: C_10  and  C_49
    6  A    between atoms: C_18  and  N_36
    7  A    between atoms: C_18  and  C_53
    8  A    between atoms: N_20  and  C_48
    9  A    between atoms: C_25  and  N_50
   10  A    between atoms: N_32  and  C_39
   11  A    between atoms: C_33  and  C_35
   12  A    between atoms: C_35  and  C_53
   13  A    between atoms: C_40  and  S_47
   14  A    between atoms: C_45  and  S_47
                            x       y       z     vdW  Elec       q    Type
                         _______ _______ _______ _____ _____    ______ ____

>  <TORSDO>
F 14

$$$$
=
 OpenBabel11072408303D

 56 63  0  0  1  0  0  0  0  0999 V2000
  194.7670  177.0710  144.9970 C   0  0  0  0  0  2  0  0  0  0  0  0
  194.4730  177.0890  146.4970 C   0  0  0  0  0  2  0  0  0  0  0  0
  193.1670  176.4090  146.7850 C   0  0  0  0  0  0  0  0  0  0  0  0
  192.4860  176.7840  147.7730 O   0  0  0  0  0  0  0  0  0  0  0  0
  195.4570  175.2690  143.3940 C   0  0  0  0  0  3  0  0  0  0  0  0
  194.3450  173.1240  143.3510 C   0  0  0  0  0  3  0  0  0  0  0  0
  195.3260  173.9860  142.8380 C   0  0  0  0  0  0  0  0  0  0  0  0
  193.4960  173.5430  144.3780 C   0  0  0  0  0  3  0  0  0  0  0  0
  193.6220  174.8340  144.9230 C   0  0  0  0  0  0  0  0  0  0  0  0
  192.7410  175.2920  145.9750 N   0  0  0  0  0  0  0  0  0  0  0  0
  194.6300  175.6860  144.4420 C   0  0  0  0  0  0  0  0  0  0  0  0
  191.4570  174.6290  146.2400 C   0  0  2  0  0  3  0  0  0  0  0  0
  190.5690  174.7030  145.0120 C   0  0  0  0  0  2  0  0  0  0  0  0
  190.3240  175.6400  146.1630 C   0  0  1  0  0  3  0  0  0  0  0  0
  188.8860  175.0410  147.0940 S   0  0  0  0  0  0  0  0  0  0  0  0
  188.7070  177.6610  146.7440 O   0  0  0  0  0  0  0  0  0  0  0  0
  186.6070  176.6340  146.8990 N   0  0  0  0  0  2  0  0  0  0  0  0
  188.0380  176.6040  146.8980 C   0  0  0  0  0  0  0  0  0  0  0  0
  185.8170  177.8140  146.5650 C   0  0  1  0  0  3  0  0  0  0  0  0
  186.0110  178.8910  147.6160 C   0  0  0  0  0  1  0  0  0  0  0  0
  186.2920  178.3640  145.2330 C   0  0  0  0  0  2  0  0  0  0  0  0
  185.1170  178.6800  144.3280 C   0  0  1  0  0  3  0  0  0  0  0  0
  185.1690  180.0330  143.9600 O   0  0  0  0  0  1  0  0  0  0  0  0
  185.6510  176.4920  143.4450 N   0  0  0  0  0  0  0  0  0  0  0  0
  187.6170  177.8280  142.0780 N   0  0  0  0  0  2  0  0  0  0  0  0
  186.4070  177.4460  142.7280 C   0  0  0  0  0  0  0  0  0  0  0  0
  185.1330  177.7160  143.1280 C   0  0  2  0  0  3  0  0  0  0  0  0
  188.6740  176.9240  141.9140 N   0  0  0  0  0  2  0  0  0  0  0  0
  188.1830  175.7740  141.1710 C   0  0  0  0  0  2  0  0  0  0  0  0
  188.6980  174.4930  141.8120 C   0  0  1  0  0  3  0  0  0  0  0  0
  187.6420  173.6080  142.0440 O   0  0  0  0  0  1  0  0  0  0  0  0
  190.4540  171.0580  140.1090 N   0  0  0  0  0  2  0  0  0  0  0  0
  189.2180  173.1960  139.6880 C   0  0  0  0  0  2  0  0  0  0  0  0
  190.1910  172.1440  139.1500 C   0  0  0  0  0  2  0  0  0  0  0  0
  190.2150  171.4230  141.5130 C   0  0  0  0  0  2  0  0  0  0  0  0
  189.7870  173.8460  140.9590 C   0  0  0  0  0  3  0  0  0  0  0  0
  190.6150  172.8710  141.8040 C   0  0  0  0  0  2  0  0  0  0  0  0
  197.2890  172.6340  142.0270 C   0  0  0  0  0  1  0  0  0  0  0  0
  196.1900  173.5580  141.7650 N   0  0  0  0  0  0  0  0  0  0  0  0
  197.0720  173.9560  139.6060 O   0  0  0  0  0  1  0  0  0  0  0  0
  195.9130  173.9860  140.3880 C   0  0  1  0  0  3  0  0  0  0  0  0
  194.7110  174.4790  135.8140 C   0  0  1  0  0  3  0  0  0  0  0  0
  197.2250  175.8160  135.7710 S   0  0  0  0  0  1  0  0  0  0  0  0
  196.5450  173.4770  137.0890 C   0  0  0  0  0  2  0  0  0  0  0  0
  193.2180  174.8540  140.6230 O   0  0  0  0  0  1  0  0  0  0  0  0
  194.1650  173.2390  136.5200 C   0  0  2  0  0  3  0  0  0  0  0  0
  192.9970  173.4890  137.2770 O   0  0  0  0  0  0  0  0  0  0  0  0
  194.2520  175.7310  136.5640 C   0  0  1  0  0  3  0  0  0  0  0  0
  193.1810  174.5160  138.2470 C   0  0  1  0  0  3  0  0  0  0  0  0
  192.9690  176.3110  135.9860 C   0  0  0  0  0  1  0  0  0  0  0  0
  196.2350  174.2800  135.8470 C   0  0  1  0  0  3  0  0  0  0  0  0
  193.4040  173.9000  139.6210 C   0  0  1  0  0  3  0  0  0  0  0  0
  194.7500  173.1820  139.7760 C   0  0  1  0  0  3  0  0  0  0  0  0
  195.3290  172.5920  137.2810 C   0  0  2  0  0  3  0  0  0  0  0  0
  194.1700  175.4940  137.9500 O   0  0  0  0  0  0  0  0  0  0  0  0
  195.0820  172.1100  138.7190 C   0  0  0  0  0  2  0  0  0  0  0  0
  1  2  1  0  0  0  0
  2  3  1  0  0  0  0
  3  4  2  0  0  0  0
  5 11  1  0  0  0  0
  6  8  2  0  0  0  0
  7  6  1  0  0  0  0
  7  5  2  0  0  0  0
  8  9  1  0  0  0  0
  9 10  1  0  0  0  0
 10 12  1  0  0  0  0
 10  3  1  0  0  0  0
 11  9  2  0  0  0  0
 11  1  1  0  0  0  0
 12 13  1  6  0  0  0
 13 14  1  0  0  0  0
 14 12  1  0  0  0  0
 14 15  1  1  0  0  0
 16 18  2  0  0  0  0
 18 17  1  0  0  0  0
 18 15  1  0  0  0  0
 19 17  1  0  0  0  0
 19 20  1  1  0  0  0
 21 19  1  0  0  0  0
 22 23  1  6  0  0  0
 22 21  1  0  0  0  0
 25 26  1  0  0  0  0
 26 27  1  0  0  0  0
 26 24  2  0  0  0  0
 27 24  1  0  0  0  0
 27 22  1  1  0  0  0
 28 25  1  0  0  0  0
 29 30  1  0  0  0  0
 29 28  1  0  0  0  0
 30 31  1  6  0  0  0
 32 35  1  0  0  0  0
 33 36  1  0  0  0  0
 34 33  1  0  0  0  0
 34 32  1  0  0  0  0
 35 37  1  0  0  0  0
 36 37  1  0  0  0  0
 36 30  1  0  0  0  0
 39 38  1  0  0  0  0
 39  7  1  0  0  0  0
 41 40  1  6  0  0  0
 41 39  1  0  0  0  0
 42 51  1  0  0  0  0
 42 46  1  0  0  0  0
 42 48  1  0  0  0  0
 43 51  1  0  0  0  0
 44 54  1  0  0  0  0
 46 47  1  0  0  0  0
 46 54  1  0  0  0  0
 47 49  1  0  0  0  0
 48 55  1  0  0  0  0
 49 52  1  0  0  0  0
 50 48  1  0  0  0  0
 51 44  1  0  0  0  0
 52 53  1  0  0  0  0
 52 45  1  0  0  0  0
 53 41  1  0  0  0  0
 54 56  1  0  0  0  0
 55 49  1  0  0  0  0
 56 53  1  0  0  0  0
M  END
>  <MODEL>
4

>  <REMARK>
 VINA RESULT:      -6.9      2.985      7.133
  Name = 
  14 active torsions:
  status: ('A' for Active; 'I' for Inactive)
    1  A    between atoms: C_2  and  N_32
    2  A    between atoms: C_2  and  C_41
    3  A    between atoms: N_6  and  N_20
    4  A    between atoms: C_10  and  C_48
    5  A    between atoms: C_10  and  C_49
    6  A    between atoms: C_18  and  N_36
    7  A    between atoms: C_18  and  C_53
    8  A    between atoms: N_20  and  C_48
    9  A    between atoms: C_25  and  N_50
   10  A    between atoms: N_32  and  C_39
   11  A    between atoms: C_33  and  C_35
   12  A    between atoms: C_35  and  C_53
   13  A    between atoms: C_40  and  S_47
   14  A    between atoms: C_45  and  S_47
                            x       y       z     vdW  Elec       q    Type
                         _______ _______ _______ _____ _____    ______ ____

>  <TORSDO>
F 14

$$$$
=
 OpenBabel11072408303D

 56 63  0  0  1  0  0  0  0  0999 V2000
  187.0660  176.3580  139.6780 C   0  0  0  0  0  2  0  0  0  0  0  0
  186.4600  177.7610  139.7320 C   0  0  0  0  0  2  0  0  0  0  0  0
  185.6080  177.9180  140.9570 C   0  0  0  0  0  0  0  0  0  0  0  0
  184.6220  178.6980  140.9210 O   0  0  0  0  0  0  0  0  0  0  0  0
  188.8800  175.2100  140.9760 C   0  0  0  0  0  3  0  0  0  0  0  0
  188.9660  175.3150  143.3890 C   0  0  0  0  0  3  0  0  0  0  0  0
  189.5090  174.8520  142.1800 C   0  0  0  0  0  0  0  0  0  0  0  0
  187.8080  176.0960  143.3970 C   0  0  0  0  0  3  0  0  0  0  0  0
  187.1750  176.4410  142.1890 C   0  0  0  0  0  0  0  0  0  0  0  0
  185.9660  177.2340  142.1780 N   0  0  0  0  0  0  0  0  0  0  0  0
  187.7370  176.0160  140.9740 C   0  0  0  0  0  0  0  0  0  0  0  0
  185.1290  177.3710  143.3780 C   0  0  2  0  0  3  0  0  0  0  0  0
  184.9750  178.8360  143.7400 C   0  0  0  0  0  2  0  0  0  0  0  0
  185.9410  177.9800  144.5110 C   0  0  1  0  0  3  0  0  0  0  0  0
  185.1910  177.5660  146.1110 S   0  0  0  0  0  0  0  0  0  0  0  0
  187.0890  178.2840  147.8140 O   0  0  0  0  0  0  0  0  0  0  0  0
  187.7170  176.4540  146.4940 N   0  0  0  0  0  2  0  0  0  0  0  0
  186.7930  177.4690  146.9000 C   0  0  0  0  0  0  0  0  0  0  0  0
  188.9680  176.1660  147.1880 C   0  0  1  0  0  3  0  0  0  0  0  0
  189.3710  174.7200  146.9660 C   0  0  0  0  0  1  0  0  0  0  0  0
  190.0620  177.0530  146.6220 C   0  0  0  0  0  2  0  0  0  0  0  0
  191.2370  176.2230  146.1440 C   0  0  1  0  0  3  0  0  0  0  0  0
  191.6770  176.7150  144.9060 O   0  0  0  0  0  1  0  0  0  0  0  0
  193.3380  177.1060  146.9550 N   0  0  0  0  0  0  0  0  0  0  0  0
  194.3040  174.6130  146.3500 N   0  0  0  0  0  2  0  0  0  0  0  0
  193.4990  175.7170  146.7560 C   0  0  0  0  0  0  0  0  0  0  0  0
  192.3290  176.2280  147.2300 C   0  0  2  0  0  3  0  0  0  0  0  0
  195.6490  174.7810  145.9980 N   0  0  0  0  0  2  0  0  0  0  0  0
  195.8120  174.3870  144.6070 C   0  0  0  0  0  2  0  0  0  0  0  0
  197.2590  174.5960  144.1820 C   0  0  1  0  0  3  0  0  0  0  0  0
  197.8560  173.3700  143.8770 O   0  0  0  0  0  1  0  0  0  0  0  0
  196.1660  175.7310  140.2710 N   0  0  0  0  0  2  0  0  0  0  0  0
  196.0150  176.2580  142.7160 C   0  0  0  0  0  2  0  0  0  0  0  0
  195.9950  176.7900  141.2810 C   0  0  0  0  0  2  0  0  0  0  0  0
  196.8430  174.5260  140.7710 C   0  0  0  0  0  2  0  0  0  0  0  0
  197.3560  175.5690  143.0100 C   0  0  0  0  0  3  0  0  0  0  0  0
  197.9410  174.8640  141.7810 C   0  0  0  0  0  2  0  0  0  0  0  0
  191.1680  173.4140  143.4110 C   0  0  0  0  0  1  0  0  0  0  0  0
  190.6940  174.0300  142.1760 N   0  0  0  0  0  0  0  0  0  0  0  0
  192.5420  174.5110  140.7790 O   0  0  0  0  0  1  0  0  0  0  0  0
  191.3810  173.7430  140.9110 C   0  0  1  0  0  3  0  0  0  0  0  0
  191.9720  171.8060  136.6090 C   0  0  1  0  0  3  0  0  0  0  0  0
  192.2210  174.5550  135.9080 S   0  0  0  0  0  1  0  0  0  0  0  0
  193.2530  173.2450  138.1200 C   0  0  0  0  0  2  0  0  0  0  0  0
  189.2400  171.8760  140.8540 O   0  0  0  0  0  1  0  0  0  0  0  0
  192.4230  170.9550  137.7940 C   0  0  2  0  0  3  0  0  0  0  0  0
  191.3670  170.2490  138.4160 O   0  0  0  0  0  0  0  0  0  0  0  0
  190.4930  172.1590  136.7720 C   0  0  1  0  0  3  0  0  0  0  0  0
  190.3160  171.1070  138.8500 C   0  0  1  0  0  3  0  0  0  0  0  0
  189.5840  171.1750  136.0500 C   0  0  0  0  0  1  0  0  0  0  0  0
  192.8960  173.0340  136.6670 C   0  0  1  0  0  3  0  0  0  0  0  0
  190.4350  171.3600  140.3470 C   0  0  1  0  0  3  0  0  0  0  0  0
  191.6330  172.2330  140.7420 C   0  0  1  0  0  3  0  0  0  0  0  0
  193.2610  171.8510  138.7150 C   0  0  2  0  0  3  0  0  0  0  0  0
  190.1540  172.3220  138.1290 O   0  0  0  0  0  0  0  0  0  0  0  0
  193.0120  171.7760  140.2290 C   0  0  0  0  0  2  0  0  0  0  0  0
  1  2  1  0  0  0  0
  1 11  1  0  0  0  0
  2  3  1  0  0  0  0
  3 10  1  0  0  0  0
  4  3  2  0  0  0  0
  5  7  1  0  0  0  0
  6  8  1  0  0  0  0
  7  6  2  0  0  0  0
  9  8  2  0  0  0  0
 10  9  1  0  0  0  0
 11  5  2  0  0  0  0
 11  9  1  0  0  0  0
 12 10  1  6  0  0  0
 12 13  1  0  0  0  0
 12 14  1  0  0  0  0
 13 14  1  0  0  0  0
 14 15  1  1  0  0  0
 15 18  1  0  0  0  0
 17 18  1  0  0  0  0
 17 19  1  0  0  0  0
 18 16  2  0  0  0  0
 19 20  1  6  0  0  0
 21 19  1  0  0  0  0
 22 23  1  6  0  0  0
 22 21  1  0  0  0  0
 24 27  1  0  0  0  0
 25 26  1  0  0  0  0
 26 24  2  0  0  0  0
 26 27  1  0  0  0  0
 27 22  1  6  0  0  0
 28 25  1  0  0  0  0
 29 28  1  0  0  0  0
 30 31  1  6  0  0  0
 30 29  1  0  0  0  0
 32 35  1  0  0  0  0
 32 34  1  0  0  0  0
 33 36  1  0  0  0  0
 34 33  1  0  0  0  0
 35 37  1  0  0  0  0
 36 30  1  0  0  0  0
 37 36  1  0  0  0  0
 39  7  1  0  0  0  0
 39 38  1  0  0  0  0
 41 40  1  1  0  0  0
 41 39  1  0  0  0  0
 42 51  1  0  0  0  0
 42 48  1  0  0  0  0
 42 46  1  0  0  0  0
 43 51  1  0  0  0  0
 44 54  1  0  0  0  0
 46 47  1  0  0  0  0
 46 54  1  0  0  0  0
 47 49  1  0  0  0  0
 48 55  1  0  0  0  0
 49 52  1  0  0  0  0
 50 48  1  0  0  0  0
 51 44  1  0  0  0  0
 52 53  1  0  0  0  0
 52 45  1  0  0  0  0
 53 41  1  0  0  0  0
 54 56  1  0  0  0  0
 55 49  1  0  0  0  0
 56 53  1  0  0  0  0
M  END
>  <MODEL>
5

>  <REMARK>
 VINA RESULT:      -6.8      2.550      6.704
  Name = 
  14 active torsions:
  status: ('A' for Active; 'I' for Inactive)
    1  A    between atoms: C_2  and  N_32
    2  A    between atoms: C_2  and  C_41
    3  A    between atoms: N_6  and  N_20
    4  A    between atoms: C_10  and  C_48
    5  A    between atoms: C_10  and  C_49
    6  A    between atoms: C_18  and  N_36
    7  A    between atoms: C_18  and  C_53
    8  A    between atoms: N_20  and  C_48
    9  A    between atoms: C_25  and  N_50
   10  A    between atoms: N_32  and  C_39
   11  A    between atoms: C_33  and  C_35
   12  A    between atoms: C_35  and  C_53
   13  A    between atoms: C_40  and  S_47
   14  A    between atoms: C_45  and  S_47
                            x       y       z     vdW  Elec       q    Type
                         _______ _______ _______ _____ _____    ______ ____

>  <TORSDO>
F 14

$$$$
=
 OpenBabel11072408303D

 56 63  0  0  1  0  0  0  0  0999 V2000
  187.1340  176.1440  139.6050 C   0  0  0  0  0  2  0  0  0  0  0  0
  186.6730  177.5970  139.7160 C   0  0  0  0  0  2  0  0  0  0  0  0
  185.8300  177.7870  140.9430 C   0  0  0  0  0  0  0  0  0  0  0  0
  184.9280  178.6650  140.9370 O   0  0  0  0  0  0  0  0  0  0  0  0
  188.8120  174.7640  140.8600 C   0  0  0  0  0  3  0  0  0  0  0  0
  188.8860  174.7560  143.2760 C   0  0  0  0  0  3  0  0  0  0  0  0
  189.3900  174.2930  142.0500 C   0  0  0  0  0  0  0  0  0  0  0  0
  187.8130  175.6500  143.3120 C   0  0  0  0  0  3  0  0  0  0  0  0
  187.2290  176.1080  142.1170 C   0  0  0  0  0  0  0  0  0  0  0  0
  186.1060  177.0200  142.1350 N   0  0  0  0  0  0  0  0  0  0  0  0
  187.7560  175.6800  140.8880 C   0  0  0  0  0  0  0  0  0  0  0  0
  185.2780  177.1910  143.3360 C   0  0  2  0  0  3  0  0  0  0  0  0
  185.0160  178.6640  143.5830 C   0  0  0  0  0  2  0  0  0  0  0  0
  186.0550  177.9480  144.4010 C   0  0  1  0  0  3  0  0  0  0  0  0
  185.3600  177.6100  146.0430 S   0  0  0  0  0  0  0  0  0  0  0  0
  187.2540  178.2930  147.7640 O   0  0  0  0  0  0  0  0  0  0  0  0
  187.9660  176.6470  146.2570 N   0  0  0  0  0  2  0  0  0  0  0  0
  186.9880  177.5510  146.7810 C   0  0  0  0  0  0  0  0  0  0  0  0
  189.2530  176.3820  146.8900 C   0  0  1  0  0  3  0  0  0  0  0  0
  189.3630  174.9160  147.2640 C   0  0  0  0  0  1  0  0  0  0  0  0
  190.3630  176.7020  145.9050 C   0  0  0  0  0  2  0  0  0  0  0  0
  191.5710  175.8180  146.1460 C   0  0  1  0  0  3  0  0  0  0  0  0
  191.7170  174.9320  145.0690 O   0  0  0  0  0  1  0  0  0  0  0  0
  193.3690  177.1400  145.2140 N   0  0  0  0  0  0  0  0  0  0  0  0
  194.9690  175.1140  146.1380 N   0  0  0  0  0  2  0  0  0  0  0  0
  193.9460  176.0920  145.9650 C   0  0  0  0  0  0  0  0  0  0  0  0
  192.8050  176.7090  146.3800 C   0  0  2  0  0  3  0  0  0  0  0  0
  196.0650  175.0430  145.2690 N   0  0  0  0  0  2  0  0  0  0  0  0
  196.2580  173.6530  144.8850 C   0  0  0  0  0  2  0  0  0  0  0  0
  195.2330  173.2670  143.8290 C   0  0  1  0  0  3  0  0  0  0  0  0
  195.7780  173.4070  142.5500 O   0  0  0  0  0  1  0  0  0  0  0  0
  195.7970  169.3490  145.2820 N   0  0  0  0  0  2  0  0  0  0  0  0
  194.5730  171.5180  145.5530 C   0  0  0  0  0  2  0  0  0  0  0  0
  194.5660  170.0010  145.7590 C   0  0  0  0  0  2  0  0  0  0  0  0
  196.5240  170.1100  144.2550 C   0  0  0  0  0  2  0  0  0  0  0  0
  194.7090  171.8510  144.0580 C   0  0  0  0  0  3  0  0  0  0  0  0
  195.5730  170.8360  143.3020 C   0  0  0  0  0  2  0  0  0  0  0  0
  190.5690  172.2820  143.0010 C   0  0  0  0  0  1  0  0  0  0  0  0
  190.4860  173.3560  142.0160 N   0  0  0  0  0  0  0  0  0  0  0  0
  192.5350  174.2810  141.2790 O   0  0  0  0  0  1  0  0  0  0  0  0
  191.4790  173.4300  140.9370 C   0  0  1  0  0  3  0  0  0  0  0  0
  193.5530  172.6950  136.7230 C   0  0  1  0  0  3  0  0  0  0  0  0
  193.6710  175.5390  136.7970 S   0  0  0  0  0  1  0  0  0  0  0  0
  194.1440  173.7450  138.8540 C   0  0  0  0  0  2  0  0  0  0  0  0
  189.6910  171.5570  139.7690 O   0  0  0  0  0  1  0  0  0  0  0  0
  193.7280  171.5850  137.7580 C   0  0  2  0  0  3  0  0  0  0  0  0
  192.6260  170.7010  137.8280 O   0  0  0  0  0  0  0  0  0  0  0  0
  192.0620  172.9340  136.4830 C   0  0  1  0  0  3  0  0  0  0  0  0
  191.3990  171.3750  138.0920 C   0  0  1  0  0  3  0  0  0  0  0  0
  191.5330  172.1340  135.3010 C   0  0  0  0  0  1  0  0  0  0  0  0
  194.2640  173.9020  137.3560 C   0  0  1  0  0  3  0  0  0  0  0  0
  191.0350  171.2380  139.5640 C   0  0  1  0  0  3  0  0  0  0  0  0
  191.9480  172.0260  140.5120 C   0  0  1  0  0  3  0  0  0  0  0  0
  194.1400  172.2460  139.0790 C   0  0  2  0  0  3  0  0  0  0  0  0
  191.3170  172.7280  137.6600 O   0  0  0  0  0  0  0  0  0  0  0  0
  193.4620  171.7730  140.3740 C   0  0  0  0  0  2  0  0  0  0  0  0
  1  2  1  0  0  0  0
  1 11  1  0  0  0  0
  2  3  1  0  0  0  0
  3 10  1  0  0  0  0
  4  3  2  0  0  0  0
  5 11  2  0  0  0  0
  5  7  1  0  0  0  0
  6  8  1  0  0  0  0
  7  6  2  0  0  0  0
  9 10  1  0  0  0  0
  9  8  2  0  0  0  0
 11  9  1  0  0  0  0
 12 10  1  6  0  0  0
 12 13  1  0  0  0  0
 12 14  1  0  0  0  0
 13 14  1  0  0  0  0
 14 15  1  1  0  0  0
 15 18  1  0  0  0  0
 17 18  1  0  0  0  0
 17 19  1  0  0  0  0
 18 16  2  0  0  0  0
 19 20  1  6  0  0  0
 21 22  1  0  0  0  0
 21 19  1  0  0  0  0
 22 23  1  6  0  0  0
 24 26  2  0  0  0  0
 24 27  1  0  0  0  0
 26 25  1  0  0  0  0
 26 27  1  0  0  0  0
 27 22  1  6  0  0  0
 28 25  1  0  0  0  0
 29 28  1  0  0  0  0
 30 31  1  6  0  0  0
 30 36  1  0  0  0  0
 30 29  1  0  0  0  0
 32 34  1  0  0  0  0
 33 34  1  0  0  0  0
 35 32  1  0  0  0  0
 36 33  1  0  0  0  0
 37 36  1  0  0  0  0
 37 35  1  0  0  0  0
 39  7  1  0  0  0  0
 39 38  1  0  0  0  0
 41 40  1  1  0  0  0
 41 39  1  0  0  0  0
 42 51  1  0  0  0  0
 42 46  1  0  0  0  0
 43 51  1  0  0  0  0
 44 54  1  0  0  0  0
 46 47  1  0  0  0  0
 46 54  1  0  0  0  0
 47 49  1  0  0  0  0
 48 42  1  0  0  0  0
 48 55  1  0  0  0  0
 49 52  1  0  0  0  0
 50 48  1  0  0  0  0
 51 44  1  0  0  0  0
 52 45  1  0  0  0  0
 52 53  1  0  0  0  0
 53 41  1  0  0  0  0
 54 56  1  0  0  0  0
 55 49  1  0  0  0  0
 56 53  1  0  0  0  0
M  END
>  <MODEL>
6

>  <REMARK>
 VINA RESULT:      -6.7      2.571      6.624
  Name = 
  14 active torsions:
  status: ('A' for Active; 'I' for Inactive)
    1  A    between atoms: C_2  and  N_32
    2  A    between atoms: C_2  and  C_41
    3  A    between atoms: N_6  and  N_20
    4  A    between atoms: C_10  and  C_48
    5  A    between atoms: C_10  and  C_49
    6  A    between atoms: C_18  and  N_36
    7  A    between atoms: C_18  and  C_53
    8  A    between atoms: N_20  and  C_48
    9  A    between atoms: C_25  and  N_50
   10  A    between atoms: N_32  and  C_39
   11  A    between atoms: C_33  and  C_35
   12  A    between atoms: C_35  and  C_53
   13  A    between atoms: C_40  and  S_47
   14  A    between atoms: C_45  and  S_47
                            x       y       z     vdW  Elec       q    Type
                         _______ _______ _______ _____ _____    ______ ____

>  <TORSDO>
F 14

$$$$
=
 OpenBabel11072408303D

 56 63  0  0  1  0  0  0  0  0999 V2000
  193.3350  172.8420  144.5030 C   0  0  0  0  0  2  0  0  0  0  0  0
  194.7620  172.2990  144.4340 C   0  0  0  0  0  2  0  0  0  0  0  0
  195.6060  173.1550  143.5370 C   0  0  0  0  0  0  0  0  0  0  0  0
  196.5600  172.6290  142.9080 O   0  0  0  0  0  0  0  0  0  0  0  0
  192.3010  174.8490  145.5970 C   0  0  0  0  0  3  0  0  0  0  0  0
  193.2840  177.0480  145.3870 C   0  0  0  0  0  3  0  0  0  0  0  0
  192.2640  176.2230  145.8880 C   0  0  0  0  0  0  0  0  0  0  0  0
  194.3030  176.5170  144.5930 C   0  0  0  0  0  3  0  0  0  0  0  0
  194.3290  175.1420  144.2940 C   0  0  0  0  0  0  0  0  0  0  0  0
  195.3660  174.5780  143.4590 N   0  0  0  0  0  0  0  0  0  0  0  0
  193.3340  174.3060  144.8270 C   0  0  0  0  0  0  0  0  0  0  0  0
  196.1790  175.4210  142.5730 C   0  0  2  0  0  3  0  0  0  0  0  0
  195.2920  176.4030  141.8310 C   0  0  0  0  0  2  0  0  0  0  0  0
  195.7940  175.1750  141.1230 C   0  0  1  0  0  3  0  0  0  0  0  0
  197.1520  175.6610  140.0220 S   0  0  0  0  0  0  0  0  0  0  0  0
  197.3240  173.3560  138.7280 O   0  0  0  0  0  0  0  0  0  0  0  0
  195.5630  174.6900  137.9490 N   0  0  0  0  0  2  0  0  0  0  0  0
  196.6800  174.4360  138.8070 C   0  0  0  0  0  0  0  0  0  0  0  0
  194.9790  173.6940  137.0570 C   0  0  1  0  0  3  0  0  0  0  0  0
  193.9530  172.8590  137.8010 C   0  0  0  0  0  1  0  0  0  0  0  0
  194.2700  174.4070  135.9200 C   0  0  0  0  0  2  0  0  0  0  0  0
  192.9840  175.0500  136.4020 C   0  0  1  0  0  3  0  0  0  0  0  0
  193.1320  176.4450  136.3880 O   0  0  0  0  0  1  0  0  0  0  0  0
  190.6840  175.2940  135.6940 N   0  0  0  0  0  0  0  0  0  0  0  0
  190.2890  172.9850  137.1180 N   0  0  0  0  0  2  0  0  0  0  0  0
  190.8190  174.0250  136.3010 C   0  0  0  0  0  0  0  0  0  0  0  0
  191.8160  174.5470  135.5340 C   0  0  2  0  0  3  0  0  0  0  0  0
  188.9770  173.0350  137.6040 N   0  0  0  0  0  2  0  0  0  0  0  0
  188.9600  172.4670  138.9440 C   0  0  0  0  0  2  0  0  0  0  0  0
  189.3160  173.5430  139.9600 C   0  0  1  0  0  3  0  0  0  0  0  0
  188.1960  173.8730  140.7280 O   0  0  0  0  0  1  0  0  0  0  0  0
  191.0680  170.7640  142.6030 N   0  0  0  0  0  2  0  0  0  0  0  0
  191.1450  171.8170  140.3310 C   0  0  0  0  0  2  0  0  0  0  0  0
  191.9210  171.1370  141.4620 C   0  0  0  0  0  2  0  0  0  0  0  0
  189.8300  171.5490  142.7120 C   0  0  0  0  0  2  0  0  0  0  0  0
  190.4850  173.1080  140.8400 C   0  0  0  0  0  3  0  0  0  0  0  0
  190.0400  173.0080  142.3040 C   0  0  0  0  0  2  0  0  0  0  0  0
  191.3290  176.8300  148.1450 C   0  0  0  0  0  1  0  0  0  0  0  0
  191.2020  176.7760  146.6920 N   0  0  0  0  0  0  0  0  0  0  0  0
  190.2810  177.6660  144.7030 O   0  0  0  0  0  1  0  0  0  0  0  0
  190.0230  177.3640  146.0440 C   0  0  1  0  0  3  0  0  0  0  0  0
  186.5170  177.3020  142.8320 C   0  0  1  0  0  3  0  0  0  0  0  0
  188.5030  178.6650  141.3130 S   0  0  0  0  0  1  0  0  0  0  0  0
  188.8200  176.4850  142.9910 C   0  0  0  0  0  2  0  0  0  0  0  0
  187.8190  178.2090  147.6250 O   0  0  0  0  0  1  0  0  0  0  0  0
  186.5340  176.1430  143.8280 C   0  0  2  0  0  3  0  0  0  0  0  0
  185.9400  176.4600  145.0720 O   0  0  0  0  0  0  0  0  0  0  0  0
  186.4390  178.6250  143.5960 C   0  0  1  0  0  3  0  0  0  0  0  0
  186.5370  177.5950  145.6910 C   0  0  1  0  0  3  0  0  0  0  0  0
  185.0060  179.1120  143.7580 C   0  0  0  0  0  1  0  0  0  0  0  0
  187.8310  177.1330  142.0500 C   0  0  1  0  0  3  0  0  0  0  0  0
  187.5100  177.1470  146.7730 C   0  0  1  0  0  3  0  0  0  0  0  0
  188.7800  176.4740  146.2350 C   0  0  1  0  0  3  0  0  0  0  0  0
  187.9700  175.6080  143.8900 C   0  0  2  0  0  3  0  0  0  0  0  0
  187.1320  178.5490  144.8190 O   0  0  0  0  0  0  0  0  0  0  0  0
  188.5720  175.2920  145.2680 C   0  0  0  0  0  2  0  0  0  0  0  0
  1 11  1  0  0  0  0
  2  1  1  0  0  0  0
  3  2  1  0  0  0  0
  4  3  2  0  0  0  0
  5  7  1  0  0  0  0
  6  7  2  0  0  0  0
  7 39  1  0  0  0  0
  8  6  1  0  0  0  0
  9  8  2  0  0  0  0
  9 11  1  0  0  0  0
 10  3  1  0  0  0  0
 10  9  1  0  0  0  0
 11  5  2  0  0  0  0
 12 13  1  1  0  0  0
 12 10  1  0  0  0  0
 14 15  1  6  0  0  0
 14 13  1  0  0  0  0
 14 12  1  0  0  0  0
 16 18  2  0  0  0  0
 17 18  1  0  0  0  0
 18 15  1  0  0  0  0
 19 20  1  1  0  0  0
 19 17  1  0  0  0  0
 21 22  1  0  0  0  0
 21 19  1  0  0  0  0
 22 23  1  6  0  0  0
 24 26  2  0  0  0  0
 25 28  1  0  0  0  0
 26 25  1  0  0  0  0
 27 24  1  0  0  0  0
 27 26  1  0  0  0  0
 27 22  1  1  0  0  0
 28 29  1  0  0  0  0
 29 30  1  0  0  0  0
 30 31  1  1  0  0  0
 30 36  1  0  0  0  0
 32 35  1  0  0  0  0
 33 36  1  0  0  0  0
 33 34  1  0  0  0  0
 34 32  1  0  0  0  0
 36 37  1  0  0  0  0
 37 35  1  0  0  0  0
 39 38  1  0  0  0  0
 41 40  1  6  0  0  0
 41 53  1  0  0  0  0
 41 39  1  0  0  0  0
 42 48  1  0  0  0  0
 42 46  1  0  0  0  0
 43 51  1  0  0  0  0
 44 54  1  0  0  0  0
 46 54  1  0  0  0  0
 46 47  1  0  0  0  0
 47 49  1  0  0  0  0
 48 50  1  0  0  0  0
 48 55  1  0  0  0  0
 49 52  1  0  0  0  0
 51 42  1  0  0  0  0
 51 44  1  0  0  0  0
 52 45  1  0  0  0  0
 53 52  1  0  0  0  0
 54 56  1  0  0  0  0
 55 49  1  0  0  0  0
 56 53  1  0  0  0  0
M  END
>  <MODEL>
7

>  <REMARK>
 VINA RESULT:      -6.6      2.463      7.652
  Name = 
  14 active torsions:
  status: ('A' for Active; 'I' for Inactive)
    1  A    between atoms: C_2  and  N_32
    2  A    between atoms: C_2  and  C_41
    3  A    between atoms: N_6  and  N_20
    4  A    between atoms: C_10  and  C_48
    5  A    between atoms: C_10  and  C_49
    6  A    between atoms: C_18  and  N_36
    7  A    between atoms: C_18  and  C_53
    8  A    between atoms: N_20  and  C_48
    9  A    between atoms: C_25  and  N_50
   10  A    between atoms: N_32  and  C_39
   11  A    between atoms: C_33  and  C_35
   12  A    between atoms: C_35  and  C_53
   13  A    between atoms: C_40  and  S_47
   14  A    between atoms: C_45  and  S_47
                            x       y       z     vdW  Elec       q    Type
                         _______ _______ _______ _____ _____    ______ ____

>  <TORSDO>
F 14

$$$$
=
 OpenBabel11072408303D

 56 63  0  0  1  0  0  0  0  0999 V2000
  187.0940  176.0500  139.5030 C   0  0  0  0  0  2  0  0  0  0  0  0
  186.6920  177.5250  139.4820 C   0  0  0  0  0  2  0  0  0  0  0  0
  185.8440  177.8550  140.6750 C   0  0  0  0  0  0  0  0  0  0  0  0
  184.9790  178.7640  140.5810 O   0  0  0  0  0  0  0  0  0  0  0  0
  188.6990  174.7180  140.8970 C   0  0  0  0  0  3  0  0  0  0  0  0
  188.7470  174.9180  143.3060 C   0  0  0  0  0  3  0  0  0  0  0  0
  189.2440  174.3300  142.1320 C   0  0  0  0  0  0  0  0  0  0  0  0
  187.7110  175.8540  143.2490 C   0  0  0  0  0  3  0  0  0  0  0  0
  187.1590  176.2290  142.0110 C   0  0  0  0  0  0  0  0  0  0  0  0
  186.0750  177.1830  141.9340 N   0  0  0  0  0  0  0  0  0  0  0  0
  187.6820  175.6750  140.8310 C   0  0  0  0  0  0  0  0  0  0  0  0
  185.2410  177.4900  143.1030 C   0  0  2  0  0  3  0  0  0  0  0  0
  185.4360  178.9370  143.5160 C   0  0  0  0  0  2  0  0  0  0  0  0
  186.1210  177.8450  144.2910 C   0  0  1  0  0  3  0  0  0  0  0  0
  185.2150  177.5860  145.8420 S   0  0  0  0  0  0  0  0  0  0  0  0
  186.9300  178.2800  147.7370 O   0  0  0  0  0  0  0  0  0  0  0  0
  187.7080  176.4920  146.4390 N   0  0  0  0  0  2  0  0  0  0  0  0
  186.7350  177.4860  146.7780 C   0  0  0  0  0  0  0  0  0  0  0  0
  188.8890  176.2010  147.2420 C   0  0  1  0  0  3  0  0  0  0  0  0
  189.3340  174.7660  147.0210 C   0  0  0  0  0  1  0  0  0  0  0  0
  190.0190  177.1160  146.8090 C   0  0  0  0  0  2  0  0  0  0  0  0
  190.5080  176.7520  145.4200 C   0  0  1  0  0  3  0  0  0  0  0  0
  190.3440  177.8550  144.5700 O   0  0  0  0  0  1  0  0  0  0  0  0
  192.8690  177.2390  145.2200 N   0  0  0  0  0  0  0  0  0  0  0  0
  192.7310  175.6300  143.0040 N   0  0  0  0  0  2  0  0  0  0  0  0
  192.5540  176.2260  144.2860 C   0  0  0  0  0  0  0  0  0  0  0  0
  191.9630  176.2590  145.5140 C   0  0  2  0  0  3  0  0  0  0  0  0
  193.6960  176.1040  142.1060 N   0  0  0  0  0  2  0  0  0  0  0  0
  195.0130  175.8450  142.6680 C   0  0  0  0  0  2  0  0  0  0  0  0
  195.4110  174.4020  142.3940 C   0  0  1  0  0  3  0  0  0  0  0  0
  195.7370  174.2370  141.0450 O   0  0  0  0  0  1  0  0  0  0  0  0
  196.8040  173.0530  146.1380 N   0  0  0  0  0  2  0  0  0  0  0  0
  196.4310  172.4910  143.7260 C   0  0  0  0  0  2  0  0  0  0  0  0
  197.2450  172.2350  144.9960 C   0  0  0  0  0  2  0  0  0  0  0  0
  196.1000  174.2870  145.7590 C   0  0  0  0  0  2  0  0  0  0  0  0
  196.5590  173.9630  143.3000 C   0  0  0  0  0  3  0  0  0  0  0  0
  196.6870  174.9150  144.4940 C   0  0  0  0  0  2  0  0  0  0  0  0
  190.7330  172.8120  143.4810 C   0  0  0  0  0  1  0  0  0  0  0  0
  190.3010  173.3500  142.1940 N   0  0  0  0  0  0  0  0  0  0  0  0
  192.2800  172.7130  141.0650 O   0  0  0  0  0  1  0  0  0  0  0  0
  190.8910  172.8290  140.9550 C   0  0  1  0  0  3  0  0  0  0  0  0
  193.4260  169.1350  139.3630 C   0  0  1  0  0  3  0  0  0  0  0  0
  195.5390  170.7010  140.4550 S   0  0  0  0  0  1  0  0  0  0  0  0
  193.0200  170.2410  141.5090 C   0  0  0  0  0  2  0  0  0  0  0  0
  189.8120  172.5110  138.3460 O   0  0  0  0  0  1  0  0  0  0  0  0
  191.9880  168.8310  139.7800 C   0  0  2  0  0  3  0  0  0  0  0  0
  191.0350  169.1310  138.7790 O   0  0  0  0  0  0  0  0  0  0  0  0
  193.4210  170.2120  138.2760 C   0  0  1  0  0  3  0  0  0  0  0  0
  191.1020  170.4870  138.3480 C   0  0  1  0  0  3  0  0  0  0  0  0
  193.4380  169.6170  136.8750 C   0  0  0  0  0  1  0  0  0  0  0  0
  194.0970  169.5970  140.6670 C   0  0  1  0  0  3  0  0  0  0  0  0
  190.0020  171.3010  139.0150 C   0  0  1  0  0  3  0  0  0  0  0  0
  190.2070  171.5190  140.5190 C   0  0  1  0  0  3  0  0  0  0  0  0
  191.7540  169.4890  141.1450 C   0  0  2  0  0  3  0  0  0  0  0  0
  192.3670  171.1260  138.4690 O   0  0  0  0  0  0  0  0  0  0  0  0
  190.4410  170.2560  141.3700 C   0  0  0  0  0  2  0  0  0  0  0  0
  1 11  1  0  0  0  0
  2  1  1  0  0  0  0
  2  3  1  0  0  0  0
  3 10  1  0  0  0  0
  4  3  2  0  0  0  0
  5  7  1  0  0  0  0
  7 39  1  0  0  0  0
  7  6  2  0  0  0  0
  8  6  1  0  0  0  0
  9  8  2  0  0  0  0
 10  9  1  0  0  0  0
 11  5  2  0  0  0  0
 11  9  1  0  0  0  0
 12 10  1  6  0  0  0
 12 13  1  0  0  0  0
 12 14  1  0  0  0  0
 13 14  1  0  0  0  0
 14 15  1  1  0  0  0
 15 18  1  0  0  0  0
 17 18  1  0  0  0  0
 17 19  1  0  0  0  0
 18 16  2  0  0  0  0
 19 20  1  6  0  0  0
 21 19  1  0  0  0  0
 22 23  1  6  0  0  0
 22 21  1  0  0  0  0
 24 27  1  0  0  0  0
 25 26  1  0  0  0  0
 26 24  2  0  0  0  0
 26 27  1  0  0  0  0
 27 22  1  6  0  0  0
 28 29  1  0  0  0  0
 28 25  1  0  0  0  0
 30 31  1  6  0  0  0
 30 29  1  0  0  0  0
 30 36  1  0  0  0  0
 33 34  1  0  0  0  0
 34 32  1  0  0  0  0
 35 32  1  0  0  0  0
 36 33  1  0  0  0  0
 36 37  1  0  0  0  0
 37 35  1  0  0  0  0
 39 38  1  0  0  0  0
 41 40  1  1  0  0  0
 41 39  1  0  0  0  0
 42 46  1  0  0  0  0
 42 51  1  0  0  0  0
 43 51  1  0  0  0  0
 45 52  1  0  0  0  0
 46 54  1  0  0  0  0
 47 46  1  0  0  0  0
 48 55  1  0  0  0  0
 48 42  1  0  0  0  0
 49 55  1  0  0  0  0
 49 47  1  0  0  0  0
 49 52  1  0  0  0  0
 50 48  1  0  0  0  0
 51 44  1  0  0  0  0
 52 53  1  0  0  0  0
 53 41  1  0  0  0  0
 53 56  1  0  0  0  0
 54 56  1  0  0  0  0
 54 44  1  0  0  0  0
M  END
>  <MODEL>
8

>  <REMARK>
 VINA RESULT:      -6.5      2.542      6.774
  Name = 
  14 active torsions:
  status: ('A' for Active; 'I' for Inactive)
    1  A    between atoms: C_2  and  N_32
    2  A    between atoms: C_2  and  C_41
    3  A    between atoms: N_6  and  N_20
    4  A    between atoms: C_10  and  C_48
    5  A    between atoms: C_10  and  C_49
    6  A    between atoms: C_18  and  N_36
    7  A    between atoms: C_18  and  C_53
    8  A    between atoms: N_20  and  C_48
    9  A    between atoms: C_25  and  N_50
   10  A    between atoms: N_32  and  C_39
   11  A    between atoms: C_33  and  C_35
   12  A    between atoms: C_35  and  C_53
   13  A    between atoms: C_40  and  S_47
   14  A    between atoms: C_45  and  S_47
                            x       y       z     vdW  Elec       q    Type
                         _______ _______ _______ _____ _____    ______ ____

>  <TORSDO>
F 14

$$$$
=
 OpenBabel11072408303D

 56 63  0  0  1  0  0  0  0  0999 V2000
  197.4520  175.0150  142.8770 C   0  0  0  0  0  2  0  0  0  0  0  0
  197.7480  174.2580  144.1700 C   0  0  0  0  0  2  0  0  0  0  0  0
  196.5130  174.1610  145.0160 C   0  0  0  0  0  0  0  0  0  0  0  0
  196.6300  174.1140  146.2680 O   0  0  0  0  0  0  0  0  0  0  0  0
  196.1790  174.4420  140.7920 C   0  0  0  0  0  3  0  0  0  0  0  0
  193.9760  173.4530  140.8890 C   0  0  0  0  0  3  0  0  0  0  0  0
  195.0470  173.9430  140.1260 C   0  0  0  0  0  0  0  0  0  0  0  0
  194.0240  173.4820  142.2850 C   0  0  0  0  0  3  0  0  0  0  0  0
  195.1550  173.9950  142.9470 C   0  0  0  0  0  0  0  0  0  0  0  0
  195.2150  174.0500  144.3910 N   0  0  0  0  0  0  0  0  0  0  0  0
  196.2460  174.4490  142.1880 C   0  0  0  0  0  0  0  0  0  0  0  0
  194.0000  173.9690  145.2120 C   0  0  2  0  0  3  0  0  0  0  0  0
  192.7990  174.4380  144.4110 C   0  0  0  0  0  2  0  0  0  0  0  0
  193.4220  175.3600  145.4240 C   0  0  1  0  0  3  0  0  0  0  0  0
  192.3700  175.3820  146.9030 S   0  0  0  0  0  0  0  0  0  0  0  0
  191.2560  177.1830  145.3120 O   0  0  0  0  0  0  0  0  0  0  0  0
  189.7170  175.5900  146.0750 N   0  0  0  0  0  2  0  0  0  0  0  0
  191.0300  176.1560  146.0070 C   0  0  0  0  0  0  0  0  0  0  0  0
  188.5990  176.0240  145.2450 C   0  0  1  0  0  3  0  0  0  0  0  0
  188.6930  177.5150  144.9760 C   0  0  0  0  0  1  0  0  0  0  0  0
  188.6620  175.3000  143.9140 C   0  0  0  0  0  2  0  0  0  0  0  0
  188.9210  176.2730  142.7800 C   0  0  1  0  0  3  0  0  0  0  0  0
  190.2460  176.1270  142.3410 O   0  0  0  0  0  1  0  0  0  0  0  0
  187.6870  177.1470  140.8920 N   0  0  0  0  0  0  0  0  0  0  0  0
  185.5390  177.0260  142.5920 N   0  0  0  0  0  2  0  0  0  0  0  0
  186.7540  176.7820  141.8890 C   0  0  0  0  0  0  0  0  0  0  0  0
  187.8780  176.0420  141.6720 C   0  0  2  0  0  3  0  0  0  0  0  0
  184.6720  178.0580  142.2140 N   0  0  0  0  0  2  0  0  0  0  0  0
  184.1260  178.6650  143.4180 C   0  0  0  0  0  2  0  0  0  0  0  0
  185.2600  179.2020  144.2800 C   0  0  1  0  0  3  0  0  0  0  0  0
  185.5320  180.5320  143.9480 O   0  0  0  0  0  1  0  0  0  0  0  0
  185.9700  177.3540  148.0030 N   0  0  0  0  0  2  0  0  0  0  0  0
  186.1310  179.4590  146.6540 C   0  0  0  0  0  2  0  0  0  0  0  0
  185.9960  178.8260  148.0410 C   0  0  0  0  0  2  0  0  0  0  0  0
  185.5360  176.7920  146.7150 C   0  0  0  0  0  2  0  0  0  0  0  0
  184.9450  179.0530  145.7660 C   0  0  0  0  0  3  0  0  0  0  0  0
  184.4400  177.6370  146.0630 C   0  0  0  0  0  2  0  0  0  0  0  0
  196.2160  173.8910  137.8970 C   0  0  0  0  0  1  0  0  0  0  0  0
  194.9880  173.9290  138.6850 N   0  0  0  0  0  0  0  0  0  0  0  0
  193.2420  175.1450  137.6510 O   0  0  0  0  0  1  0  0  0  0  0  0
  193.6880  173.8680  138.0070 C   0  0  1  0  0  3  0  0  0  0  0  0
  189.7180  171.8070  136.3930 C   0  0  1  0  0  3  0  0  0  0  0  0
  188.5510  173.8060  138.0530 S   0  0  0  0  0  1  0  0  0  0  0  0
  190.7250  174.0380  136.3530 C   0  0  0  0  0  2  0  0  0  0  0  0
  194.3140  171.1200  138.3660 O   0  0  0  0  0  1  0  0  0  0  0  0
  190.9260  171.7570  135.4590 C   0  0  2  0  0  3  0  0  0  0  0  0
  191.8300  170.7140  135.7620 O   0  0  0  0  0  0  0  0  0  0  0  0
  190.0830  171.1560  137.7280 C   0  0  1  0  0  3  0  0  0  0  0  0
  192.3010  170.7700  137.1060 C   0  0  1  0  0  3  0  0  0  0  0  0
  189.7030  169.6830  137.7730 C   0  0  0  0  0  1  0  0  0  0  0  0
  189.4120  173.3090  136.5180 C   0  0  1  0  0  3  0  0  0  0  0  0
  193.6920  171.3880  137.1450 C   0  0  1  0  0  3  0  0  0  0  0  0
  193.7220  172.8870  136.8200 C   0  0  1  0  0  3  0  0  0  0  0  0
  191.5260  173.1680  135.4040 C   0  0  2  0  0  3  0  0  0  0  0  0
  191.4340  171.3820  138.0530 O   0  0  0  0  0  0  0  0  0  0  0  0
  193.0530  173.3150  135.4990 C   0  0  0  0  0  2  0  0  0  0  0  0
  1  2  1  0  0  0  0
  2  3  1  0  0  0  0
  3  4  2  0  0  0  0
  5 11  1  0  0  0  0
  6  8  2  0  0  0  0
  7  5  2  0  0  0  0
  7  6  1  0  0  0  0
  8  9  1  0  0  0  0
  9 10  1  0  0  0  0
 10  3  1  0  0  0  0
 11  1  1  0  0  0  0
 11  9  2  0  0  0  0
 12 10  1  6  0  0  0
 12 14  1  0  0  0  0
 13 12  1  0  0  0  0
 13 14  1  0  0  0  0
 14 15  1  1  0  0  0
 16 18  2  0  0  0  0
 18 17  1  0  0  0  0
 18 15  1  0  0  0  0
 19 20  1  6  0  0  0
 19 17  1  0  0  0  0
 21 19  1  0  0  0  0
 22 23  1  6  0  0  0
 22 21  1  0  0  0  0
 24 27  1  0  0  0  0
 24 26  2  0  0  0  0
 26 25  1  0  0  0  0
 27 26  1  0  0  0  0
 27 22  1  1  0  0  0
 28 25  1  0  0  0  0
 28 29  1  0  0  0  0
 29 30  1  0  0  0  0
 30 31  1  6  0  0  0
 30 36  1  0  0  0  0
 32 34  1  0  0  0  0
 33 34  1  0  0  0  0
 35 32  1  0  0  0  0
 36 37  1  0  0  0  0
 36 33  1  0  0  0  0
 37 35  1  0  0  0  0
 38 39  1  0  0  0  0
 39  7  1  0  0  0  0
 41 40  1  6  0  0  0
 41 39  1  0  0  0  0
 42 51  1  0  0  0  0
 42 48  1  0  0  0  0
 44 51  1  0  0  0  0
 46 47  1  0  0  0  0
 46 42  1  0  0  0  0
 47 49  1  0  0  0  0
 48 50  1  0  0  0  0
 48 55  1  0  0  0  0
 49 52  1  0  0  0  0
 49 55  1  0  0  0  0
 51 43  1  0  0  0  0
 52 45  1  0  0  0  0
 53 52  1  0  0  0  0
 53 41  1  0  0  0  0
 54 46  1  0  0  0  0
 54 56  1  0  0  0  0
 54 44  1  0  0  0  0
 56 53  1  0  0  0  0
M  END
>  <MODEL>
9

>  <REMARK>
 VINA RESULT:      -6.5      2.732      9.555
  Name = 
  14 active torsions:
  status: ('A' for Active; 'I' for Inactive)
    1  A    between atoms: C_2  and  N_32
    2  A    between atoms: C_2  and  C_41
    3  A    between atoms: N_6  and  N_20
    4  A    between atoms: C_10  and  C_48
    5  A    between atoms: C_10  and  C_49
    6  A    between atoms: C_18  and  N_36
    7  A    between atoms: C_18  and  C_53
    8  A    between atoms: N_20  and  C_48
    9  A    between atoms: C_25  and  N_50
   10  A    between atoms: N_32  and  C_39
   11  A    between atoms: C_33  and  C_35
   12  A    between atoms: C_35  and  C_53
   13  A    between atoms: C_40  and  S_47
   14  A    between atoms: C_45  and  S_47
                            x       y       z     vdW  Elec       q    Type
                         _______ _______ _______ _____ _____    ______ ____

>  <TORSDO>
F 14

$$$$
