=
 OpenBabel11062422333D

 43 49  0  0  1  0  0  0  0  0999 V2000
  188.1580  175.3270  142.2150 C   0  0  0  0  0  2  0  0  0  0  0  0
  188.9710  172.0780  140.4650 C   0  0  0  0  0  3  0  0  0  0  0  0
  190.3640  174.2640  141.4090 C   0  0  0  0  0  0  0  0  0  0  0  0
  191.2420  175.3080  142.0010 C   0  0  1  0  0  3  0  0  0  0  0  0
  190.3350  172.0580  140.5080 N   0  0  0  0  0  0  0  0  0  0  0  0
  188.2600  173.1790  140.9640 C   0  0  0  0  0  3  0  0  0  0  0  0
  190.8540  175.4900  143.3290 O   0  0  0  0  0  0  0  0  0  0  0  0
  192.9750  174.7270  141.9140 S   0  0  0  0  0  0  0  0  0  0  0  0
  190.0500  176.6480  143.4070 C   0  0  1  0  0  3  0  0  0  0  0  0
  188.8590  176.6750  142.4200 C   0  0  0  0  0  2  0  0  0  0  0  0
  193.0260  172.0130  141.5850 N   0  0  0  0  0  0  0  0  0  0  0  0
  191.0180  173.1380  140.9640 C   0  0  0  0  0  0  0  0  0  0  0  0
  192.4240  173.1290  141.3060 C   0  0  0  0  0  0  0  0  0  0  0  0
  188.9550  174.2940  141.4510 C   0  0  0  0  0  0  0  0  0  0  0  0
  190.7880  176.7010  145.8820 C   0  0  1  0  0  3  0  0  0  0  0  0
  190.7020  175.2460  146.0730 C   0  0  2  0  0  3  0  0  0  0  0  0
  192.2590  176.9590  145.7220 C   0  0  0  0  0  2  0  0  0  0  0  0
  191.2800  175.2400  148.3990 O   0  0  0  0  0  1  0  0  0  0  0  0
  189.6940  177.0140  144.8750 C   0  0  2  0  0  3  0  0  0  0  0  0
  189.2290  175.0280  146.3060 C   0  0  0  0  0  2  0  0  0  0  0  0
  191.7580  174.9700  147.1150 C   0  0  2  0  0  3  0  0  0  0  0  0
  188.5550  176.1310  145.4560 C   0  0  1  0  0  3  0  0  0  0  0  0
  192.8580  175.9800  146.7450 C   0  0  0  0  0  2  0  0  0  0  0  0
  187.6380  176.9140  146.3600 C   0  0  0  0  0  0  0  0  0  0  0  0
  188.1080  177.5140  147.3200 O   0  0  0  0  0  0  0  0  0  0  0  0
  186.0110  177.2340  144.4890 C   0  0  0  0  0  2  0  0  0  0  0  0
  184.5840  179.3130  144.7850 C   0  0  0  0  0  2  0  0  0  0  0  0
  184.2340  178.6480  146.1260 C   0  0  0  0  0  2  0  0  0  0  0  0
  185.4820  178.1430  146.8350 C   0  0  0  0  0  2  0  0  0  0  0  0
  185.8000  178.6870  144.0740 C   0  0  2  0  0  3  0  0  0  0  0  0
  186.1930  177.0730  146.0000 C   0  0  2  0  0  3  0  0  0  0  0  0
  184.4040  177.9790  142.1120 C   0  0  0  0  0  1  0  0  0  0  0  0
  185.6290  178.7400  142.5670 C   0  0  0  0  0  2  0  0  0  0  0  0
  196.7640  171.7830  143.5510 C   0  0  0  0  0  3  0  0  0  0  0  0
  196.6960  172.1600  142.2140 C   0  0  0  0  0  0  0  0  0  0  0  0
  194.2810  171.9390  142.2680 C   0  0  0  0  0  0  0  0  0  0  0  0
  197.9410  172.4310  141.4440 C   0  0  0  0  0  1  0  0  0  0  0  0
  195.5940  171.4510  144.2510 C   0  0  0  0  0  0  0  0  0  0  0  0
  195.4560  172.2520  141.5760 C   0  0  0  0  0  3  0  0  0  0  0  0
  194.3530  171.5090  143.5960 C   0  0  0  0  0  3  0  0  0  0  0  0
  195.6910  170.9130  145.6140 C   0  0  0  0  0  0  0  0  0  0  0  0
  194.6010  170.2680  146.1850 O   0  0  0  0  0  0  0  0  0  0  0  0
  196.7930  170.9670  146.2360 O   0  0  0  0  0  1  0  0  0  0  0  0
  1 10  1  0  0  0  0
  2  5  2  0  0  0  0
  2  6  1  0  0  0  0
  3 14  1  0  0  0  0
  4  3  1  1  0  0  0
  4  7  1  0  0  0  0
  5 12  1  0  0  0  0
  6 14  2  0  0  0  0
  7  9  1  0  0  0  0
  8  4  1  0  0  0  0
  9 10  1  6  0  0  0
 11 36  1  0  0  0  0
 12 13  1  0  0  0  0
 12  3  2  0  0  0  0
 13 11  2  0  0  0  0
 13  8  1  0  0  0  0
 14  1  1  0  0  0  0
 15 17  1  6  0  0  0
 15 16  1  0  0  0  0
 16 20  1  1  0  0  0
 16 21  1  0  0  0  0
 17 23  1  0  0  0  0
 19  9  1  6  0  0  0
 19 22  1  0  0  0  0
 19 15  1  0  0  0  0
 21 18  1  1  0  0  0
 22 20  1  0  0  0  0
 22 24  1  1  0  0  0
 23 21  1  0  0  0  0
 24 25  2  0  0  0  0
 26 31  1  0  0  0  0
 27 28  1  0  0  0  0
 28 29  1  0  0  0  0
 30 33  1  6  0  0  0
 30 26  1  0  0  0  0
 30 27  1  0  0  0  0
 31 24  1  6  0  0  0
 31 29  1  0  0  0  0
 32 33  1  0  0  0  0
 34 38  1  0  0  0  0
 35 34  2  0  0  0  0
 36 40  1  0  0  0  0
 37 35  1  0  0  0  0
 38 41  1  0  0  0  0
 39 35  1  0  0  0  0
 39 36  2  0  0  0  0
 40 38  2  0  0  0  0
 41 42  2  0  0  0  0
 41 43  1  0  0  0  0
M  END
>  <MODEL>
1

>  <REMARK>
 VINA RESULT:      -8.9      0.000      0.000
  Name = 
  6 active torsions:
  status: ('A' for Active; 'I' for Inactive)
    1  A    between atoms: C_3  and  C_27
    2  A    between atoms: C_3  and  C_40
    3  A    between atoms: C_15  and  C_34
    4  A    between atoms: C_17  and  N_30
    5  A    between atoms: C_21  and  C_26
    6  A    between atoms: C_25  and  C_36
                            x       y       z     vdW  Elec       q    Type
                         _______ _______ _______ _____ _____    ______ ____

>  <TORSDO>
F 6

$$$$
=
 OpenBabel11062422333D

 43 49  0  0  1  0  0  0  0  0999 V2000
  193.9850  174.8350  145.7130 C   0  0  0  0  0  2  0  0  0  0  0  0
  191.1170  175.3770  148.1130 C   0  0  0  0  0  3  0  0  0  0  0  0
  191.9770  176.4510  145.7220 C   0  0  0  0  0  0  0  0  0  0  0  0
  192.2480  177.0120  144.3710 C   0  0  1  0  0  3  0  0  0  0  0  0
  190.3210  176.2450  147.4230 N   0  0  0  0  0  0  0  0  0  0  0  0
  192.3480  174.9670  147.5820 C   0  0  0  0  0  3  0  0  0  0  0  0
  192.4400  175.9430  143.4950 O   0  0  0  0  0  0  0  0  0  0  0  0
  190.8050  178.0110  143.8570 S   0  0  0  0  0  0  0  0  0  0  0  0
  193.8260  175.7690  143.2950 C   0  0  1  0  0  3  0  0  0  0  0  0
  194.6550  175.6410  144.5950 C   0  0  0  0  0  2  0  0  0  0  0  0
  188.6140  177.3010  145.3310 N   0  0  0  0  0  0  0  0  0  0  0  0
  190.7500  176.7790  146.2520 C   0  0  0  0  0  0  0  0  0  0  0  0
  189.9000  177.4810  145.3160 C   0  0  0  0  0  0  0  0  0  0  0  0
  192.7950  175.5000  146.3670 C   0  0  0  0  0  0  0  0  0  0  0  0
  195.5590  174.7070  141.7010 C   0  0  1  0  0  3  0  0  0  0  0  0
  195.6050  175.8530  140.7800 C   0  0  2  0  0  3  0  0  0  0  0  0
  196.8090  174.8530  142.5220 C   0  0  0  0  0  2  0  0  0  0  0  0
  197.1320  174.8800  139.2090 O   0  0  0  0  0  1  0  0  0  0  0  0
  194.1300  174.6940  142.2140 C   0  0  2  0  0  3  0  0  0  0  0  0
  194.3840  175.6380  139.9230 C   0  0  0  0  0  2  0  0  0  0  0  0
  197.0150  175.8100  140.2440 C   0  0  2  0  0  3  0  0  0  0  0  0
  193.3780  174.9550  140.8800 C   0  0  1  0  0  3  0  0  0  0  0  0
  197.8190  175.3330  141.4670 C   0  0  0  0  0  2  0  0  0  0  0  0
  192.9210  173.6740  140.2300 C   0  0  0  0  0  0  0  0  0  0  0  0
  193.7550  172.8900  139.7930 O   0  0  0  0  0  0  0  0  0  0  0  0
  190.7290  174.0260  141.3790 C   0  0  0  0  0  2  0  0  0  0  0  0
  189.7200  171.8570  142.2320 C   0  0  0  0  0  2  0  0  0  0  0  0
  189.8610  171.4370  140.7600 C   0  0  0  0  0  2  0  0  0  0  0  0
  191.2370  171.7900  140.2150 C   0  0  0  0  0  2  0  0  0  0  0  0
  190.5020  173.1340  142.5970 C   0  0  2  0  0  3  0  0  0  0  0  0
  191.4700  173.3050  140.2510 C   0  0  2  0  0  3  0  0  0  0  0  0
  189.9750  173.3700  145.0390 C   0  0  0  0  0  1  0  0  0  0  0  0
  189.7630  173.9360  143.6530 C   0  0  0  0  0  2  0  0  0  0  0  0
  186.0160  178.3570  142.1640 C   0  0  0  0  0  3  0  0  0  0  0  0
  185.7890  178.8390  143.4490 C   0  0  0  0  0  0  0  0  0  0  0  0
  187.7510  177.6550  144.2470 C   0  0  0  0  0  0  0  0  0  0  0  0
  184.5990  179.6850  143.7360 C   0  0  0  0  0  1  0  0  0  0  0  0
  187.0950  177.4940  141.9150 C   0  0  0  0  0  0  0  0  0  0  0  0
  186.6630  178.5010  144.4860 C   0  0  0  0  0  3  0  0  0  0  0  0
  187.9490  177.1280  142.9680 C   0  0  0  0  0  3  0  0  0  0  0  0
  187.2370  176.8740  140.5910 C   0  0  0  0  0  0  0  0  0  0  0  0
  187.8750  175.6460  140.4650 O   0  0  0  0  0  1  0  0  0  0  0  0
  186.7080  177.4210  139.5780 O   0  0  0  0  0  0  0  0  0  0  0  0
  1 14  1  0  0  0  0
  3 12  2  0  0  0  0
  3 14  1  0  0  0  0
  4  7  1  6  0  0  0
  4  3  1  0  0  0  0
  5  2  2  0  0  0  0
  6  2  1  0  0  0  0
  8  4  1  0  0  0  0
  8 13  1  0  0  0  0
  9  7  1  0  0  0  0
  9 10  1  1  0  0  0
 10  1  1  0  0  0  0
 12  5  1  0  0  0  0
 13 11  2  0  0  0  0
 13 12  1  0  0  0  0
 14  6  2  0  0  0  0
 15 19  1  0  0  0  0
 15 17  1  1  0  0  0
 16 20  1  6  0  0  0
 16 15  1  0  0  0  0
 19  9  1  1  0  0  0
 20 22  1  0  0  0  0
 21 18  1  6  0  0  0
 21 16  1  0  0  0  0
 21 23  1  0  0  0  0
 22 24  1  6  0  0  0
 22 19  1  0  0  0  0
 23 17  1  0  0  0  0
 25 24  2  0  0  0  0
 26 30  1  0  0  0  0
 27 30  1  0  0  0  0
 28 27  1  0  0  0  0
 29 31  1  0  0  0  0
 29 28  1  0  0  0  0
 30 33  1  1  0  0  0
 31 24  1  1  0  0  0
 31 26  1  0  0  0  0
 33 32  1  0  0  0  0
 34 35  1  0  0  0  0
 35 37  1  0  0  0  0
 35 39  2  0  0  0  0
 36 39  1  0  0  0  0
 36 11  1  0  0  0  0
 38 34  2  0  0  0  0
 38 40  1  0  0  0  0
 40 36  2  0  0  0  0
 41 38  1  0  0  0  0
 42 41  1  0  0  0  0
 43 41  2  0  0  0  0
M  END
>  <MODEL>
2

>  <REMARK>
 VINA RESULT:      -8.7      3.221      8.666
  Name = 
  6 active torsions:
  status: ('A' for Active; 'I' for Inactive)
    1  A    between atoms: C_3  and  C_27
    2  A    between atoms: C_3  and  C_40
    3  A    between atoms: C_15  and  C_34
    4  A    between atoms: C_17  and  N_30
    5  A    between atoms: C_21  and  C_26
    6  A    between atoms: C_25  and  C_36
                            x       y       z     vdW  Elec       q    Type
                         _______ _______ _______ _____ _____    ______ ____

>  <TORSDO>
F 6

$$$$
=
 OpenBabel11062422333D

 43 49  0  0  1  0  0  0  0  0999 V2000
  194.7460  174.5300  142.7350 C   0  0  0  0  0  2  0  0  0  0  0  0
  194.4370  176.0220  146.1930 C   0  0  0  0  0  3  0  0  0  0  0  0
  193.0900  176.1990  143.7930 C   0  0  0  0  0  0  0  0  0  0  0  0
  192.1940  176.2700  142.6070 C   0  0  1  0  0  3  0  0  0  0  0  0
  193.2390  176.6730  146.1230 N   0  0  0  0  0  0  0  0  0  0  0  0
  194.9610  175.3760  145.0650 C   0  0  0  0  0  3  0  0  0  0  0  0
  191.9040  174.9640  142.2100 O   0  0  0  0  0  0  0  0  0  0  0  0
  190.6620  177.1470  143.0880 S   0  0  0  0  0  0  0  0  0  0  0  0
  192.7250  174.6380  141.1080 C   0  0  1  0  0  3  0  0  0  0  0  0
  194.2360  174.8810  141.3330 C   0  0  0  0  0  2  0  0  0  0  0  0
  190.3900  177.1100  145.8090 N   0  0  0  0  0  0  0  0  0  0  0  0
  192.5820  176.7670  144.9390 C   0  0  0  0  0  0  0  0  0  0  0  0
  191.2050  177.1850  144.8010 C   0  0  0  0  0  0  0  0  0  0  0  0
  194.2860  175.4540  143.8410 C   0  0  0  0  0  0  0  0  0  0  0  0
  192.1190  173.2660  139.0050 C   0  0  1  0  0  3  0  0  0  0  0  0
  190.7720  173.8380  138.8630 C   0  0  2  0  0  3  0  0  0  0  0  0
  192.9290  173.9880  137.9670 C   0  0  0  0  0  2  0  0  0  0  0  0
  190.1120  172.5200  136.9730 O   0  0  0  0  0  1  0  0  0  0  0  0
  192.3650  173.2520  140.5040 C   0  0  2  0  0  3  0  0  0  0  0  0
  189.9670  173.0440  139.8610 C   0  0  0  0  0  2  0  0  0  0  0  0
  190.5300  173.7900  137.3740 C   0  0  2  0  0  3  0  0  0  0  0  0
  190.9830  172.7270  140.9830 C   0  0  1  0  0  3  0  0  0  0  0  0
  191.9290  174.0840  136.8040 C   0  0  0  0  0  2  0  0  0  0  0  0
  190.9880  171.2350  141.1930 C   0  0  0  0  0  0  0  0  0  0  0  0
  190.7700  170.4930  140.2420 O   0  0  0  0  0  0  0  0  0  0  0  0
  190.9700  171.5830  143.6680 C   0  0  0  0  0  2  0  0  0  0  0  0
  193.3050  171.5770  144.6680 C   0  0  0  0  0  2  0  0  0  0  0  0
  193.3820  170.1980  143.9940 C   0  0  0  0  0  2  0  0  0  0  0  0
  192.8730  170.2540  142.5610 C   0  0  0  0  0  2  0  0  0  0  0  0
  192.1180  172.4400  144.1950 C   0  0  2  0  0  3  0  0  0  0  0  0
  191.3980  170.6690  142.5180 C   0  0  2  0  0  3  0  0  0  0  0  0
  190.1190  173.5990  145.1760 C   0  0  0  0  0  1  0  0  0  0  0  0
  191.5950  173.3050  145.3280 C   0  0  0  0  0  2  0  0  0  0  0  0
  186.1730  177.2240  145.4940 C   0  0  0  0  0  3  0  0  0  0  0  0
  186.7950  177.5110  146.7050 C   0  0  0  0  0  0  0  0  0  0  0  0
  188.9660  177.1530  145.6830 C   0  0  0  0  0  0  0  0  0  0  0  0
  185.9820  177.8050  147.9170 C   0  0  0  0  0  1  0  0  0  0  0  0
  186.9410  176.8690  144.3740 C   0  0  0  0  0  0  0  0  0  0  0  0
  188.1890  177.4900  146.7960 C   0  0  0  0  0  3  0  0  0  0  0  0
  188.3400  176.8130  144.4800 C   0  0  0  0  0  3  0  0  0  0  0  0
  186.2690  176.4250  143.1460 C   0  0  0  0  0  0  0  0  0  0  0  0
  185.1920  177.1460  142.6430 O   0  0  0  0  0  1  0  0  0  0  0  0
  186.7220  175.4310  142.5030 O   0  0  0  0  0  0  0  0  0  0  0  0
  1 14  1  0  0  0  0
  3 14  2  0  0  0  0
  3 12  1  0  0  0  0
  4  7  1  1  0  0  0
  4  8  1  0  0  0  0
  4  3  1  0  0  0  0
  5  2  1  0  0  0  0
  6  2  2  0  0  0  0
  8 13  1  0  0  0  0
  9 10  1  1  0  0  0
  9  7  1  0  0  0  0
 10  1  1  0  0  0  0
 12  5  2  0  0  0  0
 13 12  1  0  0  0  0
 13 11  2  0  0  0  0
 14  6  1  0  0  0  0
 15 17  1  6  0  0  0
 15 19  1  0  0  0  0
 16 15  1  0  0  0  0
 16 20  1  1  0  0  0
 19 22  1  0  0  0  0
 19  9  1  1  0  0  0
 20 22  1  0  0  0  0
 21 18  1  6  0  0  0
 21 16  1  0  0  0  0
 22 24  1  6  0  0  0
 23 21  1  0  0  0  0
 23 17  1  0  0  0  0
 25 24  2  0  0  0  0
 26 30  1  0  0  0  0
 28 27  1  0  0  0  0
 29 28  1  0  0  0  0
 30 27  1  0  0  0  0
 30 33  1  1  0  0  0
 31 24  1  6  0  0  0
 31 29  1  0  0  0  0
 31 26  1  0  0  0  0
 32 33  1  0  0  0  0
 34 35  1  0  0  0  0
 35 39  2  0  0  0  0
 35 37  1  0  0  0  0
 36 11  1  0  0  0  0
 36 39  1  0  0  0  0
 38 40  1  0  0  0  0
 38 34  2  0  0  0  0
 40 36  2  0  0  0  0
 41 38  1  0  0  0  0
 42 41  1  0  0  0  0
 43 41  2  0  0  0  0
M  END
>  <MODEL>
3

>  <REMARK>
 VINA RESULT:      -8.7      3.173      8.823
  Name = 
  6 active torsions:
  status: ('A' for Active; 'I' for Inactive)
    1  A    between atoms: C_3  and  C_27
    2  A    between atoms: C_3  and  C_40
    3  A    between atoms: C_15  and  C_34
    4  A    between atoms: C_17  and  N_30
    5  A    between atoms: C_21  and  C_26
    6  A    between atoms: C_25  and  C_36
                            x       y       z     vdW  Elec       q    Type
                         _______ _______ _______ _____ _____    ______ ____

>  <TORSDO>
F 6

$$$$
=
 OpenBabel11062422333D

 43 49  0  0  1  0  0  0  0  0999 V2000
  192.6930  176.0350  146.5360 C   0  0  0  0  0  2  0  0  0  0  0  0
  195.8520  175.5150  144.5280 C   0  0  0  0  0  3  0  0  0  0  0  0
  193.4970  174.1490  144.9730 C   0  0  0  0  0  0  0  0  0  0  0  0
  192.2210  173.3860  145.0120 C   0  0  1  0  0  3  0  0  0  0  0  0
  195.5460  174.4130  143.7840 N   0  0  0  0  0  0  0  0  0  0  0  0
  194.9440  176.0070  145.4760 C   0  0  0  0  0  3  0  0  0  0  0  0
  191.1800  174.2800  144.7550 O   0  0  0  0  0  0  0  0  0  0  0  0
  192.2810  172.0860  143.7270 S   0  0  0  0  0  0  0  0  0  0  0  0
  190.5780  174.6330  145.9810 C   0  0  1  0  0  3  0  0  0  0  0  0
  191.5610  175.1440  147.0610 C   0  0  0  0  0  2  0  0  0  0  0  0
  194.1910  172.7070  141.8710 N   0  0  0  0  0  0  0  0  0  0  0  0
  194.3910  173.7360  144.0110 C   0  0  0  0  0  0  0  0  0  0  0  0
  193.8420  172.7370  143.1210 C   0  0  0  0  0  0  0  0  0  0  0  0
  193.7420  175.3260  145.7090 C   0  0  0  0  0  0  0  0  0  0  0  0
  188.9450  175.7570  144.3240 C   0  0  1  0  0  3  0  0  0  0  0  0
  189.9020  176.7790  143.8760 C   0  0  2  0  0  3  0  0  0  0  0  0
  188.9480  174.7470  143.2130 C   0  0  0  0  0  2  0  0  0  0  0  0
  188.4020  177.9280  142.4000 O   0  0  0  0  0  1  0  0  0  0  0  0
  189.3110  175.5110  145.7780 C   0  0  2  0  0  3  0  0  0  0  0  0
  189.8210  177.8130  144.9710 C   0  0  0  0  0  2  0  0  0  0  0  0
  189.4820  177.0450  142.4510 C   0  0  2  0  0  3  0  0  0  0  0  0
  189.5180  176.9810  146.2390 C   0  0  1  0  0  3  0  0  0  0  0  0
  189.0380  175.6500  141.9730 C   0  0  0  0  0  2  0  0  0  0  0  0
  188.2790  177.5510  146.8800 C   0  0  0  0  0  0  0  0  0  0  0  0
  188.3900  178.4180  147.7380 O   0  0  0  0  0  0  0  0  0  0  0  0
  186.5270  178.0120  145.1570 C   0  0  0  0  0  2  0  0  0  0  0  0
  184.2790  178.5870  146.1870 C   0  0  0  0  0  2  0  0  0  0  0  0
  184.4650  177.2280  146.8810 C   0  0  0  0  0  2  0  0  0  0  0  0
  185.8630  177.0950  147.4650 C   0  0  0  0  0  2  0  0  0  0  0  0
  185.5590  179.1330  145.5230 C   0  0  2  0  0  3  0  0  0  0  0  0
  186.9280  177.1620  146.3640 C   0  0  2  0  0  3  0  0  0  0  0  0
  185.0950  179.0090  143.0600 C   0  0  0  0  0  1  0  0  0  0  0  0
  185.2230  179.9130  144.2650 C   0  0  0  0  0  2  0  0  0  0  0  0
  192.0610  170.6190  138.8710 C   0  0  0  0  0  3  0  0  0  0  0  0
  193.0770  169.9870  139.5800 C   0  0  0  0  0  0  0  0  0  0  0  0
  193.4540  172.0140  140.8590 C   0  0  0  0  0  0  0  0  0  0  0  0
  193.4640  168.5870  139.2530 C   0  0  0  0  0  1  0  0  0  0  0  0
  191.7530  171.9640  139.1280 C   0  0  0  0  0  0  0  0  0  0  0  0
  193.7630  170.6770  140.5830 C   0  0  0  0  0  3  0  0  0  0  0  0
  192.4700  172.6650  140.1110 C   0  0  0  0  0  3  0  0  0  0  0  0
  190.7840  172.6630  138.2730 C   0  0  0  0  0  0  0  0  0  0  0  0
  190.8250  172.4930  136.8940 O   0  0  0  0  0  0  0  0  0  0  0  0
  189.8640  173.3570  138.7990 O   0  0  0  0  0  1  0  0  0  0  0  0
  1 10  1  0  0  0  0
  2  6  1  0  0  0  0
  3  4  1  0  0  0  0
  3 14  1  0  0  0  0
  4  8  1  6  0  0  0
  5 12  1  0  0  0  0
  5  2  2  0  0  0  0
  6 14  2  0  0  0  0
  7  4  1  0  0  0  0
  7  9  1  0  0  0  0
  9 10  1  1  0  0  0
 11 13  2  0  0  0  0
 12  3  2  0  0  0  0
 13  8  1  0  0  0  0
 13 12  1  0  0  0  0
 14  1  1  0  0  0  0
 15 17  1  6  0  0  0
 15 19  1  0  0  0  0
 16 15  1  0  0  0  0
 16 20  1  1  0  0  0
 19  9  1  6  0  0  0
 19 22  1  0  0  0  0
 20 22  1  0  0  0  0
 21 18  1  1  0  0  0
 21 16  1  0  0  0  0
 22 24  1  6  0  0  0
 23 21  1  0  0  0  0
 23 17  1  0  0  0  0
 24 25  2  0  0  0  0
 26 30  1  0  0  0  0
 26 31  1  0  0  0  0
 27 28  1  0  0  0  0
 28 29  1  0  0  0  0
 30 33  1  6  0  0  0
 30 27  1  0  0  0  0
 31 24  1  1  0  0  0
 31 29  1  0  0  0  0
 32 33  1  0  0  0  0
 34 38  2  0  0  0  0
 34 35  1  0  0  0  0
 35 39  2  0  0  0  0
 36 11  1  0  0  0  0
 37 35  1  0  0  0  0
 38 40  1  0  0  0  0
 39 36  1  0  0  0  0
 40 36  2  0  0  0  0
 41 43  1  0  0  0  0
 41 38  1  0  0  0  0
 42 41  2  0  0  0  0
M  END
>  <MODEL>
4

>  <REMARK>
 VINA RESULT:      -8.5      2.420      4.966
  Name = 
  6 active torsions:
  status: ('A' for Active; 'I' for Inactive)
    1  A    between atoms: C_3  and  C_27
    2  A    between atoms: C_3  and  C_40
    3  A    between atoms: C_15  and  C_34
    4  A    between atoms: C_17  and  N_30
    5  A    between atoms: C_21  and  C_26
    6  A    between atoms: C_25  and  C_36
                            x       y       z     vdW  Elec       q    Type
                         _______ _______ _______ _____ _____    ______ ____

>  <TORSDO>
F 6

$$$$
=
 OpenBabel11062422333D

 43 49  0  0  1  0  0  0  0  0999 V2000
  193.0270  175.8440  147.1190 C   0  0  0  0  0  2  0  0  0  0  0  0
  189.3630  174.9280  147.2450 C   0  0  0  0  0  3  0  0  0  0  0  0
  191.1660  175.7740  145.3370 C   0  0  0  0  0  0  0  0  0  0  0  0
  192.0640  176.0820  144.1910 C   0  0  1  0  0  3  0  0  0  0  0  0
  189.0180  174.9250  145.9240 N   0  0  0  0  0  0  0  0  0  0  0  0
  190.6580  175.2930  147.6410 C   0  0  0  0  0  3  0  0  0  0  0  0
  193.1630  175.2250  144.2670 O   0  0  0  0  0  0  0  0  0  0  0  0
  191.1400  175.8040  142.6380 S   0  0  0  0  0  0  0  0  0  0  0  0
  194.2460  175.9340  144.8280 C   0  0  1  0  0  3  0  0  0  0  0  0
  193.9330  176.6360  146.1710 C   0  0  0  0  0  2  0  0  0  0  0  0
  188.9830  174.1920  143.1200 N   0  0  0  0  0  0  0  0  0  0  0  0
  189.9040  175.3510  144.9880 C   0  0  0  0  0  0  0  0  0  0  0  0
  189.7520  175.1390  143.5650 C   0  0  0  0  0  0  0  0  0  0  0  0
  191.5850  175.7200  146.6820 C   0  0  0  0  0  0  0  0  0  0  0  0
  196.4680  175.3860  143.6300 C   0  0  1  0  0  3  0  0  0  0  0  0
  195.8370  174.6790  142.5060 C   0  0  2  0  0  3  0  0  0  0  0  0
  196.8110  176.7340  143.0620 C   0  0  0  0  0  2  0  0  0  0  0  0
  197.8690  174.0510  141.4010 O   0  0  0  0  0  1  0  0  0  0  0  0
  195.5590  175.1010  144.8130 C   0  0  2  0  0  3  0  0  0  0  0  0
  195.5740  173.3100  143.0810 C   0  0  0  0  0  2  0  0  0  0  0  0
  196.7860  174.9310  141.3610 C   0  0  2  0  0  3  0  0  0  0  0  0
  195.3060  173.5860  144.5800 C   0  0  1  0  0  3  0  0  0  0  0  0
  197.2690  176.3650  141.6420 C   0  0  0  0  0  2  0  0  0  0  0  0
  196.2490  172.7270  145.3820 C   0  0  0  0  0  0  0  0  0  0  0  0
  196.7530  173.1770  146.4040 O   0  0  0  0  0  0  0  0  0  0  0  0
  195.3840  170.3960  145.6440 C   0  0  0  0  0  2  0  0  0  0  0  0
  197.1340  168.8070  146.5720 C   0  0  0  0  0  2  0  0  0  0  0  0
  197.9410  169.2930  145.3580 C   0  0  0  0  0  2  0  0  0  0  0  0
  197.8870  170.8080  145.2300 C   0  0  0  0  0  2  0  0  0  0  0  0
  195.8920  169.6670  146.8840 C   0  0  2  0  0  3  0  0  0  0  0  0
  196.4500  171.2900  145.0080 C   0  0  2  0  0  3  0  0  0  0  0  0
  193.9460  168.1810  146.3340 C   0  0  0  0  0  1  0  0  0  0  0  0
  194.7680  168.8100  147.4370 C   0  0  0  0  0  2  0  0  0  0  0  0
  189.2230  172.6540  139.1860 C   0  0  0  0  0  3  0  0  0  0  0  0
  189.8240  171.9780  140.2430 C   0  0  0  0  0  0  0  0  0  0  0  0
  189.0470  173.6820  141.7850 C   0  0  0  0  0  0  0  0  0  0  0  0
  190.6060  170.7360  139.9930 C   0  0  0  0  0  1  0  0  0  0  0  0
  188.5540  173.8670  139.4140 C   0  0  0  0  0  0  0  0  0  0  0  0
  189.7240  172.4820  141.5420 C   0  0  0  0  0  3  0  0  0  0  0  0
  188.4880  174.3890  140.7160 C   0  0  0  0  0  3  0  0  0  0  0  0
  188.0550  174.6460  138.2740 C   0  0  0  0  0  0  0  0  0  0  0  0
  188.4430  174.3120  136.9820 O   0  0  0  0  0  0  0  0  0  0  0  0
  187.2090  175.5700  138.4630 O   0  0  0  0  0  1  0  0  0  0  0  0
  2  6  1  0  0  0  0
  3 14  1  0  0  0  0
  4  8  1  6  0  0  0
  4  7  1  0  0  0  0
  4  3  1  0  0  0  0
  5  2  2  0  0  0  0
  7  9  1  0  0  0  0
  8 13  1  0  0  0  0
  9 10  1  1  0  0  0
 10  1  1  0  0  0  0
 11 13  2  0  0  0  0
 12  3  2  0  0  0  0
 12  5  1  0  0  0  0
 13 12  1  0  0  0  0
 14  1  1  0  0  0  0
 14  6  2  0  0  0  0
 15 17  1  6  0  0  0
 15 19  1  0  0  0  0
 16 20  1  1  0  0  0
 16 15  1  0  0  0  0
 19  9  1  6  0  0  0
 20 22  1  0  0  0  0
 21 18  1  1  0  0  0
 21 23  1  0  0  0  0
 21 16  1  0  0  0  0
 22 19  1  0  0  0  0
 22 24  1  1  0  0  0
 23 17  1  0  0  0  0
 24 25  2  0  0  0  0
 26 30  1  0  0  0  0
 27 30  1  0  0  0  0
 28 27  1  0  0  0  0
 29 28  1  0  0  0  0
 30 33  1  6  0  0  0
 31 29  1  0  0  0  0
 31 24  1  1  0  0  0
 31 26  1  0  0  0  0
 32 33  1  0  0  0  0
 34 38  2  0  0  0  0
 34 35  1  0  0  0  0
 35 39  2  0  0  0  0
 36 11  1  0  0  0  0
 37 35  1  0  0  0  0
 38 40  1  0  0  0  0
 39 36  1  0  0  0  0
 40 36  2  0  0  0  0
 41 43  1  0  0  0  0
 41 38  1  0  0  0  0
 42 41  2  0  0  0  0
M  END
>  <MODEL>
5

>  <REMARK>
 VINA RESULT:      -8.5      3.204      8.995
  Name = 
  6 active torsions:
  status: ('A' for Active; 'I' for Inactive)
    1  A    between atoms: C_3  and  C_27
    2  A    between atoms: C_3  and  C_40
    3  A    between atoms: C_15  and  C_34
    4  A    between atoms: C_17  and  N_30
    5  A    between atoms: C_21  and  C_26
    6  A    between atoms: C_25  and  C_36
                            x       y       z     vdW  Elec       q    Type
                         _______ _______ _______ _____ _____    ______ ____

>  <TORSDO>
F 6

$$$$
=
 OpenBabel11062422333D

 43 49  0  0  1  0  0  0  0  0999 V2000
  192.5600  175.1030  146.2600 C   0  0  0  0  0  2  0  0  0  0  0  0
  188.9180  175.1650  147.2670 C   0  0  0  0  0  3  0  0  0  0  0  0
  190.4930  176.3220  145.3200 C   0  0  0  0  0  0  0  0  0  0  0  0
  191.1960  176.8910  144.1390 C   0  0  1  0  0  3  0  0  0  0  0  0
  188.3440  175.8560  146.2390 N   0  0  0  0  0  0  0  0  0  0  0  0
  190.3070  174.9760  147.3080 C   0  0  0  0  0  3  0  0  0  0  0  0
  191.8940  175.8550  143.5170 O   0  0  0  0  0  0  0  0  0  0  0  0
  189.9480  177.5960  143.0030 S   0  0  0  0  0  0  0  0  0  0  0  0
  193.2510  175.9350  143.8990 C   0  0  1  0  0  3  0  0  0  0  0  0
  193.4890  175.9920  145.4260 C   0  0  0  0  0  2  0  0  0  0  0  0
  187.4900  176.5300  143.5520 N   0  0  0  0  0  0  0  0  0  0  0  0
  189.1210  176.4320  145.2870 C   0  0  0  0  0  0  0  0  0  0  0  0
  188.6250  176.9440  144.0280 C   0  0  0  0  0  0  0  0  0  0  0  0
  191.1180  175.5540  146.3230 C   0  0  0  0  0  0  0  0  0  0  0  0
  195.5440  175.3900  142.8410 C   0  0  1  0  0  3  0  0  0  0  0  0
  195.3840  176.3140  141.7080 C   0  0  2  0  0  3  0  0  0  0  0  0
  196.4570  176.1240  143.7800 C   0  0  0  0  0  2  0  0  0  0  0  0
  197.4530  175.7760  140.6230 O   0  0  0  0  0  1  0  0  0  0  0  0
  194.1340  174.9080  143.1350 C   0  0  2  0  0  3  0  0  0  0  0  0
  194.5280  175.5230  140.7520 C   0  0  0  0  0  2  0  0  0  0  0  0
  196.8010  176.7340  141.4010 C   0  0  2  0  0  3  0  0  0  0  0  0
  193.6430  174.6590  141.6810 C   0  0  1  0  0  3  0  0  0  0  0  0
  197.4380  176.7900  142.8010 C   0  0  0  0  0  2  0  0  0  0  0  0
  193.8100  173.2190  141.2690 C   0  0  0  0  0  0  0  0  0  0  0  0
  194.7370  172.9080  140.5310 O   0  0  0  0  0  0  0  0  0  0  0  0
  191.4600  172.5630  141.8130 C   0  0  0  0  0  2  0  0  0  0  0  0
  191.1300  172.0890  144.2860 C   0  0  0  0  0  2  0  0  0  0  0  0
  192.2700  171.0850  144.0480 C   0  0  0  0  0  2  0  0  0  0  0  0
  193.4080  171.7180  143.2620 C   0  0  0  0  0  2  0  0  0  0  0  0
  190.9420  173.1050  143.1420 C   0  0  2  0  0  3  0  0  0  0  0  0
  192.9360  172.1640  141.8740 C   0  0  2  0  0  3  0  0  0  0  0  0
  188.6400  172.2710  142.5910 C   0  0  0  0  0  1  0  0  0  0  0  0
  189.4780  173.4690  142.9790 C   0  0  0  0  0  2  0  0  0  0  0  0
  186.2740  177.0340  139.5320 C   0  0  0  0  0  3  0  0  0  0  0  0
  185.6820  177.7820  140.5440 C   0  0  0  0  0  0  0  0  0  0  0  0
  187.0970  176.6940  142.1860 C   0  0  0  0  0  0  0  0  0  0  0  0
  184.5740  178.7260  140.2310 C   0  0  0  0  0  1  0  0  0  0  0  0
  187.2630  176.0870  139.8410 C   0  0  0  0  0  0  0  0  0  0  0  0
  186.1020  177.6240  141.8670 C   0  0  0  0  0  3  0  0  0  0  0  0
  187.6560  175.9050  141.1770 C   0  0  0  0  0  3  0  0  0  0  0  0
  187.7730  175.2000  138.7880 C   0  0  0  0  0  0  0  0  0  0  0  0
  187.4120  175.4150  137.4630 O   0  0  0  0  0  0  0  0  0  0  0  0
  188.6050  174.2880  139.0780 O   0  0  0  0  0  1  0  0  0  0  0  0
  1 14  1  0  0  0  0
  2  6  1  0  0  0  0
  3 14  1  0  0  0  0
  4  8  1  6  0  0  0
  4  3  1  0  0  0  0
  5  2  2  0  0  0  0
  7  9  1  0  0  0  0
  7  4  1  0  0  0  0
  8 13  1  0  0  0  0
  9 10  1  1  0  0  0
 10  1  1  0  0  0  0
 11 13  2  0  0  0  0
 12  3  2  0  0  0  0
 12  5  1  0  0  0  0
 13 12  1  0  0  0  0
 14  6  2  0  0  0  0
 15 19  1  0  0  0  0
 15 17  1  1  0  0  0
 16 20  1  6  0  0  0
 16 15  1  0  0  0  0
 19  9  1  6  0  0  0
 20 22  1  0  0  0  0
 21 18  1  6  0  0  0
 21 16  1  0  0  0  0
 21 23  1  0  0  0  0
 22 24  1  6  0  0  0
 22 19  1  0  0  0  0
 23 17  1  0  0  0  0
 25 24  2  0  0  0  0
 26 31  1  0  0  0  0
 26 30  1  0  0  0  0
 28 27  1  0  0  0  0
 29 28  1  0  0  0  0
 30 33  1  6  0  0  0
 30 27  1  0  0  0  0
 31 24  1  1  0  0  0
 31 29  1  0  0  0  0
 32 33  1  0  0  0  0
 34 38  2  0  0  0  0
 34 35  1  0  0  0  0
 35 39  2  0  0  0  0
 36 11  1  0  0  0  0
 37 35  1  0  0  0  0
 38 40  1  0  0  0  0
 39 36  1  0  0  0  0
 40 36  2  0  0  0  0
 41 43  1  0  0  0  0
 41 38  1  0  0  0  0
 42 41  2  0  0  0  0
M  END
>  <MODEL>
6

>  <REMARK>
 VINA RESULT:      -8.5      3.280      8.343
  Name = 
  6 active torsions:
  status: ('A' for Active; 'I' for Inactive)
    1  A    between atoms: C_3  and  C_27
    2  A    between atoms: C_3  and  C_40
    3  A    between atoms: C_15  and  C_34
    4  A    between atoms: C_17  and  N_30
    5  A    between atoms: C_21  and  C_26
    6  A    between atoms: C_25  and  C_36
                            x       y       z     vdW  Elec       q    Type
                         _______ _______ _______ _____ _____    ______ ____

>  <TORSDO>
F 6

$$$$
=
 OpenBabel11062422333D

 43 49  0  0  1  0  0  0  0  0999 V2000
  194.0180  175.9230  145.3470 C   0  0  0  0  0  2  0  0  0  0  0  0
  196.9360  176.8550  143.1340 C   0  0  0  0  0  3  0  0  0  0  0  0
  195.0210  174.8710  143.2190 C   0  0  0  0  0  0  0  0  0  0  0  0
  193.9620  173.8370  143.0660 C   0  0  1  0  0  3  0  0  0  0  0  0
  196.7930  175.9920  142.0860 N   0  0  0  0  0  0  0  0  0  0  0  0
  196.0670  176.7880  144.2330 C   0  0  0  0  0  3  0  0  0  0  0  0
  192.7250  174.4750  143.1640 O   0  0  0  0  0  0  0  0  0  0  0  0
  194.1500  173.0510  141.4250 S   0  0  0  0  0  0  0  0  0  0  0  0
  192.2170  174.2720  144.4650 C   0  0  1  0  0  3  0  0  0  0  0  0
  193.1890  174.6600  145.6050 C   0  0  0  0  0  2  0  0  0  0  0  0
  195.6240  174.6690  139.7860 N   0  0  0  0  0  0  0  0  0  0  0  0
  195.8570  175.0110  142.1340 C   0  0  0  0  0  0  0  0  0  0  0  0
  195.4380  174.2270  140.9920 C   0  0  0  0  0  0  0  0  0  0  0  0
  195.0870  175.7890  144.2860 C   0  0  0  0  0  0  0  0  0  0  0  0
  189.7030  173.9690  143.9570 C   0  0  1  0  0  3  0  0  0  0  0  0
  189.8230  174.2820  142.5260 C   0  0  2  0  0  3  0  0  0  0  0  0
  189.5970  172.4720  143.9930 C   0  0  0  0  0  2  0  0  0  0  0  0
  187.4870  174.1170  142.0130 O   0  0  0  0  0  1  0  0  0  0  0  0
  190.7710  174.8220  144.6200 C   0  0  2  0  0  3  0  0  0  0  0  0
  189.8500  175.7890  142.5170 C   0  0  0  0  0  2  0  0  0  0  0  0
  188.7170  173.4680  141.8990 C   0  0  2  0  0  3  0  0  0  0  0  0
  190.5490  176.1520  143.8480 C   0  0  1  0  0  3  0  0  0  0  0  0
  188.7160  172.1940  142.7640 C   0  0  0  0  0  2  0  0  0  0  0  0
  189.6450  177.0960  144.6000 C   0  0  0  0  0  0  0  0  0  0  0  0
  190.0370  178.2280  144.8560 O   0  0  0  0  0  0  0  0  0  0  0  0
  187.2370  177.5040  144.0670 C   0  0  0  0  0  2  0  0  0  0  0  0
  185.8790  178.1260  146.1210 C   0  0  0  0  0  2  0  0  0  0  0  0
  186.4280  176.7920  146.6510 C   0  0  0  0  0  2  0  0  0  0  0  0
  187.9240  176.6720  146.4010 C   0  0  0  0  0  2  0  0  0  0  0  0
  186.5980  178.6420  144.8580 C   0  0  2  0  0  3  0  0  0  0  0  0
  188.2340  176.6950  144.9010 C   0  0  2  0  0  3  0  0  0  0  0  0
  184.3070  178.6550  143.8320 C   0  0  0  0  0  1  0  0  0  0  0  0
  185.6300  179.3780  143.9500 C   0  0  0  0  0  2  0  0  0  0  0  0
  193.6560  173.1300  136.3730 C   0  0  0  0  0  3  0  0  0  0  0  0
  194.8470  172.5620  136.8130 C   0  0  0  0  0  0  0  0  0  0  0  0
  194.9410  174.1560  138.6390 C   0  0  0  0  0  0  0  0  0  0  0  0
  195.4710  171.4430  136.0550 C   0  0  0  0  0  1  0  0  0  0  0  0
  193.1120  174.2370  137.0440 C   0  0  0  0  0  0  0  0  0  0  0  0
  195.4810  173.0640  137.9520 C   0  0  0  0  0  3  0  0  0  0  0  0
  193.7720  174.7610  138.1670 C   0  0  0  0  0  3  0  0  0  0  0  0
  191.9380  174.9200  136.4850 C   0  0  0  0  0  0  0  0  0  0  0  0
  190.6630  174.4230  136.7300 O   0  0  0  0  0  1  0  0  0  0  0  0
  192.0840  176.0040  135.8470 O   0  0  0  0  0  0  0  0  0  0  0  0
  1 10  1  0  0  0  0
  2  6  1  0  0  0  0
  3 14  1  0  0  0  0
  4  8  1  6  0  0  0
  4  7  1  0  0  0  0
  4  3  1  0  0  0  0
  5 12  1  0  0  0  0
  5  2  2  0  0  0  0
  6 14  2  0  0  0  0
  7  9  1  0  0  0  0
  9 10  1  1  0  0  0
 11 13  2  0  0  0  0
 12  3  2  0  0  0  0
 13  8  1  0  0  0  0
 13 12  1  0  0  0  0
 14  1  1  0  0  0  0
 15 17  1  6  0  0  0
 15 19  1  0  0  0  0
 16 20  1  1  0  0  0
 16 15  1  0  0  0  0
 19  9  1  6  0  0  0
 20 22  1  0  0  0  0
 21 18  1  1  0  0  0
 21 16  1  0  0  0  0
 21 23  1  0  0  0  0
 22 24  1  1  0  0  0
 22 19  1  0  0  0  0
 23 17  1  0  0  0  0
 24 25  2  0  0  0  0
 26 30  1  0  0  0  0
 26 31  1  0  0  0  0
 27 28  1  0  0  0  0
 29 28  1  0  0  0  0
 30 33  1  6  0  0  0
 30 27  1  0  0  0  0
 31 24  1  1  0  0  0
 31 29  1  0  0  0  0
 32 33  1  0  0  0  0
 34 35  2  0  0  0  0
 34 38  1  0  0  0  0
 35 39  1  0  0  0  0
 36 11  1  0  0  0  0
 37 35  1  0  0  0  0
 38 40  2  0  0  0  0
 39 36  2  0  0  0  0
 40 36  1  0  0  0  0
 41 42  1  0  0  0  0
 41 38  1  0  0  0  0
 43 41  2  0  0  0  0
M  END
>  <MODEL>
7

>  <REMARK>
 VINA RESULT:      -8.3      3.320      5.742
  Name = 
  6 active torsions:
  status: ('A' for Active; 'I' for Inactive)
    1  A    between atoms: C_3  and  C_27
    2  A    between atoms: C_3  and  C_40
    3  A    between atoms: C_15  and  C_34
    4  A    between atoms: C_17  and  N_30
    5  A    between atoms: C_21  and  C_26
    6  A    between atoms: C_25  and  C_36
                            x       y       z     vdW  Elec       q    Type
                         _______ _______ _______ _____ _____    ______ ____

>  <TORSDO>
F 6

$$$$
=
 OpenBabel11062422333D

 43 49  0  0  1  0  0  0  0  0999 V2000
  191.8970  170.1010  140.6070 C   0  0  0  0  0  2  0  0  0  0  0  0
  189.2420  172.1190  138.8310 C   0  0  0  0  0  3  0  0  0  0  0  0
  190.0670  171.7180  141.4320 C   0  0  0  0  0  0  0  0  0  0  0  0
  190.5040  171.7040  142.8540 C   0  0  1  0  0  3  0  0  0  0  0  0
  188.7450  172.8960  139.8380 N   0  0  0  0  0  0  0  0  0  0  0  0
  190.2270  171.1580  139.0960 C   0  0  0  0  0  3  0  0  0  0  0  0
  191.8800  171.9360  142.8810 O   0  0  0  0  0  0  0  0  0  0  0  0
  189.6140  173.0270  143.7490 S   0  0  0  0  0  0  0  0  0  0  0  0
  192.5410  170.7000  143.0510 C   0  0  1  0  0  3  0  0  0  0  0  0
  192.1320  169.6050  142.0380 C   0  0  0  0  0  2  0  0  0  0  0  0
  188.6460  174.8610  141.9670 N   0  0  0  0  0  0  0  0  0  0  0  0
  189.1450  172.6910  141.1180 C   0  0  0  0  0  0  0  0  0  0  0  0
  188.9010  173.6110  142.2070 C   0  0  0  0  0  0  0  0  0  0  0  0
  190.6590  170.9470  140.4110 C   0  0  0  0  0  0  0  0  0  0  0  0
  194.6950  169.9240  144.2470 C   0  0  1  0  0  3  0  0  0  0  0  0
  194.3210  170.4790  145.5560 C   0  0  2  0  0  3  0  0  0  0  0  0
  194.4160  168.4550  144.3830 C   0  0  0  0  0  2  0  0  0  0  0  0
  196.3430  169.8770  146.6950 O   0  0  0  0  0  1  0  0  0  0  0  0
  194.0730  170.8790  143.2430 C   0  0  2  0  0  3  0  0  0  0  0  0
  194.6820  171.9360  145.4150 C   0  0  0  0  0  2  0  0  0  0  0  0
  194.9960  169.5470  146.5320 C   0  0  2  0  0  3  0  0  0  0  0  0
  194.4400  172.2310  143.9160 C   0  0  1  0  0  3  0  0  0  0  0  0
  194.8750  168.1850  145.8250 C   0  0  0  0  0  2  0  0  0  0  0  0
  195.7090  172.8160  143.3510 C   0  0  0  0  0  0  0  0  0  0  0  0
  196.7000  172.1050  143.2340 O   0  0  0  0  0  0  0  0  0  0  0  0
  195.5360  175.2440  143.9220 C   0  0  0  0  0  2  0  0  0  0  0  0
  193.6390  176.3990  142.6920 C   0  0  0  0  0  2  0  0  0  0  0  0
  194.3690  175.8580  141.4520 C   0  0  0  0  0  2  0  0  0  0  0  0
  194.7440  174.3940  141.6280 C   0  0  0  0  0  2  0  0  0  0  0  0
  194.1070  175.7710  144.0190 C   0  0  2  0  0  3  0  0  0  0  0  0
  195.7080  174.2110  142.8060 C   0  0  2  0  0  3  0  0  0  0  0  0
  193.1720  176.2990  146.2880 C   0  0  0  0  0  1  0  0  0  0  0  0
  194.0400  176.7840  145.1480 C   0  0  0  0  0  2  0  0  0  0  0  0
  189.0070  177.9160  144.8710 C   0  0  0  0  0  3  0  0  0  0  0  0
  189.9820  177.7590  143.8910 C   0  0  0  0  0  0  0  0  0  0  0  0
  188.7480  175.8940  142.9510 C   0  0  0  0  0  0  0  0  0  0  0  0
  191.1910  178.6270  143.8880 C   0  0  0  0  0  1  0  0  0  0  0  0
  187.9090  177.0430  144.9180 C   0  0  0  0  0  0  0  0  0  0  0  0
  189.8460  176.7600  142.9240 C   0  0  0  0  0  3  0  0  0  0  0  0
  187.7950  176.0170  143.9660 C   0  0  0  0  0  3  0  0  0  0  0  0
  186.9670  177.1240  146.0420 C   0  0  0  0  0  0  0  0  0  0  0  0
  187.3830  177.6430  147.2620 O   0  0  0  0  0  1  0  0  0  0  0  0
  185.7550  176.7930  145.8750 O   0  0  0  0  0  0  0  0  0  0  0  0
  1 10  1  0  0  0  0
  2  6  2  0  0  0  0
  2  5  1  0  0  0  0
  4  3  1  6  0  0  0
  4  7  1  0  0  0  0
  4  8  1  0  0  0  0
  5 12  2  0  0  0  0
  6 14  1  0  0  0  0
  7  9  1  0  0  0  0
  9 10  1  6  0  0  0
 11 13  2  0  0  0  0
 11 36  1  0  0  0  0
 12  3  1  0  0  0  0
 12 13  1  0  0  0  0
 13  8  1  0  0  0  0
 14  1  1  0  0  0  0
 14  3  2  0  0  0  0
 15 17  1  6  0  0  0
 15 16  1  0  0  0  0
 16 20  1  6  0  0  0
 16 21  1  0  0  0  0
 17 23  1  0  0  0  0
 19  9  1  1  0  0  0
 19 22  1  0  0  0  0
 19 15  1  0  0  0  0
 21 18  1  6  0  0  0
 22 24  1  6  0  0  0
 22 20  1  0  0  0  0
 23 21  1  0  0  0  0
 25 24  2  0  0  0  0
 26 30  1  0  0  0  0
 27 30  1  0  0  0  0
 28 29  1  0  0  0  0
 28 27  1  0  0  0  0
 29 31  1  0  0  0  0
 30 33  1  1  0  0  0
 31 24  1  1  0  0  0
 31 26  1  0  0  0  0
 33 32  1  0  0  0  0
 34 38  1  0  0  0  0
 35 34  2  0  0  0  0
 36 40  1  0  0  0  0
 37 35  1  0  0  0  0
 38 41  1  0  0  0  0
 39 36  2  0  0  0  0
 39 35  1  0  0  0  0
 40 38  2  0  0  0  0
 41 42  1  0  0  0  0
 43 41  2  0  0  0  0
M  END
>  <MODEL>
8

>  <REMARK>
 VINA RESULT:      -8.3      2.328      7.919
  Name = 
  6 active torsions:
  status: ('A' for Active; 'I' for Inactive)
    1  A    between atoms: C_3  and  C_27
    2  A    between atoms: C_3  and  C_40
    3  A    between atoms: C_15  and  C_34
    4  A    between atoms: C_17  and  N_30
    5  A    between atoms: C_21  and  C_26
    6  A    between atoms: C_25  and  C_36
                            x       y       z     vdW  Elec       q    Type
                         _______ _______ _______ _____ _____    ______ ____

>  <TORSDO>
F 6

$$$$
=
 OpenBabel11062422333D

 43 49  0  0  1  0  0  0  0  0999 V2000
  195.9850  173.1910  141.6300 C   0  0  0  0  0  2  0  0  0  0  0  0
  196.3890  176.2920  143.7520 C   0  0  0  0  0  3  0  0  0  0  0  0
  194.3590  175.0590  142.3480 C   0  0  0  0  0  0  0  0  0  0  0  0
  193.1520  174.4220  141.7570 C   0  0  1  0  0  3  0  0  0  0  0  0
  195.1010  176.7250  143.8810 N   0  0  0  0  0  0  0  0  0  0  0  0
  196.6850  175.1730  142.9600 C   0  0  0  0  0  3  0  0  0  0  0  0
  193.1170  173.0930  142.1820 O   0  0  0  0  0  0  0  0  0  0  0  0
  191.6730  175.3220  142.3470 S   0  0  0  0  0  0  0  0  0  0  0  0
  193.6040  172.2760  141.1400 C   0  0  1  0  0  3  0  0  0  0  0  0
  194.9840  172.6960  140.5800 C   0  0  0  0  0  2  0  0  0  0  0  0
  192.2920  176.7440  144.6000 N   0  0  0  0  0  0  0  0  0  0  0  0
  194.1050  176.1230  143.1830 C   0  0  0  0  0  0  0  0  0  0  0  0
  192.6950  176.3130  143.4430 C   0  0  0  0  0  0  0  0  0  0  0  0
  195.6640  174.5340  142.2460 C   0  0  0  0  0  0  0  0  0  0  0  0
  192.6600  169.9720  140.4500 C   0  0  1  0  0  3  0  0  0  0  0  0
  191.2600  170.3150  140.7430 C   0  0  2  0  0  3  0  0  0  0  0  0
  192.7530  170.0770  138.9550 C   0  0  0  0  0  2  0  0  0  0  0  0
  190.3370  168.1660  140.2170 O   0  0  0  0  0  1  0  0  0  0  0  0
  193.4620  170.7630  141.4690 C   0  0  2  0  0  3  0  0  0  0  0  0
  191.1780  170.1280  142.2370 C   0  0  0  0  0  2  0  0  0  0  0  0
  190.4850  169.4760  139.7570 C   0  0  2  0  0  3  0  0  0  0  0  0
  192.5950  170.5030  142.7330 C   0  0  1  0  0  3  0  0  0  0  0  0
  191.3990  169.4940  138.5190 C   0  0  0  0  0  2  0  0  0  0  0  0
  193.1190  169.3480  143.5480 C   0  0  0  0  0  0  0  0  0  0  0  0
  192.6530  168.2280  143.3740 O   0  0  0  0  0  0  0  0  0  0  0  0
  194.1470  170.8280  145.2800 C   0  0  0  0  0  2  0  0  0  0  0  0
  196.4630  171.6330  144.6200 C   0  0  0  0  0  2  0  0  0  0  0  0
  196.7430  170.1270  144.5000 C   0  0  0  0  0  2  0  0  0  0  0  0
  195.6380  169.4200  143.7300 C   0  0  0  0  0  2  0  0  0  0  0  0
  194.9660  171.9870  144.7180 C   0  0  2  0  0  3  0  0  0  0  0  0
  194.2940  169.5480  144.4540 C   0  0  2  0  0  3  0  0  0  0  0  0
  193.2890  173.5410  145.7540 C   0  0  0  0  0  1  0  0  0  0  0  0
  194.7550  173.2020  145.6030 C   0  0  0  0  0  2  0  0  0  0  0  0
  188.3200  176.3270  145.9950 C   0  0  0  0  0  3  0  0  0  0  0  0
  189.3420  175.5590  146.5440 C   0  0  0  0  0  0  0  0  0  0  0  0
  190.9450  176.6220  145.0650 C   0  0  0  0  0  0  0  0  0  0  0  0
  189.0400  174.5420  147.5880 C   0  0  0  0  0  1  0  0  0  0  0  0
  188.5960  177.2270  144.9540 C   0  0  0  0  0  0  0  0  0  0  0  0
  190.6550  175.7160  146.0910 C   0  0  0  0  0  3  0  0  0  0  0  0
  189.9110  177.3550  144.4770 C   0  0  0  0  0  3  0  0  0  0  0  0
  187.4900  177.9210  144.2830 C   0  0  0  0  0  0  0  0  0  0  0  0
  187.5860  178.2370  142.9320 O   0  0  0  0  0  0  0  0  0  0  0  0
  186.4180  178.1600  144.9140 O   0  0  0  0  0  1  0  0  0  0  0  0
  1 14  1  0  0  0  0
  2  5  1  0  0  0  0
  3 12  1  0  0  0  0
  4  7  1  1  0  0  0
  4  8  1  0  0  0  0
  4  3  1  0  0  0  0
  6  2  2  0  0  0  0
  8 13  1  0  0  0  0
  9 10  1  1  0  0  0
  9  7  1  0  0  0  0
 10  1  1  0  0  0  0
 11 36  1  0  0  0  0
 12 13  1  0  0  0  0
 12  5  2  0  0  0  0
 13 11  2  0  0  0  0
 14  3  2  0  0  0  0
 14  6  1  0  0  0  0
 15 17  1  6  0  0  0
 15 16  1  0  0  0  0
 15 19  1  0  0  0  0
 16 20  1  1  0  0  0
 19  9  1  6  0  0  0
 19 22  1  0  0  0  0
 20 22  1  0  0  0  0
 21 18  1  1  0  0  0
 21 16  1  0  0  0  0
 22 24  1  6  0  0  0
 23 17  1  0  0  0  0
 23 21  1  0  0  0  0
 25 24  2  0  0  0  0
 27 30  1  0  0  0  0
 28 27  1  0  0  0  0
 29 31  1  0  0  0  0
 29 28  1  0  0  0  0
 30 26  1  0  0  0  0
 30 33  1  1  0  0  0
 31 24  1  6  0  0  0
 31 26  1  0  0  0  0
 33 32  1  0  0  0  0
 34 35  1  0  0  0  0
 35 37  1  0  0  0  0
 36 39  1  0  0  0  0
 38 34  2  0  0  0  0
 39 35  2  0  0  0  0
 40 38  1  0  0  0  0
 40 36  2  0  0  0  0
 41 43  1  0  0  0  0
 41 38  1  0  0  0  0
 42 41  2  0  0  0  0
M  END
>  <MODEL>
9

>  <REMARK>
 VINA RESULT:      -8.2      2.940      9.164
  Name = 
  6 active torsions:
  status: ('A' for Active; 'I' for Inactive)
    1  A    between atoms: C_3  and  C_27
    2  A    between atoms: C_3  and  C_40
    3  A    between atoms: C_15  and  C_34
    4  A    between atoms: C_17  and  N_30
    5  A    between atoms: C_21  and  C_26
    6  A    between atoms: C_25  and  C_36
                            x       y       z     vdW  Elec       q    Type
                         _______ _______ _______ _____ _____    ______ ____

>  <TORSDO>
F 6

$$$$
