=
 OpenBabel11072408593D

 45 49  0  0  1  0  0  0  0  0999 V2000
  186.9360  177.0830  143.4270 C   0  0  2  0  0  3  0  0  0  0  0  0
  185.4190  178.7780  144.6060 P   0  0  2  0  0  0  0  0  0  0  0  0
  185.5180  180.2310  144.1980 O   0  0  0  0  0  0  0  0  0  0  0  0
  187.2110  177.1290  144.9390 C   0  0  2  0  0  3  0  0  0  0  0  0
  183.9940  178.4950  145.4710 O   0  0  0  0  0  1  0  0  0  0  0  0
  186.7740  178.3370  145.5170 O   0  0  0  0  0  0  0  0  0  0  0  0
  185.5570  177.6640  143.2040 C   0  0  1  0  0  3  0  0  0  0  0  0
  190.3460  175.8840  146.6530 C   0  0  0  0  0  3  0  0  0  0  0  0
  188.6550  176.9020  145.2490 C   0  0  0  0  0  0  0  0  0  0  0  0
  191.3600  176.4700  145.8820 C   0  0  0  0  0  0  0  0  0  0  0  0
  189.6630  177.4990  144.4800 C   0  0  0  0  0  3  0  0  0  0  0  0
  191.0070  177.2810  144.7930 C   0  0  0  0  0  3  0  0  0  0  0  0
  189.0010  176.1000  146.3390 C   0  0  0  0  0  3  0  0  0  0  0  0
  192.7800  176.2450  146.2120 C   0  0  0  0  0  0  0  0  0  0  0  0
  193.3000  176.8360  147.1990 O   0  0  0  0  0  0  0  0  0  0  0  0
  193.6210  175.3200  145.3790 C   0  0  2  0  0  3  0  0  0  0  0  0
  193.3480  173.9430  145.7670 N   0  0  0  0  0  1  0  0  0  0  0  0
  195.1180  175.6280  145.5180 C   0  0  2  0  0  3  0  0  0  0  0  0
  195.6650  176.3990  144.3050 C   0  0  0  0  0  2  0  0  0  0  0  0
  195.9130  174.3440  145.8220 C   0  0  0  0  0  2  0  0  0  0  0  0
  195.9720  175.4770  143.1230 C   0  0  2  0  0  3  0  0  0  0  0  0
  197.1850  174.2110  144.9840 C   0  0  0  0  0  2  0  0  0  0  0  0
  196.8410  174.2650  143.4950 C   0  0  2  0  0  3  0  0  0  0  0  0
  197.4660  175.4940  142.8670 C   0  0  1  0  0  3  0  0  0  0  0  0
  197.7290  175.2280  141.3970 C   0  0  0  0  0  2  0  0  0  0  0  0
  196.9470  176.0850  140.6210 O   0  0  0  0  0  0  0  0  0  0  0  0
  195.6960  174.4290  139.6870 O   0  0  0  0  0  1  0  0  0  0  0  0
  196.6980  175.3690  139.4500 C   0  0  0  0  0  2  0  0  0  0  0  0
  186.4600  177.9070  140.9320 N   0  0  0  0  0  1  0  0  0  0  0  0
  185.4600  178.4040  141.8640 C   0  0  1  0  0  3  0  0  0  0  0  0
  184.1070  178.2480  141.2490 C   0  0  0  0  0  0  0  0  0  0  0  0
  182.9660  178.2720  142.0400 O   0  0  0  0  0  1  0  0  0  0  0  0
  184.0030  178.0500  140.0100 O   0  0  0  0  0  0  0  0  0  0  0  0
  186.9800  175.7640  142.9690 O   0  0  0  0  0  0  0  0  0  0  0  0
  188.0490  175.7180  142.2010 O   0  0  0  0  0  0  0  0  0  0  0  0
  187.7740  173.4340  141.5670 C   0  0  1  0  0  3  0  0  0  0  0  0
  190.0310  174.4080  141.8860 C   0  0  2  0  0  3  0  0  0  0  0  0
  188.5780  174.4410  142.4010 C   0  0  1  0  0  3  0  0  0  0  0  0
  188.6990  173.1090  140.4620 C   0  0  0  0  0  0  0  0  0  0  0  0
  188.3960  172.3830  139.4790 O   0  0  0  0  0  0  0  0  0  0  0  0
  191.0750  173.5770  139.6910 C   0  0  0  0  0  1  0  0  0  0  0  0
  189.9720  173.6900  140.6310 N   0  0  0  0  0  0  0  0  0  0  0  0
  187.5410  172.2880  142.3240 O   0  0  0  0  0  1  0  0  0  0  0  0
  190.8210  173.6930  142.7880 O   0  0  0  0  0  0  0  0  0  0  0  0
  190.1730  173.7560  143.9310 O   0  0  0  0  0  1  0  0  0  0  0  0
  1 34  1  1  0  0  0
  1  4  1  0  0  0  0
  2  3  2  6  0  0  0
  2  5  1  0  0  0  0
  2  6  1  0  0  0  0
  4  9  1  6  0  0  0
  4  6  1  0  0  0  0
  7 30  1  6  0  0  0
  7  1  1  0  0  0  0
  7  2  1  0  0  0  0
  9 13  2  0  0  0  0
 10 14  1  0  0  0  0
 10  8  2  0  0  0  0
 11 12  2  0  0  0  0
 11  9  1  0  0  0  0
 12 10  1  0  0  0  0
 13  8  1  0  0  0  0
 14 15  2  0  0  0  0
 16 17  1  1  0  0  0
 16 14  1  0  0  0  0
 18 16  1  6  0  0  0
 18 20  1  0  0  0  0
 19 18  1  0  0  0  0
 21 23  1  0  0  0  0
 21 19  1  1  0  0  0
 22 20  1  0  0  0  0
 23 22  1  1  0  0  0
 24 25  1  6  0  0  0
 24 21  1  0  0  0  0
 24 23  1  0  0  0  0
 26 25  1  0  0  0  0
 28 27  1  0  0  0  0
 28 26  1  0  0  0  0
 30 29  1  6  0  0  0
 31 30  1  0  0  0  0
 31 32  1  0  0  0  0
 33 31  2  0  0  0  0
 35 34  1  0  0  0  0
 36 43  1  1  0  0  0
 36 38  1  0  0  0  0
 37 38  1  0  0  0  0
 37 44  1  1  0  0  0
 38 35  1  6  0  0  0
 39 42  1  0  0  0  0
 39 36  1  0  0  0  0
 40 39  2  0  0  0  0
 41 42  1  0  0  0  0
 42 37  1  0  0  0  0
 44 45  1  0  0  0  0
M  END
>  <MODEL>
1

>  <REMARK>
 VINA RESULT:      -7.9      0.000      0.000
  Name = 
  13 active torsions:
  status: ('A' for Active; 'I' for Inactive)
    1  A    between atoms: C_1  and  O_7
    2  A    between atoms: C_4  and  C_17
    3  A    between atoms: C_4  and  C_24
    4  A    between atoms: O_5  and  C_10
    5  A    between atoms: O_6  and  O_7
    6  A    between atoms: O_6  and  C_19
    7  A    between atoms: C_12  and  C_23
    8  A    between atoms: C_14  and  C_17
    9  A    between atoms: C_18  and  O_31
   10  A    between atoms: C_21  and  CA_43
   11  A    between atoms: C_25  and  O_31
   12  A    between atoms: C_25  and  C_45
   13  A    between atoms: C_38  and  CA_43
                            x       y       z     vdW  Elec       q    Type
                         _______ _______ _______ _____ _____    ______ ____

>  <TORSDO>
F 13

$$$$
=
 OpenBabel11072408593D

 45 49  0  0  1  0  0  0  0  0999 V2000
  192.9490  175.1310  143.4800 C   0  0  2  0  0  3  0  0  0  0  0  0
  195.1820  175.8840  144.4850 P   0  0  2  0  0  0  0  0  0  0  0  0
  195.8590  174.9730  145.4860 O   0  0  0  0  0  1  0  0  0  0  0  0
  192.8020  176.4500  144.2570 C   0  0  2  0  0  3  0  0  0  0  0  0
  196.2700  177.0360  143.8940 O   0  0  0  0  0  0  0  0  0  0  0  0
  193.8400  176.6290  145.1920 O   0  0  0  0  0  0  0  0  0  0  0  0
  194.4150  174.9710  143.1420 C   0  0  1  0  0  3  0  0  0  0  0  0
  189.9090  175.7160  146.5820 C   0  0  0  0  0  3  0  0  0  0  0  0
  191.4740  176.5530  144.9330 C   0  0  0  0  0  0  0  0  0  0  0  0
  188.9750  176.6940  146.2130 C   0  0  0  0  0  0  0  0  0  0  0  0
  190.5400  177.5270  144.5520 C   0  0  0  0  0  3  0  0  0  0  0  0
  189.3000  177.5980  145.1910 C   0  0  0  0  0  3  0  0  0  0  0  0
  191.1510  175.6450  145.9440 C   0  0  0  0  0  3  0  0  0  0  0  0
  187.6630  176.7700  146.8830 C   0  0  0  0  0  0  0  0  0  0  0  0
  187.2710  175.8180  147.6140 O   0  0  0  0  0  0  0  0  0  0  0  0
  186.7790  177.9710  146.6990 C   0  0  2  0  0  3  0  0  0  0  0  0
  186.5040  178.5670  147.9980 N   0  0  0  0  0  1  0  0  0  0  0  0
  185.4670  177.6110  145.9870 C   0  0  2  0  0  3  0  0  0  0  0  0
  185.7130  177.0120  144.5920 C   0  0  0  0  0  2  0  0  0  0  0  0
  184.5120  178.8190  145.9620 C   0  0  0  0  0  2  0  0  0  0  0  0
  185.9820  178.0880  143.5380 C   0  0  2  0  0  3  0  0  0  0  0  0
  183.8600  179.0420  144.5980 C   0  0  0  0  0  2  0  0  0  0  0  0
  184.9350  179.2120  143.5230 C   0  0  2  0  0  3  0  0  0  0  0  0
  184.8510  178.0740  142.5280 C   0  0  1  0  0  3  0  0  0  0  0  0
  185.3710  178.5430  141.1830 C   0  0  0  0  0  2  0  0  0  0  0  0
  185.3260  177.4870  140.2710 O   0  0  0  0  0  0  0  0  0  0  0  0
  187.4140  176.6650  140.6490 O   0  0  0  0  0  1  0  0  0  0  0  0
  186.6230  177.4020  139.7670 C   0  0  0  0  0  2  0  0  0  0  0  0
  193.8030  172.6620  143.7160 N   0  0  0  0  0  1  0  0  0  0  0  0
  194.8380  173.4970  143.1270 C   0  0  1  0  0  3  0  0  0  0  0  0
  195.1090  173.0190  141.7360 C   0  0  0  0  0  0  0  0  0  0  0  0
  195.7220  171.7920  141.5200 O   0  0  0  0  0  1  0  0  0  0  0  0
  194.8190  173.7540  140.7560 O   0  0  0  0  0  0  0  0  0  0  0  0
  192.1890  175.1740  142.3090 O   0  0  0  0  0  0  0  0  0  0  0  0
  190.9960  174.7510  142.6750 O   0  0  0  0  0  0  0  0  0  0  0  0
  189.6470  172.7820  142.6640 C   0  0  1  0  0  3  0  0  0  0  0  0
  190.5380  173.7310  140.5550 C   0  0  2  0  0  3  0  0  0  0  0  0
  190.8500  173.5110  142.0490 C   0  0  1  0  0  3  0  0  0  0  0  0
  188.6220  172.8870  141.6070 C   0  0  0  0  0  0  0  0  0  0  0  0
  187.4310  172.5010  141.7380 O   0  0  0  0  0  0  0  0  0  0  0  0
  188.3420  173.7180  139.2210 C   0  0  0  0  0  1  0  0  0  0  0  0
  189.1230  173.4560  140.4180 N   0  0  0  0  0  0  0  0  0  0  0  0
  189.9710  171.4420  142.8620 O   0  0  0  0  0  1  0  0  0  0  0  0
  191.2610  172.8110  139.7950 O   0  0  0  0  0  0  0  0  0  0  0  0
  192.0420  173.5420  139.0300 O   0  0  0  0  0  1  0  0  0  0  0  0
  1 34  1  6  0  0  0
  1  4  1  0  0  0  0
  2  5  2  6  0  0  0
  2  6  1  0  0  0  0
  2  3  1  0  0  0  0
  4  9  1  1  0  0  0
  4  6  1  0  0  0  0
  7 30  1  1  0  0  0
  7  1  1  0  0  0  0
  7  2  1  0  0  0  0
  9 13  1  0  0  0  0
 10  8  1  0  0  0  0
 10 14  1  0  0  0  0
 11  9  2  0  0  0  0
 11 12  1  0  0  0  0
 12 10  2  0  0  0  0
 13  8  2  0  0  0  0
 14 15  2  0  0  0  0
 16 14  1  0  0  0  0
 16 17  1  1  0  0  0
 18 16  1  6  0  0  0
 19 18  1  0  0  0  0
 20 18  1  0  0  0  0
 21 19  1  1  0  0  0
 22 20  1  0  0  0  0
 23 21  1  0  0  0  0
 23 22  1  1  0  0  0
 24 25  1  6  0  0  0
 24 23  1  0  0  0  0
 24 21  1  0  0  0  0
 26 25  1  0  0  0  0
 28 26  1  0  0  0  0
 28 27  1  0  0  0  0
 30 29  1  6  0  0  0
 31 30  1  0  0  0  0
 32 31  1  0  0  0  0
 33 31  2  0  0  0  0
 34 35  1  0  0  0  0
 36 43  1  6  0  0  0
 37 44  1  6  0  0  0
 37 38  1  0  0  0  0
 38 36  1  0  0  0  0
 38 35  1  1  0  0  0
 39 40  2  0  0  0  0
 39 36  1  0  0  0  0
 41 42  1  0  0  0  0
 42 37  1  0  0  0  0
 42 39  1  0  0  0  0
 45 44  1  0  0  0  0
M  END
>  <MODEL>
2

>  <REMARK>
 VINA RESULT:      -7.7      2.749      8.293
  Name = 
  13 active torsions:
  status: ('A' for Active; 'I' for Inactive)
    1  A    between atoms: C_1  and  O_7
    2  A    between atoms: C_4  and  C_17
    3  A    between atoms: C_4  and  C_24
    4  A    between atoms: O_5  and  C_10
    5  A    between atoms: O_6  and  O_7
    6  A    between atoms: O_6  and  C_19
    7  A    between atoms: C_12  and  C_23
    8  A    between atoms: C_14  and  C_17
    9  A    between atoms: C_18  and  O_31
   10  A    between atoms: C_21  and  CA_43
   11  A    between atoms: C_25  and  O_31
   12  A    between atoms: C_25  and  C_45
   13  A    between atoms: C_38  and  CA_43
                            x       y       z     vdW  Elec       q    Type
                         _______ _______ _______ _____ _____    ______ ____

>  <TORSDO>
F 13

$$$$
=
 OpenBabel11072408593D

 45 49  0  0  1  0  0  0  0  0999 V2000
  193.1560  174.9070  143.5290 C   0  0  2  0  0  3  0  0  0  0  0  0
  195.3630  175.8600  144.4130 P   0  0  2  0  0  0  0  0  0  0  0  0
  196.0880  175.0960  145.5000 O   0  0  0  0  0  1  0  0  0  0  0  0
  192.9590  176.2970  144.1560 C   0  0  2  0  0  3  0  0  0  0  0  0
  196.3950  176.9850  143.6840 O   0  0  0  0  0  0  0  0  0  0  0  0
  193.9960  176.6230  145.0530 O   0  0  0  0  0  0  0  0  0  0  0  0
  194.6240  174.7720  143.1910 C   0  0  1  0  0  3  0  0  0  0  0  0
  190.0390  175.5700  146.4500 C   0  0  0  0  0  3  0  0  0  0  0  0
  191.6340  176.4170  144.8360 C   0  0  0  0  0  0  0  0  0  0  0  0
  189.1380  176.5930  146.1180 C   0  0  0  0  0  0  0  0  0  0  0  0
  190.7340  177.4360  144.4920 C   0  0  0  0  0  3  0  0  0  0  0  0
  189.4950  177.5240  145.1330 C   0  0  0  0  0  3  0  0  0  0  0  0
  191.2780  175.4820  145.8110 C   0  0  0  0  0  3  0  0  0  0  0  0
  187.8280  176.6870  146.7900 C   0  0  0  0  0  0  0  0  0  0  0  0
  187.4050  175.7220  147.4870 O   0  0  0  0  0  0  0  0  0  0  0  0
  186.9830  177.9210  146.6490 C   0  0  2  0  0  3  0  0  0  0  0  0
  186.8670  178.5740  147.9450 N   0  0  0  0  0  1  0  0  0  0  0  0
  185.5920  177.6000  146.0850 C   0  0  2  0  0  3  0  0  0  0  0  0
  185.6710  176.8640  144.7370 C   0  0  0  0  0  2  0  0  0  0  0  0
  184.7220  178.8690  146.0260 C   0  0  0  0  0  2  0  0  0  0  0  0
  185.9160  177.8210  143.5680 C   0  0  2  0  0  3  0  0  0  0  0  0
  183.9670  179.0200  144.7060 C   0  0  0  0  0  2  0  0  0  0  0  0
  184.9500  179.0140  143.5340 C   0  0  2  0  0  3  0  0  0  0  0  0
  184.7020  177.8030  142.6610 C   0  0  1  0  0  3  0  0  0  0  0  0
  185.1300  178.1120  141.2390 C   0  0  0  0  0  2  0  0  0  0  0  0
  186.5220  178.1960  141.1780 O   0  0  0  0  0  0  0  0  0  0  0  0
  187.5040  176.2530  140.5170 O   0  0  0  0  0  1  0  0  0  0  0  0
  186.8730  177.4160  140.0770 C   0  0  0  0  0  2  0  0  0  0  0  0
  194.2140  172.5650  144.1900 N   0  0  0  0  0  1  0  0  0  0  0  0
  195.1110  173.3250  143.3330 C   0  0  1  0  0  3  0  0  0  0  0  0
  195.2020  172.6440  142.0050 C   0  0  0  0  0  0  0  0  0  0  0  0
  195.4860  173.3730  140.8580 O   0  0  0  0  0  0  0  0  0  0  0  0
  194.9760  171.4090  141.9200 O   0  0  0  0  0  1  0  0  0  0  0  0
  192.3840  174.7870  142.3710 O   0  0  0  0  0  0  0  0  0  0  0  0
  191.5650  173.7870  142.6230 O   0  0  0  0  0  0  0  0  0  0  0  0
  192.0420  173.3090  140.3340 C   0  0  1  0  0  3  0  0  0  0  0  0
  190.1750  172.1820  141.5130 C   0  0  2  0  0  3  0  0  0  0  0  0
  190.9540  173.5080  141.3990 C   0  0  1  0  0  3  0  0  0  0  0  0
  192.0280  171.8490  140.1170 C   0  0  0  0  0  0  0  0  0  0  0  0
  192.8470  171.2360  139.3830 O   0  0  0  0  0  0  0  0  0  0  0  0
  190.7410  169.7730  140.8220 C   0  0  0  0  0  1  0  0  0  0  0  0
  190.9840  171.2060  140.8140 N   0  0  0  0  0  0  0  0  0  0  0  0
  191.6620  173.9530  139.1590 O   0  0  0  0  0  1  0  0  0  0  0  0
  188.9480  172.3140  140.8610 O   0  0  0  0  0  0  0  0  0  0  0  0
  188.1370  172.8200  141.7630 O   0  0  0  0  0  1  0  0  0  0  0  0
  1 34  1  6  0  0  0
  1  4  1  0  0  0  0
  2  5  2  6  0  0  0
  2  6  1  0  0  0  0
  2  3  1  0  0  0  0
  4  9  1  1  0  0  0
  4  6  1  0  0  0  0
  7 30  1  1  0  0  0
  7  1  1  0  0  0  0
  7  2  1  0  0  0  0
  9 13  1  0  0  0  0
 10  8  1  0  0  0  0
 10 14  1  0  0  0  0
 11  9  2  0  0  0  0
 11 12  1  0  0  0  0
 12 10  2  0  0  0  0
 13  8  2  0  0  0  0
 14 15  2  0  0  0  0
 16 14  1  0  0  0  0
 16 17  1  1  0  0  0
 18 16  1  6  0  0  0
 19 18  1  0  0  0  0
 20 18  1  0  0  0  0
 21 19  1  1  0  0  0
 22 20  1  0  0  0  0
 23 21  1  0  0  0  0
 23 22  1  1  0  0  0
 24 25  1  6  0  0  0
 24 23  1  0  0  0  0
 24 21  1  0  0  0  0
 26 25  1  0  0  0  0
 28 27  1  0  0  0  0
 28 26  1  0  0  0  0
 30 29  1  1  0  0  0
 31 30  1  0  0  0  0
 32 31  2  0  0  0  0
 33 31  1  0  0  0  0
 34 35  1  0  0  0  0
 36 43  1  6  0  0  0
 36 38  1  0  0  0  0
 37 44  1  6  0  0  0
 38 37  1  0  0  0  0
 38 35  1  1  0  0  0
 39 36  1  0  0  0  0
 39 42  1  0  0  0  0
 40 39  2  0  0  0  0
 42 41  1  0  0  0  0
 42 37  1  0  0  0  0
 44 45  1  0  0  0  0
M  END
>  <MODEL>
3

>  <REMARK>
 VINA RESULT:      -7.6      2.917      8.403
  Name = 
  13 active torsions:
  status: ('A' for Active; 'I' for Inactive)
    1  A    between atoms: C_1  and  O_7
    2  A    between atoms: C_4  and  C_17
    3  A    between atoms: C_4  and  C_24
    4  A    between atoms: O_5  and  C_10
    5  A    between atoms: O_6  and  O_7
    6  A    between atoms: O_6  and  C_19
    7  A    between atoms: C_12  and  C_23
    8  A    between atoms: C_14  and  C_17
    9  A    between atoms: C_18  and  O_31
   10  A    between atoms: C_21  and  CA_43
   11  A    between atoms: C_25  and  O_31
   12  A    between atoms: C_25  and  C_45
   13  A    between atoms: C_38  and  CA_43
                            x       y       z     vdW  Elec       q    Type
                         _______ _______ _______ _____ _____    ______ ____

>  <TORSDO>
F 13

$$$$
=
 OpenBabel11072408593D

 45 49  0  0  1  0  0  0  0  0999 V2000
  192.8540  174.2090  143.7780 C   0  0  2  0  0  3  0  0  0  0  0  0
  194.7150  175.9120  143.3340 P   0  0  2  0  0  0  0  0  0  0  0  0
  195.7610  176.1240  144.4060 O   0  0  0  0  0  1  0  0  0  0  0  0
  192.2860  175.6220  143.5650 C   0  0  2  0  0  3  0  0  0  0  0  0
  195.2410  176.5390  141.8540 O   0  0  0  0  0  0  0  0  0  0  0  0
  193.2520  176.6200  143.8020 O   0  0  0  0  0  0  0  0  0  0  0  0
  194.2400  174.1880  143.1740 C   0  0  1  0  0  3  0  0  0  0  0  0
  189.2480  177.3230  145.0460 C   0  0  0  0  0  3  0  0  0  0  0  0
  191.0750  175.8680  144.4050 C   0  0  0  0  0  0  0  0  0  0  0  0
  188.8070  176.3790  145.9850 C   0  0  0  0  0  0  0  0  0  0  0  0
  190.6450  174.9250  145.3490 C   0  0  0  0  0  3  0  0  0  0  0  0
  189.5150  175.1790  146.1310 C   0  0  0  0  0  3  0  0  0  0  0  0
  190.3770  177.0690  144.2620 C   0  0  0  0  0  3  0  0  0  0  0  0
  187.6160  176.6460  146.8140 C   0  0  0  0  0  0  0  0  0  0  0  0
  187.2700  175.8220  147.7060 O   0  0  0  0  0  0  0  0  0  0  0  0
  186.8020  177.8920  146.6040 C   0  0  2  0  0  3  0  0  0  0  0  0
  186.6490  178.5850  147.8750 N   0  0  0  0  0  1  0  0  0  0  0  0
  185.4270  177.5790  145.9970 C   0  0  2  0  0  3  0  0  0  0  0  0
  185.5440  176.8730  144.6360 C   0  0  0  0  0  2  0  0  0  0  0  0
  184.5550  178.8480  145.9420 C   0  0  0  0  0  2  0  0  0  0  0  0
  185.8180  177.8550  143.4940 C   0  0  2  0  0  3  0  0  0  0  0  0
  183.8350  179.0250  144.6060 C   0  0  0  0  0  2  0  0  0  0  0  0
  184.8490  179.0470  143.4610 C   0  0  2  0  0  3  0  0  0  0  0  0
  184.6280  177.8530  142.5560 C   0  0  1  0  0  3  0  0  0  0  0  0
  185.0920  178.1940  141.1520 C   0  0  0  0  0  2  0  0  0  0  0  0
  186.4870  178.2390  141.1200 O   0  0  0  0  0  0  0  0  0  0  0  0
  187.5420  176.2510  140.7790 O   0  0  0  0  0  1  0  0  0  0  0  0
  186.8470  177.2910  140.1620 C   0  0  0  0  0  2  0  0  0  0  0  0
  194.6840  173.0210  145.2910 N   0  0  0  0  0  1  0  0  0  0  0  0
  195.1820  173.2540  143.9440 C   0  0  1  0  0  3  0  0  0  0  0  0
  195.3350  171.9370  143.2520 C   0  0  0  0  0  0  0  0  0  0  0  0
  194.5350  170.8590  143.6060 O   0  0  0  0  0  1  0  0  0  0  0  0
  196.2230  171.7940  142.3710 O   0  0  0  0  0  0  0  0  0  0  0  0
  192.0420  173.2640  143.1470 O   0  0  0  0  0  0  0  0  0  0  0  0
  192.1870  173.5090  141.8610 O   0  0  0  0  0  0  0  0  0  0  0  0
  190.2180  172.1660  141.9920 C   0  0  1  0  0  3  0  0  0  0  0  0
  191.1010  172.9290  139.8060 C   0  0  2  0  0  3  0  0  0  0  0  0
  191.5100  172.4700  141.2200 C   0  0  1  0  0  3  0  0  0  0  0  0
  189.1710  172.7320  141.1190 C   0  0  0  0  0  0  0  0  0  0  0  0
  187.9510  172.7890  141.4250 O   0  0  0  0  0  0  0  0  0  0  0  0
  188.8960  173.8310  138.8430 C   0  0  0  0  0  1  0  0  0  0  0  0
  189.6800  173.1930  139.8880 N   0  0  0  0  0  0  0  0  0  0  0  0
  190.0480  170.7870  142.0830 O   0  0  0  0  0  1  0  0  0  0  0  0
  191.3230  171.8870  138.9040 O   0  0  0  0  0  0  0  0  0  0  0  0
  192.1430  172.3850  138.0040 O   0  0  0  0  0  1  0  0  0  0  0  0
  1 34  1  6  0  0  0
  2  5  2  6  0  0  0
  2  6  1  0  0  0  0
  2  3  1  0  0  0  0
  4  1  1  0  0  0  0
  4  6  1  0  0  0  0
  4  9  1  1  0  0  0
  7  2  1  0  0  0  0
  7  1  1  0  0  0  0
  7 30  1  1  0  0  0
  8 10  1  0  0  0  0
  9 11  2  0  0  0  0
 10 12  2  0  0  0  0
 10 14  1  0  0  0  0
 11 12  1  0  0  0  0
 13  9  1  0  0  0  0
 13  8  2  0  0  0  0
 14 15  2  0  0  0  0
 16 14  1  0  0  0  0
 16 17  1  1  0  0  0
 18 16  1  6  0  0  0
 19 18  1  0  0  0  0
 20 18  1  0  0  0  0
 21 19  1  1  0  0  0
 22 20  1  0  0  0  0
 23 21  1  0  0  0  0
 23 22  1  1  0  0  0
 24 25  1  6  0  0  0
 24 23  1  0  0  0  0
 24 21  1  0  0  0  0
 26 25  1  0  0  0  0
 28 27  1  0  0  0  0
 28 26  1  0  0  0  0
 30 29  1  1  0  0  0
 31 32  1  0  0  0  0
 31 30  1  0  0  0  0
 33 31  2  0  0  0  0
 35 34  1  0  0  0  0
 36 43  1  6  0  0  0
 37 44  1  6  0  0  0
 37 42  1  0  0  0  0
 37 38  1  0  0  0  0
 38 35  1  1  0  0  0
 38 36  1  0  0  0  0
 39 40  2  0  0  0  0
 39 36  1  0  0  0  0
 41 42  1  0  0  0  0
 42 39  1  0  0  0  0
 45 44  1  0  0  0  0
M  END
>  <MODEL>
4

>  <REMARK>
 VINA RESULT:      -7.5      2.866      8.447
  Name = 
  13 active torsions:
  status: ('A' for Active; 'I' for Inactive)
    1  A    between atoms: C_1  and  O_7
    2  A    between atoms: C_4  and  C_17
    3  A    between atoms: C_4  and  C_24
    4  A    between atoms: O_5  and  C_10
    5  A    between atoms: O_6  and  O_7
    6  A    between atoms: O_6  and  C_19
    7  A    between atoms: C_12  and  C_23
    8  A    between atoms: C_14  and  C_17
    9  A    between atoms: C_18  and  O_31
   10  A    between atoms: C_21  and  CA_43
   11  A    between atoms: C_25  and  O_31
   12  A    between atoms: C_25  and  C_45
   13  A    between atoms: C_38  and  CA_43
                            x       y       z     vdW  Elec       q    Type
                         _______ _______ _______ _____ _____    ______ ____

>  <TORSDO>
F 13

$$$$
=
 OpenBabel11072408593D

 45 49  0  0  1  0  0  0  0  0999 V2000
  191.7640  173.4410  140.9790 C   0  0  2  0  0  3  0  0  0  0  0  0
  190.1930  172.2920  139.3140 P   0  0  2  0  0  0  0  0  0  0  0  0
  189.4530  173.1550  138.3160 O   0  0  0  0  0  0  0  0  0  0  0  0
  190.6290  172.6950  141.6980 C   0  0  2  0  0  3  0  0  0  0  0  0
  190.1630  170.6690  138.8380 O   0  0  0  0  0  1  0  0  0  0  0  0
  189.5210  172.4800  140.8540 O   0  0  0  0  0  0  0  0  0  0  0  0
  191.8760  172.8550  139.5890 C   0  0  1  0  0  3  0  0  0  0  0  0
  189.8010  173.3510  145.3310 C   0  0  0  0  0  3  0  0  0  0  0  0
  190.2000  173.4010  142.9430 C   0  0  0  0  0  0  0  0  0  0  0  0
  189.3750  174.6860  145.3030 C   0  0  0  0  0  0  0  0  0  0  0  0
  189.7650  174.7330  142.9060 C   0  0  0  0  0  3  0  0  0  0  0  0
  189.3580  175.3720  144.0800 C   0  0  0  0  0  3  0  0  0  0  0  0
  190.2090  172.7120  144.1580 C   0  0  0  0  0  3  0  0  0  0  0  0
  188.9410  175.3620  146.5410 C   0  0  0  0  0  0  0  0  0  0  0  0
  188.9430  174.7350  147.6370 O   0  0  0  0  0  0  0  0  0  0  0  0
  188.4880  176.7940  146.5110 C   0  0  2  0  0  3  0  0  0  0  0  0
  189.3780  177.5960  147.3400 N   0  0  0  0  0  1  0  0  0  0  0  0
  187.0360  176.9450  146.9850 C   0  0  2  0  0  3  0  0  0  0  0  0
  186.0290  176.7030  145.8490 C   0  0  0  0  0  2  0  0  0  0  0  0
  186.8310  178.2980  147.6910 C   0  0  0  0  0  2  0  0  0  0  0  0
  185.8570  177.9330  144.9550 C   0  0  2  0  0  3  0  0  0  0  0  0
  185.5580  179.0210  147.2490 C   0  0  0  0  0  2  0  0  0  0  0  0
  185.5710  179.2260  145.7330 C   0  0  2  0  0  3  0  0  0  0  0  0
  184.4380  178.4450  145.1000 C   0  0  1  0  0  3  0  0  0  0  0  0
  184.0150  179.1290  143.8140 C   0  0  0  0  0  2  0  0  0  0  0  0
  184.8350  178.7040  142.7670 O   0  0  0  0  0  0  0  0  0  0  0  0
  184.4600  178.5850  140.5250 O   0  0  0  0  0  1  0  0  0  0  0  0
  183.9500  178.2640  141.7830 C   0  0  0  0  0  2  0  0  0  0  0  0
  193.5540  174.5390  138.9700 N   0  0  0  0  0  1  0  0  0  0  0  0
  192.3100  173.9060  138.5600 C   0  0  1  0  0  3  0  0  0  0  0  0
  192.4990  173.3020  137.2060 C   0  0  0  0  0  0  0  0  0  0  0  0
  191.8960  173.8690  136.0910 O   0  0  0  0  0  0  0  0  0  0  0  0
  193.1740  172.2470  137.0820 O   0  0  0  0  0  1  0  0  0  0  0  0
  192.9670  173.2700  141.6690 O   0  0  0  0  0  0  0  0  0  0  0  0
  193.2050  174.4460  142.2120 O   0  0  0  0  0  0  0  0  0  0  0  0
  195.5050  174.7810  142.7560 C   0  0  1  0  0  3  0  0  0  0  0  0
  193.7460  174.9270  144.4960 C   0  0  2  0  0  3  0  0  0  0  0  0
  194.1570  174.1960  143.2020 C   0  0  1  0  0  3  0  0  0  0  0  0
  195.6450  175.9760  143.6110 C   0  0  0  0  0  0  0  0  0  0  0  0
  196.5760  176.8160  143.5040 O   0  0  0  0  0  0  0  0  0  0  0  0
  194.4800  177.1580  145.5370 C   0  0  0  0  0  1  0  0  0  0  0  0
  194.6250  176.0740  144.5810 N   0  0  0  0  0  0  0  0  0  0  0  0
  196.5220  173.8780  143.0550 O   0  0  0  0  0  1  0  0  0  0  0  0
  193.9760  174.0900  145.5890 O   0  0  0  0  0  0  0  0  0  0  0  0
  193.5630  172.9030  145.2000 O   0  0  0  0  0  1  0  0  0  0  0  0
  1 34  1  1  0  0  0
  1  4  1  0  0  0  0
  2  3  2  6  0  0  0
  2  7  1  0  0  0  0
  2  6  1  0  0  0  0
  4  9  1  1  0  0  0
  5  2  1  0  0  0  0
  6  4  1  0  0  0  0
  7 30  1  6  0  0  0
  7  1  1  0  0  0  0
  9 13  1  0  0  0  0
 10  8  1  0  0  0  0
 10 14  1  0  0  0  0
 11  9  2  0  0  0  0
 11 12  1  0  0  0  0
 12 10  2  0  0  0  0
 13  8  2  0  0  0  0
 14 15  2  0  0  0  0
 16 14  1  0  0  0  0
 16 17  1  1  0  0  0
 18 16  1  6  0  0  0
 18 20  1  0  0  0  0
 19 18  1  0  0  0  0
 21 24  1  0  0  0  0
 21 23  1  0  0  0  0
 21 19  1  1  0  0  0
 22 20  1  0  0  0  0
 23 22  1  1  0  0  0
 24 25  1  6  0  0  0
 24 23  1  0  0  0  0
 26 25  1  0  0  0  0
 27 28  1  0  0  0  0
 28 26  1  0  0  0  0
 30 29  1  1  0  0  0
 31 30  1  0  0  0  0
 32 31  2  0  0  0  0
 33 31  1  0  0  0  0
 34 35  1  0  0  0  0
 36 43  1  1  0  0  0
 36 38  1  0  0  0  0
 36 39  1  0  0  0  0
 37 42  1  0  0  0  0
 37 44  1  1  0  0  0
 38 35  1  6  0  0  0
 38 37  1  0  0  0  0
 39 42  1  0  0  0  0
 40 39  2  0  0  0  0
 42 41  1  0  0  0  0
 45 44  1  0  0  0  0
M  END
>  <MODEL>
5

>  <REMARK>
 VINA RESULT:      -7.4      2.936      8.680
  Name = 
  13 active torsions:
  status: ('A' for Active; 'I' for Inactive)
    1  A    between atoms: C_1  and  O_7
    2  A    between atoms: C_4  and  C_17
    3  A    between atoms: C_4  and  C_24
    4  A    between atoms: O_5  and  C_10
    5  A    between atoms: O_6  and  O_7
    6  A    between atoms: O_6  and  C_19
    7  A    between atoms: C_12  and  C_23
    8  A    between atoms: C_14  and  C_17
    9  A    between atoms: C_18  and  O_31
   10  A    between atoms: C_21  and  CA_43
   11  A    between atoms: C_25  and  O_31
   12  A    between atoms: C_25  and  C_45
   13  A    between atoms: C_38  and  CA_43
                            x       y       z     vdW  Elec       q    Type
                         _______ _______ _______ _____ _____    ______ ____

>  <TORSDO>
F 13

$$$$
=
 OpenBabel11072408593D

 45 49  0  0  1  0  0  0  0  0999 V2000
  191.7580  172.6570  141.3060 C   0  0  2  0  0  3  0  0  0  0  0  0
  190.2290  172.3580  139.2740 P   0  0  2  0  0  0  0  0  0  0  0  0
  190.0950  173.5110  138.3030 O   0  0  0  0  0  0  0  0  0  0  0  0
  190.3040  172.3910  141.7290 C   0  0  2  0  0  3  0  0  0  0  0  0
  189.6680  170.9220  138.5770 O   0  0  0  0  0  1  0  0  0  0  0  0
  189.3910  172.7000  140.7020 O   0  0  0  0  0  0  0  0  0  0  0  0
  191.9080  172.1690  139.8830 C   0  0  1  0  0  3  0  0  0  0  0  0
  189.1350  175.1470  144.0420 C   0  0  0  0  0  3  0  0  0  0  0  0
  189.9440  173.1270  142.9790 C   0  0  0  0  0  0  0  0  0  0  0  0
  189.2820  174.5570  145.3060 C   0  0  0  0  0  0  0  0  0  0  0  0
  190.1030  172.5360  144.2390 C   0  0  0  0  0  3  0  0  0  0  0  0
  189.7700  173.2460  145.3950 C   0  0  0  0  0  3  0  0  0  0  0  0
  189.4660  174.4370  142.8860 C   0  0  0  0  0  3  0  0  0  0  0  0
  188.9340  175.3070  146.5290 C   0  0  0  0  0  0  0  0  0  0  0  0
  188.9910  174.7390  147.6550 O   0  0  0  0  0  0  0  0  0  0  0  0
  188.5040  176.7440  146.4480 C   0  0  2  0  0  3  0  0  0  0  0  0
  189.3590  177.5500  147.3080 N   0  0  0  0  0  1  0  0  0  0  0  0
  187.0310  176.9220  146.8400 C   0  0  2  0  0  3  0  0  0  0  0  0
  186.0800  176.6180  145.6710 C   0  0  0  0  0  2  0  0  0  0  0  0
  186.7960  178.3140  147.4580 C   0  0  0  0  0  2  0  0  0  0  0  0
  185.9580  177.7960  144.7010 C   0  0  2  0  0  3  0  0  0  0  0  0
  185.5500  179.0120  146.9130 C   0  0  0  0  0  2  0  0  0  0  0  0
  185.6380  179.1310  145.3910 C   0  0  2  0  0  3  0  0  0  0  0  0
  184.5360  178.3180  144.7470 C   0  0  1  0  0  3  0  0  0  0  0  0
  184.1790  178.9280  143.4050 C   0  0  0  0  0  2  0  0  0  0  0  0
  183.7080  177.9310  142.5490 O   0  0  0  0  0  0  0  0  0  0  0  0
  185.5570  178.6250  141.4180 O   0  0  0  0  0  1  0  0  0  0  0  0
  184.2120  178.2770  141.2960 C   0  0  0  0  0  2  0  0  0  0  0  0
  193.0760  174.3240  139.7120 N   0  0  0  0  0  1  0  0  0  0  0  0
  192.9100  173.0190  139.0910 C   0  0  1  0  0  3  0  0  0  0  0  0
  194.2450  172.3510  139.0050 C   0  0  0  0  0  0  0  0  0  0  0  0
  194.4110  171.0470  139.4510 O   0  0  0  0  0  1  0  0  0  0  0  0
  195.2350  172.9910  138.5630 O   0  0  0  0  0  0  0  0  0  0  0  0
  192.6380  171.9670  142.1440 O   0  0  0  0  0  0  0  0  0  0  0  0
  193.6630  172.7820  142.2880 O   0  0  0  0  0  0  0  0  0  0  0  0
  194.5480  172.8600  144.5030 C   0  0  1  0  0  3  0  0  0  0  0  0
  193.6720  174.9020  143.4050 C   0  0  2  0  0  3  0  0  0  0  0  0
  193.4740  173.3780  143.5360 C   0  0  1  0  0  3  0  0  0  0  0  0
  195.4580  174.0150  144.6350 C   0  0  0  0  0  0  0  0  0  0  0  0
  196.5450  173.9880  145.2690 O   0  0  0  0  0  0  0  0  0  0  0  0
  195.6650  176.4430  143.9100 C   0  0  0  0  0  1  0  0  0  0  0  0
  194.9720  175.1670  143.9830 N   0  0  0  0  0  0  0  0  0  0  0  0
  193.9650  172.5880  145.7390 O   0  0  0  0  0  1  0  0  0  0  0  0
  192.6930  175.5570  144.1540 O   0  0  0  0  0  0  0  0  0  0  0  0
  192.2500  176.5150  143.3690 O   0  0  0  0  0  1  0  0  0  0  0  0
  1  4  1  0  0  0  0
  1 34  1  1  0  0  0
  2  3  2  6  0  0  0
  2  7  1  0  0  0  0
  2  6  1  0  0  0  0
  4  9  1  1  0  0  0
  5  2  1  0  0  0  0
  6  4  1  0  0  0  0
  7 30  1  6  0  0  0
  7  1  1  0  0  0  0
  8 10  1  0  0  0  0
  9 11  2  0  0  0  0
 10 12  2  0  0  0  0
 10 14  1  0  0  0  0
 11 12  1  0  0  0  0
 13  9  1  0  0  0  0
 13  8  2  0  0  0  0
 14 15  2  0  0  0  0
 16 14  1  0  0  0  0
 16 17  1  1  0  0  0
 18 16  1  6  0  0  0
 18 20  1  0  0  0  0
 19 18  1  0  0  0  0
 21 24  1  0  0  0  0
 21 23  1  0  0  0  0
 21 19  1  1  0  0  0
 22 20  1  0  0  0  0
 23 22  1  1  0  0  0
 24 25  1  6  0  0  0
 24 23  1  0  0  0  0
 26 25  1  0  0  0  0
 28 27  1  0  0  0  0
 28 26  1  0  0  0  0
 30 29  1  1  0  0  0
 31 30  1  0  0  0  0
 31 32  1  0  0  0  0
 33 31  2  0  0  0  0
 34 35  1  0  0  0  0
 36 39  1  0  0  0  0
 36 43  1  1  0  0  0
 37 38  1  0  0  0  0
 37 42  1  0  0  0  0
 37 44  1  1  0  0  0
 38 35  1  6  0  0  0
 38 36  1  0  0  0  0
 39 40  2  0  0  0  0
 41 42  1  0  0  0  0
 42 39  1  0  0  0  0
 45 44  1  0  0  0  0
M  END
>  <MODEL>
6

>  <REMARK>
 VINA RESULT:      -7.2      2.974      8.752
  Name = 
  13 active torsions:
  status: ('A' for Active; 'I' for Inactive)
    1  A    between atoms: C_1  and  O_7
    2  A    between atoms: C_4  and  C_17
    3  A    between atoms: C_4  and  C_24
    4  A    between atoms: O_5  and  C_10
    5  A    between atoms: O_6  and  O_7
    6  A    between atoms: O_6  and  C_19
    7  A    between atoms: C_12  and  C_23
    8  A    between atoms: C_14  and  C_17
    9  A    between atoms: C_18  and  O_31
   10  A    between atoms: C_21  and  CA_43
   11  A    between atoms: C_25  and  O_31
   12  A    between atoms: C_25  and  C_45
   13  A    between atoms: C_38  and  CA_43
                            x       y       z     vdW  Elec       q    Type
                         _______ _______ _______ _____ _____    ______ ____

>  <TORSDO>
F 13

$$$$
=
 OpenBabel11072408593D

 45 49  0  0  1  0  0  0  0  0999 V2000
  192.8920  174.0610  144.4040 C   0  0  2  0  0  3  0  0  0  0  0  0
  195.0780  175.2730  144.9640 P   0  0  2  0  0  0  0  0  0  0  0  0
  195.8370  174.8430  146.2000 O   0  0  0  0  0  1  0  0  0  0  0  0
  192.6580  175.5610  144.6460 C   0  0  2  0  0  3  0  0  0  0  0  0
  196.0660  176.1920  143.9450 O   0  0  0  0  0  0  0  0  0  0  0  0
  193.6950  176.1400  145.4050 O   0  0  0  0  0  0  0  0  0  0  0  0
  194.3590  173.8810  144.0860 C   0  0  1  0  0  3  0  0  0  0  0  0
  189.2220  177.0020  145.3040 C   0  0  0  0  0  3  0  0  0  0  0  0
  191.3370  175.8220  145.2940 C   0  0  0  0  0  0  0  0  0  0  0  0
  188.8530  176.3600  146.4950 C   0  0  0  0  0  0  0  0  0  0  0  0
  190.9790  175.1850  146.4900 C   0  0  0  0  0  3  0  0  0  0  0  0
  189.7430  175.4510  147.0850 C   0  0  0  0  0  3  0  0  0  0  0  0
  190.4570  176.7350  144.7080 C   0  0  0  0  0  3  0  0  0  0  0  0
  187.5500  176.6420  147.1270 C   0  0  0  0  0  0  0  0  0  0  0  0
  187.0410  175.8060  147.9240 O   0  0  0  0  0  0  0  0  0  0  0  0
  186.8140  177.9160  146.8250 C   0  0  2  0  0  3  0  0  0  0  0  0
  186.6810  178.6950  148.0480 N   0  0  0  0  0  1  0  0  0  0  0  0
  185.4330  177.6460  146.2110 C   0  0  2  0  0  3  0  0  0  0  0  0
  185.5350  176.9340  144.8510 C   0  0  0  0  0  2  0  0  0  0  0  0
  184.6020  178.9420  146.1490 C   0  0  0  0  0  2  0  0  0  0  0  0
  185.8460  177.9050  143.7100 C   0  0  2  0  0  3  0  0  0  0  0  0
  183.8950  179.1390  144.8080 C   0  0  0  0  0  2  0  0  0  0  0  0
  184.9160  179.1270  143.6690 C   0  0  2  0  0  3  0  0  0  0  0  0
  184.6610  177.9390  142.7650 C   0  0  1  0  0  3  0  0  0  0  0  0
  185.1440  178.2620  141.3630 C   0  0  0  0  0  2  0  0  0  0  0  0
  186.1570  177.3720  141.0010 O   0  0  0  0  0  0  0  0  0  0  0  0
  187.0250  176.5200  139.0780 O   0  0  0  0  0  1  0  0  0  0  0  0
  186.3660  177.6110  139.6440 C   0  0  0  0  0  2  0  0  0  0  0  0
  194.0990  172.0660  145.7210 N   0  0  0  0  0  1  0  0  0  0  0  0
  194.8920  172.5360  144.5960 C   0  0  1  0  0  3  0  0  0  0  0  0
  194.8710  171.4960  143.5230 C   0  0  0  0  0  0  0  0  0  0  0  0
  193.7400  170.7170  143.3190 O   0  0  0  0  0  1  0  0  0  0  0  0
  195.9000  171.2950  142.8270 O   0  0  0  0  0  0  0  0  0  0  0  0
  192.1110  173.6180  143.3330 O   0  0  0  0  0  0  0  0  0  0  0  0
  192.5410  174.3150  142.3020 O   0  0  0  0  0  0  0  0  0  0  0  0
  191.7670  172.7340  140.6900 C   0  0  1  0  0  3  0  0  0  0  0  0
  190.1750  174.1460  141.9610 C   0  0  2  0  0  3  0  0  0  0  0  0
  191.5740  174.1240  141.3130 C   0  0  1  0  0  3  0  0  0  0  0  0
  190.6400  171.9620  141.2510 C   0  0  0  0  0  0  0  0  0  0  0  0
  190.4740  170.7270  141.0760 O   0  0  0  0  0  0  0  0  0  0  0  0
  188.5750  172.2770  142.7010 C   0  0  0  0  0  1  0  0  0  0  0  0
  189.7520  172.7630  142.0000 N   0  0  0  0  0  0  0  0  0  0  0  0
  191.6220  172.8230  139.3070 O   0  0  0  0  0  1  0  0  0  0  0  0
  189.3040  174.8700  141.1460 O   0  0  0  0  0  0  0  0  0  0  0  0
  188.8550  175.8430  141.9090 O   0  0  0  0  0  1  0  0  0  0  0  0
  1 34  1  6  0  0  0
  1  4  1  0  0  0  0
  2  5  2  6  0  0  0
  2  6  1  0  0  0  0
  2  3  1  0  0  0  0
  4  9  1  1  0  0  0
  4  6  1  0  0  0  0
  7  1  1  0  0  0  0
  7 30  1  1  0  0  0
  7  2  1  0  0  0  0
  8 10  1  0  0  0  0
  9 11  2  0  0  0  0
 10 12  2  0  0  0  0
 10 14  1  0  0  0  0
 11 12  1  0  0  0  0
 13  9  1  0  0  0  0
 13  8  2  0  0  0  0
 14 15  2  0  0  0  0
 16 14  1  0  0  0  0
 16 17  1  1  0  0  0
 18 16  1  6  0  0  0
 19 18  1  0  0  0  0
 20 18  1  0  0  0  0
 21 19  1  1  0  0  0
 22 20  1  0  0  0  0
 23 21  1  0  0  0  0
 23 22  1  1  0  0  0
 24 25  1  6  0  0  0
 24 23  1  0  0  0  0
 24 21  1  0  0  0  0
 26 25  1  0  0  0  0
 27 28  1  0  0  0  0
 28 26  1  0  0  0  0
 30 29  1  1  0  0  0
 31 30  1  0  0  0  0
 32 31  1  0  0  0  0
 33 31  2  0  0  0  0
 35 34  1  0  0  0  0
 36 43  1  6  0  0  0
 36 39  1  0  0  0  0
 36 38  1  0  0  0  0
 37 44  1  6  0  0  0
 37 42  1  0  0  0  0
 38 37  1  0  0  0  0
 38 35  1  1  0  0  0
 39 42  1  0  0  0  0
 40 39  2  0  0  0  0
 42 41  1  0  0  0  0
 44 45  1  0  0  0  0
M  END
>  <MODEL>
7

>  <REMARK>
 VINA RESULT:      -7.2      3.055      8.536
  Name = 
  13 active torsions:
  status: ('A' for Active; 'I' for Inactive)
    1  A    between atoms: C_1  and  O_7
    2  A    between atoms: C_4  and  C_17
    3  A    between atoms: C_4  and  C_24
    4  A    between atoms: O_5  and  C_10
    5  A    between atoms: O_6  and  O_7
    6  A    between atoms: O_6  and  C_19
    7  A    between atoms: C_12  and  C_23
    8  A    between atoms: C_14  and  C_17
    9  A    between atoms: C_18  and  O_31
   10  A    between atoms: C_21  and  CA_43
   11  A    between atoms: C_25  and  O_31
   12  A    between atoms: C_25  and  C_45
   13  A    between atoms: C_38  and  CA_43
                            x       y       z     vdW  Elec       q    Type
                         _______ _______ _______ _____ _____    ______ ____

>  <TORSDO>
F 13

$$$$
=
 OpenBabel11072408593D

 45 49  0  0  1  0  0  0  0  0999 V2000
  194.6840  173.6800  143.4330 C   0  0  2  0  0  3  0  0  0  0  0  0
  196.9370  174.7500  144.0200 P   0  0  2  0  0  0  0  0  0  0  0  0
  197.7420  174.1470  145.1500 O   0  0  0  0  0  1  0  0  0  0  0  0
  194.5160  175.1440  143.8710 C   0  0  2  0  0  3  0  0  0  0  0  0
  197.9040  175.7610  143.0700 O   0  0  0  0  0  0  0  0  0  0  0  0
  195.6090  175.5940  144.6380 O   0  0  0  0  0  0  0  0  0  0  0  0
  196.1270  173.4990  143.0170 C   0  0  1  0  0  3  0  0  0  0  0  0
  191.8140  174.8200  146.5000 C   0  0  0  0  0  3  0  0  0  0  0  0
  193.2390  175.3590  144.6170 C   0  0  0  0  0  0  0  0  0  0  0  0
  190.8380  175.7130  146.0350 C   0  0  0  0  0  0  0  0  0  0  0  0
  192.2620  176.2440  144.1410 C   0  0  0  0  0  3  0  0  0  0  0  0
  191.0710  176.4220  144.8490 C   0  0  0  0  0  3  0  0  0  0  0  0
  193.0070  174.6430  145.7940 C   0  0  0  0  0  3  0  0  0  0  0  0
  189.5770  175.9000  146.7790 C   0  0  0  0  0  0  0  0  0  0  0  0
  189.1150  174.9610  147.4850 O   0  0  0  0  0  0  0  0  0  0  0  0
  188.8280  177.2000  146.6980 C   0  0  2  0  0  3  0  0  0  0  0  0
  189.3460  178.1160  147.7040 N   0  0  0  0  0  1  0  0  0  0  0  0
  187.3170  177.0010  146.8830 C   0  0  2  0  0  3  0  0  0  0  0  0
  186.6210  176.6080  145.5690 C   0  0  0  0  0  2  0  0  0  0  0  0
  186.6840  178.2350  147.5530 C   0  0  0  0  0  2  0  0  0  0  0  0
  186.3450  177.8190  144.6740 C   0  0  2  0  0  3  0  0  0  0  0  0
  185.3860  178.6850  146.8810 C   0  0  0  0  0  2  0  0  0  0  0  0
  185.6340  178.9720  145.3990 C   0  0  2  0  0  3  0  0  0  0  0  0
  184.8460  177.9990  144.5480 C   0  0  1  0  0  3  0  0  0  0  0  0
  184.5260  178.6430  143.2130 C   0  0  0  0  0  2  0  0  0  0  0  0
  185.7110  178.8850  142.5150 O   0  0  0  0  0  0  0  0  0  0  0  0
  186.2720  177.1430  141.1630 O   0  0  0  0  0  1  0  0  0  0  0  0
  185.5070  178.3040  141.2640 C   0  0  0  0  0  2  0  0  0  0  0  0
  195.7680  171.4290  144.2900 N   0  0  0  0  0  1  0  0  0  0  0  0
  196.6370  172.0870  143.3270 C   0  0  1  0  0  3  0  0  0  0  0  0
  196.7120  171.2480  142.0920 C   0  0  0  0  0  0  0  0  0  0  0  0
  197.9410  170.9210  141.5350 O   0  0  0  0  0  1  0  0  0  0  0  0
  195.6510  170.8700  141.5290 O   0  0  0  0  0  0  0  0  0  0  0  0
  193.8360  173.3970  142.3600 O   0  0  0  0  0  0  0  0  0  0  0  0
  192.9310  172.5820  142.8610 O   0  0  0  0  0  0  0  0  0  0  0  0
  190.8650  171.5130  142.3290 C   0  0  1  0  0  3  0  0  0  0  0  0
  191.5050  173.6580  141.2650 C   0  0  2  0  0  3  0  0  0  0  0  0
  192.0580  172.3230  141.8020 C   0  0  1  0  0  3  0  0  0  0  0  0
  189.7720  172.5060  142.3430 C   0  0  0  0  0  0  0  0  0  0  0  0
  188.6230  172.2850  142.8060 O   0  0  0  0  0  0  0  0  0  0  0  0
  189.2990  174.9110  141.6700 C   0  0  0  0  0  1  0  0  0  0  0  0
  190.1480  173.7360  141.7650 N   0  0  0  0  0  0  0  0  0  0  0  0
  190.5570  170.5010  141.4210 O   0  0  0  0  0  1  0  0  0  0  0  0
  191.4780  173.6140  139.8700 O   0  0  0  0  0  0  0  0  0  0  0  0
  192.6070  174.1720  139.4910 O   0  0  0  0  0  1  0  0  0  0  0  0
  1 34  1  6  0  0  0
  1  4  1  0  0  0  0
  2  5  2  6  0  0  0
  2  6  1  0  0  0  0
  2  3  1  0  0  0  0
  4  9  1  1  0  0  0
  4  6  1  0  0  0  0
  7 30  1  1  0  0  0
  7  1  1  0  0  0  0
  7  2  1  0  0  0  0
  9 13  1  0  0  0  0
 10  8  1  0  0  0  0
 10 14  1  0  0  0  0
 11  9  2  0  0  0  0
 11 12  1  0  0  0  0
 12 10  2  0  0  0  0
 13  8  2  0  0  0  0
 14 15  2  0  0  0  0
 16 14  1  0  0  0  0
 16 17  1  1  0  0  0
 18 16  1  6  0  0  0
 18 20  1  0  0  0  0
 19 18  1  0  0  0  0
 21 23  1  0  0  0  0
 21 19  1  1  0  0  0
 22 20  1  0  0  0  0
 23 22  1  1  0  0  0
 24 25  1  6  0  0  0
 24 21  1  0  0  0  0
 24 23  1  0  0  0  0
 26 25  1  0  0  0  0
 27 28  1  0  0  0  0
 28 26  1  0  0  0  0
 30 29  1  1  0  0  0
 31 30  1  0  0  0  0
 32 31  1  0  0  0  0
 33 31  2  0  0  0  0
 34 35  1  0  0  0  0
 36 43  1  6  0  0  0
 36 39  1  0  0  0  0
 37 44  1  6  0  0  0
 37 42  1  0  0  0  0
 37 38  1  0  0  0  0
 38 36  1  0  0  0  0
 38 35  1  1  0  0  0
 39 40  2  0  0  0  0
 41 42  1  0  0  0  0
 42 39  1  0  0  0  0
 45 44  1  0  0  0  0
M  END
>  <MODEL>
8

>  <REMARK>
 VINA RESULT:      -7.2      3.168      8.966
  Name = 
  13 active torsions:
  status: ('A' for Active; 'I' for Inactive)
    1  A    between atoms: C_1  and  O_7
    2  A    between atoms: C_4  and  C_17
    3  A    between atoms: C_4  and  C_24
    4  A    between atoms: O_5  and  C_10
    5  A    between atoms: O_6  and  O_7
    6  A    between atoms: O_6  and  C_19
    7  A    between atoms: C_12  and  C_23
    8  A    between atoms: C_14  and  C_17
    9  A    between atoms: C_18  and  O_31
   10  A    between atoms: C_21  and  CA_43
   11  A    between atoms: C_25  and  O_31
   12  A    between atoms: C_25  and  C_45
   13  A    between atoms: C_38  and  CA_43
                            x       y       z     vdW  Elec       q    Type
                         _______ _______ _______ _____ _____    ______ ____

>  <TORSDO>
F 13

$$$$
=
 OpenBabel11072408593D

 45 49  0  0  1  0  0  0  0  0999 V2000
  190.3880  173.9350  142.7920 C   0  0  2  0  0  3  0  0  0  0  0  0
  192.2960  174.8290  144.2500 P   0  0  2  0  0  0  0  0  0  0  0  0
  192.1950  174.6510  145.7490 O   0  0  0  0  0  1  0  0  0  0  0  0
  190.5530  175.4560  142.6350 C   0  0  2  0  0  3  0  0  0  0  0  0
  193.8820  175.2030  143.7980 O   0  0  0  0  0  0  0  0  0  0  0  0
  191.2240  176.0300  143.7340 O   0  0  0  0  0  0  0  0  0  0  0  0
  191.6880  173.3990  143.3500 C   0  0  1  0  0  3  0  0  0  0  0  0
  186.8240  176.0200  142.3370 C   0  0  0  0  0  3  0  0  0  0  0  0
  189.2420  176.1380  142.4180 C   0  0  0  0  0  0  0  0  0  0  0  0
  186.7550  177.3770  141.9900 C   0  0  0  0  0  0  0  0  0  0  0  0
  189.1800  177.4920  142.0600 C   0  0  0  0  0  3  0  0  0  0  0  0
  187.9430  178.1080  141.8520 C   0  0  0  0  0  3  0  0  0  0  0  0
  188.0600  175.4040  142.5480 C   0  0  0  0  0  3  0  0  0  0  0  0
  185.4500  178.0290  141.7660 C   0  0  0  0  0  0  0  0  0  0  0  0
  185.2280  178.6410  140.6840 O   0  0  0  0  0  0  0  0  0  0  0  0
  184.3800  177.9790  142.8190 C   0  0  2  0  0  3  0  0  0  0  0  0
  183.0950  178.3000  142.2130 N   0  0  0  0  0  1  0  0  0  0  0  0
  184.6770  178.9360  143.9810 C   0  0  2  0  0  3  0  0  0  0  0  0
  186.1530  178.8850  144.4090 C   0  0  0  0  0  2  0  0  0  0  0  0
  183.7040  178.6910  145.1510 C   0  0  0  0  0  2  0  0  0  0  0  0
  186.4510  177.6930  145.3230 C   0  0  2  0  0  3  0  0  0  0  0  0
  184.3980  178.6460  146.5120 C   0  0  0  0  0  2  0  0  0  0  0  0
  185.4860  177.5710  146.5120 C   0  0  2  0  0  3  0  0  0  0  0  0
  186.8450  178.2150  146.6900 C   0  0  1  0  0  3  0  0  0  0  0  0
  187.7860  177.2280  147.3540 C   0  0  0  0  0  2  0  0  0  0  0  0
  188.1210  176.2200  146.4490 O   0  0  0  0  0  0  0  0  0  0  0  0
  188.9380  174.2610  147.2720 O   0  0  0  0  0  1  0  0  0  0  0  0
  189.2360  175.5990  147.0110 C   0  0  0  0  0  2  0  0  0  0  0  0
  190.0510  172.0700  144.6120 N   0  0  0  0  0  1  0  0  0  0  0  0
  191.4590  172.1910  144.2670 C   0  0  1  0  0  3  0  0  0  0  0  0
  191.9080  170.9200  143.6200 C   0  0  0  0  0  0  0  0  0  0  0  0
  191.3340  170.4940  142.4300 O   0  0  0  0  0  0  0  0  0  0  0  0
  192.7810  170.2090  144.1820 O   0  0  0  0  0  1  0  0  0  0  0  0
  190.1190  173.3490  141.5530 O   0  0  0  0  0  0  0  0  0  0  0  0
  191.0990  173.7600  140.7750 O   0  0  0  0  0  0  0  0  0  0  0  0
  191.9450  173.1390  138.6310 C   0  0  1  0  0  3  0  0  0  0  0  0
  189.8820  172.1080  139.5380 C   0  0  2  0  0  3  0  0  0  0  0  0
  190.6980  173.4150  139.4820 C   0  0  1  0  0  3  0  0  0  0  0  0
  191.9360  171.6690  138.4990 C   0  0  0  0  0  0  0  0  0  0  0  0
  192.8530  171.0040  137.9510 O   0  0  0  0  0  0  0  0  0  0  0  0
  190.5030  169.6540  139.0920 C   0  0  0  0  0  1  0  0  0  0  0  0
  190.7760  171.0810  139.0440 N   0  0  0  0  0  0  0  0  0  0  0  0
  191.7830  173.7160  137.3730 O   0  0  0  0  0  1  0  0  0  0  0  0
  188.7860  172.2140  138.6800 O   0  0  0  0  0  0  0  0  0  0  0  0
  187.8120  172.6810  139.4300 O   0  0  0  0  0  1  0  0  0  0  0  0
  1 34  1  6  0  0  0
  1  7  1  0  0  0  0
  2  5  2  6  0  0  0
  2  3  1  0  0  0  0
  4  9  1  1  0  0  0
  4  1  1  0  0  0  0
  4  6  1  0  0  0  0
  6  2  1  0  0  0  0
  7  2  1  0  0  0  0
  7 30  1  1  0  0  0
  8 13  1  0  0  0  0
  9 13  2  0  0  0  0
 10  8  2  0  0  0  0
 11  9  1  0  0  0  0
 12 10  1  0  0  0  0
 12 11  2  0  0  0  0
 14 10  1  0  0  0  0
 14 16  1  0  0  0  0
 15 14  2  0  0  0  0
 16 17  1  6  0  0  0
 18 16  1  6  0  0  0
 18 19  1  0  0  0  0
 18 20  1  0  0  0  0
 20 22  1  0  0  0  0
 21 19  1  6  0  0  0
 21 23  1  0  0  0  0
 21 24  1  0  0  0  0
 23 22  1  6  0  0  0
 23 24  1  0  0  0  0
 24 25  1  1  0  0  0
 26 28  1  0  0  0  0
 26 25  1  0  0  0  0
 28 27  1  0  0  0  0
 30 29  1  6  0  0  0
 31 33  1  0  0  0  0
 31 30  1  0  0  0  0
 32 31  2  0  0  0  0
 35 34  1  0  0  0  0
 36 43  1  6  0  0  0
 36 38  1  0  0  0  0
 37 44  1  6  0  0  0
 38 37  1  0  0  0  0
 38 35  1  1  0  0  0
 39 36  1  0  0  0  0
 39 42  1  0  0  0  0
 40 39  2  0  0  0  0
 42 41  1  0  0  0  0
 42 37  1  0  0  0  0
 44 45  1  0  0  0  0
M  END
>  <MODEL>
9

>  <REMARK>
 VINA RESULT:      -7.2      3.600      8.347
  Name = 
  13 active torsions:
  status: ('A' for Active; 'I' for Inactive)
    1  A    between atoms: C_1  and  O_7
    2  A    between atoms: C_4  and  C_17
    3  A    between atoms: C_4  and  C_24
    4  A    between atoms: O_5  and  C_10
    5  A    between atoms: O_6  and  O_7
    6  A    between atoms: O_6  and  C_19
    7  A    between atoms: C_12  and  C_23
    8  A    between atoms: C_14  and  C_17
    9  A    between atoms: C_18  and  O_31
   10  A    between atoms: C_21  and  CA_43
   11  A    between atoms: C_25  and  O_31
   12  A    between atoms: C_25  and  C_45
   13  A    between atoms: C_38  and  CA_43
                            x       y       z     vdW  Elec       q    Type
                         _______ _______ _______ _____ _____    ______ ____

>  <TORSDO>
F 13

$$$$
