=
 OpenBabel11062420093D

 35 40  0  0  1  0  0  0  0  0999 V2000
  190.2110  175.2150  145.2710 C   0  0  2  0  0  3  0  0  0  0  0  0
  192.4500  175.6090  145.4950 C   0  0  1  0  0  3  0  0  0  0  0  0
  188.8410  175.7850  145.4460 C   0  0  0  0  0  2  0  0  0  0  0  0
  191.1610  176.1690  145.6800 O   0  0  0  0  0  0  0  0  0  0  0  0
  189.3220  175.7460  143.1080 O   0  0  0  0  0  0  0  0  0  0  0  0
  188.4860  176.3360  144.0820 C   0  0  2  0  0  0  0  0  0  0  0  0
  190.3070  174.9950  143.7720 C   0  0  1  0  0  3  0  0  0  0  0  0
  188.7030  177.8380  144.0820 C   0  0  0  0  0  1  0  0  0  0  0  0
  192.6680  175.0110  144.2180 O   0  0  0  0  0  0  0  0  0  0  0  0
  191.6870  175.4310  143.2970 C   0  0  0  0  0  2  0  0  0  0  0  0
  193.4890  176.6470  145.7560 C   0  0  0  0  0  3  0  0  0  0  0  0
  194.7420  176.3350  146.0700 C   0  0  0  0  0  3  0  0  0  0  0  0
  197.4200  174.0140  141.9350 C   0  0  0  0  0  3  0  0  0  0  0  0
  196.2680  174.8880  143.8660 C   0  0  0  0  0  0  0  0  0  0  0  0
  196.8640  173.8540  143.2020 C   0  0  0  0  0  0  0  0  0  0  0  0
  197.9360  175.5270  140.0050 C   0  0  0  0  0  1  0  0  0  0  0  0
  195.8610  174.3300  145.0600 C   0  0  0  0  0  0  0  0  0  0  0  0
  196.8160  172.7740  143.9440 O   0  0  0  0  0  0  0  0  0  0  0  0
  196.7460  176.3700  142.0480 C   0  0  0  0  0  3  0  0  0  0  0  0
  196.1930  176.1770  143.3300 C   0  0  0  0  0  3  0  0  0  0  0  0
  195.1840  174.9780  146.1420 N   0  0  0  0  0  2  0  0  0  0  0  0
  196.2130  173.0250  145.0790 N   0  0  0  0  0  0  0  0  0  0  0  0
  197.3520  175.2960  141.3530 C   0  0  0  0  0  0  0  0  0  0  0  0
  187.0120  176.0320  143.8050 C   0  0  0  0  0  2  0  0  0  0  0  0
  186.1660  177.2920  143.5900 C   0  0  2  0  0  3  0  0  0  0  0  0
  185.0890  177.4460  144.6680 C   0  0  2  0  0  3  0  0  0  0  0  0
  184.7390  177.7630  146.8590 C   0  0  0  0  0  2  0  0  0  0  0  0
  185.5540  179.8000  144.6420 O   0  0  0  0  0  1  0  0  0  0  0  0
  184.5330  178.8560  144.7600 C   0  0  2  0  0  3  0  0  0  0  0  0
  184.0100  178.8930  146.1590 C   0  0  0  0  0  2  0  0  0  0  0  0
  185.5660  177.0920  145.9420 O   0  0  0  0  0  0  0  0  0  0  0  0
  185.5090  177.2250  142.2140 C   0  0  0  0  0  2  0  0  0  0  0  0
  185.8450  177.7850  139.8710 N   0  0  0  0  0  2  0  0  0  0  0  0
  187.1550  177.4360  140.4420 C   0  0  0  0  0  2  0  0  0  0  0  0
  186.1900  178.1770  141.2470 C   0  0  2  0  0  3  0  0  0  0  0  0
  1  3  1  6  0  0  0
  1  4  1  0  0  0  0
  2  4  1  0  0  0  0
  2 11  1  6  0  0  0
  5  7  1  0  0  0  0
  5  6  1  0  0  0  0
  6  8  1  6  0  0  0
  6  3  1  0  0  0  0
  7 10  1  6  0  0  0
  7  1  1  0  0  0  0
  9  2  1  0  0  0  0
 10  9  1  0  0  0  0
 11 12  2  0  0  0  0
 12 21  1  0  0  0  0
 13 15  1  0  0  0  0
 14 17  1  0  0  0  0
 15 14  2  0  0  0  0
 15 18  1  0  0  0  0
 16 23  1  0  0  0  0
 17 22  2  0  0  0  0
 17 21  1  0  0  0  0
 18 22  1  0  0  0  0
 19 20  2  0  0  0  0
 20 14  1  0  0  0  0
 23 13  2  0  0  0  0
 23 19  1  0  0  0  0
 24  6  1  0  0  0  0
 25 32  1  6  0  0  0
 25 24  1  0  0  0  0
 26 25  1  6  0  0  0
 26 29  1  0  0  0  0
 26 31  1  0  0  0  0
 29 28  1  1  0  0  0
 29 30  1  0  0  0  0
 30 27  1  0  0  0  0
 31 27  1  0  0  0  0
 33 34  1  0  0  0  0
 33 35  1  0  0  0  0
 34 35  1  0  0  0  0
 35 32  1  1  0  0  0
M  END
>  <MODEL>
1

>  <REMARK>
 VINA RESULT:      -7.5      0.000      0.000
  Name = 
  7 active torsions:
  status: ('A' for Active; 'I' for Inactive)
    1  A    between atoms: C_1  and  C_14
    2  A    between atoms: C_3  and  N_25
    3  A    between atoms: C_4  and  C_7
    4  A    between atoms: C_4  and  C_9
    5  A    between atoms: C_4  and  C_18
    6  A    between atoms: C_9  and  C_27
    7  A    between atoms: C_18  and  C_28
                            x       y       z     vdW  Elec       q    Type
                         _______ _______ _______ _____ _____    ______ ____

>  <TORSDO>
F 7

$$$$
=
 OpenBabel11062420093D

 35 40  0  0  1  0  0  0  0  0999 V2000
  191.6050  175.9730  142.8370 C   0  0  2  0  0  3  0  0  0  0  0  0
  189.6770  175.0460  142.0360 C   0  0  1  0  0  3  0  0  0  0  0  0
  192.3220  176.4490  144.0580 C   0  0  0  0  0  2  0  0  0  0  0  0
  190.3320  175.5020  143.2080 O   0  0  0  0  0  0  0  0  0  0  0  0
  193.3140  174.3840  143.3900 O   0  0  0  0  0  0  0  0  0  0  0  0
  193.1720  175.2700  144.4800 C   0  0  2  0  0  0  0  0  0  0  0  0
  192.4660  174.8190  142.3560 C   0  0  1  0  0  3  0  0  0  0  0  0
  192.4850  174.5490  145.6250 C   0  0  0  0  0  1  0  0  0  0  0  0
  190.4540  174.1780  141.2120 O   0  0  0  0  0  0  0  0  0  0  0  0
  191.5600  173.6730  141.9240 C   0  0  0  0  0  2  0  0  0  0  0  0
  188.3930  174.3840  142.4070 C   0  0  0  0  0  3  0  0  0  0  0  0
  187.2160  174.9850  142.2610 C   0  0  0  0  0  3  0  0  0  0  0  0
  185.3860  179.1720  145.2230 C   0  0  0  0  0  3  0  0  0  0  0  0
  186.2360  177.4390  143.7750 C   0  0  0  0  0  0  0  0  0  0  0  0
  185.8310  178.7270  143.9810 C   0  0  0  0  0  0  0  0  0  0  0  0
  184.9130  178.6590  147.6300 C   0  0  0  0  0  1  0  0  0  0  0  0
  186.5970  177.4090  142.4450 C   0  0  0  0  0  0  0  0  0  0  0  0
  185.9460  179.4040  142.8630 O   0  0  0  0  0  0  0  0  0  0  0  0
  185.8030  176.9070  146.0690 C   0  0  0  0  0  3  0  0  0  0  0  0
  186.2490  176.4880  144.8000 C   0  0  0  0  0  3  0  0  0  0  0  0
  187.1040  176.2960  141.7020 N   0  0  0  0  0  2  0  0  0  0  0  0
  186.4070  178.6350  141.9090 N   0  0  0  0  0  0  0  0  0  0  0  0
  185.3710  178.2380  146.2800 C   0  0  0  0  0  0  0  0  0  0  0  0
  194.5310  175.7950  144.9490 C   0  0  0  0  0  2  0  0  0  0  0  0
  195.6910  175.3600  144.0470 C   0  0  2  0  0  3  0  0  0  0  0  0
  196.6640  174.4290  144.7780 C   0  0  2  0  0  3  0  0  0  0  0  0
  196.8160  172.7590  146.2640 C   0  0  0  0  0  2  0  0  0  0  0  0
  195.9830  172.7000  143.2600 O   0  0  0  0  0  1  0  0  0  0  0  0
  197.0760  173.2250  143.9500 C   0  0  2  0  0  3  0  0  0  0  0  0
  197.4860  172.2490  145.0040 C   0  0  0  0  0  2  0  0  0  0  0  0
  196.1270  173.9520  145.9870 O   0  0  0  0  0  0  0  0  0  0  0  0
  196.4350  176.5970  143.5550 C   0  0  0  0  0  2  0  0  0  0  0  0
  196.0670  177.1500  141.2150 N   0  0  0  0  0  2  0  0  0  0  0  0
  195.9140  175.6940  141.3620 C   0  0  0  0  0  2  0  0  0  0  0  0
  196.9340  176.3960  142.1360 C   0  0  2  0  0  3  0  0  0  0  0  0
  1  4  1  0  0  0  0
  1  3  1  1  0  0  0
  2 11  1  1  0  0  0
  2  4  1  0  0  0  0
  3  6  1  0  0  0  0
  5  6  1  0  0  0  0
  6 24  1  0  0  0  0
  6  8  1  1  0  0  0
  7 10  1  1  0  0  0
  7  1  1  0  0  0  0
  7  5  1  0  0  0  0
  9 10  1  0  0  0  0
  9  2  1  0  0  0  0
 12 11  2  0  0  0  0
 13 23  1  0  0  0  0
 14 15  1  0  0  0  0
 14 20  2  0  0  0  0
 15 13  2  0  0  0  0
 17 14  1  0  0  0  0
 18 15  1  0  0  0  0
 19 23  2  0  0  0  0
 20 19  1  0  0  0  0
 21 12  1  0  0  0  0
 21 17  1  0  0  0  0
 22 17  2  0  0  0  0
 22 18  1  0  0  0  0
 23 16  1  0  0  0  0
 25 32  1  1  0  0  0
 25 24  1  0  0  0  0
 26 25  1  6  0  0  0
 26 31  1  0  0  0  0
 29 28  1  1  0  0  0
 29 26  1  0  0  0  0
 29 30  1  0  0  0  0
 30 27  1  0  0  0  0
 31 27  1  0  0  0  0
 33 34  1  0  0  0  0
 33 35  1  0  0  0  0
 34 35  1  0  0  0  0
 35 32  1  1  0  0  0
M  END
>  <MODEL>
2

>  <REMARK>
 VINA RESULT:      -7.5      2.153      9.902
  Name = 
  7 active torsions:
  status: ('A' for Active; 'I' for Inactive)
    1  A    between atoms: C_1  and  C_14
    2  A    between atoms: C_3  and  N_25
    3  A    between atoms: C_4  and  C_7
    4  A    between atoms: C_4  and  C_9
    5  A    between atoms: C_4  and  C_18
    6  A    between atoms: C_9  and  C_27
    7  A    between atoms: C_18  and  C_28
                            x       y       z     vdW  Elec       q    Type
                         _______ _______ _______ _____ _____    ______ ____

>  <TORSDO>
F 7

$$$$
=
 OpenBabel11062420093D

 35 40  0  0  1  0  0  0  0  0999 V2000
  190.6440  175.7360  143.7310 C   0  0  2  0  0  3  0  0  0  0  0  0
  192.7040  176.2370  144.5830 C   0  0  1  0  0  3  0  0  0  0  0  0
  189.3250  175.0930  144.0080 C   0  0  0  0  0  2  0  0  0  0  0  0
  191.4640  175.6100  144.8670 O   0  0  0  0  0  0  0  0  0  0  0  0
  189.0020  177.4570  144.0310 O   0  0  0  0  0  0  0  0  0  0  0  0
  188.4350  176.2340  144.4510 C   0  0  2  0  0  0  0  0  0  0  0  0
  190.2810  177.1930  143.5110 C   0  0  1  0  0  3  0  0  0  0  0  0
  188.3330  176.2240  145.9650 C   0  0  0  0  0  1  0  0  0  0  0  0
  192.6010  177.5450  144.0230 O   0  0  0  0  0  0  0  0  0  0  0  0
  191.3080  178.0700  144.2160 C   0  0  0  0  0  2  0  0  0  0  0  0
  193.5390  176.2740  145.8190 C   0  0  0  0  0  3  0  0  0  0  0  0
  194.8630  176.3880  145.7770 C   0  0  0  0  0  3  0  0  0  0  0  0
  197.9410  172.3360  143.8360 C   0  0  0  0  0  3  0  0  0  0  0  0
  196.6080  174.2210  144.5360 C   0  0  0  0  0  0  0  0  0  0  0  0
  197.4870  173.6420  143.6670 C   0  0  0  0  0  0  0  0  0  0  0  0
  197.8970  170.2180  145.1750 C   0  0  0  0  0  1  0  0  0  0  0  0
  196.4110  175.4860  144.0210 C   0  0  0  0  0  0  0  0  0  0  0  0
  197.7840  174.4940  142.7140 O   0  0  0  0  0  0  0  0  0  0  0  0
  196.5310  172.2160  145.8410 C   0  0  0  0  0  3  0  0  0  0  0  0
  196.0900  173.5390  145.6400 C   0  0  0  0  0  3  0  0  0  0  0  0
  195.5690  176.5190  144.5410 N   0  0  0  0  0  2  0  0  0  0  0  0
  197.1500  175.6240  142.8980 N   0  0  0  0  0  0  0  0  0  0  0  0
  197.4530  171.6190  144.9480 C   0  0  0  0  0  0  0  0  0  0  0  0
  187.0450  176.0290  143.8440 C   0  0  0  0  0  2  0  0  0  0  0  0
  186.3170  177.3440  143.5430 C   0  0  2  0  0  3  0  0  0  0  0  0
  185.0790  177.5250  144.4280 C   0  0  2  0  0  3  0  0  0  0  0  0
  184.3790  177.9080  146.5210 C   0  0  0  0  0  2  0  0  0  0  0  0
  185.5400  179.8800  144.4030 O   0  0  0  0  0  1  0  0  0  0  0  0
  184.5150  178.9340  144.3840 C   0  0  2  0  0  3  0  0  0  0  0  0
  183.7720  179.0110  145.6780 C   0  0  0  0  0  2  0  0  0  0  0  0
  185.3440  177.2130  145.7730 O   0  0  0  0  0  0  0  0  0  0  0  0
  185.9070  177.3650  142.0740 C   0  0  0  0  0  2  0  0  0  0  0  0
  186.7020  177.5000  139.7800 N   0  0  0  0  0  2  0  0  0  0  0  0
  187.4880  176.4650  140.4680 C   0  0  0  0  0  2  0  0  0  0  0  0
  187.0980  177.6730  141.1870 C   0  0  2  0  0  3  0  0  0  0  0  0
  1  3  1  1  0  0  0
  1  4  1  0  0  0  0
  2  4  1  0  0  0  0
  2 11  1  1  0  0  0
  3  6  1  0  0  0  0
  5  6  1  0  0  0  0
  6  8  1  1  0  0  0
  7  1  1  0  0  0  0
  7  5  1  0  0  0  0
  7 10  1  1  0  0  0
  9 10  1  0  0  0  0
  9  2  1  0  0  0  0
 12 11  2  0  0  0  0
 13 23  1  0  0  0  0
 14 20  2  0  0  0  0
 15 13  2  0  0  0  0
 15 14  1  0  0  0  0
 17 14  1  0  0  0  0
 17 21  1  0  0  0  0
 18 22  1  0  0  0  0
 18 15  1  0  0  0  0
 20 19  1  0  0  0  0
 21 12  1  0  0  0  0
 22 17  2  0  0  0  0
 23 16  1  0  0  0  0
 23 19  2  0  0  0  0
 24  6  1  0  0  0  0
 25 32  1  6  0  0  0
 25 24  1  0  0  0  0
 26 25  1  6  0  0  0
 26 31  1  0  0  0  0
 29 28  1  1  0  0  0
 29 26  1  0  0  0  0
 29 30  1  0  0  0  0
 30 27  1  0  0  0  0
 31 27  1  0  0  0  0
 33 34  1  0  0  0  0
 33 35  1  0  0  0  0
 34 35  1  0  0  0  0
 35 32  1  1  0  0  0
M  END
>  <MODEL>
3

>  <REMARK>
 VINA RESULT:      -7.4      1.613      2.398
  Name = 
  7 active torsions:
  status: ('A' for Active; 'I' for Inactive)
    1  A    between atoms: C_1  and  C_14
    2  A    between atoms: C_3  and  N_25
    3  A    between atoms: C_4  and  C_7
    4  A    between atoms: C_4  and  C_9
    5  A    between atoms: C_4  and  C_18
    6  A    between atoms: C_9  and  C_27
    7  A    between atoms: C_18  and  C_28
                            x       y       z     vdW  Elec       q    Type
                         _______ _______ _______ _____ _____    ______ ____

>  <TORSDO>
F 7

$$$$
=
 OpenBabel11062420093D

 35 40  0  0  1  0  0  0  0  0999 V2000
  191.8390  175.5310  144.3500 C   0  0  2  0  0  3  0  0  0  0  0  0
  189.6130  176.0260  144.4870 C   0  0  1  0  0  3  0  0  0  0  0  0
  193.2270  176.0650  144.4990 C   0  0  0  0  0  2  0  0  0  0  0  0
  190.9200  176.5600  144.6250 O   0  0  0  0  0  0  0  0  0  0  0  0
  192.7860  174.6490  146.3690 O   0  0  0  0  0  0  0  0  0  0  0  0
  193.6260  175.6860  145.9080 C   0  0  2  0  0  0  0  0  0  0  0  0
  191.7600  174.4630  145.4250 C   0  0  1  0  0  3  0  0  0  0  0  0
  193.4680  176.8960  146.8110 C   0  0  0  0  0  1  0  0  0  0  0  0
  189.3950  174.7890  145.1640 O   0  0  0  0  0  0  0  0  0  0  0  0
  190.4070  174.5580  146.1170 C   0  0  0  0  0  2  0  0  0  0  0  0
  188.6110  177.0370  144.9340 C   0  0  0  0  0  3  0  0  0  0  0  0
  188.0130  177.8660  144.0860 C   0  0  0  0  0  3  0  0  0  0  0  0
  183.9450  178.1020  140.4720 C   0  0  0  0  0  3  0  0  0  0  0  0
  185.8650  178.0070  141.9290 C   0  0  0  0  0  0  0  0  0  0  0  0
  185.3150  177.9660  140.6800 C   0  0  0  0  0  0  0  0  0  0  0  0
  181.6620  178.4500  141.4460 C   0  0  0  0  0  1  0  0  0  0  0  0
  187.2170  177.8450  141.7070 C   0  0  0  0  0  0  0  0  0  0  0  0
  186.2640  177.7950  139.7910 O   0  0  0  0  0  0  0  0  0  0  0  0
  183.7040  178.3470  142.9010 C   0  0  0  0  0  3  0  0  0  0  0  0
  185.0950  178.2080  143.0790 C   0  0  0  0  0  3  0  0  0  0  0  0
  188.2650  177.8170  142.6800 N   0  0  0  0  0  2  0  0  0  0  0  0
  187.4320  177.7160  140.3780 N   0  0  0  0  0  0  0  0  0  0  0  0
  183.1320  178.2910  141.6080 C   0  0  0  0  0  0  0  0  0  0  0  0
  195.0920  175.2470  145.8950 C   0  0  0  0  0  2  0  0  0  0  0  0
  195.5610  174.7470  144.5240 C   0  0  2  0  0  3  0  0  0  0  0  0
  196.3120  173.4160  144.6280 C   0  0  2  0  0  3  0  0  0  0  0  0
  196.6830  171.6340  145.9340 C   0  0  0  0  0  2  0  0  0  0  0  0
  194.2310  172.3270  144.1370 O   0  0  0  0  0  1  0  0  0  0  0  0
  195.6080  172.2750  143.9160 C   0  0  2  0  0  3  0  0  0  0  0  0
  196.1580  171.0800  144.6240 C   0  0  0  0  0  2  0  0  0  0  0  0
  196.5100  173.0270  145.9650 O   0  0  0  0  0  0  0  0  0  0  0  0
  196.4660  175.7990  143.8890 C   0  0  0  0  0  2  0  0  0  0  0  0
  196.3910  176.6550  141.6140 N   0  0  0  0  0  2  0  0  0  0  0  0
  195.4640  175.5160  141.6960 C   0  0  0  0  0  2  0  0  0  0  0  0
  196.7250  175.4760  142.4290 C   0  0  2  0  0  3  0  0  0  0  0  0
  1  3  1  1  0  0  0
  1  4  1  0  0  0  0
  1  7  1  0  0  0  0
  2  4  1  0  0  0  0
  2 11  1  1  0  0  0
  2  9  1  0  0  0  0
  3  6  1  0  0  0  0
  6  5  1  0  0  0  0
  6  8  1  1  0  0  0
  7 10  1  1  0  0  0
  7  5  1  0  0  0  0
  9 10  1  0  0  0  0
 12 11  2  0  0  0  0
 13 15  2  0  0  0  0
 13 23  1  0  0  0  0
 14 20  2  0  0  0  0
 15 14  1  0  0  0  0
 16 23  1  0  0  0  0
 17 14  1  0  0  0  0
 17 21  1  0  0  0  0
 18 22  1  0  0  0  0
 18 15  1  0  0  0  0
 19 20  1  0  0  0  0
 21 12  1  0  0  0  0
 22 17  2  0  0  0  0
 23 19  2  0  0  0  0
 24  6  1  0  0  0  0
 25 32  1  1  0  0  0
 25 24  1  0  0  0  0
 26 25  1  1  0  0  0
 26 31  1  0  0  0  0
 27 31  1  0  0  0  0
 29 28  1  1  0  0  0
 29 30  1  0  0  0  0
 29 26  1  0  0  0  0
 30 27  1  0  0  0  0
 33 34  1  0  0  0  0
 33 35  1  0  0  0  0
 34 35  1  0  0  0  0
 35 32  1  1  0  0  0
M  END
>  <MODEL>
4

>  <REMARK>
 VINA RESULT:      -7.3      2.316     10.001
  Name = 
  7 active torsions:
  status: ('A' for Active; 'I' for Inactive)
    1  A    between atoms: C_1  and  C_14
    2  A    between atoms: C_3  and  N_25
    3  A    between atoms: C_4  and  C_7
    4  A    between atoms: C_4  and  C_9
    5  A    between atoms: C_4  and  C_18
    6  A    between atoms: C_9  and  C_27
    7  A    between atoms: C_18  and  C_28
                            x       y       z     vdW  Elec       q    Type
                         _______ _______ _______ _____ _____    ______ ____

>  <TORSDO>
F 7

$$$$
=
 OpenBabel11062420093D

 35 40  0  0  1  0  0  0  0  0999 V2000
  191.1070  176.9260  145.4100 C   0  0  2  0  0  3  0  0  0  0  0  0
  192.5850  175.3760  146.2030 C   0  0  1  0  0  3  0  0  0  0  0  0
  190.3040  177.3650  144.2290 C   0  0  0  0  0  2  0  0  0  0  0  0
  191.8430  175.7770  145.0640 O   0  0  0  0  0  0  0  0  0  0  0  0
  188.8030  176.3930  145.8090 O   0  0  0  0  0  0  0  0  0  0  0  0
  188.9410  176.7470  144.4490 C   0  0  2  0  0  0  0  0  0  0  0  0
  190.0470  176.5730  146.4380 C   0  0  1  0  0  3  0  0  0  0  0  0
  188.8180  175.4980  143.5940 C   0  0  0  0  0  1  0  0  0  0  0  0
  191.8350  175.3010  147.4140 O   0  0  0  0  0  0  0  0  0  0  0  0
  190.4530  175.2860  147.1440 C   0  0  0  0  0  2  0  0  0  0  0  0
  193.2480  174.0670  145.9300 C   0  0  0  0  0  3  0  0  0  0  0  0
  194.5060  173.9820  145.5120 C   0  0  0  0  0  3  0  0  0  0  0  0
  195.4250  176.0390  140.5540 C   0  0  0  0  0  3  0  0  0  0  0  0
  195.1060  175.2760  142.8200 C   0  0  0  0  0  0  0  0  0  0  0  0
  195.6840  176.1240  141.9190 C   0  0  0  0  0  0  0  0  0  0  0  0
  194.2110  174.9040  138.6780 C   0  0  0  0  0  1  0  0  0  0  0  0
  195.6060  175.6880  144.0380 C   0  0  0  0  0  0  0  0  0  0  0  0
  196.4600  176.9710  142.5530 O   0  0  0  0  0  0  0  0  0  0  0  0
  193.9220  174.1670  141.0590 C   0  0  0  0  0  3  0  0  0  0  0  0
  194.2030  174.2810  142.4360 C   0  0  0  0  0  3  0  0  0  0  0  0
  195.3190  175.1430  145.3290 N   0  0  0  0  0  2  0  0  0  0  0  0
  196.4380  176.7340  143.8400 N   0  0  0  0  0  0  0  0  0  0  0  0
  194.5310  175.0370  140.1240 C   0  0  0  0  0  0  0  0  0  0  0  0
  187.8750  177.7610  144.0280 C   0  0  0  0  0  2  0  0  0  0  0  0
  186.4520  177.3340  144.4080 C   0  0  2  0  0  3  0  0  0  0  0  0
  185.5330  177.2620  143.1840 C   0  0  2  0  0  3  0  0  0  0  0  0
  183.8190  178.2540  142.1340 C   0  0  0  0  0  2  0  0  0  0  0  0
  186.8350  179.0410  142.2350 O   0  0  0  0  0  1  0  0  0  0  0  0
  186.1530  177.8610  141.9340 C   0  0  2  0  0  3  0  0  0  0  0  0
  184.9470  178.2030  141.1230 C   0  0  0  0  0  2  0  0  0  0  0  0
  184.3080  177.9160  143.4080 O   0  0  0  0  0  0  0  0  0  0  0  0
  185.8850  178.3260  145.4190 C   0  0  0  0  0  2  0  0  0  0  0  0
  184.8980  178.5930  147.6250 N   0  0  0  0  0  2  0  0  0  0  0  0
  186.3180  178.2550  147.8060 C   0  0  0  0  0  2  0  0  0  0  0  0
  185.5580  177.6310  146.7280 C   0  0  2  0  0  3  0  0  0  0  0  0
  1  3  1  6  0  0  0
  1  7  1  0  0  0  0
  2 11  1  6  0  0  0
  2  9  1  0  0  0  0
  3  6  1  0  0  0  0
  4  1  1  0  0  0  0
  4  2  1  0  0  0  0
  5  7  1  0  0  0  0
  6  8  1  6  0  0  0
  6  5  1  0  0  0  0
  7 10  1  6  0  0  0
 10  9  1  0  0  0  0
 12 11  2  0  0  0  0
 13 15  1  0  0  0  0
 14 17  1  0  0  0  0
 15 18  1  0  0  0  0
 15 14  2  0  0  0  0
 16 23  1  0  0  0  0
 17 21  1  0  0  0  0
 18 22  1  0  0  0  0
 19 20  2  0  0  0  0
 20 14  1  0  0  0  0
 21 12  1  0  0  0  0
 22 17  2  0  0  0  0
 23 13  2  0  0  0  0
 23 19  1  0  0  0  0
 24  6  1  0  0  0  0
 25 24  1  6  0  0  0
 25 32  1  0  0  0  0
 26 31  1  0  0  0  0
 26 25  1  1  0  0  0
 27 31  1  0  0  0  0
 29 28  1  1  0  0  0
 29 26  1  0  0  0  0
 30 29  1  0  0  0  0
 30 27  1  0  0  0  0
 33 34  1  0  0  0  0
 35 32  1  6  0  0  0
 35 33  1  0  0  0  0
 35 34  1  0  0  0  0
M  END
>  <MODEL>
5

>  <REMARK>
 VINA RESULT:      -7.3      2.419      3.495
  Name = 
  7 active torsions:
  status: ('A' for Active; 'I' for Inactive)
    1  A    between atoms: C_1  and  C_14
    2  A    between atoms: C_3  and  N_25
    3  A    between atoms: C_4  and  C_7
    4  A    between atoms: C_4  and  C_9
    5  A    between atoms: C_4  and  C_18
    6  A    between atoms: C_9  and  C_27
    7  A    between atoms: C_18  and  C_28
                            x       y       z     vdW  Elec       q    Type
                         _______ _______ _______ _____ _____    ______ ____

>  <TORSDO>
F 7

$$$$
=
 OpenBabel11062420093D

 35 40  0  0  1  0  0  0  0  0999 V2000
  191.3280  174.5520  145.5070 C   0  0  2  0  0  3  0  0  0  0  0  0
  189.4290  174.8930  146.7300 C   0  0  1  0  0  3  0  0  0  0  0  0
  192.0630  174.9090  144.2570 C   0  0  0  0  0  2  0  0  0  0  0  0
  190.1010  175.2400  145.5310 O   0  0  0  0  0  0  0  0  0  0  0  0
  193.1490  176.0040  146.0780 O   0  0  0  0  0  0  0  0  0  0  0  0
  192.9970  176.0240  144.6740 C   0  0  2  0  0  0  0  0  0  0  0  0
  192.2370  175.0730  146.6060 C   0  0  1  0  0  3  0  0  0  0  0  0
  192.4000  177.3550  144.2550 C   0  0  0  0  0  1  0  0  0  0  0  0
  190.2240  174.9830  147.9120 O   0  0  0  0  0  0  0  0  0  0  0  0
  191.3850  175.7440  147.6750 C   0  0  0  0  0  2  0  0  0  0  0  0
  188.2020  175.7300  146.8750 C   0  0  0  0  0  3  0  0  0  0  0  0
  187.9780  176.7980  146.1180 C   0  0  0  0  0  3  0  0  0  0  0  0
  186.1900  178.2340  141.1780 C   0  0  0  0  0  3  0  0  0  0  0  0
  187.1520  177.6510  143.3120 C   0  0  0  0  0  0  0  0  0  0  0  0
  187.2900  178.0170  142.0040 C   0  0  0  0  0  0  0  0  0  0  0  0
  183.6980  178.2910  140.9120 C   0  0  0  0  0  1  0  0  0  0  0  0
  188.4490  177.5460  143.7700 C   0  0  0  0  0  0  0  0  0  0  0  0
  188.5650  178.1230  141.7120 O   0  0  0  0  0  0  0  0  0  0  0  0
  184.7680  177.6990  143.1040 C   0  0  0  0  0  3  0  0  0  0  0  0
  185.9010  177.4880  143.9140 C   0  0  0  0  0  3  0  0  0  0  0  0
  188.8850  177.1940  145.0870 N   0  0  0  0  0  2  0  0  0  0  0  0
  189.2970  177.8430  142.7600 N   0  0  0  0  0  0  0  0  0  0  0  0
  184.9100  178.0650  141.7440 C   0  0  0  0  0  0  0  0  0  0  0  0
  194.3400  175.8220  143.9680 C   0  0  0  0  0  2  0  0  0  0  0  0
  194.5780  174.3730  143.5270 C   0  0  2  0  0  3  0  0  0  0  0  0
  195.7850  173.7520  144.2370 C   0  0  2  0  0  3  0  0  0  0  0  0
  196.9750  173.7460  146.1360 C   0  0  0  0  0  2  0  0  0  0  0  0
  194.2280  172.4190  145.4860 O   0  0  0  0  0  1  0  0  0  0  0  0
  195.4800  172.4060  144.8680 C   0  0  2  0  0  3  0  0  0  0  0  0
  196.5310  172.3120  145.9250 C   0  0  0  0  0  2  0  0  0  0  0  0
  196.2910  174.5910  145.2460 O   0  0  0  0  0  0  0  0  0  0  0  0
  194.7960  174.3380  142.0170 C   0  0  0  0  0  2  0  0  0  0  0  0
  194.9960  175.6660  139.9900 N   0  0  0  0  0  2  0  0  0  0  0  0
  196.1970  175.9060  140.8050 C   0  0  0  0  0  2  0  0  0  0  0  0
  194.9020  175.7440  141.4570 C   0  0  2  0  0  3  0  0  0  0  0  0
  1  3  1  6  0  0  0
  1  4  1  0  0  0  0
  1  7  1  0  0  0  0
  2 11  1  1  0  0  0
  2  9  1  0  0  0  0
  3  6  1  0  0  0  0
  4  2  1  0  0  0  0
  5  7  1  0  0  0  0
  6  8  1  6  0  0  0
  6  5  1  0  0  0  0
  7 10  1  1  0  0  0
 10  9  1  0  0  0  0
 12 11  2  0  0  0  0
 13 23  2  0  0  0  0
 13 15  1  0  0  0  0
 14 17  1  0  0  0  0
 14 20  1  0  0  0  0
 15 14  2  0  0  0  0
 16 23  1  0  0  0  0
 17 21  1  0  0  0  0
 18 15  1  0  0  0  0
 18 22  1  0  0  0  0
 19 20  2  0  0  0  0
 21 12  1  0  0  0  0
 22 17  2  0  0  0  0
 23 19  1  0  0  0  0
 24  6  1  0  0  0  0
 25 32  1  6  0  0  0
 25 24  1  0  0  0  0
 26 25  1  1  0  0  0
 26 29  1  0  0  0  0
 26 31  1  0  0  0  0
 29 28  1  1  0  0  0
 29 30  1  0  0  0  0
 30 27  1  0  0  0  0
 31 27  1  0  0  0  0
 33 34  1  0  0  0  0
 33 35  1  0  0  0  0
 34 35  1  0  0  0  0
 35 32  1  1  0  0  0
M  END
>  <MODEL>
6

>  <REMARK>
 VINA RESULT:      -7.2      2.565      9.052
  Name = 
  7 active torsions:
  status: ('A' for Active; 'I' for Inactive)
    1  A    between atoms: C_1  and  C_14
    2  A    between atoms: C_3  and  N_25
    3  A    between atoms: C_4  and  C_7
    4  A    between atoms: C_4  and  C_9
    5  A    between atoms: C_4  and  C_18
    6  A    between atoms: C_9  and  C_27
    7  A    between atoms: C_18  and  C_28
                            x       y       z     vdW  Elec       q    Type
                         _______ _______ _______ _____ _____    ______ ____

>  <TORSDO>
F 7

$$$$
=
 OpenBabel11062420093D

 35 40  0  0  1  0  0  0  0  0999 V2000
  191.5840  177.1020  145.3030 C   0  0  2  0  0  3  0  0  0  0  0  0
  193.4740  175.9180  145.7970 C   0  0  1  0  0  3  0  0  0  0  0  0
  190.2630  177.0700  144.6060 C   0  0  0  0  0  2  0  0  0  0  0  0
  192.2310  175.8660  145.1180 O   0  0  0  0  0  0  0  0  0  0  0  0
  189.8510  176.9360  146.9530 O   0  0  0  0  0  0  0  0  0  0  0  0
  189.2750  176.6900  145.6870 C   0  0  2  0  0  0  0  0  0  0  0  0
  191.2020  177.2740  146.7620 C   0  0  1  0  0  3  0  0  0  0  0  0
  188.9510  175.2120  145.5650 C   0  0  0  0  0  1  0  0  0  0  0  0
  193.4070  176.3980  147.1390 O   0  0  0  0  0  0  0  0  0  0  0  0
  192.0800  176.3660  147.6130 C   0  0  0  0  0  2  0  0  0  0  0  0
  194.1160  174.5720  145.7670 C   0  0  0  0  0  3  0  0  0  0  0  0
  195.3030  174.3630  145.2060 C   0  0  0  0  0  3  0  0  0  0  0  0
  194.8930  175.5560  139.9080 C   0  0  0  0  0  3  0  0  0  0  0  0
  195.1800  175.1800  142.2740 C   0  0  0  0  0  0  0  0  0  0  0  0
  195.5110  175.8380  141.1240 C   0  0  0  0  0  0  0  0  0  0  0  0
  193.1980  174.2190  138.6340 C   0  0  0  0  0  1  0  0  0  0  0  0
  195.9970  175.7450  143.2310 C   0  0  0  0  0  0  0  0  0  0  0  0
  196.4440  176.7230  141.3800 O   0  0  0  0  0  0  0  0  0  0  0  0
  193.5470  173.8840  141.0970 C   0  0  0  0  0  3  0  0  0  0  0  0
  194.1890  174.1950  142.3120 C   0  0  0  0  0  3  0  0  0  0  0  0
  196.0580  175.4280  144.6250 N   0  0  0  0  0  2  0  0  0  0  0  0
  196.7650  176.6930  142.6490 N   0  0  0  0  0  0  0  0  0  0  0  0
  193.8980  174.5570  139.9020 C   0  0  0  0  0  0  0  0  0  0  0  0
  187.9990  177.5100  145.4890 C   0  0  0  0  0  2  0  0  0  0  0  0
  186.8570  176.7080  144.8550 C   0  0  2  0  0  3  0  0  0  0  0  0
  186.5450  177.1860  143.4330 C   0  0  2  0  0  3  0  0  0  0  0  0
  187.3850  178.2380  141.6420 C   0  0  0  0  0  2  0  0  0  0  0  0
  187.8260  175.3170  142.6410 O   0  0  0  0  0  1  0  0  0  0  0  0
  186.6930  176.0930  142.3900 C   0  0  2  0  0  3  0  0  0  0  0  0
  186.9250  176.8830  141.1440 C   0  0  0  0  0  2  0  0  0  0  0  0
  187.3680  178.2590  143.0470 O   0  0  0  0  0  0  0  0  0  0  0  0
  185.6110  176.8370  145.7250 C   0  0  0  0  0  2  0  0  0  0  0  0
  184.4290  178.2920  147.2760 N   0  0  0  0  0  2  0  0  0  0  0  0
  184.0670  178.7010  145.9100 C   0  0  0  0  0  2  0  0  0  0  0  0
  185.4300  178.2680  146.1970 C   0  0  2  0  0  3  0  0  0  0  0  0
  1  3  1  6  0  0  0
  1  7  1  0  0  0  0
  2 11  1  1  0  0  0
  2  9  1  0  0  0  0
  3  6  1  0  0  0  0
  4  1  1  0  0  0  0
  4  2  1  0  0  0  0
  6  8  1  6  0  0  0
  6  5  1  0  0  0  0
  7  5  1  0  0  0  0
  7 10  1  1  0  0  0
  9 10  1  0  0  0  0
 12 11  2  0  0  0  0
 13 15  1  0  0  0  0
 14 20  1  0  0  0  0
 14 17  1  0  0  0  0
 15 18  1  0  0  0  0
 15 14  2  0  0  0  0
 16 23  1  0  0  0  0
 17 21  1  0  0  0  0
 18 22  1  0  0  0  0
 19 20  2  0  0  0  0
 21 12  1  0  0  0  0
 22 17  2  0  0  0  0
 23 13  2  0  0  0  0
 23 19  1  0  0  0  0
 24  6  1  0  0  0  0
 25 24  1  1  0  0  0
 25 32  1  0  0  0  0
 26 25  1  1  0  0  0
 27 31  1  0  0  0  0
 29 28  1  1  0  0  0
 29 26  1  0  0  0  0
 30 27  1  0  0  0  0
 30 29  1  0  0  0  0
 31 26  1  0  0  0  0
 34 35  1  0  0  0  0
 34 33  1  0  0  0  0
 35 32  1  6  0  0  0
 35 33  1  0  0  0  0
M  END
>  <MODEL>
7

>  <REMARK>
 VINA RESULT:      -7.1      2.571      3.859
  Name = 
  7 active torsions:
  status: ('A' for Active; 'I' for Inactive)
    1  A    between atoms: C_1  and  C_14
    2  A    between atoms: C_3  and  N_25
    3  A    between atoms: C_4  and  C_7
    4  A    between atoms: C_4  and  C_9
    5  A    between atoms: C_4  and  C_18
    6  A    between atoms: C_9  and  C_27
    7  A    between atoms: C_18  and  C_28
                            x       y       z     vdW  Elec       q    Type
                         _______ _______ _______ _____ _____    ______ ____

>  <TORSDO>
F 7

$$$$
=
 OpenBabel11062420093D

 35 40  0  0  1  0  0  0  0  0999 V2000
  189.9640  177.1780  146.0240 C   0  0  2  0  0  3  0  0  0  0  0  0
  191.9290  176.7950  147.1240 C   0  0  1  0  0  3  0  0  0  0  0  0
  189.3410  177.5530  144.7190 C   0  0  0  0  0  2  0  0  0  0  0  0
  191.3630  177.1640  145.8770 O   0  0  0  0  0  0  0  0  0  0  0  0
  188.9690  175.2200  145.0600 O   0  0  0  0  0  0  0  0  0  0  0  0
  188.9950  176.2290  144.0730 C   0  0  2  0  0  0  0  0  0  0  0  0
  189.4520  175.7690  146.2610 C   0  0  1  0  0  3  0  0  0  0  0  0
  190.0550  175.8900  143.0400 C   0  0  0  0  0  1  0  0  0  0  0  0
  191.3480  175.6420  147.7310 O   0  0  0  0  0  0  0  0  0  0  0  0
  190.5940  174.9110  146.7910 C   0  0  0  0  0  2  0  0  0  0  0  0
  193.4000  176.6040  146.9680 C   0  0  0  0  0  3  0  0  0  0  0  0
  193.9170  175.7850  146.0570 C   0  0  0  0  0  3  0  0  0  0  0  0
  195.4550  170.9470  144.0870 C   0  0  0  0  0  3  0  0  0  0  0  0
  194.6090  173.0640  144.8760 C   0  0  0  0  0  0  0  0  0  0  0  0
  194.5000  171.9590  144.0810 C   0  0  0  0  0  0  0  0  0  0  0  0
  197.6030  170.0440  145.0120 C   0  0  0  0  0  1  0  0  0  0  0  0
  193.4830  173.8030  144.5820 C   0  0  0  0  0  0  0  0  0  0  0  0
  193.3960  172.0370  143.3750 O   0  0  0  0  0  0  0  0  0  0  0  0
  196.6610  172.2360  145.7910 C   0  0  0  0  0  3  0  0  0  0  0  0
  195.6760  173.2430  145.7620 C   0  0  0  0  0  3  0  0  0  0  0  0
  193.0920  175.0600  145.1420 N   0  0  0  0  0  2  0  0  0  0  0  0
  192.7540  173.1440  143.6530 N   0  0  0  0  0  0  0  0  0  0  0  0
  196.5550  171.0980  144.9570 C   0  0  0  0  0  0  0  0  0  0  0  0
  187.6360  176.3660  143.3840 C   0  0  0  0  0  2  0  0  0  0  0  0
  186.9470  177.7060  143.6670 C   0  0  2  0  0  3  0  0  0  0  0  0
  185.6530  177.5240  144.4670 C   0  0  2  0  0  3  0  0  0  0  0  0
  184.8150  177.1650  146.5140 C   0  0  0  0  0  2  0  0  0  0  0  0
  185.9420  179.7780  145.2390 O   0  0  0  0  0  1  0  0  0  0  0  0
  184.9910  178.8380  144.8390 C   0  0  2  0  0  3  0  0  0  0  0  0
  184.1760  178.4500  146.0290 C   0  0  0  0  0  2  0  0  0  0  0  0
  185.8680  176.8040  145.6560 O   0  0  0  0  0  0  0  0  0  0  0  0
  186.6390  178.4010  142.3440 C   0  0  0  0  0  2  0  0  0  0  0  0
  186.3100  177.6930  140.0410 N   0  0  0  0  0  2  0  0  0  0  0  0
  185.0510  178.2910  140.5120 C   0  0  0  0  0  2  0  0  0  0  0  0
  185.8540  177.4840  141.4250 C   0  0  2  0  0  3  0  0  0  0  0  0
  1  3  1  6  0  0  0
  1  7  1  0  0  0  0
  2 11  1  6  0  0  0
  2  9  1  0  0  0  0
  4  1  1  0  0  0  0
  4  2  1  0  0  0  0
  5  7  1  0  0  0  0
  6  8  1  6  0  0  0
  6  3  1  0  0  0  0
  6  5  1  0  0  0  0
  7 10  1  6  0  0  0
 10  9  1  0  0  0  0
 12 11  2  0  0  0  0
 13 23  1  0  0  0  0
 14 20  2  0  0  0  0
 15 13  2  0  0  0  0
 15 14  1  0  0  0  0
 17 14  1  0  0  0  0
 17 21  1  0  0  0  0
 18 22  1  0  0  0  0
 18 15  1  0  0  0  0
 20 19  1  0  0  0  0
 21 12  1  0  0  0  0
 22 17  2  0  0  0  0
 23 16  1  0  0  0  0
 23 19  2  0  0  0  0
 24 25  1  0  0  0  0
 24  6  1  0  0  0  0
 25 32  1  6  0  0  0
 26 25  1  1  0  0  0
 26 29  1  0  0  0  0
 26 31  1  0  0  0  0
 29 28  1  1  0  0  0
 29 30  1  0  0  0  0
 30 27  1  0  0  0  0
 31 27  1  0  0  0  0
 33 34  1  0  0  0  0
 33 35  1  0  0  0  0
 34 35  1  0  0  0  0
 35 32  1  1  0  0  0
M  END
>  <MODEL>
8

>  <REMARK>
 VINA RESULT:      -7.1      2.409      2.833
  Name = 
  7 active torsions:
  status: ('A' for Active; 'I' for Inactive)
    1  A    between atoms: C_1  and  C_14
    2  A    between atoms: C_3  and  N_25
    3  A    between atoms: C_4  and  C_7
    4  A    between atoms: C_4  and  C_9
    5  A    between atoms: C_4  and  C_18
    6  A    between atoms: C_9  and  C_27
    7  A    between atoms: C_18  and  C_28
                            x       y       z     vdW  Elec       q    Type
                         _______ _______ _______ _____ _____    ______ ____

>  <TORSDO>
F 7

$$$$
=
 OpenBabel11062420093D

 35 40  0  0  1  0  0  0  0  0999 V2000
  190.7330  177.0760  145.0140 C   0  0  2  0  0  3  0  0  0  0  0  0
  192.5890  176.6450  146.2730 C   0  0  1  0  0  3  0  0  0  0  0  0
  189.9460  176.6720  143.8100 C   0  0  0  0  0  2  0  0  0  0  0  0
  191.8670  176.2500  145.1190 O   0  0  0  0  0  0  0  0  0  0  0  0
  188.7540  175.9320  145.7400 O   0  0  0  0  0  0  0  0  0  0  0  0
  188.8870  175.7350  144.3490 C   0  0  2  0  0  0  0  0  0  0  0  0
  189.7790  176.7980  146.1610 C   0  0  1  0  0  3  0  0  0  0  0  0
  189.3130  174.3020  144.0850 C   0  0  0  0  0  1  0  0  0  0  0  0
  191.8030  176.7880  147.4550 O   0  0  0  0  0  0  0  0  0  0  0  0
  190.5540  176.1530  147.3030 C   0  0  0  0  0  2  0  0  0  0  0  0
  193.7070  175.6870  146.5160 C   0  0  0  0  0  3  0  0  0  0  0  0
  194.6990  175.5190  145.6480 C   0  0  0  0  0  3  0  0  0  0  0  0
  193.0520  173.4300  140.8960 C   0  0  0  0  0  3  0  0  0  0  0  0
  193.8050  174.5180  142.9130 C   0  0  0  0  0  0  0  0  0  0  0  0
  193.6250  174.5120  141.5590 C   0  0  0  0  0  0  0  0  0  0  0  0
  192.0270  171.1460  141.0240 C   0  0  0  0  0  1  0  0  0  0  0  0
  194.3820  175.7440  143.1700 C   0  0  0  0  0  0  0  0  0  0  0  0
  194.0580  175.6430  141.0570 O   0  0  0  0  0  0  0  0  0  0  0  0
  192.8270  172.3400  143.0820 C   0  0  0  0  0  3  0  0  0  0  0  0
  193.4090  173.4510  143.7240 C   0  0  0  0  0  3  0  0  0  0  0  0
  194.7770  176.2760  144.4380 N   0  0  0  0  0  2  0  0  0  0  0  0
  194.5270  176.4150  142.0050 N   0  0  0  0  0  0  0  0  0  0  0  0
  192.6520  172.3270  141.6780 C   0  0  0  0  0  0  0  0  0  0  0  0
  187.5720  176.0180  143.6200 C   0  0  0  0  0  2  0  0  0  0  0  0
  187.0430  177.4370  143.8590 C   0  0  2  0  0  3  0  0  0  0  0  0
  185.6840  177.4270  144.5670 C   0  0  2  0  0  3  0  0  0  0  0  0
  184.6740  177.5170  146.5650 C   0  0  0  0  0  2  0  0  0  0  0  0
  185.9370  179.7960  144.8530 O   0  0  0  0  0  1  0  0  0  0  0  0
  185.0100  178.7870  144.5870 C   0  0  2  0  0  3  0  0  0  0  0  0
  184.0940  178.6630  145.7600 C   0  0  0  0  0  2  0  0  0  0  0  0
  185.7890  176.9830  145.8980 O   0  0  0  0  0  0  0  0  0  0  0  0
  186.9180  178.1580  142.5200 C   0  0  0  0  0  2  0  0  0  0  0  0
  186.9250  177.5510  140.1650 N   0  0  0  0  0  2  0  0  0  0  0  0
  185.5790  178.0420  140.4990 C   0  0  0  0  0  2  0  0  0  0  0  0
  186.3180  177.2410  141.4700 C   0  0  2  0  0  3  0  0  0  0  0  0
  1  3  1  6  0  0  0
  1  4  1  0  0  0  0
  1  7  1  0  0  0  0
  2 11  1  1  0  0  0
  2  9  1  0  0  0  0
  3  6  1  0  0  0  0
  4  2  1  0  0  0  0
  5  7  1  0  0  0  0
  6  8  1  6  0  0  0
  6  5  1  0  0  0  0
  7 10  1  1  0  0  0
 10  9  1  0  0  0  0
 12 11  2  0  0  0  0
 13 15  2  0  0  0  0
 13 23  1  0  0  0  0
 14 17  1  0  0  0  0
 14 20  2  0  0  0  0
 15 14  1  0  0  0  0
 16 23  1  0  0  0  0
 17 21  1  0  0  0  0
 18 15  1  0  0  0  0
 18 22  1  0  0  0  0
 19 20  1  0  0  0  0
 21 12  1  0  0  0  0
 22 17  2  0  0  0  0
 23 19  2  0  0  0  0
 24 25  1  0  0  0  0
 24  6  1  0  0  0  0
 25 32  1  6  0  0  0
 26 25  1  1  0  0  0
 26 29  1  0  0  0  0
 26 31  1  0  0  0  0
 29 28  1  1  0  0  0
 29 30  1  0  0  0  0
 30 27  1  0  0  0  0
 31 27  1  0  0  0  0
 33 34  1  0  0  0  0
 33 35  1  0  0  0  0
 34 35  1  0  0  0  0
 35 32  1  1  0  0  0
M  END
>  <MODEL>
9

>  <REMARK>
 VINA RESULT:      -7.1      2.121      3.033
  Name = 
  7 active torsions:
  status: ('A' for Active; 'I' for Inactive)
    1  A    between atoms: C_1  and  C_14
    2  A    between atoms: C_3  and  N_25
    3  A    between atoms: C_4  and  C_7
    4  A    between atoms: C_4  and  C_9
    5  A    between atoms: C_4  and  C_18
    6  A    between atoms: C_9  and  C_27
    7  A    between atoms: C_18  and  C_28
                            x       y       z     vdW  Elec       q    Type
                         _______ _______ _______ _____ _____    ______ ____

>  <TORSDO>
F 7

$$$$
