=
 OpenBabel11072409403D

 25 28  0  0  1  0  0  0  0  0999 V2000
  185.2290  178.3870  144.8390 C   0  0  0  0  0  3  0  0  0  0  0  0
  187.4290  177.4410  144.4120 C   0  0  0  0  0  0  0  0  0  0  0  0
  187.1970  177.9290  141.5810 C   0  0  0  0  0  2  0  0  0  0  0  0
  186.4380  177.3050  146.6290 C   0  0  0  0  0  3  0  0  0  0  0  0
  188.5700  177.0920  143.4810 C   0  0  1  0  0  3  0  0  0  0  0  0
  185.3130  177.9930  146.1750 C   0  0  0  0  0  0  0  0  0  0  0  0
  187.4870  177.0270  145.7510 C   0  0  0  0  0  3  0  0  0  0  0  0
  188.5680  177.9700  142.2300 C   0  0  0  0  0  2  0  0  0  0  0  0
  186.1620  178.5730  142.5020 C   0  0  2  0  0  3  0  0  0  0  0  0
  186.2620  178.0890  143.9350 C   0  0  0  0  0  0  0  0  0  0  0  0
  184.2760  178.2850  147.0500 O   0  0  0  0  0  1  0  0  0  0  0  0
  183.7890  178.2680  142.6770 O   0  0  0  0  0  0  0  0  0  0  0  0
  184.6280  178.3090  140.5130 N   0  0  0  0  0  1  0  0  0  0  0  0
  184.7930  178.3760  141.9250 C   0  0  0  0  0  0  0  0  0  0  0  0
  190.6760  176.2320  144.2360 C   0  0  0  0  0  3  0  0  0  0  0  0
  189.8480  177.2230  144.1660 N   0  0  0  0  0  0  0  0  0  0  0  0
  193.0990  176.4890  144.0970 C   0  0  0  0  0  3  0  0  0  0  0  0
  192.1630  176.2390  146.3280 C   0  0  0  0  0  0  0  0  0  0  0  0
  194.5670  176.4550  146.0140 C   0  0  0  0  0  3  0  0  0  0  0  0
  193.4640  176.2930  146.8520 C   0  0  0  0  0  3  0  0  0  0  0  0
  194.3840  176.5580  144.6360 C   0  0  0  0  0  3  0  0  0  0  0  0
  191.9790  176.3220  144.9220 C   0  0  0  0  0  0  0  0  0  0  0  0
  190.4700  177.2760  147.6000 O   0  0  0  0  0  0  0  0  0  0  0  0
  191.2790  176.6780  148.4860 O   0  0  0  0  0  0  0  0  0  0  0  0
  191.0200  176.0500  147.2850 C   0  0  0  0  0  3  0  0  0  0  0  0
  1  6  1  0  0  0  0
  2  7  2  0  0  0  0
  3  8  1  0  0  0  0
  3  9  1  0  0  0  0
  5 16  1  1  0  0  0
  5  2  1  0  0  0  0
  6  4  2  0  0  0  0
  6 11  1  0  0  0  0
  7  4  1  0  0  0  0
  8  5  1  0  0  0  0
  9 14  1  6  0  0  0
  9 10  1  0  0  0  0
 10  2  1  0  0  0  0
 10  1  2  0  0  0  0
 13 14  1  0  0  0  0
 14 12  2  0  0  0  0
 15 22  1  0  0  0  0
 16 15  2  0  0  0  0
 17 21  2  0  0  0  0
 17 22  1  0  0  0  0
 18 20  1  0  0  0  0
 18 25  1  0  0  0  0
 19 20  2  0  0  0  0
 21 19  1  0  0  0  0
 22 18  2  0  0  0  0
 23 24  1  0  0  0  0
 25 23  1  0  0  0  0
 25 24  1  0  0  0  0
M  END
>  <MODEL>
1

>  <REMARK>
 VINA RESULT:      -7.9      0.000      0.000
  Name = 
  4 active torsions:
  status: ('A' for Active; 'I' for Inactive)
    1  A    between atoms: C_3  and  C_16
    2  A    between atoms: C_11  and  C_24
    3  A    between atoms: N_13  and  C_15
    4  A    between atoms: C_19  and  C_22
                            x       y       z     vdW  Elec       q    Type
                         _______ _______ _______ _____ _____    ______ ____

>  <TORSDO>
F 4

$$$$
=
 OpenBabel11072409403D

 25 28  0  0  1  0  0  0  0  0999 V2000
  186.3010  177.9330  143.2290 C   0  0  0  0  0  3  0  0  0  0  0  0
  188.4830  177.4850  144.2080 C   0  0  0  0  0  0  0  0  0  0  0  0
  187.4030  177.5420  146.8800 C   0  0  0  0  0  2  0  0  0  0  0  0
  188.2670  177.9130  141.8230 C   0  0  0  0  0  3  0  0  0  0  0  0
  189.3770  177.2180  145.3990 C   0  0  1  0  0  3  0  0  0  0  0  0
  186.8860  178.0530  141.9680 C   0  0  0  0  0  0  0  0  0  0  0  0
  189.0600  177.6360  142.9380 C   0  0  0  0  0  3  0  0  0  0  0  0
  188.5920  176.6480  146.5800 C   0  0  0  0  0  2  0  0  0  0  0  0
  186.4160  177.5110  145.7140 C   0  0  2  0  0  3  0  0  0  0  0  0
  187.0880  177.6840  144.3650 C   0  0  0  0  0  0  0  0  0  0  0  0
  186.0950  178.3120  140.8570 O   0  0  0  0  0  1  0  0  0  0  0  0
  185.5690  179.7520  145.8150 O   0  0  0  0  0  0  0  0  0  0  0  0
  184.0360  178.0860  146.3310 N   0  0  0  0  0  1  0  0  0  0  0  0
  185.3360  178.5210  145.9490 C   0  0  0  0  0  0  0  0  0  0  0  0
  190.7120  175.2600  145.7610 C   0  0  0  0  0  3  0  0  0  0  0  0
  190.4490  176.3000  145.0380 N   0  0  0  0  0  0  0  0  0  0  0  0
  191.3970  173.1460  144.7520 C   0  0  0  0  0  3  0  0  0  0  0  0
  193.1580  174.4830  145.7670 C   0  0  0  0  0  0  0  0  0  0  0  0
  193.6690  172.3260  144.7620 C   0  0  0  0  0  3  0  0  0  0  0  0
  194.0780  173.4760  145.4370 C   0  0  0  0  0  3  0  0  0  0  0  0
  192.3280  172.1630  144.4150 C   0  0  0  0  0  3  0  0  0  0  0  0
  191.7880  174.3060  145.4330 C   0  0  0  0  0  0  0  0  0  0  0  0
  193.9390  176.7020  145.6070 O   0  0  0  0  0  0  0  0  0  0  0  0
  194.9530  175.9930  146.1220 O   0  0  0  0  0  0  0  0  0  0  0  0
  193.6630  175.6910  146.5040 C   0  0  0  0  0  3  0  0  0  0  0  0
  1 10  1  0  0  0  0
  2 10  2  0  0  0  0
  2  5  1  0  0  0  0
  4  6  1  0  0  0  0
  4  7  2  0  0  0  0
  5 16  1  6  0  0  0
  5  8  1  0  0  0  0
  6  1  2  0  0  0  0
  7  2  1  0  0  0  0
  8  3  1  0  0  0  0
  9 14  1  1  0  0  0
  9  3  1  0  0  0  0
 10  9  1  0  0  0  0
 11  6  1  0  0  0  0
 12 14  2  0  0  0  0
 14 13  1  0  0  0  0
 16 15  2  0  0  0  0
 17 22  1  0  0  0  0
 18 25  1  0  0  0  0
 19 20  2  0  0  0  0
 20 18  1  0  0  0  0
 21 17  2  0  0  0  0
 21 19  1  0  0  0  0
 22 15  1  0  0  0  0
 22 18  2  0  0  0  0
 23 24  1  0  0  0  0
 23 25  1  0  0  0  0
 24 25  1  0  0  0  0
M  END
>  <MODEL>
2

>  <REMARK>
 VINA RESULT:      -7.8      2.559      3.804
  Name = 
  4 active torsions:
  status: ('A' for Active; 'I' for Inactive)
    1  A    between atoms: C_3  and  C_16
    2  A    between atoms: C_11  and  C_24
    3  A    between atoms: N_13  and  C_15
    4  A    between atoms: C_19  and  C_22
                            x       y       z     vdW  Elec       q    Type
                         _______ _______ _______ _____ _____    ______ ____

>  <TORSDO>
F 4

$$$$
=
 OpenBabel11072409403D

 25 28  0  0  1  0  0  0  0  0999 V2000
  192.0140  175.1150  143.2130 C   0  0  0  0  0  3  0  0  0  0  0  0
  190.2400  175.1750  144.8770 C   0  0  0  0  0  0  0  0  0  0  0  0
  192.0520  176.1050  146.9170 C   0  0  0  0  0  2  0  0  0  0  0  0
  189.8320  174.2290  142.6740 C   0  0  0  0  0  3  0  0  0  0  0  0
  189.7310  175.4790  146.2700 C   0  0  1  0  0  3  0  0  0  0  0  0
  191.1430  174.5200  142.2990 C   0  0  0  0  0  0  0  0  0  0  0  0
  189.3840  174.5510  143.9560 C   0  0  0  0  0  3  0  0  0  0  0  0
  190.5950  176.5260  146.9720 C   0  0  0  0  0  2  0  0  0  0  0  0
  192.5450  176.1100  145.4700 C   0  0  2  0  0  3  0  0  0  0  0  0
  191.5890  175.4180  144.5170 C   0  0  0  0  0  0  0  0  0  0  0  0
  191.5840  174.2160  141.0190 O   0  0  0  0  0  1  0  0  0  0  0  0
  194.1530  174.3690  145.8370 O   0  0  0  0  0  0  0  0  0  0  0  0
  194.9920  176.3110  144.8810 N   0  0  0  0  0  1  0  0  0  0  0  0
  193.9260  175.5340  145.4150 C   0  0  0  0  0  0  0  0  0  0  0  0
  188.0640  177.1720  145.9540 C   0  0  0  0  0  3  0  0  0  0  0  0
  188.3510  175.9390  146.2210 N   0  0  0  0  0  0  0  0  0  0  0  0
  186.0930  178.0100  147.1230 C   0  0  0  0  0  3  0  0  0  0  0  0
  185.9260  177.8400  144.7030 C   0  0  0  0  0  0  0  0  0  0  0  0
  184.0300  178.6110  146.0200 C   0  0  0  0  0  3  0  0  0  0  0  0
  184.5990  178.2920  144.7880 C   0  0  0  0  0  3  0  0  0  0  0  0
  184.7790  178.4750  147.1890 C   0  0  0  0  0  3  0  0  0  0  0  0
  186.6800  177.6800  145.8960 C   0  0  0  0  0  0  0  0  0  0  0  0
  186.8840  178.6550  142.7080 O   0  0  0  0  0  0  0  0  0  0  0  0
  185.7210  178.0930  142.3520 O   0  0  0  0  0  0  0  0  0  0  0  0
  186.4740  177.5020  143.3450 C   0  0  0  0  0  3  0  0  0  0  0  0
  1 10  1  0  0  0  0
  2  5  1  0  0  0  0
  3  8  1  0  0  0  0
  4  7  2  0  0  0  0
  5 16  1  6  0  0  0
  5  8  1  0  0  0  0
  6  4  1  0  0  0  0
  6  1  2  0  0  0  0
  7  2  1  0  0  0  0
  9 14  1  1  0  0  0
  9  3  1  0  0  0  0
 10  2  2  0  0  0  0
 10  9  1  0  0  0  0
 11  6  1  0  0  0  0
 13 14  1  0  0  0  0
 14 12  2  0  0  0  0
 15 16  2  0  0  0  0
 17 21  1  0  0  0  0
 18 20  2  0  0  0  0
 18 22  1  0  0  0  0
 19 21  2  0  0  0  0
 20 19  1  0  0  0  0
 22 15  1  0  0  0  0
 22 17  2  0  0  0  0
 23 25  1  0  0  0  0
 24 23  1  0  0  0  0
 24 25  1  0  0  0  0
 25 18  1  0  0  0  0
M  END
>  <MODEL>
3

>  <REMARK>
 VINA RESULT:      -7.8      2.628      7.617
  Name = 
  4 active torsions:
  status: ('A' for Active; 'I' for Inactive)
    1  A    between atoms: C_3  and  C_16
    2  A    between atoms: C_11  and  C_24
    3  A    between atoms: N_13  and  C_15
    4  A    between atoms: C_19  and  C_22
                            x       y       z     vdW  Elec       q    Type
                         _______ _______ _______ _____ _____    ______ ____

>  <TORSDO>
F 4

$$$$
=
 OpenBabel11072409403D

 25 28  0  0  1  0  0  0  0  0999 V2000
  186.6350  177.5820  143.3480 C   0  0  0  0  0  3  0  0  0  0  0  0
  188.8510  177.6070  144.3510 C   0  0  0  0  0  0  0  0  0  0  0  0
  187.7550  177.4440  147.0120 C   0  0  0  0  0  2  0  0  0  0  0  0
  188.5750  177.9720  141.9620 C   0  0  0  0  0  3  0  0  0  0  0  0
  189.7690  177.5370  145.5520 C   0  0  1  0  0  3  0  0  0  0  0  0
  187.1950  177.8180  142.0920 C   0  0  0  0  0  0  0  0  0  0  0  0
  189.3970  177.8710  143.0860 C   0  0  0  0  0  3  0  0  0  0  0  0
  189.1090  176.8190  146.7280 C   0  0  0  0  0  2  0  0  0  0  0  0
  186.8100  177.2020  145.8370 C   0  0  2  0  0  3  0  0  0  0  0  0
  187.4440  177.5080  144.4930 C   0  0  0  0  0  0  0  0  0  0  0  0
  186.3780  177.9020  140.9730 O   0  0  0  0  0  1  0  0  0  0  0  0
  184.4400  177.3590  146.1700 O   0  0  0  0  0  0  0  0  0  0  0  0
  185.5740  179.3840  146.1360 N   0  0  0  0  0  1  0  0  0  0  0  0
  185.5390  177.9640  146.0570 C   0  0  0  0  0  0  0  0  0  0  0  0
  191.5390  175.9830  145.9940 C   0  0  0  0  0  3  0  0  0  0  0  0
  191.0130  176.8640  145.2070 N   0  0  0  0  0  0  0  0  0  0  0  0
  193.9350  175.7150  146.3750 C   0  0  0  0  0  3  0  0  0  0  0  0
  192.9240  174.2210  144.7430 C   0  0  0  0  0  0  0  0  0  0  0  0
  195.3120  174.1150  145.2020 C   0  0  0  0  0  3  0  0  0  0  0  0
  194.1910  173.6640  144.5060 C   0  0  0  0  0  3  0  0  0  0  0  0
  195.1830  175.1380  146.1400 C   0  0  0  0  0  3  0  0  0  0  0  0
  192.7980  175.2780  145.6830 C   0  0  0  0  0  0  0  0  0  0  0  0
  191.1510  172.6700  144.6430 O   0  0  0  0  0  0  0  0  0  0  0  0
  191.9540  172.3740  143.6120 O   0  0  0  0  0  0  0  0  0  0  0  0
  191.7590  173.6970  143.9520 C   0  0  0  0  0  3  0  0  0  0  0  0
  1 10  1  0  0  0  0
  2 10  2  0  0  0  0
  2  5  1  0  0  0  0
  4  6  1  0  0  0  0
  4  7  2  0  0  0  0
  5 16  1  6  0  0  0
  5  8  1  0  0  0  0
  6  1  2  0  0  0  0
  7  2  1  0  0  0  0
  8  3  1  0  0  0  0
  9 14  1  1  0  0  0
  9  3  1  0  0  0  0
 10  9  1  0  0  0  0
 11  6  1  0  0  0  0
 14 13  1  0  0  0  0
 14 12  2  0  0  0  0
 16 15  2  0  0  0  0
 18 22  1  0  0  0  0
 19 21  2  0  0  0  0
 20 18  2  0  0  0  0
 20 19  1  0  0  0  0
 21 17  1  0  0  0  0
 22 15  1  0  0  0  0
 22 17  2  0  0  0  0
 24 25  1  0  0  0  0
 24 23  1  0  0  0  0
 25 23  1  0  0  0  0
 25 18  1  0  0  0  0
M  END
>  <MODEL>
4

>  <REMARK>
 VINA RESULT:      -7.6      2.535      3.911
  Name = 
  4 active torsions:
  status: ('A' for Active; 'I' for Inactive)
    1  A    between atoms: C_3  and  C_16
    2  A    between atoms: C_11  and  C_24
    3  A    between atoms: N_13  and  C_15
    4  A    between atoms: C_19  and  C_22
                            x       y       z     vdW  Elec       q    Type
                         _______ _______ _______ _____ _____    ______ ____

>  <TORSDO>
F 4

$$$$
=
 OpenBabel11072409403D

 25 28  0  0  1  0  0  0  0  0999 V2000
  186.4460  178.0750  145.9670 C   0  0  0  0  0  3  0  0  0  0  0  0
  188.1310  176.7120  144.8620 C   0  0  0  0  0  0  0  0  0  0  0  0
  187.6430  177.9930  142.3260 C   0  0  0  0  0  2  0  0  0  0  0  0
  187.4970  176.2600  147.1670 C   0  0  0  0  0  3  0  0  0  0  0  0
  188.9430  176.3290  143.6440 C   0  0  1  0  0  3  0  0  0  0  0  0
  186.6000  177.3280  147.1350 C   0  0  0  0  0  0  0  0  0  0  0  0
  188.2550  175.9520  146.0350 C   0  0  0  0  0  3  0  0  0  0  0  0
  189.0350  177.4780  142.6410 C   0  0  0  0  0  2  0  0  0  0  0  0
  187.0230  178.6220  143.5730 C   0  0  2  0  0  3  0  0  0  0  0  0
  187.1780  177.7600  144.8110 C   0  0  0  0  0  0  0  0  0  0  0  0
  185.8580  177.6450  148.2650 O   0  0  0  0  0  1  0  0  0  0  0  0
  185.0620  179.9770  143.8370 O   0  0  0  0  0  0  0  0  0  0  0  0
  184.8300  178.1620  142.4080 N   0  0  0  0  0  1  0  0  0  0  0  0
  185.5940  178.9730  143.2940 C   0  0  0  0  0  0  0  0  0  0  0  0
  191.2140  176.7810  144.2620 C   0  0  0  0  0  3  0  0  0  0  0  0
  190.2830  175.9130  144.0330 N   0  0  0  0  0  0  0  0  0  0  0  0
  192.8320  176.3320  146.0340 C   0  0  0  0  0  3  0  0  0  0  0  0
  193.6420  176.1260  143.7500 C   0  0  0  0  0  0  0  0  0  0  0  0
  195.1430  175.7600  145.6300 C   0  0  0  0  0  3  0  0  0  0  0  0
  194.9160  175.8220  144.2560 C   0  0  0  0  0  3  0  0  0  0  0  0
  194.0990  176.0110  146.5200 C   0  0  0  0  0  3  0  0  0  0  0  0
  192.5850  176.4030  144.6570 C   0  0  0  0  0  0  0  0  0  0  0  0
  192.9710  174.9860  141.7980 O   0  0  0  0  0  0  0  0  0  0  0  0
  194.2720  175.2580  141.6330 O   0  0  0  0  0  0  0  0  0  0  0  0
  193.4680  176.1880  142.2590 C   0  0  0  0  0  3  0  0  0  0  0  0
  1  6  1  0  0  0  0
  2  7  2  0  0  0  0
  3  8  1  0  0  0  0
  3  9  1  0  0  0  0
  5 16  1  1  0  0  0
  5  2  1  0  0  0  0
  6  4  2  0  0  0  0
  6 11  1  0  0  0  0
  7  4  1  0  0  0  0
  8  5  1  0  0  0  0
  9 14  1  6  0  0  0
  9 10  1  0  0  0  0
 10  2  1  0  0  0  0
 10  1  2  0  0  0  0
 13 14  1  0  0  0  0
 14 12  2  0  0  0  0
 15 22  1  0  0  0  0
 16 15  2  0  0  0  0
 17 21  1  0  0  0  0
 18 20  2  0  0  0  0
 18 22  1  0  0  0  0
 19 21  2  0  0  0  0
 20 19  1  0  0  0  0
 22 17  2  0  0  0  0
 23 25  1  0  0  0  0
 24 23  1  0  0  0  0
 24 25  1  0  0  0  0
 25 18  1  0  0  0  0
M  END
>  <MODEL>
5

>  <REMARK>
 VINA RESULT:      -7.6      2.322      2.814
  Name = 
  4 active torsions:
  status: ('A' for Active; 'I' for Inactive)
    1  A    between atoms: C_3  and  C_16
    2  A    between atoms: C_11  and  C_24
    3  A    between atoms: N_13  and  C_15
    4  A    between atoms: C_19  and  C_22
                            x       y       z     vdW  Elec       q    Type
                         _______ _______ _______ _____ _____    ______ ____

>  <TORSDO>
F 4

$$$$
=
 OpenBabel11072409403D

 25 28  0  0  1  0  0  0  0  0999 V2000
  192.3510  175.3720  143.3620 C   0  0  0  0  0  3  0  0  0  0  0  0
  190.2110  175.4320  144.5180 C   0  0  0  0  0  0  0  0  0  0  0  0
  191.4290  176.4570  146.9210 C   0  0  0  0  0  2  0  0  0  0  0  0
  190.3930  174.4190  142.3140 C   0  0  0  0  0  3  0  0  0  0  0  0
  189.3600  175.7590  145.7260 C   0  0  1  0  0  3  0  0  0  0  0  0
  191.7520  174.7320  142.2760 C   0  0  0  0  0  0  0  0  0  0  0  0
  189.6290  174.7630  143.4300 C   0  0  0  0  0  3  0  0  0  0  0  0
  189.9990  176.8440  146.5910 C   0  0  0  0  0  2  0  0  0  0  0  0
  192.2730  176.4360  145.6480 C   0  0  2  0  0  3  0  0  0  0  0  0
  191.6040  175.6980  144.5050 C   0  0  0  0  0  0  0  0  0  0  0  0
  192.5090  174.4050  141.1590 O   0  0  0  0  0  1  0  0  0  0  0  0
  193.7780  174.6930  146.3180 O   0  0  0  0  0  0  0  0  0  0  0  0
  194.7710  176.7400  145.8610 N   0  0  0  0  0  1  0  0  0  0  0  0
  193.6330  175.8920  145.9630 C   0  0  0  0  0  0  0  0  0  0  0  0
  187.7710  177.4270  145.0670 C   0  0  0  0  0  3  0  0  0  0  0  0
  188.0300  176.1850  145.3140 N   0  0  0  0  0  0  0  0  0  0  0  0
  186.1020  177.6900  143.3050 C   0  0  0  0  0  3  0  0  0  0  0  0
  185.5050  178.5510  145.5000 C   0  0  0  0  0  0  0  0  0  0  0  0
  183.9710  178.7800  143.6240 C   0  0  0  0  0  3  0  0  0  0  0  0
  184.2850  178.9960  144.9660 C   0  0  0  0  0  3  0  0  0  0  0  0
  184.8780  178.1230  142.7940 C   0  0  0  0  0  3  0  0  0  0  0  0
  186.4380  177.9010  144.6480 C   0  0  0  0  0  0  0  0  0  0  0  0
  185.6150  177.6710  147.6840 O   0  0  0  0  0  0  0  0  0  0  0  0
  184.6590  178.6090  147.7160 O   0  0  0  0  0  0  0  0  0  0  0  0
  185.7860  178.8260  146.9500 C   0  0  0  0  0  3  0  0  0  0  0  0
  1 10  1  0  0  0  0
  2  5  1  0  0  0  0
  4  7  2  0  0  0  0
  5 16  1  6  0  0  0
  5  8  1  0  0  0  0
  6  4  1  0  0  0  0
  6  1  2  0  0  0  0
  7  2  1  0  0  0  0
  8  3  1  0  0  0  0
  9 14  1  1  0  0  0
  9  3  1  0  0  0  0
 10  2  2  0  0  0  0
 10  9  1  0  0  0  0
 11  6  1  0  0  0  0
 13 14  1  0  0  0  0
 14 12  2  0  0  0  0
 15 16  2  0  0  0  0
 17 22  1  0  0  0  0
 18 25  1  0  0  0  0
 19 20  2  0  0  0  0
 20 18  1  0  0  0  0
 21 17  2  0  0  0  0
 21 19  1  0  0  0  0
 22 15  1  0  0  0  0
 22 18  2  0  0  0  0
 23 24  1  0  0  0  0
 25 23  1  0  0  0  0
 25 24  1  0  0  0  0
M  END
>  <MODEL>
6

>  <REMARK>
 VINA RESULT:      -7.6      2.405      7.521
  Name = 
  4 active torsions:
  status: ('A' for Active; 'I' for Inactive)
    1  A    between atoms: C_3  and  C_16
    2  A    between atoms: C_11  and  C_24
    3  A    between atoms: N_13  and  C_15
    4  A    between atoms: C_19  and  C_22
                            x       y       z     vdW  Elec       q    Type
                         _______ _______ _______ _____ _____    ______ ____

>  <TORSDO>
F 4

$$$$
=
 OpenBabel11072409403D

 25 28  0  0  1  0  0  0  0  0999 V2000
  185.8910  177.9240  143.5320 C   0  0  0  0  0  3  0  0  0  0  0  0
  188.2160  177.5350  144.1340 C   0  0  0  0  0  0  0  0  0  0  0  0
  187.5290  177.1110  146.9020 C   0  0  0  0  0  2  0  0  0  0  0  0
  187.6320  178.2810  141.8940 C   0  0  0  0  0  3  0  0  0  0  0  0
  189.2870  177.1790  145.1420 C   0  0  1  0  0  3  0  0  0  0  0  0
  186.2800  178.2760  142.2380 C   0  0  0  0  0  0  0  0  0  0  0  0
  188.5930  177.9170  142.8380 C   0  0  0  0  0  3  0  0  0  0  0  0
  188.7200  176.3790  146.3130 C   0  0  0  0  0  2  0  0  0  0  0  0
  186.3890  177.1610  145.8840 C   0  0  2  0  0  3  0  0  0  0  0  0
  186.8480  177.5850  144.5020 C   0  0  0  0  0  0  0  0  0  0  0  0
  185.3220  178.6210  141.2960 O   0  0  0  0  0  1  0  0  0  0  0  0
  184.1140  177.5820  146.5160 O   0  0  0  0  0  0  0  0  0  0  0  0
  185.5710  179.3670  146.8020 N   0  0  0  0  0  1  0  0  0  0  0  0
  185.2880  178.0270  146.4140 C   0  0  0  0  0  0  0  0  0  0  0  0
  191.5720  176.8610  144.4900 C   0  0  0  0  0  3  0  0  0  0  0  0
  190.3560  176.4220  144.5060 N   0  0  0  0  0  0  0  0  0  0  0  0
  192.6820  176.0950  142.4570 C   0  0  0  0  0  3  0  0  0  0  0  0
  193.7200  175.4590  144.5620 C   0  0  0  0  0  0  0  0  0  0  0  0
  194.6760  174.7320  142.4450 C   0  0  0  0  0  3  0  0  0  0  0  0
  194.6970  174.7560  143.8400 C   0  0  0  0  0  3  0  0  0  0  0  0
  193.6710  175.4060  141.7530 C   0  0  0  0  0  3  0  0  0  0  0  0
  192.6840  176.1270  143.8570 C   0  0  0  0  0  0  0  0  0  0  0  0
  194.5230  176.5170  146.5110 O   0  0  0  0  0  0  0  0  0  0  0  0
  195.1000  175.3080  146.4870 O   0  0  0  0  0  0  0  0  0  0  0  0
  193.7940  175.4350  146.0630 C   0  0  0  0  0  3  0  0  0  0  0  0
  1 10  1  0  0  0  0
  2 10  2  0  0  0  0
  2  5  1  0  0  0  0
  4  6  1  0  0  0  0
  4  7  2  0  0  0  0
  5 16  1  6  0  0  0
  5  8  1  0  0  0  0
  6  1  2  0  0  0  0
  7  2  1  0  0  0  0
  8  3  1  0  0  0  0
  9 14  1  1  0  0  0
  9  3  1  0  0  0  0
 10  9  1  0  0  0  0
 11  6  1  0  0  0  0
 14 12  2  0  0  0  0
 14 13  1  0  0  0  0
 15 16  2  0  0  0  0
 17 22  1  0  0  0  0
 18 25  1  0  0  0  0
 19 20  2  0  0  0  0
 20 18  1  0  0  0  0
 21 19  1  0  0  0  0
 21 17  2  0  0  0  0
 22 15  1  0  0  0  0
 22 18  2  0  0  0  0
 24 23  1  0  0  0  0
 25 24  1  0  0  0  0
 25 23  1  0  0  0  0
M  END
>  <MODEL>
7

>  <REMARK>
 VINA RESULT:      -7.5      2.070      3.648
  Name = 
  4 active torsions:
  status: ('A' for Active; 'I' for Inactive)
    1  A    between atoms: C_3  and  C_16
    2  A    between atoms: C_11  and  C_24
    3  A    between atoms: N_13  and  C_15
    4  A    between atoms: C_19  and  C_22
                            x       y       z     vdW  Elec       q    Type
                         _______ _______ _______ _____ _____    ______ ____

>  <TORSDO>
F 4

$$$$
=
 OpenBabel11072409403D

 25 28  0  0  1  0  0  0  0  0999 V2000
  186.2760  177.8650  143.0920 C   0  0  0  0  0  3  0  0  0  0  0  0
  188.4600  177.4980  144.0980 C   0  0  0  0  0  0  0  0  0  0  0  0
  187.3870  177.7670  146.7600 C   0  0  0  0  0  2  0  0  0  0  0  0
  188.2380  177.7360  141.6880 C   0  0  0  0  0  3  0  0  0  0  0  0
  189.3570  177.3270  145.3050 C   0  0  1  0  0  3  0  0  0  0  0  0
  186.8580  177.8850  141.8240 C   0  0  0  0  0  0  0  0  0  0  0  0
  189.0340  177.5480  142.8190 C   0  0  0  0  0  3  0  0  0  0  0  0
  188.5760  176.8530  146.5290 C   0  0  0  0  0  2  0  0  0  0  0  0
  186.3970  177.6420  145.6020 C   0  0  2  0  0  3  0  0  0  0  0  0
  187.0660  177.7080  144.2420 C   0  0  0  0  0  0  0  0  0  0  0  0
  186.0640  178.0550  140.6980 O   0  0  0  0  0  1  0  0  0  0  0  0
  185.5060  179.8590  145.3970 O   0  0  0  0  0  0  0  0  0  0  0  0
  184.0660  178.2920  146.3250 N   0  0  0  0  0  1  0  0  0  0  0  0
  185.3170  178.6670  145.7590 C   0  0  0  0  0  0  0  0  0  0  0  0
  190.4260  175.1920  145.5180 C   0  0  0  0  0  3  0  0  0  0  0  0
  190.4290  176.3840  145.0160 N   0  0  0  0  0  0  0  0  0  0  0  0
  192.6880  174.3870  145.9570 C   0  0  0  0  0  3  0  0  0  0  0  0
  191.3830  173.1220  144.3410 C   0  0  0  0  0  0  0  0  0  0  0  0
  193.6740  172.4790  144.8530 C   0  0  0  0  0  3  0  0  0  0  0  0
  192.4890  172.2800  144.1450 C   0  0  0  0  0  3  0  0  0  0  0  0
  193.7720  173.5310  145.7630 C   0  0  0  0  0  3  0  0  0  0  0  0
  191.4920  174.2070  145.2520 C   0  0  0  0  0  0  0  0  0  0  0  0
  189.3520  171.9340  144.1880 O   0  0  0  0  0  0  0  0  0  0  0  0
  190.0850  171.5410  143.1380 O   0  0  0  0  0  0  0  0  0  0  0  0
  190.1410  172.8600  143.5370 C   0  0  0  0  0  3  0  0  0  0  0  0
  1 10  1  0  0  0  0
  2 10  2  0  0  0  0
  2  5  1  0  0  0  0
  4  6  1  0  0  0  0
  4  7  2  0  0  0  0
  5 16  1  6  0  0  0
  5  8  1  0  0  0  0
  6  1  2  0  0  0  0
  7  2  1  0  0  0  0
  8  3  1  0  0  0  0
  9 14  1  6  0  0  0
  9  3  1  0  0  0  0
 10  9  1  0  0  0  0
 11  6  1  0  0  0  0
 12 14  2  0  0  0  0
 14 13  1  0  0  0  0
 16 15  2  0  0  0  0
 18 22  1  0  0  0  0
 19 21  2  0  0  0  0
 20 18  2  0  0  0  0
 20 19  1  0  0  0  0
 21 17  1  0  0  0  0
 22 15  1  0  0  0  0
 22 17  2  0  0  0  0
 24 25  1  0  0  0  0
 24 23  1  0  0  0  0
 25 23  1  0  0  0  0
 25 18  1  0  0  0  0
M  END
>  <MODEL>
8

>  <REMARK>
 VINA RESULT:      -7.4      3.062      4.202
  Name = 
  4 active torsions:
  status: ('A' for Active; 'I' for Inactive)
    1  A    between atoms: C_3  and  C_16
    2  A    between atoms: C_11  and  C_24
    3  A    between atoms: N_13  and  C_15
    4  A    between atoms: C_19  and  C_22
                            x       y       z     vdW  Elec       q    Type
                         _______ _______ _______ _____ _____    ______ ____

>  <TORSDO>
F 4

$$$$
=
 OpenBabel11072409403D

 25 28  0  0  1  0  0  0  0  0999 V2000
  192.2850  174.8060  143.3860 C   0  0  0  0  0  3  0  0  0  0  0  0
  190.3170  176.2190  143.1760 C   0  0  0  0  0  0  0  0  0  0  0  0
  189.1430  174.4610  141.2170 C   0  0  0  0  0  2  0  0  0  0  0  0
  192.2220  176.9480  144.5010 C   0  0  0  0  0  3  0  0  0  0  0  0
  188.9480  176.5180  142.6050 C   0  0  1  0  0  3  0  0  0  0  0  0
  192.8870  175.7570  144.2100 C   0  0  0  0  0  0  0  0  0  0  0  0
  190.9460  177.1790  143.9840 C   0  0  0  0  0  3  0  0  0  0  0  0
  188.2360  175.2460  142.1470 C   0  0  0  0  0  2  0  0  0  0  0  0
  190.3680  173.9600  141.9800 C   0  0  2  0  0  3  0  0  0  0  0  0
  191.0150  175.0350  142.8320 C   0  0  0  0  0  0  0  0  0  0  0  0
  194.1490  175.5200  144.7380 O   0  0  0  0  0  1  0  0  0  0  0  0
  191.7480  173.9780  140.0190 O   0  0  0  0  0  0  0  0  0  0  0  0
  191.7770  172.0010  141.2360 N   0  0  0  0  0  1  0  0  0  0  0  0
  191.3310  173.3340  141.0180 C   0  0  0  0  0  0  0  0  0  0  0  0
  187.2660  176.5710  144.3120 C   0  0  0  0  0  3  0  0  0  0  0  0
  188.1240  177.2110  143.5860 N   0  0  0  0  0  0  0  0  0  0  0  0
  186.8910  177.2320  146.6310 C   0  0  0  0  0  3  0  0  0  0  0  0
  185.1600  177.8460  145.0370 C   0  0  0  0  0  0  0  0  0  0  0  0
  184.9140  178.3880  147.3970 C   0  0  0  0  0  3  0  0  0  0  0  0
  184.4210  178.4040  146.0930 C   0  0  0  0  0  3  0  0  0  0  0  0
  186.1520  177.8060  147.6660 C   0  0  0  0  0  3  0  0  0  0  0  0
  186.4110  177.2340  145.3160 C   0  0  0  0  0  0  0  0  0  0  0  0
  184.9960  179.0190  142.9980 O   0  0  0  0  0  0  0  0  0  0  0  0
  183.7560  178.9920  143.5050 O   0  0  0  0  0  0  0  0  0  0  0  0
  184.5660  177.8860  143.6570 C   0  0  0  0  0  3  0  0  0  0  0  0
  1  6  1  0  0  0  0
  2  7  2  0  0  0  0
  3  9  1  0  0  0  0
  3  8  1  0  0  0  0
  5  2  1  0  0  0  0
  5 16  1  1  0  0  0
  6  4  2  0  0  0  0
  6 11  1  0  0  0  0
  7  4  1  0  0  0  0
  8  5  1  0  0  0  0
  9 14  1  6  0  0  0
  9 10  1  0  0  0  0
 10  2  1  0  0  0  0
 10  1  2  0  0  0  0
 12 14  2  0  0  0  0
 14 13  1  0  0  0  0
 15 22  1  0  0  0  0
 16 15  2  0  0  0  0
 17 21  1  0  0  0  0
 18 22  1  0  0  0  0
 18 20  2  0  0  0  0
 19 21  2  0  0  0  0
 20 19  1  0  0  0  0
 22 17  2  0  0  0  0
 23 24  1  0  0  0  0
 23 25  1  0  0  0  0
 24 25  1  0  0  0  0
 25 18  1  0  0  0  0
M  END
>  <MODEL>
9

>  <REMARK>
 VINA RESULT:      -7.4      2.887      7.103
  Name = 
  4 active torsions:
  status: ('A' for Active; 'I' for Inactive)
    1  A    between atoms: C_3  and  C_16
    2  A    between atoms: C_11  and  C_24
    3  A    between atoms: N_13  and  C_15
    4  A    between atoms: C_19  and  C_22
                            x       y       z     vdW  Elec       q    Type
                         _______ _______ _______ _____ _____    ______ ____

>  <TORSDO>
F 4

$$$$
