=
 OpenBabel11062422563D

 29 32  0  0  1  0  0  0  0  0999 V2000
  191.5110  177.7360  142.8890 O   0  0  0  0  0  1  0  0  0  0  0  0
  191.8260  177.4750  144.2250 C   0  0  2  0  0  3  0  0  0  0  0  0
  192.7410  176.2910  144.3360 C   0  0  0  0  0  0  0  0  0  0  0  0
  195.8280  174.6650  145.7330 C   0  0  0  0  0  1  0  0  0  0  0  0
  194.5350  177.3600  145.5580 O   0  0  0  0  0  0  0  0  0  0  0  0
  194.0430  176.3460  144.9950 C   0  0  0  0  0  0  0  0  0  0  0  0
  194.6810  175.0830  144.9420 N   0  0  0  0  0  0  0  0  0  0  0  0
  193.8790  172.9290  144.1650 C   0  0  0  0  0  2  0  0  0  0  0  0
  193.7420  174.2460  144.2780 C   0  0  0  0  0  0  0  0  0  0  0  0
  192.5460  175.0290  143.9070 C   0  0  0  0  0  0  0  0  0  0  0  0
  191.1180  174.6680  141.9550 N   0  0  0  0  0  0  0  0  0  0  0  0
  189.3900  173.3640  142.8880 N   0  0  0  0  0  0  0  0  0  0  0  0
  190.3670  173.7150  143.8280 N   0  0  0  0  0  2  0  0  0  0  0  0
  189.8690  173.9840  141.6440 C   0  0  0  0  0  3  0  0  0  0  0  0
  191.3610  174.4870  143.2000 C   0  0  0  0  0  0  0  0  0  0  0  0
  190.5680  177.2810  145.0570 C   0  0  0  0  0  2  0  0  0  0  0  0
  189.3340  177.3850  144.1790 C   0  0  0  0  0  2  0  0  0  0  0  0
  188.6370  175.8740  146.0500 C   0  0  0  0  0  2  0  0  0  0  0  0
  185.3020  178.2080  143.3720 C   0  0  0  0  0  2  0  0  0  0  0  0
  184.2930  177.9180  146.4760 C   0  0  0  0  0  2  0  0  0  0  0  0
  188.2490  176.4530  144.6890 C   0  0  1  0  0  3  0  0  0  0  0  0
  186.9680  177.2460  144.9410 C   0  0  1  0  0  3  0  0  0  0  0  0
  186.2310  176.0620  142.9450 O   0  0  0  0  0  1  0  0  0  0  0  0
  187.5470  176.2110  146.9450 N   0  0  0  0  0  0  0  0  0  0  0  0
  184.1580  178.8150  144.1780 C   0  0  0  0  0  2  0  0  0  0  0  0
  184.5650  179.1340  145.6090 C   0  0  0  0  0  2  0  0  0  0  0  0
  185.5160  177.4110  147.0820 N   0  0  0  0  0  2  0  0  0  0  0  0
  185.8190  176.9100  143.9770 C   0  0  2  0  0  3  0  0  0  0  0  0
  186.6440  176.9090  146.3560 C   0  0  0  0  0  0  0  0  0  0  0  0
  2  1  1  6  0  0  0
  2  3  1  0  0  0  0
  2 16  1  0  0  0  0
  3  6  1  0  0  0  0
  6  5  2  0  0  0  0
  7  6  1  0  0  0  0
  7  4  1  0  0  0  0
  8  9  2  0  0  0  0
  9  7  1  0  0  0  0
 10  9  1  0  0  0  0
 10  3  2  0  0  0  0
 11 15  2  0  0  0  0
 12 13  1  0  0  0  0
 14 11  1  0  0  0  0
 14 12  2  0  0  0  0
 15 13  1  0  0  0  0
 15 10  1  0  0  0  0
 17 16  1  0  0  0  0
 18 24  1  0  0  0  0
 19 28  1  0  0  0  0
 19 25  1  0  0  0  0
 20 27  1  0  0  0  0
 21 17  1  1  0  0  0
 21 22  1  0  0  0  0
 21 18  1  0  0  0  0
 22 29  1  1  0  0  0
 25 26  1  0  0  0  0
 26 20  1  0  0  0  0
 28 23  1  6  0  0  0
 28 22  1  0  0  0  0
 29 24  2  0  0  0  0
 29 27  1  0  0  0  0
M  END
>  <MODEL>
1

>  <REMARK>
 VINA RESULT:      -7.6      0.000      0.000
  Name = 
  5 active torsions:
  status: ('A' for Active; 'I' for Inactive)
    1  A    between atoms: C_1  and  C_27
    2  A    between atoms: C_8  and  C_28
    3  A    between atoms: C_21  and  C_27
    4  A    between atoms: C_21  and  C_28
    5  A    between atoms: C_25  and  C_29
                            x       y       z     vdW  Elec       q    Type
                         _______ _______ _______ _____ _____    ______ ____

>  <TORSDO>
F 5

$$$$
=
 OpenBabel11062422563D

 29 32  0  0  1  0  0  0  0  0999 V2000
  188.7710  177.9440  144.4000 O   0  0  0  0  0  1  0  0  0  0  0  0
  188.2580  177.2750  143.2860 C   0  0  2  0  0  3  0  0  0  0  0  0
  186.8750  177.7590  142.9640 C   0  0  0  0  0  0  0  0  0  0  0  0
  184.1490  178.4420  140.4680 C   0  0  0  0  0  1  0  0  0  0  0  0
  187.0550  177.7260  140.5520 O   0  0  0  0  0  0  0  0  0  0  0  0
  186.3950  177.9560  141.5990 C   0  0  0  0  0  0  0  0  0  0  0  0
  185.0570  178.4210  141.6040 N   0  0  0  0  0  0  0  0  0  0  0  0
  183.4810  178.7040  143.4270 C   0  0  0  0  0  2  0  0  0  0  0  0
  184.7120  178.4720  142.9830 C   0  0  0  0  0  0  0  0  0  0  0  0
  185.8670  178.0600  143.8060 C   0  0  0  0  0  0  0  0  0  0  0  0
  185.8870  179.0170  146.0560 N   0  0  0  0  0  0  0  0  0  0  0  0
  185.8870  177.0680  147.3810 N   0  0  0  0  0  0  0  0  0  0  0  0
  185.8760  176.7850  146.0090 N   0  0  0  0  0  2  0  0  0  0  0  0
  185.8940  178.5370  147.4320 C   0  0  0  0  0  3  0  0  0  0  0  0
  185.8750  177.9920  145.2870 C   0  0  0  0  0  0  0  0  0  0  0  0
  188.2830  175.7690  143.4910 C   0  0  0  0  0  2  0  0  0  0  0  0
  189.0470  175.0960  142.3660 C   0  0  0  0  0  2  0  0  0  0  0  0
  191.5200  174.8230  142.0860 C   0  0  0  0  0  2  0  0  0  0  0  0
  189.4680  174.4620  146.4900 C   0  0  0  0  0  2  0  0  0  0  0  0
  192.4510  175.8020  146.7120 C   0  0  0  0  0  2  0  0  0  0  0  0
  190.2960  174.4250  142.9100 C   0  0  1  0  0  3  0  0  0  0  0  0
  190.5800  174.9370  144.3220 C   0  0  1  0  0  3  0  0  0  0  0  0
  189.8240  172.7030  144.9310 O   0  0  0  0  0  1  0  0  0  0  0  0
  192.4680  175.3800  143.0320 N   0  0  0  0  0  0  0  0  0  0  0  0
  190.2340  175.1710  147.6020 C   0  0  0  0  0  2  0  0  0  0  0  0
  191.0750  176.3270  147.0800 C   0  0  0  0  0  2  0  0  0  0  0  0
  192.7360  175.9960  145.2970 N   0  0  0  0  0  2  0  0  0  0  0  0
  190.3890  173.8840  145.4240 C   0  0  2  0  0  3  0  0  0  0  0  0
  191.9890  175.4120  144.2230 C   0  0  0  0  0  0  0  0  0  0  0  0
  2 16  1  0  0  0  0
  2  1  1  1  0  0  0
  3  2  1  0  0  0  0
  3 10  2  0  0  0  0
  4  7  1  0  0  0  0
  5  6  2  0  0  0  0
  6  7  1  0  0  0  0
  6  3  1  0  0  0  0
  7  9  1  0  0  0  0
  9  8  2  0  0  0  0
  9 10  1  0  0  0  0
 10 15  1  0  0  0  0
 11 14  1  0  0  0  0
 12 14  2  0  0  0  0
 13 12  1  0  0  0  0
 15 13  1  0  0  0  0
 15 11  2  0  0  0  0
 17 16  1  0  0  0  0
 18 21  1  0  0  0  0
 18 24  1  0  0  0  0
 19 25  1  0  0  0  0
 20 26  1  0  0  0  0
 21 17  1  6  0  0  0
 21 22  1  0  0  0  0
 22 29  1  6  0  0  0
 22 28  1  0  0  0  0
 24 29  2  0  0  0  0
 26 25  1  0  0  0  0
 27 20  1  0  0  0  0
 28 23  1  6  0  0  0
 28 19  1  0  0  0  0
 29 27  1  0  0  0  0
M  END
>  <MODEL>
2

>  <REMARK>
 VINA RESULT:      -7.5      2.328      7.334
  Name = 
  5 active torsions:
  status: ('A' for Active; 'I' for Inactive)
    1  A    between atoms: C_1  and  C_27
    2  A    between atoms: C_8  and  C_28
    3  A    between atoms: C_21  and  C_27
    4  A    between atoms: C_21  and  C_28
    5  A    between atoms: C_25  and  C_29
                            x       y       z     vdW  Elec       q    Type
                         _______ _______ _______ _____ _____    ______ ____

>  <TORSDO>
F 5

$$$$
=
 OpenBabel11062422563D

 29 32  0  0  1  0  0  0  0  0999 V2000
  189.1970  178.0030  144.6820 O   0  0  0  0  0  1  0  0  0  0  0  0
  188.6720  177.1260  143.7300 C   0  0  2  0  0  3  0  0  0  0  0  0
  187.3340  177.6030  143.2470 C   0  0  0  0  0  0  0  0  0  0  0  0
  184.9060  178.2450  140.4500 C   0  0  0  0  0  1  0  0  0  0  0  0
  187.7840  177.5340  140.8710 O   0  0  0  0  0  0  0  0  0  0  0  0
  187.0100  177.7790  141.8340 C   0  0  0  0  0  0  0  0  0  0  0  0
  185.6800  178.2420  141.6810 N   0  0  0  0  0  0  0  0  0  0  0  0
  183.9090  178.5490  143.3100 C   0  0  0  0  0  2  0  0  0  0  0  0
  185.1820  178.3120  143.0120 C   0  0  0  0  0  0  0  0  0  0  0  0
  186.2370  177.9150  143.9650 C   0  0  0  0  0  0  0  0  0  0  0  0
  186.2470  178.8750  146.2140 N   0  0  0  0  0  0  0  0  0  0  0  0
  185.6630  176.9980  147.5150 N   0  0  0  0  0  0  0  0  0  0  0  0
  185.7270  176.7050  146.1470 N   0  0  0  0  0  2  0  0  0  0  0  0
  186.0030  178.4270  147.5790 C   0  0  0  0  0  3  0  0  0  0  0  0
  186.0790  177.8690  145.4390 C   0  0  0  0  0  0  0  0  0  0  0  0
  188.5890  175.7090  144.2760 C   0  0  0  0  0  2  0  0  0  0  0  0
  188.9330  175.6930  145.7540 C   0  0  0  0  0  2  0  0  0  0  0  0
  189.7700  173.4380  145.0590 C   0  0  0  0  0  2  0  0  0  0  0  0
  192.7710  176.6650  147.1360 C   0  0  0  0  0  2  0  0  0  0  0  0
  194.3720  174.8620  144.9150 C   0  0  0  0  0  2  0  0  0  0  0  0
  189.9390  174.5930  146.0440 C   0  0  1  0  0  3  0  0  0  0  0  0
  191.3550  175.1180  145.8080 C   0  0  1  0  0  3  0  0  0  0  0  0
  191.4410  175.0340  148.2400 O   0  0  0  0  0  1  0  0  0  0  0  0
  191.0670  173.2570  144.4380 N   0  0  0  0  0  0  0  0  0  0  0  0
  194.1450  176.7620  146.4790 C   0  0  0  0  0  2  0  0  0  0  0  0
  194.1160  176.3550  145.0130 C   0  0  0  0  0  2  0  0  0  0  0  0
  193.2450  174.1660  144.3100 N   0  0  0  0  0  2  0  0  0  0  0  0
  192.1980  175.2550  147.0850 C   0  0  2  0  0  3  0  0  0  0  0  0
  191.9210  174.1220  144.8550 C   0  0  0  0  0  0  0  0  0  0  0  0
  2 16  1  0  0  0  0
  2  1  1  1  0  0  0
  3  2  1  0  0  0  0
  3 10  2  0  0  0  0
  4  7  1  0  0  0  0
  5  6  2  0  0  0  0
  6  3  1  0  0  0  0
  7  6  1  0  0  0  0
  7  9  1  0  0  0  0
  9  8  2  0  0  0  0
  9 10  1  0  0  0  0
 10 15  1  0  0  0  0
 11 14  1  0  0  0  0
 12 14  2  0  0  0  0
 13 12  1  0  0  0  0
 15 13  1  0  0  0  0
 15 11  2  0  0  0  0
 16 17  1  0  0  0  0
 18 21  1  0  0  0  0
 20 26  1  0  0  0  0
 21 17  1  6  0  0  0
 22 29  1  6  0  0  0
 22 21  1  0  0  0  0
 22 28  1  0  0  0  0
 24 29  2  0  0  0  0
 24 18  1  0  0  0  0
 25 19  1  0  0  0  0
 26 25  1  0  0  0  0
 27 29  1  0  0  0  0
 27 20  1  0  0  0  0
 28 19  1  0  0  0  0
 28 23  1  1  0  0  0
M  END
>  <MODEL>
3

>  <REMARK>
 VINA RESULT:      -7.5      2.217      7.592
  Name = 
  5 active torsions:
  status: ('A' for Active; 'I' for Inactive)
    1  A    between atoms: C_1  and  C_27
    2  A    between atoms: C_8  and  C_28
    3  A    between atoms: C_21  and  C_27
    4  A    between atoms: C_21  and  C_28
    5  A    between atoms: C_25  and  C_29
                            x       y       z     vdW  Elec       q    Type
                         _______ _______ _______ _____ _____    ______ ____

>  <TORSDO>
F 5

$$$$
=
 OpenBabel11062422563D

 29 32  0  0  1  0  0  0  0  0999 V2000
  189.7040  172.8180  143.7370 O   0  0  0  0  0  1  0  0  0  0  0  0
  190.5310  173.8360  143.2570 C   0  0  2  0  0  3  0  0  0  0  0  0
  191.1450  174.6020  144.3910 C   0  0  0  0  0  0  0  0  0  0  0  0
  191.1910  175.6080  148.0130 C   0  0  0  0  0  1  0  0  0  0  0  0
  189.4230  174.2080  146.0440 O   0  0  0  0  0  0  0  0  0  0  0  0
  190.5170  174.7310  145.7030 C   0  0  0  0  0  0  0  0  0  0  0  0
  191.3230  175.5110  146.5680 N   0  0  0  0  0  0  0  0  0  0  0  0
  193.5550  176.4150  146.2720 C   0  0  0  0  0  2  0  0  0  0  0  0
  192.4680  175.8270  145.7840 C   0  0  0  0  0  0  0  0  0  0  0  0
  192.3250  175.2530  144.4320 C   0  0  0  0  0  0  0  0  0  0  0  0
  193.2460  176.2330  142.3890 N   0  0  0  0  0  0  0  0  0  0  0  0
  195.2000  174.9450  142.1060 N   0  0  0  0  0  0  0  0  0  0  0  0
  194.4690  174.5710  143.2410 N   0  0  0  0  0  2  0  0  0  0  0  0
  194.4070  176.0420  141.5300 C   0  0  0  0  0  3  0  0  0  0  0  0
  193.3230  175.3810  143.3430 C   0  0  0  0  0  0  0  0  0  0  0  0
  189.7750  174.7580  142.3130 C   0  0  0  0  0  2  0  0  0  0  0  0
  188.3520  174.9610  142.8010 C   0  0  0  0  0  2  0  0  0  0  0  0
  187.1490  176.7720  141.5610 C   0  0  0  0  0  2  0  0  0  0  0  0
  187.6590  176.9950  146.4010 C   0  0  0  0  0  2  0  0  0  0  0  0
  184.7960  178.2990  145.4810 C   0  0  0  0  0  2  0  0  0  0  0  0
  188.0000  176.4370  142.7860 C   0  0  1  0  0  3  0  0  0  0  0  0
  187.1180  176.7670  143.9890 C   0  0  1  0  0  3  0  0  0  0  0  0
  189.1510  177.8600  144.7660 O   0  0  0  0  0  1  0  0  0  0  0  0
  185.9410  177.3870  142.0780 N   0  0  0  0  0  0  0  0  0  0  0  0
  186.4040  177.4380  147.1480 C   0  0  0  0  0  2  0  0  0  0  0  0
  185.1300  177.1210  146.3790 C   0  0  0  0  0  2  0  0  0  0  0  0
  184.7950  177.9150  144.0760 N   0  0  0  0  0  2  0  0  0  0  0  0
  187.7940  177.6620  145.0390 C   0  0  2  0  0  3  0  0  0  0  0  0
  185.9330  177.4170  143.3620 C   0  0  0  0  0  0  0  0  0  0  0  0
  2  1  1  1  0  0  0
  2  3  1  0  0  0  0
  3 10  2  0  0  0  0
  3  6  1  0  0  0  0
  6  5  2  0  0  0  0
  6  7  1  0  0  0  0
  7  4  1  0  0  0  0
  9  8  2  0  0  0  0
  9  7  1  0  0  0  0
 10  9  1  0  0  0  0
 11 15  2  0  0  0  0
 12 13  1  0  0  0  0
 13 15  1  0  0  0  0
 14 12  2  0  0  0  0
 14 11  1  0  0  0  0
 15 10  1  0  0  0  0
 16 17  1  0  0  0  0
 16  2  1  0  0  0  0
 18 24  1  0  0  0  0
 18 21  1  0  0  0  0
 19 25  1  0  0  0  0
 20 26  1  0  0  0  0
 21 17  1  6  0  0  0
 21 22  1  0  0  0  0
 22 29  1  6  0  0  0
 22 28  1  0  0  0  0
 24 29  2  0  0  0  0
 26 25  1  0  0  0  0
 27 20  1  0  0  0  0
 28 23  1  6  0  0  0
 28 19  1  0  0  0  0
 29 27  1  0  0  0  0
M  END
>  <MODEL>
4

>  <REMARK>
 VINA RESULT:      -7.1      2.481      3.784
  Name = 
  5 active torsions:
  status: ('A' for Active; 'I' for Inactive)
    1  A    between atoms: C_1  and  C_27
    2  A    between atoms: C_8  and  C_28
    3  A    between atoms: C_21  and  C_27
    4  A    between atoms: C_21  and  C_28
    5  A    between atoms: C_25  and  C_29
                            x       y       z     vdW  Elec       q    Type
                         _______ _______ _______ _____ _____    ______ ____

>  <TORSDO>
F 5

$$$$
=
 OpenBabel11062422563D

 29 32  0  0  1  0  0  0  0  0999 V2000
  191.7200  175.2900  147.8770 O   0  0  0  0  0  1  0  0  0  0  0  0
  191.1290  175.5350  146.6360 C   0  0  2  0  0  3  0  0  0  0  0  0
  192.1500  175.4790  145.5380 C   0  0  0  0  0  0  0  0  0  0  0  0
  195.5920  176.2400  144.2320 C   0  0  0  0  0  1  0  0  0  0  0  0
  193.8180  176.9090  146.5510 O   0  0  0  0  0  0  0  0  0  0  0  0
  193.4220  176.1950  145.5920 C   0  0  0  0  0  0  0  0  0  0  0  0
  194.1770  175.9580  144.4170 N   0  0  0  0  0  0  0  0  0  0  0  0
  193.7860  174.4530  142.5540 C   0  0  0  0  0  2  0  0  0  0  0  0
  193.3720  175.0600  143.6610 C   0  0  0  0  0  0  0  0  0  0  0  0
  192.1130  174.7860  144.3820 C   0  0  0  0  0  0  0  0  0  0  0  0
  190.8670  172.6850  144.2830 N   0  0  0  0  0  0  0  0  0  0  0  0
  189.1950  173.2190  142.7090 N   0  0  0  0  0  0  0  0  0  0  0  0
  190.0670  174.2890  142.9520 N   0  0  0  0  0  2  0  0  0  0  0  0
  189.7070  172.1510  143.5800 C   0  0  0  0  0  3  0  0  0  0  0  0
  191.0320  173.8960  143.8970 C   0  0  0  0  0  0  0  0  0  0  0  0
  190.3870  176.8620  146.6330 C   0  0  0  0  0  2  0  0  0  0  0  0
  189.5940  177.0210  145.3490 C   0  0  0  0  0  2  0  0  0  0  0  0
  187.9150  176.1210  146.9730 C   0  0  0  0  0  2  0  0  0  0  0  0
  186.4780  178.1130  142.7660 C   0  0  0  0  0  2  0  0  0  0  0  0
  184.3030  178.7320  145.1380 C   0  0  0  0  0  2  0  0  0  0  0  0
  188.2230  176.3880  145.5000 C   0  0  1  0  0  3  0  0  0  0  0  0
  187.1500  177.3720  145.0370 C   0  0  1  0  0  3  0  0  0  0  0  0
  187.0100  175.8300  143.1570 O   0  0  0  0  0  1  0  0  0  0  0  0
  186.6640  176.8030  147.2430 N   0  0  0  0  0  0  0  0  0  0  0  0
  185.2710  179.0390  142.8860 C   0  0  0  0  0  2  0  0  0  0  0  0
  185.1480  179.6510  144.2740 C   0  0  0  0  0  2  0  0  0  0  0  0
  185.0520  178.2430  146.2870 N   0  0  0  0  0  2  0  0  0  0  0  0
  186.4230  176.9530  143.7500 C   0  0  2  0  0  3  0  0  0  0  0  0
  186.2360  177.4400  146.2120 C   0  0  0  0  0  0  0  0  0  0  0  0
  2  1  1  1  0  0  0
  3  6  1  0  0  0  0
  3  2  1  0  0  0  0
  4  7  1  0  0  0  0
  6  5  2  0  0  0  0
  7  6  1  0  0  0  0
  8  9  2  0  0  0  0
  9 10  1  0  0  0  0
  9  7  1  0  0  0  0
 10  3  2  0  0  0  0
 12 13  1  0  0  0  0
 12 14  2  0  0  0  0
 13 15  1  0  0  0  0
 14 11  1  0  0  0  0
 15 11  2  0  0  0  0
 15 10  1  0  0  0  0
 16  2  1  0  0  0  0
 17 16  1  0  0  0  0
 18 24  1  0  0  0  0
 19 25  1  0  0  0  0
 19 28  1  0  0  0  0
 20 27  1  0  0  0  0
 21 17  1  1  0  0  0
 21 18  1  0  0  0  0
 22 21  1  0  0  0  0
 22 29  1  1  0  0  0
 25 26  1  0  0  0  0
 26 20  1  0  0  0  0
 28 23  1  6  0  0  0
 28 22  1  0  0  0  0
 29 27  1  0  0  0  0
 29 24  2  0  0  0  0
M  END
>  <MODEL>
5

>  <REMARK>
 VINA RESULT:      -7.1      1.515      1.835
  Name = 
  5 active torsions:
  status: ('A' for Active; 'I' for Inactive)
    1  A    between atoms: C_1  and  C_27
    2  A    between atoms: C_8  and  C_28
    3  A    between atoms: C_21  and  C_27
    4  A    between atoms: C_21  and  C_28
    5  A    between atoms: C_25  and  C_29
                            x       y       z     vdW  Elec       q    Type
                         _______ _______ _______ _____ _____    ______ ____

>  <TORSDO>
F 5

$$$$
=
 OpenBabel11062422563D

 29 32  0  0  1  0  0  0  0  0999 V2000
  190.6380  174.5760  141.8510 O   0  0  0  0  0  1  0  0  0  0  0  0
  190.6600  174.6600  143.2450 C   0  0  2  0  0  3  0  0  0  0  0  0
  191.5500  173.6020  143.8280 C   0  0  0  0  0  0  0  0  0  0  0  0
  192.7100  170.0300  143.9910 C   0  0  0  0  0  1  0  0  0  0  0  0
  190.5130  171.6760  142.7950 O   0  0  0  0  0  0  0  0  0  0  0  0
  191.3840  172.1770  143.5540 C   0  0  0  0  0  0  0  0  0  0  0  0
  192.3630  171.4190  144.2430 N   0  0  0  0  0  0  0  0  0  0  0  0
  194.2860  172.1200  145.5460 C   0  0  0  0  0  2  0  0  0  0  0  0
  193.1520  172.3970  144.9110 C   0  0  0  0  0  0  0  0  0  0  0  0
  192.6160  173.7460  144.6390 C   0  0  0  0  0  0  0  0  0  0  0  0
  193.8500  175.8510  144.4720 N   0  0  0  0  0  0  0  0  0  0  0  0
  193.6970  176.6470  146.6850 N   0  0  0  0  0  0  0  0  0  0  0  0
  193.0500  175.4170  146.5100 N   0  0  0  0  0  2  0  0  0  0  0  0
  194.2310  176.9500  145.3490 C   0  0  0  0  0  3  0  0  0  0  0  0
  193.1830  175.0090  145.1710 C   0  0  0  0  0  0  0  0  0  0  0  0
  189.2550  174.5810  143.8220 C   0  0  0  0  0  2  0  0  0  0  0  0
  188.2880  175.3740  142.9640 C   0  0  0  0  0  2  0  0  0  0  0  0
  188.0410  177.7130  142.1060 C   0  0  0  0  0  2  0  0  0  0  0  0
  187.0740  176.6650  146.7650 C   0  0  0  0  0  2  0  0  0  0  0  0
  185.0780  179.0250  145.6750 C   0  0  0  0  0  2  0  0  0  0  0  0
  188.3550  176.8470  143.3260 C   0  0  1  0  0  3  0  0  0  0  0  0
  187.2640  177.1760  144.3430 C   0  0  1  0  0  3  0  0  0  0  0  0
  189.1690  177.3200  145.8530 O   0  0  0  0  0  1  0  0  0  0  0  0
  186.9370  178.5660  142.5030 N   0  0  0  0  0  0  0  0  0  0  0  0
  185.8120  177.3250  147.3110 C   0  0  0  0  0  2  0  0  0  0  0  0
  184.8010  177.6340  146.2170 C   0  0  0  0  0  2  0  0  0  0  0  0
  185.4110  178.9880  144.2570 N   0  0  0  0  0  2  0  0  0  0  0  0
  187.7920  177.5340  145.7410 C   0  0  2  0  0  3  0  0  0  0  0  0
  186.5420  178.3090  143.6980 C   0  0  0  0  0  0  0  0  0  0  0  0
  2  1  1  6  0  0  0
  2 16  1  0  0  0  0
  2  3  1  0  0  0  0
  3 10  2  0  0  0  0
  4  7  1  0  0  0  0
  5  6  2  0  0  0  0
  6  3  1  0  0  0  0
  6  7  1  0  0  0  0
  7  9  1  0  0  0  0
  9  8  2  0  0  0  0
 10  9  1  0  0  0  0
 10 15  1  0  0  0  0
 11 15  2  0  0  0  0
 11 14  1  0  0  0  0
 13 12  1  0  0  0  0
 14 12  2  0  0  0  0
 15 13  1  0  0  0  0
 17 16  1  0  0  0  0
 18 24  1  0  0  0  0
 18 21  1  0  0  0  0
 19 25  1  0  0  0  0
 20 26  1  0  0  0  0
 21 17  1  6  0  0  0
 21 22  1  0  0  0  0
 22 29  1  6  0  0  0
 22 28  1  0  0  0  0
 24 29  2  0  0  0  0
 26 25  1  0  0  0  0
 27 20  1  0  0  0  0
 28 23  1  6  0  0  0
 28 19  1  0  0  0  0
 29 27  1  0  0  0  0
M  END
>  <MODEL>
6

>  <REMARK>
 VINA RESULT:      -7.0      2.497      3.933
  Name = 
  5 active torsions:
  status: ('A' for Active; 'I' for Inactive)
    1  A    between atoms: C_1  and  C_27
    2  A    between atoms: C_8  and  C_28
    3  A    between atoms: C_21  and  C_27
    4  A    between atoms: C_21  and  C_28
    5  A    between atoms: C_25  and  C_29
                            x       y       z     vdW  Elec       q    Type
                         _______ _______ _______ _____ _____    ______ ____

>  <TORSDO>
F 5

$$$$
=
 OpenBabel11062422563D

 29 32  0  0  1  0  0  0  0  0999 V2000
  189.8190  178.0480  143.5800 O   0  0  0  0  0  1  0  0  0  0  0  0
  188.6370  177.3260  143.4020 C   0  0  2  0  0  3  0  0  0  0  0  0
  187.6380  177.6660  144.4680 C   0  0  0  0  0  0  0  0  0  0  0  0
  184.2530  178.9400  145.4920 C   0  0  0  0  0  1  0  0  0  0  0  0
  185.9970  178.7570  143.0650 O   0  0  0  0  0  0  0  0  0  0  0  0
  186.3900  178.3760  144.1990 C   0  0  0  0  0  0  0  0  0  0  0  0
  185.6530  178.5590  145.3940 N   0  0  0  0  0  0  0  0  0  0  0  0
  186.0340  177.7220  147.6390 C   0  0  0  0  0  2  0  0  0  0  0  0
  186.4440  177.9230  146.3910 C   0  0  0  0  0  0  0  0  0  0  0  0
  187.6770  177.3830  145.7850 C   0  0  0  0  0  0  0  0  0  0  0  0
  189.8500  177.1770  146.8880 N   0  0  0  0  0  0  0  0  0  0  0  0
  189.8050  174.9220  147.5710 N   0  0  0  0  0  0  0  0  0  0  0  0
  188.6380  175.3020  146.8950 N   0  0  0  0  0  2  0  0  0  0  0  0
  190.6170  176.1470  147.5770 C   0  0  0  0  0  3  0  0  0  0  0  0
  188.7390  176.6550  146.5210 C   0  0  0  0  0  0  0  0  0  0  0  0
  188.9080  175.8310  143.3560 C   0  0  0  0  0  2  0  0  0  0  0  0
  187.8980  175.1390  142.4590 C   0  0  0  0  0  2  0  0  0  0  0  0
  188.6260  174.0140  140.3440 C   0  0  0  0  0  2  0  0  0  0  0  0
  190.8240  173.0050  144.5730 C   0  0  0  0  0  2  0  0  0  0  0  0
  192.9670  172.8690  142.0960 C   0  0  0  0  0  2  0  0  0  0  0  0
  188.5050  173.8810  141.8620 C   0  0  1  0  0  3  0  0  0  0  0  0
  189.9370  173.7130  142.3650 C   0  0  1  0  0  3  0  0  0  0  0  0
  188.9260  171.9100  143.6530 O   0  0  0  0  0  1  0  0  0  0  0  0
  190.0240  173.7790  140.0390 N   0  0  0  0  0  0  0  0  0  0  0  0
  192.3450  172.9150  144.4870 C   0  0  0  0  0  2  0  0  0  0  0  0
  192.9100  173.7390  143.3400 C   0  0  0  0  0  2  0  0  0  0  0  0
  192.1380  173.4100  141.0290 N   0  0  0  0  0  2  0  0  0  0  0  0
  190.1380  172.5140  143.3050 C   0  0  2  0  0  3  0  0  0  0  0  0
  190.7180  173.5860  141.1030 C   0  0  0  0  0  0  0  0  0  0  0  0
  2  1  1  1  0  0  0
  2  3  1  0  0  0  0
  3 10  2  0  0  0  0
  5  6  2  0  0  0  0
  6  3  1  0  0  0  0
  6  7  1  0  0  0  0
  7  4  1  0  0  0  0
  7  9  1  0  0  0  0
  9  8  2  0  0  0  0
 10  9  1  0  0  0  0
 10 15  1  0  0  0  0
 11 14  1  0  0  0  0
 12 14  2  0  0  0  0
 13 12  1  0  0  0  0
 15 11  2  0  0  0  0
 15 13  1  0  0  0  0
 16  2  1  0  0  0  0
 17 16  1  0  0  0  0
 18 21  1  0  0  0  0
 20 26  1  0  0  0  0
 21 22  1  0  0  0  0
 21 17  1  1  0  0  0
 22 29  1  6  0  0  0
 22 28  1  0  0  0  0
 24 18  1  0  0  0  0
 24 29  2  0  0  0  0
 25 19  1  0  0  0  0
 26 25  1  0  0  0  0
 27 29  1  0  0  0  0
 27 20  1  0  0  0  0
 28 23  1  1  0  0  0
 28 19  1  0  0  0  0
M  END
>  <MODEL>
7

>  <REMARK>
 VINA RESULT:      -7.0      2.389      7.250
  Name = 
  5 active torsions:
  status: ('A' for Active; 'I' for Inactive)
    1  A    between atoms: C_1  and  C_27
    2  A    between atoms: C_8  and  C_28
    3  A    between atoms: C_21  and  C_27
    4  A    between atoms: C_21  and  C_28
    5  A    between atoms: C_25  and  C_29
                            x       y       z     vdW  Elec       q    Type
                         _______ _______ _______ _____ _____    ______ ____

>  <TORSDO>
F 5

$$$$
=
 OpenBabel11062422563D

 29 32  0  0  1  0  0  0  0  0999 V2000
  186.9750  175.1930  142.8180 O   0  0  0  0  0  1  0  0  0  0  0  0
  187.6700  175.8390  143.8430 C   0  0  2  0  0  3  0  0  0  0  0  0
  186.8410  176.9380  144.4390 C   0  0  0  0  0  0  0  0  0  0  0  0
  185.8900  179.0970  147.3650 C   0  0  0  0  0  1  0  0  0  0  0  0
  187.4980  176.6470  146.7490 O   0  0  0  0  0  0  0  0  0  0  0  0
  186.8210  177.2390  145.8680 C   0  0  0  0  0  0  0  0  0  0  0  0
  185.9480  178.3220  146.1370 N   0  0  0  0  0  0  0  0  0  0  0  0
  184.7330  179.7930  144.6370 C   0  0  0  0  0  2  0  0  0  0  0  0
  185.4620  178.7030  144.8550 C   0  0  0  0  0  0  0  0  0  0  0  0
  186.0310  177.8180  143.8190 C   0  0  0  0  0  0  0  0  0  0  0  0
  186.6490  178.0250  141.4610 N   0  0  0  0  0  0  0  0  0  0  0  0
  184.5290  178.0180  140.4310 N   0  0  0  0  0  0  0  0  0  0  0  0
  184.4490  177.9070  141.8250 N   0  0  0  0  0  2  0  0  0  0  0  0
  185.9740  178.0970  140.1720 C   0  0  0  0  0  3  0  0  0  0  0  0
  185.7480  177.9170  142.3670 C   0  0  0  0  0  0  0  0  0  0  0  0
  189.0100  176.3620  143.3510 C   0  0  0  0  0  2  0  0  0  0  0  0
  189.6270  175.3890  142.3640 C   0  0  0  0  0  2  0  0  0  0  0  0
  192.1200  175.4520  142.1530 C   0  0  0  0  0  2  0  0  0  0  0  0
  190.0170  174.5530  146.4540 C   0  0  0  0  0  2  0  0  0  0  0  0
  192.7950  176.2460  146.8580 C   0  0  0  0  0  2  0  0  0  0  0  0
  190.9370  174.8500  142.9090 C   0  0  1  0  0  3  0  0  0  0  0  0
  191.1150  175.3030  144.3580 C   0  0  1  0  0  3  0  0  0  0  0  0
  190.6390  172.9570  144.8070 O   0  0  0  0  0  1  0  0  0  0  0  0
  192.9630  176.0640  143.1620 N   0  0  0  0  0  0  0  0  0  0  0  0
  190.6550  175.2820  147.6330 C   0  0  0  0  0  2  0  0  0  0  0  0
  191.3530  176.5670  147.2090 C   0  0  0  0  0  2  0  0  0  0  0  0
  193.0890  176.5640  145.4680 N   0  0  0  0  0  2  0  0  0  0  0  0
  191.0330  174.1660  145.3880 C   0  0  2  0  0  3  0  0  0  0  0  0
  192.4520  175.9590  144.3360 C   0  0  0  0  0  0  0  0  0  0  0  0
  2  1  1  6  0  0  0
  2  3  1  0  0  0  0
  3  6  1  0  0  0  0
  6  7  1  0  0  0  0
  6  5  2  0  0  0  0
  7  4  1  0  0  0  0
  8  9  2  0  0  0  0
  9  7  1  0  0  0  0
 10  3  2  0  0  0  0
 10  9  1  0  0  0  0
 11 15  2  0  0  0  0
 12 13  1  0  0  0  0
 13 15  1  0  0  0  0
 14 12  2  0  0  0  0
 14 11  1  0  0  0  0
 15 10  1  0  0  0  0
 16  2  1  0  0  0  0
 17 16  1  0  0  0  0
 18 21  1  0  0  0  0
 18 24  1  0  0  0  0
 19 25  1  0  0  0  0
 20 26  1  0  0  0  0
 21 17  1  6  0  0  0
 21 22  1  0  0  0  0
 22 29  1  6  0  0  0
 22 28  1  0  0  0  0
 24 29  2  0  0  0  0
 26 25  1  0  0  0  0
 27 20  1  0  0  0  0
 28 23  1  6  0  0  0
 28 19  1  0  0  0  0
 29 27  1  0  0  0  0
M  END
>  <MODEL>
8

>  <REMARK>
 VINA RESULT:      -6.8      2.777      6.983
  Name = 
  5 active torsions:
  status: ('A' for Active; 'I' for Inactive)
    1  A    between atoms: C_1  and  C_27
    2  A    between atoms: C_8  and  C_28
    3  A    between atoms: C_21  and  C_27
    4  A    between atoms: C_21  and  C_28
    5  A    between atoms: C_25  and  C_29
                            x       y       z     vdW  Elec       q    Type
                         _______ _______ _______ _____ _____    ______ ____

>  <TORSDO>
F 5

$$$$
=
 OpenBabel11062422563D

 29 32  0  0  1  0  0  0  0  0999 V2000
  190.9580  174.5070  141.6150 O   0  0  0  0  0  1  0  0  0  0  0  0
  190.7540  175.3660  142.6980 C   0  0  2  0  0  3  0  0  0  0  0  0
  191.9860  175.4500  143.5510 C   0  0  0  0  0  0  0  0  0  0  0  0
  194.2730  177.3990  145.8080 C   0  0  0  0  0  1  0  0  0  0  0  0
  191.9490  177.8320  143.9700 O   0  0  0  0  0  0  0  0  0  0  0  0
  192.4870  176.7020  144.1100 C   0  0  0  0  0  0  0  0  0  0  0  0
  193.6630  176.4740  144.8660 N   0  0  0  0  0  0  0  0  0  0  0  0
  194.7630  174.4090  145.5090 C   0  0  0  0  0  2  0  0  0  0  0  0
  193.8550  175.0660  144.7950 C   0  0  0  0  0  0  0  0  0  0  0  0
  192.7980  174.4570  143.9630 C   0  0  0  0  0  0  0  0  0  0  0  0
  193.4270  172.3770  142.8400 N   0  0  0  0  0  0  0  0  0  0  0  0
  191.8720  170.8690  143.7680 N   0  0  0  0  0  0  0  0  0  0  0  0
  191.7200  172.1700  144.2630 N   0  0  0  0  0  2  0  0  0  0  0  0
  192.9960  170.9860  142.8270 C   0  0  0  0  0  3  0  0  0  0  0  0
  192.6790  173.0090  143.6660 C   0  0  0  0  0  0  0  0  0  0  0  0
  189.5440  174.9410  143.5150 C   0  0  0  0  0  2  0  0  0  0  0  0
  188.2850  175.5880  142.9670 C   0  0  0  0  0  2  0  0  0  0  0  0
  187.7490  177.9100  142.2020 C   0  0  0  0  0  2  0  0  0  0  0  0
  187.2140  176.6530  146.8780 C   0  0  0  0  0  2  0  0  0  0  0  0
  184.9220  178.8250  145.9980 C   0  0  0  0  0  2  0  0  0  0  0  0
  188.2300  177.0500  143.3700 C   0  0  1  0  0  3  0  0  0  0  0  0
  187.1840  177.2410  144.4670 C   0  0  1  0  0  3  0  0  0  0  0  0
  189.1650  177.5390  145.8520 O   0  0  0  0  0  1  0  0  0  0  0  0
  186.5950  178.6360  142.6970 N   0  0  0  0  0  0  0  0  0  0  0  0
  185.9320  177.1680  147.5270 C   0  0  0  0  0  2  0  0  0  0  0  0
  184.8230  177.4000  146.5120 C   0  0  0  0  0  2  0  0  0  0  0  0
  185.1590  178.8580  144.5610 N   0  0  0  0  0  2  0  0  0  0  0  0
  187.7690  177.6150  145.8380 C   0  0  2  0  0  3  0  0  0  0  0  0
  186.3110  178.3110  143.9070 C   0  0  0  0  0  0  0  0  0  0  0  0
  2  1  1  6  0  0  0
  2 16  1  0  0  0  0
  2  3  1  0  0  0  0
  3 10  2  0  0  0  0
  3  6  1  0  0  0  0
  5  6  2  0  0  0  0
  6  7  1  0  0  0  0
  7  4  1  0  0  0  0
  9  7  1  0  0  0  0
  9  8  2  0  0  0  0
 10  9  1  0  0  0  0
 11 15  2  0  0  0  0
 12 13  1  0  0  0  0
 14 11  1  0  0  0  0
 14 12  2  0  0  0  0
 15 10  1  0  0  0  0
 15 13  1  0  0  0  0
 17 16  1  0  0  0  0
 18 24  1  0  0  0  0
 18 21  1  0  0  0  0
 19 25  1  0  0  0  0
 20 26  1  0  0  0  0
 21 17  1  6  0  0  0
 21 22  1  0  0  0  0
 22 29  1  6  0  0  0
 22 28  1  0  0  0  0
 24 29  2  0  0  0  0
 26 25  1  0  0  0  0
 27 20  1  0  0  0  0
 28 23  1  6  0  0  0
 28 19  1  0  0  0  0
 29 27  1  0  0  0  0
M  END
>  <MODEL>
9

>  <REMARK>
 VINA RESULT:      -6.8      2.077      2.955
  Name = 
  5 active torsions:
  status: ('A' for Active; 'I' for Inactive)
    1  A    between atoms: C_1  and  C_27
    2  A    between atoms: C_8  and  C_28
    3  A    between atoms: C_21  and  C_27
    4  A    between atoms: C_21  and  C_28
    5  A    between atoms: C_25  and  C_29
                            x       y       z     vdW  Elec       q    Type
                         _______ _______ _______ _____ _____    ______ ____

>  <TORSDO>
F 5

$$$$
