=
 OpenBabel11062421503D

 48 53  0  0  1  0  0  0  0  0999 V2000
  191.9410  173.5990  140.7900 C   0  0  0  0  0  2  0  0  0  0  0  0
  192.4130  171.4430  143.0840 C   0  0  2  0  0  0  0  0  0  0  0  0
  192.4970  171.1950  141.5840 C   0  0  0  0  0  0  0  0  0  0  0  0
  190.4320  173.7040  140.6210 C   0  0  0  0  0  2  0  0  0  0  0  0
  189.0660  172.8920  142.6290 C   0  0  0  0  0  2  0  0  0  0  0  0
  192.3780  172.2240  140.5860 N   0  0  0  0  0  2  0  0  0  0  0  0
  189.9020  171.6140  142.6470 C   0  0  0  0  0  2  0  0  0  0  0  0
  189.7850  174.0650  141.9580 C   0  0  2  0  0  3  0  0  0  0  0  0
  192.6960  170.0140  141.1930 O   0  0  0  0  0  0  0  0  0  0  0  0
  191.0160  171.6140  143.7020 C   0  0  2  0  0  3  0  0  0  0  0  0
  191.9560  172.8100  143.5750 C   0  0  1  0  0  3  0  0  0  0  0  0
  194.6680  171.2680  144.2090 C   0  0  0  0  0  3  0  0  0  0  0  0
  193.0520  169.4960  144.5450 C   0  0  0  0  0  3  0  0  0  0  0  0
  196.9170  171.1800  145.2910 C   0  0  0  0  0  1  0  0  0  0  0  0
  195.5760  170.5970  145.0310 C   0  0  0  0  0  0  0  0  0  0  0  0
  193.4070  170.7150  143.9490 C   0  0  0  0  0  0  0  0  0  0  0  0
  195.2230  169.3740  145.6120 C   0  0  0  0  0  3  0  0  0  0  0  0
  193.9590  168.8260  145.3700 C   0  0  0  0  0  3  0  0  0  0  0  0
  188.9120  175.3330  141.9120 C   0  0  1  0  0  3  0  0  0  0  0  0
  187.4580  174.9530  142.1520 C   0  0  0  0  0  1  0  0  0  0  0  0
  189.1520  177.7250  142.1000 O   0  0  0  0  0  1  0  0  0  0  0  0
  189.3580  176.5310  142.8050 C   0  0  1  0  0  0  0  0  0  0  0  0
  188.2180  175.8130  146.4340 C   0  0  0  0  0  3  0  0  0  0  0  0
  187.4820  177.4690  144.2640 N   0  0  0  0  0  0  0  0  0  0  0  0
  186.7390  177.5280  145.5160 C   0  0  1  0  0  0  0  0  0  0  0  0
  185.8460  178.6810  145.7320 C   0  0  0  0  0  2  0  0  0  0  0  0
  185.3580  177.4330  145.2850 O   0  0  0  0  0  0  0  0  0  0  0  0
  188.5840  176.5590  144.1120 C   0  0  0  0  0  0  0  0  0  0  0  0
  188.9360  175.7730  145.1430 C   0  0  0  0  0  2  0  0  0  0  0  0
  186.5660  176.6670  147.8360 F   0  0  0  0  0  0  0  0  0  0  0  0
  187.1840  176.6320  146.6290 C   0  0  0  0  0  0  0  0  0  0  0  0
  191.4900  177.7890  143.4870 C   0  0  0  0  0  1  0  0  0  0  0  0
  190.8620  176.4520  143.1140 C   0  0  0  0  0  2  0  0  0  0  0  0
  192.4710  173.1250  144.8630 O   0  0  0  0  0  0  0  0  0  0  0  0
  195.0410  177.9670  146.1610 O   0  0  0  0  0  1  0  0  0  0  0  0
  192.8470  177.1430  147.6090 F   0  0  0  0  0  0  0  0  0  0  0  0
  194.7190  176.0910  144.7410 C   0  0  0  0  0  0  0  0  0  0  0  0
  194.4220  176.7540  145.8720 C   0  0  0  0  0  0  0  0  0  0  0  0
  193.4760  176.1500  146.8810 C   0  0  2  0  0  3  0  0  0  0  0  0
  192.4190  175.2650  146.2110 C   0  0  0  0  0  2  0  0  0  0  0  0
  194.0720  174.7970  144.4450 C   0  0  0  0  0  3  0  0  0  0  0  0
  193.0250  174.3730  145.1550 C   0  0  0  0  0  0  0  0  0  0  0  0
  195.7510  176.6100  143.7970 C   0  0  0  0  0  2  0  0  0  0  0  0
  195.3480  176.3440  142.4250 N   0  0  0  0  0  2  0  0  0  0  0  0
  196.5960  175.7020  140.3880 C   0  0  0  0  0  0  0  0  0  0  0  0
  195.6130  175.0480  139.9480 O   0  0  0  0  0  0  0  0  0  0  0  0
  197.8040  175.7510  139.6360 N   0  0  0  0  0  1  0  0  0  0  0  0
  196.5060  176.3980  141.6320 N   0  0  0  0  0  2  0  0  0  0  0  0
  2 11  1  0  0  0  0
  2 10  1  0  0  0  0
  2 16  1  1  0  0  0
  3  2  1  0  0  0  0
  4  1  1  0  0  0  0
  4  8  1  0  0  0  0
  5  7  1  0  0  0  0
  6  1  1  0  0  0  0
  6  3  1  0  0  0  0
  8 19  1  6  0  0  0
  8  5  1  0  0  0  0
  9  3  2  0  0  0  0
 10  7  1  6  0  0  0
 11 10  1  0  0  0  0
 11 34  1  1  0  0  0
 12 15  1  0  0  0  0
 13 18  2  0  0  0  0
 15 14  1  0  0  0  0
 15 17  2  0  0  0  0
 16 12  2  0  0  0  0
 16 13  1  0  0  0  0
 18 17  1  0  0  0  0
 19 20  1  1  0  0  0
 19 22  1  0  0  0  0
 22 21  1  6  0  0  0
 22 33  1  0  0  0  0
 22 28  1  0  0  0  0
 23 31  2  0  0  0  0
 24 25  1  0  0  0  0
 25 26  1  1  0  0  0
 25 31  1  0  0  0  0
 27 25  1  0  0  0  0
 27 26  1  0  0  0  0
 28 24  2  0  0  0  0
 28 29  1  0  0  0  0
 29 23  1  0  0  0  0
 31 30  1  0  0  0  0
 33 32  1  0  0  0  0
 34 42  1  0  0  0  0
 37 38  2  0  0  0  0
 38 35  1  0  0  0  0
 38 39  1  0  0  0  0
 39 36  1  6  0  0  0
 40 39  1  0  0  0  0
 41 37  1  0  0  0  0
 41 42  2  0  0  0  0
 42 40  1  0  0  0  0
 43 37  1  0  0  0  0
 44 43  1  0  0  0  0
 45 48  1  0  0  0  0
 46 45  2  0  0  0  0
 47 45  1  0  0  0  0
 48 44  1  0  0  0  0
M  END
>  <MODEL>
1

>  <REMARK>
 VINA RESULT:      -8.0      0.000      0.000
  Name = 
  10 active torsions:
  status: ('A' for Active; 'I' for Inactive)
    1  A    between atoms: C_5  and  C_38
    2  A    between atoms: C_12  and  C_28
    3  A    between atoms: C_13  and  C_41
    4  A    between atoms: C_25  and  C_35
    5  A    between atoms: C_25  and  C_41
    6  A    between atoms: C_26  and  C_41
    7  A    between atoms: N_30  and  C_38
    8  A    between atoms: N_30  and  N_39
    9  A    between atoms: O_42  and  C_46
   10  A    between atoms: O_42  and  C_47
                            x       y       z     vdW  Elec       q    Type
                         _______ _______ _______ _____ _____    ______ ____

>  <TORSDO>
F 10

$$$$
=
 OpenBabel11062421503D

 48 53  0  0  1  0  0  0  0  0999 V2000
  192.9940  175.9310  146.7210 C   0  0  0  0  0  2  0  0  0  0  0  0
  194.0600  173.6730  144.7480 C   0  0  2  0  0  0  0  0  0  0  0  0
  194.9150  174.6270  145.5700 C   0  0  0  0  0  0  0  0  0  0  0  0
  192.6350  177.1190  145.8400 C   0  0  0  0  0  2  0  0  0  0  0  0
  192.2220  176.5460  143.3790 C   0  0  0  0  0  2  0  0  0  0  0  0
  194.3900  175.5630  146.5290 N   0  0  0  0  0  2  0  0  0  0  0  0
  193.5290  175.7570  143.3700 C   0  0  0  0  0  2  0  0  0  0  0  0
  191.6210  176.6890  144.7800 C   0  0  2  0  0  3  0  0  0  0  0  0
  196.1640  174.5840  145.4110 O   0  0  0  0  0  0  0  0  0  0  0  0
  193.3430  174.2410  143.5120 C   0  0  2  0  0  3  0  0  0  0  0  0
  192.5470  173.8530  144.7560 C   0  0  1  0  0  3  0  0  0  0  0  0
  194.5450  171.3760  145.6800 C   0  0  0  0  0  3  0  0  0  0  0  0
  195.0210  171.8170  143.3470 C   0  0  0  0  0  3  0  0  0  0  0  0
  194.9860  169.1300  146.6800 C   0  0  0  0  0  1  0  0  0  0  0  0
  194.9980  170.0630  145.5240 C   0  0  0  0  0  0  0  0  0  0  0  0
  194.5680  172.2640  144.5960 C   0  0  0  0  0  0  0  0  0  0  0  0
  195.4630  169.6260  144.2790 C   0  0  0  0  0  3  0  0  0  0  0  0
  195.4710  170.5030  143.1900 C   0  0  0  0  0  3  0  0  0  0  0  0
  190.3250  177.5210  144.7750 C   0  0  1  0  0  3  0  0  0  0  0  0
  189.9790  177.9080  143.3440 C   0  0  0  0  0  1  0  0  0  0  0  0
  188.9950  177.5410  146.7860 O   0  0  0  0  0  1  0  0  0  0  0  0
  189.0990  176.9250  145.5310 C   0  0  1  0  0  0  0  0  0  0  0  0
  186.1760  176.4190  143.0440 C   0  0  0  0  0  3  0  0  0  0  0  0
  186.9700  178.2510  145.0440 N   0  0  0  0  0  2  0  0  0  0  0  0
  185.7240  178.4550  144.3170 C   0  0  1  0  0  0  0  0  0  0  0  0
  184.7530  179.4150  144.8720 C   0  0  0  0  0  2  0  0  0  0  0  0
  185.6370  179.7680  143.8290 O   0  0  0  0  0  0  0  0  0  0  0  0
  187.8150  177.1290  144.7440 C   0  0  0  0  0  0  0  0  0  0  0  0
  187.4380  176.2560  143.7940 C   0  0  0  0  0  3  0  0  0  0  0  0
  184.1900  177.5470  142.5920 F   0  0  0  0  0  0  0  0  0  0  0  0
  185.3560  177.4440  143.2770 C   0  0  0  0  0  0  0  0  0  0  0  0
  189.2340  175.0310  147.2610 C   0  0  0  0  0  1  0  0  0  0  0  0
  189.2950  175.4220  145.7900 C   0  0  0  0  0  2  0  0  0  0  0  0
  191.8540  172.6400  144.4940 O   0  0  0  0  0  0  0  0  0  0  0  0
  188.9870  172.0470  139.6810 O   0  0  0  0  0  1  0  0  0  0  0  0
  188.3200  174.0580  141.4400 F   0  0  0  0  0  0  0  0  0  0  0  0
  190.5780  171.2820  141.2700 C   0  0  0  0  0  0  0  0  0  0  0  0
  189.7140  172.2250  140.8550 C   0  0  0  0  0  0  0  0  0  0  0  0
  189.5830  173.5220  141.6140 C   0  0  2  0  0  3  0  0  0  0  0  0
  189.8540  173.3370  143.1110 C   0  0  0  0  0  2  0  0  0  0  0  0
  191.3580  171.4820  142.5080 C   0  0  0  0  0  3  0  0  0  0  0  0
  191.0630  172.4680  143.3560 C   0  0  0  0  0  0  0  0  0  0  0  0
  190.8180  170.0530  140.4600 C   0  0  0  0  0  2  0  0  0  0  0  0
  192.0780  170.1700  139.7420 N   0  0  0  0  0  2  0  0  0  0  0  0
  191.8550  171.5860  137.7260 C   0  0  0  0  0  0  0  0  0  0  0  0
  192.2540  172.6040  138.3530 O   0  0  0  0  0  0  0  0  0  0  0  0
  191.4920  171.7000  136.3540 N   0  0  0  0  0  1  0  0  0  0  0  0
  191.7690  170.3190  138.3800 N   0  0  0  0  0  2  0  0  0  0  0  0
  2 16  1  6  0  0  0
  2 11  1  0  0  0  0
  2  3  1  0  0  0  0
  3  6  1  0  0  0  0
  4  1  1  0  0  0  0
  5  8  1  0  0  0  0
  6  1  1  0  0  0  0
  7  5  1  0  0  0  0
  8 19  1  6  0  0  0
  8  4  1  0  0  0  0
  9  3  2  0  0  0  0
 10  7  1  1  0  0  0
 10  2  1  0  0  0  0
 10 11  1  0  0  0  0
 11 34  1  6  0  0  0
 13 16  1  0  0  0  0
 15 12  1  0  0  0  0
 15 14  1  0  0  0  0
 16 12  2  0  0  0  0
 17 15  2  0  0  0  0
 18 13  2  0  0  0  0
 18 17  1  0  0  0  0
 19 20  1  6  0  0  0
 19 22  1  0  0  0  0
 22 33  1  0  0  0  0
 22 21  1  1  0  0  0
 23 31  2  0  0  0  0
 23 29  1  0  0  0  0
 25 26  1  1  0  0  0
 25 24  1  0  0  0  0
 27 25  1  0  0  0  0
 27 26  1  0  0  0  0
 28 24  1  0  0  0  0
 28 22  1  0  0  0  0
 29 28  2  0  0  0  0
 30 31  1  0  0  0  0
 31 25  1  0  0  0  0
 33 32  1  0  0  0  0
 35 38  1  0  0  0  0
 37 41  1  0  0  0  0
 38 37  2  0  0  0  0
 38 39  1  0  0  0  0
 39 36  1  1  0  0  0
 39 40  1  0  0  0  0
 40 42  1  0  0  0  0
 41 42  2  0  0  0  0
 42 34  1  0  0  0  0
 43 37  1  0  0  0  0
 44 43  1  0  0  0  0
 45 46  2  0  0  0  0
 45 48  1  0  0  0  0
 47 45  1  0  0  0  0
 48 44  1  0  0  0  0
M  END
>  <MODEL>
2

>  <REMARK>
 VINA RESULT:      -8.0      2.843      5.176
  Name = 
  10 active torsions:
  status: ('A' for Active; 'I' for Inactive)
    1  A    between atoms: C_5  and  C_38
    2  A    between atoms: C_12  and  C_28
    3  A    between atoms: C_13  and  C_41
    4  A    between atoms: C_25  and  C_35
    5  A    between atoms: C_25  and  C_41
    6  A    between atoms: C_26  and  C_41
    7  A    between atoms: N_30  and  C_38
    8  A    between atoms: N_30  and  N_39
    9  A    between atoms: O_42  and  C_46
   10  A    between atoms: O_42  and  C_47
                            x       y       z     vdW  Elec       q    Type
                         _______ _______ _______ _____ _____    ______ ____

>  <TORSDO>
F 10

$$$$
=
 OpenBabel11062421503D

 48 53  0  0  1  0  0  0  0  0999 V2000
  193.5250  173.2710  145.7500 C   0  0  0  0  0  2  0  0  0  0  0  0
  194.7500  174.9880  143.3670 C   0  0  2  0  0  0  0  0  0  0  0  0
  195.5370  174.2100  144.4130 C   0  0  0  0  0  0  0  0  0  0  0  0
  193.1800  174.2680  146.8480 C   0  0  0  0  0  2  0  0  0  0  0  0
  192.9100  176.6880  146.0560 C   0  0  0  0  0  2  0  0  0  0  0  0
  194.9380  173.3620  145.4100 N   0  0  0  0  0  2  0  0  0  0  0  0
  194.2360  176.5640  145.3100 C   0  0  0  0  0  2  0  0  0  0  0  0
  192.2340  175.3360  146.2980 C   0  0  2  0  0  3  0  0  0  0  0  0
  196.7930  174.3030  144.3960 O   0  0  0  0  0  0  0  0  0  0  0  0
  194.0840  176.3020  143.8060 C   0  0  2  0  0  3  0  0  0  0  0  0
  193.2350  175.0700  143.5010 C   0  0  1  0  0  3  0  0  0  0  0  0
  194.9940  173.9580  141.0730 C   0  0  0  0  0  3  0  0  0  0  0  0
  196.0920  176.0670  141.5320 C   0  0  0  0  0  3  0  0  0  0  0  0
  195.1760  172.8750  138.8300 C   0  0  0  0  0  1  0  0  0  0  0  0
  195.4930  173.9820  139.7680 C   0  0  0  0  0  0  0  0  0  0  0  0
  195.3030  174.9930  141.9670 C   0  0  0  0  0  0  0  0  0  0  0  0
  196.2920  175.0490  139.3440 C   0  0  0  0  0  3  0  0  0  0  0  0
  196.5880  176.0930  140.2250 C   0  0  0  0  0  3  0  0  0  0  0  0
  190.9180  175.4750  147.0870 C   0  0  1  0  0  3  0  0  0  0  0  0
  190.7580  176.9180  147.5480 C   0  0  0  0  0  1  0  0  0  0  0  0
  188.9580  174.0900  147.3060 O   0  0  0  0  0  1  0  0  0  0  0  0
  189.6260  174.9330  146.4070 C   0  0  1  0  0  0  0  0  0  0  0  0
  188.1230  177.9400  144.4870 C   0  0  0  0  0  3  0  0  0  0  0  0
  187.4750  176.2840  146.6840 N   0  0  0  0  0  2  0  0  0  0  0  0
  186.5710  177.3530  146.2810 C   0  0  1  0  0  0  0  0  0  0  0  0
  185.1960  177.3280  146.8100 C   0  0  0  0  0  2  0  0  0  0  0  0
  186.2010  178.1390  147.3830 O   0  0  0  0  0  0  0  0  0  0  0  0
  188.7100  176.0680  145.9820 C   0  0  0  0  0  0  0  0  0  0  0  0
  189.0190  176.8540  144.9360 C   0  0  0  0  0  3  0  0  0  0  0  0
  186.1550  179.1740  144.6470 F   0  0  0  0  0  0  0  0  0  0  0  0
  186.9680  178.1890  145.1040 C   0  0  0  0  0  0  0  0  0  0  0  0
  189.7110  172.5910  145.3550 C   0  0  0  0  0  1  0  0  0  0  0  0
  189.9720  174.0810  145.1740 C   0  0  0  0  0  2  0  0  0  0  0  0
  192.5880  175.2600  142.2490 O   0  0  0  0  0  0  0  0  0  0  0  0
  187.7120  172.6000  141.3090 O   0  0  0  0  0  1  0  0  0  0  0  0
  190.0980  171.2940  140.8740 F   0  0  0  0  0  0  0  0  0  0  0  0
  188.9580  174.5610  141.8040 C   0  0  0  0  0  0  0  0  0  0  0  0
  188.9220  173.2360  141.5750 C   0  0  0  0  0  0  0  0  0  0  0  0
  190.1800  172.4110  141.6830 C   0  0  2  0  0  3  0  0  0  0  0  0
  191.4260  173.2200  141.3060 C   0  0  0  0  0  2  0  0  0  0  0  0
  190.2410  175.2290  142.1000 C   0  0  0  0  0  3  0  0  0  0  0  0
  191.4040  174.5990  141.9190 C   0  0  0  0  0  0  0  0  0  0  0  0
  187.7040  175.3680  141.8320 C   0  0  0  0  0  2  0  0  0  0  0  0
  187.9470  176.6820  141.2550 N   0  0  0  0  0  2  0  0  0  0  0  0
  185.9440  177.6360  140.1630 C   0  0  0  0  0  0  0  0  0  0  0  0
  186.2880  177.1700  139.0440 O   0  0  0  0  0  0  0  0  0  0  0  0
  184.7480  178.4010  140.2720 N   0  0  0  0  0  1  0  0  0  0  0  0
  186.7410  177.3970  141.3250 N   0  0  0  0  0  2  0  0  0  0  0  0
  1  4  1  0  0  0  0
  2 16  1  6  0  0  0
  2 11  1  0  0  0  0
  2 10  1  0  0  0  0
  2  3  1  0  0  0  0
  3  6  1  0  0  0  0
  5  8  1  0  0  0  0
  6  1  1  0  0  0  0
  7  5  1  0  0  0  0
  8  4  1  0  0  0  0
  8 19  1  1  0  0  0
  9  3  2  0  0  0  0
 10  7  1  1  0  0  0
 11 34  1  6  0  0  0
 11 10  1  0  0  0  0
 12 16  1  0  0  0  0
 13 16  2  0  0  0  0
 14 15  1  0  0  0  0
 15 12  2  0  0  0  0
 17 15  1  0  0  0  0
 17 18  2  0  0  0  0
 18 13  1  0  0  0  0
 19 20  1  6  0  0  0
 22 19  1  0  0  0  0
 22 21  1  1  0  0  0
 23 29  1  0  0  0  0
 23 31  2  0  0  0  0
 25 24  1  0  0  0  0
 25 26  1  6  0  0  0
 25 27  1  0  0  0  0
 26 27  1  0  0  0  0
 28 22  1  0  0  0  0
 28 24  1  0  0  0  0
 29 28  2  0  0  0  0
 30 31  1  0  0  0  0
 31 25  1  0  0  0  0
 33 32  1  0  0  0  0
 33 22  1  0  0  0  0
 35 38  1  0  0  0  0
 37 43  1  0  0  0  0
 37 41  1  0  0  0  0
 38 39  1  0  0  0  0
 38 37  2  0  0  0  0
 39 36  1  6  0  0  0
 40 39  1  0  0  0  0
 40 42  1  0  0  0  0
 42 41  2  0  0  0  0
 42 34  1  0  0  0  0
 44 48  1  0  0  0  0
 44 43  1  0  0  0  0
 45 47  1  0  0  0  0
 45 48  1  0  0  0  0
 46 45  2  0  0  0  0
M  END
>  <MODEL>
3

>  <REMARK>
 VINA RESULT:      -7.9      3.087      6.394
  Name = 
  10 active torsions:
  status: ('A' for Active; 'I' for Inactive)
    1  A    between atoms: C_5  and  C_38
    2  A    between atoms: C_12  and  C_28
    3  A    between atoms: C_13  and  C_41
    4  A    between atoms: C_25  and  C_35
    5  A    between atoms: C_25  and  C_41
    6  A    between atoms: C_26  and  C_41
    7  A    between atoms: N_30  and  C_38
    8  A    between atoms: N_30  and  N_39
    9  A    between atoms: O_42  and  C_46
   10  A    between atoms: O_42  and  C_47
                            x       y       z     vdW  Elec       q    Type
                         _______ _______ _______ _____ _____    ______ ____

>  <TORSDO>
F 10

$$$$
=
 OpenBabel11062421503D

 48 53  0  0  1  0  0  0  0  0999 V2000
  193.1560  175.9300  146.5940 C   0  0  0  0  0  2  0  0  0  0  0  0
  194.4390  173.6110  144.8310 C   0  0  2  0  0  0  0  0  0  0  0  0
  195.1990  174.6550  145.6380 C   0  0  0  0  0  0  0  0  0  0  0  0
  192.7950  177.0440  145.6200 C   0  0  0  0  0  2  0  0  0  0  0  0
  192.5550  176.3020  143.1810 C   0  0  0  0  0  2  0  0  0  0  0  0
  194.5760  175.6200  146.5040 N   0  0  0  0  0  2  0  0  0  0  0  0
  193.8960  175.5800  143.2960 C   0  0  0  0  0  2  0  0  0  0  0  0
  191.8660  176.5000  144.5340 C   0  0  2  0  0  3  0  0  0  0  0  0
  196.4560  174.6650  145.5520 O   0  0  0  0  0  0  0  0  0  0  0  0
  193.7710  174.0680  143.5230 C   0  0  2  0  0  3  0  0  0  0  0  0
  192.9220  173.7170  144.7420 C   0  0  1  0  0  3  0  0  0  0  0  0
  194.7580  171.3150  145.8320 C   0  0  0  0  0  3  0  0  0  0  0  0
  195.7860  171.8140  143.6970 C   0  0  0  0  0  3  0  0  0  0  0  0
  195.0150  169.0660  146.8890 C   0  0  0  0  0  1  0  0  0  0  0  0
  195.2820  170.0200  145.7820 C   0  0  0  0  0  0  0  0  0  0  0  0
  195.0190  172.2230  144.7970 C   0  0  0  0  0  0  0  0  0  0  0  0
  196.0590  169.6220  144.6890 C   0  0  0  0  0  3  0  0  0  0  0  0
  196.3080  170.5180  143.6460 C   0  0  0  0  0  3  0  0  0  0  0  0
  190.5360  177.2660  144.4040 C   0  0  1  0  0  3  0  0  0  0  0  0
  190.2250  177.4880  142.9300 C   0  0  0  0  0  1  0  0  0  0  0  0
  189.2520  177.2950  146.4440 O   0  0  0  0  0  1  0  0  0  0  0  0
  189.3120  176.6920  145.1800 C   0  0  1  0  0  0  0  0  0  0  0  0
  186.2500  176.2290  142.8570 C   0  0  0  0  0  3  0  0  0  0  0  0
  187.2860  178.1550  144.6490 N   0  0  0  0  0  2  0  0  0  0  0  0
  186.0310  178.4030  143.9510 C   0  0  1  0  0  0  0  0  0  0  0  0
  185.1710  179.4920  144.4490 C   0  0  0  0  0  2  0  0  0  0  0  0
  186.0360  179.6700  143.3460 O   0  0  0  0  0  0  0  0  0  0  0  0
  188.0180  176.9390  144.4240 C   0  0  0  0  0  0  0  0  0  0  0  0
  187.5260  176.0220  143.5740 C   0  0  0  0  0  3  0  0  0  0  0  0
  184.3500  177.4860  142.3730 F   0  0  0  0  0  0  0  0  0  0  0  0
  185.5320  177.3410  143.0220 C   0  0  0  0  0  0  0  0  0  0  0  0
  189.4270  174.7740  146.8840 C   0  0  0  0  0  1  0  0  0  0  0  0
  189.4740  175.1810  145.4170 C   0  0  0  0  0  2  0  0  0  0  0  0
  192.3010  172.4580  144.5200 O   0  0  0  0  0  0  0  0  0  0  0  0
  189.7820  170.8710  139.7370 O   0  0  0  0  0  1  0  0  0  0  0  0
  192.2370  169.8210  140.4130 F   0  0  0  0  0  0  0  0  0  0  0  0
  189.9310  172.2650  141.6550 C   0  0  0  0  0  0  0  0  0  0  0  0
  190.3950  171.2280  140.9360 C   0  0  0  0  0  0  0  0  0  0  0  0
  191.5350  170.3900  141.4590 C   0  0  2  0  0  3  0  0  0  0  0  0
  192.4940  171.2110  142.3270 C   0  0  0  0  0  2  0  0  0  0  0  0
  190.5740  172.6310  142.9320 C   0  0  0  0  0  3  0  0  0  0  0  0
  191.7510  172.1100  143.2850 C   0  0  0  0  0  0  0  0  0  0  0  0
  188.7210  173.0210  141.2170 C   0  0  0  0  0  2  0  0  0  0  0  0
  189.1210  174.2340  140.5190 N   0  0  0  0  0  2  0  0  0  0  0  0
  189.5300  173.8790  138.1050 C   0  0  0  0  0  0  0  0  0  0  0  0
  190.7620  173.7020  138.3040 O   0  0  0  0  0  0  0  0  0  0  0  0
  189.0140  173.8230  136.7800 N   0  0  0  0  0  1  0  0  0  0  0  0
  188.6480  174.1310  139.2010 N   0  0  0  0  0  2  0  0  0  0  0  0
  2 16  1  1  0  0  0
  2  3  1  0  0  0  0
  3  6  1  0  0  0  0
  4  1  1  0  0  0  0
  5  7  1  0  0  0  0
  5  8  1  0  0  0  0
  6  1  1  0  0  0  0
  8 19  1  6  0  0  0
  8  4  1  0  0  0  0
  9  3  2  0  0  0  0
 10  7  1  1  0  0  0
 10 11  1  0  0  0  0
 10  2  1  0  0  0  0
 11 34  1  6  0  0  0
 11  2  1  0  0  0  0
 13 16  1  0  0  0  0
 15 12  1  0  0  0  0
 15 14  1  0  0  0  0
 16 12  2  0  0  0  0
 17 15  2  0  0  0  0
 18 13  2  0  0  0  0
 18 17  1  0  0  0  0
 19 20  1  6  0  0  0
 19 22  1  0  0  0  0
 22 33  1  0  0  0  0
 22 21  1  1  0  0  0
 23 31  2  0  0  0  0
 23 29  1  0  0  0  0
 25 26  1  1  0  0  0
 25 24  1  0  0  0  0
 27 25  1  0  0  0  0
 27 26  1  0  0  0  0
 28 24  1  0  0  0  0
 28 22  1  0  0  0  0
 29 28  2  0  0  0  0
 30 31  1  0  0  0  0
 31 25  1  0  0  0  0
 33 32  1  0  0  0  0
 35 38  1  0  0  0  0
 37 41  1  0  0  0  0
 38 39  1  0  0  0  0
 38 37  2  0  0  0  0
 39 36  1  6  0  0  0
 39 40  1  0  0  0  0
 40 42  1  0  0  0  0
 41 42  2  0  0  0  0
 42 34  1  0  0  0  0
 43 37  1  0  0  0  0
 44 43  1  0  0  0  0
 45 46  2  0  0  0  0
 45 48  1  0  0  0  0
 47 45  1  0  0  0  0
 48 44  1  0  0  0  0
M  END
>  <MODEL>
4

>  <REMARK>
 VINA RESULT:      -7.8      2.991      5.369
  Name = 
  10 active torsions:
  status: ('A' for Active; 'I' for Inactive)
    1  A    between atoms: C_5  and  C_38
    2  A    between atoms: C_12  and  C_28
    3  A    between atoms: C_13  and  C_41
    4  A    between atoms: C_25  and  C_35
    5  A    between atoms: C_25  and  C_41
    6  A    between atoms: C_26  and  C_41
    7  A    between atoms: N_30  and  C_38
    8  A    between atoms: N_30  and  N_39
    9  A    between atoms: O_42  and  C_46
   10  A    between atoms: O_42  and  C_47
                            x       y       z     vdW  Elec       q    Type
                         _______ _______ _______ _____ _____    ______ ____

>  <TORSDO>
F 10

$$$$
=
 OpenBabel11062421503D

 48 53  0  0  1  0  0  0  0  0999 V2000
  193.0050  175.8000  146.8350 C   0  0  0  0  0  2  0  0  0  0  0  0
  194.0780  174.0400  144.4090 C   0  0  2  0  0  0  0  0  0  0  0  0
  194.9230  174.8890  145.3490 C   0  0  0  0  0  0  0  0  0  0  0  0
  192.5060  177.1000  146.2180 C   0  0  0  0  0  2  0  0  0  0  0  0
  191.9610  176.9640  143.7200 C   0  0  0  0  0  2  0  0  0  0  0  0
  194.4060  175.5850  146.4960 N   0  0  0  0  0  2  0  0  0  0  0  0
  193.3140  176.2960  143.4870 C   0  0  0  0  0  2  0  0  0  0  0  0
  191.4510  176.7960  145.1540 C   0  0  2  0  0  3  0  0  0  0  0  0
  196.1580  174.9750  145.1140 O   0  0  0  0  0  0  0  0  0  0  0  0
  193.2400  174.7710  143.3470 C   0  0  2  0  0  3  0  0  0  0  0  0
  192.5610  174.0960  144.5370 C   0  0  1  0  0  3  0  0  0  0  0  0
  194.7830  171.6560  144.8570 C   0  0  0  0  0  3  0  0  0  0  0  0
  195.0580  172.5580  142.6270 C   0  0  0  0  0  3  0  0  0  0  0  0
  195.4450  169.3060  145.3850 C   0  0  0  0  0  1  0  0  0  0  0  0
  195.3100  170.4350  144.4280 C   0  0  0  0  0  0  0  0  0  0  0  0
  194.6670  172.7290  143.9620 C   0  0  0  0  0  0  0  0  0  0  0  0
  195.7120  170.2750  143.0980 C   0  0  0  0  0  3  0  0  0  0  0  0
  195.5820  171.3360  142.1970 C   0  0  0  0  0  3  0  0  0  0  0  0
  190.1060  177.5100  145.3810 C   0  0  1  0  0  3  0  0  0  0  0  0
  189.5340  177.9470  144.0390 C   0  0  0  0  0  1  0  0  0  0  0  0
  189.4840  176.7520  147.5840 O   0  0  0  0  0  1  0  0  0  0  0  0
  189.0490  176.7650  146.2510 C   0  0  1  0  0  0  0  0  0  0  0  0
  185.6630  178.3910  147.1880 C   0  0  0  0  0  3  0  0  0  0  0  0
  187.1720  177.8110  144.8690 N   0  0  0  0  0  0  0  0  0  0  0  0
  185.8790  178.4720  144.7550 C   0  0  1  0  0  0  0  0  0  0  0  0
  185.5480  179.1200  143.4730 C   0  0  0  0  0  2  0  0  0  0  0  0
  185.0710  177.8320  143.8020 O   0  0  0  0  0  0  0  0  0  0  0  0
  187.6880  177.4330  146.1560 C   0  0  0  0  0  0  0  0  0  0  0  0
  186.9720  177.7100  147.2590 C   0  0  0  0  0  2  0  0  0  0  0  0
  183.9440  179.4110  145.9920 F   0  0  0  0  0  0  0  0  0  0  0  0
  185.1330  178.7590  146.0200 C   0  0  0  0  0  0  0  0  0  0  0  0
  189.3260  174.2910  146.8830 C   0  0  0  0  0  1  0  0  0  0  0  0
  188.9180  175.2960  145.8140 C   0  0  0  0  0  2  0  0  0  0  0  0
  191.9330  172.9020  144.0880 O   0  0  0  0  0  0  0  0  0  0  0  0
  188.1720  172.6660  139.9000 O   0  0  0  0  0  1  0  0  0  0  0  0
  190.4550  171.1300  139.7870 F   0  0  0  0  0  0  0  0  0  0  0  0
  189.0080  173.6330  141.9020 C   0  0  0  0  0  0  0  0  0  0  0  0
  189.0890  172.6890  140.9480 C   0  0  0  0  0  0  0  0  0  0  0  0
  190.1250  171.5960  141.0460 C   0  0  2  0  0  3  0  0  0  0  0  0
  191.3930  172.0760  141.7590 C   0  0  0  0  0  2  0  0  0  0  0  0
  189.9730  173.6440  143.0200 C   0  0  0  0  0  3  0  0  0  0  0  0
  191.0700  172.8850  142.9900 C   0  0  0  0  0  0  0  0  0  0  0  0
  187.9080  174.6410  141.8920 C   0  0  0  0  0  2  0  0  0  0  0  0
  188.4060  175.9120  141.3860 N   0  0  0  0  0  2  0  0  0  0  0  0
  186.6350  177.1030  140.1350 C   0  0  0  0  0  0  0  0  0  0  0  0
  186.9700  176.5420  139.0570 O   0  0  0  0  0  0  0  0  0  0  0  0
  185.5650  178.0410  140.1400 N   0  0  0  0  0  1  0  0  0  0  0  0
  187.3190  176.8000  141.3530 N   0  0  0  0  0  2  0  0  0  0  0  0
  2 16  1  6  0  0  0
  2 11  1  0  0  0  0
  2  3  1  0  0  0  0
  3  6  1  0  0  0  0
  4  1  1  0  0  0  0
  5  8  1  0  0  0  0
  6  1  1  0  0  0  0
  7  5  1  0  0  0  0
  8 19  1  1  0  0  0
  8  4  1  0  0  0  0
  9  3  2  0  0  0  0
 10  7  1  1  0  0  0
 10  2  1  0  0  0  0
 10 11  1  0  0  0  0
 11 34  1  6  0  0  0
 13 16  1  0  0  0  0
 15 12  1  0  0  0  0
 15 14  1  0  0  0  0
 16 12  2  0  0  0  0
 17 15  2  0  0  0  0
 18 13  2  0  0  0  0
 18 17  1  0  0  0  0
 19 20  1  6  0  0  0
 19 22  1  0  0  0  0
 22 21  1  1  0  0  0
 23 29  1  0  0  0  0
 24 28  2  0  0  0  0
 25 26  1  6  0  0  0
 25 24  1  0  0  0  0
 25 31  1  0  0  0  0
 26 27  1  0  0  0  0
 27 25  1  0  0  0  0
 28 22  1  0  0  0  0
 28 29  1  0  0  0  0
 30 31  1  0  0  0  0
 31 23  2  0  0  0  0
 33 22  1  0  0  0  0
 33 32  1  0  0  0  0
 35 38  1  0  0  0  0
 37 41  1  0  0  0  0
 38 39  1  0  0  0  0
 38 37  2  0  0  0  0
 39 36  1  6  0  0  0
 39 40  1  0  0  0  0
 40 42  1  0  0  0  0
 42 41  2  0  0  0  0
 42 34  1  0  0  0  0
 43 37  1  0  0  0  0
 44 43  1  0  0  0  0
 45 47  1  0  0  0  0
 45 48  1  0  0  0  0
 46 45  2  0  0  0  0
 48 44  1  0  0  0  0
M  END
>  <MODEL>
5

>  <REMARK>
 VINA RESULT:      -7.6      2.884      5.736
  Name = 
  10 active torsions:
  status: ('A' for Active; 'I' for Inactive)
    1  A    between atoms: C_5  and  C_38
    2  A    between atoms: C_12  and  C_28
    3  A    between atoms: C_13  and  C_41
    4  A    between atoms: C_25  and  C_35
    5  A    between atoms: C_25  and  C_41
    6  A    between atoms: C_26  and  C_41
    7  A    between atoms: N_30  and  C_38
    8  A    between atoms: N_30  and  N_39
    9  A    between atoms: O_42  and  C_46
   10  A    between atoms: O_42  and  C_47
                            x       y       z     vdW  Elec       q    Type
                         _______ _______ _______ _____ _____    ______ ____

>  <TORSDO>
F 10

$$$$
=
 OpenBabel11062421503D

 48 53  0  0  1  0  0  0  0  0999 V2000
  192.9430  175.8290  146.5270 C   0  0  0  0  0  2  0  0  0  0  0  0
  194.3180  173.4290  144.9500 C   0  0  2  0  0  0  0  0  0  0  0  0
  195.0350  174.5260  145.7250 C   0  0  0  0  0  0  0  0  0  0  0  0
  192.6100  176.8800  145.4770 C   0  0  0  0  0  2  0  0  0  0  0  0
  192.4740  175.9980  143.0770 C   0  0  0  0  0  2  0  0  0  0  0  0
  194.3690  175.5310  146.5090 N   0  0  0  0  0  2  0  0  0  0  0  0
  193.8160  175.3000  143.2850 C   0  0  0  0  0  2  0  0  0  0  0  0
  191.7300  176.2640  144.3890 C   0  0  2  0  0  3  0  0  0  0  0  0
  196.2940  174.5470  145.6870 O   0  0  0  0  0  0  0  0  0  0  0  0
  193.6980  173.8020  143.5940 C   0  0  2  0  0  3  0  0  0  0  0  0
  192.8050  173.5110  144.7970 C   0  0  1  0  0  3  0  0  0  0  0  0
  194.5700  171.1740  146.0580 C   0  0  0  0  0  3  0  0  0  0  0  0
  195.7800  171.6110  144.0060 C   0  0  0  0  0  3  0  0  0  0  0  0
  194.7550  168.9670  147.2150 C   0  0  0  0  0  1  0  0  0  0  0  0
  195.1100  169.8860  146.1020 C   0  0  0  0  0  0  0  0  0  0  0  0
  194.9140  172.0490  145.0180 C   0  0  0  0  0  0  0  0  0  0  0  0
  195.9850  169.4590  145.0980 C   0  0  0  0  0  3  0  0  0  0  0  0
  196.3170  170.3220  144.0490 C   0  0  0  0  0  3  0  0  0  0  0  0
  190.3980  177.0050  144.1640 C   0  0  1  0  0  3  0  0  0  0  0  0
  190.5280  177.9170  142.9510 C   0  0  0  0  0  1  0  0  0  0  0  0
  189.3860  174.8690  144.6410 O   0  0  0  0  0  1  0  0  0  0  0  0
  189.1070  176.1340  144.1040 C   0  0  1  0  0  0  0  0  0  0  0  0
  186.6170  177.0780  146.9140 C   0  0  0  0  0  3  0  0  0  0  0  0
  187.1930  177.8200  144.2480 N   0  0  0  0  0  0  0  0  0  0  0  0
  186.1110  178.4730  144.9720 C   0  0  1  0  0  0  0  0  0  0  0  0
  185.5690  179.7270  144.4170 C   0  0  0  0  0  2  0  0  0  0  0  0
  184.9320  178.4830  144.2100 O   0  0  0  0  0  0  0  0  0  0  0  0
  187.9690  176.7840  144.8720 C   0  0  0  0  0  0  0  0  0  0  0  0
  187.6980  176.4320  146.1400 C   0  0  0  0  0  2  0  0  0  0  0  0
  184.8990  178.6350  147.1320 F   0  0  0  0  0  0  0  0  0  0  0  0
  185.8620  178.0410  146.3830 C   0  0  0  0  0  0  0  0  0  0  0  0
  187.5150  174.9230  142.4930 C   0  0  0  0  0  1  0  0  0  0  0  0
  188.6660  175.9090  142.6480 C   0  0  0  0  0  2  0  0  0  0  0  0
  192.2060  172.2330  144.6230 O   0  0  0  0  0  0  0  0  0  0  0  0
  190.3670  170.1760  139.7110 O   0  0  0  0  0  1  0  0  0  0  0  0
  192.4960  168.9860  140.9910 F   0  0  0  0  0  0  0  0  0  0  0  0
  190.3700  171.8390  141.4080 C   0  0  0  0  0  0  0  0  0  0  0  0
  190.8050  170.6540  140.9440 C   0  0  0  0  0  0  0  0  0  0  0  0
  191.7080  169.7920  141.7910 C   0  0  2  0  0  3  0  0  0  0  0  0
  192.6050  170.6330  142.7050 C   0  0  0  0  0  2  0  0  0  0  0  0
  190.8250  172.3350  142.7210 C   0  0  0  0  0  3  0  0  0  0  0  0
  191.8380  171.7520  143.3650 C   0  0  0  0  0  0  0  0  0  0  0  0
  189.3730  172.6420  140.6420 C   0  0  0  0  0  2  0  0  0  0  0  0
  190.0340  173.7660  139.9940 N   0  0  0  0  0  2  0  0  0  0  0  0
  189.2050  173.8000  137.6640 C   0  0  0  0  0  0  0  0  0  0  0  0
  188.1920  174.4710  137.9960 O   0  0  0  0  0  0  0  0  0  0  0  0
  189.3790  173.4080  136.3060 N   0  0  0  0  0  1  0  0  0  0  0  0
  190.1850  173.4350  138.6380 N   0  0  0  0  0  2  0  0  0  0  0  0
  2 16  1  1  0  0  0
  2  3  1  0  0  0  0
  3  6  1  0  0  0  0
  4  1  1  0  0  0  0
  5  7  1  0  0  0  0
  5  8  1  0  0  0  0
  6  1  1  0  0  0  0
  8 19  1  6  0  0  0
  8  4  1  0  0  0  0
  9  3  2  0  0  0  0
 10  7  1  1  0  0  0
 10 11  1  0  0  0  0
 10  2  1  0  0  0  0
 11 34  1  6  0  0  0
 11  2  1  0  0  0  0
 12 15  1  0  0  0  0
 13 18  2  0  0  0  0
 13 16  1  0  0  0  0
 15 14  1  0  0  0  0
 16 12  2  0  0  0  0
 17 15  2  0  0  0  0
 18 17  1  0  0  0  0
 19 20  1  6  0  0  0
 22 19  1  0  0  0  0
 22 21  1  1  0  0  0
 22 28  1  0  0  0  0
 24 28  2  0  0  0  0
 24 25  1  0  0  0  0
 25 26  1  1  0  0  0
 25 31  1  0  0  0  0
 27 26  1  0  0  0  0
 27 25  1  0  0  0  0
 28 29  1  0  0  0  0
 29 23  1  0  0  0  0
 31 23  2  0  0  0  0
 31 30  1  0  0  0  0
 32 33  1  0  0  0  0
 33 22  1  0  0  0  0
 35 38  1  0  0  0  0
 37 41  1  0  0  0  0
 38 37  2  0  0  0  0
 38 39  1  0  0  0  0
 39 36  1  6  0  0  0
 39 40  1  0  0  0  0
 40 42  1  0  0  0  0
 41 42  2  0  0  0  0
 42 34  1  0  0  0  0
 43 37  1  0  0  0  0
 44 43  1  0  0  0  0
 45 46  2  0  0  0  0
 45 48  1  0  0  0  0
 47 45  1  0  0  0  0
 48 44  1  0  0  0  0
M  END
>  <MODEL>
6

>  <REMARK>
 VINA RESULT:      -7.6      2.663      5.254
  Name = 
  10 active torsions:
  status: ('A' for Active; 'I' for Inactive)
    1  A    between atoms: C_5  and  C_38
    2  A    between atoms: C_12  and  C_28
    3  A    between atoms: C_13  and  C_41
    4  A    between atoms: C_25  and  C_35
    5  A    between atoms: C_25  and  C_41
    6  A    between atoms: C_26  and  C_41
    7  A    between atoms: N_30  and  C_38
    8  A    between atoms: N_30  and  N_39
    9  A    between atoms: O_42  and  C_46
   10  A    between atoms: O_42  and  C_47
                            x       y       z     vdW  Elec       q    Type
                         _______ _______ _______ _____ _____    ______ ____

>  <TORSDO>
F 10

$$$$
=
 OpenBabel11062421503D

 48 53  0  0  1  0  0  0  0  0999 V2000
  188.9780  173.1600  142.2040 C   0  0  0  0  0  2  0  0  0  0  0  0
  191.8540  172.3490  141.1070 C   0  0  2  0  0  0  0  0  0  0  0  0
  190.6540  171.4240  141.2580 C   0  0  0  0  0  0  0  0  0  0  0  0
  189.0930  173.1500  143.7220 C   0  0  0  0  0  2  0  0  0  0  0  0
  191.4820  173.3600  144.6210 C   0  0  0  0  0  2  0  0  0  0  0  0
  189.3430  171.8590  141.6610 N   0  0  0  0  0  2  0  0  0  0  0  0
  191.9130  172.2550  143.6590 C   0  0  0  0  0  2  0  0  0  0  0  0
  190.2170  174.0900  144.1620 C   0  0  2  0  0  3  0  0  0  0  0  0
  190.8160  170.2020  141.0010 O   0  0  0  0  0  0  0  0  0  0  0  0
  192.5970  172.7690  142.3850 C   0  0  2  0  0  3  0  0  0  0  0  0
  191.7450  173.7790  141.6190 C   0  0  1  0  0  3  0  0  0  0  0  0
  194.0260  171.6090  140.0490 C   0  0  0  0  0  3  0  0  0  0  0  0
  192.2370  172.3980  138.6200 C   0  0  0  0  0  3  0  0  0  0  0  0
  196.2020  170.8510  139.0860 C   0  0  0  0  0  1  0  0  0  0  0  0
  194.8260  171.3880  138.9260 C   0  0  0  0  0  0  0  0  0  0  0  0
  192.7320  172.1300  139.9040 C   0  0  0  0  0  0  0  0  0  0  0  0
  194.3320  171.6710  137.6480 C   0  0  0  0  0  3  0  0  0  0  0  0
  193.0360  172.1730  137.4960 C   0  0  0  0  0  3  0  0  0  0  0  0
  189.7740  175.1730  145.1640 C   0  0  1  0  0  3  0  0  0  0  0  0
  190.8030  175.2760  146.2820 C   0  0  0  0  0  1  0  0  0  0  0  0
  189.4820  176.5100  143.1800 O   0  0  0  0  0  1  0  0  0  0  0  0
  189.4060  176.5690  144.5780 C   0  0  1  0  0  0  0  0  0  0  0  0
  186.0570  176.8380  146.5010 C   0  0  0  0  0  3  0  0  0  0  0  0
  187.3510  178.0630  144.3070 N   0  0  0  0  0  0  0  0  0  0  0  0
  186.0230  178.5020  144.7120 C   0  0  1  0  0  0  0  0  0  0  0  0
  185.5330  179.7900  144.1860 C   0  0  0  0  0  2  0  0  0  0  0  0
  185.1550  178.5570  143.6100 O   0  0  0  0  0  0  0  0  0  0  0  0
  188.0110  176.9950  145.0050 C   0  0  0  0  0  0  0  0  0  0  0  0
  187.3980  176.4130  146.0490 C   0  0  0  0  0  2  0  0  0  0  0  0
  184.1790  178.2060  146.3450 F   0  0  0  0  0  0  0  0  0  0  0  0
  185.3950  177.8190  145.8860 C   0  0  0  0  0  0  0  0  0  0  0  0
  191.1950  178.2790  143.8910 C   0  0  0  0  0  1  0  0  0  0  0  0
  190.4170  177.6360  145.0320 C   0  0  0  0  0  2  0  0  0  0  0  0
  192.6080  174.6720  140.9270 O   0  0  0  0  0  0  0  0  0  0  0  0
  197.1420  177.0770  143.2510 O   0  0  0  0  0  1  0  0  0  0  0  0
  197.3150  175.9500  140.7440 F   0  0  0  0  0  0  0  0  0  0  0  0
  194.9050  176.2850  143.3730 C   0  0  0  0  0  0  0  0  0  0  0  0
  196.0170  176.5140  142.6520 C   0  0  0  0  0  0  0  0  0  0  0  0
  196.0320  176.2370  141.1690 C   0  0  2  0  0  3  0  0  0  0  0  0
  195.1020  175.0780  140.7970 C   0  0  0  0  0  2  0  0  0  0  0  0
  193.7100  175.7020  142.7310 C   0  0  0  0  0  3  0  0  0  0  0  0
  193.7740  175.1770  141.5060 C   0  0  0  0  0  0  0  0  0  0  0  0
  194.8300  176.6760  144.8110 C   0  0  0  0  0  2  0  0  0  0  0  0
  194.4000  175.5400  145.6120 N   0  0  0  0  0  2  0  0  0  0  0  0
  196.0270  173.6780  145.5700 C   0  0  0  0  0  0  0  0  0  0  0  0
  195.4310  173.1310  144.6040 O   0  0  0  0  0  0  0  0  0  0  0  0
  197.1820  173.0600  146.1280 N   0  0  0  0  0  1  0  0  0  0  0  0
  195.5570  174.9160  146.1050 N   0  0  0  0  0  2  0  0  0  0  0  0
  1  4  1  0  0  0  0
  2 16  1  6  0  0  0
  2  3  1  0  0  0  0
  2 11  1  0  0  0  0
  2 10  1  0  0  0  0
  3  6  1  0  0  0  0
  4  8  1  0  0  0  0
  6  1  1  0  0  0  0
  7  5  1  0  0  0  0
  8  5  1  0  0  0  0
  8 19  1  1  0  0  0
  9  3  2  0  0  0  0
 10  7  1  1  0  0  0
 11 34  1  6  0  0  0
 11 10  1  0  0  0  0
 13 16  2  0  0  0  0
 15 14  1  0  0  0  0
 15 12  2  0  0  0  0
 16 12  1  0  0  0  0
 17 15  1  0  0  0  0
 18 17  2  0  0  0  0
 18 13  1  0  0  0  0
 19 20  1  1  0  0  0
 22 21  1  6  0  0  0
 22 28  1  0  0  0  0
 22 33  1  0  0  0  0
 22 19  1  0  0  0  0
 24 25  1  0  0  0  0
 24 28  2  0  0  0  0
 25 26  1  1  0  0  0
 25 31  1  0  0  0  0
 27 26  1  0  0  0  0
 27 25  1  0  0  0  0
 28 29  1  0  0  0  0
 29 23  1  0  0  0  0
 31 30  1  0  0  0  0
 31 23  2  0  0  0  0
 32 33  1  0  0  0  0
 34 42  1  0  0  0  0
 37 43  1  0  0  0  0
 38 35  1  0  0  0  0
 38 37  2  0  0  0  0
 39 36  1  1  0  0  0
 39 38  1  0  0  0  0
 40 39  1  0  0  0  0
 40 42  1  0  0  0  0
 41 37  1  0  0  0  0
 42 41  2  0  0  0  0
 43 44  1  0  0  0  0
 44 48  1  0  0  0  0
 45 48  1  0  0  0  0
 45 47  1  0  0  0  0
 46 45  2  0  0  0  0
M  END
>  <MODEL>
7

>  <REMARK>
 VINA RESULT:      -7.6      2.695      4.129
  Name = 
  10 active torsions:
  status: ('A' for Active; 'I' for Inactive)
    1  A    between atoms: C_5  and  C_38
    2  A    between atoms: C_12  and  C_28
    3  A    between atoms: C_13  and  C_41
    4  A    between atoms: C_25  and  C_35
    5  A    between atoms: C_25  and  C_41
    6  A    between atoms: C_26  and  C_41
    7  A    between atoms: N_30  and  C_38
    8  A    between atoms: N_30  and  N_39
    9  A    between atoms: O_42  and  C_46
   10  A    between atoms: O_42  and  C_47
                            x       y       z     vdW  Elec       q    Type
                         _______ _______ _______ _____ _____    ______ ____

>  <TORSDO>
F 10

$$$$
=
 OpenBabel11062421503D

 48 53  0  0  1  0  0  0  0  0999 V2000
  191.9940  175.7360  146.6750 C   0  0  0  0  0  2  0  0  0  0  0  0
  188.8670  175.9710  146.1270 C   0  0  2  0  0  0  0  0  0  0  0  0
  189.5270  175.2070  147.2670 C   0  0  0  0  0  0  0  0  0  0  0  0
  192.5000  174.6450  145.7410 C   0  0  0  0  0  2  0  0  0  0  0  0
  190.9890  174.1660  143.7290 C   0  0  0  0  0  2  0  0  0  0  0  0
  190.9400  175.2150  147.5350 N   0  0  0  0  0  2  0  0  0  0  0  0
  189.7960  174.0830  144.6780 C   0  0  0  0  0  2  0  0  0  0  0  0
  192.1450  174.9960  144.2950 C   0  0  2  0  0  3  0  0  0  0  0  0
  188.7850  174.5360  148.0330 O   0  0  0  0  0  0  0  0  0  0  0  0
  188.9420  175.3570  144.7190 C   0  0  2  0  0  3  0  0  0  0  0  0
  189.7520  176.6050  145.0620 C   0  0  1  0  0  3  0  0  0  0  0  0
  187.5820  177.8670  147.1910 C   0  0  0  0  0  3  0  0  0  0  0  0
  186.3670  176.1880  145.9390 C   0  0  0  0  0  3  0  0  0  0  0  0
  186.3910  179.7800  148.2680 C   0  0  0  0  0  1  0  0  0  0  0  0
  186.3840  178.5330  147.4600 C   0  0  0  0  0  0  0  0  0  0  0  0
  187.5790  176.6820  146.4420 C   0  0  0  0  0  0  0  0  0  0  0  0
  185.1760  178.0280  146.9680 C   0  0  0  0  0  3  0  0  0  0  0  0
  185.1690  176.8560  146.2050 C   0  0  0  0  0  3  0  0  0  0  0  0
  193.3550  175.0350  143.3430 C   0  0  1  0  0  3  0  0  0  0  0  0
  193.0490  175.9680  142.1790 C   0  0  0  0  0  1  0  0  0  0  0  0
  194.5900  176.3050  144.9780 O   0  0  0  0  0  1  0  0  0  0  0  0
  194.7460  175.3330  143.9800 C   0  0  1  0  0  0  0  0  0  0  0  0
  196.8210  172.9300  146.1960 C   0  0  0  0  0  3  0  0  0  0  0  0
  194.9660  172.7880  144.0670 N   0  0  0  0  0  0  0  0  0  0  0  0
  195.5260  171.5680  144.6330 C   0  0  1  0  0  0  0  0  0  0  0  0
  194.8610  170.2920  144.3120 C   0  0  0  0  0  2  0  0  0  0  0  0
  196.0160  170.7260  143.6230 O   0  0  0  0  0  0  0  0  0  0  0  0
  195.3600  174.0750  144.5720 C   0  0  0  0  0  0  0  0  0  0  0  0
  196.2400  174.1440  145.5840 C   0  0  0  0  0  2  0  0  0  0  0  0
  197.0240  170.6170  146.3670 F   0  0  0  0  0  0  0  0  0  0  0  0
  196.4960  171.7110  145.7640 C   0  0  0  0  0  0  0  0  0  0  0  0
  196.6730  176.9590  143.4960 C   0  0  0  0  0  1  0  0  0  0  0  0
  195.7110  175.9190  142.9370 C   0  0  0  0  0  2  0  0  0  0  0  0
  189.1400  177.7300  144.4450 O   0  0  0  0  0  0  0  0  0  0  0  0
  185.8530  177.3660  139.8840 O   0  0  0  0  0  1  0  0  0  0  0  0
  185.1550  179.0450  141.9530 F   0  0  0  0  0  0  0  0  0  0  0  0
  187.6850  176.6240  141.2010 C   0  0  0  0  0  0  0  0  0  0  0  0
  186.6780  177.4920  140.9990 C   0  0  0  0  0  0  0  0  0  0  0  0
  186.4820  178.6590  141.9350 C   0  0  2  0  0  3  0  0  0  0  0  0
  186.9340  178.3280  143.3610 C   0  0  0  0  0  2  0  0  0  0  0  0
  188.5670  176.7690  142.3760 C   0  0  0  0  0  3  0  0  0  0  0  0
  188.2550  177.5980  143.3730 C   0  0  0  0  0  0  0  0  0  0  0  0
  187.9750  175.5440  140.2140 C   0  0  0  0  0  2  0  0  0  0  0  0
  188.2710  174.3010  140.9110 N   0  0  0  0  0  2  0  0  0  0  0  0
  189.6540  172.2960  140.4780 C   0  0  0  0  0  0  0  0  0  0  0  0
  189.5080  171.8950  141.6630 O   0  0  0  0  0  0  0  0  0  0  0  0
  190.4450  171.5390  139.5690 N   0  0  0  0  0  1  0  0  0  0  0  0
  189.0260  173.5030  140.0380 N   0  0  0  0  0  2  0  0  0  0  0  0
  1  6  1  0  0  0  0
  2 16  1  1  0  0  0
  2  3  1  0  0  0  0
  3  6  1  0  0  0  0
  3  9  2  0  0  0  0
  4  1  1  0  0  0  0
  5  8  1  0  0  0  0
  5  7  1  0  0  0  0
  8 19  1  6  0  0  0
  8  4  1  0  0  0  0
 10  7  1  1  0  0  0
 10 11  1  0  0  0  0
 10  2  1  0  0  0  0
 11 34  1  6  0  0  0
 11  2  1  0  0  0  0
 12 15  1  0  0  0  0
 13 18  2  0  0  0  0
 13 16  1  0  0  0  0
 15 14  1  0  0  0  0
 16 12  2  0  0  0  0
 17 15  2  0  0  0  0
 18 17  1  0  0  0  0
 19 20  1  6  0  0  0
 19 22  1  0  0  0  0
 22 28  1  0  0  0  0
 22 21  1  1  0  0  0
 24 28  2  0  0  0  0
 24 25  1  0  0  0  0
 25 26  1  1  0  0  0
 25 31  1  0  0  0  0
 27 26  1  0  0  0  0
 27 25  1  0  0  0  0
 28 29  1  0  0  0  0
 29 23  1  0  0  0  0
 31 23  2  0  0  0  0
 31 30  1  0  0  0  0
 33 32  1  0  0  0  0
 33 22  1  0  0  0  0
 35 38  1  0  0  0  0
 37 41  1  0  0  0  0
 38 37  2  0  0  0  0
 38 39  1  0  0  0  0
 39 36  1  1  0  0  0
 39 40  1  0  0  0  0
 40 42  1  0  0  0  0
 41 42  2  0  0  0  0
 42 34  1  0  0  0  0
 43 44  1  0  0  0  0
 43 37  1  0  0  0  0
 45 46  2  0  0  0  0
 47 45  1  0  0  0  0
 48 45  1  0  0  0  0
 48 44  1  0  0  0  0
M  END
>  <MODEL>
8

>  <REMARK>
 VINA RESULT:      -7.4      2.891      8.457
  Name = 
  10 active torsions:
  status: ('A' for Active; 'I' for Inactive)
    1  A    between atoms: C_5  and  C_38
    2  A    between atoms: C_12  and  C_28
    3  A    between atoms: C_13  and  C_41
    4  A    between atoms: C_25  and  C_35
    5  A    between atoms: C_25  and  C_41
    6  A    between atoms: C_26  and  C_41
    7  A    between atoms: N_30  and  C_38
    8  A    between atoms: N_30  and  N_39
    9  A    between atoms: O_42  and  C_46
   10  A    between atoms: O_42  and  C_47
                            x       y       z     vdW  Elec       q    Type
                         _______ _______ _______ _____ _____    ______ ____

>  <TORSDO>
F 10

$$$$
=
 OpenBabel11062421503D

 48 53  0  0  1  0  0  0  0  0999 V2000
  188.3540  174.6800  140.5820 C   0  0  0  0  0  2  0  0  0  0  0  0
  190.7690  172.6980  139.9730 C   0  0  2  0  0  0  0  0  0  0  0  0
  189.3160  172.4990  139.5650 C   0  0  0  0  0  0  0  0  0  0  0  0
  187.9240  174.3860  142.0120 C   0  0  0  0  0  2  0  0  0  0  0  0
  189.6930  173.2180  143.4480 C   0  0  0  0  0  2  0  0  0  0  0  0
  188.2770  173.4720  139.7710 N   0  0  0  0  0  2  0  0  0  0  0  0
  189.9000  172.2060  142.3240 C   0  0  0  0  0  2  0  0  0  0  0  0
  189.1160  174.5480  142.9550 C   0  0  2  0  0  3  0  0  0  0  0  0
  189.0060  171.4180  138.9980 O   0  0  0  0  0  0  0  0  0  0  0  0
  191.1310  172.4860  141.4520 C   0  0  2  0  0  3  0  0  0  0  0  0
  191.1270  173.8900  140.8510 C   0  0  1  0  0  3  0  0  0  0  0  0
  192.6130  171.1240  139.2620 C   0  0  0  0  0  3  0  0  0  0  0  0
  191.9670  172.9210  137.7710 C   0  0  0  0  0  3  0  0  0  0  0  0
  194.4200  169.5180  138.6330 C   0  0  0  0  0  1  0  0  0  0  0  0
  193.5680  170.6990  138.3350 C   0  0  0  0  0  0  0  0  0  0  0  0
  191.8180  172.2470  138.9920 C   0  0  0  0  0  0  0  0  0  0  0  0
  193.7240  171.3840  137.1250 C   0  0  0  0  0  3  0  0  0  0  0  0
  192.9210  172.4930  136.8430 C   0  0  0  0  0  3  0  0  0  0  0  0
  188.8760  175.5410  144.1070 C   0  0  1  0  0  3  0  0  0  0  0  0
  189.7960  175.1960  145.2700 C   0  0  0  0  0  1  0  0  0  0  0  0
  189.3790  177.2030  142.4350 O   0  0  0  0  0  1  0  0  0  0  0  0
  188.9260  177.0580  143.7540 C   0  0  1  0  0  0  0  0  0  0  0  0
  185.6150  178.9130  142.9880 C   0  0  0  0  0  3  0  0  0  0  0  0
  186.8770  177.6320  145.1690 N   0  0  0  0  0  2  0  0  0  0  0  0
  185.5560  178.2250  145.3330 C   0  0  1  0  0  0  0  0  0  0  0  0
  184.7760  177.8490  146.5250 C   0  0  0  0  0  2  0  0  0  0  0  0
  185.5150  179.0520  146.4660 O   0  0  0  0  0  0  0  0  0  0  0  0
  187.5580  177.7040  143.9060 C   0  0  0  0  0  0  0  0  0  0  0  0
  186.9590  178.3110  142.8680 C   0  0  0  0  0  3  0  0  0  0  0  0
  183.6940  179.4160  144.2060 F   0  0  0  0  0  0  0  0  0  0  0  0
  184.9390  178.8810  144.1380 C   0  0  0  0  0  0  0  0  0  0  0  0
  190.9310  178.6570  143.8900 C   0  0  0  0  0  1  0  0  0  0  0  0
  189.9310  177.7970  144.6530 C   0  0  0  0  0  2  0  0  0  0  0  0
  192.4720  174.3140  140.6710 O   0  0  0  0  0  0  0  0  0  0  0  0
  195.6920  175.7460  145.0660 O   0  0  0  0  0  1  0  0  0  0  0  0
  193.0160  176.3970  145.0510 F   0  0  0  0  0  0  0  0  0  0  0  0
  195.4240  174.8980  142.8630 C   0  0  0  0  0  0  0  0  0  0  0  0
  194.8800  175.3630  144.0020 C   0  0  0  0  0  0  0  0  0  0  0  0
  193.3810  175.3980  144.1680 C   0  0  2  0  0  3  0  0  0  0  0  0
  192.6640  175.6160  142.8310 C   0  0  0  0  0  2  0  0  0  0  0  0
  194.5590  174.4790  141.7430 C   0  0  0  0  0  3  0  0  0  0  0  0
  193.2560  174.7650  141.7350 C   0  0  0  0  0  0  0  0  0  0  0  0
  196.9010  174.7320  142.7320 C   0  0  0  0  0  2  0  0  0  0  0  0
  197.2450  173.3180  142.7520 N   0  0  0  0  0  2  0  0  0  0  0  0
  196.6010  172.0220  144.7590 C   0  0  0  0  0  0  0  0  0  0  0  0
  195.6600  171.4600  144.1380 O   0  0  0  0  0  0  0  0  0  0  0  0
  196.8230  171.7180  146.1320 N   0  0  0  0  0  1  0  0  0  0  0  0
  197.4520  172.9590  144.0940 N   0  0  0  0  0  2  0  0  0  0  0  0
  1  4  1  0  0  0  0
  2 16  1  6  0  0  0
  2 11  1  0  0  0  0
  2 10  1  0  0  0  0
  3  6  1  0  0  0  0
  3  2  1  0  0  0  0
  4  8  1  0  0  0  0
  6  1  1  0  0  0  0
  7  5  1  0  0  0  0
  8  5  1  0  0  0  0
  8 19  1  1  0  0  0
  9  3  2  0  0  0  0
 10  7  1  1  0  0  0
 11 34  1  6  0  0  0
 11 10  1  0  0  0  0
 13 16  2  0  0  0  0
 15 14  1  0  0  0  0
 15 12  2  0  0  0  0
 16 12  1  0  0  0  0
 17 15  1  0  0  0  0
 18 17  2  0  0  0  0
 18 13  1  0  0  0  0
 19 20  1  1  0  0  0
 22 21  1  6  0  0  0
 22 28  1  0  0  0  0
 22 19  1  0  0  0  0
 22 33  1  0  0  0  0
 23 31  2  0  0  0  0
 24 25  1  0  0  0  0
 25 27  1  0  0  0  0
 25 26  1  1  0  0  0
 27 26  1  0  0  0  0
 28 24  1  0  0  0  0
 29 23  1  0  0  0  0
 29 28  2  0  0  0  0
 31 30  1  0  0  0  0
 31 25  1  0  0  0  0
 32 33  1  0  0  0  0
 34 42  1  0  0  0  0
 37 38  2  0  0  0  0
 38 39  1  0  0  0  0
 38 35  1  0  0  0  0
 39 36  1  1  0  0  0
 40 39  1  0  0  0  0
 41 37  1  0  0  0  0
 42 41  2  0  0  0  0
 42 40  1  0  0  0  0
 43 44  1  0  0  0  0
 43 37  1  0  0  0  0
 44 48  1  0  0  0  0
 45 47  1  0  0  0  0
 46 45  2  0  0  0  0
 48 45  1  0  0  0  0
M  END
>  <MODEL>
9

>  <REMARK>
 VINA RESULT:      -7.4      2.662      4.251
  Name = 
  10 active torsions:
  status: ('A' for Active; 'I' for Inactive)
    1  A    between atoms: C_5  and  C_38
    2  A    between atoms: C_12  and  C_28
    3  A    between atoms: C_13  and  C_41
    4  A    between atoms: C_25  and  C_35
    5  A    between atoms: C_25  and  C_41
    6  A    between atoms: C_26  and  C_41
    7  A    between atoms: N_30  and  C_38
    8  A    between atoms: N_30  and  N_39
    9  A    between atoms: O_42  and  C_46
   10  A    between atoms: O_42  and  C_47
                            x       y       z     vdW  Elec       q    Type
                         _______ _______ _______ _____ _____    ______ ____

>  <TORSDO>
F 10

$$$$
