=
 OpenBabel11062420443D

 45 49  0  0  1  0  0  0  0  0999 V2000
  193.5000  171.8620  142.2410 C   0  0  2  0  0  3  0  0  0  0  0  0
  191.0860  171.8540  142.9250 C   0  0  0  0  0  0  0  0  0  0  0  0
  191.4460  172.1170  144.3650 C   0  0  0  0  0  2  0  0  0  0  0  0
  192.0220  171.6740  141.9810 C   0  0  0  0  0  3  0  0  0  0  0  0
  193.8440  171.8820  143.7330 C   0  0  0  0  0  2  0  0  0  0  0  0
  192.8380  172.7220  144.5120 C   0  0  0  0  0  2  0  0  0  0  0  0
  193.4290  174.4840  139.5990 C   0  0  0  0  0  2  0  0  0  0  0  0
  194.3430  172.9810  138.0600 C   0  0  0  0  0  1  0  0  0  0  0  0
  194.8320  172.7220  140.3480 C   0  0  2  0  0  3  0  0  0  0  0  0
  192.3270  174.7690  141.6810 O   0  0  0  0  0  0  0  0  0  0  0  0
  194.0440  173.1030  141.5280 C   0  0  1  0  0  0  0  0  0  0  0  0
  193.1620  174.1830  141.0110 C   0  0  0  0  0  0  0  0  0  0  0  0
  195.5200  173.2670  141.5540 N   0  0  0  0  0  0  0  0  0  0  0  0
  194.6300  173.7210  139.2750 N   0  0  0  0  0  0  0  0  0  0  0  0
  195.9100  174.6740  141.4340 C   0  0  0  0  0  2  0  0  0  0  0  0
  197.5010  176.2140  142.3220 F   0  0  0  0  0  0  0  0  0  0  0  0
  196.7700  175.0770  142.6180 C   0  0  1  0  0  3  0  0  0  0  0  0
  195.3850  174.9060  146.1670 C   0  0  0  0  0  3  0  0  0  0  0  0
  196.1960  174.6590  145.0540 C   0  0  0  0  0  0  0  0  0  0  0  0
  197.2470  173.8120  145.1740 F   0  0  0  0  0  0  0  0  0  0  0  0
  194.8340  176.1750  143.7370 C   0  0  0  0  0  3  0  0  0  0  0  0
  195.9200  175.2980  143.8300 C   0  0  0  0  0  0  0  0  0  0  0  0
  194.0260  176.4170  144.8510 C   0  0  0  0  0  3  0  0  0  0  0  0
  194.3020  175.7830  146.0650 C   0  0  0  0  0  3  0  0  0  0  0  0
  189.6460  171.7590  142.5400 C   0  0  0  0  0  2  0  0  0  0  0  0
  188.9660  173.2160  140.6780 C   0  0  0  0  0  0  0  0  0  0  0  0
  189.1770  172.2800  139.8600 O   0  0  0  0  0  0  0  0  0  0  0  0
  188.9440  174.0550  142.8940 C   0  0  0  0  0  3  0  0  0  0  0  0
  189.1840  173.0410  142.0180 N   0  0  0  0  0  0  0  0  0  0  0  0
  188.2670  175.4520  141.0920 N   0  0  0  0  0  0  0  0  0  0  0  0
  188.5020  174.4470  140.2100 C   0  0  0  0  0  3  0  0  0  0  0  0
  188.4680  175.2810  142.4270 C   0  0  0  0  0  0  0  0  0  0  0  0
  188.2260  176.4040  143.4010 C   0  0  2  0  0  3  0  0  0  0  0  0
  186.4680  176.9460  145.1050 C   0  0  0  0  0  1  0  0  0  0  0  0
  186.7480  176.7950  143.6160 C   0  0  2  0  0  0  0  0  0  0  0  0
  185.9120  175.8190  143.0990 F   0  0  0  0  0  0  0  0  0  0  0  0
  185.8440  179.1460  143.8580 C   0  0  0  0  0  1  0  0  0  0  0  0
  186.4750  178.1290  142.9220 C   0  0  0  0  0  2  0  0  0  0  0  0
  189.1150  177.5510  143.1690 N   0  0  0  0  0  2  0  0  0  0  0  0
  190.4270  177.3240  143.7640 C   0  0  1  0  0  3  0  0  0  0  0  0
  191.3590  178.1850  143.1840 O   0  0  0  0  0  1  0  0  0  0  0  0
  190.3640  177.5660  145.1960 N   0  0  0  0  0  2  0  0  0  0  0  0
  190.5680  176.5250  146.1500 C   0  0  0  0  0  0  0  0  0  0  0  0
  190.7370  175.3360  145.7730 O   0  0  0  0  0  0  0  0  0  0  0  0
  190.5450  176.8260  147.5400 N   0  0  0  0  0  1  0  0  0  0  0  0
  1  4  1  1  0  0  0
  1  5  1  0  0  0  0
  2  3  1  0  0  0  0
  3  6  1  0  0  0  0
  4  2  2  0  0  0  0
  5  6  1  0  0  0  0
  7 12  1  0  0  0  0
  8 14  1  0  0  0  0
  9 14  1  6  0  0  0
  9 11  1  0  0  0  0
  9 13  1  0  0  0  0
 11 12  1  6  0  0  0
 11 13  1  0  0  0  0
 11  1  1  0  0  0  0
 12 10  2  0  0  0  0
 14  7  1  0  0  0  0
 15 13  1  0  0  0  0
 15 17  1  0  0  0  0
 17 16  1  6  0  0  0
 17 22  1  0  0  0  0
 19 20  1  0  0  0  0
 19 18  2  0  0  0  0
 21 22  2  0  0  0  0
 21 23  1  0  0  0  0
 22 19  1  0  0  0  0
 23 24  2  0  0  0  0
 24 18  1  0  0  0  0
 25  2  1  0  0  0  0
 26 29  1  0  0  0  0
 27 26  2  0  0  0  0
 29 25  1  0  0  0  0
 29 28  1  0  0  0  0
 30 32  1  0  0  0  0
 31 26  1  0  0  0  0
 31 30  2  0  0  0  0
 32 28  2  0  0  0  0
 32 33  1  0  0  0  0
 33 39  1  6  0  0  0
 33 35  1  0  0  0  0
 35 34  1  1  0  0  0
 36 35  1  0  0  0  0
 38 35  1  0  0  0  0
 38 37  1  0  0  0  0
 39 40  1  0  0  0  0
 40 41  1  6  0  0  0
 40 42  1  0  0  0  0
 42 43  1  0  0  0  0
 43 45  1  0  0  0  0
 44 43  2  0  0  0  0
M  END
>  <MODEL>
1

>  <REMARK>
 VINA RESULT:      -6.6      0.000      0.000
  Name = 
  12 active torsions:
  status: ('A' for Active; 'I' for Inactive)
    1  A    between atoms: C_2  and  N_25
    2  A    between atoms: C_2  and  C_34
    3  A    between atoms: C_2  and  C_36
    4  A    between atoms: C_7  and  C_33
    5  A    between atoms: N_9  and  C_31
    6  A    between atoms: C_10  and  C_31
    7  A    between atoms: N_11  and  C_38
    8  A    between atoms: C_14  and  N_37
    9  A    between atoms: C_14  and  C_41
   10  A    between atoms: C_21  and  C_41
   11  A    between atoms: N_25  and  C_38
   12  A    between atoms: C_34  and  C_42
                            x       y       z     vdW  Elec       q    Type
                         _______ _______ _______ _____ _____    ______ ____

>  <TORSDO>
F 12

$$$$
=
 OpenBabel11062420443D

 45 49  0  0  1  0  0  0  0  0999 V2000
  193.5830  171.9940  142.3490 C   0  0  2  0  0  3  0  0  0  0  0  0
  191.1250  171.7920  142.8120 C   0  0  0  0  0  0  0  0  0  0  0  0
  191.3360  172.0260  144.2860 C   0  0  0  0  0  2  0  0  0  0  0  0
  192.1510  171.7130  141.9500 C   0  0  0  0  0  3  0  0  0  0  0  0
  193.7920  171.9830  143.8660 C   0  0  0  0  0  2  0  0  0  0  0  0
  192.6620  172.7210  144.5760 C   0  0  0  0  0  2  0  0  0  0  0  0
  193.7100  174.5830  139.6760 C   0  0  0  0  0  2  0  0  0  0  0  0
  195.1030  173.2120  138.3930 C   0  0  0  0  0  1  0  0  0  0  0  0
  195.1490  173.0220  140.7390 C   0  0  2  0  0  3  0  0  0  0  0  0
  192.1830  174.7210  141.4860 O   0  0  0  0  0  0  0  0  0  0  0  0
  194.0950  173.2950  141.7260 C   0  0  1  0  0  0  0  0  0  0  0  0
  193.2050  174.2500  141.0130 C   0  0  0  0  0  0  0  0  0  0  0  0
  195.5010  173.6530  142.0430 N   0  0  0  0  0  0  0  0  0  0  0  0
  195.0410  173.9840  139.6210 N   0  0  0  0  0  0  0  0  0  0  0  0
  195.7230  175.0990  141.9660 C   0  0  0  0  0  2  0  0  0  0  0  0
  196.9670  176.8010  143.0820 F   0  0  0  0  0  0  0  0  0  0  0  0
  196.2960  175.6070  143.2770 C   0  0  1  0  0  3  0  0  0  0  0  0
  194.2880  175.4270  146.5130 C   0  0  0  0  0  3  0  0  0  0  0  0
  195.3210  175.2350  145.5890 C   0  0  0  0  0  0  0  0  0  0  0  0
  196.4230  174.5400  145.9610 F   0  0  0  0  0  0  0  0  0  0  0  0
  194.0640  176.4950  143.9390 C   0  0  0  0  0  3  0  0  0  0  0  0
  195.2090  175.7720  144.2920 C   0  0  0  0  0  0  0  0  0  0  0  0
  193.0360  176.6820  144.8650 C   0  0  0  0  0  3  0  0  0  0  0  0
  193.1470  176.1480  146.1510 C   0  0  0  0  0  3  0  0  0  0  0  0
  189.7350  171.6100  142.2950 C   0  0  0  0  0  2  0  0  0  0  0  0
  189.0190  173.0320  140.4200 C   0  0  0  0  0  0  0  0  0  0  0  0
  189.2700  172.1000  139.6080 O   0  0  0  0  0  0  0  0  0  0  0  0
  188.9510  173.8830  142.6300 C   0  0  0  0  0  3  0  0  0  0  0  0
  189.2330  172.8720  141.7620 N   0  0  0  0  0  0  0  0  0  0  0  0
  188.2390  175.2450  140.8160 N   0  0  0  0  0  0  0  0  0  0  0  0
  188.5160  174.2440  139.9410 C   0  0  0  0  0  3  0  0  0  0  0  0
  188.4360  175.0890  142.1530 C   0  0  0  0  0  0  0  0  0  0  0  0
  188.1470  176.2070  143.1190 C   0  0  2  0  0  3  0  0  0  0  0  0
  189.6160  177.9120  144.2270 C   0  0  0  0  0  1  0  0  0  0  0  0
  189.2160  176.4420  144.2080 C   0  0  2  0  0  0  0  0  0  0  0  0
  190.3400  175.6750  143.9530 F   0  0  0  0  0  0  0  0  0  0  0  0
  189.3210  174.8540  146.1750 C   0  0  0  0  0  1  0  0  0  0  0  0
  188.6340  176.0680  145.5710 C   0  0  0  0  0  2  0  0  0  0  0  0
  186.7720  176.1620  143.6360 N   0  0  0  0  0  2  0  0  0  0  0  0
  186.0350  177.3650  143.2670 C   0  0  1  0  0  3  0  0  0  0  0  0
  185.5030  177.2120  141.9870 O   0  0  0  0  0  1  0  0  0  0  0  0
  184.9600  177.5910  144.2190 N   0  0  0  0  0  2  0  0  0  0  0  0
  185.1650  178.3080  145.4370 C   0  0  0  0  0  0  0  0  0  0  0  0
  186.3150  178.7050  145.7590 O   0  0  0  0  0  0  0  0  0  0  0  0
  184.0670  178.5450  146.3090 N   0  0  0  0  0  1  0  0  0  0  0  0
  1  4  1  1  0  0  0
  1  5  1  0  0  0  0
  2  3  1  0  0  0  0
  3  6  1  0  0  0  0
  4  2  2  0  0  0  0
  5  6  1  0  0  0  0
  7 12  1  0  0  0  0
  8 14  1  0  0  0  0
  9 14  1  6  0  0  0
  9 11  1  0  0  0  0
  9 13  1  0  0  0  0
 11 12  1  6  0  0  0
 11 13  1  0  0  0  0
 11  1  1  0  0  0  0
 12 10  2  0  0  0  0
 14  7  1  0  0  0  0
 15 13  1  0  0  0  0
 15 17  1  0  0  0  0
 17 16  1  6  0  0  0
 17 22  1  0  0  0  0
 19 20  1  0  0  0  0
 19 18  2  0  0  0  0
 21 22  2  0  0  0  0
 21 23  1  0  0  0  0
 22 19  1  0  0  0  0
 23 24  2  0  0  0  0
 24 18  1  0  0  0  0
 25  2  1  0  0  0  0
 26 29  1  0  0  0  0
 27 26  2  0  0  0  0
 29 25  1  0  0  0  0
 29 28  1  0  0  0  0
 30 32  1  0  0  0  0
 31 26  1  0  0  0  0
 31 30  2  0  0  0  0
 32 28  2  0  0  0  0
 32 33  1  0  0  0  0
 33 39  1  1  0  0  0
 33 35  1  0  0  0  0
 35 34  1  1  0  0  0
 35 38  1  0  0  0  0
 36 35  1  0  0  0  0
 38 37  1  0  0  0  0
 40 41  1  6  0  0  0
 40 39  1  0  0  0  0
 40 42  1  0  0  0  0
 42 43  1  0  0  0  0
 43 44  2  0  0  0  0
 43 45  1  0  0  0  0
M  END
>  <MODEL>
2

>  <REMARK>
 VINA RESULT:      -6.5      1.990      2.622
  Name = 
  12 active torsions:
  status: ('A' for Active; 'I' for Inactive)
    1  A    between atoms: C_2  and  N_25
    2  A    between atoms: C_2  and  C_34
    3  A    between atoms: C_2  and  C_36
    4  A    between atoms: C_7  and  C_33
    5  A    between atoms: N_9  and  C_31
    6  A    between atoms: C_10  and  C_31
    7  A    between atoms: N_11  and  C_38
    8  A    between atoms: C_14  and  N_37
    9  A    between atoms: C_14  and  C_41
   10  A    between atoms: C_21  and  C_41
   11  A    between atoms: N_25  and  C_38
   12  A    between atoms: C_34  and  C_42
                            x       y       z     vdW  Elec       q    Type
                         _______ _______ _______ _____ _____    ______ ____

>  <TORSDO>
F 12

$$$$
=
 OpenBabel11062420443D

 45 49  0  0  1  0  0  0  0  0999 V2000
  188.9320  174.1330  142.4430 C   0  0  2  0  0  3  0  0  0  0  0  0
  190.6800  172.4840  143.1670 C   0  0  0  0  0  0  0  0  0  0  0  0
  191.4530  172.6720  141.8860 C   0  0  0  0  0  2  0  0  0  0  0  0
  189.5060  173.0970  143.3850 C   0  0  0  0  0  3  0  0  0  0  0  0
  189.5990  174.1190  141.0650 C   0  0  0  0  0  2  0  0  0  0  0  0
  191.1120  173.9870  141.1930 C   0  0  0  0  0  2  0  0  0  0  0  0
  189.6790  177.7800  142.3950 C   0  0  0  0  0  2  0  0  0  0  0  0
  191.9310  177.3400  142.8420 C   0  0  0  0  0  1  0  0  0  0  0  0
  190.2930  175.8330  143.6080 C   0  0  2  0  0  3  0  0  0  0  0  0
  187.5970  176.9150  141.6580 O   0  0  0  0  0  0  0  0  0  0  0  0
  188.9620  175.5330  143.0620 C   0  0  1  0  0  0  0  0  0  0  0  0
  188.6290  176.7600  142.2900 C   0  0  0  0  0  0  0  0  0  0  0  0
  189.1520  175.5840  144.5340 N   0  0  0  0  0  0  0  0  0  0  0  0
  190.5970  177.2670  143.4080 N   0  0  0  0  0  0  0  0  0  0  0  0
  188.5760  176.8010  145.1120 C   0  0  0  0  0  2  0  0  0  0  0  0
  187.3820  176.3930  147.1380 F   0  0  0  0  0  0  0  0  0  0  0  0
  187.2420  176.4840  145.7640 C   0  0  1  0  0  3  0  0  0  0  0  0
  184.0100  178.5000  145.5920 C   0  0  0  0  0  3  0  0  0  0  0  0
  184.9230  177.5000  145.9400 C   0  0  0  0  0  0  0  0  0  0  0  0
  184.5410  176.5220  146.7980 F   0  0  0  0  0  0  0  0  0  0  0  0
  186.5970  178.5510  144.5320 C   0  0  0  0  0  3  0  0  0  0  0  0
  186.2260  177.5240  145.4070 C   0  0  0  0  0  0  0  0  0  0  0  0
  185.6800  179.5470  144.1860 C   0  0  0  0  0  3  0  0  0  0  0  0
  184.3880  179.5220  144.7160 C   0  0  0  0  0  3  0  0  0  0  0  0
  191.2170  171.5630  144.2130 C   0  0  0  0  0  2  0  0  0  0  0  0
  193.5350  170.7900  144.4970 C   0  0  0  0  0  0  0  0  0  0  0  0
  193.1540  169.5920  144.4080 O   0  0  0  0  0  0  0  0  0  0  0  0
  193.0620  173.1120  144.5110 C   0  0  0  0  0  3  0  0  0  0  0  0
  192.6390  171.8210  144.4220 N   0  0  0  0  0  0  0  0  0  0  0  0
  195.3040  172.3600  144.7630 N   0  0  0  0  0  0  0  0  0  0  0  0
  194.8920  171.0690  144.6750 C   0  0  0  0  0  3  0  0  0  0  0  0
  194.4200  173.3900  144.6750 C   0  0  0  0  0  0  0  0  0  0  0  0
  194.8760  174.8200  144.7930 C   0  0  2  0  0  3  0  0  0  0  0  0
  197.3520  174.6230  144.4480 C   0  0  0  0  0  1  0  0  0  0  0  0
  196.0660  175.2180  143.8930 C   0  0  2  0  0  0  0  0  0  0  0  0
  196.1930  176.5970  143.8450 F   0  0  0  0  0  0  0  0  0  0  0  0
  194.7640  175.4510  141.7350 C   0  0  0  0  0  1  0  0  0  0  0  0
  195.8330  174.6730  142.4830 C   0  0  0  0  0  2  0  0  0  0  0  0
  195.0200  175.2510  146.1910 N   0  0  0  0  0  2  0  0  0  0  0  0
  193.9580  176.1780  146.5640 C   0  0  1  0  0  3  0  0  0  0  0  0
  193.7720  177.1100  145.5430 O   0  0  0  0  0  1  0  0  0  0  0  0
  192.7230  175.4430  146.7850 N   0  0  0  0  0  2  0  0  0  0  0  0
  191.6660  175.9640  147.5900 C   0  0  0  0  0  0  0  0  0  0  0  0
  191.8060  177.0560  148.2010 O   0  0  0  0  0  0  0  0  0  0  0  0
  190.4590  175.2270  147.7330 N   0  0  0  0  0  1  0  0  0  0  0  0
  1  5  1  6  0  0  0
  1 11  1  0  0  0  0
  1  4  1  0  0  0  0
  2  4  2  0  0  0  0
  2 25  1  0  0  0  0
  3  2  1  0  0  0  0
  5  6  1  0  0  0  0
  6  3  1  0  0  0  0
  7 14  1  0  0  0  0
  8 14  1  0  0  0  0
  9 14  1  6  0  0  0
  9 13  1  0  0  0  0
 10 12  2  0  0  0  0
 11 12  1  6  0  0  0
 11  9  1  0  0  0  0
 11 13  1  0  0  0  0
 12  7  1  0  0  0  0
 13 15  1  0  0  0  0
 15 17  1  0  0  0  0
 17 16  1  1  0  0  0
 18 19  1  0  0  0  0
 19 20  1  0  0  0  0
 21 22  1  0  0  0  0
 22 17  1  0  0  0  0
 22 19  2  0  0  0  0
 23 21  2  0  0  0  0
 23 24  1  0  0  0  0
 24 18  2  0  0  0  0
 25 29  1  0  0  0  0
 26 31  1  0  0  0  0
 27 26  2  0  0  0  0
 28 32  2  0  0  0  0
 29 26  1  0  0  0  0
 29 28  1  0  0  0  0
 31 30  2  0  0  0  0
 32 30  1  0  0  0  0
 32 33  1  0  0  0  0
 33 39  1  1  0  0  0
 35 34  1  1  0  0  0
 35 33  1  0  0  0  0
 36 35  1  0  0  0  0
 37 38  1  0  0  0  0
 38 35  1  0  0  0  0
 39 40  1  0  0  0  0
 40 41  1  6  0  0  0
 40 42  1  0  0  0  0
 42 43  1  0  0  0  0
 43 45  1  0  0  0  0
 43 44  2  0  0  0  0
M  END
>  <MODEL>
3

>  <REMARK>
 VINA RESULT:      -6.4      2.448      7.481
  Name = 
  12 active torsions:
  status: ('A' for Active; 'I' for Inactive)
    1  A    between atoms: C_2  and  N_25
    2  A    between atoms: C_2  and  C_34
    3  A    between atoms: C_2  and  C_36
    4  A    between atoms: C_7  and  C_33
    5  A    between atoms: N_9  and  C_31
    6  A    between atoms: C_10  and  C_31
    7  A    between atoms: N_11  and  C_38
    8  A    between atoms: C_14  and  N_37
    9  A    between atoms: C_14  and  C_41
   10  A    between atoms: C_21  and  C_41
   11  A    between atoms: N_25  and  C_38
   12  A    between atoms: C_34  and  C_42
                            x       y       z     vdW  Elec       q    Type
                         _______ _______ _______ _____ _____    ______ ____

>  <TORSDO>
F 12

$$$$
=
 OpenBabel11062420443D

 45 49  0  0  1  0  0  0  0  0999 V2000
  192.5970  176.4220  145.6600 C   0  0  2  0  0  3  0  0  0  0  0  0
  193.7060  175.8290  143.4880 C   0  0  0  0  0  0  0  0  0  0  0  0
  194.3410  174.6030  144.0940 C   0  0  0  0  0  2  0  0  0  0  0  0
  192.9730  176.6830  144.2180 C   0  0  0  0  0  3  0  0  0  0  0  0
  193.4430  175.3200  146.3040 C   0  0  0  0  0  2  0  0  0  0  0  0
  193.6170  174.1410  145.3540 C   0  0  0  0  0  2  0  0  0  0  0  0
  189.6910  174.2470  146.4890 C   0  0  0  0  0  2  0  0  0  0  0  0
  189.8730  173.1850  144.4150 C   0  0  0  0  0  1  0  0  0  0  0  0
  190.5900  175.4170  144.6300 C   0  0  2  0  0  3  0  0  0  0  0  0
  190.7440  175.6120  148.1200 O   0  0  0  0  0  0  0  0  0  0  0  0
  191.1010  176.1320  145.8070 C   0  0  1  0  0  0  0  0  0  0  0  0
  190.5410  175.3540  146.9440 C   0  0  0  0  0  0  0  0  0  0  0  0
  190.2100  176.8410  144.8540 N   0  0  0  0  0  0  0  0  0  0  0  0
  189.5520  174.4500  145.0510 N   0  0  0  0  0  0  0  0  0  0  0  0
  188.8630  177.0200  145.4020 C   0  0  0  0  0  2  0  0  0  0  0  0
  187.9690  177.3480  143.2150 F   0  0  0  0  0  0  0  0  0  0  0  0
  188.0400  177.9020  144.4800 C   0  0  1  0  0  3  0  0  0  0  0  0
  184.4910  179.1850  145.0260 C   0  0  0  0  0  3  0  0  0  0  0  0
  185.7700  179.0340  144.4790 C   0  0  0  0  0  0  0  0  0  0  0  0
  186.1220  179.7780  143.4020 F   0  0  0  0  0  0  0  0  0  0  0  0
  186.2740  177.3480  146.1490 C   0  0  0  0  0  3  0  0  0  0  0  0
  186.6690  178.1090  145.0430 C   0  0  0  0  0  0  0  0  0  0  0  0
  184.9970  177.5040  146.6920 C   0  0  0  0  0  3  0  0  0  0  0  0
  184.1060  178.4220  146.1310 C   0  0  0  0  0  3  0  0  0  0  0  0
  193.9250  176.1220  142.0400 C   0  0  0  0  0  2  0  0  0  0  0  0
  194.7360  174.4400  140.4380 C   0  0  0  0  0  0  0  0  0  0  0  0
  195.8310  175.0570  140.3330 O   0  0  0  0  0  0  0  0  0  0  0  0
  192.5660  174.2280  141.3640 C   0  0  0  0  0  3  0  0  0  0  0  0
  193.7410  174.9070  141.2520 N   0  0  0  0  0  0  0  0  0  0  0  0
  193.3630  172.5930  139.8320 N   0  0  0  0  0  0  0  0  0  0  0  0
  194.5390  173.2630  139.7140 C   0  0  0  0  0  3  0  0  0  0  0  0
  192.3740  173.0450  140.6510 C   0  0  0  0  0  0  0  0  0  0  0  0
  191.0640  172.3120  140.7650 C   0  0  2  0  0  3  0  0  0  0  0  0
  191.3820  169.8320  140.5650 C   0  0  0  0  0  1  0  0  0  0  0  0
  191.1110  170.9750  141.5350 C   0  0  2  0  0  0  0  0  0  0  0  0
  189.9040  170.7440  142.1740 F   0  0  0  0  0  0  0  0  0  0  0  0
  193.2420  169.9020  142.3800 C   0  0  0  0  0  1  0  0  0  0  0  0
  192.2390  171.0290  142.5660 C   0  0  0  0  0  2  0  0  0  0  0  0
  190.3500  172.2330  139.4820 N   0  0  0  0  0  2  0  0  0  0  0  0
  189.4900  173.3950  139.2900 C   0  0  1  0  0  3  0  0  0  0  0  0
  188.9160  173.3460  138.0200 O   0  0  0  0  0  1  0  0  0  0  0  0
  188.4430  173.4000  140.2990 N   0  0  0  0  0  2  0  0  0  0  0  0
  188.3570  174.4180  141.2970 C   0  0  0  0  0  0  0  0  0  0  0  0
  189.2420  175.3090  141.3780 O   0  0  0  0  0  0  0  0  0  0  0  0
  187.2840  174.4030  142.2290 N   0  0  0  0  0  1  0  0  0  0  0  0
  1  4  1  6  0  0  0
  1 11  1  0  0  0  0
  1  5  1  0  0  0  0
  2  3  1  0  0  0  0
  2  4  2  0  0  0  0
  3  6  1  0  0  0  0
  6  5  1  0  0  0  0
  7 12  1  0  0  0  0
  8 14  1  0  0  0  0
  9 13  1  6  0  0  0
  9 14  1  0  0  0  0
  9 11  1  0  0  0  0
 11 12  1  1  0  0  0
 12 10  2  0  0  0  0
 13 15  1  0  0  0  0
 13 11  1  0  0  0  0
 14  7  1  0  0  0  0
 17 16  1  6  0  0  0
 17 22  1  0  0  0  0
 17 15  1  0  0  0  0
 18 24  1  0  0  0  0
 19 18  2  0  0  0  0
 19 22  1  0  0  0  0
 20 19  1  0  0  0  0
 21 23  1  0  0  0  0
 22 21  2  0  0  0  0
 24 23  2  0  0  0  0
 25  2  1  0  0  0  0
 26 29  1  0  0  0  0
 27 26  2  0  0  0  0
 29 28  1  0  0  0  0
 29 25  1  0  0  0  0
 30 32  1  0  0  0  0
 31 30  2  0  0  0  0
 31 26  1  0  0  0  0
 32 33  1  0  0  0  0
 32 28  2  0  0  0  0
 33 39  1  6  0  0  0
 33 35  1  0  0  0  0
 35 34  1  6  0  0  0
 35 36  1  0  0  0  0
 35 38  1  0  0  0  0
 37 38  1  0  0  0  0
 40 41  1  6  0  0  0
 40 39  1  0  0  0  0
 40 42  1  0  0  0  0
 42 43  1  0  0  0  0
 43 44  2  0  0  0  0
 43 45  1  0  0  0  0
M  END
>  <MODEL>
4

>  <REMARK>
 VINA RESULT:      -6.3      2.642      7.562
  Name = 
  12 active torsions:
  status: ('A' for Active; 'I' for Inactive)
    1  A    between atoms: C_2  and  N_25
    2  A    between atoms: C_2  and  C_34
    3  A    between atoms: C_2  and  C_36
    4  A    between atoms: C_7  and  C_33
    5  A    between atoms: N_9  and  C_31
    6  A    between atoms: C_10  and  C_31
    7  A    between atoms: N_11  and  C_38
    8  A    between atoms: C_14  and  N_37
    9  A    between atoms: C_14  and  C_41
   10  A    between atoms: C_21  and  C_41
   11  A    between atoms: N_25  and  C_38
   12  A    between atoms: C_34  and  C_42
                            x       y       z     vdW  Elec       q    Type
                         _______ _______ _______ _____ _____    ______ ____

>  <TORSDO>
F 12

$$$$
=
 OpenBabel11062420443D

 45 49  0  0  1  0  0  0  0  0999 V2000
  189.4970  177.2520  146.1660 C   0  0  2  0  0  3  0  0  0  0  0  0
  191.5720  176.3770  147.2740 C   0  0  0  0  0  0  0  0  0  0  0  0
  190.7980  175.2800  147.9600 C   0  0  0  0  0  2  0  0  0  0  0  0
  190.9670  177.3060  146.5160 C   0  0  0  0  0  3  0  0  0  0  0  0
  188.7070  176.2920  147.0600 C   0  0  0  0  0  2  0  0  0  0  0  0
  189.4700  174.9890  147.2680 C   0  0  0  0  0  2  0  0  0  0  0  0
  190.4210  175.6490  142.9360 C   0  0  0  0  0  2  0  0  0  0  0  0
  191.9960  177.3290  142.5340 C   0  0  0  0  0  1  0  0  0  0  0  0
  190.0990  177.8200  143.8390 C   0  0  2  0  0  3  0  0  0  0  0  0
  189.0490  174.5560  144.5330 O   0  0  0  0  0  0  0  0  0  0  0  0
  189.2830  176.9360  144.6840 C   0  0  1  0  0  0  0  0  0  0  0  0
  189.5350  175.5900  144.1050 C   0  0  0  0  0  0  0  0  0  0  0  0
  188.6200  178.0000  143.8860 N   0  0  0  0  0  0  0  0  0  0  0  0
  190.5720  177.0730  142.6530 N   0  0  0  0  0  0  0  0  0  0  0  0
  187.9150  177.4470  142.7270 C   0  0  0  0  0  2  0  0  0  0  0  0
  185.7160  177.2160  141.8300 F   0  0  0  0  0  0  0  0  0  0  0  0
  186.4940  177.9810  142.6810 C   0  0  1  0  0  3  0  0  0  0  0  0
  184.9040  179.1850  145.9310 C   0  0  0  0  0  3  0  0  0  0  0  0
  185.4670  179.2070  144.6500 C   0  0  0  0  0  0  0  0  0  0  0  0
  185.5770  180.3880  143.9940 F   0  0  0  0  0  0  0  0  0  0  0  0
  185.7660  176.8010  144.7520 C   0  0  0  0  0  3  0  0  0  0  0  0
  185.9020  178.0070  144.0550 C   0  0  0  0  0  0  0  0  0  0  0  0
  185.2050  176.7850  146.0310 C   0  0  0  0  0  3  0  0  0  0  0  0
  184.7740  177.9760  146.6200 C   0  0  0  0  0  3  0  0  0  0  0  0
  193.0510  176.4550  147.4660 C   0  0  0  0  0  2  0  0  0  0  0  0
  194.5590  176.6810  145.5370 C   0  0  0  0  0  0  0  0  0  0  0  0
  194.7330  177.9000  145.8070 O   0  0  0  0  0  0  0  0  0  0  0  0
  193.5600  174.5850  146.0050 C   0  0  0  0  0  3  0  0  0  0  0  0
  193.7350  175.9020  146.3020 N   0  0  0  0  0  0  0  0  0  0  0  0
  195.0360  174.8040  144.1540 N   0  0  0  0  0  0  0  0  0  0  0  0
  195.2180  176.1190  144.4410 C   0  0  0  0  0  3  0  0  0  0  0  0
  194.2290  174.0200  144.9190 C   0  0  0  0  0  0  0  0  0  0  0  0
  194.0140  172.5670  144.5870 C   0  0  2  0  0  3  0  0  0  0  0  0
  194.5640  170.4100  145.7420 C   0  0  0  0  0  1  0  0  0  0  0  0
  195.1490  171.6100  145.0090 C   0  0  2  0  0  0  0  0  0  0  0  0
  196.0380  172.2590  145.8500 F   0  0  0  0  0  0  0  0  0  0  0  0
  197.2560  171.7570  143.6140 C   0  0  0  0  0  1  0  0  0  0  0  0
  195.8830  171.1200  143.7600 C   0  0  0  0  0  2  0  0  0  0  0  0
  193.5530  172.3690  143.2050 N   0  0  0  0  0  2  0  0  0  0  0  0
  192.2250  171.7670  143.1790 C   0  0  1  0  0  3  0  0  0  0  0  0
  191.5560  172.0590  144.3680 O   0  0  0  0  0  1  0  0  0  0  0  0
  191.4720  172.2950  142.0530 N   0  0  0  0  0  2  0  0  0  0  0  0
  191.3260  171.5700  140.8320 C   0  0  0  0  0  0  0  0  0  0  0  0
  191.9180  170.4710  140.6670 O   0  0  0  0  0  0  0  0  0  0  0  0
  190.5370  172.1100  139.7800 N   0  0  0  0  0  1  0  0  0  0  0  0
  1  4  1  1  0  0  0
  1  5  1  0  0  0  0
  2 25  1  0  0  0  0
  2  3  1  0  0  0  0
  4  2  2  0  0  0  0
  5  6  1  0  0  0  0
  6  3  1  0  0  0  0
  7 12  1  0  0  0  0
  8 14  1  0  0  0  0
  9 14  1  6  0  0  0
  9 13  1  0  0  0  0
  9 11  1  0  0  0  0
 11 12  1  6  0  0  0
 11  1  1  0  0  0  0
 12 10  2  0  0  0  0
 13 11  1  0  0  0  0
 14  7  1  0  0  0  0
 15 13  1  0  0  0  0
 17 16  1  6  0  0  0
 17 15  1  0  0  0  0
 17 22  1  0  0  0  0
 18 24  1  0  0  0  0
 19 18  2  0  0  0  0
 20 19  1  0  0  0  0
 21 23  1  0  0  0  0
 22 19  1  0  0  0  0
 22 21  2  0  0  0  0
 23 24  2  0  0  0  0
 26 27  2  0  0  0  0
 26 29  1  0  0  0  0
 28 29  1  0  0  0  0
 29 25  1  0  0  0  0
 30 31  2  0  0  0  0
 30 32  1  0  0  0  0
 31 26  1  0  0  0  0
 32 28  2  0  0  0  0
 33 39  1  6  0  0  0
 33 32  1  0  0  0  0
 33 35  1  0  0  0  0
 35 34  1  1  0  0  0
 35 36  1  0  0  0  0
 37 38  1  0  0  0  0
 38 35  1  0  0  0  0
 40 39  1  0  0  0  0
 40 41  1  1  0  0  0
 42 40  1  0  0  0  0
 43 42  1  0  0  0  0
 44 43  2  0  0  0  0
 45 43  1  0  0  0  0
M  END
>  <MODEL>
5

>  <REMARK>
 VINA RESULT:      -6.2      2.560      8.488
  Name = 
  12 active torsions:
  status: ('A' for Active; 'I' for Inactive)
    1  A    between atoms: C_2  and  N_25
    2  A    between atoms: C_2  and  C_34
    3  A    between atoms: C_2  and  C_36
    4  A    between atoms: C_7  and  C_33
    5  A    between atoms: N_9  and  C_31
    6  A    between atoms: C_10  and  C_31
    7  A    between atoms: N_11  and  C_38
    8  A    between atoms: C_14  and  N_37
    9  A    between atoms: C_14  and  C_41
   10  A    between atoms: C_21  and  C_41
   11  A    between atoms: N_25  and  C_38
   12  A    between atoms: C_34  and  C_42
                            x       y       z     vdW  Elec       q    Type
                         _______ _______ _______ _____ _____    ______ ____

>  <TORSDO>
F 12

$$$$
=
 OpenBabel11062420443D

 45 49  0  0  1  0  0  0  0  0999 V2000
  192.7550  172.1100  142.8960 C   0  0  2  0  0  3  0  0  0  0  0  0
  190.2740  172.3400  143.1890 C   0  0  0  0  0  0  0  0  0  0  0  0
  190.4370  172.7840  144.6210 C   0  0  0  0  0  2  0  0  0  0  0  0
  191.3220  171.9730  142.4350 C   0  0  0  0  0  3  0  0  0  0  0  0
  192.8760  172.3220  144.4080 C   0  0  0  0  0  2  0  0  0  0  0  0
  191.8360  173.3210  144.9030 C   0  0  0  0  0  2  0  0  0  0  0  0
  193.3110  174.2960  139.9340 C   0  0  0  0  0  2  0  0  0  0  0  0
  194.3700  172.5380  138.8150 C   0  0  0  0  0  1  0  0  0  0  0  0
  194.4450  172.6140  141.1670 C   0  0  2  0  0  3  0  0  0  0  0  0
  191.8930  174.9420  141.7230 O   0  0  0  0  0  0  0  0  0  0  0  0
  193.4940  173.2030  142.1200 C   0  0  1  0  0  0  0  0  0  0  0  0
  192.7880  174.2260  141.3040 C   0  0  0  0  0  0  0  0  0  0  0  0
  194.9520  173.3090  142.3850 N   0  0  0  0  0  0  0  0  0  0  0  0
  194.4950  173.4430  139.9430 N   0  0  0  0  0  0  0  0  0  0  0  0
  195.4510  174.6640  142.1340 C   0  0  0  0  0  2  0  0  0  0  0  0
  196.9600  176.2610  143.0630 F   0  0  0  0  0  0  0  0  0  0  0  0
  196.1200  175.2090  143.3830 C   0  0  1  0  0  3  0  0  0  0  0  0
  194.2050  175.7180  146.6410 C   0  0  0  0  0  3  0  0  0  0  0  0
  195.1790  175.2790  145.7380 C   0  0  0  0  0  0  0  0  0  0  0  0
  196.2050  174.5160  146.1900 F   0  0  0  0  0  0  0  0  0  0  0  0
  194.0270  176.4380  143.9450 C   0  0  0  0  0  3  0  0  0  0  0  0
  195.0910  175.6410  144.3810 C   0  0  0  0  0  0  0  0  0  0  0  0
  193.0550  176.8720  144.8500 C   0  0  0  0  0  3  0  0  0  0  0  0
  193.1440  176.5120  146.1970 C   0  0  0  0  0  3  0  0  0  0  0  0
  188.9030  172.2750  142.5990 C   0  0  0  0  0  2  0  0  0  0  0  0
  188.5960  173.8010  140.6940 C   0  0  0  0  0  0  0  0  0  0  0  0
  188.9850  172.9010  139.9010 O   0  0  0  0  0  0  0  0  0  0  0  0
  188.1090  174.5500  142.8880 C   0  0  0  0  0  3  0  0  0  0  0  0
  188.5380  173.5740  142.0420 N   0  0  0  0  0  0  0  0  0  0  0  0
  187.7930  176.0140  141.0400 N   0  0  0  0  0  0  0  0  0  0  0  0
  188.2190  175.0460  140.1880 C   0  0  0  0  0  3  0  0  0  0  0  0
  187.7200  175.7910  142.3810 C   0  0  0  0  0  0  0  0  0  0  0  0
  187.2660  176.8710  143.3260 C   0  0  2  0  0  3  0  0  0  0  0  0
  185.1080  177.4950  142.2120 C   0  0  0  0  0  1  0  0  0  0  0  0
  186.4550  178.0200  142.6880 C   0  0  2  0  0  0  0  0  0  0  0  0
  187.1390  178.5480  141.6050 F   0  0  0  0  0  0  0  0  0  0  0  0
  184.7590  179.2270  144.1270 C   0  0  0  0  0  1  0  0  0  0  0  0
  186.2220  179.1110  143.7330 C   0  0  0  0  0  2  0  0  0  0  0  0
  188.3430  177.3280  144.2160 N   0  0  0  0  0  2  0  0  0  0  0  0
  188.3210  176.6010  145.4790 C   0  0  1  0  0  3  0  0  0  0  0  0
  189.6130  176.1850  145.8010 O   0  0  0  0  0  1  0  0  0  0  0  0
  187.8090  177.4630  146.5310 N   0  0  0  0  0  2  0  0  0  0  0  0
  186.4560  177.3880  146.9810 C   0  0  0  0  0  0  0  0  0  0  0  0
  185.6380  176.6150  146.4190 O   0  0  0  0  0  0  0  0  0  0  0  0
  186.0200  178.2210  148.0480 N   0  0  0  0  0  1  0  0  0  0  0  0
  1  4  1  6  0  0  0
  1  5  1  0  0  0  0
  2  3  1  0  0  0  0
  3  6  1  0  0  0  0
  4  2  2  0  0  0  0
  5  6  1  0  0  0  0
  7 14  1  0  0  0  0
  7 12  1  0  0  0  0
  8 14  1  0  0  0  0
  9 14  1  6  0  0  0
  9 11  1  0  0  0  0
  9 13  1  0  0  0  0
 11 12  1  6  0  0  0
 11 13  1  0  0  0  0
 11  1  1  0  0  0  0
 12 10  2  0  0  0  0
 15 13  1  0  0  0  0
 15 17  1  0  0  0  0
 17 16  1  6  0  0  0
 17 22  1  0  0  0  0
 19 20  1  0  0  0  0
 19 18  2  0  0  0  0
 21 22  2  0  0  0  0
 21 23  1  0  0  0  0
 22 19  1  0  0  0  0
 23 24  2  0  0  0  0
 24 18  1  0  0  0  0
 25  2  1  0  0  0  0
 26 29  1  0  0  0  0
 27 26  2  0  0  0  0
 29 25  1  0  0  0  0
 29 28  1  0  0  0  0
 30 32  1  0  0  0  0
 31 26  1  0  0  0  0
 31 30  2  0  0  0  0
 32 28  2  0  0  0  0
 32 33  1  0  0  0  0
 33 39  1  6  0  0  0
 35 34  1  6  0  0  0
 35 33  1  0  0  0  0
 35 38  1  0  0  0  0
 36 35  1  0  0  0  0
 38 37  1  0  0  0  0
 39 40  1  0  0  0  0
 40 41  1  1  0  0  0
 40 42  1  0  0  0  0
 42 43  1  0  0  0  0
 43 45  1  0  0  0  0
 44 43  2  0  0  0  0
M  END
>  <MODEL>
6

>  <REMARK>
 VINA RESULT:      -6.2      1.567      1.888
  Name = 
  12 active torsions:
  status: ('A' for Active; 'I' for Inactive)
    1  A    between atoms: C_2  and  N_25
    2  A    between atoms: C_2  and  C_34
    3  A    between atoms: C_2  and  C_36
    4  A    between atoms: C_7  and  C_33
    5  A    between atoms: N_9  and  C_31
    6  A    between atoms: C_10  and  C_31
    7  A    between atoms: N_11  and  C_38
    8  A    between atoms: C_14  and  N_37
    9  A    between atoms: C_14  and  C_41
   10  A    between atoms: C_21  and  C_41
   11  A    between atoms: N_25  and  C_38
   12  A    between atoms: C_34  and  C_42
                            x       y       z     vdW  Elec       q    Type
                         _______ _______ _______ _____ _____    ______ ____

>  <TORSDO>
F 12

$$$$
=
 OpenBabel11062420443D

 45 49  0  0  1  0  0  0  0  0999 V2000
  194.0150  173.5330  141.3370 C   0  0  2  0  0  3  0  0  0  0  0  0
  192.5180  172.1440  142.7950 C   0  0  0  0  0  0  0  0  0  0  0  0
  193.2910  170.8900  142.4730 C   0  0  0  0  0  2  0  0  0  0  0  0
  192.8100  173.3240  142.2260 C   0  0  0  0  0  3  0  0  0  0  0  0
  194.6230  172.2180  140.8390 C   0  0  0  0  0  2  0  0  0  0  0  0
  194.6970  171.1920  141.9650 C   0  0  0  0  0  2  0  0  0  0  0  0
  196.1570  176.5680  141.5950 C   0  0  0  0  0  2  0  0  0  0  0  0
  197.6520  175.6630  140.0420 C   0  0  0  0  0  1  0  0  0  0  0  0
  196.3890  174.2130  141.3990 C   0  0  2  0  0  3  0  0  0  0  0  0
  193.9820  176.4830  142.5370 O   0  0  0  0  0  0  0  0  0  0  0  0
  195.0690  174.4120  142.0150 C   0  0  1  0  0  0  0  0  0  0  0  0
  194.9530  175.8920  142.0930 C   0  0  0  0  0  0  0  0  0  0  0  0
  196.1250  173.6870  142.7690 N   0  0  0  0  0  0  0  0  0  0  0  0
  197.1260  175.4960  141.3840 N   0  0  0  0  0  0  0  0  0  0  0  0
  196.6860  174.5110  143.8420 C   0  0  0  0  0  2  0  0  0  0  0  0
  197.2340  174.1660  146.1390 F   0  0  0  0  0  0  0  0  0  0  0  0
  196.2420  173.9770  145.1930 C   0  0  1  0  0  3  0  0  0  0  0  0
  192.6410  174.5530  146.3070 C   0  0  0  0  0  3  0  0  0  0  0  0
  193.8040  173.8960  145.8910 C   0  0  0  0  0  0  0  0  0  0  0  0
  193.7940  172.5470  145.7610 F   0  0  0  0  0  0  0  0  0  0  0  0
  194.9550  176.0290  145.7760 C   0  0  0  0  0  3  0  0  0  0  0  0
  194.9710  174.6390  145.6230 C   0  0  0  0  0  0  0  0  0  0  0  0
  193.7900  176.6800  146.1900 C   0  0  0  0  0  3  0  0  0  0  0  0
  192.6340  175.9420  146.4550 C   0  0  0  0  0  3  0  0  0  0  0  0
  191.3730  172.0680  143.7510 C   0  0  0  0  0  2  0  0  0  0  0  0
  189.4920  172.3850  142.1960 C   0  0  0  0  0  0  0  0  0  0  0  0
  189.7630  171.2900  141.6340 O   0  0  0  0  0  0  0  0  0  0  0  0
  189.9400  174.0240  143.8470 C   0  0  0  0  0  3  0  0  0  0  0  0
  190.2460  172.8440  143.2420 N   0  0  0  0  0  0  0  0  0  0  0  0
  188.1100  174.3150  142.3570 N   0  0  0  0  0  0  0  0  0  0  0  0
  188.4070  173.1390  141.7460 C   0  0  0  0  0  3  0  0  0  0  0  0
  188.8470  174.7710  143.4060 C   0  0  0  0  0  0  0  0  0  0  0  0
  188.5280  176.0850  144.0680 C   0  0  2  0  0  3  0  0  0  0  0  0
  187.5250  178.1000  142.9610 C   0  0  0  0  0  1  0  0  0  0  0  0
  188.8210  177.3460  143.2260 C   0  0  2  0  0  0  0  0  0  0  0  0
  189.3910  176.9940  142.0140 F   0  0  0  0  0  0  0  0  0  0  0  0
  191.2100  178.1300  143.5140 C   0  0  0  0  0  1  0  0  0  0  0  0
  189.7760  178.2560  144.0010 C   0  0  0  0  0  2  0  0  0  0  0  0
  189.0380  176.1590  145.4450 N   0  0  0  0  0  2  0  0  0  0  0  0
  187.9520  176.0420  146.4110 C   0  0  1  0  0  3  0  0  0  0  0  0
  188.3680  175.2600  147.4890 O   0  0  0  0  0  1  0  0  0  0  0  0
  187.5730  177.3640  146.8840 N   0  0  0  0  0  2  0  0  0  0  0  0
  186.2080  177.7500  147.0390 C   0  0  0  0  0  0  0  0  0  0  0  0
  185.2800  176.9730  146.6940 O   0  0  0  0  0  0  0  0  0  0  0  0
  185.8940  179.0380  147.5540 N   0  0  0  0  0  1  0  0  0  0  0  0
  1  5  1  1  0  0  0
  1 11  1  0  0  0  0
  1  4  1  0  0  0  0
  2 25  1  0  0  0  0
  3  2  1  0  0  0  0
  4  2  2  0  0  0  0
  5  6  1  0  0  0  0
  6  3  1  0  0  0  0
  7 12  1  0  0  0  0
  8 14  1  0  0  0  0
  9 14  1  1  0  0  0
  9 11  1  0  0  0  0
  9 13  1  0  0  0  0
 11 12  1  1  0  0  0
 11 13  1  0  0  0  0
 12 10  2  0  0  0  0
 13 15  1  0  0  0  0
 14  7  1  0  0  0  0
 15 17  1  0  0  0  0
 17 22  1  0  0  0  0
 17 16  1  1  0  0  0
 18 24  1  0  0  0  0
 19 18  2  0  0  0  0
 20 19  1  0  0  0  0
 21 23  1  0  0  0  0
 22 21  2  0  0  0  0
 22 19  1  0  0  0  0
 23 24  2  0  0  0  0
 26 29  1  0  0  0  0
 27 26  2  0  0  0  0
 29 25  1  0  0  0  0
 29 28  1  0  0  0  0
 30 32  1  0  0  0  0
 31 26  1  0  0  0  0
 31 30  2  0  0  0  0
 32 28  2  0  0  0  0
 32 33  1  0  0  0  0
 33 39  1  1  0  0  0
 35 34  1  6  0  0  0
 35 38  1  0  0  0  0
 35 33  1  0  0  0  0
 36 35  1  0  0  0  0
 37 38  1  0  0  0  0
 39 40  1  0  0  0  0
 40 42  1  0  0  0  0
 40 41  1  1  0  0  0
 42 43  1  0  0  0  0
 43 45  1  0  0  0  0
 44 43  2  0  0  0  0
M  END
>  <MODEL>
7

>  <REMARK>
 VINA RESULT:      -6.2      2.071      3.109
  Name = 
  12 active torsions:
  status: ('A' for Active; 'I' for Inactive)
    1  A    between atoms: C_2  and  N_25
    2  A    between atoms: C_2  and  C_34
    3  A    between atoms: C_2  and  C_36
    4  A    between atoms: C_7  and  C_33
    5  A    between atoms: N_9  and  C_31
    6  A    between atoms: C_10  and  C_31
    7  A    between atoms: N_11  and  C_38
    8  A    between atoms: C_14  and  N_37
    9  A    between atoms: C_14  and  C_41
   10  A    between atoms: C_21  and  C_41
   11  A    between atoms: N_25  and  C_38
   12  A    between atoms: C_34  and  C_42
                            x       y       z     vdW  Elec       q    Type
                         _______ _______ _______ _____ _____    ______ ____

>  <TORSDO>
F 12

$$$$
=
 OpenBabel11062420443D

 45 49  0  0  1  0  0  0  0  0999 V2000
  188.1320  177.7060  144.6020 C   0  0  2  0  0  3  0  0  0  0  0  0
  188.7930  175.9850  146.3050 C   0  0  0  0  0  0  0  0  0  0  0  0
  187.4990  176.1650  147.0570 C   0  0  0  0  0  2  0  0  0  0  0  0
  189.1020  176.7330  145.2340 C   0  0  0  0  0  3  0  0  0  0  0  0
  186.9470  178.0410  145.5130 C   0  0  0  0  0  2  0  0  0  0  0  0
  186.4080  176.7850  146.1900 C   0  0  0  0  0  2  0  0  0  0  0  0
  186.4920  178.1560  141.2900 C   0  0  0  0  0  2  0  0  0  0  0  0
  184.3870  177.9560  142.2870 C   0  0  0  0  0  1  0  0  0  0  0  0
  186.2310  176.8680  143.2660 C   0  0  2  0  0  3  0  0  0  0  0  0
  188.8090  178.5540  141.6080 O   0  0  0  0  0  0  0  0  0  0  0  0
  187.6580  177.2170  143.2310 C   0  0  1  0  0  0  0  0  0  0  0  0
  187.7720  178.0440  142.0000 C   0  0  0  0  0  0  0  0  0  0  0  0
  187.2550  175.7890  143.1580 N   0  0  0  0  0  0  0  0  0  0  0  0
  185.6020  177.2250  141.9750 N   0  0  0  0  0  0  0  0  0  0  0  0
  187.4130  175.2500  141.8050 C   0  0  0  0  0  2  0  0  0  0  0  0
  189.5030  174.5340  142.7050 F   0  0  0  0  0  0  0  0  0  0  0  0
  188.8740  174.9360  141.5400 C   0  0  1  0  0  3  0  0  0  0  0  0
  188.6050  173.0530  138.2350 C   0  0  0  0  0  3  0  0  0  0  0  0
  188.4530  174.0560  139.1970 C   0  0  0  0  0  0  0  0  0  0  0  0
  187.7900  175.1930  138.8720 F   0  0  0  0  0  0  0  0  0  0  0  0
  189.6870  172.7030  140.7890 C   0  0  0  0  0  3  0  0  0  0  0  0
  188.9970  173.8820  140.4840 C   0  0  0  0  0  0  0  0  0  0  0  0
  189.8340  171.7030  139.8250 C   0  0  0  0  0  3  0  0  0  0  0  0
  189.2940  171.8780  138.5490 C   0  0  0  0  0  3  0  0  0  0  0  0
  189.7780  174.9690  146.7830 C   0  0  0  0  0  2  0  0  0  0  0  0
  191.8410  176.2280  147.2440 C   0  0  0  0  0  0  0  0  0  0  0  0
  191.3350  176.6840  148.3040 O   0  0  0  0  0  0  0  0  0  0  0  0
  191.6920  174.8910  145.2930 C   0  0  0  0  0  3  0  0  0  0  0  0
  191.1330  175.3840  146.4320 N   0  0  0  0  0  0  0  0  0  0  0  0
  193.6920  176.0920  145.7540 N   0  0  0  0  0  0  0  0  0  0  0  0
  193.1430  176.5890  146.8930 C   0  0  0  0  0  3  0  0  0  0  0  0
  192.9980  175.2410  144.9500 C   0  0  0  0  0  0  0  0  0  0  0  0
  193.6010  174.7080  143.6780 C   0  0  2  0  0  3  0  0  0  0  0  0
  194.6650  176.0160  141.8220 C   0  0  0  0  0  1  0  0  0  0  0  0
  193.3410  175.5500  142.4100 C   0  0  2  0  0  0  0  0  0  0  0  0
  192.5710  176.6590  142.7190 F   0  0  0  0  0  0  0  0  0  0  0  0
  193.4070  174.5450  140.0880 C   0  0  0  0  0  1  0  0  0  0  0  0
  192.6130  174.6890  141.3770 C   0  0  0  0  0  2  0  0  0  0  0  0
  193.3520  173.2700  143.4970 N   0  0  0  0  0  2  0  0  0  0  0  0
  194.5930  172.5090  143.5880 C   0  0  1  0  0  3  0  0  0  0  0  0
  195.1340  172.3450  142.3130 O   0  0  0  0  0  1  0  0  0  0  0  0
  195.5400  173.2180  144.4320 N   0  0  0  0  0  2  0  0  0  0  0  0
  196.1470  172.6050  145.5700 C   0  0  0  0  0  0  0  0  0  0  0  0
  195.8160  171.4430  145.9230 O   0  0  0  0  0  0  0  0  0  0  0  0
  197.1050  173.3270  146.3330 N   0  0  0  0  0  1  0  0  0  0  0  0
  1  4  1  1  0  0  0
  1  5  1  0  0  0  0
  2 25  1  0  0  0  0
  2  3  1  0  0  0  0
  4  2  2  0  0  0  0
  5  6  1  0  0  0  0
  6  3  1  0  0  0  0
  7 14  1  0  0  0  0
  7 12  1  0  0  0  0
  9 14  1  6  0  0  0
 10 12  2  0  0  0  0
 11 12  1  6  0  0  0
 11  9  1  0  0  0  0
 11  1  1  0  0  0  0
 13 11  1  0  0  0  0
 13  9  1  0  0  0  0
 14  8  1  0  0  0  0
 15 13  1  0  0  0  0
 17 15  1  0  0  0  0
 17 16  1  1  0  0  0
 18 24  2  0  0  0  0
 18 19  1  0  0  0  0
 19 22  2  0  0  0  0
 20 19  1  0  0  0  0
 22 21  1  0  0  0  0
 22 17  1  0  0  0  0
 23 21  2  0  0  0  0
 24 23  1  0  0  0  0
 26 27  2  0  0  0  0
 28 29  1  0  0  0  0
 29 25  1  0  0  0  0
 29 26  1  0  0  0  0
 30 31  2  0  0  0  0
 31 26  1  0  0  0  0
 32 28  2  0  0  0  0
 32 30  1  0  0  0  0
 33 39  1  6  0  0  0
 33 32  1  0  0  0  0
 35 34  1  6  0  0  0
 35 36  1  0  0  0  0
 35 33  1  0  0  0  0
 37 38  1  0  0  0  0
 38 35  1  0  0  0  0
 39 40  1  0  0  0  0
 40 41  1  6  0  0  0
 40 42  1  0  0  0  0
 42 43  1  0  0  0  0
 43 44  2  0  0  0  0
 43 45  1  0  0  0  0
M  END
>  <MODEL>
8

>  <REMARK>
 VINA RESULT:      -6.2      2.677      7.893
  Name = 
  12 active torsions:
  status: ('A' for Active; 'I' for Inactive)
    1  A    between atoms: C_2  and  N_25
    2  A    between atoms: C_2  and  C_34
    3  A    between atoms: C_2  and  C_36
    4  A    between atoms: C_7  and  C_33
    5  A    between atoms: N_9  and  C_31
    6  A    between atoms: C_10  and  C_31
    7  A    between atoms: N_11  and  C_38
    8  A    between atoms: C_14  and  N_37
    9  A    between atoms: C_14  and  C_41
   10  A    between atoms: C_21  and  C_41
   11  A    between atoms: N_25  and  C_38
   12  A    between atoms: C_34  and  C_42
                            x       y       z     vdW  Elec       q    Type
                         _______ _______ _______ _____ _____    ______ ____

>  <TORSDO>
F 12

$$$$
=
 OpenBabel11062420443D

 45 49  0  0  1  0  0  0  0  0999 V2000
  192.4940  173.4750  143.3480 C   0  0  2  0  0  3  0  0  0  0  0  0
  190.4440  173.3510  144.7900 C   0  0  0  0  0  0  0  0  0  0  0  0
  189.7060  172.5460  143.7500 C   0  0  0  0  0  2  0  0  0  0  0  0
  191.6820  173.8240  144.5740 C   0  0  0  0  0  3  0  0  0  0  0  0
  191.6450  172.8760  142.2220 C   0  0  0  0  0  2  0  0  0  0  0  0
  190.6520  171.8580  142.7720 C   0  0  0  0  0  2  0  0  0  0  0  0
  194.6220  170.4530  142.8900 C   0  0  0  0  0  2  0  0  0  0  0  0
  193.0560  169.1570  144.0440 C   0  0  0  0  0  1  0  0  0  0  0  0
  193.2430  171.4490  144.5460 C   0  0  2  0  0  3  0  0  0  0  0  0
  195.0570  172.4810  141.7380 O   0  0  0  0  0  0  0  0  0  0  0  0
  193.6770  172.5670  143.6960 C   0  0  1  0  0  0  0  0  0  0  0  0
  194.5100  171.8990  142.6610 C   0  0  0  0  0  0  0  0  0  0  0  0
  194.0720  172.5430  145.1280 N   0  0  0  0  0  0  0  0  0  0  0  0
  194.0150  170.2350  144.2000 N   0  0  0  0  0  0  0  0  0  0  0  0
  195.4860  172.1970  145.2930 C   0  0  0  0  0  2  0  0  0  0  0  0
  197.5690  173.2420  145.8010 F   0  0  0  0  0  0  0  0  0  0  0  0
  196.2080  173.3050  146.0390 C   0  0  1  0  0  3  0  0  0  0  0  0
  195.4560  176.4830  144.0700 C   0  0  0  0  0  3  0  0  0  0  0  0
  195.9990  175.2390  144.4110 C   0  0  0  0  0  0  0  0  0  0  0  0
  196.8360  174.6210  143.5420 F   0  0  0  0  0  0  0  0  0  0  0  0
  194.7900  175.2980  146.5140 C   0  0  0  0  0  3  0  0  0  0  0  0
  195.6640  174.6410  145.6410 C   0  0  0  0  0  0  0  0  0  0  0  0
  194.2520  176.5400  146.1690 C   0  0  0  0  0  3  0  0  0  0  0  0
  194.5840  177.1320  144.9490 C   0  0  0  0  0  3  0  0  0  0  0  0
  189.7700  173.6600  146.0860 C   0  0  0  0  0  2  0  0  0  0  0  0
  190.2720  175.8360  147.1180 C   0  0  0  0  0  0  0  0  0  0  0  0
  191.1090  175.2870  147.8840 O   0  0  0  0  0  0  0  0  0  0  0  0
  188.6660  175.7030  145.3810 C   0  0  0  0  0  3  0  0  0  0  0  0
  189.5620  175.0990  146.2090 N   0  0  0  0  0  0  0  0  0  0  0  0
  189.1710  177.8070  146.3670 N   0  0  0  0  0  0  0  0  0  0  0  0
  190.0680  177.2140  147.1970 C   0  0  0  0  0  3  0  0  0  0  0  0
  188.4720  177.0830  145.4510 C   0  0  0  0  0  0  0  0  0  0  0  0
  187.4640  177.7390  144.5450 C   0  0  2  0  0  3  0  0  0  0  0  0
  185.0680  178.3390  144.1130 C   0  0  0  0  0  1  0  0  0  0  0  0
  186.1080  178.0880  145.1960 C   0  0  2  0  0  0  0  0  0  0  0  0
  186.2270  179.2270  145.9760 F   0  0  0  0  0  0  0  0  0  0  0  0
  185.7780  177.2130  147.5480 C   0  0  0  0  0  1  0  0  0  0  0  0
  185.6500  176.9150  146.0630 C   0  0  0  0  0  2  0  0  0  0  0  0
  187.3420  177.0540  143.2510 N   0  0  0  0  0  2  0  0  0  0  0  0
  187.9060  177.8630  142.1760 C   0  0  1  0  0  3  0  0  0  0  0  0
  189.2810  178.0010  142.3680 O   0  0  0  0  0  1  0  0  0  0  0  0
  187.6540  177.2210  140.8970 N   0  0  0  0  0  2  0  0  0  0  0  0
  186.5000  177.5220  140.1120 C   0  0  0  0  0  0  0  0  0  0  0  0
  185.6180  178.3080  140.5480 O   0  0  0  0  0  0  0  0  0  0  0  0
  186.3270  176.9030  138.8440 N   0  0  0  0  0  1  0  0  0  0  0  0
  1  5  1  6  0  0  0
  1 11  1  0  0  0  0
  1  4  1  0  0  0  0
  2 25  1  0  0  0  0
  3  2  1  0  0  0  0
  4  2  2  0  0  0  0
  5  6  1  0  0  0  0
  6  3  1  0  0  0  0
  7 14  1  0  0  0  0
  8 14  1  0  0  0  0
  9 14  1  6  0  0  0
  9 13  1  0  0  0  0
 10 12  2  0  0  0  0
 11 12  1  6  0  0  0
 11  9  1  0  0  0  0
 11 13  1  0  0  0  0
 12  7  1  0  0  0  0
 13 15  1  0  0  0  0
 15 17  1  0  0  0  0
 17 16  1  6  0  0  0
 18 19  2  0  0  0  0
 18 24  1  0  0  0  0
 19 22  1  0  0  0  0
 20 19  1  0  0  0  0
 22 17  1  0  0  0  0
 22 21  2  0  0  0  0
 23 21  1  0  0  0  0
 24 23  2  0  0  0  0
 25 29  1  0  0  0  0
 26 31  1  0  0  0  0
 26 27  2  0  0  0  0
 28 32  2  0  0  0  0
 28 29  1  0  0  0  0
 29 26  1  0  0  0  0
 30 31  2  0  0  0  0
 32 30  1  0  0  0  0
 33 39  1  6  0  0  0
 33 35  1  0  0  0  0
 33 32  1  0  0  0  0
 35 34  1  6  0  0  0
 35 36  1  0  0  0  0
 35 38  1  0  0  0  0
 38 37  1  0  0  0  0
 40 41  1  1  0  0  0
 40 39  1  0  0  0  0
 42 40  1  0  0  0  0
 43 44  2  0  0  0  0
 43 42  1  0  0  0  0
 45 43  1  0  0  0  0
M  END
>  <MODEL>
9

>  <REMARK>
 VINA RESULT:      -6.2      2.580      4.487
  Name = 
  12 active torsions:
  status: ('A' for Active; 'I' for Inactive)
    1  A    between atoms: C_2  and  N_25
    2  A    between atoms: C_2  and  C_34
    3  A    between atoms: C_2  and  C_36
    4  A    between atoms: C_7  and  C_33
    5  A    between atoms: N_9  and  C_31
    6  A    between atoms: C_10  and  C_31
    7  A    between atoms: N_11  and  C_38
    8  A    between atoms: C_14  and  N_37
    9  A    between atoms: C_14  and  C_41
   10  A    between atoms: C_21  and  C_41
   11  A    between atoms: N_25  and  C_38
   12  A    between atoms: C_34  and  C_42
                            x       y       z     vdW  Elec       q    Type
                         _______ _______ _______ _____ _____    ______ ____

>  <TORSDO>
F 12

$$$$
