=
 OpenBabel11062419283D

 40 44  0  0  1  0  0  0  0  0999 V2000
  190.6920  173.0700  143.9280 C   0  0  1  0  0  3  0  0  0  0  0  0
  189.8660  173.5850  140.9280 C   0  0  2  0  0  0  0  0  0  0  0  0
  189.1010  174.7380  141.1510 O   0  0  0  0  0  0  0  0  0  0  0  0
  191.2260  172.1800  142.8770 N   0  0  0  0  0  0  0  0  0  0  0  0
  189.2100  172.2950  141.4140 C   0  0  0  0  0  2  0  0  0  0  0  0
  190.3020  174.6270  141.8930 C   0  0  1  0  0  3  0  0  0  0  0  0
  190.4820  173.6020  139.6770 O   0  0  0  0  0  1  0  0  0  0  0  0
  190.2130  171.3970  142.1510 C   0  0  0  0  0  2  0  0  0  0  0  0
  189.9500  174.2910  143.3480 C   0  0  2  0  0  3  0  0  0  0  0  0
  189.7850  172.3400  144.9160 C   0  0  0  0  0  1  0  0  0  0  0  0
  190.1760  175.5170  144.2190 C   0  0  0  0  0  2  0  0  0  0  0  0
  188.8920  176.3240  144.3990 C   0  0  0  0  0  2  0  0  0  0  0  0
  188.5710  176.6290  145.8690 C   0  0  2  0  0  3  0  0  0  0  0  0
  189.4130  175.8250  146.8110 C   0  0  0  0  0  3  0  0  0  0  0  0
  188.9200  174.7510  147.4260 C   0  0  0  0  0  2  0  0  0  0  0  0
  187.2160  176.4120  146.1370 O   0  0  0  0  0  0  0  0  0  0  0  0
  185.7330  178.2010  145.4800 C   0  0  1  0  0  0  0  0  0  0  0  0
  186.7140  177.6600  146.5180 C   0  0  1  0  0  3  0  0  0  0  0  0
  184.6360  176.3200  146.6450 F   0  0  0  0  0  0  0  0  0  0  0  0
  185.4840  177.4840  144.1790 C   0  0  0  0  0  2  0  0  0  0  0  0
  184.7240  178.4510  147.7100 F   0  0  0  0  0  0  0  0  0  0  0  0
  185.2040  177.5780  146.7500 C   0  0  0  0  0  0  0  0  0  0  0  0
  185.4460  179.8700  144.0450 C   0  0  0  0  0  2  0  0  0  0  0  0
  184.9850  178.6120  143.3250 C   0  0  0  0  0  2  0  0  0  0  0  0
  185.6230  179.5930  145.4140 O   0  0  0  0  0  0  0  0  0  0  0  0
  192.3290  171.3480  143.3730 C   0  0  0  0  0  2  0  0  0  0  0  0
  193.7150  171.9460  143.1190 C   0  0  1  0  0  3  0  0  0  0  0  0
  193.5680  173.2080  142.5400 O   0  0  0  0  0  1  0  0  0  0  0  0
  194.4760  172.0570  144.4400 C   0  0  2  0  0  3  0  0  0  0  0  0
  193.9860  171.1370  145.3730 O   0  0  0  0  0  1  0  0  0  0  0  0
  193.6230  176.2840  146.2110 C   0  0  0  0  0  3  0  0  0  0  0  0
  194.8100  176.6090  145.3580 C   0  0  0  0  0  2  0  0  0  0  0  0
  194.9260  175.7230  144.1350 C   0  0  2  0  0  3  0  0  0  0  0  0
  193.3850  173.7770  145.8120 C   0  0  0  0  0  3  0  0  0  0  0  0
  195.4850  174.3930  144.6000 C   0  0  0  0  0  2  0  0  0  0  0  0
  193.0520  175.0900  146.4110 C   0  0  0  0  0  3  0  0  0  0  0  0
  194.3970  173.4500  144.9940 C   0  0  0  0  0  0  0  0  0  0  0  0
  195.8400  176.3530  143.1340 C   0  0  0  0  0  0  0  0  0  0  0  0
  195.6030  176.1510  141.7440 N   0  0  0  0  0  1  0  0  0  0  0  0
  196.7920  177.0910  143.5090 O   0  0  0  0  0  0  0  0  0  0  0  0
  1 10  1  1  0  0  0
  2  7  1  6  0  0  0
  2  3  1  0  0  0  0
  2  5  1  0  0  0  0
  2  6  1  0  0  0  0
  4 26  1  0  0  0  0
  4  1  1  0  0  0  0
  5  8  1  0  0  0  0
  6  3  1  6  0  0  0
  6  9  1  0  0  0  0
  8  4  1  0  0  0  0
  9  1  1  0  0  0  0
  9 11  1  1  0  0  0
 11 12  1  0  0  0  0
 13 12  1  6  0  0  0
 13 16  1  0  0  0  0
 13 14  1  0  0  0  0
 14 15  2  0  0  0  0
 17 20  1  6  0  0  0
 17 18  1  0  0  0  0
 17 22  1  0  0  0  0
 18 16  1  6  0  0  0
 18 22  1  0  0  0  0
 19 22  1  0  0  0  0
 22 21  1  0  0  0  0
 23 25  1  0  0  0  0
 24 23  1  0  0  0  0
 24 20  1  0  0  0  0
 25 17  1  0  0  0  0
 27 28  1  1  0  0  0
 27 26  1  0  0  0  0
 27 29  1  0  0  0  0
 29 37  1  0  0  0  0
 29 30  1  1  0  0  0
 31 36  2  0  0  0  0
 32 31  1  0  0  0  0
 33 38  1  6  0  0  0
 33 35  1  0  0  0  0
 33 32  1  0  0  0  0
 34 36  1  0  0  0  0
 35 37  1  0  0  0  0
 37 34  2  0  0  0  0
 38 40  2  0  0  0  0
 39 38  1  0  0  0  0
M  END
>  <MODEL>
1

>  <REMARK>
 VINA RESULT:      -7.9      0.000      0.000
  Name = 
  11 active torsions:
  status: ('A' for Active; 'I' for Inactive)
    1  A    between atoms: C_4  and  C_6
    2  A    between atoms: C_4  and  C_35
    3  A    between atoms: C_5  and  C_36
    4  A    between atoms: C_6  and  C_36
    5  A    between atoms: C_8  and  C_19
    6  A    between atoms: C_8  and  C_22
    7  A    between atoms: C_9  and  O_21
    8  A    between atoms: C_10  and  C_12
    9  A    between atoms: C_19  and  N_20
   10  A    between atoms: O_21  and  C_36
   11  A    between atoms: C_22  and  C_34
                            x       y       z     vdW  Elec       q    Type
                         _______ _______ _______ _____ _____    ______ ____

>  <TORSDO>
F 11

$$$$
=
 OpenBabel11062419283D

 40 44  0  0  1  0  0  0  0  0999 V2000
  190.2300  174.0750  141.2790 C   0  0  1  0  0  3  0  0  0  0  0  0
  190.0940  172.6340  144.0810 C   0  0  2  0  0  0  0  0  0  0  0  0
  191.4470  172.2750  144.1610 O   0  0  0  0  0  0  0  0  0  0  0  0
  188.9490  174.0640  142.0150 N   0  0  0  0  0  0  0  0  0  0  0  0
  189.2920  171.8270  143.0620 C   0  0  0  0  0  2  0  0  0  0  0  0
  191.1670  173.5620  143.6400 C   0  0  1  0  0  3  0  0  0  0  0  0
  189.5440  172.8750  145.3390 O   0  0  0  0  0  1  0  0  0  0  0  0
  188.3690  172.7290  142.2320 C   0  0  0  0  0  2  0  0  0  0  0  0
  191.4030  173.5410  142.1250 C   0  0  2  0  0  3  0  0  0  0  0  0
  190.1600  173.3120  139.9580 C   0  0  0  0  0  1  0  0  0  0  0  0
  192.6830  174.2960  141.8010 C   0  0  0  0  0  2  0  0  0  0  0  0
  192.6050  175.7540  142.2490 C   0  0  0  0  0  2  0  0  0  0  0  0
  193.7960  176.1860  143.1150 C   0  0  2  0  0  3  0  0  0  0  0  0
  195.1090  175.8150  142.4960 C   0  0  0  0  0  3  0  0  0  0  0  0
  196.2550  176.2850  142.9830 C   0  0  0  0  0  2  0  0  0  0  0  0
  193.7030  175.6390  144.3980 O   0  0  0  0  0  0  0  0  0  0  0  0
  192.8460  176.3030  146.5560 C   0  0  1  0  0  0  0  0  0  0  0  0
  193.5060  176.7320  145.2470 C   0  0  1  0  0  3  0  0  0  0  0  0
  195.1690  175.4670  146.5750 F   0  0  0  0  0  0  0  0  0  0  0  0
  192.3800  174.8890  146.7790 C   0  0  0  0  0  2  0  0  0  0  0  0
  194.7570  177.7580  147.0890 F   0  0  0  0  0  0  0  0  0  0  0  0
  194.3320  176.5680  146.5240 C   0  0  0  0  0  0  0  0  0  0  0  0
  190.9990  176.5770  147.7560 C   0  0  0  0  0  2  0  0  0  0  0  0
  191.3400  175.0970  147.8400 C   0  0  0  0  0  2  0  0  0  0  0  0
  192.0840  177.2810  147.2020 O   0  0  0  0  0  0  0  0  0  0  0  0
  187.9820  175.0110  141.4460 C   0  0  0  0  0  2  0  0  0  0  0  0
  187.7690  176.2630  142.3010 C   0  0  1  0  0  3  0  0  0  0  0  0
  188.8280  177.1460  142.0880 O   0  0  0  0  0  1  0  0  0  0  0  0
  186.4450  176.9250  141.9210 C   0  0  2  0  0  3  0  0  0  0  0  0
  186.6610  178.0040  141.0570 O   0  0  0  0  0  1  0  0  0  0  0  0
  184.0240  178.8620  145.4020 C   0  0  0  0  0  3  0  0  0  0  0  0
  184.9420  177.9850  146.1970 C   0  0  0  0  0  2  0  0  0  0  0  0
  186.2820  177.7610  145.5270 C   0  0  2  0  0  3  0  0  0  0  0  0
  184.7420  178.3120  143.0180 C   0  0  0  0  0  3  0  0  0  0  0  0
  186.0670  176.7330  144.4350 C   0  0  0  0  0  2  0  0  0  0  0  0
  183.9340  178.9700  144.0700 C   0  0  0  0  0  3  0  0  0  0  0  0
  185.6970  177.3790  143.1410 C   0  0  0  0  0  0  0  0  0  0  0  0
  187.2750  177.2620  146.5270 C   0  0  0  0  0  0  0  0  0  0  0  0
  187.8800  175.9880  146.3360 N   0  0  0  0  0  1  0  0  0  0  0  0
  187.6080  177.9760  147.5130 O   0  0  0  0  0  0  0  0  0  0  0  0
  1 10  1  6  0  0  0
  1  4  1  0  0  0  0
  1  9  1  0  0  0  0
  2  3  1  0  0  0  0
  2  7  1  1  0  0  0
  4  8  1  0  0  0  0
  5  2  1  0  0  0  0
  6  2  1  0  0  0  0
  6  3  1  1  0  0  0
  8  5  1  0  0  0  0
  9 11  1  1  0  0  0
  9  6  1  0  0  0  0
 11 12  1  0  0  0  0
 13 12  1  6  0  0  0
 13 16  1  0  0  0  0
 14 15  2  0  0  0  0
 14 13  1  0  0  0  0
 17 20  1  1  0  0  0
 17 25  1  0  0  0  0
 18 16  1  6  0  0  0
 18 22  1  0  0  0  0
 18 17  1  0  0  0  0
 20 24  1  0  0  0  0
 22 17  1  0  0  0  0
 22 19  1  0  0  0  0
 22 21  1  0  0  0  0
 23 24  1  0  0  0  0
 25 23  1  0  0  0  0
 26  4  1  0  0  0  0
 26 27  1  0  0  0  0
 27 28  1  6  0  0  0
 29 30  1  6  0  0  0
 29 27  1  0  0  0  0
 29 37  1  0  0  0  0
 31 32  1  0  0  0  0
 33 32  1  0  0  0  0
 33 38  1  1  0  0  0
 34 37  2  0  0  0  0
 34 36  1  0  0  0  0
 35 33  1  0  0  0  0
 36 31  2  0  0  0  0
 37 35  1  0  0  0  0
 38 40  2  0  0  0  0
 39 38  1  0  0  0  0
M  END
>  <MODEL>
2

>  <REMARK>
 VINA RESULT:      -7.9      3.271      7.572
  Name = 
  11 active torsions:
  status: ('A' for Active; 'I' for Inactive)
    1  A    between atoms: C_4  and  C_6
    2  A    between atoms: C_4  and  C_35
    3  A    between atoms: C_5  and  C_36
    4  A    between atoms: C_6  and  C_36
    5  A    between atoms: C_8  and  C_19
    6  A    between atoms: C_8  and  C_22
    7  A    between atoms: C_9  and  O_21
    8  A    between atoms: C_10  and  C_12
    9  A    between atoms: C_19  and  N_20
   10  A    between atoms: O_21  and  C_36
   11  A    between atoms: C_22  and  C_34
                            x       y       z     vdW  Elec       q    Type
                         _______ _______ _______ _____ _____    ______ ____

>  <TORSDO>
F 11

$$$$
=
 OpenBabel11062419283D

 40 44  0  0  1  0  0  0  0  0999 V2000
  190.6410  173.1180  143.9850 C   0  0  1  0  0  3  0  0  0  0  0  0
  189.7490  173.7050  141.0170 C   0  0  2  0  0  0  0  0  0  0  0  0
  189.0720  174.9050  141.2700 O   0  0  0  0  0  0  0  0  0  0  0  0
  191.0770  172.1990  142.9130 N   0  0  0  0  0  0  0  0  0  0  0  0
  189.0230  172.4590  141.5220 C   0  0  0  0  0  2  0  0  0  0  0  0
  190.2880  174.7090  141.9700 C   0  0  1  0  0  3  0  0  0  0  0  0
  190.3200  173.6860  139.7460 O   0  0  0  0  0  1  0  0  0  0  0  0
  189.9880  171.4910  142.2210 C   0  0  0  0  0  2  0  0  0  0  0  0
  189.9650  174.3900  143.4350 C   0  0  2  0  0  3  0  0  0  0  0  0
  189.7210  172.4460  145.0020 C   0  0  0  0  0  1  0  0  0  0  0  0
  190.3040  175.5930  144.3010 C   0  0  0  0  0  2  0  0  0  0  0  0
  189.0960  176.5060  144.4950 C   0  0  0  0  0  2  0  0  0  0  0  0
  188.6700  176.6440  145.9630 C   0  0  2  0  0  3  0  0  0  0  0  0
  189.4270  175.7140  146.8610 C   0  0  0  0  0  3  0  0  0  0  0  0
  188.7980  174.7690  147.5580 C   0  0  0  0  0  2  0  0  0  0  0  0
  187.2950  176.4280  146.1050 O   0  0  0  0  0  0  0  0  0  0  0  0
  185.7850  178.1880  145.4330 C   0  0  1  0  0  0  0  0  0  0  0  0
  186.7690  177.6670  146.4790 C   0  0  1  0  0  3  0  0  0  0  0  0
  184.7150  176.2900  146.5940 F   0  0  0  0  0  0  0  0  0  0  0  0
  185.5570  177.4640  144.1330 C   0  0  0  0  0  2  0  0  0  0  0  0
  184.7560  178.4240  147.6560 F   0  0  0  0  0  0  0  0  0  0  0  0
  185.2590  177.5580  146.7010 C   0  0  0  0  0  0  0  0  0  0  0  0
  185.4770  179.8490  143.9930 C   0  0  0  0  0  2  0  0  0  0  0  0
  185.0440  178.5810  143.2720 C   0  0  0  0  0  2  0  0  0  0  0  0
  185.6490  179.5780  145.3630 O   0  0  0  0  0  0  0  0  0  0  0  0
  192.1370  171.2910  143.3670 C   0  0  0  0  0  2  0  0  0  0  0  0
  193.2830  171.9970  144.0960 C   0  0  1  0  0  3  0  0  0  0  0  0
  193.7590  171.1650  145.1120 O   0  0  0  0  0  1  0  0  0  0  0  0
  194.4030  172.3130  143.1060 C   0  0  2  0  0  3  0  0  0  0  0  0
  195.4680  171.4180  143.2580 O   0  0  0  0  0  1  0  0  0  0  0  0
  196.4740  176.4680  143.5380 C   0  0  0  0  0  3  0  0  0  0  0  0
  195.2790  176.6950  144.4130 C   0  0  0  0  0  2  0  0  0  0  0  0
  194.7770  175.4290  145.0770 C   0  0  2  0  0  3  0  0  0  0  0  0
  196.0590  174.0870  142.7260 C   0  0  0  0  0  3  0  0  0  0  0  0
  194.0020  174.6550  144.0300 C   0  0  0  0  0  2  0  0  0  0  0  0
  196.7750  175.3800  142.8180 C   0  0  0  0  0  3  0  0  0  0  0  0
  194.8870  173.7250  143.2690 C   0  0  0  0  0  0  0  0  0  0  0  0
  193.8950  175.7750  146.2320 C   0  0  0  0  0  0  0  0  0  0  0  0
  192.9040  174.8460  146.6600 N   0  0  0  0  0  1  0  0  0  0  0  0
  194.0460  176.8640  146.8530 O   0  0  0  0  0  0  0  0  0  0  0  0
  1 10  1  1  0  0  0
  2  7  1  6  0  0  0
  2  3  1  0  0  0  0
  2  5  1  0  0  0  0
  2  6  1  0  0  0  0
  4 26  1  0  0  0  0
  4  1  1  0  0  0  0
  5  8  1  0  0  0  0
  6  3  1  6  0  0  0
  6  9  1  0  0  0  0
  8  4  1  0  0  0  0
  9  1  1  0  0  0  0
  9 11  1  1  0  0  0
 11 12  1  0  0  0  0
 13 12  1  6  0  0  0
 13 16  1  0  0  0  0
 13 14  1  0  0  0  0
 14 15  2  0  0  0  0
 17 20  1  6  0  0  0
 17 18  1  0  0  0  0
 17 22  1  0  0  0  0
 18 16  1  6  0  0  0
 18 22  1  0  0  0  0
 19 22  1  0  0  0  0
 22 21  1  0  0  0  0
 23 25  1  0  0  0  0
 24 23  1  0  0  0  0
 24 20  1  0  0  0  0
 25 17  1  0  0  0  0
 26 27  1  0  0  0  0
 27 28  1  1  0  0  0
 29 30  1  1  0  0  0
 29 37  1  0  0  0  0
 29 27  1  0  0  0  0
 31 32  1  0  0  0  0
 32 33  1  0  0  0  0
 33 38  1  1  0  0  0
 34 36  1  0  0  0  0
 34 37  2  0  0  0  0
 35 33  1  0  0  0  0
 36 31  2  0  0  0  0
 37 35  1  0  0  0  0
 38 39  1  0  0  0  0
 38 40  2  0  0  0  0
M  END
>  <MODEL>
3

>  <REMARK>
 VINA RESULT:      -7.7      1.370      1.961
  Name = 
  11 active torsions:
  status: ('A' for Active; 'I' for Inactive)
    1  A    between atoms: C_4  and  C_6
    2  A    between atoms: C_4  and  C_35
    3  A    between atoms: C_5  and  C_36
    4  A    between atoms: C_6  and  C_36
    5  A    between atoms: C_8  and  C_19
    6  A    between atoms: C_8  and  C_22
    7  A    between atoms: C_9  and  O_21
    8  A    between atoms: C_10  and  C_12
    9  A    between atoms: C_19  and  N_20
   10  A    between atoms: O_21  and  C_36
   11  A    between atoms: C_22  and  C_34
                            x       y       z     vdW  Elec       q    Type
                         _______ _______ _______ _____ _____    ______ ____

>  <TORSDO>
F 11

$$$$
=
 OpenBabel11062419283D

 40 44  0  0  1  0  0  0  0  0999 V2000
  191.6470  175.9850  144.6770 C   0  0  1  0  0  3  0  0  0  0  0  0
  189.5010  175.5260  146.9420 C   0  0  2  0  0  0  0  0  0  0  0  0
  188.5560  176.4530  146.4800 O   0  0  0  0  0  0  0  0  0  0  0  0
  191.8990  174.9490  145.7000 N   0  0  0  0  0  0  0  0  0  0  0  0
  190.7500  176.1580  147.5540 C   0  0  0  0  0  2  0  0  0  0  0  0
  189.2080  175.6730  145.4930 C   0  0  1  0  0  3  0  0  0  0  0  0
  188.9000  174.4480  147.5900 O   0  0  0  0  0  1  0  0  0  0  0  0
  192.0270  175.4540  147.0770 C   0  0  0  0  0  2  0  0  0  0  0  0
  190.2190  176.5600  144.7560 C   0  0  2  0  0  3  0  0  0  0  0  0
  192.6640  177.1240  144.7260 C   0  0  0  0  0  1  0  0  0  0  0  0
  189.6930  176.8790  143.3650 C   0  0  0  0  0  2  0  0  0  0  0  0
  188.4300  176.0820  143.0440 C   0  0  0  0  0  2  0  0  0  0  0  0
  187.2470  176.9660  142.6250 C   0  0  2  0  0  3  0  0  0  0  0  0
  187.4760  177.6240  141.2990 C   0  0  0  0  0  3  0  0  0  0  0  0
  186.8220  177.2230  140.2110 C   0  0  0  0  0  2  0  0  0  0  0  0
  186.9800  177.9340  143.5970 O   0  0  0  0  0  0  0  0  0  0  0  0
  185.2830  178.4470  145.2370 C   0  0  1  0  0  0  0  0  0  0  0  0
  185.6280  177.7730  143.9100 C   0  0  1  0  0  3  0  0  0  0  0  0
  185.6890  180.2260  143.5730 F   0  0  0  0  0  0  0  0  0  0  0  0
  186.3430  179.0750  146.1030 C   0  0  0  0  0  2  0  0  0  0  0  0
  183.5900  179.0950  143.5730 F   0  0  0  0  0  0  0  0  0  0  0  0
  184.9240  179.1320  143.9400 C   0  0  0  0  0  0  0  0  0  0  0  0
  184.5680  178.0030  147.2910 C   0  0  0  0  0  2  0  0  0  0  0  0
  185.6730  179.0370  147.4440 C   0  0  0  0  0  2  0  0  0  0  0  0
  184.2030  177.8990  145.9350 O   0  0  0  0  0  0  0  0  0  0  0  0
  193.0060  174.0630  145.3220 C   0  0  0  0  0  2  0  0  0  0  0  0
  192.8090  173.3720  143.9700 C   0  0  1  0  0  3  0  0  0  0  0  0
  193.9500  172.6260  143.6690 O   0  0  0  0  0  1  0  0  0  0  0  0
  191.5850  172.4600  144.0340 C   0  0  2  0  0  3  0  0  0  0  0  0
  191.9640  171.1150  143.9580 O   0  0  0  0  0  1  0  0  0  0  0  0
  188.2070  173.0190  140.8690 C   0  0  0  0  0  3  0  0  0  0  0  0
  189.3870  173.4410  140.0490 C   0  0  0  0  0  2  0  0  0  0  0  0
  190.6730  172.7490  140.4540 C   0  0  2  0  0  3  0  0  0  0  0  0
  189.3100  172.5020  143.1100 C   0  0  0  0  0  3  0  0  0  0  0  0
  191.1670  173.4310  141.7140 C   0  0  0  0  0  2  0  0  0  0  0  0
  188.1860  172.6530  142.1570 C   0  0  0  0  0  3  0  0  0  0  0  0
  190.6100  172.7850  142.9400 C   0  0  0  0  0  0  0  0  0  0  0  0
  191.6850  172.8740  139.3610 C   0  0  0  0  0  0  0  0  0  0  0  0
  192.5760  171.7940  139.1040 N   0  0  0  0  0  1  0  0  0  0  0  0
  191.7290  173.9110  138.6420 O   0  0  0  0  0  0  0  0  0  0  0  0
  1 10  1  1  0  0  0
  1  9  1  0  0  0  0
  1  4  1  0  0  0  0
  2  5  1  0  0  0  0
  2  7  1  1  0  0  0
  3  2  1  0  0  0  0
  4  8  1  0  0  0  0
  6  3  1  1  0  0  0
  6  2  1  0  0  0  0
  8  5  1  0  0  0  0
  9 11  1  6  0  0  0
  9  6  1  0  0  0  0
 12 11  1  0  0  0  0
 13 14  1  6  0  0  0
 13 12  1  0  0  0  0
 13 16  1  0  0  0  0
 15 14  2  0  0  0  0
 17 25  1  0  0  0  0
 17 20  1  1  0  0  0
 18 16  1  6  0  0  0
 18 22  1  0  0  0  0
 18 17  1  0  0  0  0
 19 22  1  0  0  0  0
 20 24  1  0  0  0  0
 21 22  1  0  0  0  0
 22 17  1  0  0  0  0
 23 24  1  0  0  0  0
 25 23  1  0  0  0  0
 26  4  1  0  0  0  0
 27 28  1  1  0  0  0
 27 29  1  0  0  0  0
 27 26  1  0  0  0  0
 29 30  1  6  0  0  0
 31 36  2  0  0  0  0
 32 33  1  0  0  0  0
 32 31  1  0  0  0  0
 33 38  1  6  0  0  0
 33 35  1  0  0  0  0
 35 37  1  0  0  0  0
 36 34  1  0  0  0  0
 37 34  2  0  0  0  0
 37 29  1  0  0  0  0
 39 38  1  0  0  0  0
 40 38  2  0  0  0  0
M  END
>  <MODEL>
4

>  <REMARK>
 VINA RESULT:      -7.7      2.346      5.042
  Name = 
  11 active torsions:
  status: ('A' for Active; 'I' for Inactive)
    1  A    between atoms: C_4  and  C_6
    2  A    between atoms: C_4  and  C_35
    3  A    between atoms: C_5  and  C_36
    4  A    between atoms: C_6  and  C_36
    5  A    between atoms: C_8  and  C_19
    6  A    between atoms: C_8  and  C_22
    7  A    between atoms: C_9  and  O_21
    8  A    between atoms: C_10  and  C_12
    9  A    between atoms: C_19  and  N_20
   10  A    between atoms: O_21  and  C_36
   11  A    between atoms: C_22  and  C_34
                            x       y       z     vdW  Elec       q    Type
                         _______ _______ _______ _____ _____    ______ ____

>  <TORSDO>
F 11

$$$$
=
 OpenBabel11062419283D

 40 44  0  0  1  0  0  0  0  0999 V2000
  190.0800  172.7230  142.3070 C   0  0  1  0  0  3  0  0  0  0  0  0
  189.6780  173.3890  139.2500 C   0  0  2  0  0  0  0  0  0  0  0  0
  188.5070  174.1460  139.3880 O   0  0  0  0  0  0  0  0  0  0  0  0
  191.0930  172.2600  141.3350 N   0  0  0  0  0  0  0  0  0  0  0  0
  189.4830  171.8900  139.4670 C   0  0  0  0  0  2  0  0  0  0  0  0
  189.5050  174.3480  140.3720 C   0  0  1  0  0  3  0  0  0  0  0  0
  190.4570  173.8230  138.1790 O   0  0  0  0  0  1  0  0  0  0  0  0
  190.6010  171.2970  140.3360 C   0  0  0  0  0  2  0  0  0  0  0  0
  189.0500  173.6800  141.6760 C   0  0  2  0  0  3  0  0  0  0  0  0
  189.3550  171.5710  142.9990 C   0  0  0  0  0  1  0  0  0  0  0  0
  188.6330  174.7500  142.6740 C   0  0  0  0  0  2  0  0  0  0  0  0
  189.5480  175.9710  142.6050 C   0  0  0  0  0  2  0  0  0  0  0  0
  189.0160  177.1720  143.3990 C   0  0  2  0  0  3  0  0  0  0  0  0
  190.1070  177.8940  144.1290 C   0  0  0  0  0  3  0  0  0  0  0  0
  191.2440  178.2190  143.5170 C   0  0  0  0  0  2  0  0  0  0  0  0
  188.0240  176.7720  144.3000 O   0  0  0  0  0  0  0  0  0  0  0  0
  186.2360  178.2730  144.9170 C   0  0  1  0  0  0  0  0  0  0  0  0
  187.7170  177.9200  145.0360 C   0  0  1  0  0  3  0  0  0  0  0  0
  186.4160  176.2450  146.3130 F   0  0  0  0  0  0  0  0  0  0  0  0
  185.3130  177.5100  144.0040 C   0  0  0  0  0  2  0  0  0  0  0  0
  186.8700  178.3710  147.2920 F   0  0  0  0  0  0  0  0  0  0  0  0
  186.7380  177.5830  146.1620 C   0  0  0  0  0  0  0  0  0  0  0  0
  184.8680  179.8530  144.1670 C   0  0  0  0  0  2  0  0  0  0  0  0
  184.2330  178.5260  143.7780 C   0  0  0  0  0  2  0  0  0  0  0  0
  185.9180  179.6250  145.0780 O   0  0  0  0  0  0  0  0  0  0  0  0
  192.3190  171.8010  141.9990 C   0  0  0  0  0  2  0  0  0  0  0  0
  192.5050  172.3660  143.4100 C   0  0  1  0  0  3  0  0  0  0  0  0
  192.6320  171.3080  144.3110 O   0  0  0  0  0  1  0  0  0  0  0  0
  193.7550  173.2450  143.4500 C   0  0  2  0  0  3  0  0  0  0  0  0
  194.8920  172.4790  143.7310 O   0  0  0  0  0  1  0  0  0  0  0  0
  193.8150  176.4360  146.8480 C   0  0  0  0  0  3  0  0  0  0  0  0
  192.3380  176.3470  146.6190 C   0  0  0  0  0  2  0  0  0  0  0  0
  191.8900  174.9800  146.1410 C   0  0  2  0  0  3  0  0  0  0  0  0
  194.6960  174.7930  145.1080 C   0  0  0  0  0  3  0  0  0  0  0  0
  192.2350  174.8900  144.6690 C   0  0  0  0  0  2  0  0  0  0  0  0
  194.7930  175.7990  146.1910 C   0  0  0  0  0  3  0  0  0  0  0  0
  193.6090  174.3460  144.4610 C   0  0  0  0  0  0  0  0  0  0  0  0
  190.4170  174.8270  146.3440 C   0  0  0  0  0  0  0  0  0  0  0  0
  189.7210  175.7660  147.1570 N   0  0  0  0  0  1  0  0  0  0  0  0
  189.7830  173.8980  145.7710 O   0  0  0  0  0  0  0  0  0  0  0  0
  1 10  1  6  0  0  0
  2  7  1  6  0  0  0
  2  3  1  0  0  0  0
  2  5  1  0  0  0  0
  2  6  1  0  0  0  0
  4 26  1  0  0  0  0
  4  1  1  0  0  0  0
  5  8  1  0  0  0  0
  6  3  1  6  0  0  0
  6  9  1  0  0  0  0
  8  4  1  0  0  0  0
  9  1  1  0  0  0  0
  9 11  1  1  0  0  0
 12 11  1  0  0  0  0
 13 12  1  1  0  0  0
 13 14  1  0  0  0  0
 13 16  1  0  0  0  0
 15 14  2  0  0  0  0
 17 20  1  6  0  0  0
 17 18  1  0  0  0  0
 17 25  1  0  0  0  0
 17 22  1  0  0  0  0
 18 16  1  6  0  0  0
 18 22  1  0  0  0  0
 22 19  1  0  0  0  0
 22 21  1  0  0  0  0
 23 25  1  0  0  0  0
 24 20  1  0  0  0  0
 24 23  1  0  0  0  0
 26 27  1  0  0  0  0
 27 29  1  0  0  0  0
 27 28  1  1  0  0  0
 29 30  1  1  0  0  0
 29 37  1  0  0  0  0
 32 31  1  0  0  0  0
 33 38  1  6  0  0  0
 33 32  1  0  0  0  0
 34 36  1  0  0  0  0
 35 33  1  0  0  0  0
 36 31  2  0  0  0  0
 37 35  1  0  0  0  0
 37 34  2  0  0  0  0
 38 39  1  0  0  0  0
 40 38  2  0  0  0  0
M  END
>  <MODEL>
5

>  <REMARK>
 VINA RESULT:      -7.7      1.915      2.939
  Name = 
  11 active torsions:
  status: ('A' for Active; 'I' for Inactive)
    1  A    between atoms: C_4  and  C_6
    2  A    between atoms: C_4  and  C_35
    3  A    between atoms: C_5  and  C_36
    4  A    between atoms: C_6  and  C_36
    5  A    between atoms: C_8  and  C_19
    6  A    between atoms: C_8  and  C_22
    7  A    between atoms: C_9  and  O_21
    8  A    between atoms: C_10  and  C_12
    9  A    between atoms: C_19  and  N_20
   10  A    between atoms: O_21  and  C_36
   11  A    between atoms: C_22  and  C_34
                            x       y       z     vdW  Elec       q    Type
                         _______ _______ _______ _____ _____    ______ ____

>  <TORSDO>
F 11

$$$$
=
 OpenBabel11062419283D

 40 44  0  0  1  0  0  0  0  0999 V2000
  190.3150  176.5870  143.0810 C   0  0  1  0  0  3  0  0  0  0  0  0
  189.9380  175.4730  146.0080 C   0  0  2  0  0  0  0  0  0  0  0  0
  188.5610  175.2230  145.9260 O   0  0  0  0  0  0  0  0  0  0  0  0
  191.5010  176.4480  143.9510 N   0  0  0  0  0  0  0  0  0  0  0  0
  190.3010  176.9550  146.0780 C   0  0  0  0  0  2  0  0  0  0  0  0
  189.3290  174.8970  144.7820 C   0  0  1  0  0  3  0  0  0  0  0  0
  190.5800  174.5780  146.8610 O   0  0  0  0  0  1  0  0  0  0  0  0
  191.4860  177.2870  145.1610 C   0  0  0  0  0  2  0  0  0  0  0  0
  189.0550  175.9420  143.6930 C   0  0  2  0  0  3  0  0  0  0  0  0
  190.0200  178.0390  142.7100 C   0  0  0  0  0  1  0  0  0  0  0  0
  188.1900  175.3230  142.6050 C   0  0  0  0  0  2  0  0  0  0  0  0
  186.7170  175.6830  142.7840 C   0  0  0  0  0  2  0  0  0  0  0  0
  186.2830  176.8960  141.9490 C   0  0  2  0  0  3  0  0  0  0  0  0
  187.1760  177.1150  140.7660 C   0  0  0  0  0  3  0  0  0  0  0  0
  186.6780  177.1780  139.5320 C   0  0  0  0  0  2  0  0  0  0  0  0
  186.2420  178.0520  142.7340 O   0  0  0  0  0  0  0  0  0  0  0  0
  185.4500  178.1150  145.0150 C   0  0  1  0  0  0  0  0  0  0  0  0
  185.1100  177.9030  143.5410 C   0  0  1  0  0  3  0  0  0  0  0  0
  185.5610  180.3120  143.8940 F   0  0  0  0  0  0  0  0  0  0  0  0
  186.8680  178.3270  145.4760 C   0  0  0  0  0  2  0  0  0  0  0  0
  183.4320  179.4190  144.4880 F   0  0  0  0  0  0  0  0  0  0  0  0
  184.7790  179.2230  144.2400 C   0  0  0  0  0  0  0  0  0  0  0  0
  185.4960  177.0630  146.9690 C   0  0  0  0  0  2  0  0  0  0  0  0
  186.7690  177.8930  146.9080 C   0  0  0  0  0  2  0  0  0  0  0  0
  184.6280  177.4510  145.9310 O   0  0  0  0  0  0  0  0  0  0  0  0
  192.7530  176.5760  143.1950 C   0  0  0  0  0  2  0  0  0  0  0  0
  193.7610  175.4600  143.4800 C   0  0  1  0  0  3  0  0  0  0  0  0
  194.8880  175.6480  142.6780 O   0  0  0  0  0  1  0  0  0  0  0  0
  194.1540  175.4860  144.9560 C   0  0  2  0  0  3  0  0  0  0  0  0
  195.0650  176.5180  145.2090 O   0  0  0  0  0  1  0  0  0  0  0  0
  196.4890  171.6220  146.1160 C   0  0  0  0  0  3  0  0  0  0  0  0
  195.1680  171.0140  145.7580 C   0  0  0  0  0  2  0  0  0  0  0  0
  194.4170  171.7990  144.7010 C   0  0  2  0  0  3  0  0  0  0  0  0
  196.0190  174.1020  145.7530 C   0  0  0  0  0  3  0  0  0  0  0  0
  193.8020  172.9990  145.3920 C   0  0  0  0  0  2  0  0  0  0  0  0
  196.8240  172.9180  146.1340 C   0  0  0  0  0  3  0  0  0  0  0  0
  194.7300  174.1690  145.3870 C   0  0  0  0  0  0  0  0  0  0  0  0
  193.3530  170.9450  144.0910 C   0  0  0  0  0  0  0  0  0  0  0  0
  193.7240  169.7890  143.3470 N   0  0  0  0  0  1  0  0  0  0  0  0
  192.1330  171.2170  144.2640 O   0  0  0  0  0  0  0  0  0  0  0  0
  1 10  1  1  0  0  0
  1  9  1  0  0  0  0
  1  4  1  0  0  0  0
  2  5  1  0  0  0  0
  2  7  1  1  0  0  0
  3  2  1  0  0  0  0
  4  8  1  0  0  0  0
  6  3  1  1  0  0  0
  6  2  1  0  0  0  0
  8  5  1  0  0  0  0
  9 11  1  6  0  0  0
  9  6  1  0  0  0  0
 11 12  1  0  0  0  0
 13 14  1  6  0  0  0
 13 16  1  0  0  0  0
 13 12  1  0  0  0  0
 15 14  2  0  0  0  0
 17 20  1  1  0  0  0
 17 25  1  0  0  0  0
 18 16  1  6  0  0  0
 18 22  1  0  0  0  0
 18 17  1  0  0  0  0
 19 22  1  0  0  0  0
 20 24  1  0  0  0  0
 22 21  1  0  0  0  0
 22 17  1  0  0  0  0
 24 23  1  0  0  0  0
 25 23  1  0  0  0  0
 26 27  1  0  0  0  0
 26  4  1  0  0  0  0
 27 28  1  6  0  0  0
 27 29  1  0  0  0  0
 29 30  1  6  0  0  0
 29 37  1  0  0  0  0
 31 36  2  0  0  0  0
 32 31  1  0  0  0  0
 33 38  1  1  0  0  0
 33 35  1  0  0  0  0
 33 32  1  0  0  0  0
 34 36  1  0  0  0  0
 37 35  1  0  0  0  0
 37 34  2  0  0  0  0
 38 40  2  0  0  0  0
 39 38  1  0  0  0  0
M  END
>  <MODEL>
6

>  <REMARK>
 VINA RESULT:      -7.6      2.401      4.706
  Name = 
  11 active torsions:
  status: ('A' for Active; 'I' for Inactive)
    1  A    between atoms: C_4  and  C_6
    2  A    between atoms: C_4  and  C_35
    3  A    between atoms: C_5  and  C_36
    4  A    between atoms: C_6  and  C_36
    5  A    between atoms: C_8  and  C_19
    6  A    between atoms: C_8  and  C_22
    7  A    between atoms: C_9  and  O_21
    8  A    between atoms: C_10  and  C_12
    9  A    between atoms: C_19  and  N_20
   10  A    between atoms: O_21  and  C_36
   11  A    between atoms: C_22  and  C_34
                            x       y       z     vdW  Elec       q    Type
                         _______ _______ _______ _____ _____    ______ ____

>  <TORSDO>
F 11

$$$$
=
 OpenBabel11062419283D

 40 44  0  0  1  0  0  0  0  0999 V2000
  189.7840  173.2970  142.7670 C   0  0  1  0  0  3  0  0  0  0  0  0
  189.8430  173.1390  139.6180 C   0  0  2  0  0  0  0  0  0  0  0  0
  188.4680  173.3080  139.4070 O   0  0  0  0  0  0  0  0  0  0  0  0
  191.0870  173.1600  142.0830 N   0  0  0  0  0  0  0  0  0  0  0  0
  190.2240  171.7770  140.1950 C   0  0  0  0  0  2  0  0  0  0  0  0
  189.0530  174.1100  140.4180 C   0  0  1  0  0  3  0  0  0  0  0  0
  190.5990  173.6670  138.5730 O   0  0  0  0  0  1  0  0  0  0  0  0
  191.2600  171.9140  141.3190 C   0  0  0  0  0  2  0  0  0  0  0  0
  188.6260  173.5630  141.7860 C   0  0  2  0  0  3  0  0  0  0  0  0
  189.4490  172.0920  143.6440 C   0  0  0  0  0  1  0  0  0  0  0  0
  187.6030  174.5000  142.4090 C   0  0  0  0  0  2  0  0  0  0  0  0
  187.9430  175.9640  142.1380 C   0  0  0  0  0  2  0  0  0  0  0  0
  186.7040  176.8430  141.9130 C   0  0  2  0  0  3  0  0  0  0  0  0
  186.6560  177.4060  140.5260 C   0  0  0  0  0  3  0  0  0  0  0  0
  185.5300  177.9170  140.0310 C   0  0  0  0  0  2  0  0  0  0  0  0
  186.6520  177.8790  142.8500 O   0  0  0  0  0  0  0  0  0  0  0  0
  185.7360  177.9210  145.0830 C   0  0  1  0  0  0  0  0  0  0  0  0
  185.5000  177.6340  143.6020 C   0  0  1  0  0  3  0  0  0  0  0  0
  185.6760  180.0860  143.8980 F   0  0  0  0  0  0  0  0  0  0  0  0
  187.0970  178.2960  145.6090 C   0  0  0  0  0  2  0  0  0  0  0  0
  183.6230  178.9870  144.4110 F   0  0  0  0  0  0  0  0  0  0  0  0
  184.9950  178.9300  144.2390 C   0  0  0  0  0  0  0  0  0  0  0  0
  185.7860  176.9340  147.0710 C   0  0  0  0  0  2  0  0  0  0  0  0
  186.9660  177.8930  147.0480 C   0  0  0  0  0  2  0  0  0  0  0  0
  184.9400  177.1990  145.9780 O   0  0  0  0  0  0  0  0  0  0  0  0
  192.2120  173.4250  142.9880 C   0  0  0  0  0  2  0  0  0  0  0  0
  193.0830  174.6080  142.5580 C   0  0  1  0  0  3  0  0  0  0  0  0
  193.3390  174.5130  141.1890 O   0  0  0  0  0  1  0  0  0  0  0  0
  192.3600  175.9180  142.8690 C   0  0  2  0  0  3  0  0  0  0  0  0
  192.9800  176.9930  142.2220 O   0  0  0  0  0  1  0  0  0  0  0  0
  192.7370  176.4120  147.4900 C   0  0  0  0  0  3  0  0  0  0  0  0
  191.2470  176.3170  147.3720 C   0  0  0  0  0  2  0  0  0  0  0  0
  190.7940  175.4730  146.1980 C   0  0  2  0  0  3  0  0  0  0  0  0
  193.4470  176.2510  145.0460 C   0  0  0  0  0  3  0  0  0  0  0  0
  190.9480  176.3230  144.9530 C   0  0  0  0  0  2  0  0  0  0  0  0
  193.6450  176.4090  146.5050 C   0  0  0  0  0  3  0  0  0  0  0  0
  192.3040  176.1670  144.3490 C   0  0  0  0  0  0  0  0  0  0  0  0
  189.3670  175.0690  146.3810 C   0  0  0  0  0  0  0  0  0  0  0  0
  188.9440  174.5420  147.6350 N   0  0  0  0  0  1  0  0  0  0  0  0
  188.5290  175.2280  145.4500 O   0  0  0  0  0  0  0  0  0  0  0  0
  1 10  1  6  0  0  0
  2  7  1  6  0  0  0
  2  5  1  0  0  0  0
  2  6  1  0  0  0  0
  3  2  1  0  0  0  0
  4  1  1  0  0  0  0
  4 26  1  0  0  0  0
  5  8  1  0  0  0  0
  6  3  1  6  0  0  0
  6  9  1  0  0  0  0
  8  4  1  0  0  0  0
  9 11  1  1  0  0  0
  9  1  1  0  0  0  0
 12 11  1  0  0  0  0
 13 14  1  6  0  0  0
 13 12  1  0  0  0  0
 13 16  1  0  0  0  0
 15 14  2  0  0  0  0
 17 20  1  1  0  0  0
 17 25  1  0  0  0  0
 18 16  1  6  0  0  0
 18 22  1  0  0  0  0
 18 17  1  0  0  0  0
 19 22  1  0  0  0  0
 20 24  1  0  0  0  0
 22 21  1  0  0  0  0
 22 17  1  0  0  0  0
 24 23  1  0  0  0  0
 25 23  1  0  0  0  0
 27 28  1  6  0  0  0
 27 29  1  0  0  0  0
 27 26  1  0  0  0  0
 29 30  1  6  0  0  0
 29 37  1  0  0  0  0
 32 31  1  0  0  0  0
 33 38  1  1  0  0  0
 33 32  1  0  0  0  0
 34 36  1  0  0  0  0
 35 33  1  0  0  0  0
 36 31  2  0  0  0  0
 37 35  1  0  0  0  0
 37 34  2  0  0  0  0
 38 39  1  0  0  0  0
 40 38  2  0  0  0  0
M  END
>  <MODEL>
7

>  <REMARK>
 VINA RESULT:      -7.6      2.291      4.138
  Name = 
  11 active torsions:
  status: ('A' for Active; 'I' for Inactive)
    1  A    between atoms: C_4  and  C_6
    2  A    between atoms: C_4  and  C_35
    3  A    between atoms: C_5  and  C_36
    4  A    between atoms: C_6  and  C_36
    5  A    between atoms: C_8  and  C_19
    6  A    between atoms: C_8  and  C_22
    7  A    between atoms: C_9  and  O_21
    8  A    between atoms: C_10  and  C_12
    9  A    between atoms: C_19  and  N_20
   10  A    between atoms: O_21  and  C_36
   11  A    between atoms: C_22  and  C_34
                            x       y       z     vdW  Elec       q    Type
                         _______ _______ _______ _____ _____    ______ ____

>  <TORSDO>
F 11

$$$$
=
 OpenBabel11062419283D

 40 44  0  0  1  0  0  0  0  0999 V2000
  190.5460  173.6720  143.5440 C   0  0  1  0  0  3  0  0  0  0  0  0
  188.5120  174.4270  141.2540 C   0  0  2  0  0  0  0  0  0  0  0  0
  187.9230  175.5240  141.8960 O   0  0  0  0  0  0  0  0  0  0  0  0
  190.5720  172.9020  142.2830 N   0  0  0  0  0  0  0  0  0  0  0  0
  188.1230  173.0730  141.8450 C   0  0  0  0  0  2  0  0  0  0  0  0
  189.3260  175.3920  142.0370 C   0  0  1  0  0  3  0  0  0  0  0  0
  188.5300  174.5810  139.8690 O   0  0  0  0  0  1  0  0  0  0  0  0
  189.3410  172.1510  141.9880 C   0  0  0  0  0  2  0  0  0  0  0  0
  189.6330  174.9120  143.4610 C   0  0  2  0  0  3  0  0  0  0  0  0
  190.1490  172.8210  144.7480 C   0  0  0  0  0  1  0  0  0  0  0  0
  190.2180  176.0610  144.2670 C   0  0  0  0  0  2  0  0  0  0  0  0
  189.1430  177.0640  144.6800 C   0  0  0  0  0  2  0  0  0  0  0  0
  188.7320  176.9400  146.1540 C   0  0  2  0  0  3  0  0  0  0  0  0
  189.5330  175.9010  146.8770 C   0  0  0  0  0  3  0  0  0  0  0  0
  188.9430  174.8470  147.4390 C   0  0  0  0  0  2  0  0  0  0  0  0
  187.3680  176.6550  146.2680 O   0  0  0  0  0  0  0  0  0  0  0  0
  185.7590  178.2610  145.4550 C   0  0  1  0  0  0  0  0  0  0  0  0
  186.7610  177.8830  146.5440 C   0  0  1  0  0  3  0  0  0  0  0  0
  184.7960  176.3910  146.7480 F   0  0  0  0  0  0  0  0  0  0  0  0
  185.5930  177.4290  144.2110 C   0  0  0  0  0  2  0  0  0  0  0  0
  184.6910  178.5970  147.6460 F   0  0  0  0  0  0  0  0  0  0  0  0
  185.2590  177.6960  146.7630 C   0  0  0  0  0  0  0  0  0  0  0  0
  185.3660  179.7870  143.8920 C   0  0  0  0  0  2  0  0  0  0  0  0
  185.0220  178.4440  143.2660 C   0  0  0  0  0  2  0  0  0  0  0  0
  185.5390  179.6300  145.2800 O   0  0  0  0  0  0  0  0  0  0  0  0
  191.7770  172.0710  142.1730 C   0  0  0  0  0  2  0  0  0  0  0  0
  192.5520  172.2780  140.8690 C   0  0  1  0  0  3  0  0  0  0  0  0
  192.1210  171.3400  139.9290 O   0  0  0  0  0  1  0  0  0  0  0  0
  192.3120  173.6940  140.3480 C   0  0  2  0  0  3  0  0  0  0  0  0
  192.0410  173.6790  138.9750 O   0  0  0  0  0  1  0  0  0  0  0  0
  196.2970  176.0490  140.9080 C   0  0  0  0  0  3  0  0  0  0  0  0
  195.6110  176.4150  142.1890 C   0  0  0  0  0  2  0  0  0  0  0  0
  194.6670  175.3390  142.6880 C   0  0  2  0  0  3  0  0  0  0  0  0
  194.5330  174.5830  139.7930 C   0  0  0  0  0  3  0  0  0  0  0  0
  193.4040  175.4350  141.8570 C   0  0  0  0  0  2  0  0  0  0  0  0
  195.8230  175.3020  139.9030 C   0  0  0  0  0  3  0  0  0  0  0  0
  193.4880  174.5830  140.6340 C   0  0  0  0  0  0  0  0  0  0  0  0
  194.3600  175.5630  144.1340 C   0  0  0  0  0  0  0  0  0  0  0  0
  194.9880  176.6370  144.8260 N   0  0  0  0  0  1  0  0  0  0  0  0
  193.5210  174.8340  144.7330 O   0  0  0  0  0  0  0  0  0  0  0  0
  1 10  1  1  0  0  0
  2  7  1  6  0  0  0
  2  5  1  0  0  0  0
  2  3  1  0  0  0  0
  2  6  1  0  0  0  0
  4  1  1  0  0  0  0
  5  8  1  0  0  0  0
  6  3  1  1  0  0  0
  6  9  1  0  0  0  0
  8  4  1  0  0  0  0
  9  1  1  0  0  0  0
  9 11  1  1  0  0  0
 11 12  1  0  0  0  0
 13 12  1  6  0  0  0
 13 16  1  0  0  0  0
 13 14  1  0  0  0  0
 14 15  2  0  0  0  0
 17 20  1  6  0  0  0
 17 18  1  0  0  0  0
 17 22  1  0  0  0  0
 18 16  1  6  0  0  0
 18 22  1  0  0  0  0
 19 22  1  0  0  0  0
 22 21  1  0  0  0  0
 23 25  1  0  0  0  0
 24 23  1  0  0  0  0
 24 20  1  0  0  0  0
 25 17  1  0  0  0  0
 26  4  1  0  0  0  0
 27 28  1  6  0  0  0
 27 26  1  0  0  0  0
 29 30  1  6  0  0  0
 29 37  1  0  0  0  0
 29 27  1  0  0  0  0
 31 32  1  0  0  0  0
 32 33  1  0  0  0  0
 33 38  1  1  0  0  0
 34 36  1  0  0  0  0
 34 37  2  0  0  0  0
 35 33  1  0  0  0  0
 36 31  2  0  0  0  0
 37 35  1  0  0  0  0
 38 40  2  0  0  0  0
 38 39  1  0  0  0  0
M  END
>  <MODEL>
8

>  <REMARK>
 VINA RESULT:      -7.5      1.697      2.818
  Name = 
  11 active torsions:
  status: ('A' for Active; 'I' for Inactive)
    1  A    between atoms: C_4  and  C_6
    2  A    between atoms: C_4  and  C_35
    3  A    between atoms: C_5  and  C_36
    4  A    between atoms: C_6  and  C_36
    5  A    between atoms: C_8  and  C_19
    6  A    between atoms: C_8  and  C_22
    7  A    between atoms: C_9  and  O_21
    8  A    between atoms: C_10  and  C_12
    9  A    between atoms: C_19  and  N_20
   10  A    between atoms: O_21  and  C_36
   11  A    between atoms: C_22  and  C_34
                            x       y       z     vdW  Elec       q    Type
                         _______ _______ _______ _____ _____    ______ ____

>  <TORSDO>
F 11

$$$$
=
 OpenBabel11062419283D

 40 44  0  0  1  0  0  0  0  0999 V2000
  191.9490  173.9520  143.2070 C   0  0  1  0  0  3  0  0  0  0  0  0
  189.3710  172.6890  141.9000 C   0  0  2  0  0  0  0  0  0  0  0  0
  190.0100  171.6370  141.2310 O   0  0  0  0  0  0  0  0  0  0  0  0
  190.6300  174.5410  143.5170 N   0  0  0  0  0  0  0  0  0  0  0  0
  189.6230  174.0650  141.2850 C   0  0  0  0  0  2  0  0  0  0  0  0
  190.4770  171.9280  142.5360 C   0  0  1  0  0  3  0  0  0  0  0  0
  188.0780  172.3490  142.2920 O   0  0  0  0  0  1  0  0  0  0  0  0
  189.9190  175.1160  142.3630 C   0  0  0  0  0  2  0  0  0  0  0  0
  191.8370  172.6270  142.4260 C   0  0  2  0  0  3  0  0  0  0  0  0
  192.8640  174.9160  142.4540 C   0  0  0  0  0  1  0  0  0  0  0  0
  192.9370  171.6650  142.8480 C   0  0  0  0  0  2  0  0  0  0  0  0
  193.1260  171.6540  144.3630 C   0  0  0  0  0  2  0  0  0  0  0  0
  194.5990  171.5840  144.7900 C   0  0  2  0  0  3  0  0  0  0  0  0
  194.9180  170.3100  145.5090 C   0  0  0  0  0  3  0  0  0  0  0  0
  196.1790  169.9280  145.7020 C   0  0  0  0  0  2  0  0  0  0  0  0
  194.9380  172.6800  145.5890 O   0  0  0  0  0  0  0  0  0  0  0  0
  195.5870  174.9790  145.2350 C   0  0  1  0  0  0  0  0  0  0  0  0
  195.6620  173.5320  144.7510 C   0  0  1  0  0  3  0  0  0  0  0  0
  197.0150  173.7290  146.8150 F   0  0  0  0  0  0  0  0  0  0  0  0
  194.7220  175.3780  146.4010 C   0  0  0  0  0  2  0  0  0  0  0  0
  197.9370  174.4460  144.7360 F   0  0  0  0  0  0  0  0  0  0  0  0
  196.8280  174.1640  145.5140 C   0  0  0  0  0  0  0  0  0  0  0  0
  194.8560  176.9880  144.6400 C   0  0  0  0  0  2  0  0  0  0  0  0
  194.5150  176.8360  146.1150 C   0  0  0  0  0  2  0  0  0  0  0  0
  195.7330  175.9590  144.2490 O   0  0  0  0  0  0  0  0  0  0  0  0
  190.6960  175.4660  144.6540 C   0  0  0  0  0  2  0  0  0  0  0  0
  189.3540  175.6710  145.3620 C   0  0  1  0  0  3  0  0  0  0  0  0
  189.3070  174.8550  146.4940 O   0  0  0  0  0  1  0  0  0  0  0  0
  189.2030  177.1380  145.7620 C   0  0  2  0  0  3  0  0  0  0  0  0
  189.8070  177.3790  147.0010 O   0  0  0  0  0  1  0  0  0  0  0  0
  184.6680  178.0220  146.3810 C   0  0  0  0  0  3  0  0  0  0  0  0
  184.7500  178.1820  144.8940 C   0  0  0  0  0  2  0  0  0  0  0  0
  185.8210  177.3180  144.2600 C   0  0  2  0  0  3  0  0  0  0  0  0
  187.0920  177.4910  146.9660 C   0  0  0  0  0  3  0  0  0  0  0  0
  187.1510  177.9970  144.5170 C   0  0  0  0  0  2  0  0  0  0  0  0
  185.6610  177.7570  147.2390 C   0  0  0  0  0  3  0  0  0  0  0  0
  187.7580  177.5410  145.8030 C   0  0  0  0  0  0  0  0  0  0  0  0
  185.5720  177.1950  142.7910 C   0  0  0  0  0  0  0  0  0  0  0  0
  184.4840  177.9010  142.2030 N   0  0  0  0  0  1  0  0  0  0  0  0
  186.3400  176.5050  142.0650 O   0  0  0  0  0  0  0  0  0  0  0  0
  1 10  1  6  0  0  0
  1  4  1  0  0  0  0
  2  7  1  1  0  0  0
  2  6  1  0  0  0  0
  3  2  1  0  0  0  0
  4 26  1  0  0  0  0
  5  2  1  0  0  0  0
  5  8  1  0  0  0  0
  6  3  1  6  0  0  0
  8  4  1  0  0  0  0
  9  6  1  0  0  0  0
  9 11  1  1  0  0  0
  9  1  1  0  0  0  0
 11 12  1  0  0  0  0
 13 12  1  1  0  0  0
 13 14  1  0  0  0  0
 13 16  1  0  0  0  0
 14 15  2  0  0  0  0
 17 22  1  0  0  0  0
 17 20  1  1  0  0  0
 18 17  1  0  0  0  0
 18 22  1  0  0  0  0
 18 16  1  1  0  0  0
 21 22  1  0  0  0  0
 22 19  1  0  0  0  0
 23 24  1  0  0  0  0
 24 20  1  0  0  0  0
 25 23  1  0  0  0  0
 25 17  1  0  0  0  0
 26 27  1  0  0  0  0
 27 29  1  0  0  0  0
 27 28  1  1  0  0  0
 29 37  1  0  0  0  0
 29 30  1  1  0  0  0
 31 36  2  0  0  0  0
 32 31  1  0  0  0  0
 33 38  1  6  0  0  0
 33 35  1  0  0  0  0
 33 32  1  0  0  0  0
 34 36  1  0  0  0  0
 35 37  1  0  0  0  0
 37 34  2  0  0  0  0
 39 38  1  0  0  0  0
 40 38  2  0  0  0  0
M  END
>  <MODEL>
9

>  <REMARK>
 VINA RESULT:      -7.5      3.631      8.135
  Name = 
  11 active torsions:
  status: ('A' for Active; 'I' for Inactive)
    1  A    between atoms: C_4  and  C_6
    2  A    between atoms: C_4  and  C_35
    3  A    between atoms: C_5  and  C_36
    4  A    between atoms: C_6  and  C_36
    5  A    between atoms: C_8  and  C_19
    6  A    between atoms: C_8  and  C_22
    7  A    between atoms: C_9  and  O_21
    8  A    between atoms: C_10  and  C_12
    9  A    between atoms: C_19  and  N_20
   10  A    between atoms: O_21  and  C_36
   11  A    between atoms: C_22  and  C_34
                            x       y       z     vdW  Elec       q    Type
                         _______ _______ _______ _____ _____    ______ ____

>  <TORSDO>
F 11

$$$$
