=
 OpenBabel11062420253D

 49 53  0  0  1  0  0  0  0  0999 V2000
  194.5030  176.1900  146.4940 C   0  0  0  0  0  2  0  0  0  0  0  0
  193.5910  174.9630  143.9520 C   0  0  0  0  0  2  0  0  0  0  0  0
  192.1680  176.2470  147.1490 C   0  0  0  0  0  3  0  0  0  0  0  0
  195.0520  175.3220  144.2120 C   0  0  1  0  0  3  0  0  0  0  0  0
  193.0460  176.0430  146.1600 C   0  0  0  0  0  0  0  0  0  0  0  0
  192.6410  175.8970  144.7140 C   0  0  1  0  0  3  0  0  0  0  0  0
  195.3390  175.1890  145.7050 C   0  0  0  0  0  2  0  0  0  0  0  0
  193.4460  171.0210  144.9960 C   0  0  2  0  0  3  0  0  0  0  0  0
  195.2320  171.3590  142.9130 C   0  0  2  0  0  3  0  0  0  0  0  0
  193.8450  169.8210  144.1140 C   0  0  1  0  0  3  0  0  0  0  0  0
  192.4150  171.7360  144.3880 O   0  0  0  0  0  1  0  0  0  0  0  0
  195.2580  173.4320  141.8800 C   0  0  1  0  0  3  0  0  0  0  0  0
  195.7720  171.7230  144.3140 C   0  0  1  0  0  3  0  0  0  0  0  0
  196.7570  172.8860  144.3000 C   0  0  0  0  0  2  0  0  0  0  0  0
  194.4370  172.3900  142.3600 O   0  0  0  0  0  0  0  0  0  0  0  0
  194.6230  171.9530  145.2890 C   0  0  0  0  0  2  0  0  0  0  0  0
  196.1650  174.2450  143.2400 P   0  0  2  0  0  4  0  0  0  0  0  0
  194.5060  170.1370  142.8890 O   0  0  0  0  0  0  0  0  0  0  0  0
  194.6080  168.9090  144.8490 O   0  0  0  0  0  0  0  0  0  0  0  0
  193.6710  168.1670  145.5730 C   0  0  0  0  0  1  0  0  0  0  0  0
  196.9890  176.3950  142.3280 C   0  0  0  0  0  1  0  0  0  0  0  0
  197.4730  175.1160  142.5960 O   0  0  0  0  0  0  0  0  0  0  0  0
  196.1870  172.9970  140.7430 C   0  0  0  0  0  2  0  0  0  0  0  0
  194.9860  174.8120  139.7500 O   0  0  0  0  0  1  0  0  0  0  0  0
  195.8990  173.7920  139.4810 C   0  0  0  0  0  2  0  0  0  0  0  0
  190.0520  177.5030  147.0560 C   0  0  0  0  0  3  0  0  0  0  0  0
  189.9150  175.0910  147.0400 C   0  0  0  0  0  3  0  0  0  0  0  0
  190.6920  176.2590  147.0770 C   0  0  0  0  0  0  0  0  0  0  0  0
  187.8870  176.4220  146.9480 C   0  0  0  0  0  0  0  0  0  0  0  0
  188.6590  177.5860  146.9870 C   0  0  0  0  0  3  0  0  0  0  0  0
  188.5200  175.1710  146.9740 C   0  0  0  0  0  3  0  0  0  0  0  0
  186.4630  176.5290  146.8780 N   0  0  0  0  0  2  0  0  0  0  0  0
  185.7420  177.3460  147.7600 N   0  0  0  0  0  2  0  0  0  0  0  0
  184.9530  178.2490  146.9490 C   0  0  0  0  0  1  0  0  0  0  0  0
  192.5940  177.1770  144.0970 O   0  0  0  0  0  0  0  0  0  0  0  0
  191.3950  177.7500  143.6670 C   0  0  0  0  0  0  0  0  0  0  0  0
  191.1730  178.9810  143.8270 O   0  0  0  0  0  0  0  0  0  0  0  0
  190.3590  176.9030  143.0130 C   0  0  0  0  0  2  0  0  0  0  0  0
  188.9730  177.4060  143.3790 C   0  0  0  0  0  2  0  0  0  0  0  0
  187.9600  176.2660  143.3890 C   0  0  2  0  0  3  0  0  0  0  0  0
  188.5720  174.9820  142.8320 C   0  0  0  0  0  1  0  0  0  0  0  0
  187.0350  177.4270  141.3290 C   0  0  1  0  0  3  0  0  0  0  0  0
  185.7290  177.4850  143.5080 C   0  0  0  0  0  2  0  0  0  0  0  0
  185.7580  177.6170  140.5240 C   0  0  0  0  0  2  0  0  0  0  0  0
  183.6330  178.6080  143.3330 O   0  0  0  0  0  0  0  0  0  0  0  0
  186.6980  176.6810  142.6240 C   0  0  2  0  0  3  0  0  0  0  0  0
  187.9340  176.6980  140.5750 F   0  0  0  0  0  0  0  0  0  0  0  0
  184.7510  178.3210  141.3100 N   0  0  0  0  0  2  0  0  0  0  0  0
  184.6300  178.1380  142.7240 C   0  0  0  0  0  0  0  0  0  0  0  0
  2  6  1  0  0  0  0
  4  2  1  1  0  0  0
  4  7  1  0  0  0  0
  5  1  1  0  0  0  0
  5  3  2  0  0  0  0
  6 35  1  6  0  0  0
  6  5  1  0  0  0  0
  7  1  1  0  0  0  0
  8 11  1  6  0  0  0
  8 16  1  0  0  0  0
  9 15  1  1  0  0  0
  9 13  1  0  0  0  0
 10 19  1  1  0  0  0
 10  8  1  0  0  0  0
 12 23  1  6  0  0  0
 12 15  1  0  0  0  0
 12 17  1  0  0  0  0
 13 14  1  6  0  0  0
 13 16  1  0  0  0  0
 17 22  1  6  0  0  0
 17  4  1  0  0  0  0
 17 14  1  0  0  0  0
 18  9  1  0  0  0  0
 18 10  1  0  0  0  0
 19 20  1  0  0  0  0
 21 22  1  0  0  0  0
 25 24  1  0  0  0  0
 25 23  1  0  0  0  0
 26 28  1  0  0  0  0
 27 28  2  0  0  0  0
 28  3  1  0  0  0  0
 29 31  2  0  0  0  0
 29 30  1  0  0  0  0
 30 26  2  0  0  0  0
 31 27  1  0  0  0  0
 32 29  1  0  0  0  0
 32 33  1  0  0  0  0
 34 33  1  0  0  0  0
 36 37  2  0  0  0  0
 36 35  1  0  0  0  0
 38 39  1  0  0  0  0
 38 36  1  0  0  0  0
 39 40  1  0  0  0  0
 40 41  1  6  0  0  0
 42 47  1  6  0  0  0
 42 46  1  0  0  0  0
 44 48  1  0  0  0  0
 44 42  1  0  0  0  0
 46 40  1  1  0  0  0
 46 43  1  0  0  0  0
 48 49  1  0  0  0  0
 49 45  2  0  0  0  0
 49 43  1  0  0  0  0
M  END
>  <MODEL>
1

>  <REMARK>
 VINA RESULT:      -7.7      0.000      0.000
  Name = 
  14 active torsions:
  status: ('A' for Active; 'I' for Inactive)
    1  A    between atoms: C_4  and  C_10
    2  A    between atoms: C_4  and  C_20
    3  A    between atoms: C_5  and  C_22
    4  A    between atoms: C_5  and  C_44
    5  A    between atoms: O_7  and  C_16
    6  A    between atoms: C_10  and  O_46
    7  A    between atoms: N_11  and  N_14
    8  A    between atoms: N_11  and  C_28
    9  A    between atoms: C_13  and  C_20
   10  A    between atoms: C_13  and  C_30
   11  A    between atoms: C_27  and  C_29
   12  A    between atoms: C_32  and  P_41
   13  A    between atoms: P_41  and  O_42
   14  A    between atoms: C_43  and  O_46
                            x       y       z     vdW  Elec       q    Type
                         _______ _______ _______ _____ _____    ______ ____

>  <TORSDO>
F 14

$$$$
=
 OpenBabel11062420253D

 49 53  0  0  1  0  0  0  0  0999 V2000
  194.4850  176.1570  146.6940 C   0  0  0  0  0  2  0  0  0  0  0  0
  193.7140  175.1370  144.0190 C   0  0  0  0  0  2  0  0  0  0  0  0
  192.1200  176.1490  147.2320 C   0  0  0  0  0  3  0  0  0  0  0  0
  195.1560  175.4820  144.3800 C   0  0  1  0  0  3  0  0  0  0  0  0
  193.0490  176.0300  146.2760 C   0  0  0  0  0  0  0  0  0  0  0  0
  192.7190  176.0010  144.8040 C   0  0  1  0  0  3  0  0  0  0  0  0
  195.3690  175.2290  145.8710 C   0  0  0  0  0  2  0  0  0  0  0  0
  193.9310  171.0690  145.2260 C   0  0  2  0  0  3  0  0  0  0  0  0
  195.6260  171.5390  143.0930 C   0  0  2  0  0  3  0  0  0  0  0  0
  194.4030  169.9000  144.3380 C   0  0  1  0  0  3  0  0  0  0  0  0
  192.8290  171.6940  144.6450 O   0  0  0  0  0  1  0  0  0  0  0  0
  195.4530  173.6010  142.0520 C   0  0  1  0  0  3  0  0  0  0  0  0
  196.1720  171.9550  144.4760 C   0  0  1  0  0  3  0  0  0  0  0  0
  197.0580  173.1950  144.4310 C   0  0  0  0  0  2  0  0  0  0  0  0
  194.7340  172.4970  142.5580 O   0  0  0  0  0  0  0  0  0  0  0  0
  195.0350  172.0960  145.4820 C   0  0  0  0  0  2  0  0  0  0  0  0
  196.3280  174.4940  143.3820 P   0  0  2  0  0  4  0  0  0  0  0  0
  195.0010  170.2620  143.0930 O   0  0  0  0  0  0  0  0  0  0  0  0
  195.2570  169.0580  145.0550 O   0  0  0  0  0  0  0  0  0  0  0  0
  194.4330  168.4340  145.9950 C   0  0  0  0  0  1  0  0  0  0  0  0
  197.2330  176.7760  143.0580 C   0  0  0  0  0  1  0  0  0  0  0  0
  197.5410  175.4650  142.6990 O   0  0  0  0  0  0  0  0  0  0  0  0
  196.3840  173.2360  140.8910 C   0  0  0  0  0  2  0  0  0  0  0  0
  195.5470  175.2300  139.8660 O   0  0  0  0  0  1  0  0  0  0  0  0
  195.9320  173.9140  139.6080 C   0  0  0  0  0  2  0  0  0  0  0  0
  190.0370  177.3730  146.7570 C   0  0  0  0  0  3  0  0  0  0  0  0
  189.8510  175.0200  147.2730 C   0  0  0  0  0  3  0  0  0  0  0  0
  190.6490  176.1590  147.0870 C   0  0  0  0  0  0  0  0  0  0  0  0
  187.8570  176.3160  146.7860 C   0  0  0  0  0  0  0  0  0  0  0  0
  188.6500  177.4520  146.6030 C   0  0  0  0  0  3  0  0  0  0  0  0
  188.4620  175.0970  147.1220 C   0  0  0  0  0  3  0  0  0  0  0  0
  186.4400  176.4190  146.6240 N   0  0  0  0  0  2  0  0  0  0  0  0
  185.7680  177.6390  146.7800 N   0  0  0  0  0  2  0  0  0  0  0  0
  184.9380  177.8150  145.6060 C   0  0  0  0  0  1  0  0  0  0  0  0
  192.6910  177.3270  144.2920 O   0  0  0  0  0  0  0  0  0  0  0  0
  191.5660  177.8510  143.6490 C   0  0  0  0  0  0  0  0  0  0  0  0
  191.2240  179.0520  143.8230 O   0  0  0  0  0  0  0  0  0  0  0  0
  190.7550  176.9860  142.7480 C   0  0  0  0  0  2  0  0  0  0  0  0
  189.2800  177.1230  143.0890 C   0  0  0  0  0  2  0  0  0  0  0  0
  188.4470  176.0840  142.3460 C   0  0  2  0  0  3  0  0  0  0  0  0
  187.0240  176.0220  142.8970 C   0  0  0  0  0  1  0  0  0  0  0  0
  188.6450  173.7790  141.2980 C   0  0  1  0  0  3  0  0  0  0  0  0
  189.0400  174.0730  143.7900 C   0  0  0  0  0  2  0  0  0  0  0  0
  189.5230  172.5370  141.2740 C   0  0  0  0  0  2  0  0  0  0  0  0
  189.6700  172.0580  144.8990 O   0  0  0  0  0  0  0  0  0  0  0  0
  189.1450  174.7200  142.3990 C   0  0  2  0  0  3  0  0  0  0  0  0
  188.7170  174.4010  140.0650 F   0  0  0  0  0  0  0  0  0  0  0  0
  189.5340  171.8870  142.5800 N   0  0  0  0  0  2  0  0  0  0  0  0
  189.4630  172.6340  143.7970 C   0  0  0  0  0  0  0  0  0  0  0  0
  2  6  1  0  0  0  0
  4  2  1  6  0  0  0
  4  7  1  0  0  0  0
  5  1  1  0  0  0  0
  5  3  2  0  0  0  0
  6 35  1  6  0  0  0
  6  5  1  0  0  0  0
  7  1  1  0  0  0  0
  8 11  1  6  0  0  0
  8 16  1  0  0  0  0
  9 15  1  1  0  0  0
  9 18  1  0  0  0  0
  9 13  1  0  0  0  0
 10 19  1  1  0  0  0
 10  8  1  0  0  0  0
 12 23  1  6  0  0  0
 12 15  1  0  0  0  0
 12 17  1  0  0  0  0
 13 14  1  6  0  0  0
 13 16  1  0  0  0  0
 17 22  1  6  0  0  0
 17  4  1  0  0  0  0
 17 14  1  0  0  0  0
 18 10  1  0  0  0  0
 19 20  1  0  0  0  0
 22 21  1  0  0  0  0
 25 24  1  0  0  0  0
 25 23  1  0  0  0  0
 26 28  1  0  0  0  0
 28  3  1  0  0  0  0
 28 27  2  0  0  0  0
 29 31  2  0  0  0  0
 30 26  2  0  0  0  0
 30 29  1  0  0  0  0
 31 27  1  0  0  0  0
 32 33  1  0  0  0  0
 32 29  1  0  0  0  0
 34 33  1  0  0  0  0
 36 37  2  0  0  0  0
 36 35  1  0  0  0  0
 38 39  1  0  0  0  0
 38 36  1  0  0  0  0
 40 41  1  1  0  0  0
 40 39  1  0  0  0  0
 42 47  1  6  0  0  0
 42 46  1  0  0  0  0
 43 49  1  0  0  0  0
 44 42  1  0  0  0  0
 44 48  1  0  0  0  0
 46 40  1  1  0  0  0
 46 43  1  0  0  0  0
 48 49  1  0  0  0  0
 49 45  2  0  0  0  0
M  END
>  <MODEL>
2

>  <REMARK>
 VINA RESULT:      -7.6      1.657      2.524
  Name = 
  14 active torsions:
  status: ('A' for Active; 'I' for Inactive)
    1  A    between atoms: C_4  and  C_10
    2  A    between atoms: C_4  and  C_20
    3  A    between atoms: C_5  and  C_22
    4  A    between atoms: C_5  and  C_44
    5  A    between atoms: O_7  and  C_16
    6  A    between atoms: C_10  and  O_46
    7  A    between atoms: N_11  and  N_14
    8  A    between atoms: N_11  and  C_28
    9  A    between atoms: C_13  and  C_20
   10  A    between atoms: C_13  and  C_30
   11  A    between atoms: C_27  and  C_29
   12  A    between atoms: C_32  and  P_41
   13  A    between atoms: P_41  and  O_42
   14  A    between atoms: C_43  and  O_46
                            x       y       z     vdW  Elec       q    Type
                         _______ _______ _______ _____ _____    ______ ____

>  <TORSDO>
F 14

$$$$
=
 OpenBabel11062420253D

 49 53  0  0  1  0  0  0  0  0999 V2000
  194.1520  174.7920  145.8060 C   0  0  0  0  0  2  0  0  0  0  0  0
  192.7120  174.4990  143.2300 C   0  0  0  0  0  2  0  0  0  0  0  0
  192.0150  175.4010  146.7790 C   0  0  0  0  0  3  0  0  0  0  0  0
  194.2250  174.3340  143.3470 C   0  0  1  0  0  3  0  0  0  0  0  0
  192.7070  175.1690  145.6570 C   0  0  0  0  0  0  0  0  0  0  0  0
  192.1740  175.4810  144.2800 C   0  0  1  0  0  3  0  0  0  0  0  0
  194.5600  173.7900  144.7330 C   0  0  0  0  0  2  0  0  0  0  0  0
  190.8490  171.1700  142.8220 C   0  0  2  0  0  3  0  0  0  0  0  0
  192.8080  171.2850  140.8740 C   0  0  2  0  0  3  0  0  0  0  0  0
  190.7780  170.2390  141.5940 C   0  0  1  0  0  3  0  0  0  0  0  0
  190.2960  172.4110  142.5110 O   0  0  0  0  0  1  0  0  0  0  0  0
  193.8320  173.3350  140.5370 C   0  0  1  0  0  3  0  0  0  0  0  0
  193.3060  170.9390  142.2950 C   0  0  1  0  0  3  0  0  0  0  0  0
  194.6930  171.4930  142.6020 C   0  0  0  0  0  2  0  0  0  0  0  0
  192.5960  172.6730  140.7030 O   0  0  0  0  0  0  0  0  0  0  0  0
  192.2770  171.3520  143.3400 C   0  0  0  0  0  2  0  0  0  0  0  0
  194.8570  173.2190  142.0430 P   0  0  2  0  0  4  0  0  0  0  0  0
  191.6320  170.5780  140.5020 O   0  0  0  0  0  0  0  0  0  0  0  0
  190.9930  168.9110  141.9760 O   0  0  0  0  0  0  0  0  0  0  0  0
  190.7620  168.1670  140.8160 C   0  0  0  0  0  1  0  0  0  0  0  0
  197.2390  173.1000  142.7110 C   0  0  0  0  0  1  0  0  0  0  0  0
  196.4710  173.5700  141.6470 O   0  0  0  0  0  0  0  0  0  0  0  0
  194.5920  172.8940  139.2830 C   0  0  0  0  0  2  0  0  0  0  0  0
  194.0240  175.0000  138.3010 O   0  0  0  0  0  1  0  0  0  0  0  0
  195.0720  174.1000  138.4940 C   0  0  0  0  0  2  0  0  0  0  0  0
  189.6010  174.9180  146.8480 C   0  0  0  0  0  3  0  0  0  0  0  0
  190.2830  177.2220  147.1030 C   0  0  0  0  0  3  0  0  0  0  0  0
  190.6210  175.8730  146.9170 C   0  0  0  0  0  0  0  0  0  0  0  0
  187.9270  176.6400  147.1610 C   0  0  0  0  0  0  0  0  0  0  0  0
  188.2620  175.2970  146.9730 C   0  0  0  0  0  3  0  0  0  0  0  0
  188.9430  177.6040  147.2260 C   0  0  0  0  0  3  0  0  0  0  0  0
  186.5510  177.0060  147.2860 N   0  0  0  0  0  2  0  0  0  0  0  0
  186.1610  178.2030  147.9020 N   0  0  0  0  0  2  0  0  0  0  0  0
  185.0480  178.7270  147.1380 C   0  0  0  0  0  1  0  0  0  0  0  0
  192.4990  176.8190  143.9300 O   0  0  0  0  0  0  0  0  0  0  0  0
  191.5210  177.7550  143.5840 C   0  0  0  0  0  0  0  0  0  0  0  0
  191.6890  178.9820  143.8200 O   0  0  0  0  0  0  0  0  0  0  0  0
  190.2610  177.3050  142.9320 C   0  0  0  0  0  2  0  0  0  0  0  0
  189.0620  177.8290  143.7060 C   0  0  0  0  0  2  0  0  0  0  0  0
  187.8330  176.9570  143.4680 C   0  0  2  0  0  3  0  0  0  0  0  0
  188.2320  175.5170  143.1520 C   0  0  0  0  0  1  0  0  0  0  0  0
  185.4680  177.4160  142.6650 C   0  0  1  0  0  3  0  0  0  0  0  0
  187.3240  177.0190  140.9750 C   0  0  0  0  0  2  0  0  0  0  0  0
  184.6760  178.2270  141.6490 C   0  0  0  0  0  2  0  0  0  0  0  0
  186.6080  177.2200  138.7090 O   0  0  0  0  0  0  0  0  0  0  0  0
  186.9630  177.5700  142.3650 C   0  0  2  0  0  3  0  0  0  0  0  0
  185.1820  177.8860  143.9330 F   0  0  0  0  0  0  0  0  0  0  0  0
  185.0030  177.8120  140.2890 N   0  0  0  0  0  2  0  0  0  0  0  0
  186.3170  177.3820  139.9250 C   0  0  0  0  0  0  0  0  0  0  0  0
  2  6  1  0  0  0  0
  3 28  1  0  0  0  0
  4  2  1  1  0  0  0
  4  7  1  0  0  0  0
  5  1  1  0  0  0  0
  5  3  2  0  0  0  0
  6 35  1  6  0  0  0
  6  5  1  0  0  0  0
  7  1  1  0  0  0  0
  8 11  1  6  0  0  0
  8 16  1  0  0  0  0
  9 18  1  1  0  0  0
  9 13  1  0  0  0  0
 10 19  1  1  0  0  0
 10  8  1  0  0  0  0
 12 23  1  6  0  0  0
 12 15  1  0  0  0  0
 12 17  1  0  0  0  0
 13 14  1  1  0  0  0
 13 16  1  0  0  0  0
 15  9  1  0  0  0  0
 17 22  1  6  0  0  0
 17 14  1  0  0  0  0
 17  4  1  0  0  0  0
 18 10  1  0  0  0  0
 20 19  1  0  0  0  0
 22 21  1  0  0  0  0
 24 25  1  0  0  0  0
 25 23  1  0  0  0  0
 26 28  2  0  0  0  0
 26 30  1  0  0  0  0
 27 31  2  0  0  0  0
 28 27  1  0  0  0  0
 29 31  1  0  0  0  0
 29 32  1  0  0  0  0
 30 29  2  0  0  0  0
 32 33  1  0  0  0  0
 34 33  1  0  0  0  0
 36 37  2  0  0  0  0
 36 35  1  0  0  0  0
 38 36  1  0  0  0  0
 38 39  1  0  0  0  0
 40 41  1  6  0  0  0
 40 39  1  0  0  0  0
 42 47  1  1  0  0  0
 43 46  1  0  0  0  0
 44 42  1  0  0  0  0
 45 49  2  0  0  0  0
 46 42  1  0  0  0  0
 46 40  1  1  0  0  0
 48 44  1  0  0  0  0
 49 48  1  0  0  0  0
 49 43  1  0  0  0  0
M  END
>  <MODEL>
3

>  <REMARK>
 VINA RESULT:      -6.7      2.057      2.486
  Name = 
  14 active torsions:
  status: ('A' for Active; 'I' for Inactive)
    1  A    between atoms: C_4  and  C_10
    2  A    between atoms: C_4  and  C_20
    3  A    between atoms: C_5  and  C_22
    4  A    between atoms: C_5  and  C_44
    5  A    between atoms: O_7  and  C_16
    6  A    between atoms: C_10  and  O_46
    7  A    between atoms: N_11  and  N_14
    8  A    between atoms: N_11  and  C_28
    9  A    between atoms: C_13  and  C_20
   10  A    between atoms: C_13  and  C_30
   11  A    between atoms: C_27  and  C_29
   12  A    between atoms: C_32  and  P_41
   13  A    between atoms: P_41  and  O_42
   14  A    between atoms: C_43  and  O_46
                            x       y       z     vdW  Elec       q    Type
                         _______ _______ _______ _____ _____    ______ ____

>  <TORSDO>
F 14

$$$$
=
 OpenBabel11062420253D

 49 53  0  0  1  0  0  0  0  0999 V2000
  194.0550  173.6390  145.4540 C   0  0  0  0  0  2  0  0  0  0  0  0
  192.0490  171.8560  144.1940 C   0  0  0  0  0  2  0  0  0  0  0  0
  192.1840  174.9690  146.2380 C   0  0  0  0  0  3  0  0  0  0  0  0
  193.5520  171.6490  144.0240 C   0  0  1  0  0  3  0  0  0  0  0  0
  192.5910  173.9730  145.4430 C   0  0  0  0  0  0  0  0  0  0  0  0
  191.7080  173.3390  144.3980 C   0  0  1  0  0  3  0  0  0  0  0  0
  194.2660  172.1410  145.2800 C   0  0  0  0  0  2  0  0  0  0  0  0
  191.7450  170.8310  139.8100 C   0  0  2  0  0  3  0  0  0  0  0  0
  193.4910  168.9500  140.8400 C   0  0  2  0  0  3  0  0  0  0  0  0
  192.1250  169.5870  138.9800 C   0  0  1  0  0  3  0  0  0  0  0  0
  192.7140  171.8210  139.6530 O   0  0  0  0  0  1  0  0  0  0  0  0
  195.1010  169.7150  142.3190 C   0  0  1  0  0  3  0  0  0  0  0  0
  192.2050  169.1810  141.6630 C   0  0  1  0  0  3  0  0  0  0  0  0
  192.4130  169.0380  143.1670 C   0  0  0  0  0  2  0  0  0  0  0  0
  194.4670  169.9460  141.0800 O   0  0  0  0  0  0  0  0  0  0  0  0
  191.5630  170.5130  141.2950 C   0  0  0  0  0  2  0  0  0  0  0  0
  193.9310  169.8880  143.7090 P   0  0  2  0  0  4  0  0  0  0  0  0
  193.2550  168.8480  139.4420 O   0  0  0  0  0  0  0  0  0  0  0  0
  191.0220  168.7400  138.8400 O   0  0  0  0  0  0  0  0  0  0  0  0
  190.0620  169.5140  138.1820 C   0  0  0  0  0  1  0  0  0  0  0  0
  193.5780  168.3040  145.5800 C   0  0  0  0  0  1  0  0  0  0  0  0
  194.5820  169.1340  145.0850 O   0  0  0  0  0  0  0  0  0  0  0  0
  195.8680  168.3900  142.3700 C   0  0  0  0  0  2  0  0  0  0  0  0
  197.5670  169.9090  143.0960 O   0  0  0  0  0  1  0  0  0  0  0  0
  197.3540  168.6370  142.5650 C   0  0  0  0  0  2  0  0  0  0  0  0
  190.6500  176.8600  145.8680 C   0  0  0  0  0  3  0  0  0  0  0  0
  189.7460  174.8840  146.9250 C   0  0  0  0  0  3  0  0  0  0  0  0
  190.8340  175.5600  146.3520 C   0  0  0  0  0  0  0  0  0  0  0  0
  188.3160  176.8010  146.5130 C   0  0  0  0  0  0  0  0  0  0  0  0
  189.3980  177.4770  145.9430 C   0  0  0  0  0  3  0  0  0  0  0  0
  188.4930  175.5010  147.0040 C   0  0  0  0  0  3  0  0  0  0  0  0
  187.0440  177.4510  146.5800 N   0  0  0  0  0  2  0  0  0  0  0  0
  186.2650  177.4260  147.7450 N   0  0  0  0  0  2  0  0  0  0  0  0
  185.2210  178.4150  147.5750 C   0  0  0  0  0  1  0  0  0  0  0  0
  191.8220  174.0530  143.1740 O   0  0  0  0  0  0  0  0  0  0  0  0
  190.7100  174.3450  142.3780 C   0  0  0  0  0  0  0  0  0  0  0  0
  190.7000  174.0510  141.1520 O   0  0  0  0  0  0  0  0  0  0  0  0
  189.5230  175.0130  142.9770 C   0  0  0  0  0  2  0  0  0  0  0  0
  188.4140  175.1220  141.9440 C   0  0  0  0  0  2  0  0  0  0  0  0
  188.1700  176.5750  141.5520 C   0  0  2  0  0  3  0  0  0  0  0  0
  189.0030  177.5250  142.4100 C   0  0  0  0  0  1  0  0  0  0  0  0
  186.2490  177.9120  140.5660 C   0  0  1  0  0  3  0  0  0  0  0  0
  186.2500  177.3360  143.0400 C   0  0  0  0  0  2  0  0  0  0  0  0
  184.7310  178.0160  140.5600 C   0  0  0  0  0  2  0  0  0  0  0  0
  184.3010  178.0820  144.1930 O   0  0  0  0  0  0  0  0  0  0  0  0
  186.6720  176.8930  141.6290 C   0  0  2  0  0  3  0  0  0  0  0  0
  186.6740  177.5050  139.3150 F   0  0  0  0  0  0  0  0  0  0  0  0
  184.2330  178.3740  141.8830 N   0  0  0  0  0  2  0  0  0  0  0  0
  184.8680  177.9160  143.0800 C   0  0  0  0  0  0  0  0  0  0  0  0
  2  6  1  0  0  0  0
  3 28  1  0  0  0  0
  4  2  1  1  0  0  0
  4  7  1  0  0  0  0
  5  1  1  0  0  0  0
  5  3  2  0  0  0  0
  6 35  1  6  0  0  0
  6  5  1  0  0  0  0
  7  1  1  0  0  0  0
  8 11  1  1  0  0  0
  8 16  1  0  0  0  0
  9 18  1  6  0  0  0
  9 15  1  0  0  0  0
  9 13  1  0  0  0  0
 10 19  1  1  0  0  0
 10 18  1  0  0  0  0
 10  8  1  0  0  0  0
 12 23  1  6  0  0  0
 12 17  1  0  0  0  0
 13 16  1  1  0  0  0
 13 14  1  0  0  0  0
 14 17  1  0  0  0  0
 15 12  1  0  0  0  0
 17  4  1  0  0  0  0
 17 22  1  1  0  0  0
 20 19  1  0  0  0  0
 22 21  1  0  0  0  0
 23 25  1  0  0  0  0
 25 24  1  0  0  0  0
 26 30  2  0  0  0  0
 26 28  1  0  0  0  0
 27 31  1  0  0  0  0
 28 27  2  0  0  0  0
 29 32  1  0  0  0  0
 29 31  2  0  0  0  0
 30 29  1  0  0  0  0
 32 33  1  0  0  0  0
 34 33  1  0  0  0  0
 36 38  1  0  0  0  0
 36 35  1  0  0  0  0
 37 36  2  0  0  0  0
 39 38  1  0  0  0  0
 40 39  1  0  0  0  0
 40 41  1  1  0  0  0
 42 47  1  6  0  0  0
 42 46  1  0  0  0  0
 43 49  1  0  0  0  0
 44 42  1  0  0  0  0
 44 48  1  0  0  0  0
 46 40  1  1  0  0  0
 46 43  1  0  0  0  0
 48 49  1  0  0  0  0
 49 45  2  0  0  0  0
M  END
>  <MODEL>
4

>  <REMARK>
 VINA RESULT:      -6.6      2.584      3.946
  Name = 
  14 active torsions:
  status: ('A' for Active; 'I' for Inactive)
    1  A    between atoms: C_4  and  C_10
    2  A    between atoms: C_4  and  C_20
    3  A    between atoms: C_5  and  C_22
    4  A    between atoms: C_5  and  C_44
    5  A    between atoms: O_7  and  C_16
    6  A    between atoms: C_10  and  O_46
    7  A    between atoms: N_11  and  N_14
    8  A    between atoms: N_11  and  C_28
    9  A    between atoms: C_13  and  C_20
   10  A    between atoms: C_13  and  C_30
   11  A    between atoms: C_27  and  C_29
   12  A    between atoms: C_32  and  P_41
   13  A    between atoms: P_41  and  O_42
   14  A    between atoms: C_43  and  O_46
                            x       y       z     vdW  Elec       q    Type
                         _______ _______ _______ _____ _____    ______ ____

>  <TORSDO>
F 14

$$$$
=
 OpenBabel11062420253D

 49 53  0  0  1  0  0  0  0  0999 V2000
  193.5060  172.1700  140.7090 C   0  0  0  0  0  2  0  0  0  0  0  0
  192.7550  174.9100  141.5620 C   0  0  0  0  0  2  0  0  0  0  0  0
  192.3660  172.6510  138.6230 C   0  0  0  0  0  3  0  0  0  0  0  0
  193.4760  173.9320  142.4860 C   0  0  1  0  0  3  0  0  0  0  0  0
  192.6110  173.0430  139.8790 C   0  0  0  0  0  0  0  0  0  0  0  0
  191.8680  174.1720  140.5490 C   0  0  1  0  0  3  0  0  0  0  0  0
  194.3610  173.0140  141.6470 C   0  0  0  0  0  2  0  0  0  0  0  0
  190.3700  175.2230  145.7070 C   0  0  2  0  0  3  0  0  0  0  0  0
  193.0480  175.4080  146.3670 C   0  0  2  0  0  3  0  0  0  0  0  0
  190.7920  175.6970  147.1130 C   0  0  1  0  0  3  0  0  0  0  0  0
  190.3520  173.8300  145.6600 O   0  0  0  0  0  1  0  0  0  0  0  0
  194.4900  173.9300  145.3180 C   0  0  1  0  0  3  0  0  0  0  0  0
  192.6000  176.2760  145.1720 C   0  0  1  0  0  3  0  0  0  0  0  0
  193.6690  176.4260  144.0960 C   0  0  0  0  0  2  0  0  0  0  0  0
  193.2610  174.0580  146.0000 O   0  0  0  0  0  0  0  0  0  0  0  0
  191.2790  175.7690  144.6050 C   0  0  0  0  0  2  0  0  0  0  0  0
  194.4700  174.8300  143.7310 P   0  0  2  0  0  4  0  0  0  0  0  0
  192.1530  175.4600  147.4710 O   0  0  0  0  0  0  0  0  0  0  0  0
  190.4780  177.0480  147.2860 O   0  0  0  0  0  0  0  0  0  0  0  0
  189.1300  177.1470  146.9300 C   0  0  0  0  0  1  0  0  0  0  0  0
  196.2650  176.4470  143.1860 C   0  0  0  0  0  1  0  0  0  0  0  0
  196.0660  175.0680  143.2030 O   0  0  0  0  0  0  0  0  0  0  0  0
  195.7020  174.3000  146.1780 C   0  0  0  0  0  2  0  0  0  0  0  0
  196.1710  171.9970  145.7350 O   0  0  0  0  0  1  0  0  0  0  0  0
  196.7510  173.2020  146.1300 C   0  0  0  0  0  2  0  0  0  0  0  0
  190.1980  172.6800  137.4550 C   0  0  0  0  0  3  0  0  0  0  0  0
  191.8060  174.3830  136.8600 C   0  0  0  0  0  3  0  0  0  0  0  0
  191.4580  173.2630  137.6300 C   0  0  0  0  0  0  0  0  0  0  0  0
  189.6380  174.3270  135.7690 C   0  0  0  0  0  0  0  0  0  0  0  0
  189.2910  173.2100  136.5330 C   0  0  0  0  0  3  0  0  0  0  0  0
  190.9000  174.9140  135.9350 C   0  0  0  0  0  3  0  0  0  0  0  0
  188.6950  174.8530  134.8320 N   0  0  0  0  0  2  0  0  0  0  0  0
  188.3380  176.2080  134.8300 N   0  0  0  0  0  2  0  0  0  0  0  0
  187.1010  176.3190  135.5740 C   0  0  0  0  0  1  0  0  0  0  0  0
  190.6980  173.6700  141.1800 O   0  0  0  0  0  0  0  0  0  0  0  0
  189.4630  174.3170  141.0780 C   0  0  0  0  0  0  0  0  0  0  0  0
  188.6430  174.0030  140.1740 O   0  0  0  0  0  0  0  0  0  0  0  0
  189.1080  175.3940  142.0420 C   0  0  0  0  0  2  0  0  0  0  0  0
  187.6150  175.3610  142.3270 C   0  0  0  0  0  2  0  0  0  0  0  0
  186.9570  176.6870  141.9570 C   0  0  2  0  0  3  0  0  0  0  0  0
  187.9950  177.8020  141.8360 C   0  0  0  0  0  1  0  0  0  0  0  0
  185.3440  178.4590  142.7970 C   0  0  1  0  0  3  0  0  0  0  0  0
  186.3150  176.7620  144.4200 C   0  0  0  0  0  2  0  0  0  0  0  0
  184.1240  178.6550  143.6850 C   0  0  0  0  0  2  0  0  0  0  0  0
  185.4870  176.9890  146.6440 O   0  0  0  0  0  0  0  0  0  0  0  0
  185.8620  177.0280  142.9740 C   0  0  2  0  0  3  0  0  0  0  0  0
  184.9790  178.6790  141.4820 F   0  0  0  0  0  0  0  0  0  0  0  0
  184.4460  178.3620  145.0770 N   0  0  0  0  0  2  0  0  0  0  0  0
  185.3810  177.3420  145.4390 C   0  0  0  0  0  0  0  0  0  0  0  0
  1  7  1  0  0  0  0
  3  5  2  0  0  0  0
  4  2  1  6  0  0  0
  4 17  1  0  0  0  0
  5  6  1  0  0  0  0
  5  1  1  0  0  0  0
  6 35  1  1  0  0  0
  6  2  1  0  0  0  0
  7  4  1  0  0  0  0
  8 11  1  1  0  0  0
  8 10  1  0  0  0  0
  9 15  1  6  0  0  0
  9 18  1  0  0  0  0
 10 19  1  6  0  0  0
 10 18  1  0  0  0  0
 12 15  1  0  0  0  0
 12 23  1  1  0  0  0
 13 14  1  6  0  0  0
 13  9  1  0  0  0  0
 16 13  1  0  0  0  0
 16  8  1  0  0  0  0
 17 22  1  6  0  0  0
 17 14  1  0  0  0  0
 17 12  1  0  0  0  0
 20 19  1  0  0  0  0
 21 22  1  0  0  0  0
 24 25  1  0  0  0  0
 25 23  1  0  0  0  0
 26 28  1  0  0  0  0
 27 28  2  0  0  0  0
 28  3  1  0  0  0  0
 29 31  2  0  0  0  0
 29 30  1  0  0  0  0
 30 26  2  0  0  0  0
 31 27  1  0  0  0  0
 32 29  1  0  0  0  0
 33 32  1  0  0  0  0
 33 34  1  0  0  0  0
 36 35  1  0  0  0  0
 36 38  1  0  0  0  0
 37 36  2  0  0  0  0
 38 39  1  0  0  0  0
 40 41  1  1  0  0  0
 40 39  1  0  0  0  0
 42 47  1  6  0  0  0
 42 46  1  0  0  0  0
 42 44  1  0  0  0  0
 43 49  1  0  0  0  0
 44 48  1  0  0  0  0
 46 40  1  6  0  0  0
 46 43  1  0  0  0  0
 48 49  1  0  0  0  0
 49 45  2  0  0  0  0
M  END
>  <MODEL>
5

>  <REMARK>
 VINA RESULT:      -6.5      3.556      6.731
  Name = 
  14 active torsions:
  status: ('A' for Active; 'I' for Inactive)
    1  A    between atoms: C_4  and  C_10
    2  A    between atoms: C_4  and  C_20
    3  A    between atoms: C_5  and  C_22
    4  A    between atoms: C_5  and  C_44
    5  A    between atoms: O_7  and  C_16
    6  A    between atoms: C_10  and  O_46
    7  A    between atoms: N_11  and  N_14
    8  A    between atoms: N_11  and  C_28
    9  A    between atoms: C_13  and  C_20
   10  A    between atoms: C_13  and  C_30
   11  A    between atoms: C_27  and  C_29
   12  A    between atoms: C_32  and  P_41
   13  A    between atoms: P_41  and  O_42
   14  A    between atoms: C_43  and  O_46
                            x       y       z     vdW  Elec       q    Type
                         _______ _______ _______ _____ _____    ______ ____

>  <TORSDO>
F 14

$$$$
=
 OpenBabel11062420253D

 49 53  0  0  1  0  0  0  0  0999 V2000
  192.4860  176.6890  143.6910 C   0  0  0  0  0  2  0  0  0  0  0  0
  191.6850  173.8400  143.8720 C   0  0  0  0  0  2  0  0  0  0  0  0
  190.3760  177.2130  144.7670 C   0  0  0  0  0  3  0  0  0  0  0  0
  192.9680  174.2880  143.1770 C   0  0  1  0  0  3  0  0  0  0  0  0
  191.1270  176.2750  144.1770 C   0  0  0  0  0  0  0  0  0  0  0  0
  190.5960  174.9180  143.7870 C   0  0  1  0  0  3  0  0  0  0  0  0
  193.4860  175.5520  143.8580 C   0  0  0  0  0  2  0  0  0  0  0  0
  196.1540  175.6320  140.0590 C   0  0  2  0  0  3  0  0  0  0  0  0
  196.8480  173.6010  141.8010 C   0  0  2  0  0  3  0  0  0  0  0  0
  197.5670  175.0140  140.0080 C   0  0  1  0  0  3  0  0  0  0  0  0
  196.1030  176.6210  141.0400 O   0  0  0  0  0  1  0  0  0  0  0  0
  195.8110  173.5970  143.8720 C   0  0  1  0  0  3  0  0  0  0  0  0
  195.6500  173.2980  140.8740 C   0  0  1  0  0  3  0  0  0  0  0  0
  194.5880  172.4190  141.5240 C   0  0  0  0  0  2  0  0  0  0  0  0
  196.4780  174.3910  142.9140 O   0  0  0  0  0  0  0  0  0  0  0  0
  195.0660  174.5890  140.3130 C   0  0  0  0  0  2  0  0  0  0  0  0
  194.2270  172.9630  143.2260 P   0  0  2  0  0  4  0  0  0  0  0  0
  197.9410  174.2140  141.1290 O   0  0  0  0  0  0  0  0  0  0  0  0
  197.7400  174.2930  138.8230 O   0  0  0  0  0  0  0  0  0  0  0  0
  197.6820  175.2540  137.8110 C   0  0  0  0  0  1  0  0  0  0  0  0
  193.8020  170.5270  143.3620 C   0  0  0  0  0  1  0  0  0  0  0  0
  193.7190  171.6530  144.1790 O   0  0  0  0  0  0  0  0  0  0  0  0
  196.6880  172.4830  144.4520 C   0  0  0  0  0  2  0  0  0  0  0  0
  196.6700  174.0090  146.2950 O   0  0  0  0  0  1  0  0  0  0  0  0
  196.8800  172.6750  145.9470 C   0  0  0  0  0  2  0  0  0  0  0  0
  187.9710  177.6220  144.4310 C   0  0  0  0  0  3  0  0  0  0  0  0
  188.6380  176.5210  146.4760 C   0  0  0  0  0  3  0  0  0  0  0  0
  188.9820  177.1050  145.2480 C   0  0  0  0  0  0  0  0  0  0  0  0
  186.2900  176.9670  146.0480 C   0  0  0  0  0  0  0  0  0  0  0  0
  186.6320  177.5510  144.8250 C   0  0  0  0  0  3  0  0  0  0  0  0
  187.2980  176.4510  146.8740 C   0  0  0  0  0  3  0  0  0  0  0  0
  184.9140  176.9050  146.4320 N   0  0  0  0  0  2  0  0  0  0  0  0
  184.1470  178.0640  146.6130 N   0  0  0  0  0  2  0  0  0  0  0  0
  184.8990  178.9340  147.4930 C   0  0  0  0  0  1  0  0  0  0  0  0
  190.0470  174.9750  142.4770 O   0  0  0  0  0  0  0  0  0  0  0  0
  188.8100  174.4050  142.1650 C   0  0  0  0  0  0  0  0  0  0  0  0
  187.7610  175.1050  142.1560 O   0  0  0  0  0  0  0  0  0  0  0  0
  188.7200  172.9550  141.8430 C   0  0  0  0  0  2  0  0  0  0  0  0
  189.2350  172.7050  140.4340 C   0  0  0  0  0  2  0  0  0  0  0  0
  190.7010  172.2850  140.4530 C   0  0  2  0  0  3  0  0  0  0  0  0
  191.5800  173.3210  139.7540 C   0  0  0  0  0  1  0  0  0  0  0  0
  191.1800  169.8310  140.8940 C   0  0  1  0  0  3  0  0  0  0  0  0
  191.8730  170.8770  138.6850 C   0  0  0  0  0  2  0  0  0  0  0  0
  191.1040  168.4530  140.2520 C   0  0  0  0  0  2  0  0  0  0  0  0
  192.8670  169.3300  137.1670 O   0  0  0  0  0  0  0  0  0  0  0  0
  190.8530  170.8900  139.8360 C   0  0  2  0  0  3  0  0  0  0  0  0
  190.2690  169.8910  141.9320 F   0  0  0  0  0  0  0  0  0  0  0  0
  191.9990  168.3690  139.1030 N   0  0  0  0  0  2  0  0  0  0  0  0
  192.2470  169.4920  138.2530 C   0  0  0  0  0  0  0  0  0  0  0  0
  1  7  1  0  0  0  0
  1  5  1  0  0  0  0
  3 28  1  0  0  0  0
  4 17  1  0  0  0  0
  4  7  1  1  0  0  0
  4  2  1  0  0  0  0
  5  3  2  0  0  0  0
  6 35  1  6  0  0  0
  6  2  1  0  0  0  0
  6  5  1  0  0  0  0
  8 16  1  0  0  0  0
  8 11  1  1  0  0  0
  9 18  1  6  0  0  0
  9 15  1  0  0  0  0
 10 19  1  6  0  0  0
 10  8  1  0  0  0  0
 10 18  1  0  0  0  0
 12 23  1  6  0  0  0
 13 16  1  1  0  0  0
 13 14  1  0  0  0  0
 13  9  1  0  0  0  0
 14 17  1  0  0  0  0
 15 12  1  0  0  0  0
 17 12  1  0  0  0  0
 17 22  1  1  0  0  0
 20 19  1  0  0  0  0
 21 22  1  0  0  0  0
 23 25  1  0  0  0  0
 25 24  1  0  0  0  0
 26 30  2  0  0  0  0
 26 28  1  0  0  0  0
 27 31  1  0  0  0  0
 28 27  2  0  0  0  0
 29 32  1  0  0  0  0
 29 31  2  0  0  0  0
 30 29  1  0  0  0  0
 32 33  1  0  0  0  0
 33 34  1  0  0  0  0
 36 35  1  0  0  0  0
 37 36  2  0  0  0  0
 38 36  1  0  0  0  0
 39 40  1  0  0  0  0
 39 38  1  0  0  0  0
 40 41  1  6  0  0  0
 42 47  1  1  0  0  0
 43 46  1  0  0  0  0
 44 42  1  0  0  0  0
 45 49  2  0  0  0  0
 46 40  1  1  0  0  0
 46 42  1  0  0  0  0
 48 44  1  0  0  0  0
 49 43  1  0  0  0  0
 49 48  1  0  0  0  0
M  END
>  <MODEL>
6

>  <REMARK>
 VINA RESULT:      -6.3      3.441      6.140
  Name = 
  14 active torsions:
  status: ('A' for Active; 'I' for Inactive)
    1  A    between atoms: C_4  and  C_10
    2  A    between atoms: C_4  and  C_20
    3  A    between atoms: C_5  and  C_22
    4  A    between atoms: C_5  and  C_44
    5  A    between atoms: O_7  and  C_16
    6  A    between atoms: C_10  and  O_46
    7  A    between atoms: N_11  and  N_14
    8  A    between atoms: N_11  and  C_28
    9  A    between atoms: C_13  and  C_20
   10  A    between atoms: C_13  and  C_30
   11  A    between atoms: C_27  and  C_29
   12  A    between atoms: C_32  and  P_41
   13  A    between atoms: P_41  and  O_42
   14  A    between atoms: C_43  and  O_46
                            x       y       z     vdW  Elec       q    Type
                         _______ _______ _______ _____ _____    ______ ____

>  <TORSDO>
F 14

$$$$
=
 OpenBabel11062420253D

 49 53  0  0  1  0  0  0  0  0999 V2000
  193.2760  174.1250  143.2190 C   0  0  0  0  0  2  0  0  0  0  0  0
  191.0380  172.2940  142.5640 C   0  0  0  0  0  2  0  0  0  0  0  0
  191.7400  175.2490  144.7230 C   0  0  0  0  0  3  0  0  0  0  0  0
  192.3930  172.2130  141.8670 C   0  0  1  0  0  3  0  0  0  0  0  0
  191.8870  174.3470  143.7450 C   0  0  0  0  0  0  0  0  0  0  0  0
  190.7230  173.7270  143.0130 C   0  0  1  0  0  3  0  0  0  0  0  0
  193.4800  172.6630  142.8410 C   0  0  0  0  0  2  0  0  0  0  0  0
  191.1300  172.3100  137.3860 C   0  0  2  0  0  3  0  0  0  0  0  0
  192.6180  170.1450  138.2480 C   0  0  2  0  0  3  0  0  0  0  0  0
  191.5510  171.2100  136.3890 C   0  0  1  0  0  3  0  0  0  0  0  0
  192.1620  173.2350  137.5380 O   0  0  0  0  0  1  0  0  0  0  0  0
  194.0530  170.5040  140.0310 C   0  0  1  0  0  3  0  0  0  0  0  0
  191.2470  170.3220  138.9360 C   0  0  1  0  0  3  0  0  0  0  0  0
  191.2440  169.8950  140.4000 C   0  0  0  0  0  2  0  0  0  0  0  0
  193.6050  171.0030  138.7890 O   0  0  0  0  0  0  0  0  0  0  0  0
  190.7320  171.7450  138.7500 C   0  0  0  0  0  2  0  0  0  0  0  0
  192.7170  170.5140  141.2750 P   0  0  2  0  0  4  0  0  0  0  0  0
  192.5680  170.3150  136.8370 O   0  0  0  0  0  0  0  0  0  0  0  0
  190.4330  170.4900  135.9580 O   0  0  0  0  0  0  0  0  0  0  0  0
  189.6560  171.4230  135.2650 C   0  0  0  0  0  1  0  0  0  0  0  0
  192.1650  168.4760  142.5700 C   0  0  0  0  0  1  0  0  0  0  0  0
  193.1360  169.4760  142.5520 O   0  0  0  0  0  0  0  0  0  0  0  0
  194.7340  169.1360  139.9240 C   0  0  0  0  0  2  0  0  0  0  0  0
  196.1740  168.3850  141.6800 O   0  0  0  0  0  1  0  0  0  0  0  0
  196.1250  169.1800  140.5350 C   0  0  0  0  0  2  0  0  0  0  0  0
  190.0630  177.0230  145.0460 C   0  0  0  0  0  3  0  0  0  0  0  0
  189.7300  174.9470  146.2360 C   0  0  0  0  0  3  0  0  0  0  0  0
  190.4900  175.7260  145.3510 C   0  0  0  0  0  0  0  0  0  0  0  0
  188.1320  176.7570  146.4840 C   0  0  0  0  0  0  0  0  0  0  0  0
  188.8890  177.5350  145.6040 C   0  0  0  0  0  3  0  0  0  0  0  0
  188.5560  175.4590  146.7990 C   0  0  0  0  0  3  0  0  0  0  0  0
  186.9340  177.3010  147.0440 N   0  0  0  0  0  2  0  0  0  0  0  0
  186.9630  178.3770  147.9420 N   0  0  0  0  0  2  0  0  0  0  0  0
  185.6950  179.0650  147.8170 C   0  0  0  0  0  1  0  0  0  0  0  0
  190.3690  174.5360  141.9000 O   0  0  0  0  0  0  0  0  0  0  0  0
  189.1440  174.3990  141.2420 C   0  0  0  0  0  0  0  0  0  0  0  0
  189.0900  174.3480  139.9830 O   0  0  0  0  0  0  0  0  0  0  0  0
  187.8840  174.3140  142.0290 C   0  0  0  0  0  2  0  0  0  0  0  0
  187.6650  175.6080  142.7960 C   0  0  0  0  0  2  0  0  0  0  0  0
  187.2120  176.7270  141.8640 C   0  0  2  0  0  3  0  0  0  0  0  0
  188.1780  177.9090  141.9120 C   0  0  0  0  0  1  0  0  0  0  0  0
  185.1930  178.0960  141.1570 C   0  0  1  0  0  3  0  0  0  0  0  0
  185.6680  177.7250  143.6250 C   0  0  0  0  0  2  0  0  0  0  0  0
  183.7110  178.2940  141.4410 C   0  0  0  0  0  2  0  0  0  0  0  0
  184.0270  178.6830  145.0660 O   0  0  0  0  0  0  0  0  0  0  0  0
  185.7760  177.1430  142.2050 C   0  0  2  0  0  3  0  0  0  0  0  0
  185.3380  177.5630  139.8900 F   0  0  0  0  0  0  0  0  0  0  0  0
  183.5070  178.7890  142.7980 N   0  0  0  0  0  2  0  0  0  0  0  0
  184.3500  178.3910  143.8830 C   0  0  0  0  0  0  0  0  0  0  0  0
  1  5  1  0  0  0  0
  2  6  1  0  0  0  0
  3 28  1  0  0  0  0
  4  2  1  1  0  0  0
  4  7  1  0  0  0  0
  5  3  2  0  0  0  0
  6 35  1  6  0  0  0
  6  5  1  0  0  0  0
  7  1  1  0  0  0  0
  8 11  1  1  0  0  0
  8 16  1  0  0  0  0
  9 18  1  6  0  0  0
  9 15  1  0  0  0  0
  9 13  1  0  0  0  0
 10 19  1  1  0  0  0
 10 18  1  0  0  0  0
 10  8  1  0  0  0  0
 12 23  1  6  0  0  0
 12 17  1  0  0  0  0
 13 16  1  1  0  0  0
 13 14  1  0  0  0  0
 14 17  1  0  0  0  0
 15 12  1  0  0  0  0
 17  4  1  0  0  0  0
 17 22  1  1  0  0  0
 20 19  1  0  0  0  0
 22 21  1  0  0  0  0
 23 25  1  0  0  0  0
 25 24  1  0  0  0  0
 26 28  2  0  0  0  0
 26 30  1  0  0  0  0
 27 31  2  0  0  0  0
 28 27  1  0  0  0  0
 29 31  1  0  0  0  0
 29 32  1  0  0  0  0
 30 29  2  0  0  0  0
 32 33  1  0  0  0  0
 34 33  1  0  0  0  0
 36 35  1  0  0  0  0
 36 38  1  0  0  0  0
 37 36  2  0  0  0  0
 38 39  1  0  0  0  0
 40 41  1  1  0  0  0
 40 39  1  0  0  0  0
 42 47  1  6  0  0  0
 42 44  1  0  0  0  0
 42 46  1  0  0  0  0
 43 49  1  0  0  0  0
 44 48  1  0  0  0  0
 46 40  1  6  0  0  0
 46 43  1  0  0  0  0
 48 49  1  0  0  0  0
 49 45  2  0  0  0  0
M  END
>  <MODEL>
7

>  <REMARK>
 VINA RESULT:      -6.3      3.428      4.916
  Name = 
  14 active torsions:
  status: ('A' for Active; 'I' for Inactive)
    1  A    between atoms: C_4  and  C_10
    2  A    between atoms: C_4  and  C_20
    3  A    between atoms: C_5  and  C_22
    4  A    between atoms: C_5  and  C_44
    5  A    between atoms: O_7  and  C_16
    6  A    between atoms: C_10  and  O_46
    7  A    between atoms: N_11  and  N_14
    8  A    between atoms: N_11  and  C_28
    9  A    between atoms: C_13  and  C_20
   10  A    between atoms: C_13  and  C_30
   11  A    between atoms: C_27  and  C_29
   12  A    between atoms: C_32  and  P_41
   13  A    between atoms: P_41  and  O_42
   14  A    between atoms: C_43  and  O_46
                            x       y       z     vdW  Elec       q    Type
                         _______ _______ _______ _____ _____    ______ ____

>  <TORSDO>
F 14

$$$$
=
 OpenBabel11062420253D

 49 53  0  0  1  0  0  0  0  0999 V2000
  190.1710  171.9230  143.1680 C   0  0  0  0  0  2  0  0  0  0  0  0
  190.7790  174.8250  143.2200 C   0  0  0  0  0  2  0  0  0  0  0  0
  190.3660  172.0610  140.7550 C   0  0  0  0  0  3  0  0  0  0  0  0
  190.4370  174.0370  144.4810 C   0  0  1  0  0  3  0  0  0  0  0  0
  190.2890  172.7330  141.9090 C   0  0  0  0  0  0  0  0  0  0  0  0
  190.0950  174.2270  141.9830 C   0  0  1  0  0  3  0  0  0  0  0  0
  190.9170  172.5970  144.3130 C   0  0  0  0  0  2  0  0  0  0  0  0
  194.6180  175.4420  142.9880 C   0  0  2  0  0  3  0  0  0  0  0  0
  193.7300  176.4260  145.4140 C   0  0  2  0  0  3  0  0  0  0  0  0
  195.4760  176.4530  143.7770 C   0  0  1  0  0  3  0  0  0  0  0  0
  193.6660  176.1170  142.2270 O   0  0  0  0  0  1  0  0  0  0  0  0
  191.4370  176.5990  145.6990 C   0  0  1  0  0  3  0  0  0  0  0  0
  193.9010  174.8930  145.3450 C   0  0  1  0  0  3  0  0  0  0  0  0
  192.8780  174.1300  146.1790 C   0  0  0  0  0  2  0  0  0  0  0  0
  192.5170  176.8580  144.8270 O   0  0  0  0  0  0  0  0  0  0  0  0
  193.9300  174.4210  143.8960 C   0  0  0  0  0  2  0  0  0  0  0  0
  191.2010  174.8070  145.9530 P   0  0  2  0  0  4  0  0  0  0  0  0
  194.8140  177.1420  144.8370 O   0  0  0  0  0  0  0  0  0  0  0  0
  196.6370  175.8380  144.2550 O   0  0  0  0  0  0  0  0  0  0  0  0
  197.4470  175.6850  143.1260 C   0  0  0  0  0  1  0  0  0  0  0  0
  188.9340  174.6800  146.9430 C   0  0  0  0  0  1  0  0  0  0  0  0
  190.2620  174.5600  147.3470 O   0  0  0  0  0  0  0  0  0  0  0  0
  191.5300  177.3650  147.0220 C   0  0  0  0  0  2  0  0  0  0  0  0
  190.2620  178.5970  148.6340 O   0  0  0  0  0  1  0  0  0  0  0  0
  190.1680  177.9040  147.4260 C   0  0  0  0  0  2  0  0  0  0  0  0
  189.3440  172.2510  138.5220 C   0  0  0  0  0  3  0  0  0  0  0  0
  191.4200  173.4280  138.9000 C   0  0  0  0  0  3  0  0  0  0  0  0
  190.3940  172.6000  139.3790 C   0  0  0  0  0  0  0  0  0  0  0  0
  190.3310  173.5550  136.7340 C   0  0  0  0  0  0  0  0  0  0  0  0
  189.3090  172.7280  137.2090 C   0  0  0  0  0  3  0  0  0  0  0  0
  191.3890  173.9050  137.5850 C   0  0  0  0  0  3  0  0  0  0  0  0
  190.2760  174.0320  135.3880 N   0  0  0  0  0  2  0  0  0  0  0  0
  189.0600  174.1610  134.7020 N   0  0  0  0  0  2  0  0  0  0  0  0
  188.3780  175.3080  135.2650 C   0  0  0  0  0  1  0  0  0  0  0  0
  188.7070  174.5310  141.9800 O   0  0  0  0  0  0  0  0  0  0  0  0
  188.1350  175.3820  141.0300 C   0  0  0  0  0  0  0  0  0  0  0  0
  187.9780  175.0040  139.8370 O   0  0  0  0  0  0  0  0  0  0  0  0
  187.7070  176.7520  141.4220 C   0  0  0  0  0  2  0  0  0  0  0  0
  186.7220  176.6770  142.5770 C   0  0  0  0  0  2  0  0  0  0  0  0
  186.9400  177.8230  143.5590 C   0  0  2  0  0  3  0  0  0  0  0  0
  188.3740  177.8340  144.0830 C   0  0  0  0  0  1  0  0  0  0  0  0
  185.0310  178.9900  144.7590 C   0  0  1  0  0  3  0  0  0  0  0  0
  186.5760  177.4410  146.0500 C   0  0  0  0  0  2  0  0  0  0  0  0
  183.9070  178.7500  145.7570 C   0  0  0  0  0  2  0  0  0  0  0  0
  185.9700  177.1820  148.3420 O   0  0  0  0  0  0  0  0  0  0  0  0
  185.9130  177.7390  144.6950 C   0  0  2  0  0  3  0  0  0  0  0  0
  184.4780  179.2530  143.5200 F   0  0  0  0  0  0  0  0  0  0  0  0
  184.4460  178.3970  147.0660 N   0  0  0  0  0  2  0  0  0  0  0  0
  185.6450  177.6300  147.2090 C   0  0  0  0  0  0  0  0  0  0  0  0
  1  7  1  0  0  0  0
  3  5  2  0  0  0  0
  4  2  1  6  0  0  0
  4 17  1  0  0  0  0
  5  6  1  0  0  0  0
  5  1  1  0  0  0  0
  6 35  1  1  0  0  0
  6  2  1  0  0  0  0
  7  4  1  0  0  0  0
  8 11  1  1  0  0  0
  8 10  1  0  0  0  0
  8 16  1  0  0  0  0
  9 15  1  6  0  0  0
 10 19  1  1  0  0  0
 10 18  1  0  0  0  0
 12 17  1  0  0  0  0
 12 23  1  1  0  0  0
 13 16  1  6  0  0  0
 13  9  1  0  0  0  0
 13 14  1  0  0  0  0
 15 12  1  0  0  0  0
 17 14  1  0  0  0  0
 17 22  1  1  0  0  0
 18  9  1  0  0  0  0
 20 19  1  0  0  0  0
 21 22  1  0  0  0  0
 23 25  1  0  0  0  0
 25 24  1  0  0  0  0
 26 28  1  0  0  0  0
 27 28  2  0  0  0  0
 28  3  1  0  0  0  0
 29 30  1  0  0  0  0
 29 31  2  0  0  0  0
 30 26  2  0  0  0  0
 31 27  1  0  0  0  0
 32 29  1  0  0  0  0
 33 34  1  0  0  0  0
 33 32  1  0  0  0  0
 36 38  1  0  0  0  0
 36 35  1  0  0  0  0
 37 36  2  0  0  0  0
 38 39  1  0  0  0  0
 39 40  1  0  0  0  0
 40 41  1  1  0  0  0
 42 47  1  6  0  0  0
 42 44  1  0  0  0  0
 43 49  1  0  0  0  0
 44 48  1  0  0  0  0
 46 40  1  6  0  0  0
 46 42  1  0  0  0  0
 46 43  1  0  0  0  0
 48 49  1  0  0  0  0
 49 45  2  0  0  0  0
M  END
>  <MODEL>
8

>  <REMARK>
 VINA RESULT:      -6.2      3.766      7.192
  Name = 
  14 active torsions:
  status: ('A' for Active; 'I' for Inactive)
    1  A    between atoms: C_4  and  C_10
    2  A    between atoms: C_4  and  C_20
    3  A    between atoms: C_5  and  C_22
    4  A    between atoms: C_5  and  C_44
    5  A    between atoms: O_7  and  C_16
    6  A    between atoms: C_10  and  O_46
    7  A    between atoms: N_11  and  N_14
    8  A    between atoms: N_11  and  C_28
    9  A    between atoms: C_13  and  C_20
   10  A    between atoms: C_13  and  C_30
   11  A    between atoms: C_27  and  C_29
   12  A    between atoms: C_32  and  P_41
   13  A    between atoms: P_41  and  O_42
   14  A    between atoms: C_43  and  O_46
                            x       y       z     vdW  Elec       q    Type
                         _______ _______ _______ _____ _____    ______ ____

>  <TORSDO>
F 14

$$$$
=
 OpenBabel11062420253D

 49 53  0  0  1  0  0  0  0  0999 V2000
  189.4000  177.9020  142.6450 C   0  0  0  0  0  2  0  0  0  0  0  0
  188.3590  175.2810  143.5610 C   0  0  0  0  0  2  0  0  0  0  0  0
  187.0890  178.5400  142.2750 C   0  0  0  0  0  3  0  0  0  0  0  0
  189.8520  175.5740  143.4440 C   0  0  1  0  0  3  0  0  0  0  0  0
  187.9440  177.5480  142.5490 C   0  0  0  0  0  0  0  0  0  0  0  0
  187.5480  176.0920  142.5420 C   0  0  1  0  0  3  0  0  0  0  0  0
  190.0890  177.0590  143.7110 C   0  0  0  0  0  2  0  0  0  0  0  0
  194.2080  175.7300  141.8030 C   0  0  2  0  0  3  0  0  0  0  0  0
  193.8410  174.7590  144.3660 C   0  0  2  0  0  3  0  0  0  0  0  0
  195.4220  175.3040  142.6530 C   0  0  1  0  0  3  0  0  0  0  0  0
  193.8440  177.0390  142.1170 O   0  0  0  0  0  1  0  0  0  0  0  0
  192.0110  175.5610  145.5380 C   0  0  1  0  0  3  0  0  0  0  0  0
  193.1420  173.9560  143.2470 C   0  0  1  0  0  3  0  0  0  0  0  0
  191.8110  173.3480  143.6770 C   0  0  0  0  0  2  0  0  0  0  0  0
  193.1130  175.9160  144.7310 O   0  0  0  0  0  0  0  0  0  0  0  0
  193.0080  174.7990  141.9840 C   0  0  0  0  0  2  0  0  0  0  0  0
  190.8080  174.5450  144.6150 P   0  0  2  0  0  4  0  0  0  0  0  0
  195.1780  175.1230  144.0480 O   0  0  0  0  0  0  0  0  0  0  0  0
  196.0130  174.1570  142.1170 O   0  0  0  0  0  0  0  0  0  0  0  0
  196.5930  174.5840  140.9190 C   0  0  0  0  0  1  0  0  0  0  0  0
  189.6930  172.4300  145.2620 C   0  0  0  0  0  1  0  0  0  0  0  0
  189.7930  173.7440  145.7160 O   0  0  0  0  0  0  0  0  0  0  0  0
  192.4170  174.9140  146.8660 C   0  0  0  0  0  2  0  0  0  0  0  0
  191.4830  176.8390  147.9360 O   0  0  0  0  0  1  0  0  0  0  0  0
  191.5660  175.4480  148.0060 C   0  0  0  0  0  2  0  0  0  0  0  0
  185.2000  178.2930  140.7140 C   0  0  0  0  0  3  0  0  0  0  0  0
  184.6790  178.5450  143.0600 C   0  0  0  0  0  3  0  0  0  0  0  0
  185.6330  178.4580  142.0350 C   0  0  0  0  0  0  0  0  0  0  0  0
  182.8890  178.2920  141.4400 C   0  0  0  0  0  0  0  0  0  0  0  0
  183.8380  178.2060  140.4180 C   0  0  0  0  0  3  0  0  0  0  0  0
  183.3140  178.4610  142.7650 C   0  0  0  0  0  3  0  0  0  0  0  0
  181.5000  178.2000  141.1150 N   0  0  0  0  0  2  0  0  0  0  0  0
  180.5520  179.0570  141.6910 N   0  0  0  0  0  2  0  0  0  0  0  0
  179.3080  178.3180  141.7670 C   0  0  0  0  0  1  0  0  0  0  0  0
  187.7050  175.5580  141.2340 O   0  0  0  0  0  0  0  0  0  0  0  0
  188.1920  174.2660  141.0140 C   0  0  0  0  0  0  0  0  0  0  0  0
  187.5630  173.2590  141.4380 O   0  0  0  0  0  0  0  0  0  0  0  0
  189.4680  174.0700  140.2730 C   0  0  0  0  0  2  0  0  0  0  0  0
  190.0000  172.6680  140.5220 C   0  0  0  0  0  2  0  0  0  0  0  0
  190.9100  172.2180  139.3840 C   0  0  2  0  0  3  0  0  0  0  0  0
  192.1530  171.5100  139.9200 C   0  0  0  0  0  1  0  0  0  0  0  0
  190.8000  173.2140  137.0500 C   0  0  1  0  0  3  0  0  0  0  0  0
  192.7660  173.7570  138.5650 C   0  0  0  0  0  2  0  0  0  0  0  0
  190.9910  174.5140  136.2850 C   0  0  0  0  0  2  0  0  0  0  0  0
  194.3170  175.2900  137.6010 O   0  0  0  0  0  0  0  0  0  0  0  0
  191.2680  173.4150  138.4960 C   0  0  2  0  0  3  0  0  0  0  0  0
  189.4610  172.8720  137.0220 F   0  0  0  0  0  0  0  0  0  0  0  0
  192.3820  174.9520  136.3500 N   0  0  0  0  0  2  0  0  0  0  0  0
  193.1910  174.7310  137.5080 C   0  0  0  0  0  0  0  0  0  0  0  0
  1  7  1  0  0  0  0
  3  5  2  0  0  0  0
  4  2  1  1  0  0  0
  4  7  1  0  0  0  0
  4 17  1  0  0  0  0
  5  1  1  0  0  0  0
  6 35  1  6  0  0  0
  6  5  1  0  0  0  0
  6  2  1  0  0  0  0
  8 16  1  0  0  0  0
  8 11  1  1  0  0  0
  8 10  1  0  0  0  0
  9 18  1  6  0  0  0
  9 15  1  0  0  0  0
 10 19  1  6  0  0  0
 10 18  1  0  0  0  0
 12 23  1  1  0  0  0
 13 16  1  6  0  0  0
 13 14  1  0  0  0  0
 13  9  1  0  0  0  0
 14 17  1  0  0  0  0
 15 12  1  0  0  0  0
 17 12  1  0  0  0  0
 17 22  1  1  0  0  0
 20 19  1  0  0  0  0
 21 22  1  0  0  0  0
 23 25  1  0  0  0  0
 24 25  1  0  0  0  0
 26 28  1  0  0  0  0
 28  3  1  0  0  0  0
 28 27  2  0  0  0  0
 29 31  2  0  0  0  0
 30 26  2  0  0  0  0
 30 29  1  0  0  0  0
 31 27  1  0  0  0  0
 32 29  1  0  0  0  0
 32 33  1  0  0  0  0
 33 34  1  0  0  0  0
 36 35  1  0  0  0  0
 36 37  2  0  0  0  0
 38 39  1  0  0  0  0
 38 36  1  0  0  0  0
 40 41  1  1  0  0  0
 40 39  1  0  0  0  0
 42 47  1  1  0  0  0
 42 46  1  0  0  0  0
 44 48  1  0  0  0  0
 44 42  1  0  0  0  0
 46 43  1  0  0  0  0
 46 40  1  1  0  0  0
 48 49  1  0  0  0  0
 49 45  2  0  0  0  0
 49 43  1  0  0  0  0
M  END
>  <MODEL>
9

>  <REMARK>
 VINA RESULT:      -6.2      3.411      7.072
  Name = 
  14 active torsions:
  status: ('A' for Active; 'I' for Inactive)
    1  A    between atoms: C_4  and  C_10
    2  A    between atoms: C_4  and  C_20
    3  A    between atoms: C_5  and  C_22
    4  A    between atoms: C_5  and  C_44
    5  A    between atoms: O_7  and  C_16
    6  A    between atoms: C_10  and  O_46
    7  A    between atoms: N_11  and  N_14
    8  A    between atoms: N_11  and  C_28
    9  A    between atoms: C_13  and  C_20
   10  A    between atoms: C_13  and  C_30
   11  A    between atoms: C_27  and  C_29
   12  A    between atoms: C_32  and  P_41
   13  A    between atoms: P_41  and  O_42
   14  A    between atoms: C_43  and  O_46
                            x       y       z     vdW  Elec       q    Type
                         _______ _______ _______ _____ _____    ______ ____

>  <TORSDO>
F 14

$$$$
