=
 OpenBabel11062420473D

 45 51  0  0  1  0  0  0  0  0999 V2000
  194.5520  175.9610  142.9000 C   0  0  0  0  0  2  0  0  0  0  0  0
  190.3480  177.6910  148.0770 C   0  0  0  0  0  3  0  0  0  0  0  0
  193.5650  175.5120  144.9000 C   0  0  2  0  0  0  0  0  0  0  0  0
  190.1470  174.3300  146.1630 C   0  0  0  0  0  2  0  0  0  0  0  0
  194.9360  175.5580  145.5870 C   0  0  0  0  0  2  0  0  0  0  0  0
  192.5200  174.7490  145.6800 C   0  0  2  0  0  3  0  0  0  0  0  0
  196.9020  176.2810  143.0730 O   0  0  0  0  0  1  0  0  0  0  0  0
  190.0020  175.6980  146.8050 C   0  0  0  0  0  0  0  0  0  0  0  0
  195.9090  175.3160  143.2470 C   0  0  1  0  0  0  0  0  0  0  0  0
  189.0380  177.6550  147.4470 N   0  0  0  0  0  0  0  0  0  0  0  0
  191.2200  174.2840  145.0650 C   0  0  0  0  0  2  0  0  0  0  0  0
  195.9540  174.8360  144.7090 C   0  0  0  0  0  2  0  0  0  0  0  0
  191.0470  176.3920  147.6610 C   0  0  1  0  0  3  0  0  0  0  0  0
  192.3900  176.7360  146.9590 C   0  0  0  0  0  2  0  0  0  0  0  0
  188.9170  176.4450  146.7230 C   0  0  0  0  0  0  0  0  0  0  0  0
  193.4890  175.2720  143.5130 O   0  0  0  0  0  0  0  0  0  0  0  0
  192.4030  176.2640  145.5150 C   0  0  1  0  0  3  0  0  0  0  0  0
  187.6670  176.0640  145.9950 C   0  0  0  0  0  2  0  0  0  0  0  0
  186.2580  177.9310  145.0990 C   0  0  0  0  0  3  0  0  0  0  0  0
  188.5990  178.1200  141.5900 N   0  0  0  0  0  1  0  0  0  0  0  0
  185.9430  178.8560  144.0970 C   0  0  0  0  0  0  0  0  0  0  0  0
  188.1190  177.1260  143.7710 C   0  0  0  0  0  3  0  0  0  0  0  0
  184.8450  179.7450  144.2660 N   0  0  0  0  0  1  0  0  0  0  0  0
  187.8060  178.0500  142.7700 C   0  0  0  0  0  0  0  0  0  0  0  0
  186.7210  178.9160  142.9340 C   0  0  0  0  0  3  0  0  0  0  0  0
  187.3490  177.0690  144.9400 C   0  0  0  0  0  0  0  0  0  0  0  0
  196.2170  174.1410  142.3060 C   0  0  0  0  0  2  0  0  0  0  0  0
  196.9790  172.1590  143.3790 O   0  0  0  0  0  0  0  0  0  0  0  0
  195.9890  172.7930  142.9270 C   0  0  0  0  0  0  0  0  0  0  0  0
  193.8080  171.9690  141.9410 N   0  0  0  0  0  0  0  0  0  0  0  0
  194.0620  171.7070  144.1350 C   0  0  2  0  0  3  0  0  0  0  0  0
  194.8020  171.2170  145.6690 S   0  0  0  0  0  0  0  0  0  0  0  0
  194.5890  168.5570  146.3050 C   0  0  0  0  0  1  0  0  0  0  0  0
  194.5180  169.5010  145.1240 C   0  0  1  0  0  3  0  0  0  0  0  0
  192.8990  169.3260  144.2660 S   0  0  0  0  0  0  0  0  0  0  0  0
  192.7860  171.0760  143.7590 C   0  0  2  0  0  3  0  0  0  0  0  0
  194.6430  172.1990  143.0560 C   0  0  0  0  0  0  0  0  0  0  0  0
  192.6900  171.1940  142.2950 N   0  0  0  0  0  0  0  0  0  0  0  0
  191.5120  171.9900  141.9910 C   0  0  0  0  0  2  0  0  0  0  0  0
  190.3820  171.4100  142.5780 O   0  0  0  0  0  0  0  0  0  0  0  0
  189.3450  172.3150  142.3310 C   0  0  0  0  0  2  0  0  0  0  0  0
  188.6960  173.8150  140.3940 C   0  0  0  0  0  0  0  0  0  0  0  0
  188.6820  174.0390  138.9900 N   0  0  0  0  0  1  0  0  0  0  0  0
  188.2030  174.6780  141.1700 O   0  0  0  0  0  0  0  0  0  0  0  0
  189.2700  172.6130  140.9090 N   0  0  0  0  0  2  0  0  0  0  0  0
  1  9  1  0  0  0  0
  1 16  1  0  0  0  0
  3 17  1  0  0  0  0
  3  5  1  1  0  0  0
  3  6  1  0  0  0  0
  4  8  1  0  0  0  0
  6 11  1  6  0  0  0
  8 13  1  0  0  0  0
  9  7  1  6  0  0  0
  9 12  1  0  0  0  0
 10  2  2  0  0  0  0
 11  4  1  0  0  0  0
 12  5  1  0  0  0  0
 13 14  1  6  0  0  0
 13  2  1  0  0  0  0
 15  8  2  0  0  0  0
 15 10  1  0  0  0  0
 16  3  1  0  0  0  0
 17  6  1  0  0  0  0
 17 14  1  1  0  0  0
 18 15  1  0  0  0  0
 20 24  1  0  0  0  0
 21 23  1  0  0  0  0
 21 19  2  0  0  0  0
 22 26  2  0  0  0  0
 24 25  2  0  0  0  0
 24 22  1  0  0  0  0
 25 21  1  0  0  0  0
 26 19  1  0  0  0  0
 26 18  1  0  0  0  0
 27 29  1  0  0  0  0
 27  9  1  0  0  0  0
 29 37  1  0  0  0  0
 29 28  2  0  0  0  0
 30 38  1  0  0  0  0
 30 37  2  0  0  0  0
 31 37  1  6  0  0  0
 31 32  1  0  0  0  0
 34 32  1  0  0  0  0
 34 33  1  1  0  0  0
 35 34  1  0  0  0  0
 36 31  1  0  0  0  0
 36 35  1  6  0  0  0
 38 36  1  0  0  0  0
 39 38  1  0  0  0  0
 39 40  1  0  0  0  0
 41 40  1  0  0  0  0
 42 45  1  0  0  0  0
 42 44  2  0  0  0  0
 43 42  1  0  0  0  0
 45 41  1  0  0  0  0
M  END
>  <MODEL>
1

>  <REMARK>
 VINA RESULT:      -7.6      0.000      0.000
  Name = 
  9 active torsions:
  status: ('A' for Active; 'I' for Inactive)
    1  A    between atoms: C_7  and  C_36
    2  A    between atoms: C_7  and  C_40
    3  A    between atoms: C_15  and  N_28
    4  A    between atoms: C_15  and  O_43
    5  A    between atoms: C_21  and  O_43
    6  A    between atoms: C_21  and  N_44
    7  A    between atoms: C_24  and  C_39
    8  A    between atoms: C_31  and  C_39
    9  A    between atoms: C_31  and  C_42
                            x       y       z     vdW  Elec       q    Type
                         _______ _______ _______ _____ _____    ______ ____

>  <TORSDO>
F 9

$$$$
=
 OpenBabel11062420473D

 45 51  0  0  1  0  0  0  0  0999 V2000
  190.3690  174.0930  141.4730 C   0  0  0  0  0  2  0  0  0  0  0  0
  196.2160  170.5840  142.4520 C   0  0  0  0  0  2  0  0  0  0  0  0
  191.5180  172.3460  142.3680 C   0  0  2  0  0  0  0  0  0  0  0  0
  193.8810  171.7330  145.3210 C   0  0  0  0  0  2  0  0  0  0  0  0
  190.7140  171.3710  141.4970 C   0  0  0  0  0  2  0  0  0  0  0  0
  192.1430  171.7010  143.5830 C   0  0  2  0  0  3  0  0  0  0  0  0
  188.8040  173.4240  139.8120 O   0  0  0  0  0  1  0  0  0  0  0  0
  194.9610  171.4500  144.2920 C   0  0  2  0  0  3  0  0  0  0  0  0
  189.0820  173.2980  141.1730 C   0  0  1  0  0  0  0  0  0  0  0  0
  196.9960  171.4920  143.2780 N   0  0  0  0  0  0  0  0  0  0  0  0
  192.6810  172.5010  144.7470 C   0  0  0  0  0  2  0  0  0  0  0  0
  189.2500  171.8020  141.4940 C   0  0  0  0  0  2  0  0  0  0  0  0
  194.8230  170.5330  143.0890 C   0  0  1  0  0  3  0  0  0  0  0  0
  193.7610  170.9430  142.0320 C   0  0  0  0  0  2  0  0  0  0  0  0
  196.1810  171.9500  144.3400 C   0  0  0  0  0  0  0  0  0  0  0  0
  190.9950  173.6270  142.6430 O   0  0  0  0  0  0  0  0  0  0  0  0
  193.0230  172.2060  142.4410 C   0  0  1  0  0  3  0  0  0  0  0  0
  196.6910  172.8630  145.4090 C   0  0  0  0  0  2  0  0  0  0  0  0
  195.3990  174.9050  146.0700 C   0  0  0  0  0  3  0  0  0  0  0  0
  196.6250  176.9120  142.5630 N   0  0  0  0  0  1  0  0  0  0  0  0
  194.9600  176.2110  145.8210 C   0  0  0  0  0  0  0  0  0  0  0  0
  196.6440  174.9280  143.9900 C   0  0  0  0  0  3  0  0  0  0  0  0
  194.1130  176.8680  146.7570 N   0  0  0  0  0  1  0  0  0  0  0  0
  196.2060  176.2320  143.7420 C   0  0  0  0  0  0  0  0  0  0  0  0
  195.3670  176.8740  144.6570 C   0  0  0  0  0  3  0  0  0  0  0  0
  196.2460  174.2640  145.1580 C   0  0  0  0  0  0  0  0  0  0  0  0
  187.8890  173.8650  141.9570 C   0  0  0  0  0  2  0  0  0  0  0  0
  188.1860  176.0530  141.0730 O   0  0  0  0  0  0  0  0  0  0  0  0
  187.9060  175.3610  142.0870 C   0  0  0  0  0  0  0  0  0  0  0  0
  186.2590  176.0950  143.8640 N   0  0  0  0  0  0  0  0  0  0  0  0
  188.3940  176.6060  144.2230 C   0  0  2  0  0  3  0  0  0  0  0  0
  190.1430  176.3800  144.4030 S   0  0  0  0  0  0  0  0  0  0  0  0
  190.9670  175.2640  146.7700 C   0  0  0  0  0  1  0  0  0  0  0  0
  189.7450  175.3990  145.8870 C   0  0  1  0  0  3  0  0  0  0  0  0
  188.3540  176.1440  146.8350 S   0  0  0  0  0  0  0  0  0  0  0  0
  187.6340  177.0280  145.4100 C   0  0  2  0  0  3  0  0  0  0  0  0
  187.5740  176.0490  143.3510 C   0  0  0  0  0  0  0  0  0  0  0  0
  186.2440  176.6010  145.1760 N   0  0  0  0  0  0  0  0  0  0  0  0
  185.4120  177.7930  145.1570 C   0  0  0  0  0  2  0  0  0  0  0  0
  186.1890  178.9120  144.8400 O   0  0  0  0  0  0  0  0  0  0  0  0
  185.4630  179.5860  143.8530 C   0  0  0  0  0  2  0  0  0  0  0  0
  185.0010  178.4180  141.6520 C   0  0  0  0  0  0  0  0  0  0  0  0
  185.4720  178.0270  140.3680 N   0  0  0  0  0  1  0  0  0  0  0  0
  183.8230  178.1340  141.9990 O   0  0  0  0  0  0  0  0  0  0  0  0
  185.8710  179.1290  142.5330 N   0  0  0  0  0  2  0  0  0  0  0  0
  1 16  1  0  0  0  0
  2 13  1  0  0  0  0
  2 10  1  0  0  0  0
  3  5  1  6  0  0  0
  3 17  1  0  0  0  0
  3 16  1  0  0  0  0
  3  6  1  0  0  0  0
  6 11  1  1  0  0  0
  8 15  1  0  0  0  0
  8  4  1  1  0  0  0
  9  7  1  6  0  0  0
  9  1  1  0  0  0  0
  9 12  1  0  0  0  0
  9 27  1  0  0  0  0
 10 15  2  0  0  0  0
 11  4  1  0  0  0  0
 12  5  1  0  0  0  0
 13 14  1  6  0  0  0
 13  8  1  0  0  0  0
 15 18  1  0  0  0  0
 17 14  1  6  0  0  0
 17  6  1  0  0  0  0
 20 24  1  0  0  0  0
 21 19  1  0  0  0  0
 21 23  1  0  0  0  0
 22 26  1  0  0  0  0
 24 22  2  0  0  0  0
 24 25  1  0  0  0  0
 25 21  2  0  0  0  0
 26 18  1  0  0  0  0
 26 19  2  0  0  0  0
 27 29  1  0  0  0  0
 28 29  2  0  0  0  0
 29 37  1  0  0  0  0
 30 38  1  0  0  0  0
 31 37  1  1  0  0  0
 31 32  1  0  0  0  0
 31 36  1  0  0  0  0
 32 34  1  0  0  0  0
 34 33  1  1  0  0  0
 34 35  1  0  0  0  0
 36 35  1  1  0  0  0
 37 30  2  0  0  0  0
 38 36  1  0  0  0  0
 39 38  1  0  0  0  0
 40 39  1  0  0  0  0
 41 40  1  0  0  0  0
 42 44  2  0  0  0  0
 42 45  1  0  0  0  0
 43 42  1  0  0  0  0
 45 41  1  0  0  0  0
M  END
>  <MODEL>
2

>  <REMARK>
 VINA RESULT:      -7.5      2.992      7.944
  Name = 
  9 active torsions:
  status: ('A' for Active; 'I' for Inactive)
    1  A    between atoms: C_7  and  C_36
    2  A    between atoms: C_7  and  C_40
    3  A    between atoms: C_15  and  N_28
    4  A    between atoms: C_15  and  O_43
    5  A    between atoms: C_21  and  O_43
    6  A    between atoms: C_21  and  N_44
    7  A    between atoms: C_24  and  C_39
    8  A    between atoms: C_31  and  C_39
    9  A    between atoms: C_31  and  C_42
                            x       y       z     vdW  Elec       q    Type
                         _______ _______ _______ _____ _____    ______ ____

>  <TORSDO>
F 9

$$$$
=
 OpenBabel11062420473D

 45 51  0  0  1  0  0  0  0  0999 V2000
  191.4800  173.1320  140.7970 C   0  0  0  0  0  2  0  0  0  0  0  0
  197.2890  170.4540  143.3550 C   0  0  0  0  0  3  0  0  0  0  0  0
  192.5720  171.6270  142.1080 C   0  0  2  0  0  0  0  0  0  0  0  0
  194.2910  171.5840  145.5320 C   0  0  0  0  0  2  0  0  0  0  0  0
  192.0730  170.4860  141.2120 C   0  0  0  0  0  2  0  0  0  0  0  0
  192.9800  171.1800  143.4920 C   0  0  2  0  0  3  0  0  0  0  0  0
  190.3820  172.1270  138.9430 O   0  0  0  0  0  1  0  0  0  0  0  0
  195.5890  171.3360  144.7850 C   0  0  0  0  0  0  0  0  0  0  0  0
  190.3710  172.1640  140.3370 C   0  0  1  0  0  0  0  0  0  0  0  0
  197.7810  171.5240  144.2100 N   0  0  0  0  0  0  0  0  0  0  0  0
  193.1740  172.1450  144.6390 C   0  0  0  0  0  2  0  0  0  0  0  0
  190.6100  170.7360  140.8600 C   0  0  0  0  0  2  0  0  0  0  0  0
  195.8040  170.2980  143.6970 C   0  0  1  0  0  3  0  0  0  0  0  0
  194.9600  170.4760  142.4040 C   0  0  0  0  0  2  0  0  0  0  0  0
  196.7170  171.9800  145.0220 C   0  0  0  0  0  0  0  0  0  0  0  0
  191.8810  172.8570  142.1170 O   0  0  0  0  0  0  0  0  0  0  0  0
  194.0320  171.6760  142.5020 C   0  0  1  0  0  3  0  0  0  0  0  0
  196.8930  173.0450  146.0580 C   0  0  0  0  0  2  0  0  0  0  0  0
  195.2500  174.9120  146.3610 C   0  0  0  0  0  3  0  0  0  0  0  0
  196.5130  176.7130  142.7570 N   0  0  0  0  0  1  0  0  0  0  0  0
  194.6490  176.0970  145.9230 C   0  0  0  0  0  0  0  0  0  0  0  0
  196.6830  174.9170  144.4050 C   0  0  0  0  0  3  0  0  0  0  0  0
  193.6230  176.7050  146.7000 N   0  0  0  0  0  1  0  0  0  0  0  0
  196.0830  176.1010  143.9680 C   0  0  0  0  0  0  0  0  0  0  0  0
  195.0690  176.6920  144.7280 C   0  0  0  0  0  3  0  0  0  0  0  0
  196.2710  174.3230  145.6060 C   0  0  0  0  0  0  0  0  0  0  0  0
  188.9880  172.6560  140.7890 C   0  0  0  0  0  2  0  0  0  0  0  0
  189.2090  172.1410  143.1010 O   0  0  0  0  0  0  0  0  0  0  0  0
  188.9210  173.0190  142.2450 C   0  0  0  0  0  0  0  0  0  0  0  0
  187.3220  174.9760  142.3950 N   0  0  0  0  0  0  0  0  0  0  0  0
  189.2280  175.1690  143.5240 C   0  0  2  0  0  3  0  0  0  0  0  0
  190.5350  174.7570  144.6490 S   0  0  0  0  0  0  0  0  0  0  0  0
  189.9880  175.1440  147.3100 C   0  0  0  0  0  1  0  0  0  0  0  0
  189.3000  174.9600  145.9740 C   0  0  1  0  0  3  0  0  0  0  0  0
  188.1770  176.3800  145.6380 S   0  0  0  0  0  0  0  0  0  0  0  0
  188.4130  176.3560  143.8280 C   0  0  2  0  0  3  0  0  0  0  0  0
  188.5610  174.3750  142.7070 C   0  0  0  0  0  0  0  0  0  0  0  0
  187.1300  176.1570  143.1330 N   0  0  0  0  0  0  0  0  0  0  0  0
  186.9760  177.2350  142.1710 C   0  0  0  0  0  2  0  0  0  0  0  0
  185.6320  177.3500  141.7970 O   0  0  0  0  0  0  0  0  0  0  0  0
  185.2250  178.5900  142.2970 C   0  0  0  0  0  2  0  0  0  0  0  0
  184.8070  178.8650  144.7820 C   0  0  0  0  0  0  0  0  0  0  0  0
  183.9420  178.6630  145.8920 N   0  0  0  0  0  1  0  0  0  0  0  0
  185.9130  179.4480  144.9490 O   0  0  0  0  0  0  0  0  0  0  0  0
  184.4120  178.4050  143.4900 N   0  0  0  0  0  2  0  0  0  0  0  0
  1 16  1  0  0  0  0
  2 13  1  0  0  0  0
  2 10  2  0  0  0  0
  3  5  1  6  0  0  0
  3 16  1  0  0  0  0
  3 17  1  0  0  0  0
  3  6  1  0  0  0  0
  6 11  1  1  0  0  0
  8 15  2  0  0  0  0
  8  4  1  0  0  0  0
  9  7  1  6  0  0  0
  9 27  1  0  0  0  0
  9  1  1  0  0  0  0
  9 12  1  0  0  0  0
 10 15  1  0  0  0  0
 11  4  1  0  0  0  0
 12  5  1  0  0  0  0
 13 14  1  6  0  0  0
 13  8  1  0  0  0  0
 15 18  1  0  0  0  0
 17 14  1  6  0  0  0
 17  6  1  0  0  0  0
 20 24  1  0  0  0  0
 21 19  1  0  0  0  0
 21 23  1  0  0  0  0
 22 26  1  0  0  0  0
 24 22  2  0  0  0  0
 24 25  1  0  0  0  0
 25 21  2  0  0  0  0
 26 18  1  0  0  0  0
 26 19  2  0  0  0  0
 27 29  1  0  0  0  0
 29 37  1  0  0  0  0
 29 28  2  0  0  0  0
 30 37  2  0  0  0  0
 30 38  1  0  0  0  0
 31 37  1  1  0  0  0
 31 36  1  0  0  0  0
 31 32  1  0  0  0  0
 32 34  1  0  0  0  0
 34 33  1  1  0  0  0
 35 34  1  0  0  0  0
 36 35  1  1  0  0  0
 38 36  1  0  0  0  0
 39 38  1  0  0  0  0
 40 39  1  0  0  0  0
 40 41  1  0  0  0  0
 41 45  1  0  0  0  0
 42 44  2  0  0  0  0
 42 43  1  0  0  0  0
 45 42  1  0  0  0  0
M  END
>  <MODEL>
3

>  <REMARK>
 VINA RESULT:      -7.4      2.830      7.752
  Name = 
  9 active torsions:
  status: ('A' for Active; 'I' for Inactive)
    1  A    between atoms: C_7  and  C_36
    2  A    between atoms: C_7  and  C_40
    3  A    between atoms: C_15  and  N_28
    4  A    between atoms: C_15  and  O_43
    5  A    between atoms: C_21  and  O_43
    6  A    between atoms: C_21  and  N_44
    7  A    between atoms: C_24  and  C_39
    8  A    between atoms: C_31  and  C_39
    9  A    between atoms: C_31  and  C_42
                            x       y       z     vdW  Elec       q    Type
                         _______ _______ _______ _____ _____    ______ ____

>  <TORSDO>
F 9

$$$$
=
 OpenBabel11062420473D

 45 51  0  0  1  0  0  0  0  0999 V2000
  190.9350  173.4300  141.2890 C   0  0  0  0  0  2  0  0  0  0  0  0
  196.7520  170.2450  143.1530 C   0  0  0  0  0  3  0  0  0  0  0  0
  192.0490  171.8770  142.5230 C   0  0  2  0  0  0  0  0  0  0  0  0
  194.2460  171.8060  145.6600 C   0  0  0  0  0  2  0  0  0  0  0  0
  191.3060  170.7570  141.7830 C   0  0  0  0  0  2  0  0  0  0  0  0
  192.6100  171.4540  143.8600 C   0  0  2  0  0  3  0  0  0  0  0  0
  189.4740  172.4660  139.6790 O   0  0  0  0  0  1  0  0  0  0  0  0
  195.3860  171.3790  144.7530 C   0  0  0  0  0  0  0  0  0  0  0  0
  189.6750  172.5710  141.0560 C   0  0  1  0  0  0  0  0  0  0  0  0
  197.4750  171.2930  143.8590 N   0  0  0  0  0  0  0  0  0  0  0  0
  193.0730  172.4460  144.9030 C   0  0  0  0  0  2  0  0  0  0  0  0
  189.8410  171.1520  141.6290 C   0  0  0  0  0  2  0  0  0  0  0  0
  195.3270  170.2730  143.7140 C   0  0  1  0  0  3  0  0  0  0  0  0
  194.3220  170.4820  142.5470 C   0  0  0  0  0  2  0  0  0  0  0  0
  196.5970  171.9040  144.7840 C   0  0  0  0  0  0  0  0  0  0  0  0
  191.4980  173.1760  142.5530 O   0  0  0  0  0  0  0  0  0  0  0  0
  193.5490  171.7810  142.7000 C   0  0  1  0  0  3  0  0  0  0  0  0
  197.0350  172.9910  145.7130 C   0  0  0  0  0  2  0  0  0  0  0  0
  196.7480  174.8720  144.0840 C   0  0  0  0  0  3  0  0  0  0  0  0
  194.1250  176.8640  146.7260 N   0  0  0  0  0  1  0  0  0  0  0  0
  196.1980  176.1080  143.7240 C   0  0  0  0  0  0  0  0  0  0  0  0
  195.5650  174.9610  146.1980 C   0  0  0  0  0  3  0  0  0  0  0  0
  196.5090  176.6860  142.4620 N   0  0  0  0  0  1  0  0  0  0  0  0
  195.0150  176.1950  145.8390 C   0  0  0  0  0  0  0  0  0  0  0  0
  195.3290  176.7660  144.6030 C   0  0  0  0  0  3  0  0  0  0  0  0
  196.4280  174.2940  145.3190 C   0  0  0  0  0  0  0  0  0  0  0  0
  188.4330  173.2360  141.6690 C   0  0  0  0  0  2  0  0  0  0  0  0
  188.3160  174.8720  139.9460 O   0  0  0  0  0  0  0  0  0  0  0  0
  188.1900  174.6340  141.1770 C   0  0  0  0  0  0  0  0  0  0  0  0
  186.4560  175.8500  142.5630 N   0  0  0  0  0  0  0  0  0  0  0  0
  188.5270  176.6590  142.6380 C   0  0  2  0  0  3  0  0  0  0  0  0
  190.2870  176.6870  142.8480 S   0  0  0  0  0  0  0  0  0  0  0  0
  191.1830  176.6740  145.4410 C   0  0  0  0  0  1  0  0  0  0  0  0
  189.9650  176.3360  144.6070 C   0  0  1  0  0  3  0  0  0  0  0  0
  188.4970  177.2600  145.2220 S   0  0  0  0  0  0  0  0  0  0  0  0
  187.7130  177.4400  143.5840 C   0  0  2  0  0  3  0  0  0  0  0  0
  187.7770  175.7290  142.0760 C   0  0  0  0  0  0  0  0  0  0  0  0
  186.3750  176.8270  143.5710 N   0  0  0  0  0  0  0  0  0  0  0  0
  185.4310  177.8320  143.1070 C   0  0  0  0  0  2  0  0  0  0  0  0
  185.8330  179.0990  143.5440 O   0  0  0  0  0  0  0  0  0  0  0  0
  184.9030  179.4520  144.5260 C   0  0  0  0  0  2  0  0  0  0  0  0
  185.2260  178.3060  146.7630 C   0  0  0  0  0  0  0  0  0  0  0  0
  185.8810  178.2810  148.0260 N   0  0  0  0  0  1  0  0  0  0  0  0
  184.4030  177.3980  146.4680 O   0  0  0  0  0  0  0  0  0  0  0  0
  185.5110  179.3610  145.8450 N   0  0  0  0  0  2  0  0  0  0  0  0
  1 16  1  0  0  0  0
  2 13  1  0  0  0  0
  2 10  2  0  0  0  0
  3  5  1  6  0  0  0
  3 16  1  0  0  0  0
  3 17  1  0  0  0  0
  3  6  1  0  0  0  0
  6 11  1  1  0  0  0
  8 15  2  0  0  0  0
  8  4  1  0  0  0  0
  9  7  1  6  0  0  0
  9  1  1  0  0  0  0
  9 12  1  0  0  0  0
  9 27  1  0  0  0  0
 10 15  1  0  0  0  0
 11  4  1  0  0  0  0
 12  5  1  0  0  0  0
 13 14  1  6  0  0  0
 13  8  1  0  0  0  0
 15 18  1  0  0  0  0
 17 14  1  6  0  0  0
 17  6  1  0  0  0  0
 19 26  1  0  0  0  0
 21 19  2  0  0  0  0
 21 25  1  0  0  0  0
 23 21  1  0  0  0  0
 24 22  1  0  0  0  0
 24 20  1  0  0  0  0
 25 24  2  0  0  0  0
 26 18  1  0  0  0  0
 26 22  2  0  0  0  0
 28 29  2  0  0  0  0
 29 27  1  0  0  0  0
 29 37  1  0  0  0  0
 30 38  1  0  0  0  0
 31 37  1  1  0  0  0
 31 32  1  0  0  0  0
 31 36  1  0  0  0  0
 32 34  1  0  0  0  0
 34 35  1  0  0  0  0
 34 33  1  1  0  0  0
 36 35  1  1  0  0  0
 37 30  2  0  0  0  0
 38 36  1  0  0  0  0
 39 40  1  0  0  0  0
 39 38  1  0  0  0  0
 40 41  1  0  0  0  0
 41 45  1  0  0  0  0
 42 43  1  0  0  0  0
 44 42  2  0  0  0  0
 45 42  1  0  0  0  0
M  END
>  <MODEL>
4

>  <REMARK>
 VINA RESULT:      -7.3      3.061      8.306
  Name = 
  9 active torsions:
  status: ('A' for Active; 'I' for Inactive)
    1  A    between atoms: C_7  and  C_36
    2  A    between atoms: C_7  and  C_40
    3  A    between atoms: C_15  and  N_28
    4  A    between atoms: C_15  and  O_43
    5  A    between atoms: C_21  and  O_43
    6  A    between atoms: C_21  and  N_44
    7  A    between atoms: C_24  and  C_39
    8  A    between atoms: C_31  and  C_39
    9  A    between atoms: C_31  and  C_42
                            x       y       z     vdW  Elec       q    Type
                         _______ _______ _______ _____ _____    ______ ____

>  <TORSDO>
F 9

$$$$
=
 OpenBabel11062420473D

 45 51  0  0  1  0  0  0  0  0999 V2000
  190.5340  175.3500  145.1130 C   0  0  0  0  0  2  0  0  0  0  0  0
  197.0070  173.0380  144.6470 C   0  0  0  0  0  2  0  0  0  0  0  0
  192.7160  175.3960  145.7510 C   0  0  2  0  0  0  0  0  0  0  0  0
  196.0270  176.7780  144.4050 C   0  0  0  0  0  2  0  0  0  0  0  0
  192.3170  174.9150  147.1520 C   0  0  0  0  0  2  0  0  0  0  0  0
  194.0580  176.0880  145.7060 C   0  0  2  0  0  3  0  0  0  0  0  0
  189.0790  174.5760  146.8270 O   0  0  0  0  0  1  0  0  0  0  0  0
  196.4740  175.3350  144.2550 C   0  0  2  0  0  3  0  0  0  0  0  0
  189.9530  175.6180  146.5160 C   0  0  1  0  0  0  0  0  0  0  0  0
  197.4080  173.4840  143.3210 N   0  0  0  0  0  0  0  0  0  0  0  0
  194.5040  176.9320  144.5340 C   0  0  0  0  0  2  0  0  0  0  0  0
  191.0570  175.6570  147.5890 C   0  0  0  0  0  2  0  0  0  0  0  0
  196.3550  174.2540  145.3150 C   0  0  1  0  0  3  0  0  0  0  0  0
  194.9130  173.8820  145.7570 C   0  0  0  0  0  2  0  0  0  0  0  0
  197.0610  174.8480  143.1780 C   0  0  0  0  0  0  0  0  0  0  0  0
  191.7560  176.0220  144.9290 O   0  0  0  0  0  0  0  0  0  0  0  0
  193.8720  174.7260  145.0400 C   0  0  1  0  0  3  0  0  0  0  0  0
  197.3810  175.6350  141.9470 C   0  0  0  0  0  2  0  0  0  0  0  0
  196.8730  175.3000  139.5170 C   0  0  0  0  0  3  0  0  0  0  0  0
  192.8460  174.3910  140.4040 N   0  0  0  0  0  1  0  0  0  0  0  0
  195.9780  175.0050  138.4820 C   0  0  0  0  0  0  0  0  0  0  0  0
  195.0950  175.0000  141.1390 C   0  0  0  0  0  3  0  0  0  0  0  0
  196.4270  174.9950  137.1320 N   0  0  0  0  0  1  0  0  0  0  0  0
  194.2020  174.7040  140.1050 C   0  0  0  0  0  0  0  0  0  0  0  0
  194.6430  174.7040  138.7790 C   0  0  0  0  0  3  0  0  0  0  0  0
  196.4340  175.2930  140.8470 C   0  0  0  0  0  0  0  0  0  0  0  0
  189.1580  176.9320  146.5420 C   0  0  0  0  0  2  0  0  0  0  0  0
  186.8430  176.4950  146.8760 O   0  0  0  0  0  0  0  0  0  0  0  0
  187.7460  176.7940  146.0490 C   0  0  0  0  0  0  0  0  0  0  0  0
  187.5570  176.0510  143.6370 N   0  0  0  0  0  0  0  0  0  0  0  0
  186.7480  178.0660  144.1170 C   0  0  2  0  0  3  0  0  0  0  0  0
  185.7930  179.3150  144.9370 S   0  0  0  0  0  0  0  0  0  0  0  0
  183.1330  179.4160  144.2740 C   0  0  0  0  0  1  0  0  0  0  0  0
  184.3270  178.4850  144.2420 C   0  0  1  0  0  3  0  0  0  0  0  0
  184.6330  177.9020  142.5230 S   0  0  0  0  0  0  0  0  0  0  0  0
  186.4460  177.7950  142.7020 C   0  0  2  0  0  3  0  0  0  0  0  0
  187.3740  177.0290  144.6400 C   0  0  0  0  0  0  0  0  0  0  0  0
  186.9190  176.4250  142.4410 N   0  0  0  0  0  0  0  0  0  0  0  0
  187.9510  176.5000  141.4200 C   0  0  0  0  0  2  0  0  0  0  0  0
  189.1280  175.9060  141.8880 O   0  0  0  0  0  0  0  0  0  0  0  0
  189.2980  174.7700  141.0920 C   0  0  0  0  0  2  0  0  0  0  0  0
  188.8180  172.6220  142.3490 C   0  0  0  0  0  0  0  0  0  0  0  0
  189.3130  171.5420  143.1310 N   0  0  0  0  0  1  0  0  0  0  0  0
  187.5940  172.6670  142.0490 O   0  0  0  0  0  0  0  0  0  0  0  0
  189.7160  173.6420  141.9130 N   0  0  0  0  0  2  0  0  0  0  0  0
  1  9  1  0  0  0  0
  3  5  1  1  0  0  0
  4 11  1  0  0  0  0
  5 12  1  0  0  0  0
  6 11  1  6  0  0  0
  6  3  1  0  0  0  0
  8  4  1  1  0  0  0
  8 13  1  0  0  0  0
  9 27  1  0  0  0  0
  9  7  1  1  0  0  0
  9 12  1  0  0  0  0
 10  2  1  0  0  0  0
 13  2  1  6  0  0  0
 13 14  1  0  0  0  0
 15 10  2  0  0  0  0
 15  8  1  0  0  0  0
 16  1  1  0  0  0  0
 16  3  1  0  0  0  0
 17  6  1  0  0  0  0
 17  3  1  0  0  0  0
 17 14  1  1  0  0  0
 18 15  1  0  0  0  0
 19 26  1  0  0  0  0
 21 25  1  0  0  0  0
 21 19  2  0  0  0  0
 23 21  1  0  0  0  0
 24 20  1  0  0  0  0
 24 22  1  0  0  0  0
 25 24  2  0  0  0  0
 26 22  2  0  0  0  0
 26 18  1  0  0  0  0
 29 27  1  0  0  0  0
 29 28  2  0  0  0  0
 30 37  2  0  0  0  0
 31 37  1  1  0  0  0
 31 32  1  0  0  0  0
 34 33  1  6  0  0  0
 34 32  1  0  0  0  0
 35 34  1  0  0  0  0
 36 35  1  1  0  0  0
 36 31  1  0  0  0  0
 37 29  1  0  0  0  0
 38 36  1  0  0  0  0
 38 30  1  0  0  0  0
 39 40  1  0  0  0  0
 39 38  1  0  0  0  0
 41 40  1  0  0  0  0
 41 45  1  0  0  0  0
 42 43  1  0  0  0  0
 44 42  2  0  0  0  0
 45 42  1  0  0  0  0
M  END
>  <MODEL>
5

>  <REMARK>
 VINA RESULT:      -7.2      3.615      8.318
  Name = 
  9 active torsions:
  status: ('A' for Active; 'I' for Inactive)
    1  A    between atoms: C_7  and  C_36
    2  A    between atoms: C_7  and  C_40
    3  A    between atoms: C_15  and  N_28
    4  A    between atoms: C_15  and  O_43
    5  A    between atoms: C_21  and  O_43
    6  A    between atoms: C_21  and  N_44
    7  A    between atoms: C_24  and  C_39
    8  A    between atoms: C_31  and  C_39
    9  A    between atoms: C_31  and  C_42
                            x       y       z     vdW  Elec       q    Type
                         _______ _______ _______ _____ _____    ______ ____

>  <TORSDO>
F 9

$$$$
=
 OpenBabel11062420473D

 45 51  0  0  1  0  0  0  0  0999 V2000
  189.8980  173.1190  140.8930 C   0  0  0  0  0  2  0  0  0  0  0  0
  189.4680  176.1300  147.0740 C   0  0  0  0  0  3  0  0  0  0  0  0
  189.6330  174.9650  142.1960 C   0  0  2  0  0  0  0  0  0  0  0  0
  191.8500  177.3120  144.2580 C   0  0  0  0  0  2  0  0  0  0  0  0
  188.2000  175.1280  141.6720 C   0  0  0  0  0  2  0  0  0  0  0  0
  190.2190  176.2340  142.7680 C   0  0  2  0  0  3  0  0  0  0  0  0
  187.9400  172.5550  139.6670 O   0  0  0  0  0  1  0  0  0  0  0  0
  191.1280  176.7830  145.4840 C   0  0  0  0  0  0  0  0  0  0  0  0
  188.9040  173.5550  139.7970 C   0  0  1  0  0  0  0  0  0  0  0  0
  190.8200  175.9860  147.5910 N   0  0  0  0  0  0  0  0  0  0  0  0
  191.6980  176.4070  143.0250 C   0  0  0  0  0  2  0  0  0  0  0  0
  188.1900  174.8680  140.1680 C   0  0  0  0  0  2  0  0  0  0  0  0
  189.6230  176.6540  145.6430 C   0  0  1  0  0  3  0  0  0  0  0  0
  188.9120  175.6820  144.6620 C   0  0  0  0  0  2  0  0  0  0  0  0
  191.7330  176.3970  146.5920 C   0  0  0  0  0  0  0  0  0  0  0  0
  190.5690  174.2270  141.4420 O   0  0  0  0  0  0  0  0  0  0  0  0
  189.8920  175.0550  143.6840 C   0  0  1  0  0  3  0  0  0  0  0  0
  193.2120  176.4250  146.8150 C   0  0  0  0  0  2  0  0  0  0  0  0
  195.2480  175.1730  146.0650 C   0  0  0  0  0  3  0  0  0  0  0  0
  192.8660  171.9800  144.6650 N   0  0  0  0  0  1  0  0  0  0  0  0
  195.8510  174.0610  145.4650 C   0  0  0  0  0  0  0  0  0  0  0  0
  193.0660  174.1710  145.7280 C   0  0  0  0  0  3  0  0  0  0  0  0
  197.2670  173.9980  145.3420 N   0  0  0  0  0  1  0  0  0  0  0  0
  193.6680  173.0600  145.1310 C   0  0  0  0  0  0  0  0  0  0  0  0
  195.0590  173.0040  145.0020 C   0  0  0  0  0  3  0  0  0  0  0  0
  193.8560  175.2270  146.2020 C   0  0  0  0  0  0  0  0  0  0  0  0
  189.6110  173.7150  138.4430 C   0  0  0  0  0  2  0  0  0  0  0  0
  190.1830  171.6170  137.4770 O   0  0  0  0  0  0  0  0  0  0  0  0
  190.5840  172.6130  138.1350 C   0  0  0  0  0  0  0  0  0  0  0  0
  192.6990  173.8920  138.6820 N   0  0  0  0  0  0  0  0  0  0  0  0
  192.7820  171.6850  138.9470 C   0  0  2  0  0  3  0  0  0  0  0  0
  192.3260  170.0670  139.5090 S   0  0  0  0  0  0  0  0  0  0  0  0
  192.9670  169.4790  142.1110 C   0  0  0  0  0  1  0  0  0  0  0  0
  192.7540  170.6540  141.1810 C   0  0  1  0  0  3  0  0  0  0  0  0
  194.2510  171.7250  141.1560 S   0  0  0  0  0  0  0  0  0  0  0  0
  194.0660  172.2330  139.4130 C   0  0  2  0  0  3  0  0  0  0  0  0
  192.0010  172.6710  138.5490 C   0  0  0  0  0  0  0  0  0  0  0  0
  193.9460  173.6970  139.3020 N   0  0  0  0  0  0  0  0  0  0  0  0
  194.9590  174.1540  138.3640 C   0  0  0  0  0  2  0  0  0  0  0  0
  195.6040  175.2850  138.8750 O   0  0  0  0  0  0  0  0  0  0  0  0
  196.5770  174.7820  139.7440 C   0  0  0  0  0  2  0  0  0  0  0  0
  196.1310  175.8230  142.0100 C   0  0  0  0  0  0  0  0  0  0  0  0
  196.4930  176.7890  142.9900 N   0  0  0  0  0  1  0  0  0  0  0  0
  195.1680  175.0400  142.2310 O   0  0  0  0  0  0  0  0  0  0  0  0
  196.8660  175.7530  140.7880 N   0  0  0  0  0  2  0  0  0  0  0  0
  1 16  1  0  0  0  0
  2 10  2  0  0  0  0
  3  5  1  6  0  0  0
  3  6  1  0  0  0  0
  3 17  1  0  0  0  0
  4  8  1  0  0  0  0
  6 11  1  6  0  0  0
  6 17  1  0  0  0  0
  8 13  1  0  0  0  0
  8 15  2  0  0  0  0
  9  7  1  6  0  0  0
  9 12  1  0  0  0  0
  9  1  1  0  0  0  0
 11  4  1  0  0  0  0
 12  5  1  0  0  0  0
 13 14  1  6  0  0  0
 13  2  1  0  0  0  0
 15 18  1  0  0  0  0
 15 10  1  0  0  0  0
 16  3  1  0  0  0  0
 17 14  1  1  0  0  0
 19 26  1  0  0  0  0
 20 24  1  0  0  0  0
 21 19  2  0  0  0  0
 22 26  2  0  0  0  0
 23 21  1  0  0  0  0
 24 22  1  0  0  0  0
 25 24  2  0  0  0  0
 25 21  1  0  0  0  0
 26 18  1  0  0  0  0
 27  9  1  0  0  0  0
 28 29  2  0  0  0  0
 29 27  1  0  0  0  0
 29 37  1  0  0  0  0
 30 38  1  0  0  0  0
 31 37  1  1  0  0  0
 31 36  1  0  0  0  0
 31 32  1  0  0  0  0
 32 34  1  0  0  0  0
 34 33  1  1  0  0  0
 35 34  1  0  0  0  0
 36 35  1  1  0  0  0
 37 30  2  0  0  0  0
 38 36  1  0  0  0  0
 39 40  1  0  0  0  0
 39 38  1  0  0  0  0
 40 41  1  0  0  0  0
 41 45  1  0  0  0  0
 42 44  2  0  0  0  0
 42 43  1  0  0  0  0
 45 42  1  0  0  0  0
M  END
>  <MODEL>
6

>  <REMARK>
 VINA RESULT:      -7.1      2.956      6.762
  Name = 
  9 active torsions:
  status: ('A' for Active; 'I' for Inactive)
    1  A    between atoms: C_7  and  C_36
    2  A    between atoms: C_7  and  C_40
    3  A    between atoms: C_15  and  N_28
    4  A    between atoms: C_15  and  O_43
    5  A    between atoms: C_21  and  O_43
    6  A    between atoms: C_21  and  N_44
    7  A    between atoms: C_24  and  C_39
    8  A    between atoms: C_31  and  C_39
    9  A    between atoms: C_31  and  C_42
                            x       y       z     vdW  Elec       q    Type
                         _______ _______ _______ _____ _____    ______ ____

>  <TORSDO>
F 9

$$$$
=
 OpenBabel11062420473D

 45 51  0  0  1  0  0  0  0  0999 V2000
  190.8840  173.0150  142.3090 C   0  0  0  0  0  2  0  0  0  0  0  0
  196.7530  173.4650  145.8890 C   0  0  0  0  0  3  0  0  0  0  0  0
  192.1900  174.0230  143.8750 C   0  0  2  0  0  0  0  0  0  0  0  0
  195.1750  176.4220  143.9470 C   0  0  0  0  0  2  0  0  0  0  0  0
  191.1910  173.6180  144.9680 C   0  0  0  0  0  2  0  0  0  0  0  0
  193.0760  175.1830  144.2620 C   0  0  2  0  0  3  0  0  0  0  0  0
  188.9630  171.9630  143.2350 O   0  0  0  0  0  1  0  0  0  0  0  0
  195.9780  175.2760  144.5350 C   0  0  0  0  0  0  0  0  0  0  0  0
  189.5530  173.2150  143.0610 C   0  0  1  0  0  0  0  0  0  0  0  0
  197.7170  173.8490  144.8690 N   0  0  0  0  0  0  0  0  0  0  0  0
  193.8830  175.9670  143.2530 C   0  0  0  0  0  2  0  0  0  0  0  0
  189.7740  173.8410  144.4500 C   0  0  0  0  0  2  0  0  0  0  0  0
  195.5490  174.3940  145.6950 C   0  0  1  0  0  3  0  0  0  0  0  0
  194.2730  173.5370  145.4690 C   0  0  0  0  0  2  0  0  0  0  0  0
  197.1820  174.9250  144.1220 C   0  0  0  0  0  0  0  0  0  0  0  0
  191.7630  174.0900  142.5320 O   0  0  0  0  0  0  0  0  0  0  0  0
  193.6680  173.7840  144.0970 C   0  0  1  0  0  3  0  0  0  0  0  0
  197.9410  175.5980  143.0230 C   0  0  0  0  0  2  0  0  0  0  0  0
  197.9320  173.4080  141.8060 C   0  0  0  0  0  3  0  0  0  0  0  0
  197.5160  175.3830  138.0970 N   0  0  0  0  0  1  0  0  0  0  0  0
  197.8740  172.6660  140.6210 C   0  0  0  0  0  0  0  0  0  0  0  0
  197.7230  175.4600  140.5310 C   0  0  0  0  0  3  0  0  0  0  0  0
  197.9380  171.2450  140.6650 N   0  0  0  0  0  1  0  0  0  0  0  0
  197.6630  174.7190  139.3470 C   0  0  0  0  0  0  0  0  0  0  0  0
  197.7360  173.3230  139.3920 C   0  0  0  0  0  3  0  0  0  0  0  0
  197.8510  174.8050  141.7630 C   0  0  0  0  0  0  0  0  0  0  0  0
  188.5860  174.0880  142.2470 C   0  0  0  0  0  2  0  0  0  0  0  0
  189.6510  176.1520  141.7300 O   0  0  0  0  0  0  0  0  0  0  0  0
  188.7930  175.5630  142.4410 C   0  0  0  0  0  0  0  0  0  0  0  0
  186.6190  176.1600  143.5910 N   0  0  0  0  0  0  0  0  0  0  0  0
  188.4350  177.2330  144.2930 C   0  0  2  0  0  3  0  0  0  0  0  0
  190.0810  177.4780  144.9070 S   0  0  0  0  0  0  0  0  0  0  0  0
  190.4390  177.0150  147.5870 C   0  0  0  0  0  1  0  0  0  0  0  0
  189.4980  176.6940  146.4460 C   0  0  1  0  0  3  0  0  0  0  0  0
  187.7850  177.2240  146.8660 S   0  0  0  0  0  0  0  0  0  0  0  0
  187.3160  177.6500  145.1540 C   0  0  2  0  0  3  0  0  0  0  0  0
  188.0060  176.3520  143.4090 C   0  0  0  0  0  0  0  0  0  0  0  0
  186.1530  176.8610  144.7170 N   0  0  0  0  0  0  0  0  0  0  0  0
  185.1400  177.7910  144.2440 C   0  0  0  0  0  2  0  0  0  0  0  0
  184.7300  177.4340  142.9540 O   0  0  0  0  0  0  0  0  0  0  0  0
  183.9830  178.5240  142.5000 C   0  0  0  0  0  2  0  0  0  0  0  0
  181.7720  178.3470  141.2750 C   0  0  0  0  0  0  0  0  0  0  0  0
  181.0660  177.9580  140.1020 N   0  0  0  0  0  1  0  0  0  0  0  0
  181.1470  178.8730  142.2340 O   0  0  0  0  0  0  0  0  0  0  0  0
  183.1820  178.1360  141.3490 N   0  0  0  0  0  2  0  0  0  0  0  0
  1 16  1  0  0  0  0
  1  9  1  0  0  0  0
  3 17  1  0  0  0  0
  3  6  1  0  0  0  0
  3  5  1  1  0  0  0
  4  8  1  0  0  0  0
  6 11  1  6  0  0  0
  8 13  1  0  0  0  0
  9  7  1  1  0  0  0
  9 12  1  0  0  0  0
 10  2  2  0  0  0  0
 11  4  1  0  0  0  0
 12  5  1  0  0  0  0
 13 14  1  6  0  0  0
 13  2  1  0  0  0  0
 15  8  2  0  0  0  0
 15 10  1  0  0  0  0
 16  3  1  0  0  0  0
 17  6  1  0  0  0  0
 17 14  1  1  0  0  0
 18 15  1  0  0  0  0
 20 24  1  0  0  0  0
 21 23  1  0  0  0  0
 21 19  2  0  0  0  0
 22 26  2  0  0  0  0
 24 25  2  0  0  0  0
 24 22  1  0  0  0  0
 25 21  1  0  0  0  0
 26 19  1  0  0  0  0
 26 18  1  0  0  0  0
 27 29  1  0  0  0  0
 27  9  1  0  0  0  0
 28 29  2  0  0  0  0
 29 37  1  0  0  0  0
 30 38  1  0  0  0  0
 31 37  1  1  0  0  0
 31 32  1  0  0  0  0
 31 36  1  0  0  0  0
 32 34  1  0  0  0  0
 34 35  1  0  0  0  0
 34 33  1  1  0  0  0
 36 35  1  1  0  0  0
 37 30  2  0  0  0  0
 38 36  1  0  0  0  0
 39 38  1  0  0  0  0
 40 39  1  0  0  0  0
 41 40  1  0  0  0  0
 42 45  1  0  0  0  0
 42 44  2  0  0  0  0
 43 42  1  0  0  0  0
 45 41  1  0  0  0  0
M  END
>  <MODEL>
7

>  <REMARK>
 VINA RESULT:      -7.1      3.435      8.576
  Name = 
  9 active torsions:
  status: ('A' for Active; 'I' for Inactive)
    1  A    between atoms: C_7  and  C_36
    2  A    between atoms: C_7  and  C_40
    3  A    between atoms: C_15  and  N_28
    4  A    between atoms: C_15  and  O_43
    5  A    between atoms: C_21  and  O_43
    6  A    between atoms: C_21  and  N_44
    7  A    between atoms: C_24  and  C_39
    8  A    between atoms: C_31  and  C_39
    9  A    between atoms: C_31  and  C_42
                            x       y       z     vdW  Elec       q    Type
                         _______ _______ _______ _____ _____    ______ ____

>  <TORSDO>
F 9

$$$$
=
 OpenBabel11062420473D

 45 51  0  0  1  0  0  0  0  0999 V2000
  193.0000  171.0110  144.7620 C   0  0  0  0  0  2  0  0  0  0  0  0
  187.8210  174.5650  141.9320 C   0  0  0  0  0  3  0  0  0  0  0  0
  192.1740  172.3810  143.1450 C   0  0  2  0  0  0  0  0  0  0  0  0
  191.2840  176.0880  142.7640 C   0  0  0  0  0  2  0  0  0  0  0  0
  192.4040  171.2830  142.0980 C   0  0  0  0  0  2  0  0  0  0  0  0
  192.0750  173.7690  142.5580 C   0  0  2  0  0  3  0  0  0  0  0  0
  193.5990  168.8600  143.9440 O   0  0  0  0  0  1  0  0  0  0  0  0
  189.8400  175.6420  142.6220 C   0  0  0  0  0  0  0  0  0  0  0  0
  193.9310  170.2100  143.8300 C   0  0  1  0  0  0  0  0  0  0  0  0
  187.5850  175.6150  142.9120 N   0  0  0  0  0  0  0  0  0  0  0  0
  192.1900  175.0210  143.3970 C   0  0  0  0  0  2  0  0  0  0  0  0
  193.7570  170.6270  142.3580 C   0  0  0  0  0  2  0  0  0  0  0  0
  189.3370  174.5340  141.7130 C   0  0  1  0  0  3  0  0  0  0  0  0
  189.8690  173.1060  142.0140 C   0  0  0  0  0  2  0  0  0  0  0  0
  188.8260  176.1990  143.2580 C   0  0  0  0  0  0  0  0  0  0  0  0
  192.9000  172.3530  144.3540 O   0  0  0  0  0  0  0  0  0  0  0  0
  190.8450  173.1060  143.1780 C   0  0  1  0  0  3  0  0  0  0  0  0
  188.9380  177.3490  144.2070 C   0  0  0  0  0  2  0  0  0  0  0  0
  186.6540  178.3770  144.2570 C   0  0  0  0  0  3  0  0  0  0  0  0
  185.9410  176.7970  148.1070 N   0  0  0  0  0  1  0  0  0  0  0  0
  185.4390  178.6320  144.9040 C   0  0  0  0  0  0  0  0  0  0  0  0
  187.3980  177.0810  146.1660 C   0  0  0  0  0  3  0  0  0  0  0  0
  184.4380  179.4100  144.2590 N   0  0  0  0  0  1  0  0  0  0  0  0
  186.1850  177.3350  146.8120 C   0  0  0  0  0  0  0  0  0  0  0  0
  185.2050  178.1070  146.1810 C   0  0  0  0  0  3  0  0  0  0  0  0
  187.6330  177.5970  144.8850 C   0  0  0  0  0  0  0  0  0  0  0  0
  195.4010  170.3760  144.2440 C   0  0  0  0  0  2  0  0  0  0  0  0
  196.8540  171.1210  142.5130 O   0  0  0  0  0  0  0  0  0  0  0  0
  196.1260  171.4510  143.4870 C   0  0  0  0  0  0  0  0  0  0  0  0
  196.2880  173.3910  145.1040 N   0  0  0  0  0  0  0  0  0  0  0  0
  195.6960  173.8900  143.0190 C   0  0  2  0  0  3  0  0  0  0  0  0
  195.7660  173.9560  141.2490 S   0  0  0  0  0  0  0  0  0  0  0  0
  197.5630  175.7360  140.1870 C   0  0  0  0  0  1  0  0  0  0  0  0
  197.2600  174.9780  141.4620 C   0  0  1  0  0  3  0  0  0  0  0  0
  197.0810  176.1490  142.8710 S   0  0  0  0  0  0  0  0  0  0  0  0
  195.8290  175.1580  143.7550 C   0  0  2  0  0  3  0  0  0  0  0  0
  195.9890  172.8830  143.8210 C   0  0  0  0  0  0  0  0  0  0  0  0
  196.3010  174.7970  145.1030 N   0  0  0  0  0  0  0  0  0  0  0  0
  195.2910  175.2280  146.0560 C   0  0  0  0  0  2  0  0  0  0  0  0
  194.6500  176.3790  145.5830 O   0  0  0  0  0  0  0  0  0  0  0  0
  193.8240  176.7870  146.6340 C   0  0  0  0  0  2  0  0  0  0  0  0
  191.5660  176.1690  147.6030 C   0  0  0  0  0  0  0  0  0  0  0  0
  190.4530  175.2820  147.6090 N   0  0  0  0  0  1  0  0  0  0  0  0
  191.5750  177.1640  148.3770 O   0  0  0  0  0  0  0  0  0  0  0  0
  192.6580  175.9200  146.7200 N   0  0  0  0  0  2  0  0  0  0  0  0
  2 10  2  0  0  0  0
  3  5  1  6  0  0  0
  3 17  1  0  0  0  0
  3 16  1  0  0  0  0
  4 11  1  0  0  0  0
  5 12  1  0  0  0  0
  6  3  1  0  0  0  0
  6 17  1  0  0  0  0
  6 11  1  1  0  0  0
  8  4  1  0  0  0  0
  8 15  2  0  0  0  0
  9  7  1  1  0  0  0
  9 27  1  0  0  0  0
  9  1  1  0  0  0  0
 10 15  1  0  0  0  0
 12  9  1  0  0  0  0
 13  2  1  1  0  0  0
 13 14  1  0  0  0  0
 13  8  1  0  0  0  0
 15 18  1  0  0  0  0
 16  1  1  0  0  0  0
 17 14  1  6  0  0  0
 18 26  1  0  0  0  0
 19 26  2  0  0  0  0
 19 21  1  0  0  0  0
 21 25  2  0  0  0  0
 22 24  2  0  0  0  0
 23 21  1  0  0  0  0
 24 20  1  0  0  0  0
 25 24  1  0  0  0  0
 26 22  1  0  0  0  0
 28 29  2  0  0  0  0
 29 37  1  0  0  0  0
 29 27  1  0  0  0  0
 31 32  1  6  0  0  0
 31 36  1  0  0  0  0
 31 37  1  0  0  0  0
 32 34  1  0  0  0  0
 34 33  1  6  0  0  0
 34 35  1  0  0  0  0
 36 35  1  6  0  0  0
 36 38  1  0  0  0  0
 37 30  2  0  0  0  0
 38 30  1  0  0  0  0
 38 39  1  0  0  0  0
 40 39  1  0  0  0  0
 40 41  1  0  0  0  0
 41 45  1  0  0  0  0
 42 43  1  0  0  0  0
 42 44  2  0  0  0  0
 45 42  1  0  0  0  0
M  END
>  <MODEL>
8

>  <REMARK>
 VINA RESULT:      -7.1      2.606      5.454
  Name = 
  9 active torsions:
  status: ('A' for Active; 'I' for Inactive)
    1  A    between atoms: C_7  and  C_36
    2  A    between atoms: C_7  and  C_40
    3  A    between atoms: C_15  and  N_28
    4  A    between atoms: C_15  and  O_43
    5  A    between atoms: C_21  and  O_43
    6  A    between atoms: C_21  and  N_44
    7  A    between atoms: C_24  and  C_39
    8  A    between atoms: C_31  and  C_39
    9  A    between atoms: C_31  and  C_42
                            x       y       z     vdW  Elec       q    Type
                         _______ _______ _______ _____ _____    ______ ____

>  <TORSDO>
F 9

$$$$
=
 OpenBabel11062420473D

 45 51  0  0  1  0  0  0  0  0999 V2000
  192.0940  176.5850  144.5890 C   0  0  0  0  0  2  0  0  0  0  0  0
  187.0050  179.7010  148.0330 C   0  0  0  0  0  3  0  0  0  0  0  0
  190.5880  176.6470  146.2930 C   0  0  2  0  0  0  0  0  0  0  0  0
  186.8350  176.0420  146.7730 C   0  0  0  0  0  2  0  0  0  0  0  0
  191.7380  176.7220  147.3060 C   0  0  0  0  0  2  0  0  0  0  0  0
  189.2880  176.1530  146.8840 C   0  0  2  0  0  3  0  0  0  0  0  0
  194.3470  176.7380  145.3320 O   0  0  0  0  0  1  0  0  0  0  0  0
  186.7210  177.5210  147.0950 C   0  0  0  0  0  0  0  0  0  0  0  0
  193.2220  175.9160  145.4010 C   0  0  1  0  0  0  0  0  0  0  0  0
  185.9010  179.6420  147.0870 N   0  0  0  0  0  0  0  0  0  0  0  0
  188.1320  175.6790  146.0340 C   0  0  0  0  0  2  0  0  0  0  0  0
  192.8350  175.7510  146.8820 C   0  0  0  0  0  2  0  0  0  0  0  0
  187.6040  178.2910  148.0620 C   0  0  1  0  0  3  0  0  0  0  0  0
  189.1130  178.3670  147.7010 C   0  0  0  0  0  2  0  0  0  0  0  0
  185.8020  178.3220  146.5880 C   0  0  0  0  0  0  0  0  0  0  0  0
  190.8290  176.1290  145.0030 O   0  0  0  0  0  0  0  0  0  0  0  0
  189.4220  177.6040  146.4240 C   0  0  1  0  0  3  0  0  0  0  0  0
  184.7340  177.9020  145.6300 C   0  0  0  0  0  2  0  0  0  0  0  0
  184.2750  178.1130  143.1760 C   0  0  0  0  0  3  0  0  0  0  0  0
  188.4100  178.2900  142.3390 N   0  0  0  0  0  1  0  0  0  0  0  0
  184.7170  178.2310  141.8530 C   0  0  0  0  0  0  0  0  0  0  0  0
  186.5750  178.1040  143.9420 C   0  0  0  0  0  3  0  0  0  0  0  0
  183.7730  178.3080  140.7910 N   0  0  0  0  0  1  0  0  0  0  0  0
  187.0170  178.2230  142.6210 C   0  0  0  0  0  0  0  0  0  0  0  0
  186.0880  178.2890  141.5780 C   0  0  0  0  0  3  0  0  0  0  0  0
  185.2030  178.0550  144.2230 C   0  0  0  0  0  0  0  0  0  0  0  0
  193.5930  174.5490  144.8060 C   0  0  0  0  0  2  0  0  0  0  0  0
  193.9580  174.8730  142.4770 O   0  0  0  0  0  0  0  0  0  0  0  0
  193.2040  174.3910  143.3640 C   0  0  0  0  0  0  0  0  0  0  0  0
  191.1570  174.1190  141.9010 N   0  0  0  0  0  0  0  0  0  0  0  0
  191.5490  172.4910  143.3650 C   0  0  2  0  0  3  0  0  0  0  0  0
  192.4300  171.2200  144.2300 S   0  0  0  0  0  0  0  0  0  0  0  0
  192.7080  168.8370  142.8980 C   0  0  0  0  0  1  0  0  0  0  0  0
  192.4230  170.3040  142.6540 C   0  0  1  0  0  3  0  0  0  0  0  0
  190.8220  170.5010  141.7670 S   0  0  0  0  0  0  0  0  0  0  0  0
  190.3860  172.0880  142.5570 C   0  0  2  0  0  3  0  0  0  0  0  0
  191.9880  173.6640  142.9480 C   0  0  0  0  0  0  0  0  0  0  0  0
  190.2060  173.1450  141.5480 N   0  0  0  0  0  0  0  0  0  0  0  0
  188.8960  173.7390  141.7580 C   0  0  0  0  0  2  0  0  0  0  0  0
  188.4290  174.2960  140.5630 O   0  0  0  0  0  0  0  0  0  0  0  0
  188.2960  173.2120  139.6900 C   0  0  0  0  0  2  0  0  0  0  0  0
  189.3570  173.9440  137.5080 C   0  0  0  0  0  0  0  0  0  0  0  0
  189.1840  174.3820  136.1660 N   0  0  0  0  0  1  0  0  0  0  0  0
  190.5200  173.7890  137.9690 O   0  0  0  0  0  0  0  0  0  0  0  0
  188.2090  173.6840  138.3160 N   0  0  0  0  0  2  0  0  0  0  0  0
  1 16  1  0  0  0  0
  1  9  1  0  0  0  0
  2 13  1  0  0  0  0
  3 17  1  0  0  0  0
  3  6  1  0  0  0  0
  3  5  1  1  0  0  0
  4  8  1  0  0  0  0
  6 11  1  6  0  0  0
  8 13  1  0  0  0  0
  9  7  1  6  0  0  0
  9 12  1  0  0  0  0
 10  2  2  0  0  0  0
 11  4  1  0  0  0  0
 12  5  1  0  0  0  0
 13 14  1  6  0  0  0
 15 10  1  0  0  0  0
 15  8  2  0  0  0  0
 16  3  1  0  0  0  0
 17  6  1  0  0  0  0
 17 14  1  1  0  0  0
 18 15  1  0  0  0  0
 19 26  1  0  0  0  0
 20 24  1  0  0  0  0
 21 19  2  0  0  0  0
 22 26  2  0  0  0  0
 23 21  1  0  0  0  0
 24 22  1  0  0  0  0
 25 21  1  0  0  0  0
 25 24  2  0  0  0  0
 26 18  1  0  0  0  0
 27  9  1  0  0  0  0
 28 29  2  0  0  0  0
 29 27  1  0  0  0  0
 30 37  2  0  0  0  0
 31 37  1  6  0  0  0
 31 32  1  0  0  0  0
 34 33  1  1  0  0  0
 34 32  1  0  0  0  0
 35 34  1  0  0  0  0
 36 35  1  6  0  0  0
 36 31  1  0  0  0  0
 37 29  1  0  0  0  0
 38 39  1  0  0  0  0
 38 30  1  0  0  0  0
 38 36  1  0  0  0  0
 40 39  1  0  0  0  0
 41 40  1  0  0  0  0
 42 44  2  0  0  0  0
 42 45  1  0  0  0  0
 43 42  1  0  0  0  0
 45 41  1  0  0  0  0
M  END
>  <MODEL>
9

>  <REMARK>
 VINA RESULT:      -7.0      2.210      3.302
  Name = 
  9 active torsions:
  status: ('A' for Active; 'I' for Inactive)
    1  A    between atoms: C_7  and  C_36
    2  A    between atoms: C_7  and  C_40
    3  A    between atoms: C_15  and  N_28
    4  A    between atoms: C_15  and  O_43
    5  A    between atoms: C_21  and  O_43
    6  A    between atoms: C_21  and  N_44
    7  A    between atoms: C_24  and  C_39
    8  A    between atoms: C_31  and  C_39
    9  A    between atoms: C_31  and  C_42
                            x       y       z     vdW  Elec       q    Type
                         _______ _______ _______ _____ _____    ______ ____

>  <TORSDO>
F 9

$$$$
