=
 OpenBabel11062419243D

 38 39  0  0  1  0  0  0  0  0999 V2000
  184.7300  179.4780  145.0290 C   0  0  0  0  0  2  0  0  0  0  0  0
  187.7490  176.6950  145.3360 C   0  0  1  0  0  3  0  0  0  0  0  0
  183.9730  177.8770  146.5920 O   0  0  0  0  0  0  0  0  0  0  0  0
  184.3430  178.4290  142.7820 C   0  0  0  0  0  3  0  0  0  0  0  0
  184.9340  178.4190  146.0680 C   0  0  0  0  0  0  0  0  0  0  0  0
  186.6020  176.7330  146.1670 O   0  0  0  0  0  0  0  0  0  0  0  0
  186.3180  178.0680  146.5070 C   0  0  0  0  0  2  0  0  0  0  0  0
  186.3430  177.0560  143.2990 C   0  0  1  0  0  3  0  0  0  0  0  0
  187.5930  177.4910  144.0390 C   0  0  0  0  0  2  0  0  0  0  0  0
  183.8660  178.9870  143.9030 C   0  0  0  0  0  3  0  0  0  0  0  0
  185.8020  178.2280  142.5000 C   0  0  0  0  0  2  0  0  0  0  0  0
  189.0320  177.0820  146.0780 C   0  0  0  0  0  2  0  0  0  0  0  0
  192.6270  175.2300  147.1030 C   0  0  0  0  0  2  0  0  0  0  0  0
  191.3770  175.3610  147.7450 O   0  0  0  0  0  0  0  0  0  0  0  0
  189.1300  174.5260  147.4730 C   0  0  0  0  0  1  0  0  0  0  0  0
  192.7490  176.0920  145.8290 C   0  0  0  0  0  2  0  0  0  0  0  0
  191.5050  176.9470  145.5860 C   0  0  0  0  0  2  0  0  0  0  0  0
  190.2080  176.1440  145.7740 C   0  0  1  0  0  3  0  0  0  0  0  0
  190.4070  175.0020  146.7960 C   0  0  1  0  0  3  0  0  0  0  0  0
  186.6570  175.8760  142.3910 C   0  0  0  0  0  2  0  0  0  0  0  0
  187.5410  176.1400  140.1900 O   0  0  0  0  0  1  0  0  0  0  0  0
  187.8850  176.1710  141.5420 C   0  0  2  0  0  3  0  0  0  0  0  0
  190.3270  175.8540  142.2360 C   0  0  0  0  0  1  0  0  0  0  0  0
  189.0140  175.1850  141.8510 C   0  0  1  0  0  3  0  0  0  0  0  0
  188.6000  174.0850  142.8270 C   0  0  0  0  0  2  0  0  0  0  0  0
  188.5930  172.6810  142.2130 C   0  0  1  0  0  3  0  0  0  0  0  0
  189.0450  172.7160  140.7560 C   0  0  0  0  0  2  0  0  0  0  0  0
  190.2550  172.0360  140.5910 O   0  0  0  0  0  1  0  0  0  0  0  0
  189.4990  171.7580  143.0150 C   0  0  0  0  0  2  0  0  0  0  0  0
  189.9900  172.4570  144.2720 C   0  0  0  0  0  2  0  0  0  0  0  0
  191.4940  172.2800  144.4230 C   0  0  0  0  0  2  0  0  0  0  0  0
  193.5350  173.4070  143.4980 C   0  0  0  0  0  0  0  0  0  0  0  0
  192.2350  173.1030  143.4100 C   0  0  0  0  0  3  0  0  0  0  0  0
  193.9660  175.6420  142.5100 O   0  0  0  0  0  1  0  0  0  0  0  0
  194.1600  174.2660  142.4770 C   0  0  0  0  0  0  0  0  0  0  0  0
  194.8670  173.7660  141.5600 O   0  0  0  0  0  0  0  0  0  0  0  0
  194.3650  172.9210  144.6430 C   0  0  0  0  0  2  0  0  0  0  0  0
  194.6700  171.5850  144.4650 F   0  0  0  0  0  0  0  0  0  0  0  0
  1  5  1  0  0  0  0
  2 12  1  1  0  0  0
  2  6  1  0  0  0  0
  4 10  2  0  0  0  0
  5  7  1  0  0  0  0
  5  3  2  0  0  0  0
  6  7  1  0  0  0  0
  8 20  1  6  0  0  0
  8  9  1  0  0  0  0
  9  2  1  0  0  0  0
 10  1  1  0  0  0  0
 11  4  1  0  0  0  0
 11  8  1  0  0  0  0
 13 14  1  0  0  0  0
 16 13  1  0  0  0  0
 17 18  1  0  0  0  0
 17 16  1  0  0  0  0
 18 12  1  1  0  0  0
 18 19  1  0  0  0  0
 19 15  1  1  0  0  0
 19 14  1  0  0  0  0
 22 21  1  6  0  0  0
 22 24  1  0  0  0  0
 22 20  1  0  0  0  0
 24 23  1  1  0  0  0
 24 25  1  0  0  0  0
 26 27  1  6  0  0  0
 26 25  1  0  0  0  0
 26 29  1  0  0  0  0
 28 27  1  0  0  0  0
 29 30  1  0  0  0  0
 30 31  1  0  0  0  0
 32 37  1  0  0  0  0
 33 32  2  0  0  0  0
 33 31  1  0  0  0  0
 35 34  1  0  0  0  0
 35 32  1  0  0  0  0
 36 35  2  0  0  0  0
 38 37  1  0  0  0  0
M  END
>  <MODEL>
1

>  <REMARK>
 VINA RESULT:      -6.4      0.000      0.000
  Name = 
  14 active torsions:
  status: ('A' for Active; 'I' for Inactive)
    1  A    between atoms: C_2  and  C_9
    2  A    between atoms: C_4  and  C_6
    3  A    between atoms: C_4  and  C_33
    4  A    between atoms: C_6  and  C_22
    5  A    between atoms: C_6  and  C_29
    6  A    between atoms: C_9  and  C_35
    7  A    between atoms: C_12  and  C_14
    8  A    between atoms: C_12  and  C_17
    9  A    between atoms: C_13  and  C_23
   10  A    between atoms: C_20  and  C_23
   11  A    between atoms: C_20  and  C_29
   12  A    between atoms: C_21  and  C_28
   13  A    between atoms: C_28  and  C_34
   14  A    between atoms: C_33  and  C_34
                            x       y       z     vdW  Elec       q    Type
                         _______ _______ _______ _____ _____    ______ ____

>  <TORSDO>
F 14

$$$$
=
 OpenBabel11062419243D

 38 39  0  0  1  0  0  0  0  0999 V2000
  190.0190  177.2410  147.2520 C   0  0  0  0  0  2  0  0  0  0  0  0
  193.3000  175.4990  145.4740 C   0  0  1  0  0  3  0  0  0  0  0  0
  189.8240  174.9240  147.6700 O   0  0  0  0  0  0  0  0  0  0  0  0
  189.2260  177.5470  144.8910 C   0  0  0  0  0  3  0  0  0  0  0  0
  190.5720  175.8620  147.4400 C   0  0  0  0  0  0  0  0  0  0  0  0
  192.3830  174.8190  146.3140 O   0  0  0  0  0  0  0  0  0  0  0  0
  192.0500  175.6440  147.4040 C   0  0  0  0  0  2  0  0  0  0  0  0
  191.4230  176.5990  144.2390 C   0  0  1  0  0  3  0  0  0  0  0  0
  192.7600  176.8190  144.9210 C   0  0  0  0  0  2  0  0  0  0  0  0
  188.9700  177.2740  146.1780 C   0  0  0  0  0  3  0  0  0  0  0  0
  190.5890  177.8640  144.3550 C   0  0  0  0  0  2  0  0  0  0  0  0
  194.6730  175.6870  146.1260 C   0  0  0  0  0  2  0  0  0  0  0  0
  196.1120  173.1240  143.1650 C   0  0  0  0  0  2  0  0  0  0  0  0
  195.5660  174.4250  143.1510 O   0  0  0  0  0  0  0  0  0  0  0  0
  196.2100  176.6430  143.8430 C   0  0  0  0  0  1  0  0  0  0  0  0
  196.0030  172.4340  144.5410 C   0  0  0  0  0  2  0  0  0  0  0  0
  195.2660  173.2970  145.5650 C   0  0  0  0  0  2  0  0  0  0  0  0
  195.7460  174.7560  145.5430 C   0  0  1  0  0  3  0  0  0  0  0  0
  196.2520  175.1510  144.1360 C   0  0  1  0  0  3  0  0  0  0  0  0
  191.6360  176.2190  142.7810 C   0  0  0  0  0  2  0  0  0  0  0  0
  192.4580  174.4310  141.4310 O   0  0  0  0  0  1  0  0  0  0  0  0
  191.8370  174.7170  142.6480 C   0  0  2  0  0  3  0  0  0  0  0  0
  190.3450  173.2270  144.0990 C   0  0  0  0  0  1  0  0  0  0  0  0
  190.5060  173.9720  142.7800 C   0  0  1  0  0  3  0  0  0  0  0  0
  189.2960  174.8410  142.4380 C   0  0  0  0  0  2  0  0  0  0  0  0
  188.8010  174.6760  140.9980 C   0  0  1  0  0  3  0  0  0  0  0  0
  188.2750  173.2640  140.7550 C   0  0  0  0  0  2  0  0  0  0  0  0
  187.4250  172.8620  141.7870 O   0  0  0  0  0  1  0  0  0  0  0  0
  187.7080  175.6940  140.7040 C   0  0  0  0  0  2  0  0  0  0  0  0
  187.5680  176.6710  141.8590 C   0  0  0  0  0  2  0  0  0  0  0  0
  186.1010  176.8700  142.2100 C   0  0  0  0  0  2  0  0  0  0  0  0
  185.3280  177.8390  144.3900 C   0  0  0  0  0  0  0  0  0  0  0  0
  185.8980  176.8470  143.6970 C   0  0  0  0  0  3  0  0  0  0  0  0
  185.2260  178.8980  146.6310 O   0  0  0  0  0  1  0  0  0  0  0  0
  185.2200  177.7440  145.8560 C   0  0  0  0  0  0  0  0  0  0  0  0
  185.1300  176.6210  146.4240 O   0  0  0  0  0  0  0  0  0  0  0  0
  184.8290  179.0710  143.7040 C   0  0  0  0  0  2  0  0  0  0  0  0
  185.7610  180.0840  143.8260 F   0  0  0  0  0  0  0  0  0  0  0  0
  1  5  1  0  0  0  0
  2 12  1  1  0  0  0
  2  6  1  0  0  0  0
  4 10  2  0  0  0  0
  5  3  2  0  0  0  0
  6  7  1  0  0  0  0
  7  5  1  0  0  0  0
  8 20  1  6  0  0  0
  8 11  1  0  0  0  0
  8  9  1  0  0  0  0
  9  2  1  0  0  0  0
 10  1  1  0  0  0  0
 11  4  1  0  0  0  0
 13 16  1  0  0  0  0
 14 13  1  0  0  0  0
 14 19  1  0  0  0  0
 16 17  1  0  0  0  0
 18 17  1  0  0  0  0
 18 12  1  6  0  0  0
 19 15  1  6  0  0  0
 19 18  1  0  0  0  0
 22 21  1  6  0  0  0
 22 24  1  0  0  0  0
 22 20  1  0  0  0  0
 24 23  1  1  0  0  0
 25 24  1  0  0  0  0
 26 29  1  1  0  0  0
 26 25  1  0  0  0  0
 27 26  1  0  0  0  0
 27 28  1  0  0  0  0
 29 30  1  0  0  0  0
 30 31  1  0  0  0  0
 31 33  1  0  0  0  0
 32 35  1  0  0  0  0
 33 32  2  0  0  0  0
 35 36  2  0  0  0  0
 35 34  1  0  0  0  0
 37 38  1  0  0  0  0
 37 32  1  0  0  0  0
M  END
>  <MODEL>
2

>  <REMARK>
 VINA RESULT:      -6.4      2.585      6.584
  Name = 
  14 active torsions:
  status: ('A' for Active; 'I' for Inactive)
    1  A    between atoms: C_2  and  C_9
    2  A    between atoms: C_4  and  C_6
    3  A    between atoms: C_4  and  C_33
    4  A    between atoms: C_6  and  C_22
    5  A    between atoms: C_6  and  C_29
    6  A    between atoms: C_9  and  C_35
    7  A    between atoms: C_12  and  C_14
    8  A    between atoms: C_12  and  C_17
    9  A    between atoms: C_13  and  C_23
   10  A    between atoms: C_20  and  C_23
   11  A    between atoms: C_20  and  C_29
   12  A    between atoms: C_21  and  C_28
   13  A    between atoms: C_28  and  C_34
   14  A    between atoms: C_33  and  C_34
                            x       y       z     vdW  Elec       q    Type
                         _______ _______ _______ _____ _____    ______ ____

>  <TORSDO>
F 14

$$$$
=
 OpenBabel11062419243D

 38 39  0  0  1  0  0  0  0  0999 V2000
  185.6040  178.9340  145.1490 C   0  0  0  0  0  2  0  0  0  0  0  0
  189.1170  176.8100  144.8280 C   0  0  1  0  0  3  0  0  0  0  0  0
  185.1550  176.8030  146.0650 O   0  0  0  0  0  0  0  0  0  0  0  0
  185.4850  178.6140  142.6630 C   0  0  0  0  0  3  0  0  0  0  0  0
  185.9960  177.6530  145.8190 C   0  0  0  0  0  0  0  0  0  0  0  0
  187.9690  176.3650  145.5290 O   0  0  0  0  0  0  0  0  0  0  0  0
  187.4130  177.4420  146.2430 C   0  0  0  0  0  2  0  0  0  0  0  0
  187.7100  177.5420  142.8930 C   0  0  1  0  0  3  0  0  0  0  0  0
  188.8300  177.9390  143.8360 C   0  0  0  0  0  2  0  0  0  0  0  0
  184.8810  178.6810  143.8570 C   0  0  0  0  0  3  0  0  0  0  0  0
  186.9590  178.7880  142.4570 C   0  0  0  0  0  2  0  0  0  0  0  0
  190.2790  177.1690  145.7600 C   0  0  0  0  0  2  0  0  0  0  0  0
  194.3450  176.3550  146.2170 C   0  0  0  0  0  2  0  0  0  0  0  0
  193.3120  176.7060  147.1120 O   0  0  0  0  0  0  0  0  0  0  0  0
  191.3300  175.6930  148.0410 C   0  0  0  0  0  1  0  0  0  0  0  0
  193.9260  176.4540  144.7350 C   0  0  0  0  0  2  0  0  0  0  0  0
  192.4980  176.9760  144.5710 C   0  0  0  0  0  2  0  0  0  0  0  0
  191.5190  176.2920  145.5370 C   0  0  1  0  0  3  0  0  0  0  0  0
  192.2380  175.8460  146.8310 C   0  0  1  0  0  3  0  0  0  0  0  0
  188.2760  176.7990  141.6920 C   0  0  0  0  0  2  0  0  0  0  0  0
  186.7910  175.1900  142.6410 O   0  0  0  0  0  1  0  0  0  0  0  0
  187.5740  175.4600  141.5180 C   0  0  2  0  0  3  0  0  0  0  0  0
  188.7660  173.9940  139.7920 C   0  0  0  0  0  1  0  0  0  0  0  0
  188.5860  174.3400  141.2650 C   0  0  1  0  0  3  0  0  0  0  0  0
  189.9140  174.5550  141.9890 C   0  0  0  0  0  2  0  0  0  0  0  0
  190.1260  173.6220  143.1860 C   0  0  1  0  0  3  0  0  0  0  0  0
  189.2500  172.3780  143.0750 C   0  0  0  0  0  2  0  0  0  0  0  0
  189.9090  171.3630  142.3760 O   0  0  0  0  0  1  0  0  0  0  0  0
  191.5910  173.2190  143.2770 C   0  0  0  0  0  2  0  0  0  0  0  0
  191.9530  172.8530  144.7070 C   0  0  0  0  0  2  0  0  0  0  0  0
  193.2170  172.0070  144.7330 C   0  0  0  0  0  2  0  0  0  0  0  0
  195.6050  172.7710  144.7560 C   0  0  0  0  0  0  0  0  0  0  0  0
  194.3750  172.7900  145.2800 C   0  0  0  0  0  3  0  0  0  0  0  0
  197.2980  174.5850  144.7180 O   0  0  0  0  0  0  0  0  0  0  0  0
  196.6890  173.5360  145.3970 C   0  0  0  0  0  0  0  0  0  0  0  0
  197.0820  173.2460  146.5600 O   0  0  0  0  0  1  0  0  0  0  0  0
  195.9150  171.9520  143.5430 C   0  0  0  0  0  2  0  0  0  0  0  0
  196.0320  172.7750  142.4400 F   0  0  0  0  0  0  0  0  0  0  0  0
  1  5  1  0  0  0  0
  2  6  1  0  0  0  0
  2 12  1  1  0  0  0
  4 10  2  0  0  0  0
  5  3  2  0  0  0  0
  5  7  1  0  0  0  0
  6  7  1  0  0  0  0
  8 20  1  6  0  0  0
  8  9  1  0  0  0  0
  9  2  1  0  0  0  0
 10  1  1  0  0  0  0
 11  4  1  0  0  0  0
 11  8  1  0  0  0  0
 13 14  1  0  0  0  0
 16 13  1  0  0  0  0
 17 16  1  0  0  0  0
 17 18  1  0  0  0  0
 18 12  1  1  0  0  0
 18 19  1  0  0  0  0
 19 14  1  0  0  0  0
 19 15  1  1  0  0  0
 22 20  1  0  0  0  0
 22 21  1  1  0  0  0
 24 23  1  6  0  0  0
 24 22  1  0  0  0  0
 24 25  1  0  0  0  0
 26 25  1  6  0  0  0
 26 29  1  0  0  0  0
 27 26  1  0  0  0  0
 28 27  1  0  0  0  0
 29 30  1  0  0  0  0
 30 31  1  0  0  0  0
 31 33  1  0  0  0  0
 32 33  2  0  0  0  0
 32 35  1  0  0  0  0
 34 35  2  0  0  0  0
 35 36  1  0  0  0  0
 37 32  1  0  0  0  0
 38 37  1  0  0  0  0
M  END
>  <MODEL>
3

>  <REMARK>
 VINA RESULT:      -6.4      1.811      2.260
  Name = 
  14 active torsions:
  status: ('A' for Active; 'I' for Inactive)
    1  A    between atoms: C_2  and  C_9
    2  A    between atoms: C_4  and  C_6
    3  A    between atoms: C_4  and  C_33
    4  A    between atoms: C_6  and  C_22
    5  A    between atoms: C_6  and  C_29
    6  A    between atoms: C_9  and  C_35
    7  A    between atoms: C_12  and  C_14
    8  A    between atoms: C_12  and  C_17
    9  A    between atoms: C_13  and  C_23
   10  A    between atoms: C_20  and  C_23
   11  A    between atoms: C_20  and  C_29
   12  A    between atoms: C_21  and  C_28
   13  A    between atoms: C_28  and  C_34
   14  A    between atoms: C_33  and  C_34
                            x       y       z     vdW  Elec       q    Type
                         _______ _______ _______ _____ _____    ______ ____

>  <TORSDO>
F 14

$$$$
=
 OpenBabel11062419243D

 38 39  0  0  1  0  0  0  0  0999 V2000
  185.3830  178.9150  145.7000 C   0  0  0  0  0  2  0  0  0  0  0  0
  188.8870  176.8680  145.0010 C   0  0  1  0  0  3  0  0  0  0  0  0
  184.9880  176.6980  146.4150 O   0  0  0  0  0  0  0  0  0  0  0  0
  185.1470  178.8470  143.2020 C   0  0  0  0  0  3  0  0  0  0  0  0
  185.8130  177.5770  146.2180 C   0  0  0  0  0  0  0  0  0  0  0  0
  187.7750  176.3440  145.7060 O   0  0  0  0  0  0  0  0  0  0  0  0
  187.2500  177.3380  146.5510 C   0  0  0  0  0  2  0  0  0  0  0  0
  187.3860  177.7790  143.2190 C   0  0  1  0  0  3  0  0  0  0  0  0
  188.5480  178.0890  144.1430 C   0  0  0  0  0  2  0  0  0  0  0  0
  184.6010  178.7870  144.4250 C   0  0  0  0  0  3  0  0  0  0  0  0
  186.6100  179.0560  142.9470 C   0  0  0  0  0  2  0  0  0  0  0  0
  190.0900  177.1410  145.9090 C   0  0  0  0  0  2  0  0  0  0  0  0
  194.1640  176.2700  146.1250 C   0  0  0  0  0  2  0  0  0  0  0  0
  193.1720  176.5490  147.0880 O   0  0  0  0  0  0  0  0  0  0  0  0
  191.2220  175.4720  148.0110 C   0  0  0  0  0  1  0  0  0  0  0  0
  193.6860  176.4970  144.6760 C   0  0  0  0  0  2  0  0  0  0  0  0
  192.2560  177.0390  144.6160 C   0  0  0  0  0  2  0  0  0  0  0  0
  191.3120  176.2800  145.5610 C   0  0  1  0  0  3  0  0  0  0  0  0
  192.0810  175.7220  146.7810 C   0  0  1  0  0  3  0  0  0  0  0  0
  187.8980  177.1660  141.9230 C   0  0  0  0  0  2  0  0  0  0  0  0
  186.4660  175.4610  142.7810 O   0  0  0  0  0  1  0  0  0  0  0  0
  187.2260  175.8250  141.6690 C   0  0  2  0  0  3  0  0  0  0  0  0
  188.3940  174.4770  139.8350 C   0  0  0  0  0  1  0  0  0  0  0  0
  188.2600  174.7500  141.3270 C   0  0  1  0  0  3  0  0  0  0  0  0
  189.6080  174.9740  142.0120 C   0  0  0  0  0  2  0  0  0  0  0  0
  189.9660  173.8980  143.0420 C   0  0  1  0  0  3  0  0  0  0  0  0
  189.1630  172.6220  142.8080 C   0  0  0  0  0  2  0  0  0  0  0  0
  189.7240  171.5440  143.4950 O   0  0  0  0  0  1  0  0  0  0  0  0
  191.4560  173.5920  142.9770 C   0  0  0  0  0  2  0  0  0  0  0  0
  192.1280  174.4470  141.9160 C   0  0  0  0  0  2  0  0  0  0  0  0
  192.9010  173.5710  140.9410 C   0  0  0  0  0  2  0  0  0  0  0  0
  191.5250  172.7420  139.0150 C   0  0  0  0  0  0  0  0  0  0  0  0
  192.3220  173.6690  139.5590 C   0  0  0  0  0  3  0  0  0  0  0  0
  190.7260  174.1680  137.1480 O   0  0  0  0  0  1  0  0  0  0  0  0
  191.0490  172.9040  137.6310 C   0  0  0  0  0  0  0  0  0  0  0  0
  190.9200  171.9050  136.8720 O   0  0  0  0  0  0  0  0  0  0  0  0
  191.1370  171.5140  139.7770 C   0  0  0  0  0  2  0  0  0  0  0  0
  189.7630  171.4630  139.9110 F   0  0  0  0  0  0  0  0  0  0  0  0
  1  5  1  0  0  0  0
  2  6  1  0  0  0  0
  2 12  1  1  0  0  0
  4 10  2  0  0  0  0
  5  3  2  0  0  0  0
  5  7  1  0  0  0  0
  6  7  1  0  0  0  0
  8 20  1  6  0  0  0
  8  9  1  0  0  0  0
  9  2  1  0  0  0  0
 10  1  1  0  0  0  0
 11  4  1  0  0  0  0
 11  8  1  0  0  0  0
 13 14  1  0  0  0  0
 16 13  1  0  0  0  0
 17 16  1  0  0  0  0
 17 18  1  0  0  0  0
 18 12  1  1  0  0  0
 18 19  1  0  0  0  0
 19 14  1  0  0  0  0
 19 15  1  1  0  0  0
 22 20  1  0  0  0  0
 22 21  1  1  0  0  0
 24 23  1  6  0  0  0
 24 22  1  0  0  0  0
 24 25  1  0  0  0  0
 26 25  1  6  0  0  0
 27 26  1  0  0  0  0
 27 28  1  0  0  0  0
 29 26  1  0  0  0  0
 30 29  1  0  0  0  0
 31 30  1  0  0  0  0
 32 33  2  0  0  0  0
 32 37  1  0  0  0  0
 33 31  1  0  0  0  0
 34 35  1  0  0  0  0
 35 32  1  0  0  0  0
 36 35  2  0  0  0  0
 37 38  1  0  0  0  0
M  END
>  <MODEL>
4

>  <REMARK>
 VINA RESULT:      -6.3      2.236      3.079
  Name = 
  14 active torsions:
  status: ('A' for Active; 'I' for Inactive)
    1  A    between atoms: C_2  and  C_9
    2  A    between atoms: C_4  and  C_6
    3  A    between atoms: C_4  and  C_33
    4  A    between atoms: C_6  and  C_22
    5  A    between atoms: C_6  and  C_29
    6  A    between atoms: C_9  and  C_35
    7  A    between atoms: C_12  and  C_14
    8  A    between atoms: C_12  and  C_17
    9  A    between atoms: C_13  and  C_23
   10  A    between atoms: C_20  and  C_23
   11  A    between atoms: C_20  and  C_29
   12  A    between atoms: C_21  and  C_28
   13  A    between atoms: C_28  and  C_34
   14  A    between atoms: C_33  and  C_34
                            x       y       z     vdW  Elec       q    Type
                         _______ _______ _______ _____ _____    ______ ____

>  <TORSDO>
F 14

$$$$
=
 OpenBabel11062419243D

 38 39  0  0  1  0  0  0  0  0999 V2000
  184.7750  178.1800  145.3790 C   0  0  0  0  0  2  0  0  0  0  0  0
  187.9270  176.7840  143.1270 C   0  0  1  0  0  3  0  0  0  0  0  0
  185.3090  179.9190  143.8700 O   0  0  0  0  0  0  0  0  0  0  0  0
  186.4900  178.3500  147.2030 C   0  0  0  0  0  3  0  0  0  0  0  0
  185.3280  178.7180  144.0950 C   0  0  0  0  0  0  0  0  0  0  0  0
  187.2270  177.9890  142.8710 O   0  0  0  0  0  0  0  0  0  0  0  0
  185.8490  177.7760  143.0590 C   0  0  0  0  0  2  0  0  0  0  0  0
  188.0420  177.3140  145.5690 C   0  0  1  0  0  3  0  0  0  0  0  0
  187.7210  176.2440  144.5430 C   0  0  0  0  0  2  0  0  0  0  0  0
  185.4120  178.8350  146.5710 C   0  0  0  0  0  3  0  0  0  0  0  0
  187.1960  177.0880  146.8100 C   0  0  0  0  0  2  0  0  0  0  0  0
  187.6550  175.7060  142.0730 C   0  0  0  0  0  2  0  0  0  0  0  0
  190.9270  173.2310  142.8350 C   0  0  0  0  0  2  0  0  0  0  0  0
  189.5420  173.1250  143.0830 O   0  0  0  0  0  0  0  0  0  0  0  0
  187.5160  172.8070  141.8130 C   0  0  0  0  0  1  0  0  0  0  0  0
  191.3480  174.6260  142.3260 C   0  0  0  0  0  2  0  0  0  0  0  0
  190.1710  175.6010  142.2670 C   0  0  0  0  0  2  0  0  0  0  0  0
  188.9250  174.9640  141.6330 C   0  0  1  0  0  3  0  0  0  0  0  0
  188.9000  173.4370  141.8750 C   0  0  1  0  0  3  0  0  0  0  0  0
  189.5250  177.2850  145.9080 C   0  0  0  0  0  2  0  0  0  0  0  0
  190.4360  177.6840  148.0770 O   0  0  0  0  0  1  0  0  0  0  0  0
  189.7380  176.7460  147.3140 C   0  0  2  0  0  3  0  0  0  0  0  0
  189.9620  174.4510  146.2060 C   0  0  0  0  0  1  0  0  0  0  0  0
  190.4700  175.4020  147.2810 C   0  0  1  0  0  3  0  0  0  0  0  0
  191.9910  175.5470  147.2740 C   0  0  0  0  0  2  0  0  0  0  0  0
  192.6130  175.4950  145.8760 C   0  0  1  0  0  3  0  0  0  0  0  0
  193.1410  176.8640  145.4560 C   0  0  0  0  0  2  0  0  0  0  0  0
  192.6400  177.2310  144.2050 O   0  0  0  0  0  1  0  0  0  0  0  0
  193.7420  174.4740  145.8460 C   0  0  0  0  0  2  0  0  0  0  0  0
  195.0800  175.1540  146.0800 C   0  0  0  0  0  2  0  0  0  0  0  0
  196.0780  174.7420  145.0080 C   0  0  0  0  0  2  0  0  0  0  0  0
  195.4650  175.1550  142.6120 C   0  0  0  0  0  0  0  0  0  0  0  0
  195.9340  175.5980  143.7840 C   0  0  0  0  0  3  0  0  0  0  0  0
  194.4640  175.8600  140.4540 O   0  0  0  0  0  0  0  0  0  0  0  0
  195.4100  176.0620  141.4520 C   0  0  0  0  0  0  0  0  0  0  0  0
  196.2200  177.0220  141.3470 O   0  0  0  0  0  1  0  0  0  0  0  0
  195.0270  173.7340  142.4430 C   0  0  0  0  0  2  0  0  0  0  0  0
  195.7680  173.1330  141.4440 F   0  0  0  0  0  0  0  0  0  0  0  0
  1 10  1  0  0  0  0
  2 12  1  6  0  0  0
  2  9  1  0  0  0  0
  3  5  2  0  0  0  0
  5  1  1  0  0  0  0
  6  7  1  0  0  0  0
  6  2  1  0  0  0  0
  7  5  1  0  0  0  0
  8 20  1  1  0  0  0
  8 11  1  0  0  0  0
  9  8  1  0  0  0  0
 10  4  2  0  0  0  0
 11  4  1  0  0  0  0
 13 14  1  0  0  0  0
 16 13  1  0  0  0  0
 17 16  1  0  0  0  0
 18 19  1  0  0  0  0
 18 12  1  1  0  0  0
 18 17  1  0  0  0  0
 19 15  1  1  0  0  0
 19 14  1  0  0  0  0
 20 22  1  0  0  0  0
 22 21  1  1  0  0  0
 24 23  1  6  0  0  0
 24 22  1  0  0  0  0
 25 24  1  0  0  0  0
 26 27  1  1  0  0  0
 26 25  1  0  0  0  0
 28 27  1  0  0  0  0
 29 26  1  0  0  0  0
 29 30  1  0  0  0  0
 31 30  1  0  0  0  0
 32 33  2  0  0  0  0
 33 31  1  0  0  0  0
 34 35  2  0  0  0  0
 35 32  1  0  0  0  0
 36 35  1  0  0  0  0
 37 32  1  0  0  0  0
 38 37  1  0  0  0  0
M  END
>  <MODEL>
5

>  <REMARK>
 VINA RESULT:      -6.2      1.814      4.670
  Name = 
  14 active torsions:
  status: ('A' for Active; 'I' for Inactive)
    1  A    between atoms: C_2  and  C_9
    2  A    between atoms: C_4  and  C_6
    3  A    between atoms: C_4  and  C_33
    4  A    between atoms: C_6  and  C_22
    5  A    between atoms: C_6  and  C_29
    6  A    between atoms: C_9  and  C_35
    7  A    between atoms: C_12  and  C_14
    8  A    between atoms: C_12  and  C_17
    9  A    between atoms: C_13  and  C_23
   10  A    between atoms: C_20  and  C_23
   11  A    between atoms: C_20  and  C_29
   12  A    between atoms: C_21  and  C_28
   13  A    between atoms: C_28  and  C_34
   14  A    between atoms: C_33  and  C_34
                            x       y       z     vdW  Elec       q    Type
                         _______ _______ _______ _____ _____    ______ ____

>  <TORSDO>
F 14

$$$$
=
 OpenBabel11062419243D

 38 39  0  0  1  0  0  0  0  0999 V2000
  184.5630  178.1060  143.6900 C   0  0  0  0  0  2  0  0  0  0  0  0
  188.0400  176.1010  142.7720 C   0  0  1  0  0  3  0  0  0  0  0  0
  185.3760  179.1000  141.7060 O   0  0  0  0  0  0  0  0  0  0  0  0
  185.9350  179.1130  145.5340 C   0  0  0  0  0  3  0  0  0  0  0  0
  185.3380  178.1020  142.4090 C   0  0  0  0  0  0  0  0  0  0  0  0
  187.4120  177.0500  141.9280 O   0  0  0  0  0  0  0  0  0  0  0  0
  186.0190  176.8500  141.9590 C   0  0  0  0  0  2  0  0  0  0  0  0
  187.7350  177.5930  144.7560 C   0  0  1  0  0  3  0  0  0  0  0  0
  187.5820  176.1790  144.2300 C   0  0  0  0  0  2  0  0  0  0  0  0
  184.9920  179.2300  144.5900 C   0  0  0  0  0  3  0  0  0  0  0  0
  186.6820  177.8460  145.8220 C   0  0  0  0  0  2  0  0  0  0  0  0
  187.9420  174.6710  142.2320 C   0  0  0  0  0  2  0  0  0  0  0  0
  190.3570  171.4440  141.1540 C   0  0  0  0  0  2  0  0  0  0  0  0
  189.2330  172.0630  140.5670 O   0  0  0  0  0  0  0  0  0  0  0  0
  188.7070  174.1460  139.4710 C   0  0  0  0  0  1  0  0  0  0  0  0
  190.6600  171.9590  142.5770 C   0  0  0  0  0  2  0  0  0  0  0  0
  189.6290  172.9820  143.0560 C   0  0  0  0  0  2  0  0  0  0  0  0
  189.3130  174.0300  141.9770 C   0  0  1  0  0  3  0  0  0  0  0  0
  189.5000  173.4410  140.5600 C   0  0  1  0  0  3  0  0  0  0  0  0
  189.1350  177.7950  145.3150 C   0  0  0  0  0  2  0  0  0  0  0  0
  189.7220  177.9310  147.6240 O   0  0  0  0  0  1  0  0  0  0  0  0
  189.2950  177.0480  146.6310 C   0  0  2  0  0  3  0  0  0  0  0  0
  189.6230  174.5130  146.7290 C   0  0  0  0  0  1  0  0  0  0  0  0
  190.2630  175.8720  146.4800 C   0  0  1  0  0  3  0  0  0  0  0  0
  191.0670  175.9190  145.1810 C   0  0  0  0  0  2  0  0  0  0  0  0
  192.4250  176.6140  145.3170 C   0  0  1  0  0  3  0  0  0  0  0  0
  193.2050  176.0690  146.5090 C   0  0  0  0  0  2  0  0  0  0  0  0
  194.3400  176.8420  146.7610 O   0  0  0  0  0  1  0  0  0  0  0  0
  193.2330  176.4290  144.0410 C   0  0  0  0  0  2  0  0  0  0  0  0
  192.5200  175.4800  143.0930 C   0  0  0  0  0  2  0  0  0  0  0  0
  193.4730  174.3940  142.6140 C   0  0  0  0  0  2  0  0  0  0  0  0
  194.6590  173.2890  144.5260 C   0  0  0  0  0  0  0  0  0  0  0  0
  194.6160  174.2240  143.5710 C   0  0  0  0  0  3  0  0  0  0  0  0
  196.4720  174.4040  145.8020 O   0  0  0  0  0  0  0  0  0  0  0  0
  195.8040  173.2360  145.4510 C   0  0  0  0  0  0  0  0  0  0  0  0
  196.1970  172.1360  145.9280 O   0  0  0  0  0  1  0  0  0  0  0  0
  193.5400  172.3120  144.7010 C   0  0  0  0  0  2  0  0  0  0  0  0
  192.5020  172.9090  145.3910 F   0  0  0  0  0  0  0  0  0  0  0  0
  1 10  1  0  0  0  0
  2 12  1  6  0  0  0
  2  9  1  0  0  0  0
  3  5  2  0  0  0  0
  4 11  1  0  0  0  0
  5  1  1  0  0  0  0
  6  7  1  0  0  0  0
  6  2  1  0  0  0  0
  7  5  1  0  0  0  0
  8 20  1  1  0  0  0
  8 11  1  0  0  0  0
  9  8  1  0  0  0  0
 10  4  2  0  0  0  0
 13 16  1  0  0  0  0
 14 13  1  0  0  0  0
 16 17  1  0  0  0  0
 18 12  1  6  0  0  0
 18 17  1  0  0  0  0
 19 15  1  6  0  0  0
 19 14  1  0  0  0  0
 19 18  1  0  0  0  0
 20 22  1  0  0  0  0
 22 21  1  1  0  0  0
 24 22  1  0  0  0  0
 24 23  1  6  0  0  0
 25 26  1  0  0  0  0
 25 24  1  0  0  0  0
 26 29  1  6  0  0  0
 26 27  1  0  0  0  0
 27 28  1  0  0  0  0
 30 29  1  0  0  0  0
 31 30  1  0  0  0  0
 31 33  1  0  0  0  0
 32 37  1  0  0  0  0
 32 35  1  0  0  0  0
 33 32  2  0  0  0  0
 35 34  2  0  0  0  0
 35 36  1  0  0  0  0
 37 38  1  0  0  0  0
M  END
>  <MODEL>
6

>  <REMARK>
 VINA RESULT:      -6.2      1.940      4.971
  Name = 
  14 active torsions:
  status: ('A' for Active; 'I' for Inactive)
    1  A    between atoms: C_2  and  C_9
    2  A    between atoms: C_4  and  C_6
    3  A    between atoms: C_4  and  C_33
    4  A    between atoms: C_6  and  C_22
    5  A    between atoms: C_6  and  C_29
    6  A    between atoms: C_9  and  C_35
    7  A    between atoms: C_12  and  C_14
    8  A    between atoms: C_12  and  C_17
    9  A    between atoms: C_13  and  C_23
   10  A    between atoms: C_20  and  C_23
   11  A    between atoms: C_20  and  C_29
   12  A    between atoms: C_21  and  C_28
   13  A    between atoms: C_28  and  C_34
   14  A    between atoms: C_33  and  C_34
                            x       y       z     vdW  Elec       q    Type
                         _______ _______ _______ _____ _____    ______ ____

>  <TORSDO>
F 14

$$$$
=
 OpenBabel11062419243D

 38 39  0  0  1  0  0  0  0  0999 V2000
  190.0860  177.0860  147.3540 C   0  0  0  0  0  2  0  0  0  0  0  0
  192.9640  175.2000  145.0910 C   0  0  1  0  0  3  0  0  0  0  0  0
  189.8070  174.7740  147.7530 O   0  0  0  0  0  0  0  0  0  0  0  0
  188.9850  177.5030  145.1380 C   0  0  0  0  0  3  0  0  0  0  0  0
  190.5710  175.6710  147.4340 C   0  0  0  0  0  0  0  0  0  0  0  0
  192.1350  174.5530  146.0410 O   0  0  0  0  0  0  0  0  0  0  0  0
  192.0130  175.3660  147.1830 C   0  0  0  0  0  2  0  0  0  0  0  0
  191.0040  176.4440  144.1590 C   0  0  1  0  0  3  0  0  0  0  0  0
  192.4350  176.5650  144.6450 C   0  0  0  0  0  2  0  0  0  0  0  0
  188.8990  177.2100  146.4430 C   0  0  0  0  0  3  0  0  0  0  0  0
  190.2760  177.7520  144.4170 C   0  0  0  0  0  2  0  0  0  0  0  0
  194.4250  175.2880  145.5410 C   0  0  0  0  0  2  0  0  0  0  0  0
  195.4870  173.1530  142.1180 C   0  0  0  0  0  2  0  0  0  0  0  0
  195.1480  174.5000  142.3640 O   0  0  0  0  0  0  0  0  0  0  0  0
  196.1180  176.4180  143.4570 C   0  0  0  0  0  1  0  0  0  0  0  0
  195.2570  172.2360  143.3370 C   0  0  0  0  0  2  0  0  0  0  0  0
  194.6490  172.9880  144.5220 C   0  0  0  0  0  2  0  0  0  0  0  0
  195.3480  174.3330  144.7710 C   0  0  1  0  0  3  0  0  0  0  0  0
  195.9260  174.9090  143.4580 C   0  0  1  0  0  3  0  0  0  0  0  0
  190.9820  176.0910  142.6790 C   0  0  0  0  0  2  0  0  0  0  0  0
  190.6780  173.8300  141.9780 O   0  0  0  0  0  1  0  0  0  0  0  0
  189.9930  174.9660  142.4150 C   0  0  2  0  0  3  0  0  0  0  0  0
  188.3540  174.2460  140.5870 C   0  0  0  0  0  1  0  0  0  0  0  0
  188.9300  175.3970  141.4030 C   0  0  1  0  0  3  0  0  0  0  0  0
  187.8500  176.2910  142.0100 C   0  0  0  0  0  2  0  0  0  0  0  0
  187.5160  177.5230  141.1630 C   0  0  1  0  0  3  0  0  0  0  0  0
  186.4600  177.1970  140.1110 C   0  0  0  0  0  2  0  0  0  0  0  0
  185.5030  178.2120  140.0310 O   0  0  0  0  0  1  0  0  0  0  0  0
  187.0250  178.6520  142.0580 C   0  0  0  0  0  2  0  0  0  0  0  0
  186.0590  178.1190  143.1030 C   0  0  0  0  0  2  0  0  0  0  0  0
  185.3820  179.2700  143.8340 C   0  0  0  0  0  2  0  0  0  0  0  0
  185.4470  178.7190  146.2790 C   0  0  0  0  0  0  0  0  0  0  0  0
  185.9150  179.4050  145.2300 C   0  0  0  0  0  3  0  0  0  0  0  0
  186.1910  177.8980  148.4990 O   0  0  0  0  0  1  0  0  0  0  0  0
  186.0040  178.9600  147.6220 C   0  0  0  0  0  0  0  0  0  0  0  0
  186.3070  180.1270  147.9940 O   0  0  0  0  0  0  0  0  0  0  0  0
  184.3340  177.7320  146.1220 C   0  0  0  0  0  2  0  0  0  0  0  0
  184.7930  176.4610  146.4080 F   0  0  0  0  0  0  0  0  0  0  0  0
  1  5  1  0  0  0  0
  2 12  1  1  0  0  0
  2  6  1  0  0  0  0
  4 10  2  0  0  0  0
  5  3  2  0  0  0  0
  6  7  1  0  0  0  0
  7  5  1  0  0  0  0
  8 20  1  6  0  0  0
  8 11  1  0  0  0  0
  8  9  1  0  0  0  0
  9  2  1  0  0  0  0
 10  1  1  0  0  0  0
 11  4  1  0  0  0  0
 13 14  1  0  0  0  0
 13 16  1  0  0  0  0
 14 19  1  0  0  0  0
 16 17  1  0  0  0  0
 17 18  1  0  0  0  0
 18 12  1  6  0  0  0
 19 15  1  1  0  0  0
 19 18  1  0  0  0  0
 22 21  1  6  0  0  0
 22 20  1  0  0  0  0
 24 23  1  1  0  0  0
 24 25  1  0  0  0  0
 24 22  1  0  0  0  0
 26 27  1  6  0  0  0
 26 25  1  0  0  0  0
 26 29  1  0  0  0  0
 28 27  1  0  0  0  0
 29 30  1  0  0  0  0
 30 31  1  0  0  0  0
 31 33  1  0  0  0  0
 32 35  1  0  0  0  0
 33 32  2  0  0  0  0
 35 36  2  0  0  0  0
 35 34  1  0  0  0  0
 37 32  1  0  0  0  0
 37 38  1  0  0  0  0
M  END
>  <MODEL>
7

>  <REMARK>
 VINA RESULT:      -6.2      2.542      6.967
  Name = 
  14 active torsions:
  status: ('A' for Active; 'I' for Inactive)
    1  A    between atoms: C_2  and  C_9
    2  A    between atoms: C_4  and  C_6
    3  A    between atoms: C_4  and  C_33
    4  A    between atoms: C_6  and  C_22
    5  A    between atoms: C_6  and  C_29
    6  A    between atoms: C_9  and  C_35
    7  A    between atoms: C_12  and  C_14
    8  A    between atoms: C_12  and  C_17
    9  A    between atoms: C_13  and  C_23
   10  A    between atoms: C_20  and  C_23
   11  A    between atoms: C_20  and  C_29
   12  A    between atoms: C_21  and  C_28
   13  A    between atoms: C_28  and  C_34
   14  A    between atoms: C_33  and  C_34
                            x       y       z     vdW  Elec       q    Type
                         _______ _______ _______ _____ _____    ______ ____

>  <TORSDO>
F 14

$$$$
=
 OpenBabel11062419243D

 38 39  0  0  1  0  0  0  0  0999 V2000
  184.5410  178.1890  145.2140 C   0  0  0  0  0  2  0  0  0  0  0  0
  188.3590  177.3440  143.9230 C   0  0  1  0  0  3  0  0  0  0  0  0
  185.3610  180.1940  144.2710 O   0  0  0  0  0  0  0  0  0  0  0  0
  185.5680  178.0760  147.5020 C   0  0  0  0  0  3  0  0  0  0  0  0
  185.4190  178.9740  144.2890 C   0  0  0  0  0  0  0  0  0  0  0  0
  187.6660  178.5510  143.6530 O   0  0  0  0  0  0  0  0  0  0  0  0
  186.3260  178.2590  143.3420 C   0  0  0  0  0  2  0  0  0  0  0  0
  187.6470  177.4160  146.3190 C   0  0  1  0  0  3  0  0  0  0  0  0
  187.7670  176.5440  145.0840 C   0  0  0  0  0  2  0  0  0  0  0  0
  184.7060  178.6330  146.6400 C   0  0  0  0  0  3  0  0  0  0  0  0
  186.4770  176.9340  147.1600 C   0  0  0  0  0  2  0  0  0  0  0  0
  188.5350  176.4710  142.6760 C   0  0  0  0  0  2  0  0  0  0  0  0
  190.5890  172.9950  141.6240 C   0  0  0  0  0  2  0  0  0  0  0  0
  190.8820  174.3720  141.5250 O   0  0  0  0  0  0  0  0  0  0  0  0
  191.4170  176.1970  143.0080 C   0  0  0  0  0  1  0  0  0  0  0  0
  189.1350  172.7130  142.0570 C   0  0  0  0  0  2  0  0  0  0  0  0
  188.3190  173.9970  142.2200 C   0  0  0  0  0  2  0  0  0  0  0  0
  189.0910  175.0760  142.9950 C   0  0  1  0  0  3  0  0  0  0  0  0
  190.6160  174.9230  142.7880 C   0  0  1  0  0  3  0  0  0  0  0  0
  188.9430  177.3760  147.1160 C   0  0  0  0  0  2  0  0  0  0  0  0
  189.2420  175.0230  147.3770 O   0  0  0  0  0  1  0  0  0  0  0  0
  189.7610  176.1500  146.7370 C   0  0  2  0  0  3  0  0  0  0  0  0
  191.4730  177.1410  148.3600 C   0  0  0  0  0  1  0  0  0  0  0  0
  191.2390  176.3500  147.0790 C   0  0  1  0  0  3  0  0  0  0  0  0
  192.0490  175.0550  147.0250 C   0  0  0  0  0  2  0  0  0  0  0  0
  193.1700  175.0680  145.9820 C   0  0  1  0  0  3  0  0  0  0  0  0
  194.3090  175.9880  146.4090 C   0  0  0  0  0  2  0  0  0  0  0  0
  194.2780  177.1890  145.6950 O   0  0  0  0  0  1  0  0  0  0  0  0
  193.6970  173.6560  145.7680 C   0  0  0  0  0  2  0  0  0  0  0  0
  192.9680  172.9870  144.6140 C   0  0  0  0  0  2  0  0  0  0  0  0
  193.9220  172.7470  143.4530 C   0  0  0  0  0  2  0  0  0  0  0  0
  195.4830  174.6020  142.8140 C   0  0  0  0  0  0  0  0  0  0  0  0
  194.2710  174.0380  142.7720 C   0  0  0  0  0  3  0  0  0  0  0  0
  196.9700  176.4930  142.2050 O   0  0  0  0  0  1  0  0  0  0  0  0
  195.7140  175.8990  142.1550 C   0  0  0  0  0  0  0  0  0  0  0  0
  194.7790  176.4880  141.5470 O   0  0  0  0  0  0  0  0  0  0  0  0
  196.6100  173.9560  143.5570 C   0  0  0  0  0  2  0  0  0  0  0  0
  196.7320  174.5270  144.8090 F   0  0  0  0  0  0  0  0  0  0  0  0
  1 10  1  0  0  0  0
  2 12  1  6  0  0  0
  2  9  1  0  0  0  0
  3  5  2  0  0  0  0
  5  1  1  0  0  0  0
  6  2  1  0  0  0  0
  7  6  1  0  0  0  0
  7  5  1  0  0  0  0
  8 20  1  1  0  0  0
  8 11  1  0  0  0  0
  9  8  1  0  0  0  0
 10  4  2  0  0  0  0
 11  4  1  0  0  0  0
 13 16  1  0  0  0  0
 14 13  1  0  0  0  0
 14 19  1  0  0  0  0
 16 17  1  0  0  0  0
 17 18  1  0  0  0  0
 18 12  1  6  0  0  0
 19 18  1  0  0  0  0
 19 15  1  6  0  0  0
 22 24  1  0  0  0  0
 22 20  1  0  0  0  0
 22 21  1  1  0  0  0
 24 23  1  1  0  0  0
 25 24  1  0  0  0  0
 26 29  1  1  0  0  0
 26 27  1  0  0  0  0
 26 25  1  0  0  0  0
 28 27  1  0  0  0  0
 30 29  1  0  0  0  0
 31 30  1  0  0  0  0
 32 37  1  0  0  0  0
 33 32  2  0  0  0  0
 33 31  1  0  0  0  0
 35 34  1  0  0  0  0
 35 32  1  0  0  0  0
 36 35  2  0  0  0  0
 37 38  1  0  0  0  0
M  END
>  <MODEL>
8

>  <REMARK>
 VINA RESULT:      -6.1      1.829      4.659
  Name = 
  14 active torsions:
  status: ('A' for Active; 'I' for Inactive)
    1  A    between atoms: C_2  and  C_9
    2  A    between atoms: C_4  and  C_6
    3  A    between atoms: C_4  and  C_33
    4  A    between atoms: C_6  and  C_22
    5  A    between atoms: C_6  and  C_29
    6  A    between atoms: C_9  and  C_35
    7  A    between atoms: C_12  and  C_14
    8  A    between atoms: C_12  and  C_17
    9  A    between atoms: C_13  and  C_23
   10  A    between atoms: C_20  and  C_23
   11  A    between atoms: C_20  and  C_29
   12  A    between atoms: C_21  and  C_28
   13  A    between atoms: C_28  and  C_34
   14  A    between atoms: C_33  and  C_34
                            x       y       z     vdW  Elec       q    Type
                         _______ _______ _______ _____ _____    ______ ____

>  <TORSDO>
F 14

$$$$
=
 OpenBabel11062419243D

 38 39  0  0  1  0  0  0  0  0999 V2000
  184.1610  178.8100  144.2370 C   0  0  0  0  0  2  0  0  0  0  0  0
  187.5290  176.5230  143.6140 C   0  0  1  0  0  3  0  0  0  0  0  0
  185.9000  180.3380  143.7610 O   0  0  0  0  0  0  0  0  0  0  0  0
  184.4910  178.1760  146.6430 C   0  0  0  0  0  3  0  0  0  0  0  0
  185.4680  179.2040  143.6200 C   0  0  0  0  0  0  0  0  0  0  0  0
  187.4500  177.9190  143.3840 O   0  0  0  0  0  0  0  0  0  0  0  0
  186.2170  178.2220  142.7790 C   0  0  0  0  0  2  0  0  0  0  0  0
  186.3590  176.7710  145.8110 C   0  0  1  0  0  3  0  0  0  0  0  0
  186.4150  175.9870  144.5150 C   0  0  0  0  0  2  0  0  0  0  0  0
  184.1460  179.0790  145.7150 C   0  0  0  0  0  3  0  0  0  0  0  0
  184.9320  176.7780  146.3310 C   0  0  0  0  0  2  0  0  0  0  0  0
  187.6370  175.7140  142.3180 C   0  0  0  0  0  2  0  0  0  0  0  0
  190.1390  172.4000  141.9140 C   0  0  0  0  0  2  0  0  0  0  0  0
  188.9430  172.8050  141.2840 O   0  0  0  0  0  0  0  0  0  0  0  0
  188.2250  174.5060  139.7330 C   0  0  0  0  0  1  0  0  0  0  0  0
  190.5170  173.2810  143.1240 C   0  0  0  0  0  2  0  0  0  0  0  0
  189.4690  174.3590  143.4050 C   0  0  0  0  0  2  0  0  0  0  0  0
  189.0190  175.0750  142.1230 C   0  0  1  0  0  3  0  0  0  0  0  0
  189.1330  174.1400  140.8970 C   0  0  1  0  0  3  0  0  0  0  0  0
  187.3080  176.1620  146.8330 C   0  0  0  0  0  2  0  0  0  0  0  0
  188.3390  178.2530  146.3250 O   0  0  0  0  0  1  0  0  0  0  0  0
  188.4610  177.1110  147.1190 C   0  0  2  0  0  3  0  0  0  0  0  0
  189.7130  174.9040  146.7890 C   0  0  0  0  0  1  0  0  0  0  0  0
  189.8090  176.4200  146.8940 C   0  0  1  0  0  3  0  0  0  0  0  0
  190.6210  177.0440  145.7590 C   0  0  0  0  0  2  0  0  0  0  0  0
  191.8940  176.2680  145.4100 C   0  0  1  0  0  3  0  0  0  0  0  0
  192.4740  176.7330  144.0780 C   0  0  0  0  0  2  0  0  0  0  0  0
  191.6990  177.7550  143.5240 O   0  0  0  0  0  1  0  0  0  0  0  0
  192.9280  176.4420  146.5140 C   0  0  0  0  0  2  0  0  0  0  0  0
  194.3180  176.5960  145.9200 C   0  0  0  0  0  2  0  0  0  0  0  0
  195.1120  175.3080  146.0870 C   0  0  0  0  0  2  0  0  0  0  0  0
  194.8970  173.4220  144.4480 C   0  0  0  0  0  0  0  0  0  0  0  0
  195.3410  174.6450  144.7600 C   0  0  0  0  0  3  0  0  0  0  0  0
  194.5030  173.2190  142.0070 O   0  0  0  0  0  0  0  0  0  0  0  0
  195.2190  172.8360  143.1360 C   0  0  0  0  0  0  0  0  0  0  0  0
  196.1370  171.9790  143.0200 O   0  0  0  0  0  1  0  0  0  0  0  0
  194.1070  172.6140  145.4290 C   0  0  0  0  0  2  0  0  0  0  0  0
  192.7780  172.9880  145.3790 F   0  0  0  0  0  0  0  0  0  0  0  0
  1 10  1  0  0  0  0
  2 12  1  6  0  0  0
  2  9  1  0  0  0  0
  5  3  2  0  0  0  0
  5  1  1  0  0  0  0
  6  2  1  0  0  0  0
  7  6  1  0  0  0  0
  7  5  1  0  0  0  0
  8 11  1  0  0  0  0
  8 20  1  1  0  0  0
  9  8  1  0  0  0  0
 10  4  2  0  0  0  0
 11  4  1  0  0  0  0
 13 16  1  0  0  0  0
 14 13  1  0  0  0  0
 16 17  1  0  0  0  0
 18 12  1  1  0  0  0
 18 17  1  0  0  0  0
 19 15  1  6  0  0  0
 19 14  1  0  0  0  0
 19 18  1  0  0  0  0
 20 22  1  0  0  0  0
 22 21  1  6  0  0  0
 24 23  1  6  0  0  0
 24 22  1  0  0  0  0
 25 24  1  0  0  0  0
 26 27  1  6  0  0  0
 26 25  1  0  0  0  0
 26 29  1  0  0  0  0
 28 27  1  0  0  0  0
 30 31  1  0  0  0  0
 30 29  1  0  0  0  0
 32 33  2  0  0  0  0
 32 37  1  0  0  0  0
 33 31  1  0  0  0  0
 34 35  2  0  0  0  0
 35 32  1  0  0  0  0
 36 35  1  0  0  0  0
 38 37  1  0  0  0  0
M  END
>  <MODEL>
9

>  <REMARK>
 VINA RESULT:      -6.0      1.768      4.573
  Name = 
  14 active torsions:
  status: ('A' for Active; 'I' for Inactive)
    1  A    between atoms: C_2  and  C_9
    2  A    between atoms: C_4  and  C_6
    3  A    between atoms: C_4  and  C_33
    4  A    between atoms: C_6  and  C_22
    5  A    between atoms: C_6  and  C_29
    6  A    between atoms: C_9  and  C_35
    7  A    between atoms: C_12  and  C_14
    8  A    between atoms: C_12  and  C_17
    9  A    between atoms: C_13  and  C_23
   10  A    between atoms: C_20  and  C_23
   11  A    between atoms: C_20  and  C_29
   12  A    between atoms: C_21  and  C_28
   13  A    between atoms: C_28  and  C_34
   14  A    between atoms: C_33  and  C_34
                            x       y       z     vdW  Elec       q    Type
                         _______ _______ _______ _____ _____    ______ ____

>  <TORSDO>
F 14

$$$$
