=
 OpenBabel11062421043D

 38 42  0  0  1  0  0  0  0  0999 V2000
  192.5130  173.5240  143.7210 C   0  0  0  0  0  2  0  0  0  0  0  0
  195.4240  172.9850  145.4170 C   0  0  0  0  0  2  0  0  0  0  0  0
  192.7280  170.9900  143.7750 C   0  0  1  0  0  3  0  0  0  0  0  0
  192.8510  173.3520  145.2120 C   0  0  1  0  0  3  0  0  0  0  0  0
  193.8400  176.7000  146.5860 N   0  0  0  0  0  2  0  0  0  0  0  0
  191.9890  175.1730  146.9010 C   0  0  2  0  0  3  0  0  0  0  0  0
  193.9640  171.0820  144.6650 C   0  0  0  0  0  2  0  0  0  0  0  0
  192.1840  177.2500  148.1600 O   0  0  0  0  0  0  0  0  0  0  0  0
  194.0010  175.5560  145.7590 C   0  0  0  0  0  0  0  0  0  0  0  0
  192.6380  172.2350  142.9010 C   0  0  0  0  0  2  0  0  0  0  0  0
  192.6340  176.4610  147.2890 C   0  0  0  0  0  0  0  0  0  0  0  0
  192.8240  169.8580  142.9680 O   0  0  0  0  0  1  0  0  0  0  0  0
  194.0210  172.3730  145.4970 C   0  0  1  0  0  3  0  0  0  0  0  0
  195.2020  175.4360  144.8500 C   0  0  0  0  0  2  0  0  0  0  0  0
  192.9920  174.6790  145.9030 C   0  0  0  0  0  0  0  0  0  0  0  0
  195.5160  174.0360  144.3180 C   0  0  1  0  0  3  0  0  0  0  0  0
  188.6910  176.5910  146.8310 C   0  0  1  0  0  3  0  0  0  0  0  0
  190.6040  175.3600  146.2610 C   0  0  1  0  0  3  0  0  0  0  0  0
  189.5790  175.5260  147.2860 N   0  0  0  0  0  2  0  0  0  0  0  0
  190.5200  176.5340  145.3050 C   0  0  0  0  0  2  0  0  0  0  0  0
  189.0970  176.9930  145.4290 C   0  0  0  0  0  2  0  0  0  0  0  0
  187.2500  176.1030  146.8500 C   0  0  0  0  0  2  0  0  0  0  0  0
  185.0680  177.1340  146.3350 C   0  0  0  0  0  3  0  0  0  0  0  0
  186.2980  177.2570  146.8370 C   0  0  0  0  0  3  0  0  0  0  0  0
  184.1570  178.3160  146.3080 C   0  0  0  0  0  2  0  0  0  0  0  0
  184.3680  179.1930  145.0610 C   0  0  0  0  0  2  0  0  0  0  0  0
  184.7550  178.4760  143.8350 N   0  0  0  0  0  0  0  0  0  0  0  0
  184.2840  178.1610  141.4430 C   0  0  0  0  0  0  0  0  0  0  0  0
  186.6390  177.9910  142.3450 C   0  0  0  0  0  0  0  0  0  0  0  0
  183.4760  177.9930  140.4910 O   0  0  0  0  0  0  0  0  0  0  0  0
  183.7920  178.7130  142.7480 C   0  0  0  0  0  2  0  0  0  0  0  0
  187.8380  178.4990  141.8800 F   0  0  0  0  0  0  0  0  0  0  0  0
  186.1030  178.8980  143.4500 C   0  0  0  0  0  2  0  0  0  0  0  0
  186.8490  176.7190  142.8490 F   0  0  0  0  0  0  0  0  0  0  0  0
  185.6820  177.9220  141.2440 N   0  0  0  0  0  2  0  0  0  0  0  0
  197.6750  174.9580  143.9180 O   0  0  0  0  0  1  0  0  0  0  0  0
  197.2490  172.9670  142.8620 O   0  0  0  0  0  0  0  0  0  0  0  0
  196.8710  174.0150  143.6950 C   0  0  0  0  0  0  0  0  0  0  0  0
  2 13  1  0  0  0  0
  3 12  1  6  0  0  0
  3  7  1  0  0  0  0
  4  1  1  6  0  0  0
  4 13  1  0  0  0  0
  4 15  1  0  0  0  0
  5 11  1  0  0  0  0
  6 15  1  6  0  0  0
  6 11  1  0  0  0  0
  9 15  2  0  0  0  0
  9  5  1  0  0  0  0
 10  1  1  0  0  0  0
 10  3  1  0  0  0  0
 11  8  2  0  0  0  0
 13  7  1  6  0  0  0
 14  9  1  0  0  0  0
 16 38  1  1  0  0  0
 16 14  1  0  0  0  0
 16  2  1  0  0  0  0
 17 22  1  6  0  0  0
 17 19  1  0  0  0  0
 18 20  1  6  0  0  0
 18  6  1  0  0  0  0
 18 19  1  0  0  0  0
 20 21  1  0  0  0  0
 21 17  1  0  0  0  0
 23 24  2  0  0  0  0
 24 22  1  0  0  0  0
 25 23  1  0  0  0  0
 26 25  1  0  0  0  0
 27 26  1  0  0  0  0
 28 31  1  0  0  0  0
 29 34  1  0  0  0  0
 29 33  1  0  0  0  0
 30 28  2  0  0  0  0
 31 27  1  0  0  0  0
 32 29  1  0  0  0  0
 33 27  1  0  0  0  0
 35 28  1  0  0  0  0
 35 29  1  0  0  0  0
 37 38  2  0  0  0  0
 38 36  1  0  0  0  0
M  END
>  <MODEL>
1

>  <REMARK>
 VINA RESULT:      -8.6      0.000      0.000
  Name = 
  7 active torsions:
  status: ('A' for Active; 'I' for Inactive)
    1  A    between atoms: N_2  and  C_21
    2  A    between atoms: C_4  and  C_5
    3  A    between atoms: C_5  and  C_30
    4  A    between atoms: C_9  and  C_10
    5  A    between atoms: C_10  and  C_21
    6  A    between atoms: C_13  and  C_19
    7  A    between atoms: C_36  and  C_37
                            x       y       z     vdW  Elec       q    Type
                         _______ _______ _______ _____ _____    ______ ____

>  <TORSDO>
F 7

$$$$
=
 OpenBabel11062421043D

 38 42  0  0  1  0  0  0  0  0999 V2000
  192.7170  175.5180  145.8770 C   0  0  0  0  0  2  0  0  0  0  0  0
  194.9510  173.8560  143.9050 C   0  0  0  0  0  2  0  0  0  0  0  0
  194.4100  177.3040  145.2330 C   0  0  1  0  0  3  0  0  0  0  0  0
  192.7880  175.2370  144.3670 C   0  0  1  0  0  3  0  0  0  0  0  0
  191.2450  171.8770  143.7250 N   0  0  0  0  0  0  0  0  0  0  0  0
  190.6850  174.1730  143.2010 C   0  0  2  0  0  3  0  0  0  0  0  0
  195.1300  176.3320  144.3050 C   0  0  0  0  0  2  0  0  0  0  0  0
  189.3250  172.3000  142.4370 O   0  0  0  0  0  0  0  0  0  0  0  0
  192.2270  172.7560  144.2570 C   0  0  0  0  0  0  0  0  0  0  0  0
  193.7580  176.5300  146.3720 C   0  0  0  0  0  2  0  0  0  0  0  0
  190.3230  172.7320  143.0720 C   0  0  0  0  0  0  0  0  0  0  0  0
  195.3310  178.2120  145.7540 O   0  0  0  0  0  1  0  0  0  0  0  0
  194.2260  175.2020  143.7860 C   0  0  1  0  0  3  0  0  0  0  0  0
  193.4030  172.2060  145.0290 C   0  0  0  0  0  2  0  0  0  0  0  0
  191.9540  174.0450  143.9880 C   0  0  1  0  0  3  0  0  0  0  0  0
  194.6000  173.1440  145.2050 C   0  0  1  0  0  3  0  0  0  0  0  0
  189.4420  175.7730  146.1650 C   0  0  1  0  0  3  0  0  0  0  0  0
  189.6320  174.9940  143.9620 C   0  0  1  0  0  3  0  0  0  0  0  0
  189.5480  174.5650  145.3540 N   0  0  0  0  0  2  0  0  0  0  0  0
  189.8770  176.4900  143.9340 C   0  0  0  0  0  2  0  0  0  0  0  0
  189.3140  176.9660  145.2410 C   0  0  0  0  0  2  0  0  0  0  0  0
  188.2300  175.6750  147.0790 C   0  0  0  0  0  2  0  0  0  0  0  0
  186.0280  176.7760  146.9110 C   0  0  0  0  0  3  0  0  0  0  0  0
  187.3570  176.8820  146.9380 C   0  0  0  0  0  3  0  0  0  0  0  0
  185.1900  177.9980  146.7350 C   0  0  0  0  0  2  0  0  0  0  0  0
  185.6100  178.8280  145.5080 C   0  0  0  0  0  2  0  0  0  0  0  0
  185.4120  178.1800  144.2010 N   0  0  0  0  0  0  0  0  0  0  0  0
  184.0630  178.1450  142.1450 C   0  0  0  0  0  0  0  0  0  0  0  0
  186.5290  177.5910  142.1020 C   0  0  0  0  0  0  0  0  0  0  0  0
  182.9500  178.1710  141.5570 O   0  0  0  0  0  0  0  0  0  0  0  0
  184.1700  178.6380  143.5590 C   0  0  0  0  0  2  0  0  0  0  0  0
  187.5410  177.9780  141.2430 F   0  0  0  0  0  0  0  0  0  0  0  0
  186.5770  178.4560  143.3580 C   0  0  0  0  0  2  0  0  0  0  0  0
  186.7090  176.2620  142.4450 F   0  0  0  0  0  0  0  0  0  0  0  0
  185.2400  177.7460  141.4330 N   0  0  0  0  0  2  0  0  0  0  0  0
  195.8180  171.1310  145.5770 O   0  0  0  0  0  0  0  0  0  0  0  0
  196.8300  173.0440  146.3380 O   0  0  0  0  0  1  0  0  0  0  0  0
  195.7790  172.3820  145.7110 C   0  0  0  0  0  0  0  0  0  0  0  0
  1 10  1  0  0  0  0
  2 16  1  0  0  0  0
  3 12  1  1  0  0  0
  3 10  1  0  0  0  0
  4  1  1  1  0  0  0
  5  9  2  0  0  0  0
  6 11  1  1  0  0  0
  6 18  1  0  0  0  0
  6 15  1  0  0  0  0
  7  3  1  0  0  0  0
  8 11  2  0  0  0  0
  9 14  1  0  0  0  0
 11  5  1  0  0  0  0
 13  2  1  1  0  0  0
 13  7  1  0  0  0  0
 13  4  1  0  0  0  0
 14 16  1  0  0  0  0
 15  9  1  6  0  0  0
 15  4  1  0  0  0  0
 16 38  1  6  0  0  0
 17 22  1  1  0  0  0
 18 20  1  1  0  0  0
 18 19  1  0  0  0  0
 19 17  1  0  0  0  0
 20 21  1  0  0  0  0
 21 17  1  0  0  0  0
 23 24  2  0  0  0  0
 24 22  1  0  0  0  0
 25 23  1  0  0  0  0
 26 25  1  0  0  0  0
 27 26  1  0  0  0  0
 28 31  1  0  0  0  0
 29 34  1  0  0  0  0
 29 33  1  0  0  0  0
 30 28  2  0  0  0  0
 31 27  1  0  0  0  0
 32 29  1  0  0  0  0
 33 27  1  0  0  0  0
 35 29  1  0  0  0  0
 35 28  1  0  0  0  0
 36 38  2  0  0  0  0
 38 37  1  0  0  0  0
M  END
>  <MODEL>
2

>  <REMARK>
 VINA RESULT:      -8.5      1.893      3.543
  Name = 
  7 active torsions:
  status: ('A' for Active; 'I' for Inactive)
    1  A    between atoms: N_2  and  C_21
    2  A    between atoms: C_4  and  C_5
    3  A    between atoms: C_5  and  C_30
    4  A    between atoms: C_9  and  C_10
    5  A    between atoms: C_10  and  C_21
    6  A    between atoms: C_13  and  C_19
    7  A    between atoms: C_36  and  C_37
                            x       y       z     vdW  Elec       q    Type
                         _______ _______ _______ _____ _____    ______ ____

>  <TORSDO>
F 7

$$$$
=
 OpenBabel11062421043D

 38 42  0  0  1  0  0  0  0  0999 V2000
  189.4600  174.8280  141.4900 C   0  0  0  0  0  2  0  0  0  0  0  0
  192.1680  172.7540  141.3940 C   0  0  0  0  0  2  0  0  0  0  0  0
  188.6000  172.7560  140.2910 C   0  0  1  0  0  3  0  0  0  0  0  0
  190.0080  173.7600  142.4520 C   0  0  1  0  0  3  0  0  0  0  0  0
  192.5790  175.3720  144.6580 N   0  0  0  0  0  2  0  0  0  0  0  0
  190.3740  174.4230  144.9690 C   0  0  2  0  0  3  0  0  0  0  0  0
  189.9200  172.0310  140.5310 C   0  0  0  0  0  2  0  0  0  0  0  0
  191.6870  175.2880  146.8310 O   0  0  0  0  0  0  0  0  0  0  0  0
  192.0630  174.9100  143.4170 C   0  0  0  0  0  0  0  0  0  0  0  0
  188.8540  174.2560  140.2040 C   0  0  0  0  0  2  0  0  0  0  0  0
  191.5660  175.0620  145.5990 C   0  0  0  0  0  0  0  0  0  0  0  0
  188.0370  172.3080  139.0980 O   0  0  0  0  0  1  0  0  0  0  0  0
  190.6910  172.5550  141.7530 C   0  0  1  0  0  3  0  0  0  0  0  0
  192.8770  175.0560  142.1530 C   0  0  0  0  0  2  0  0  0  0  0  0
  190.8360  174.3730  143.5450 C   0  0  0  0  0  0  0  0  0  0  0  0
  192.4520  174.1880  140.9660 C   0  0  1  0  0  3  0  0  0  0  0  0
  188.2230  176.6400  146.8010 C   0  0  1  0  0  3  0  0  0  0  0  0
  189.0930  175.2610  145.1160 C   0  0  1  0  0  3  0  0  0  0  0  0
  188.6390  175.2730  146.5020 N   0  0  0  0  0  2  0  0  0  0  0  0
  189.2360  176.6950  144.6440 C   0  0  0  0  0  2  0  0  0  0  0  0
  188.2890  177.4550  145.5260 C   0  0  0  0  0  2  0  0  0  0  0  0
  186.8080  176.6370  147.3590 C   0  0  0  0  0  2  0  0  0  0  0  0
  184.7730  177.5650  146.3170 C   0  0  0  0  0  3  0  0  0  0  0  0
  186.0070  177.7620  146.7830 C   0  0  0  0  0  3  0  0  0  0  0  0
  184.0150  178.7040  145.7190 C   0  0  0  0  0  2  0  0  0  0  0  0
  184.7680  179.3590  144.5470 C   0  0  0  0  0  2  0  0  0  0  0  0
  184.9350  178.5210  143.3480 N   0  0  0  0  0  0  0  0  0  0  0  0
  184.1760  178.1110  141.0460 C   0  0  0  0  0  0  0  0  0  0  0  0
  186.5790  177.7110  141.7220 C   0  0  0  0  0  0  0  0  0  0  0  0
  183.2570  177.9820  140.1940 O   0  0  0  0  0  0  0  0  0  0  0  0
  183.8960  178.8040  142.3460 C   0  0  0  0  0  2  0  0  0  0  0  0
  187.7720  178.0350  141.1020 F   0  0  0  0  0  0  0  0  0  0  0  0
  186.2740  178.7470  142.8000 C   0  0  0  0  0  2  0  0  0  0  0  0
  186.6930  176.4590  142.3000 F   0  0  0  0  0  0  0  0  0  0  0  0
  185.5080  177.6890  140.7290 N   0  0  0  0  0  2  0  0  0  0  0  0
  193.2640  173.7200  138.7770 O   0  0  0  0  0  0  0  0  0  0  0  0
  194.7540  174.7670  140.1710 O   0  0  0  0  0  1  0  0  0  0  0  0
  193.5050  174.2130  139.9100 C   0  0  0  0  0  0  0  0  0  0  0  0
  2 13  1  0  0  0  0
  3 12  1  6  0  0  0
  3  7  1  0  0  0  0
  4  1  1  6  0  0  0
  4 15  1  0  0  0  0
  5 11  1  0  0  0  0
  6 15  1  6  0  0  0
  6 18  1  0  0  0  0
  6 11  1  0  0  0  0
  9 15  2  0  0  0  0
  9  5  1  0  0  0  0
 10  3  1  0  0  0  0
 10  1  1  0  0  0  0
 11  8  2  0  0  0  0
 13  7  1  6  0  0  0
 13  4  1  0  0  0  0
 14  9  1  0  0  0  0
 16 38  1  6  0  0  0
 16  2  1  0  0  0  0
 16 14  1  0  0  0  0
 17 22  1  6  0  0  0
 18 20  1  1  0  0  0
 18 19  1  0  0  0  0
 19 17  1  0  0  0  0
 20 21  1  0  0  0  0
 21 17  1  0  0  0  0
 23 24  2  0  0  0  0
 24 22  1  0  0  0  0
 25 23  1  0  0  0  0
 26 25  1  0  0  0  0
 27 26  1  0  0  0  0
 28 31  1  0  0  0  0
 29 34  1  0  0  0  0
 29 33  1  0  0  0  0
 30 28  2  0  0  0  0
 31 27  1  0  0  0  0
 32 29  1  0  0  0  0
 33 27  1  0  0  0  0
 35 28  1  0  0  0  0
 35 29  1  0  0  0  0
 36 38  2  0  0  0  0
 38 37  1  0  0  0  0
M  END
>  <MODEL>
3

>  <REMARK>
 VINA RESULT:      -8.5      2.545      3.257
  Name = 
  7 active torsions:
  status: ('A' for Active; 'I' for Inactive)
    1  A    between atoms: N_2  and  C_21
    2  A    between atoms: C_4  and  C_5
    3  A    between atoms: C_5  and  C_30
    4  A    between atoms: C_9  and  C_10
    5  A    between atoms: C_10  and  C_21
    6  A    between atoms: C_13  and  C_19
    7  A    between atoms: C_36  and  C_37
                            x       y       z     vdW  Elec       q    Type
                         _______ _______ _______ _____ _____    ______ ____

>  <TORSDO>
F 7

$$$$
=
 OpenBabel11062421043D

 38 42  0  0  1  0  0  0  0  0999 V2000
  188.4480  175.3240  143.2610 C   0  0  0  0  0  2  0  0  0  0  0  0
  187.2990  178.2260  144.6390 C   0  0  0  0  0  2  0  0  0  0  0  0
  187.8340  176.7540  141.2490 C   0  0  1  0  0  3  0  0  0  0  0  0
  189.1320  176.6330  143.6900 C   0  0  1  0  0  3  0  0  0  0  0  0
  189.9430  176.3910  147.3450 N   0  0  0  0  0  2  0  0  0  0  0  0
  191.2140  176.4830  145.2870 C   0  0  2  0  0  3  0  0  0  0  0  0
  187.5180  177.9430  142.1510 C   0  0  0  0  0  2  0  0  0  0  0  0
  192.2900  176.4150  147.4740 O   0  0  0  0  0  0  0  0  0  0  0  0
  189.0660  176.4650  146.2290 C   0  0  0  0  0  0  0  0  0  0  0  0
  187.5750  175.4590  142.0080 C   0  0  0  0  0  2  0  0  0  0  0  0
  191.2410  176.4200  146.7780 C   0  0  0  0  0  0  0  0  0  0  0  0
  187.0200  176.8040  140.1190 O   0  0  0  0  0  1  0  0  0  0  0  0
  188.2660  177.9050  143.4940 C   0  0  1  0  0  3  0  0  0  0  0  0
  187.5700  176.4710  146.4350 C   0  0  0  0  0  2  0  0  0  0  0  0
  189.7330  176.5180  145.0620 C   0  0  0  0  0  0  0  0  0  0  0  0
  186.7220  176.9590  145.2580 C   0  0  1  0  0  3  0  0  0  0  0  0
  191.0260  173.2300  143.7780 C   0  0  1  0  0  3  0  0  0  0  0  0
  191.8550  175.2550  144.6210 C   0  0  1  0  0  3  0  0  0  0  0  0
  191.1440  174.0360  144.9890 N   0  0  0  0  0  2  0  0  0  0  0  0
  191.9180  175.3360  143.1080 C   0  0  0  0  0  2  0  0  0  0  0  0
  191.8080  173.9060  142.6700 C   0  0  0  0  0  2  0  0  0  0  0  0
  191.5660  171.8310  144.0340 C   0  0  0  0  0  2  0  0  0  0  0  0
  193.8150  171.6390  145.0320 C   0  0  0  0  0  3  0  0  0  0  0  0
  193.0590  171.8130  143.9460 C   0  0  0  0  0  3  0  0  0  0  0  0
  195.3020  171.6600  144.9110 C   0  0  0  0  0  2  0  0  0  0  0  0
  195.9280  172.9080  145.5610 C   0  0  0  0  0  2  0  0  0  0  0  0
  195.7230  174.1730  144.8370 N   0  0  0  0  0  0  0  0  0  0  0  0
  195.2750  176.5800  145.0600 C   0  0  0  0  0  0  0  0  0  0  0  0
  196.7230  175.6870  143.1910 C   0  0  0  0  0  0  0  0  0  0  0  0
  194.6420  177.5410  145.5730 O   0  0  0  0  0  0  0  0  0  0  0  0
  195.2850  175.2450  145.7450 C   0  0  0  0  0  2  0  0  0  0  0  0
  197.9330  176.1210  142.6810 F   0  0  0  0  0  0  0  0  0  0  0  0
  196.9700  174.5320  144.1560 C   0  0  0  0  0  2  0  0  0  0  0  0
  195.9190  175.2590  142.1490 F   0  0  0  0  0  0  0  0  0  0  0  0
  196.0660  176.7910  143.8850 N   0  0  0  0  0  2  0  0  0  0  0  0
  184.9170  176.7110  146.7910 O   0  0  0  0  0  1  0  0  0  0  0  0
  184.4420  177.9290  144.9070 O   0  0  0  0  0  0  0  0  0  0  0  0
  185.3170  177.1920  145.6990 C   0  0  0  0  0  0  0  0  0  0  0  0
  2 16  1  0  0  0  0
  3 12  1  6  0  0  0
  3 10  1  0  0  0  0
  3  7  1  0  0  0  0
  4  1  1  1  0  0  0
  4 15  1  0  0  0  0
  6 15  1  6  0  0  0
  6 11  1  0  0  0  0
  9 14  1  0  0  0  0
  9  5  1  0  0  0  0
 10  1  1  0  0  0  0
 11  5  1  0  0  0  0
 11  8  2  0  0  0  0
 13  7  1  6  0  0  0
 13  4  1  0  0  0  0
 13  2  1  0  0  0  0
 15  9  2  0  0  0  0
 16 38  1  1  0  0  0
 16 14  1  0  0  0  0
 17 22  1  1  0  0  0
 17 19  1  0  0  0  0
 18 20  1  6  0  0  0
 18 19  1  0  0  0  0
 18  6  1  0  0  0  0
 21 20  1  0  0  0  0
 21 17  1  0  0  0  0
 24 22  1  0  0  0  0
 24 23  2  0  0  0  0
 25 23  1  0  0  0  0
 25 26  1  0  0  0  0
 27 26  1  0  0  0  0
 27 31  1  0  0  0  0
 28 30  2  0  0  0  0
 28 31  1  0  0  0  0
 29 35  1  0  0  0  0
 29 33  1  0  0  0  0
 32 29  1  0  0  0  0
 33 27  1  0  0  0  0
 34 29  1  0  0  0  0
 35 28  1  0  0  0  0
 37 38  2  0  0  0  0
 38 36  1  0  0  0  0
M  END
>  <MODEL>
4

>  <REMARK>
 VINA RESULT:      -8.1      3.531      8.900
  Name = 
  7 active torsions:
  status: ('A' for Active; 'I' for Inactive)
    1  A    between atoms: N_2  and  C_21
    2  A    between atoms: C_4  and  C_5
    3  A    between atoms: C_5  and  C_30
    4  A    between atoms: C_9  and  C_10
    5  A    between atoms: C_10  and  C_21
    6  A    between atoms: C_13  and  C_19
    7  A    between atoms: C_36  and  C_37
                            x       y       z     vdW  Elec       q    Type
                         _______ _______ _______ _____ _____    ______ ____

>  <TORSDO>
F 7

$$$$
=
 OpenBabel11062421043D

 38 42  0  0  1  0  0  0  0  0999 V2000
  188.2750  175.6500  143.1950 C   0  0  0  0  0  2  0  0  0  0  0  0
  187.0640  178.3820  144.8420 C   0  0  0  0  0  2  0  0  0  0  0  0
  187.4900  177.1890  141.3290 C   0  0  1  0  0  3  0  0  0  0  0  0
  188.9180  176.9580  143.6870 C   0  0  1  0  0  3  0  0  0  0  0  0
  189.9300  176.4930  147.2700 N   0  0  0  0  0  2  0  0  0  0  0  0
  191.0860  176.7980  145.1660 C   0  0  2  0  0  3  0  0  0  0  0  0
  187.1660  178.2920  142.3310 C   0  0  0  0  0  2  0  0  0  0  0  0
  192.2760  176.6270  147.2860 O   0  0  0  0  0  0  0  0  0  0  0  0
  188.9930  176.6030  146.2070 C   0  0  0  0  0  0  0  0  0  0  0  0
  187.3320  175.8300  142.0000 C   0  0  0  0  0  2  0  0  0  0  0  0
  191.1930  176.6280  146.6440 C   0  0  0  0  0  0  0  0  0  0  0  0
  186.6160  177.2790  140.2460 O   0  0  0  0  0  1  0  0  0  0  0  0
  187.9840  178.1950  143.6290 C   0  0  1  0  0  3  0  0  0  0  0  0
  187.5110  176.5170  146.4860 C   0  0  0  0  0  2  0  0  0  0  0  0
  189.5950  176.7740  145.0160 C   0  0  0  0  0  0  0  0  0  0  0  0
  186.5810  177.0460  145.3910 C   0  0  1  0  0  3  0  0  0  0  0  0
  193.8380  174.5960  144.4790 C   0  0  1  0  0  3  0  0  0  0  0  0
  191.7480  175.6560  144.3780 C   0  0  1  0  0  3  0  0  0  0  0  0
  193.1850  175.8810  144.2520 N   0  0  0  0  0  2  0  0  0  0  0  0
  191.5290  174.2820  144.9810 C   0  0  0  0  0  2  0  0  0  0  0  0
  192.7710  173.5280  144.6090 C   0  0  0  0  0  2  0  0  0  0  0  0
  194.7710  174.2790  143.3200 C   0  0  0  0  0  2  0  0  0  0  0  0
  193.6330  174.6100  141.1560 C   0  0  0  0  0  3  0  0  0  0  0  0
  194.0010  173.7850  142.1370 C   0  0  0  0  0  3  0  0  0  0  0  0
  192.8370  174.0880  140.0070 C   0  0  0  0  0  2  0  0  0  0  0  0
  192.4320  172.6140  140.1930 C   0  0  0  0  0  2  0  0  0  0  0  0
  190.9950  172.3670  140.3870 N   0  0  0  0  0  0  0  0  0  0  0  0
  189.1620  172.2740  142.0240 C   0  0  0  0  0  0  0  0  0  0  0  0
  188.7590  173.0520  139.6530 C   0  0  0  0  0  0  0  0  0  0  0  0
  188.6960  171.9160  143.1380 O   0  0  0  0  0  0  0  0  0  0  0  0
  190.6470  172.3160  141.8160 C   0  0  0  0  0  2  0  0  0  0  0  0
  188.0420  174.1200  139.1480 F   0  0  0  0  0  0  0  0  0  0  0  0
  190.2400  173.4160  139.6960 C   0  0  0  0  0  2  0  0  0  0  0  0
  188.5750  171.9530  138.8310 F   0  0  0  0  0  0  0  0  0  0  0  0
  188.2790  172.7370  140.9950 N   0  0  0  0  0  2  0  0  0  0  0  0
  184.8010  176.4160  146.8410 O   0  0  0  0  0  1  0  0  0  0  0  0
  184.3210  178.1210  145.3840 O   0  0  0  0  0  0  0  0  0  0  0  0
  185.1920  177.1750  145.9160 C   0  0  0  0  0  0  0  0  0  0  0  0
  2 16  1  0  0  0  0
  3 12  1  6  0  0  0
  3 10  1  0  0  0  0
  3  7  1  0  0  0  0
  4  1  1  1  0  0  0
  4 15  1  0  0  0  0
  6 15  1  1  0  0  0
  6 11  1  0  0  0  0
  9 14  1  0  0  0  0
  9  5  1  0  0  0  0
 10  1  1  0  0  0  0
 11  5  1  0  0  0  0
 11  8  2  0  0  0  0
 13  7  1  6  0  0  0
 13  4  1  0  0  0  0
 13  2  1  0  0  0  0
 15  9  2  0  0  0  0
 16 38  1  1  0  0  0
 16 14  1  0  0  0  0
 17 22  1  6  0  0  0
 17 21  1  0  0  0  0
 18 20  1  1  0  0  0
 18  6  1  0  0  0  0
 19 18  1  0  0  0  0
 19 17  1  0  0  0  0
 21 20  1  0  0  0  0
 23 24  2  0  0  0  0
 24 22  1  0  0  0  0
 25 26  1  0  0  0  0
 25 23  1  0  0  0  0
 26 27  1  0  0  0  0
 27 31  1  0  0  0  0
 28 30  2  0  0  0  0
 29 33  1  0  0  0  0
 29 35  1  0  0  0  0
 31 28  1  0  0  0  0
 32 29  1  0  0  0  0
 33 27  1  0  0  0  0
 34 29  1  0  0  0  0
 35 28  1  0  0  0  0
 37 38  2  0  0  0  0
 38 36  1  0  0  0  0
M  END
>  <MODEL>
5

>  <REMARK>
 VINA RESULT:      -8.1      3.258      8.004
  Name = 
  7 active torsions:
  status: ('A' for Active; 'I' for Inactive)
    1  A    between atoms: N_2  and  C_21
    2  A    between atoms: C_4  and  C_5
    3  A    between atoms: C_5  and  C_30
    4  A    between atoms: C_9  and  C_10
    5  A    between atoms: C_10  and  C_21
    6  A    between atoms: C_13  and  C_19
    7  A    between atoms: C_36  and  C_37
                            x       y       z     vdW  Elec       q    Type
                         _______ _______ _______ _____ _____    ______ ____

>  <TORSDO>
F 7

$$$$
=
 OpenBabel11062421043D

 38 42  0  0  1  0  0  0  0  0999 V2000
  191.9240  174.6790  141.8630 C   0  0  0  0  0  2  0  0  0  0  0  0
  195.0610  173.6090  142.6710 C   0  0  0  0  0  2  0  0  0  0  0  0
  191.9640  172.2600  141.0780 C   0  0  1  0  0  3  0  0  0  0  0  0
  192.5290  174.0370  143.1230 C   0  0  1  0  0  3  0  0  0  0  0  0
  193.9990  176.7640  145.2390 N   0  0  0  0  0  2  0  0  0  0  0  0
  192.1390  175.2270  145.4340 C   0  0  2  0  0  3  0  0  0  0  0  0
  193.3510  172.0550  141.6790 C   0  0  0  0  0  2  0  0  0  0  0  0
  192.7200  176.7920  147.2110 O   0  0  0  0  0  0  0  0  0  0  0  0
  193.9170  175.9440  144.0820 C   0  0  0  0  0  0  0  0  0  0  0  0
  191.7970  173.7200  140.6740 C   0  0  0  0  0  2  0  0  0  0  0  0
  192.9370  176.3200  146.0640 C   0  0  0  0  0  0  0  0  0  0  0  0
  191.8220  171.4460  139.9560 O   0  0  0  0  0  1  0  0  0  0  0  0
  193.6590  173.0120  142.8420 C   0  0  1  0  0  3  0  0  0  0  0  0
  194.9090  176.1140  142.9550 C   0  0  0  0  0  2  0  0  0  0  0  0
  192.8940  175.0730  144.1480 C   0  0  0  0  0  0  0  0  0  0  0  0
  195.0140  174.9550  141.9600 C   0  0  1  0  0  3  0  0  0  0  0  0
  188.9710  176.5260  146.5150 C   0  0  1  0  0  3  0  0  0  0  0  0
  190.6740  175.6180  145.1830 C   0  0  1  0  0  3  0  0  0  0  0  0
  189.8640  175.3810  146.3730 N   0  0  0  0  0  2  0  0  0  0  0  0
  190.4850  177.0600  144.7540 C   0  0  0  0  0  2  0  0  0  0  0  0
  189.1370  177.4210  145.3050 C   0  0  0  0  0  2  0  0  0  0  0  0
  187.5320  176.0460  146.6290 C   0  0  0  0  0  2  0  0  0  0  0  0
  185.3260  177.1240  146.3810 C   0  0  0  0  0  3  0  0  0  0  0  0
  186.5960  177.2030  146.7810 C   0  0  0  0  0  3  0  0  0  0  0  0
  184.4300  178.3090  146.5170 C   0  0  0  0  0  2  0  0  0  0  0  0
  184.3590  179.1450  145.2270 C   0  0  0  0  0  2  0  0  0  0  0  0
  184.7620  178.4500  143.9940 N   0  0  0  0  0  0  0  0  0  0  0  0
  184.2700  178.1160  141.6080 C   0  0  0  0  0  0  0  0  0  0  0  0
  186.6440  178.0590  142.4740 C   0  0  0  0  0  0  0  0  0  0  0  0
  183.4570  177.9120  140.6680 O   0  0  0  0  0  0  0  0  0  0  0  0
  183.7730  178.6430  142.9220 C   0  0  0  0  0  2  0  0  0  0  0  0
  187.8100  178.6240  141.9920 F   0  0  0  0  0  0  0  0  0  0  0  0
  186.0830  178.9360  143.5890 C   0  0  0  0  0  2  0  0  0  0  0  0
  186.9230  176.7980  142.9720 F   0  0  0  0  0  0  0  0  0  0  0  0
  185.6750  177.9450  141.3880 N   0  0  0  0  0  2  0  0  0  0  0  0
  196.8940  174.1190  140.7610 O   0  0  0  0  0  1  0  0  0  0  0  0
  196.6090  176.3940  140.6740 O   0  0  0  0  0  0  0  0  0  0  0  0
  196.2190  175.1270  141.0990 C   0  0  0  0  0  0  0  0  0  0  0  0
  2 13  1  0  0  0  0
  3 12  1  6  0  0  0
  3  7  1  0  0  0  0
  4  1  1  6  0  0  0
  4 15  1  0  0  0  0
  5 11  1  0  0  0  0
  6 15  1  6  0  0  0
  6 11  1  0  0  0  0
  9 15  2  0  0  0  0
  9  5  1  0  0  0  0
 10  3  1  0  0  0  0
 10  1  1  0  0  0  0
 11  8  2  0  0  0  0
 13  7  1  6  0  0  0
 13  4  1  0  0  0  0
 14  9  1  0  0  0  0
 16 38  1  1  0  0  0
 16  2  1  0  0  0  0
 16 14  1  0  0  0  0
 17 22  1  6  0  0  0
 18 20  1  1  0  0  0
 18  6  1  0  0  0  0
 18 19  1  0  0  0  0
 19 17  1  0  0  0  0
 20 21  1  0  0  0  0
 21 17  1  0  0  0  0
 22 24  1  0  0  0  0
 23 25  1  0  0  0  0
 23 24  2  0  0  0  0
 26 25  1  0  0  0  0
 27 26  1  0  0  0  0
 28 31  1  0  0  0  0
 29 34  1  0  0  0  0
 29 33  1  0  0  0  0
 30 28  2  0  0  0  0
 31 27  1  0  0  0  0
 32 29  1  0  0  0  0
 33 27  1  0  0  0  0
 35 28  1  0  0  0  0
 35 29  1  0  0  0  0
 36 38  1  0  0  0  0
 37 38  2  0  0  0  0
M  END
>  <MODEL>
6

>  <REMARK>
 VINA RESULT:      -8.1      1.542      1.852
  Name = 
  7 active torsions:
  status: ('A' for Active; 'I' for Inactive)
    1  A    between atoms: N_2  and  C_21
    2  A    between atoms: C_4  and  C_5
    3  A    between atoms: C_5  and  C_30
    4  A    between atoms: C_9  and  C_10
    5  A    between atoms: C_10  and  C_21
    6  A    between atoms: C_13  and  C_19
    7  A    between atoms: C_36  and  C_37
                            x       y       z     vdW  Elec       q    Type
                         _______ _______ _______ _____ _____    ______ ____

>  <TORSDO>
F 7

$$$$
=
 OpenBabel11062421043D

 38 42  0  0  1  0  0  0  0  0999 V2000
  187.7630  175.7850  143.2300 C   0  0  0  0  0  2  0  0  0  0  0  0
  186.7660  178.5970  144.8850 C   0  0  0  0  0  2  0  0  0  0  0  0
  187.0000  177.3470  141.3730 C   0  0  1  0  0  3  0  0  0  0  0  0
  188.4950  177.0590  143.6840 C   0  0  1  0  0  3  0  0  0  0  0  0
  189.6050  176.5730  147.2350 N   0  0  0  0  0  2  0  0  0  0  0  0
  190.7020  176.7910  145.0880 C   0  0  2  0  0  3  0  0  0  0  0  0
  186.7740  178.4760  142.3740 C   0  0  0  0  0  2  0  0  0  0  0  0
  191.9550  176.5750  147.1680 O   0  0  0  0  0  0  0  0  0  0  0  0
  188.6400  176.7250  146.2030 C   0  0  0  0  0  0  0  0  0  0  0  0
  186.7900  176.0060  142.0660 C   0  0  0  0  0  2  0  0  0  0  0  0
  190.8510  176.6310  146.5640 C   0  0  0  0  0  0  0  0  0  0  0  0
  186.0960  177.4750  140.3210 O   0  0  0  0  0  1  0  0  0  0  0  0
  187.6310  178.3460  143.6440 C   0  0  1  0  0  3  0  0  0  0  0  0
  187.1660  176.7260  146.5340 C   0  0  0  0  0  2  0  0  0  0  0  0
  189.2070  176.8500  144.9910 C   0  0  0  0  0  0  0  0  0  0  0  0
  186.2290  177.2950  145.4660 C   0  0  1  0  0  3  0  0  0  0  0  0
  193.3970  174.6350  144.0990 C   0  0  1  0  0  3  0  0  0  0  0  0
  191.2710  175.6060  144.2920 C   0  0  1  0  0  3  0  0  0  0  0  0
  192.6480  175.8700  143.8870 N   0  0  0  0  0  2  0  0  0  0  0  0
  191.2340  174.2870  145.0380 C   0  0  0  0  0  2  0  0  0  0  0  0
  192.4270  173.5460  144.5100 C   0  0  0  0  0  2  0  0  0  0  0  0
  194.1230  174.2460  142.8200 C   0  0  0  0  0  2  0  0  0  0  0  0
  193.5670  172.4230  141.2540 C   0  0  0  0  0  3  0  0  0  0  0  0
  193.8870  172.8070  142.4900 C   0  0  0  0  0  3  0  0  0  0  0  0
  193.3060  170.9820  140.9680 C   0  0  0  0  0  2  0  0  0  0  0  0
  192.0750  170.7740  140.0670 C   0  0  0  0  0  2  0  0  0  0  0  0
  190.9880  171.7510  140.2370 N   0  0  0  0  0  0  0  0  0  0  0  0
  188.8970  172.6350  139.2940 C   0  0  0  0  0  0  0  0  0  0  0  0
  189.2610  172.5290  141.7920 C   0  0  0  0  0  0  0  0  0  0  0  0
  188.2130  173.0430  138.3170 O   0  0  0  0  0  0  0  0  0  0  0  0
  190.1200  171.8010  139.0510 C   0  0  0  0  0  2  0  0  0  0  0  0
  188.4370  172.1180  142.8230 F   0  0  0  0  0  0  0  0  0  0  0  0
  190.2250  171.4010  141.4370 C   0  0  0  0  0  2  0  0  0  0  0  0
  189.9790  173.6400  142.2010 F   0  0  0  0  0  0  0  0  0  0  0  0
  188.4480  172.8800  140.6310 N   0  0  0  0  0  2  0  0  0  0  0  0
  184.4130  176.6970  146.8860 O   0  0  0  0  0  1  0  0  0  0  0  0
  184.0930  178.5900  145.6310 O   0  0  0  0  0  0  0  0  0  0  0  0
  184.8680  177.5080  146.0370 C   0  0  0  0  0  0  0  0  0  0  0  0
  2 16  1  0  0  0  0
  3 12  1  6  0  0  0
  3 10  1  0  0  0  0
  3  7  1  0  0  0  0
  4  1  1  1  0  0  0
  4 15  1  0  0  0  0
  6 15  1  1  0  0  0
  6 11  1  0  0  0  0
  9 14  1  0  0  0  0
  9  5  1  0  0  0  0
 10  1  1  0  0  0  0
 11  8  2  0  0  0  0
 11  5  1  0  0  0  0
 13  7  1  6  0  0  0
 13  4  1  0  0  0  0
 13  2  1  0  0  0  0
 15  9  2  0  0  0  0
 16 38  1  1  0  0  0
 16 14  1  0  0  0  0
 17 22  1  6  0  0  0
 17 21  1  0  0  0  0
 18 20  1  1  0  0  0
 18  6  1  0  0  0  0
 19 17  1  0  0  0  0
 19 18  1  0  0  0  0
 21 20  1  0  0  0  0
 23 24  2  0  0  0  0
 24 22  1  0  0  0  0
 25 23  1  0  0  0  0
 26 27  1  0  0  0  0
 26 25  1  0  0  0  0
 27 33  1  0  0  0  0
 28 35  1  0  0  0  0
 29 34  1  0  0  0  0
 29 32  1  0  0  0  0
 30 28  2  0  0  0  0
 31 28  1  0  0  0  0
 31 27  1  0  0  0  0
 33 29  1  0  0  0  0
 35 29  1  0  0  0  0
 37 38  2  0  0  0  0
 38 36  1  0  0  0  0
M  END
>  <MODEL>
7

>  <REMARK>
 VINA RESULT:      -8.0      3.304      8.302
  Name = 
  7 active torsions:
  status: ('A' for Active; 'I' for Inactive)
    1  A    between atoms: N_2  and  C_21
    2  A    between atoms: C_4  and  C_5
    3  A    between atoms: C_5  and  C_30
    4  A    between atoms: C_9  and  C_10
    5  A    between atoms: C_10  and  C_21
    6  A    between atoms: C_13  and  C_19
    7  A    between atoms: C_36  and  C_37
                            x       y       z     vdW  Elec       q    Type
                         _______ _______ _______ _____ _____    ______ ____

>  <TORSDO>
F 7

$$$$
=
 OpenBabel11062421043D

 38 42  0  0  1  0  0  0  0  0999 V2000
  192.7560  174.1480  143.2820 C   0  0  0  0  0  2  0  0  0  0  0  0
  194.8210  172.9220  145.7050 C   0  0  0  0  0  2  0  0  0  0  0  0
  192.7470  171.6370  142.8770 C   0  0  1  0  0  3  0  0  0  0  0  0
  192.5260  173.6810  144.7290 C   0  0  1  0  0  3  0  0  0  0  0  0
  193.2060  176.5750  147.0180 N   0  0  0  0  0  2  0  0  0  0  0  0
  191.2560  175.2960  146.3690 C   0  0  2  0  0  3  0  0  0  0  0  0
  193.5870  171.4010  144.1280 C   0  0  0  0  0  2  0  0  0  0  0  0
  191.1430  177.0830  148.0230 O   0  0  0  0  0  0  0  0  0  0  0  0
  193.5660  175.5750  146.0750 C   0  0  0  0  0  0  0  0  0  0  0  0
  193.0690  173.0110  142.3020 C   0  0  0  0  0  2  0  0  0  0  0  0
  191.8140  176.3960  147.2100 C   0  0  0  0  0  0  0  0  0  0  0  0
  193.0410  170.6550  141.9320 O   0  0  0  0  0  1  0  0  0  0  0  0
  193.4400  172.5120  145.1800 C   0  0  1  0  0  3  0  0  0  0  0  0
  195.0000  175.4400  145.6180 C   0  0  0  0  0  2  0  0  0  0  0  0
  192.5090  174.8390  145.6860 C   0  0  0  0  0  0  0  0  0  0  0  0
  195.3770  174.1180  144.9440 C   0  0  1  0  0  3  0  0  0  0  0  0
  190.2570  176.2830  143.0640 C   0  0  1  0  0  3  0  0  0  0  0  0
  190.2090  175.7850  145.3550 C   0  0  1  0  0  3  0  0  0  0  0  0
  190.8230  176.6550  144.3570 N   0  0  0  0  0  2  0  0  0  0  0  0
  189.4790  174.6680  144.6350 C   0  0  0  0  0  2  0  0  0  0  0  0
  189.1660  175.2570  143.2910 C   0  0  0  0  0  2  0  0  0  0  0  0
  189.6940  177.5160  142.3740 C   0  0  0  0  0  2  0  0  0  0  0  0
  187.3530  178.2930  142.3590 C   0  0  0  0  0  3  0  0  0  0  0  0
  188.4470  177.9840  143.0550 C   0  0  0  0  0  3  0  0  0  0  0  0
  186.1370  178.7900  143.0700 C   0  0  0  0  0  2  0  0  0  0  0  0
  185.3490  177.6550  143.7490 C   0  0  0  0  0  2  0  0  0  0  0  0
  185.4770  177.5770  145.2130 N   0  0  0  0  0  0  0  0  0  0  0  0
  186.8400  176.7430  147.0820 C   0  0  0  0  0  0  0  0  0  0  0  0
  185.5720  178.9230  147.2590 C   0  0  0  0  0  0  0  0  0  0  0  0
  187.5040  175.8300  147.6400 O   0  0  0  0  0  0  0  0  0  0  0  0
  186.5650  176.6700  145.6080 C   0  0  0  0  0  2  0  0  0  0  0  0
  185.9420  180.1610  147.7500 F   0  0  0  0  0  0  0  0  0  0  0  0
  185.6960  178.9270  145.7380 C   0  0  0  0  0  2  0  0  0  0  0  0
  184.2600  178.6660  147.6170 F   0  0  0  0  0  0  0  0  0  0  0  0
  186.4390  177.8960  147.8310 N   0  0  0  0  0  2  0  0  0  0  0  0
  197.5060  174.9160  144.2360 O   0  0  0  0  0  0  0  0  0  0  0  0
  197.5310  172.9080  145.3440 O   0  0  0  0  0  1  0  0  0  0  0  0
  196.8600  174.0090  144.8230 C   0  0  0  0  0  0  0  0  0  0  0  0
  3 12  1  6  0  0  0
  3  7  1  0  0  0  0
  4  1  1  6  0  0  0
  4 13  1  0  0  0  0
  4 15  1  0  0  0  0
  5 11  1  0  0  0  0
  6 15  1  6  0  0  0
  6 11  1  0  0  0  0
  9  5  1  0  0  0  0
 10  3  1  0  0  0  0
 10  1  1  0  0  0  0
 11  8  2  0  0  0  0
 13  7  1  6  0  0  0
 13  2  1  0  0  0  0
 14  9  1  0  0  0  0
 15  9  2  0  0  0  0
 16 38  1  1  0  0  0
 16 14  1  0  0  0  0
 16  2  1  0  0  0  0
 17 22  1  1  0  0  0
 17 21  1  0  0  0  0
 17 19  1  0  0  0  0
 18 20  1  6  0  0  0
 18  6  1  0  0  0  0
 19 18  1  0  0  0  0
 21 20  1  0  0  0  0
 22 24  1  0  0  0  0
 23 24  2  0  0  0  0
 23 25  1  0  0  0  0
 25 26  1  0  0  0  0
 26 27  1  0  0  0  0
 27 31  1  0  0  0  0
 27 33  1  0  0  0  0
 28 30  2  0  0  0  0
 28 35  1  0  0  0  0
 29 34  1  0  0  0  0
 29 32  1  0  0  0  0
 29 35  1  0  0  0  0
 31 28  1  0  0  0  0
 33 29  1  0  0  0  0
 36 38  2  0  0  0  0
 38 37  1  0  0  0  0
M  END
>  <MODEL>
8

>  <REMARK>
 VINA RESULT:      -8.0      2.423      3.386
  Name = 
  7 active torsions:
  status: ('A' for Active; 'I' for Inactive)
    1  A    between atoms: N_2  and  C_21
    2  A    between atoms: C_4  and  C_5
    3  A    between atoms: C_5  and  C_30
    4  A    between atoms: C_9  and  C_10
    5  A    between atoms: C_10  and  C_21
    6  A    between atoms: C_13  and  C_19
    7  A    between atoms: C_36  and  C_37
                            x       y       z     vdW  Elec       q    Type
                         _______ _______ _______ _____ _____    ______ ____

>  <TORSDO>
F 7

$$$$
=
 OpenBabel11062421043D

 38 42  0  0  1  0  0  0  0  0999 V2000
  193.4560  173.5390  144.3080 C   0  0  0  0  0  2  0  0  0  0  0  0
  195.9450  175.6520  143.3150 C   0  0  0  0  0  2  0  0  0  0  0  0
  195.4330  172.8840  145.7690 C   0  0  1  0  0  3  0  0  0  0  0  0
  193.8900  174.9460  144.7560 C   0  0  1  0  0  3  0  0  0  0  0  0
  192.2320  177.4550  142.5130 N   0  0  0  0  0  0  0  0  0  0  0  0
  192.0670  176.8380  144.8470 C   0  0  2  0  0  3  0  0  0  0  0  0
  196.2660  174.0330  145.2110 C   0  0  0  0  0  2  0  0  0  0  0  0
  190.7690  178.6680  143.8950 O   0  0  0  0  0  0  0  0  0  0  0  0
  193.1260  176.3890  142.8030 C   0  0  0  0  0  0  0  0  0  0  0  0
  194.4300  172.4280  144.7160 C   0  0  0  0  0  2  0  0  0  0  0  0
  191.6050  177.7380  143.7510 C   0  0  0  0  0  0  0  0  0  0  0  0
  196.2730  171.8240  146.1030 O   0  0  0  0  0  1  0  0  0  0  0  0
  195.4180  175.2010  144.6820 C   0  0  1  0  0  3  0  0  0  0  0  0
  193.9970  175.8080  141.7140 C   0  0  0  0  0  2  0  0  0  0  0  0
  193.0660  176.0140  144.0930 C   0  0  1  0  0  3  0  0  0  0  0  0
  195.1960  174.9750  142.1740 C   0  0  1  0  0  3  0  0  0  0  0  0
  188.6370  176.2660  145.7430 C   0  0  1  0  0  3  0  0  0  0  0  0
  190.9410  175.9660  145.4260 C   0  0  1  0  0  3  0  0  0  0  0  0
  189.9490  176.7890  146.1100 N   0  0  0  0  0  2  0  0  0  0  0  0
  190.2280  175.1140  144.3940 C   0  0  0  0  0  2  0  0  0  0  0  0
  188.8300  175.0050  144.9280 C   0  0  0  0  0  2  0  0  0  0  0  0
  187.8310  175.9710  146.9990 C   0  0  0  0  0  2  0  0  0  0  0  0
  185.5890  176.7930  146.3750 C   0  0  0  0  0  3  0  0  0  0  0  0
  186.6820  176.9210  147.1290 C   0  0  0  0  0  3  0  0  0  0  0  0
  184.4760  177.7790  146.5090 C   0  0  0  0  0  2  0  0  0  0  0  0
  184.4460  178.7920  145.3500 C   0  0  0  0  0  2  0  0  0  0  0  0
  184.8590  178.2710  144.0370 N   0  0  0  0  0  0  0  0  0  0  0  0
  184.4070  178.2910  141.6200 C   0  0  0  0  0  0  0  0  0  0  0  0
  186.7630  178.0610  142.5080 C   0  0  0  0  0  0  0  0  0  0  0  0
  183.6090  178.2390  140.6470 O   0  0  0  0  0  0  0  0  0  0  0  0
  183.8940  178.6350  142.9880 C   0  0  0  0  0  2  0  0  0  0  0  0
  187.9480  178.6650  142.1310 F   0  0  0  0  0  0  0  0  0  0  0  0
  186.1960  178.7830  143.7280 C   0  0  0  0  0  2  0  0  0  0  0  0
  187.0090  176.7370  142.8250 F   0  0  0  0  0  0  0  0  0  0  0  0
  185.8130  178.1240  141.4010 N   0  0  0  0  0  2  0  0  0  0  0  0
  196.9650  173.7970  141.1010 O   0  0  0  0  0  1  0  0  0  0  0  0
  196.0520  175.5150  139.8850 O   0  0  0  0  0  0  0  0  0  0  0  0
  196.1170  174.7240  141.0290 C   0  0  0  0  0  0  0  0  0  0  0  0
  1 10  1  0  0  0  0
  3 12  1  6  0  0  0
  4  1  1  6  0  0  0
  5  9  2  0  0  0  0
  5 11  1  0  0  0  0
  6 11  1  6  0  0  0
  6 18  1  0  0  0  0
  7  3  1  0  0  0  0
 10  3  1  0  0  0  0
 11  8  2  0  0  0  0
 13  2  1  6  0  0  0
 13  4  1  0  0  0  0
 13  7  1  0  0  0  0
 14 16  1  0  0  0  0
 14  9  1  0  0  0  0
 15  9  1  1  0  0  0
 15  4  1  0  0  0  0
 15  6  1  0  0  0  0
 16 38  1  6  0  0  0
 16  2  1  0  0  0  0
 17 19  1  0  0  0  0
 17 22  1  1  0  0  0
 18 20  1  6  0  0  0
 18 19  1  0  0  0  0
 20 21  1  0  0  0  0
 21 17  1  0  0  0  0
 22 24  1  0  0  0  0
 23 25  1  0  0  0  0
 23 24  2  0  0  0  0
 26 25  1  0  0  0  0
 27 26  1  0  0  0  0
 28 31  1  0  0  0  0
 29 34  1  0  0  0  0
 29 33  1  0  0  0  0
 30 28  2  0  0  0  0
 31 27  1  0  0  0  0
 32 29  1  0  0  0  0
 33 27  1  0  0  0  0
 35 28  1  0  0  0  0
 35 29  1  0  0  0  0
 37 38  2  0  0  0  0
 38 36  1  0  0  0  0
M  END
>  <MODEL>
9

>  <REMARK>
 VINA RESULT:      -7.9      1.945      2.488
  Name = 
  7 active torsions:
  status: ('A' for Active; 'I' for Inactive)
    1  A    between atoms: N_2  and  C_21
    2  A    between atoms: C_4  and  C_5
    3  A    between atoms: C_5  and  C_30
    4  A    between atoms: C_9  and  C_10
    5  A    between atoms: C_10  and  C_21
    6  A    between atoms: C_13  and  C_19
    7  A    between atoms: C_36  and  C_37
                            x       y       z     vdW  Elec       q    Type
                         _______ _______ _______ _____ _____    ______ ____

>  <TORSDO>
F 7

$$$$
