=
 OpenBabel11062420533D

 50 53  0  0  1  0  0  0  0  0999 V2000
  195.2160  175.3180  146.0320 C   0  0  0  0  0  2  0  0  0  0  0  0
  192.4640  174.9670  145.2950 C   0  0  1  0  0  3  0  0  0  0  0  0
  193.2560  176.1290  145.1460 O   0  0  0  0  0  0  0  0  0  0  0  0
  194.7890  173.9780  145.4230 C   0  0  0  0  0  2  0  0  0  0  0  0
  194.0660  176.2040  146.2400 N   0  0  0  0  0  0  0  0  0  0  0  0
  193.3010  173.7260  145.6500 C   0  0  2  0  0  3  0  0  0  0  0  0
  194.5510  177.4660  146.2820 O   0  0  0  0  0  1  0  0  0  0  0  0
  192.8120  172.4700  144.9240 C   0  0  0  0  0  2  0  0  0  0  0  0
  193.9490  171.5810  144.4150 C   0  0  1  0  0  3  0  0  0  0  0  0
  194.0090  170.3860  145.1360 O   0  0  0  0  0  1  0  0  0  0  0  0
  193.7970  171.2960  142.9260 C   0  0  0  0  0  2  0  0  0  0  0  0
  194.3990  172.4040  142.0760 C   0  0  0  0  0  2  0  0  0  0  0  0
  193.3720  173.2210  141.5660 O   0  0  0  0  0  0  0  0  0  0  0  0
  193.7940  175.5980  141.6050 C   0  0  0  0  0  1  0  0  0  0  0  0
  195.2950  174.0410  140.6650 O   0  0  0  0  0  1  0  0  0  0  0  0
  193.9290  174.2890  140.8180 C   0  0  1  0  0  0  0  0  0  0  0  0
  193.2810  174.4070  139.4000 C   0  0  1  0  0  3  0  0  0  0  0  0
  194.3180  174.7240  138.3100 C   0  0  0  0  0  2  0  0  0  0  0  0
  193.8270  175.6800  137.4200 O   0  0  0  0  0  1  0  0  0  0  0  0
  192.4060  173.1940  138.9870 C   0  0  2  0  0  3  0  0  0  0  0  0
  193.3900  171.0410  138.7660 O   0  0  0  0  0  0  0  0  0  0  0  0
  193.2100  172.1420  138.2690 C   0  0  0  0  0  3  0  0  0  0  0  0
  191.1390  173.0830  136.9020 O   0  0  0  0  0  1  0  0  0  0  0  0
  191.1350  173.5870  138.2070 C   0  0  1  0  0  3  0  0  0  0  0  0
  189.8220  173.2520  138.9310 C   0  0  2  0  0  3  0  0  0  0  0  0
  188.8700  172.2870  142.2580 O   0  0  0  0  0  1  0  0  0  0  0  0
  190.0620  173.0250  140.3560 N   0  0  0  0  0  0  0  0  0  0  0  0
  188.1160  174.1560  141.1370 O   0  0  0  0  0  0  0  0  0  0  0  0
  189.5160  174.1620  141.1080 C   0  0  1  0  0  3  0  0  0  0  0  0
  188.7590  172.9190  141.0220 C   0  0  1  0  0  0  0  0  0  0  0  0
  189.7630  170.8600  138.7250 O   0  0  0  0  0  1  0  0  0  0  0  0
  189.1370  172.0380  138.3110 C   0  0  0  0  0  2  0  0  0  0  0  0
  191.4220  175.1800  146.2970 N   0  0  0  0  0  2  0  0  0  0  0  0
  190.0930  175.1120  145.6820 C   0  0  0  0  0  0  0  0  0  0  0  0
  189.2050  174.4850  146.5620 O   0  0  0  0  0  1  0  0  0  0  0  0
  190.1500  174.3830  144.4870 O   0  0  0  0  0  1  0  0  0  0  0  0
  189.5980  176.5430  145.4050 C   0  0  1  0  0  3  0  0  0  0  0  0
  187.8910  175.9740  143.8880 O   0  0  0  0  0  0  0  0  0  0  0  0
  188.8580  176.6850  144.1010 C   0  0  0  0  0  0  0  0  0  0  0  0
  190.6350  177.4270  142.6920 O   0  0  0  0  0  1  0  0  0  0  0  0
  189.3100  177.6730  143.0620 C   0  0  1  0  0  3  0  0  0  0  0  0
  188.4010  177.6760  141.8370 C   0  0  0  0  0  2  0  0  0  0  0  0
  187.3370  178.5670  142.0100 O   0  0  0  0  0  1  0  0  0  0  0  0
  189.4520  177.7500  147.4550 O   0  0  0  0  0  0  0  0  0  0  0  0
  188.8280  177.1470  146.5410 C   0  0  0  0  0  0  0  0  0  0  0  0
  187.4330  177.0780  146.5590 O   0  0  0  0  0  0  0  0  0  0  0  0
  185.1820  177.8420  146.9340 C   0  0  1  0  0  3  0  0  0  0  0  0
  186.6320  178.1660  147.0030 C   0  0  1  0  0  3  0  0  0  0  0  0
  184.9520  176.5580  146.4740 F   0  0  0  0  0  0  0  0  0  0  0  0
  185.9020  177.7750  148.1410 O   0  0  0  0  0  0  0  0  0  0  0  0
  1  5  1  0  0  0  0
  2  6  1  0  0  0  0
  2 33  1  1  0  0  0
  3  2  1  0  0  0  0
  3  5  1  0  0  0  0
  4  6  1  0  0  0  0
  4  1  1  0  0  0  0
  5  7  1  0  0  0  0
  6  8  1  6  0  0  0
  9  8  1  0  0  0  0
  9 10  1  1  0  0  0
 11  9  1  0  0  0  0
 12 11  1  0  0  0  0
 13 12  1  0  0  0  0
 15 16  1  0  0  0  0
 16 13  1  0  0  0  0
 16 14  1  1  0  0  0
 17 18  1  6  0  0  0
 17 16  1  0  0  0  0
 19 18  1  0  0  0  0
 20 22  1  6  0  0  0
 20 17  1  0  0  0  0
 22 21  2  0  0  0  0
 24 23  1  6  0  0  0
 24 25  1  0  0  0  0
 24 20  1  0  0  0  0
 25 32  1  6  0  0  0
 25 27  1  0  0  0  0
 27 30  1  0  0  0  0
 27 29  1  0  0  0  0
 29 28  1  6  0  0  0
 30 29  1  0  0  0  0
 30 28  1  0  0  0  0
 30 26  1  1  0  0  0
 32 31  1  0  0  0  0
 34 33  1  0  0  0  0
 34 35  1  0  0  0  0
 36 34  1  0  0  0  0
 37 39  1  6  0  0  0
 37 34  1  0  0  0  0
 37 45  1  0  0  0  0
 38 39  2  0  0  0  0
 41 40  1  6  0  0  0
 41 39  1  0  0  0  0
 42 43  1  0  0  0  0
 42 41  1  0  0  0  0
 45 46  1  0  0  0  0
 45 44  2  0  0  0  0
 47 49  1  6  0  0  0
 47 48  1  0  0  0  0
 47 50  1  0  0  0  0
 48 46  1  6  0  0  0
 48 50  1  0  0  0  0
M  END
>  <MODEL>
1

>  <REMARK>
 VINA RESULT:      -5.4      0.000      0.000
  Name = 
  23 active torsions:
  status: ('A' for Active; 'I' for Inactive)
    1  A    between atoms: N_1  and  C_17
    2  A    between atoms: N_1  and  C_37
    3  A    between atoms: C_2  and  C_37
    4  A    between atoms: C_2  and  C_39
    5  A    between atoms: C_2  and  C_45
    6  A    between atoms: C_4  and  N_8
    7  A    between atoms: C_4  and  C_15
    8  A    between atoms: C_4  and  C_50
    9  A    between atoms: C_9  and  C_33
   10  A    between atoms: C_10  and  C_22
   11  A    between atoms: C_10  and  C_39
   12  A    between atoms: C_11  and  C_20
   13  A    between atoms: C_11  and  C_47
   14  A    between atoms: C_12  and  C_15
   15  A    between atoms: C_12  and  C_33
   16  A    between atoms: C_12  and  C_40
   17  A    between atoms: C_18  and  O_25
   18  A    between atoms: C_20  and  C_21
   19  A    between atoms: C_21  and  O_27
   20  A    between atoms: O_25  and  C_45
   21  A    between atoms: O_27  and  C_38
   22  A    between atoms: C_33  and  C_38
   23  A    between atoms: C_36  and  C_47
                            x       y       z     vdW  Elec       q    Type
                         _______ _______ _______ _____ _____    ______ ____

>  <TORSDO>
F 23

$$$$
=
 OpenBabel11062420533D

 50 53  0  0  1  0  0  0  0  0999 V2000
  185.3210  178.4830  146.8340 C   0  0  0  0  0  2  0  0  0  0  0  0
  187.3620  177.2230  145.2570 C   0  0  1  0  0  3  0  0  0  0  0  0
  186.8090  178.5130  145.0820 O   0  0  0  0  0  0  0  0  0  0  0  0
  186.3760  177.6340  147.5510 C   0  0  0  0  0  2  0  0  0  0  0  0
  185.4810  178.4230  145.3780 N   0  0  0  0  0  0  0  0  0  0  0  0
  186.9710  176.5930  146.6050 C   0  0  2  0  0  3  0  0  0  0  0  0
  184.8920  179.5320  144.8760 O   0  0  0  0  0  1  0  0  0  0  0  0
  188.1340  175.8300  147.2460 C   0  0  0  0  0  2  0  0  0  0  0  0
  189.5070  176.2860  146.7490 C   0  0  1  0  0  3  0  0  0  0  0  0
  189.9760  177.3690  147.4970 O   0  0  0  0  0  1  0  0  0  0  0  0
  190.5110  175.1410  146.7870 C   0  0  0  0  0  2  0  0  0  0  0  0
  191.5360  175.2530  145.6690 C   0  0  0  0  0  2  0  0  0  0  0  0
  192.7790  174.7640  146.1140 O   0  0  0  0  0  0  0  0  0  0  0  0
  193.2410  176.7410  144.8070 C   0  0  0  0  0  1  0  0  0  0  0  0
  194.5260  176.1090  146.6800 O   0  0  0  0  0  1  0  0  0  0  0  0
  193.8280  175.5660  145.5990 C   0  0  1  0  0  0  0  0  0  0  0  0
  194.8240  174.7340  144.7280 C   0  0  1  0  0  3  0  0  0  0  0  0
  196.0320  175.5660  144.2680 C   0  0  0  0  0  2  0  0  0  0  0  0
  195.9050  175.9290  142.9270 O   0  0  0  0  0  1  0  0  0  0  0  0
  195.2920  173.4030  145.3760 C   0  0  2  0  0  3  0  0  0  0  0  0
  197.2140  173.5550  146.7660 O   0  0  0  0  0  0  0  0  0  0  0  0
  196.7750  173.3980  145.6380 C   0  0  0  0  0  3  0  0  0  0  0  0
  193.7490  171.5160  145.2240 O   0  0  0  0  0  1  0  0  0  0  0  0
  194.8330  172.1480  144.6070 C   0  0  1  0  0  3  0  0  0  0  0  0
  194.5660  172.3850  143.1130 C   0  0  2  0  0  3  0  0  0  0  0  0
  192.1330  171.2070  140.7470 O   0  0  0  0  0  1  0  0  0  0  0  0
  193.2760  171.8160  142.7230 N   0  0  0  0  0  0  0  0  0  0  0  0
  192.7930  173.4010  141.0110 O   0  0  0  0  0  0  0  0  0  0  0  0
  192.4060  172.9060  142.2620 C   0  0  1  0  0  3  0  0  0  0  0  0
  193.0890  172.0620  141.2890 C   0  0  1  0  0  0  0  0  0  0  0  0
  196.3110  172.8170  141.5200 O   0  0  0  0  0  1  0  0  0  0  0  0
  195.6810  171.8060  142.2480 C   0  0  0  0  0  2  0  0  0  0  0  0
  186.9740  176.3450  144.1550 N   0  0  0  0  0  2  0  0  0  0  0  0
  188.1450  175.9760  143.3530 C   0  0  0  0  0  0  0  0  0  0  0  0
  188.5240  174.6650  143.6590 O   0  0  0  0  0  1  0  0  0  0  0  0
  189.2120  176.8420  143.6280 O   0  0  0  0  0  1  0  0  0  0  0  0
  187.7720  176.0550  141.8620 C   0  0  1  0  0  3  0  0  0  0  0  0
  188.5240  178.2550  141.4930 O   0  0  0  0  0  0  0  0  0  0  0  0
  187.6070  177.4630  141.3530 C   0  0  0  0  0  0  0  0  0  0  0  0
  186.1260  177.2140  139.4990 O   0  0  0  0  0  1  0  0  0  0  0  0
  186.3270  177.9010  140.6980 C   0  0  1  0  0  3  0  0  0  0  0  0
  185.1240  177.7360  141.6210 C   0  0  0  0  0  2  0  0  0  0  0  0
  183.9550  178.1900  141.0020 O   0  0  0  0  0  1  0  0  0  0  0  0
  189.8830  175.1090  141.2870 O   0  0  0  0  0  0  0  0  0  0  0  0
  188.6710  175.2510  140.9710 C   0  0  0  0  0  0  0  0  0  0  0  0
  188.1570  174.6320  139.8290 O   0  0  0  0  0  0  0  0  0  0  0  0
  188.5950  172.5720  138.6640 C   0  0  1  0  0  3  0  0  0  0  0  0
  188.9980  173.9880  138.8800 C   0  0  1  0  0  3  0  0  0  0  0  0
  187.4910  172.2190  139.4190 F   0  0  0  0  0  0  0  0  0  0  0  0
  188.2300  173.5940  137.7670 O   0  0  0  0  0  0  0  0  0  0  0  0
  1  4  1  0  0  0  0
  2 33  1  6  0  0  0
  2  6  1  0  0  0  0
  3  2  1  0  0  0  0
  3  5  1  0  0  0  0
  5  1  1  0  0  0  0
  6  8  1  1  0  0  0
  6  4  1  0  0  0  0
  7  5  1  0  0  0  0
  9 11  1  0  0  0  0
  9  8  1  0  0  0  0
  9 10  1  1  0  0  0
 12 13  1  0  0  0  0
 12 11  1  0  0  0  0
 16 14  1  6  0  0  0
 16 13  1  0  0  0  0
 16 15  1  0  0  0  0
 17 18  1  1  0  0  0
 17 20  1  0  0  0  0
 17 16  1  0  0  0  0
 19 18  1  0  0  0  0
 20 22  1  6  0  0  0
 22 21  2  0  0  0  0
 24 23  1  1  0  0  0
 24 20  1  0  0  0  0
 25 32  1  6  0  0  0
 25 24  1  0  0  0  0
 27 25  1  0  0  0  0
 28 30  1  0  0  0  0
 29 28  1  1  0  0  0
 29 27  1  0  0  0  0
 30 26  1  6  0  0  0
 30 29  1  0  0  0  0
 30 27  1  0  0  0  0
 31 32  1  0  0  0  0
 34 36  1  0  0  0  0
 34 35  1  0  0  0  0
 34 33  1  0  0  0  0
 37 45  1  6  0  0  0
 37 34  1  0  0  0  0
 39 38  2  0  0  0  0
 39 37  1  0  0  0  0
 41 40  1  6  0  0  0
 41 39  1  0  0  0  0
 41 42  1  0  0  0  0
 43 42  1  0  0  0  0
 45 44  2  0  0  0  0
 46 45  1  0  0  0  0
 47 48  1  0  0  0  0
 47 49  1  1  0  0  0
 48 46  1  1  0  0  0
 50 47  1  0  0  0  0
 50 48  1  0  0  0  0
M  END
>  <MODEL>
2

>  <REMARK>
 VINA RESULT:      -5.2      2.648      6.639
  Name = 
  23 active torsions:
  status: ('A' for Active; 'I' for Inactive)
    1  A    between atoms: N_1  and  C_17
    2  A    between atoms: N_1  and  C_37
    3  A    between atoms: C_2  and  C_37
    4  A    between atoms: C_2  and  C_39
    5  A    between atoms: C_2  and  C_45
    6  A    between atoms: C_4  and  N_8
    7  A    between atoms: C_4  and  C_15
    8  A    between atoms: C_4  and  C_50
    9  A    between atoms: C_9  and  C_33
   10  A    between atoms: C_10  and  C_22
   11  A    between atoms: C_10  and  C_39
   12  A    between atoms: C_11  and  C_20
   13  A    between atoms: C_11  and  C_47
   14  A    between atoms: C_12  and  C_15
   15  A    between atoms: C_12  and  C_33
   16  A    between atoms: C_12  and  C_40
   17  A    between atoms: C_18  and  O_25
   18  A    between atoms: C_20  and  C_21
   19  A    between atoms: C_21  and  O_27
   20  A    between atoms: O_25  and  C_45
   21  A    between atoms: O_27  and  C_38
   22  A    between atoms: C_33  and  C_38
   23  A    between atoms: C_36  and  C_47
                            x       y       z     vdW  Elec       q    Type
                         _______ _______ _______ _____ _____    ______ ____

>  <TORSDO>
F 23

$$$$
=
 OpenBabel11062420533D

 50 53  0  0  1  0  0  0  0  0999 V2000
  185.3010  177.9290  146.2300 C   0  0  0  0  0  2  0  0  0  0  0  0
  187.7690  176.4990  145.9090 C   0  0  1  0  0  3  0  0  0  0  0  0
  186.9690  176.5910  147.0720 O   0  0  0  0  0  0  0  0  0  0  0  0
  185.5510  177.1950  144.9090 C   0  0  0  0  0  2  0  0  0  0  0  0
  186.4680  177.8580  147.1150 N   0  0  0  0  0  0  0  0  0  0  0  0
  187.0480  177.0250  144.6560 C   0  0  2  0  0  3  0  0  0  0  0  0
  186.0150  178.0570  148.3730 O   0  0  0  0  0  1  0  0  0  0  0  0
  187.3290  176.1630  143.4220 C   0  0  0  0  0  2  0  0  0  0  0  0
  187.0260  176.8760  142.1020 C   0  0  1  0  0  3  0  0  0  0  0  0
  187.3420  178.2340  142.1830 O   0  0  0  0  0  1  0  0  0  0  0  0
  187.7730  176.2250  140.9440 C   0  0  0  0  0  2  0  0  0  0  0  0
  188.8340  175.2510  141.4340 C   0  0  0  0  0  2  0  0  0  0  0  0
  189.0050  174.2220  140.4890 O   0  0  0  0  0  0  0  0  0  0  0  0
  189.7320  173.1250  142.5130 C   0  0  0  0  0  1  0  0  0  0  0  0
  187.7460  172.5470  141.3810 O   0  0  0  0  0  1  0  0  0  0  0  0
  189.0580  172.9660  141.1450 C   0  0  1  0  0  0  0  0  0  0  0  0
  189.7800  171.8850  140.2770 C   0  0  1  0  0  3  0  0  0  0  0  0
  189.3390  171.9300  138.8050 C   0  0  0  0  0  2  0  0  0  0  0  0
  189.2260  170.6420  138.2790 O   0  0  0  0  0  1  0  0  0  0  0  0
  191.3270  171.8980  140.3850 C   0  0  2  0  0  3  0  0  0  0  0  0
  193.1560  172.6810  139.0840 O   0  0  0  0  0  0  0  0  0  0  0  0
  191.9750  172.3730  139.1110 C   0  0  0  0  0  3  0  0  0  0  0  0
  192.4400  169.7970  139.8270 O   0  0  0  0  0  1  0  0  0  0  0  0
  191.9230  170.5630  140.8770 C   0  0  1  0  0  3  0  0  0  0  0  0
  192.9420  170.7080  142.0170 C   0  0  2  0  0  3  0  0  0  0  0  0
  196.3150  169.6070  142.5830 O   0  0  0  0  0  1  0  0  0  0  0  0
  194.2570  170.2240  141.5980 N   0  0  0  0  0  0  0  0  0  0  0  0
  195.5320  171.7520  142.9080 O   0  0  0  0  0  0  0  0  0  0  0  0
  195.1950  171.3550  141.6090 C   0  0  1  0  0  3  0  0  0  0  0  0
  195.1850  170.4100  142.7200 C   0  0  1  0  0  0  0  0  0  0  0  0
  192.0920  170.8780  144.2570 O   0  0  0  0  0  1  0  0  0  0  0  0
  192.4830  169.9700  143.2710 C   0  0  0  0  0  2  0  0  0  0  0  0
  189.0340  177.2050  146.0990 N   0  0  0  0  0  2  0  0  0  0  0  0
  190.1380  176.2520  146.2540 C   0  0  0  0  0  0  0  0  0  0  0  0
  189.7560  175.0110  145.7340 O   0  0  0  0  0  1  0  0  0  0  0  0
  190.4650  176.1060  147.6080 O   0  0  0  0  0  1  0  0  0  0  0  0
  191.3570  176.7700  145.4690 C   0  0  1  0  0  3  0  0  0  0  0  0
  192.6150  174.8840  146.1020 O   0  0  0  0  0  0  0  0  0  0  0  0
  192.6440  176.0700  145.8200 C   0  0  0  0  0  0  0  0  0  0  0  0
  194.1860  177.3490  147.1150 O   0  0  0  0  0  1  0  0  0  0  0  0
  193.9460  176.8190  145.8450 C   0  0  1  0  0  3  0  0  0  0  0  0
  195.1170  175.9520  145.3930 C   0  0  0  0  0  2  0  0  0  0  0  0
  195.7630  176.5230  144.2920 O   0  0  0  0  0  1  0  0  0  0  0  0
  190.5750  177.8210  143.4780 O   0  0  0  0  0  0  0  0  0  0  0  0
  191.1450  176.8180  143.9860 C   0  0  0  0  0  0  0  0  0  0  0  0
  191.6150  175.7820  143.1750 O   0  0  0  0  0  0  0  0  0  0  0  0
  193.5830  174.7050  142.3020 C   0  0  1  0  0  3  0  0  0  0  0  0
  192.7540  175.9400  142.3370 C   0  0  1  0  0  3  0  0  0  0  0  0
  193.0460  173.6900  143.0730 F   0  0  0  0  0  0  0  0  0  0  0  0
  192.6790  175.0240  141.2700 O   0  0  0  0  0  0  0  0  0  0  0  0
  1  5  1  0  0  0  0
  2 33  1  1  0  0  0
  2  3  1  0  0  0  0
  3  5  1  0  0  0  0
  4  1  1  0  0  0  0
  5  7  1  0  0  0  0
  6  8  1  6  0  0  0
  6  4  1  0  0  0  0
  6  2  1  0  0  0  0
  9 10  1  1  0  0  0
  9  8  1  0  0  0  0
 11 12  1  0  0  0  0
 11  9  1  0  0  0  0
 13 16  1  0  0  0  0
 13 12  1  0  0  0  0
 16 15  1  0  0  0  0
 16 14  1  1  0  0  0
 17 18  1  6  0  0  0
 17 20  1  0  0  0  0
 17 16  1  0  0  0  0
 19 18  1  0  0  0  0
 20 22  1  6  0  0  0
 20 24  1  0  0  0  0
 21 22  2  0  0  0  0
 24 23  1  6  0  0  0
 24 25  1  0  0  0  0
 25 32  1  1  0  0  0
 27 29  1  0  0  0  0
 27 25  1  0  0  0  0
 27 30  1  0  0  0  0
 29 30  1  0  0  0  0
 29 28  1  1  0  0  0
 30 26  1  1  0  0  0
 30 28  1  0  0  0  0
 32 31  1  0  0  0  0
 33 34  1  0  0  0  0
 34 36  1  0  0  0  0
 35 34  1  0  0  0  0
 37 45  1  6  0  0  0
 37 39  1  0  0  0  0
 37 34  1  0  0  0  0
 39 41  1  0  0  0  0
 39 38  2  0  0  0  0
 41 40  1  1  0  0  0
 42 41  1  0  0  0  0
 43 42  1  0  0  0  0
 44 45  2  0  0  0  0
 46 45  1  0  0  0  0
 47 48  1  0  0  0  0
 47 49  1  1  0  0  0
 48 46  1  1  0  0  0
 50 47  1  0  0  0  0
 50 48  1  0  0  0  0
M  END
>  <MODEL>
3

>  <REMARK>
 VINA RESULT:      -5.1      2.426      6.509
  Name = 
  23 active torsions:
  status: ('A' for Active; 'I' for Inactive)
    1  A    between atoms: N_1  and  C_17
    2  A    between atoms: N_1  and  C_37
    3  A    between atoms: C_2  and  C_37
    4  A    between atoms: C_2  and  C_39
    5  A    between atoms: C_2  and  C_45
    6  A    between atoms: C_4  and  N_8
    7  A    between atoms: C_4  and  C_15
    8  A    between atoms: C_4  and  C_50
    9  A    between atoms: C_9  and  C_33
   10  A    between atoms: C_10  and  C_22
   11  A    between atoms: C_10  and  C_39
   12  A    between atoms: C_11  and  C_20
   13  A    between atoms: C_11  and  C_47
   14  A    between atoms: C_12  and  C_15
   15  A    between atoms: C_12  and  C_33
   16  A    between atoms: C_12  and  C_40
   17  A    between atoms: C_18  and  O_25
   18  A    between atoms: C_20  and  C_21
   19  A    between atoms: C_21  and  O_27
   20  A    between atoms: O_25  and  C_45
   21  A    between atoms: O_27  and  C_38
   22  A    between atoms: C_33  and  C_38
   23  A    between atoms: C_36  and  C_47
                            x       y       z     vdW  Elec       q    Type
                         _______ _______ _______ _____ _____    ______ ____

>  <TORSDO>
F 23

$$$$
=
 OpenBabel11062420533D

 50 53  0  0  1  0  0  0  0  0999 V2000
  185.3780  177.9200  140.0910 C   0  0  0  0  0  2  0  0  0  0  0  0
  186.7920  176.9560  142.3950 C   0  0  1  0  0  3  0  0  0  0  0  0
  185.3970  177.1360  142.2510 O   0  0  0  0  0  0  0  0  0  0  0  0
  186.5730  176.9850  139.8750 C   0  0  0  0  0  2  0  0  0  0  0  0
  185.2130  178.2630  141.5060 N   0  0  0  0  0  0  0  0  0  0  0  0
  187.5400  177.0560  141.0540 C   0  0  2  0  0  3  0  0  0  0  0  0
  183.9220  178.6340  141.6690 O   0  0  0  0  0  1  0  0  0  0  0  0
  188.6650  176.0230  140.9400 C   0  0  0  0  0  2  0  0  0  0  0  0
  188.1950  174.6710  140.4000 C   0  0  1  0  0  3  0  0  0  0  0  0
  188.8810  174.3340  139.2310 O   0  0  0  0  0  1  0  0  0  0  0  0
  188.3600  173.5760  141.4460 C   0  0  0  0  0  2  0  0  0  0  0  0
  189.6620  172.8130  141.2630 C   0  0  0  0  0  2  0  0  0  0  0  0
  190.5290  173.0890  142.3380 O   0  0  0  0  0  0  0  0  0  0  0  0
  189.9100  172.1180  144.4590 C   0  0  0  0  0  1  0  0  0  0  0  0
  190.1000  170.8580  142.4750 O   0  0  0  0  0  1  0  0  0  0  0  0
  190.6820  171.9360  143.1470 C   0  0  1  0  0  0  0  0  0  0  0  0
  192.1870  171.6050  143.4120 C   0  0  1  0  0  3  0  0  0  0  0  0
  192.4700  170.0950  143.3540 C   0  0  0  0  0  2  0  0  0  0  0  0
  193.0940  169.6610  144.5250 O   0  0  0  0  0  1  0  0  0  0  0  0
  193.1860  172.3840  142.5160 C   0  0  2  0  0  3  0  0  0  0  0  0
  193.6210  172.4620  140.1810 O   0  0  0  0  0  0  0  0  0  0  0  0
  193.2930  171.7810  141.1400 C   0  0  0  0  0  3  0  0  0  0  0  0
  195.6020  172.0440  142.4010 O   0  0  0  0  0  1  0  0  0  0  0  0
  194.5680  172.5900  143.1690 C   0  0  1  0  0  3  0  0  0  0  0  0
  194.8710  174.0450  143.5600 C   0  0  2  0  0  3  0  0  0  0  0  0
  192.9570  176.9620  144.4170 O   0  0  0  0  0  1  0  0  0  0  0  0
  193.6310  174.7790  143.8140 N   0  0  0  0  0  0  0  0  0  0  0  0
  194.3380  175.7950  145.8490 O   0  0  0  0  0  0  0  0  0  0  0  0
  193.4450  174.8890  145.2670 C   0  0  1  0  0  3  0  0  0  0  0  0
  193.9780  176.0200  144.5170 C   0  0  1  0  0  0  0  0  0  0  0  0
  194.8680  175.1750  141.4410 O   0  0  0  0  0  1  0  0  0  0  0  0
  195.6920  174.7510  142.4850 C   0  0  0  0  0  2  0  0  0  0  0  0
  187.3370  177.9160  143.3530 N   0  0  0  0  0  2  0  0  0  0  0  0
  188.2090  177.2410  144.3190 C   0  0  0  0  0  0  0  0  0  0  0  0
  189.5200  177.7040  144.1650 O   0  0  0  0  0  1  0  0  0  0  0  0
  188.1820  175.8560  144.1110 O   0  0  0  0  0  1  0  0  0  0  0  0
  187.7250  177.5710  145.7430 C   0  0  1  0  0  3  0  0  0  0  0  0
  185.6400  176.4800  145.7250 O   0  0  0  0  0  0  0  0  0  0  0  0
  186.2280  177.5350  145.8960 C   0  0  0  0  0  0  0  0  0  0  0  0
  184.0870  178.5730  146.0670 O   0  0  0  0  0  1  0  0  0  0  0  0
  185.4570  178.7800  146.2350 C   0  0  1  0  0  3  0  0  0  0  0  0
  185.7580  179.2750  147.6460 C   0  0  0  0  0  2  0  0  0  0  0  0
  185.8180  178.2080  148.5470 O   0  0  0  0  0  1  0  0  0  0  0  0
  187.8950  175.6810  147.1860 O   0  0  0  0  0  0  0  0  0  0  0  0
  188.4060  176.7710  146.8130 C   0  0  0  0  0  0  0  0  0  0  0  0
  189.6160  177.2110  147.3560 O   0  0  0  0  0  0  0  0  0  0  0  0
  191.8550  176.8540  148.1640 C   0  0  1  0  0  3  0  0  0  0  0  0
  190.8370  176.5160  147.1330 C   0  0  1  0  0  3  0  0  0  0  0  0
  191.3730  177.7470  149.1050 F   0  0  0  0  0  0  0  0  0  0  0  0
  191.0990  175.6690  148.2260 O   0  0  0  0  0  0  0  0  0  0  0  0
  1  5  1  0  0  0  0
  2 33  1  1  0  0  0
  3  2  1  0  0  0  0
  4  1  1  0  0  0  0
  4  6  1  0  0  0  0
  5  7  1  0  0  0  0
  5  3  1  0  0  0  0
  6  8  1  6  0  0  0
  6  2  1  0  0  0  0
  9 10  1  6  0  0  0
  9  8  1  0  0  0  0
  9 11  1  0  0  0  0
 12 11  1  0  0  0  0
 12 13  1  0  0  0  0
 13 16  1  0  0  0  0
 15 16  1  0  0  0  0
 16 17  1  0  0  0  0
 16 14  1  1  0  0  0
 17 18  1  6  0  0  0
 18 19  1  0  0  0  0
 20 22  1  6  0  0  0
 20 24  1  0  0  0  0
 20 17  1  0  0  0  0
 21 22  2  0  0  0  0
 24 23  1  6  0  0  0
 24 25  1  0  0  0  0
 25 32  1  6  0  0  0
 25 27  1  0  0  0  0
 27 30  1  0  0  0  0
 27 29  1  0  0  0  0
 29 28  1  1  0  0  0
 30 26  1  6  0  0  0
 30 29  1  0  0  0  0
 30 28  1  0  0  0  0
 31 32  1  0  0  0  0
 33 34  1  0  0  0  0
 34 37  1  0  0  0  0
 35 34  1  0  0  0  0
 36 34  1  0  0  0  0
 37 39  1  6  0  0  0
 37 45  1  0  0  0  0
 38 39  2  0  0  0  0
 39 41  1  0  0  0  0
 41 40  1  1  0  0  0
 41 42  1  0  0  0  0
 42 43  1  0  0  0  0
 45 44  2  0  0  0  0
 45 46  1  0  0  0  0
 47 50  1  0  0  0  0
 47 49  1  1  0  0  0
 48 46  1  1  0  0  0
 48 47  1  0  0  0  0
 48 50  1  0  0  0  0
M  END
>  <MODEL>
4

>  <REMARK>
 VINA RESULT:      -5.0      2.511      6.477
  Name = 
  23 active torsions:
  status: ('A' for Active; 'I' for Inactive)
    1  A    between atoms: N_1  and  C_17
    2  A    between atoms: N_1  and  C_37
    3  A    between atoms: C_2  and  C_37
    4  A    between atoms: C_2  and  C_39
    5  A    between atoms: C_2  and  C_45
    6  A    between atoms: C_4  and  N_8
    7  A    between atoms: C_4  and  C_15
    8  A    between atoms: C_4  and  C_50
    9  A    between atoms: C_9  and  C_33
   10  A    between atoms: C_10  and  C_22
   11  A    between atoms: C_10  and  C_39
   12  A    between atoms: C_11  and  C_20
   13  A    between atoms: C_11  and  C_47
   14  A    between atoms: C_12  and  C_15
   15  A    between atoms: C_12  and  C_33
   16  A    between atoms: C_12  and  C_40
   17  A    between atoms: C_18  and  O_25
   18  A    between atoms: C_20  and  C_21
   19  A    between atoms: C_21  and  O_27
   20  A    between atoms: O_25  and  C_45
   21  A    between atoms: O_27  and  C_38
   22  A    between atoms: C_33  and  C_38
   23  A    between atoms: C_36  and  C_47
                            x       y       z     vdW  Elec       q    Type
                         _______ _______ _______ _____ _____    ______ ____

>  <TORSDO>
F 23

$$$$
=
 OpenBabel11062420533D

 50 53  0  0  1  0  0  0  0  0999 V2000
  185.2190  178.7080  146.3130 C   0  0  0  0  0  2  0  0  0  0  0  0
  187.1690  176.6950  145.6910 C   0  0  1  0  0  3  0  0  0  0  0  0
  186.6330  177.0150  146.9600 O   0  0  0  0  0  0  0  0  0  0  0  0
  185.0470  177.9000  145.0220 C   0  0  0  0  0  2  0  0  0  0  0  0
  186.4710  178.3680  146.9970 N   0  0  0  0  0  0  0  0  0  0  0  0
  186.3880  177.3520  144.5400 C   0  0  2  0  0  3  0  0  0  0  0  0
  186.3090  178.7080  148.2960 O   0  0  0  0  0  1  0  0  0  0  0  0
  186.2300  176.4160  143.3390 C   0  0  0  0  0  2  0  0  0  0  0  0
  186.6230  177.0620  142.0090 C   0  0  1  0  0  3  0  0  0  0  0  0
  186.5370  178.4540  142.0840 O   0  0  0  0  0  1  0  0  0  0  0  0
  188.0260  176.6400  141.5900 C   0  0  0  0  0  2  0  0  0  0  0  0
  188.0070  175.3710  140.7530 C   0  0  0  0  0  2  0  0  0  0  0  0
  189.2800  174.7690  140.7730 O   0  0  0  0  0  0  0  0  0  0  0  0
  187.9980  172.8670  141.5240 C   0  0  0  0  0  1  0  0  0  0  0  0
  188.8150  173.0780  139.3220 O   0  0  0  0  0  1  0  0  0  0  0  0
  189.1540  173.3630  140.6470 C   0  0  1  0  0  0  0  0  0  0  0  0
  190.4880  172.6250  140.9920 C   0  0  1  0  0  3  0  0  0  0  0  0
  190.4390  171.1320  140.6290 C   0  0  0  0  0  2  0  0  0  0  0  0
  190.4090  170.3410  141.7780 O   0  0  0  0  0  1  0  0  0  0  0  0
  191.7620  173.2890  140.4050 C   0  0  2  0  0  3  0  0  0  0  0  0
  192.2750  174.1380  138.2450 O   0  0  0  0  0  0  0  0  0  0  0  0
  191.7820  173.2340  138.9000 C   0  0  0  0  0  3  0  0  0  0  0  0
  193.7030  171.8200  140.2000 O   0  0  0  0  0  1  0  0  0  0  0  0
  193.0740  172.7600  141.0220 C   0  0  1  0  0  3  0  0  0  0  0  0
  194.0510  173.8590  141.4660 C   0  0  2  0  0  3  0  0  0  0  0  0
  196.8660  174.0050  143.6920 O   0  0  0  0  0  1  0  0  0  0  0  0
  195.1660  173.2850  142.2190 N   0  0  0  0  0  0  0  0  0  0  0  0
  196.7870  174.9060  141.5700 O   0  0  0  0  0  0  0  0  0  0  0  0
  196.4110  173.5600  141.4900 C   0  0  1  0  0  3  0  0  0  0  0  0
  196.0440  174.3850  142.6340 C   0  0  1  0  0  0  0  0  0  0  0  0
  193.4730  176.1790  141.6910 O   0  0  0  0  0  1  0  0  0  0  0  0
  193.3470  174.9270  142.2970 C   0  0  0  0  0  2  0  0  0  0  0  0
  188.5810  177.0650  145.6220 N   0  0  0  0  0  2  0  0  0  0  0  0
  189.3780  176.2250  146.5220 C   0  0  0  0  0  0  0  0  0  0  0  0
  188.5670  175.2190  147.0580 O   0  0  0  0  0  1  0  0  0  0  0  0
  189.9060  176.9970  147.5640 O   0  0  0  0  0  1  0  0  0  0  0  0
  190.5180  175.5740  145.7170 C   0  0  1  0  0  3  0  0  0  0  0  0
  189.3390  174.5970  143.9300 O   0  0  0  0  0  0  0  0  0  0  0  0
  190.0760  174.4020  144.8820 C   0  0  0  0  0  0  0  0  0  0  0  0
  189.4630  172.1020  145.0460 O   0  0  0  0  0  1  0  0  0  0  0  0
  190.5150  173.0050  145.2210 C   0  0  1  0  0  3  0  0  0  0  0  0
  191.7350  172.5730  144.4140 C   0  0  0  0  0  2  0  0  0  0  0  0
  192.9160  172.8730  145.0980 O   0  0  0  0  0  1  0  0  0  0  0  0
  190.7680  177.1730  143.9680 O   0  0  0  0  0  0  0  0  0  0  0  0
  191.3230  176.5490  144.9120 C   0  0  0  0  0  0  0  0  0  0  0  0
  192.6590  176.7950  145.2380 O   0  0  0  0  0  0  0  0  0  0  0  0
  194.7230  176.0400  146.2200 C   0  0  1  0  0  3  0  0  0  0  0  0
  193.2610  176.2480  146.4050 C   0  0  1  0  0  3  0  0  0  0  0  0
  195.1560  176.4410  144.9700 F   0  0  0  0  0  0  0  0  0  0  0  0
  194.2120  177.1570  146.9090 O   0  0  0  0  0  0  0  0  0  0  0  0
  1  5  1  0  0  0  0
  2 33  1  1  0  0  0
  2  3  1  0  0  0  0
  3  5  1  0  0  0  0
  4  1  1  0  0  0  0
  5  7  1  0  0  0  0
  6  8  1  6  0  0  0
  6  4  1  0  0  0  0
  6  2  1  0  0  0  0
  9 10  1  1  0  0  0
  9  8  1  0  0  0  0
 11  9  1  0  0  0  0
 12 13  1  0  0  0  0
 12 11  1  0  0  0  0
 15 16  1  0  0  0  0
 16 13  1  0  0  0  0
 16 17  1  0  0  0  0
 16 14  1  1  0  0  0
 17 18  1  6  0  0  0
 18 19  1  0  0  0  0
 20 22  1  6  0  0  0
 20 17  1  0  0  0  0
 20 24  1  0  0  0  0
 21 22  2  0  0  0  0
 24 23  1  6  0  0  0
 24 25  1  0  0  0  0
 25 27  1  0  0  0  0
 25 32  1  1  0  0  0
 27 30  1  0  0  0  0
 28 30  1  0  0  0  0
 29 28  1  6  0  0  0
 29 27  1  0  0  0  0
 29 30  1  0  0  0  0
 30 26  1  1  0  0  0
 31 32  1  0  0  0  0
 33 34  1  0  0  0  0
 34 35  1  0  0  0  0
 34 36  1  0  0  0  0
 37 39  1  6  0  0  0
 37 34  1  0  0  0  0
 38 39  2  0  0  0  0
 39 41  1  0  0  0  0
 41 40  1  6  0  0  0
 42 43  1  0  0  0  0
 42 41  1  0  0  0  0
 44 45  2  0  0  0  0
 45 46  1  0  0  0  0
 45 37  1  0  0  0  0
 47 49  1  6  0  0  0
 47 48  1  0  0  0  0
 47 50  1  0  0  0  0
 48 46  1  6  0  0  0
 48 50  1  0  0  0  0
M  END
>  <MODEL>
5

>  <REMARK>
 VINA RESULT:      -5.0      2.548      6.596
  Name = 
  23 active torsions:
  status: ('A' for Active; 'I' for Inactive)
    1  A    between atoms: N_1  and  C_17
    2  A    between atoms: N_1  and  C_37
    3  A    between atoms: C_2  and  C_37
    4  A    between atoms: C_2  and  C_39
    5  A    between atoms: C_2  and  C_45
    6  A    between atoms: C_4  and  N_8
    7  A    between atoms: C_4  and  C_15
    8  A    between atoms: C_4  and  C_50
    9  A    between atoms: C_9  and  C_33
   10  A    between atoms: C_10  and  C_22
   11  A    between atoms: C_10  and  C_39
   12  A    between atoms: C_11  and  C_20
   13  A    between atoms: C_11  and  C_47
   14  A    between atoms: C_12  and  C_15
   15  A    between atoms: C_12  and  C_33
   16  A    between atoms: C_12  and  C_40
   17  A    between atoms: C_18  and  O_25
   18  A    between atoms: C_20  and  C_21
   19  A    between atoms: C_21  and  O_27
   20  A    between atoms: O_25  and  C_45
   21  A    between atoms: O_27  and  C_38
   22  A    between atoms: C_33  and  C_38
   23  A    between atoms: C_36  and  C_47
                            x       y       z     vdW  Elec       q    Type
                         _______ _______ _______ _____ _____    ______ ____

>  <TORSDO>
F 23

$$$$
=
 OpenBabel11062420533D

 50 53  0  0  1  0  0  0  0  0999 V2000
  190.9050  172.8920  137.1410 C   0  0  0  0  0  2  0  0  0  0  0  0
  192.3210  173.8890  139.4300 C   0  0  1  0  0  3  0  0  0  0  0  0
  192.6070  174.1280  138.0660 O   0  0  0  0  0  0  0  0  0  0  0  0
  190.0950  173.3210  138.3700 C   0  0  0  0  0  2  0  0  0  0  0  0
  192.3460  172.9710  137.3930 N   0  0  0  0  0  0  0  0  0  0  0  0
  190.9430  173.2370  139.6370 C   0  0  2  0  0  3  0  0  0  0  0  0
  192.9470  173.0770  136.1850 O   0  0  0  0  0  1  0  0  0  0  0  0
  190.2120  173.8030  140.8570 C   0  0  0  0  0  2  0  0  0  0  0  0
  188.6920  173.8480  140.6880 C   0  0  1  0  0  3  0  0  0  0  0  0
  188.0670  172.9330  141.5380 O   0  0  0  0  0  1  0  0  0  0  0  0
  188.1550  175.2530  140.9340 C   0  0  0  0  0  2  0  0  0  0  0  0
  187.6470  175.4200  142.3580 C   0  0  0  0  0  2  0  0  0  0  0  0
  188.0240  176.6840  142.8500 O   0  0  0  0  0  0  0  0  0  0  0  0
  186.4900  178.5480  142.8450 C   0  0  0  0  0  1  0  0  0  0  0  0
  185.8720  176.3770  143.5260 O   0  0  0  0  0  1  0  0  0  0  0  0
  186.9450  177.2700  143.5600 C   0  0  1  0  0  0  0  0  0  0  0  0
  187.3140  177.5520  145.0520 C   0  0  1  0  0  3  0  0  0  0  0  0
  186.0740  177.5930  145.9610 C   0  0  0  0  0  2  0  0  0  0  0  0
  185.9490  178.8400  146.5750 O   0  0  0  0  0  1  0  0  0  0  0  0
  188.3920  176.6040  145.6410 C   0  0  2  0  0  3  0  0  0  0  0  0
  188.5640  175.0200  147.4050 O   0  0  0  0  0  0  0  0  0  0  0  0
  187.9080  175.9110  146.8890 C   0  0  0  0  0  3  0  0  0  0  0  0
  189.9100  177.7940  147.1390 O   0  0  0  0  0  1  0  0  0  0  0  0
  189.7630  177.2800  145.8470 C   0  0  1  0  0  3  0  0  0  0  0  0
  190.9630  176.4060  145.4520 C   0  0  2  0  0  3  0  0  0  0  0  0
  194.4150  176.2280  146.4300 O   0  0  0  0  0  1  0  0  0  0  0  0
  192.0900  176.6390  146.3550 N   0  0  0  0  0  0  0  0  0  0  0  0
  192.9800  174.4320  146.2450 O   0  0  0  0  0  0  0  0  0  0  0  0
  192.3800  175.3900  147.0710 C   0  0  1  0  0  3  0  0  0  0  0  0
  193.1970  175.7770  145.9280 C   0  0  1  0  0  0  0  0  0  0  0  0
  191.2390  178.0070  143.6840 O   0  0  0  0  0  1  0  0  0  0  0  0
  191.3830  176.6570  144.0080 C   0  0  0  0  0  2  0  0  0  0  0  0
  193.3670  173.0680  140.0370 N   0  0  0  0  0  2  0  0  0  0  0  0
  194.1840  173.8700  140.9540 C   0  0  0  0  0  0  0  0  0  0  0  0
  193.7730  175.2060  140.8940 O   0  0  0  0  0  1  0  0  0  0  0  0
  195.5360  173.7850  140.5970 O   0  0  0  0  0  1  0  0  0  0  0  0
  193.9820  173.3480  142.3880 C   0  0  1  0  0  3  0  0  0  0  0  0
  194.6490  171.0990  142.1900 O   0  0  0  0  0  0  0  0  0  0  0  0
  193.7380  171.8640  142.4630 C   0  0  0  0  0  0  0  0  0  0  0  0
  192.3690  169.9300  142.7410 O   0  0  0  0  0  1  0  0  0  0  0  0
  192.3900  171.3220  142.8460 C   0  0  1  0  0  3  0  0  0  0  0  0
  191.9700  171.7640  144.2440 C   0  0  0  0  0  2  0  0  0  0  0  0
  190.9550  172.7230  144.1800 O   0  0  0  0  0  1  0  0  0  0  0  0
  195.6000  174.9030  143.1910 O   0  0  0  0  0  0  0  0  0  0  0  0
  195.0550  173.7760  143.3430 C   0  0  0  0  0  0  0  0  0  0  0  0
  195.4110  172.9540  144.4150 O   0  0  0  0  0  0  0  0  0  0  0  0
  197.2950  173.2600  145.8800 C   0  0  1  0  0  3  0  0  0  0  0  0
  196.7630  172.5880  144.6650 C   0  0  1  0  0  3  0  0  0  0  0  0
  196.3510  174.0650  146.4920 F   0  0  0  0  0  0  0  0  0  0  0  0
  196.8460  171.9260  145.9050 O   0  0  0  0  0  0  0  0  0  0  0  0
  1  5  1  0  0  0  0
  1  4  1  0  0  0  0
  2  6  1  0  0  0  0
  2 33  1  6  0  0  0
  3  2  1  0  0  0  0
  4  6  1  0  0  0  0
  5  3  1  0  0  0  0
  6  8  1  1  0  0  0
  7  5  1  0  0  0  0
  9  8  1  0  0  0  0
  9 11  1  0  0  0  0
  9 10  1  1  0  0  0
 11 12  1  0  0  0  0
 12 13  1  0  0  0  0
 13 16  1  0  0  0  0
 15 16  1  0  0  0  0
 16 14  1  6  0  0  0
 16 17  1  0  0  0  0
 17 20  1  0  0  0  0
 17 18  1  1  0  0  0
 18 19  1  0  0  0  0
 20 24  1  0  0  0  0
 20 22  1  1  0  0  0
 22 21  2  0  0  0  0
 24 23  1  1  0  0  0
 25 32  1  6  0  0  0
 25 24  1  0  0  0  0
 25 27  1  0  0  0  0
 27 29  1  0  0  0  0
 29 28  1  6  0  0  0
 30 28  1  0  0  0  0
 30 27  1  0  0  0  0
 30 26  1  1  0  0  0
 30 29  1  0  0  0  0
 31 32  1  0  0  0  0
 33 34  1  0  0  0  0
 34 37  1  0  0  0  0
 35 34  1  0  0  0  0
 36 34  1  0  0  0  0
 37 39  1  6  0  0  0
 37 45  1  0  0  0  0
 38 39  2  0  0  0  0
 39 41  1  0  0  0  0
 41 40  1  1  0  0  0
 41 42  1  0  0  0  0
 43 42  1  0  0  0  0
 44 45  2  0  0  0  0
 45 46  1  0  0  0  0
 47 50  1  0  0  0  0
 47 49  1  1  0  0  0
 48 46  1  1  0  0  0
 48 47  1  0  0  0  0
 48 50  1  0  0  0  0
M  END
>  <MODEL>
6

>  <REMARK>
 VINA RESULT:      -4.9      2.498      8.638
  Name = 
  23 active torsions:
  status: ('A' for Active; 'I' for Inactive)
    1  A    between atoms: N_1  and  C_17
    2  A    between atoms: N_1  and  C_37
    3  A    between atoms: C_2  and  C_37
    4  A    between atoms: C_2  and  C_39
    5  A    between atoms: C_2  and  C_45
    6  A    between atoms: C_4  and  N_8
    7  A    between atoms: C_4  and  C_15
    8  A    between atoms: C_4  and  C_50
    9  A    between atoms: C_9  and  C_33
   10  A    between atoms: C_10  and  C_22
   11  A    between atoms: C_10  and  C_39
   12  A    between atoms: C_11  and  C_20
   13  A    between atoms: C_11  and  C_47
   14  A    between atoms: C_12  and  C_15
   15  A    between atoms: C_12  and  C_33
   16  A    between atoms: C_12  and  C_40
   17  A    between atoms: C_18  and  O_25
   18  A    between atoms: C_20  and  C_21
   19  A    between atoms: C_21  and  O_27
   20  A    between atoms: O_25  and  C_45
   21  A    between atoms: O_27  and  C_38
   22  A    between atoms: C_33  and  C_38
   23  A    between atoms: C_36  and  C_47
                            x       y       z     vdW  Elec       q    Type
                         _______ _______ _______ _____ _____    ______ ____

>  <TORSDO>
F 23

$$$$
=
 OpenBabel11062420533D

 50 53  0  0  1  0  0  0  0  0999 V2000
  191.8850  171.1310  138.6690 C   0  0  0  0  0  2  0  0  0  0  0  0
  192.4170  172.8170  140.9300 C   0  0  1  0  0  3  0  0  0  0  0  0
  192.8990  172.9670  139.6090 O   0  0  0  0  0  0  0  0  0  0  0  0
  190.7430  171.4160  139.6500 C   0  0  0  0  0  2  0  0  0  0  0  0
  193.1480  171.7150  139.1280 N   0  0  0  0  0  0  0  0  0  0  0  0
  191.2890  171.7760  141.0300 C   0  0  2  0  0  3  0  0  0  0  0  0
  193.9290  171.8640  138.0350 O   0  0  0  0  0  1  0  0  0  0  0  0
  190.1810  172.2140  141.9920 C   0  0  0  0  0  2  0  0  0  0  0  0
  189.2220  173.2410  141.3860 C   0  0  1  0  0  3  0  0  0  0  0  0
  187.8970  172.9410  141.7120 O   0  0  0  0  0  1  0  0  0  0  0  0
  189.5740  174.6520  141.8400 C   0  0  0  0  0  2  0  0  0  0  0  0
  188.5840  175.1770  142.8680 C   0  0  0  0  0  2  0  0  0  0  0  0
  188.3290  176.5410  142.6280 O   0  0  0  0  0  0  0  0  0  0  0  0
  186.3790  177.3770  141.4770 C   0  0  0  0  0  1  0  0  0  0  0  0
  186.2950  175.5980  143.0220 O   0  0  0  0  0  1  0  0  0  0  0  0
  186.9460  176.8100  142.7840 C   0  0  1  0  0  0  0  0  0  0  0  0
  186.6710  177.7690  143.9880 C   0  0  1  0  0  3  0  0  0  0  0  0
  185.6430  178.8580  143.6420 C   0  0  0  0  0  2  0  0  0  0  0  0
  185.9560  180.0590  144.2800 O   0  0  0  0  0  1  0  0  0  0  0  0
  186.2860  177.0520  145.3090 C   0  0  2  0  0  3  0  0  0  0  0  0
  184.6510  178.0980  146.6820 O   0  0  0  0  0  0  0  0  0  0  0  0
  184.8740  177.3690  145.7280 C   0  0  0  0  0  3  0  0  0  0  0  0
  186.8230  176.8000  147.6780 O   0  0  0  0  0  1  0  0  0  0  0  0
  187.2950  177.2800  146.4520 C   0  0  1  0  0  3  0  0  0  0  0  0
  188.7110  176.7610  146.1570 C   0  0  2  0  0  3  0  0  0  0  0  0
  191.1930  174.9190  147.9890 O   0  0  0  0  0  1  0  0  0  0  0  0
  189.1720  175.8820  147.2320 N   0  0  0  0  0  0  0  0  0  0  0  0
  190.4710  174.4370  145.8520 O   0  0  0  0  0  0  0  0  0  0  0  0
  189.3490  174.5300  146.6830 C   0  0  1  0  0  3  0  0  0  0  0  0
  190.5080  175.3930  146.8720 C   0  0  1  0  0  0  0  0  0  0  0  0
  190.2940  177.8260  144.6990 O   0  0  0  0  0  1  0  0  0  0  0  0
  189.6940  177.9100  145.9570 C   0  0  0  0  0  2  0  0  0  0  0  0
  193.5090  172.4720  141.8380 N   0  0  0  0  0  2  0  0  0  0  0  0
  193.5850  173.4340  142.9420 C   0  0  0  0  0  0  0  0  0  0  0  0
  193.0200  172.8700  144.0900 O   0  0  0  0  0  1  0  0  0  0  0  0
  192.8890  174.6050  142.6120 O   0  0  0  0  0  1  0  0  0  0  0  0
  195.0640  173.7600  143.2190 C   0  0  1  0  0  3  0  0  0  0  0  0
  195.1930  173.9790  145.5580 O   0  0  0  0  0  0  0  0  0  0  0  0
  195.2840  174.5480  144.4830 C   0  0  0  0  0  0  0  0  0  0  0  0
  195.5500  176.4840  143.1150 O   0  0  0  0  0  1  0  0  0  0  0  0
  195.5900  176.0180  144.4310 C   0  0  1  0  0  3  0  0  0  0  0  0
  194.6550  176.8320  145.3200 C   0  0  0  0  0  2  0  0  0  0  0  0
  193.4470  177.0920  144.6660 O   0  0  0  0  0  1  0  0  0  0  0  0
  196.9010  172.5470  142.3050 O   0  0  0  0  0  0  0  0  0  0  0  0
  195.9680  172.5650  143.1520 C   0  0  0  0  0  0  0  0  0  0  0  0
  195.8020  171.5080  144.0500 O   0  0  0  0  0  0  0  0  0  0  0  0
  196.3800  170.3230  146.0630 C   0  0  1  0  0  3  0  0  0  0  0  0
  196.8750  171.0230  144.8470 C   0  0  1  0  0  3  0  0  0  0  0  0
  194.9990  170.2910  146.1250 F   0  0  0  0  0  0  0  0  0  0  0  0
  196.8050  169.6190  144.9210 O   0  0  0  0  0  0  0  0  0  0  0  0
  1  5  1  0  0  0  0
  1  4  1  0  0  0  0
  2  6  1  0  0  0  0
  2 33  1  1  0  0  0
  3  2  1  0  0  0  0
  4  6  1  0  0  0  0
  5  3  1  0  0  0  0
  6  8  1  1  0  0  0
  7  5  1  0  0  0  0
  9 10  1  1  0  0  0
  9 11  1  0  0  0  0
  9  8  1  0  0  0  0
 11 12  1  0  0  0  0
 13 16  1  0  0  0  0
 13 12  1  0  0  0  0
 16 14  1  6  0  0  0
 16 15  1  0  0  0  0
 16 17  1  0  0  0  0
 17 18  1  6  0  0  0
 17 20  1  0  0  0  0
 18 19  1  0  0  0  0
 20 22  1  1  0  0  0
 20 24  1  0  0  0  0
 22 21  2  0  0  0  0
 24 23  1  1  0  0  0
 25 32  1  1  0  0  0
 25 24  1  0  0  0  0
 25 27  1  0  0  0  0
 28 30  1  0  0  0  0
 29 28  1  6  0  0  0
 29 30  1  0  0  0  0
 29 27  1  0  0  0  0
 30 27  1  0  0  0  0
 30 26  1  1  0  0  0
 31 32  1  0  0  0  0
 33 34  1  0  0  0  0
 34 37  1  0  0  0  0
 34 35  1  0  0  0  0
 36 34  1  0  0  0  0
 37 45  1  1  0  0  0
 37 39  1  0  0  0  0
 39 38  2  0  0  0  0
 41 40  1  6  0  0  0
 41 39  1  0  0  0  0
 41 42  1  0  0  0  0
 43 42  1  0  0  0  0
 44 45  2  0  0  0  0
 45 46  1  0  0  0  0
 47 49  1  6  0  0  0
 48 46  1  6  0  0  0
 48 50  1  0  0  0  0
 48 47  1  0  0  0  0
 50 47  1  0  0  0  0
M  END
>  <MODEL>
7

>  <REMARK>
 VINA RESULT:      -4.6      2.786      8.556
  Name = 
  23 active torsions:
  status: ('A' for Active; 'I' for Inactive)
    1  A    between atoms: N_1  and  C_17
    2  A    between atoms: N_1  and  C_37
    3  A    between atoms: C_2  and  C_37
    4  A    between atoms: C_2  and  C_39
    5  A    between atoms: C_2  and  C_45
    6  A    between atoms: C_4  and  N_8
    7  A    between atoms: C_4  and  C_15
    8  A    between atoms: C_4  and  C_50
    9  A    between atoms: C_9  and  C_33
   10  A    between atoms: C_10  and  C_22
   11  A    between atoms: C_10  and  C_39
   12  A    between atoms: C_11  and  C_20
   13  A    between atoms: C_11  and  C_47
   14  A    between atoms: C_12  and  C_15
   15  A    between atoms: C_12  and  C_33
   16  A    between atoms: C_12  and  C_40
   17  A    between atoms: C_18  and  O_25
   18  A    between atoms: C_20  and  C_21
   19  A    between atoms: C_21  and  O_27
   20  A    between atoms: O_25  and  C_45
   21  A    between atoms: O_27  and  C_38
   22  A    between atoms: C_33  and  C_38
   23  A    between atoms: C_36  and  C_47
                            x       y       z     vdW  Elec       q    Type
                         _______ _______ _______ _____ _____    ______ ____

>  <TORSDO>
F 23

$$$$
=
 OpenBabel11062420533D

 50 53  0  0  1  0  0  0  0  0999 V2000
  194.7360  175.6690  146.2640 C   0  0  0  0  0  2  0  0  0  0  0  0
  192.3890  175.9550  144.6370 C   0  0  1  0  0  3  0  0  0  0  0  0
  193.5440  176.7700  144.6360 O   0  0  0  0  0  0  0  0  0  0  0  0
  194.0680  174.4020  145.7200 C   0  0  0  0  0  2  0  0  0  0  0  0
  193.9660  176.8700  145.9300 N   0  0  0  0  0  0  0  0  0  0  0  0
  192.5900  174.6490  145.4260 C   0  0  2  0  0  3  0  0  0  0  0  0
  194.8260  177.9110  145.9820 O   0  0  0  0  0  1  0  0  0  0  0  0
  191.9310  173.4500  144.7390 C   0  0  0  0  0  2  0  0  0  0  0  0
  192.9320  172.5090  144.0670 C   0  0  1  0  0  3  0  0  0  0  0  0
  192.4970  171.1830  144.1360 O   0  0  0  0  0  1  0  0  0  0  0  0
  193.1770  172.9120  142.6180 C   0  0  0  0  0  2  0  0  0  0  0  0
  191.8790  173.2500  141.9010 C   0  0  0  0  0  2  0  0  0  0  0  0
  191.7550  172.4540  140.7460 O   0  0  0  0  0  0  0  0  0  0  0  0
  190.8270  170.2280  140.6450 C   0  0  0  0  0  1  0  0  0  0  0  0
  189.9650  171.9170  142.0460 O   0  0  0  0  0  1  0  0  0  0  0  0
  190.5390  171.7280  140.7860 C   0  0  1  0  0  0  0  0  0  0  0  0
  189.5290  172.2200  139.6980 C   0  0  1  0  0  3  0  0  0  0  0  0
  188.5890  173.3140  140.2280 C   0  0  0  0  0  2  0  0  0  0  0  0
  187.5640  172.7590  140.9970 O   0  0  0  0  0  1  0  0  0  0  0  0
  190.1850  172.6610  138.3630 C   0  0  2  0  0  3  0  0  0  0  0  0
  189.9350  174.4660  136.8360 O   0  0  0  0  0  0  0  0  0  0  0  0
  189.4210  173.7810  137.7070 C   0  0  0  0  0  3  0  0  0  0  0  0
  189.4610  171.3870  136.4090 O   0  0  0  0  0  1  0  0  0  0  0  0
  190.4520  171.4930  137.3900 C   0  0  1  0  0  3  0  0  0  0  0  0
  191.8570  171.4980  136.7700 C   0  0  2  0  0  3  0  0  0  0  0  0
  194.7530  173.5990  137.0960 O   0  0  0  0  0  1  0  0  0  0  0  0
  192.7270  172.4410  137.4710 N   0  0  0  0  0  0  0  0  0  0  0  0
  194.7690  171.2940  137.0330 O   0  0  0  0  0  0  0  0  0  0  0  0
  193.8680  171.6980  138.0240 C   0  0  1  0  0  3  0  0  0  0  0  0
  194.0250  172.4520  136.7870 C   0  0  1  0  0  0  0  0  0  0  0  0
  192.0770  170.6960  134.5160 O   0  0  0  0  0  1  0  0  0  0  0  0
  191.8070  171.8320  135.2820 C   0  0  0  0  0  2  0  0  0  0  0  0
  191.2410  176.6920  145.1610 N   0  0  0  0  0  2  0  0  0  0  0  0
  190.4380  177.2420  144.0650 C   0  0  0  0  0  0  0  0  0  0  0  0
  190.8380  176.6580  142.8580 O   0  0  0  0  0  1  0  0  0  0  0  0
  190.6110  178.6300  143.9860 O   0  0  0  0  0  1  0  0  0  0  0  0
  188.9560  176.9080  144.3160 C   0  0  1  0  0  3  0  0  0  0  0  0
  188.8540  174.7470  143.3900 O   0  0  0  0  0  0  0  0  0  0  0  0
  188.3990  175.8780  143.3690 C   0  0  0  0  0  0  0  0  0  0  0  0
  186.0820  176.3490  143.0480 O   0  0  0  0  0  1  0  0  0  0  0  0
  187.3120  176.2350  142.3950 C   0  0  1  0  0  3  0  0  0  0  0  0
  187.6300  177.5090  141.6190 C   0  0  0  0  0  2  0  0  0  0  0  0
  186.8150  178.5640  142.0390 O   0  0  0  0  0  1  0  0  0  0  0  0
  189.0120  175.4500  146.2010 O   0  0  0  0  0  0  0  0  0  0  0  0
  188.6470  176.5670  145.7430 C   0  0  0  0  0  0  0  0  0  0  0  0
  188.0020  177.4960  146.5630 O   0  0  0  0  0  0  0  0  0  0  0  0
  185.6860  177.3090  147.1870 C   0  0  1  0  0  3  0  0  0  0  0  0
  186.6830  177.9520  146.2900 C   0  0  1  0  0  3  0  0  0  0  0  0
  186.2730  176.4360  148.0860 F   0  0  0  0  0  0  0  0  0  0  0  0
  186.1720  178.6080  147.4260 O   0  0  0  0  0  0  0  0  0  0  0  0
  2 33  1  1  0  0  0
  2  6  1  0  0  0  0
  3  2  1  0  0  0  0
  3  5  1  0  0  0  0
  4  1  1  0  0  0  0
  5  7  1  0  0  0  0
  5  1  1  0  0  0  0
  6  8  1  6  0  0  0
  6  4  1  0  0  0  0
  9 10  1  6  0  0  0
  9  8  1  0  0  0  0
 11  9  1  0  0  0  0
 12 11  1  0  0  0  0
 13 16  1  0  0  0  0
 13 12  1  0  0  0  0
 16 14  1  6  0  0  0
 16 15  1  0  0  0  0
 17 18  1  1  0  0  0
 17 16  1  0  0  0  0
 18 19  1  0  0  0  0
 20 22  1  6  0  0  0
 20 17  1  0  0  0  0
 21 22  2  0  0  0  0
 24 23  1  6  0  0  0
 24 20  1  0  0  0  0
 25 32  1  6  0  0  0
 25 24  1  0  0  0  0
 25 27  1  0  0  0  0
 27 29  1  0  0  0  0
 29 28  1  6  0  0  0
 30 28  1  0  0  0  0
 30 26  1  1  0  0  0
 30 27  1  0  0  0  0
 30 29  1  0  0  0  0
 31 32  1  0  0  0  0
 34 37  1  0  0  0  0
 34 33  1  0  0  0  0
 35 34  1  0  0  0  0
 36 34  1  0  0  0  0
 37 39  1  6  0  0  0
 37 45  1  0  0  0  0
 39 38  2  0  0  0  0
 41 40  1  1  0  0  0
 41 39  1  0  0  0  0
 42 43  1  0  0  0  0
 42 41  1  0  0  0  0
 45 44  2  0  0  0  0
 45 46  1  0  0  0  0
 47 50  1  0  0  0  0
 47 49  1  1  0  0  0
 48 46  1  1  0  0  0
 48 47  1  0  0  0  0
 48 50  1  0  0  0  0
M  END
>  <MODEL>
8

>  <REMARK>
 VINA RESULT:      -4.6      1.731      3.687
  Name = 
  23 active torsions:
  status: ('A' for Active; 'I' for Inactive)
    1  A    between atoms: N_1  and  C_17
    2  A    between atoms: N_1  and  C_37
    3  A    between atoms: C_2  and  C_37
    4  A    between atoms: C_2  and  C_39
    5  A    between atoms: C_2  and  C_45
    6  A    between atoms: C_4  and  N_8
    7  A    between atoms: C_4  and  C_15
    8  A    between atoms: C_4  and  C_50
    9  A    between atoms: C_9  and  C_33
   10  A    between atoms: C_10  and  C_22
   11  A    between atoms: C_10  and  C_39
   12  A    between atoms: C_11  and  C_20
   13  A    between atoms: C_11  and  C_47
   14  A    between atoms: C_12  and  C_15
   15  A    between atoms: C_12  and  C_33
   16  A    between atoms: C_12  and  C_40
   17  A    between atoms: C_18  and  O_25
   18  A    between atoms: C_20  and  C_21
   19  A    between atoms: C_21  and  O_27
   20  A    between atoms: O_25  and  C_45
   21  A    between atoms: O_27  and  C_38
   22  A    between atoms: C_33  and  C_38
   23  A    between atoms: C_36  and  C_47
                            x       y       z     vdW  Elec       q    Type
                         _______ _______ _______ _____ _____    ______ ____

>  <TORSDO>
F 23

$$$$
=
 OpenBabel11062420533D

 50 53  0  0  1  0  0  0  0  0999 V2000
  185.8950  178.6580  146.3530 C   0  0  0  0  0  2  0  0  0  0  0  0
  187.8400  176.6510  145.6970 C   0  0  1  0  0  3  0  0  0  0  0  0
  186.7720  176.5500  146.6190 O   0  0  0  0  0  0  0  0  0  0  0  0
  186.3360  178.5210  144.8920 C   0  0  0  0  0  2  0  0  0  0  0  0
  186.6540  177.7640  147.2310 N   0  0  0  0  0  0  0  0  0  0  0  0
  187.7270  177.8960  144.8000 C   0  0  2  0  0  3  0  0  0  0  0  0
  185.9010  177.5730  148.3380 O   0  0  0  0  0  1  0  0  0  0  0  0
  188.1330  177.6050  143.3530 C   0  0  0  0  0  2  0  0  0  0  0  0
  187.8480  176.1660  142.9200 C   0  0  1  0  0  3  0  0  0  0  0  0
  186.5370  176.0320  142.4550 O   0  0  0  0  0  1  0  0  0  0  0  0
  188.8370  175.7080  141.8550 C   0  0  0  0  0  2  0  0  0  0  0  0
  189.5700  174.4420  142.2720 C   0  0  0  0  0  2  0  0  0  0  0  0
  190.5120  174.0920  141.2860 O   0  0  0  0  0  0  0  0  0  0  0  0
  190.7030  171.6880  141.3970 C   0  0  0  0  0  1  0  0  0  0  0  0
  188.7280  172.7910  140.7310 O   0  0  0  0  0  1  0  0  0  0  0  0
  190.1190  172.8910  140.6450 C   0  0  1  0  0  0  0  0  0  0  0  0
  190.5280  172.8740  139.1370 C   0  0  1  0  0  3  0  0  0  0  0  0
  189.4920  173.5760  138.2440 C   0  0  0  0  0  2  0  0  0  0  0  0
  188.5380  172.6680  137.7810 O   0  0  0  0  0  1  0  0  0  0  0  0
  191.9540  173.4140  138.8490 C   0  0  2  0  0  3  0  0  0  0  0  0
  192.5200  174.9510  137.1270 O   0  0  0  0  0  0  0  0  0  0  0  0
  192.1150  173.8350  137.4120 C   0  0  0  0  0  3  0  0  0  0  0  0
  193.4350  171.5490  138.3050 O   0  0  0  0  0  1  0  0  0  0  0  0
  193.0790  172.4610  139.3040 C   0  0  1  0  0  3  0  0  0  0  0  0
  194.3130  173.1710  139.8800 C   0  0  2  0  0  3  0  0  0  0  0  0
  196.5390  172.5280  142.6260 O   0  0  0  0  0  1  0  0  0  0  0  0
  194.9960  172.3140  140.8490 N   0  0  0  0  0  0  0  0  0  0  0  0
  197.1730  173.2230  140.5200 O   0  0  0  0  0  0  0  0  0  0  0  0
  196.3700  172.0850  140.3820 C   0  0  1  0  0  3  0  0  0  0  0  0
  196.1120  173.0770  141.4190 C   0  0  1  0  0  0  0  0  0  0  0  0
  194.5170  175.5630  139.8230 O   0  0  0  0  0  1  0  0  0  0  0  0
  193.9400  174.5020  140.5240 C   0  0  0  0  0  2  0  0  0  0  0  0
  189.1230  176.6450  146.3960 N   0  0  0  0  0  2  0  0  0  0  0  0
  189.7360  175.3140  146.3340 C   0  0  0  0  0  0  0  0  0  0  0  0
  188.8580  174.4270  145.7030 O   0  0  0  0  0  1  0  0  0  0  0  0
  190.0160  174.8490  147.6250 O   0  0  0  0  0  1  0  0  0  0  0  0
  191.0350  175.4020  145.5120 C   0  0  1  0  0  3  0  0  0  0  0  0
  192.2850  176.6140  147.0960 O   0  0  0  0  0  0  0  0  0  0  0  0
  191.9400  176.5310  145.9290 C   0  0  0  0  0  0  0  0  0  0  0  0
  193.7800  177.4690  144.7340 O   0  0  0  0  0  1  0  0  0  0  0  0
  192.4000  177.5580  144.9330 C   0  0  1  0  0  3  0  0  0  0  0  0
  191.6560  177.4460  143.6060 C   0  0  0  0  0  2  0  0  0  0  0  0
  192.4140  176.7400  142.6670 O   0  0  0  0  0  1  0  0  0  0  0  0
  191.2220  173.1090  144.8900 O   0  0  0  0  0  0  0  0  0  0  0  0
  191.7820  174.1050  145.4220 C   0  0  0  0  0  0  0  0  0  0  0  0
  193.0980  174.0180  145.8840 O   0  0  0  0  0  0  0  0  0  0  0  0
  195.4120  174.4620  145.3940 C   0  0  1  0  0  3  0  0  0  0  0  0
  194.1820  173.7170  145.0130 C   0  0  1  0  0  3  0  0  0  0  0  0
  195.2210  175.2560  146.5110 F   0  0  0  0  0  0  0  0  0  0  0  0
  195.2190  173.1140  145.7500 O   0  0  0  0  0  0  0  0  0  0  0  0
  1  5  1  0  0  0  0
  2 33  1  1  0  0  0
  2  3  1  0  0  0  0
  3  5  1  0  0  0  0
  4  1  1  0  0  0  0
  5  7  1  0  0  0  0
  6  8  1  6  0  0  0
  6  4  1  0  0  0  0
  6  2  1  0  0  0  0
  9 10  1  6  0  0  0
  9  8  1  0  0  0  0
 11 12  1  0  0  0  0
 11  9  1  0  0  0  0
 13 12  1  0  0  0  0
 16 15  1  0  0  0  0
 16 13  1  0  0  0  0
 16 14  1  1  0  0  0
 17 18  1  6  0  0  0
 17 16  1  0  0  0  0
 19 18  1  0  0  0  0
 20 22  1  6  0  0  0
 20 17  1  0  0  0  0
 20 24  1  0  0  0  0
 21 22  2  0  0  0  0
 24 23  1  6  0  0  0
 24 25  1  0  0  0  0
 25 32  1  1  0  0  0
 25 27  1  0  0  0  0
 27 30  1  0  0  0  0
 28 30  1  0  0  0  0
 29 28  1  6  0  0  0
 29 27  1  0  0  0  0
 29 30  1  0  0  0  0
 30 26  1  1  0  0  0
 31 32  1  0  0  0  0
 34 33  1  0  0  0  0
 34 36  1  0  0  0  0
 35 34  1  0  0  0  0
 37 45  1  1  0  0  0
 37 39  1  0  0  0  0
 37 34  1  0  0  0  0
 39 38  2  0  0  0  0
 41 40  1  6  0  0  0
 41 39  1  0  0  0  0
 42 41  1  0  0  0  0
 43 42  1  0  0  0  0
 44 45  2  0  0  0  0
 45 46  1  0  0  0  0
 47 50  1  0  0  0  0
 47 49  1  1  0  0  0
 48 47  1  0  0  0  0
 48 50  1  0  0  0  0
 48 46  1  1  0  0  0
M  END
>  <MODEL>
9

>  <REMARK>
 VINA RESULT:      -4.6      2.460      6.252
  Name = 
  23 active torsions:
  status: ('A' for Active; 'I' for Inactive)
    1  A    between atoms: N_1  and  C_17
    2  A    between atoms: N_1  and  C_37
    3  A    between atoms: C_2  and  C_37
    4  A    between atoms: C_2  and  C_39
    5  A    between atoms: C_2  and  C_45
    6  A    between atoms: C_4  and  N_8
    7  A    between atoms: C_4  and  C_15
    8  A    between atoms: C_4  and  C_50
    9  A    between atoms: C_9  and  C_33
   10  A    between atoms: C_10  and  C_22
   11  A    between atoms: C_10  and  C_39
   12  A    between atoms: C_11  and  C_20
   13  A    between atoms: C_11  and  C_47
   14  A    between atoms: C_12  and  C_15
   15  A    between atoms: C_12  and  C_33
   16  A    between atoms: C_12  and  C_40
   17  A    between atoms: C_18  and  O_25
   18  A    between atoms: C_20  and  C_21
   19  A    between atoms: C_21  and  O_27
   20  A    between atoms: O_25  and  C_45
   21  A    between atoms: O_27  and  C_38
   22  A    between atoms: C_33  and  C_38
   23  A    between atoms: C_36  and  C_47
                            x       y       z     vdW  Elec       q    Type
                         _______ _______ _______ _____ _____    ______ ____

>  <TORSDO>
F 23

$$$$
