=
 OpenBabel11072409353D

 63 70  0  0  1  0  0  0  0  0999 V2000
  187.4030  176.7420  139.3880 N   0  0  0  0  0  0  0  0  0  0  0  0
  188.3460  173.0400  141.6640 C   0  0  2  0  0  3  0  0  0  0  0  0
  186.9370  177.7540  144.0300 C   0  0  0  0  0  0  0  0  0  0  0  0
  188.9110  173.4140  140.3250 C   0  0  0  0  0  3  0  0  0  0  0  0
  187.6540  175.3100  137.4510 C   0  0  0  0  0  2  0  0  0  0  0  0
  187.0020  175.0910  141.6650 N   0  0  0  0  0  2  0  0  0  0  0  0
  188.0820  173.7410  139.3420 C   0  0  0  0  0  3  0  0  0  0  0  0
  188.5180  174.3090  138.0950 N   0  0  0  0  0  0  0  0  0  0  0  0
  189.7680  173.9380  137.4790 C   0  0  0  0  0  0  0  0  0  0  0  0
  186.9380  177.1370  142.8740 C   0  0  0  0  0  0  0  0  0  0  0  0
  187.9450  174.3000  142.4450 C   0  0  0  0  0  2  0  0  0  0  0  0
  186.6360  177.2960  140.4740 C   0  0  0  0  0  2  0  0  0  0  0  0
  186.9170  176.5190  141.7250 C   0  0  0  0  0  0  0  0  0  0  0  0
  190.4600  172.9950  137.9510 O   0  0  0  0  0  0  0  0  0  0  0  0
  186.8280  176.0620  138.4630 C   0  0  0  0  0  3  0  0  0  0  0  0
  189.3740  177.1850  144.2620 C   0  0  1  0  0  3  0  0  0  0  0  0
  188.0820  177.5880  144.9860 C   0  0  2  0  0  3  0  0  0  0  0  0
  187.7380  176.6210  146.1260 C   0  0  0  0  0  2  0  0  0  0  0  0
  190.3950  178.2220  144.4790 N   0  0  0  0  0  2  0  0  0  0  0  0
  188.9330  176.3340  147.0440 C   0  0  0  0  0  2  0  0  0  0  0  0
  190.1800  177.1290  146.6590 C   0  0  2  0  0  3  0  0  0  0  0  0
  190.5120  176.9340  145.1760 C   0  0  1  0  0  3  0  0  0  0  0  0
  191.5670  176.6620  147.6770 S   0  0  0  0  0  0  0  0  0  0  0  0
  191.3350  175.2910  148.2450 O   0  0  0  0  0  0  0  0  0  0  0  0
  191.7190  177.6440  148.8020 O   0  0  0  0  0  0  0  0  0  0  0  0
  193.0600  176.6570  146.7180 C   0  0  0  0  0  1  0  0  0  0  0  0
  184.7140  177.7700  144.8050 F   0  0  0  0  0  0  0  0  0  0  0  0
  185.3740  179.3950  143.3910 F   0  0  0  0  0  0  0  0  0  0  0  0
  185.7650  178.5950  144.4500 C   0  0  0  0  0  0  0  0  0  0  0  0
  186.0800  179.4070  145.5270 F   0  0  0  0  0  0  0  0  0  0  0  0
  190.6960  172.5960  142.5470 N   0  0  0  0  0  0  0  0  0  0  0  0
  189.3170  172.2060  142.4530 C   0  0  0  0  0  0  0  0  0  0  0  0
  188.9210  171.1730  143.0550 O   0  0  0  0  0  0  0  0  0  0  0  0
  191.2120  173.4990  141.6730 O   0  0  0  0  0  0  0  0  0  0  0  0
  191.6540  174.5710  142.4550 C   0  0  0  0  0  1  0  0  0  0  0  0
  191.4300  172.3050  143.7730 C   0  0  0  0  0  2  0  0  0  0  0  0
  192.3090  171.0540  143.6360 C   0  0  0  0  0  2  0  0  0  0  0  0
  193.7520  171.3030  143.7450 N   0  0  0  0  0  0  0  0  0  0  0  0
  197.6410  171.9670  144.9690 O   0  0  0  0  0  1  0  0  0  0  0  0
  194.3440  170.3000  144.6270 C   0  0  0  0  0  2  0  0  0  0  0  0
  195.8600  170.4340  144.5930 C   0  0  0  0  0  2  0  0  0  0  0  0
  195.5270  172.9280  144.3450 C   0  0  1  0  0  3  0  0  0  0  0  0
  196.2620  171.8100  145.1050 C   0  0  2  0  0  3  0  0  0  0  0  0
  194.0190  172.6470  144.2700 C   0  0  0  0  0  2  0  0  0  0  0  0
  196.3100  174.1320  146.2730 O   0  0  0  0  0  1  0  0  0  0  0  0
  195.8000  174.2990  144.9810 C   0  0  1  0  0  3  0  0  0  0  0  0
  196.1000  176.4290  143.6750 C   0  0  1  0  0  3  0  0  0  0  0  0
  196.2090  175.2710  142.7250 C   0  0  2  0  0  3  0  0  0  0  0  0
  196.7590  175.1400  144.1340 C   0  0  2  0  0  3  0  0  0  0  0  0
  196.5040  176.6740  142.2300 C   0  0  0  0  0  2  0  0  0  0  0  0
  190.2690  174.6440  136.2610 C   0  0  0  0  0  2  0  0  0  0  0  0
  191.2740  173.8390  135.5880 N   0  0  0  0  0  2  0  0  0  0  0  0
  192.5300  174.5690  135.6630 C   0  0  0  0  0  2  0  0  0  0  0  0
  193.4220  173.9310  136.6740 C   0  0  0  0  0  0  0  0  0  0  0  0
  193.6710  172.7370  136.5960 O   0  0  0  0  0  0  0  0  0  0  0  0
  194.0040  174.7620  137.7830 C   0  0  2  0  0  3  0  0  0  0  0  0
  194.7970  173.5680  139.7560 C   0  0  0  0  0  2  0  0  0  0  0  0
  196.1580  175.4230  138.9050 N   0  0  0  0  0  2  0  0  0  0  0  0
  195.5260  174.7050  137.7910 C   0  0  1  0  0  0  0  0  0  0  0  0
  196.0160  173.9510  138.9280 C   0  0  2  0  0  3  0  0  0  0  0  0
  193.5650  174.2050  139.1260 C   0  0  0  0  0  2  0  0  0  0  0  0
  197.2760  175.7540  136.5570 O   0  0  0  0  0  1  0  0  0  0  0  0
  196.3750  174.6890  136.5310 C   0  0  0  0  0  2  0  0  0  0  0  0
  1 12  1  0  0  0  0
  2 11  1  0  0  0  0
  2 32  1  1  0  0  0
  3 29  1  0  0  0  0
  4  2  1  0  0  0  0
  5  8  1  0  0  0  0
  5 15  1  0  0  0  0
  6 13  1  0  0  0  0
  6 11  1  0  0  0  0
  7  4  2  0  0  0  0
  8  7  1  0  0  0  0
  9 14  2  0  0  0  0
  9  8  1  0  0  0  0
 10  3  2  0  0  0  0
 12 13  1  0  0  0  0
 13 10  2  0  0  0  0
 15  1  2  0  0  0  0
 16 19  1  6  0  0  0
 16 17  1  0  0  0  0
 16 22  1  0  0  0  0
 17  3  1  6  0  0  0
 17 18  1  0  0  0  0
 18 20  1  0  0  0  0
 21 20  1  0  0  0  0
 21 23  1  1  0  0  0
 22 19  1  6  0  0  0
 22 21  1  0  0  0  0
 23 24  2  0  0  0  0
 23 25  2  0  0  0  0
 26 23  1  0  0  0  0
 28 29  1  0  0  0  0
 29 27  1  0  0  0  0
 29 30  1  0  0  0  0
 31 36  1  0  0  0  0
 32 31  1  0  0  0  0
 32 33  2  0  0  0  0
 34 35  1  0  0  0  0
 34 31  1  0  0  0  0
 37 38  1  0  0  0  0
 37 36  1  0  0  0  0
 38 44  1  0  0  0  0
 38 40  1  0  0  0  0
 41 40  1  0  0  0  0
 41 43  1  0  0  0  0
 42 46  1  1  0  0  0
 42 43  1  0  0  0  0
 43 39  1  6  0  0  0
 44 42  1  0  0  0  0
 46 45  1  1  0  0  0
 47 50  1  6  0  0  0
 47 49  1  0  0  0  0
 48 50  1  6  0  0  0
 48 47  1  0  0  0  0
 48 49  1  0  0  0  0
 49 46  1  1  0  0  0
 51  9  1  0  0  0  0
 52 53  1  0  0  0  0
 52 51  1  0  0  0  0
 53 54  1  0  0  0  0
 55 54  2  0  0  0  0
 56 54  1  6  0  0  0
 56 59  1  0  0  0  0
 56 61  1  0  0  0  0
 58 60  1  0  0  0  0
 59 63  1  6  0  0  0
 59 58  1  0  0  0  0
 59 60  1  0  0  0  0
 60 57  1  1  0  0  0
 61 57  1  0  0  0  0
 63 62  1  0  0  0  0
M  END
>  <MODEL>
1

>  <REMARK>
 VINA RESULT:      -7.1      0.000      0.000
  Name = 
  16 active torsions:
  status: ('A' for Active; 'I' for Inactive)
    1  A    between atoms: C_1  and  N_25
    2  A    between atoms: C_1  and  C_41
    3  A    between atoms: S_2  and  C_50
    4  A    between atoms: O_3  and  N_19
    5  A    between atoms: C_6  and  C_11
    6  A    between atoms: C_7  and  C_23
    7  A    between atoms: C_9  and  C_21
    8  A    between atoms: C_9  and  C_24
    9  A    between atoms: C_10  and  C_11
   10  A    between atoms: C_10  and  N_25
   11  A    between atoms: N_13  and  C_47
   12  A    between atoms: N_19  and  C_54
   13  A    between atoms: C_32  and  C_40
   14  A    between atoms: C_32  and  C_45
   15  A    between atoms: C_43  and  C_57
   16  A    between atoms: C_47  and  C_54
                            x       y       z     vdW  Elec       q    Type
                         _______ _______ _______ _____ _____    ______ ____

>  <TORSDO>
F 16

$$$$
=
 OpenBabel11072409353D

 63 70  0  0  1  0  0  0  0  0999 V2000
  192.3190  176.7470  146.3130 N   0  0  0  0  0  0  0  0  0  0  0  0
  190.6040  173.0070  144.6240 C   0  0  2  0  0  3  0  0  0  0  0  0
  195.5840  174.8690  143.3800 C   0  0  0  0  0  0  0  0  0  0  0  0
  189.8220  174.2120  145.0620 C   0  0  0  0  0  3  0  0  0  0  0  0
  190.2930  176.7760  147.6390 C   0  0  0  0  0  2  0  0  0  0  0  0
  192.6830  174.1160  145.3060 N   0  0  0  0  0  2  0  0  0  0  0  0
  190.0190  174.7030  146.2790 C   0  0  0  0  0  3  0  0  0  0  0  0
  189.4810  175.9610  146.7210 N   0  0  0  0  0  0  0  0  0  0  0  0
  188.1950  176.4410  146.2820 C   0  0  0  0  0  0  0  0  0  0  0  0
  194.6120  175.0160  144.2470 C   0  0  0  0  0  0  0  0  0  0  0  0
  192.0250  173.4170  144.2090 C   0  0  0  0  0  2  0  0  0  0  0  0
  193.6720  176.3230  146.0580 C   0  0  0  0  0  2  0  0  0  0  0  0
  193.6550  175.1510  145.1240 C   0  0  0  0  0  0  0  0  0  0  0  0
  187.4350  175.7040  145.5970 O   0  0  0  0  0  0  0  0  0  0  0  0
  191.7660  176.5220  147.4490 C   0  0  0  0  0  3  0  0  0  0  0  0
  195.8150  175.7620  141.0420 C   0  0  1  0  0  3  0  0  0  0  0  0
  195.2860  174.6260  141.9300 C   0  0  2  0  0  3  0  0  0  0  0  0
  193.7960  174.3580  141.6900 C   0  0  0  0  0  2  0  0  0  0  0  0
  196.8060  175.2190  140.1000 N   0  0  0  0  0  2  0  0  0  0  0  0
  193.4440  174.2350  140.2020 C   0  0  0  0  0  2  0  0  0  0  0  0
  194.6690  174.3370  139.2940 C   0  0  2  0  0  3  0  0  0  0  0  0
  195.4740  175.6020  139.6100 C   0  0  1  0  0  3  0  0  0  0  0  0
  194.1870  174.3140  137.5780 S   0  0  0  0  0  0  0  0  0  0  0  0
  194.7360  173.0810  136.9180 O   0  0  0  0  0  0  0  0  0  0  0  0
  194.7320  175.5300  136.8860 O   0  0  0  0  0  0  0  0  0  0  0  0
  192.4190  174.3210  137.4350 C   0  0  0  0  0  1  0  0  0  0  0  0
  197.7360  173.9560  143.0920 F   0  0  0  0  0  0  0  0  0  0  0  0
  197.0820  174.5420  145.1670 F   0  0  0  0  0  0  0  0  0  0  0  0
  197.0180  174.8820  143.8280 C   0  0  0  0  0  0  0  0  0  0  0  0
  197.5940  176.1300  143.6580 F   0  0  0  0  0  0  0  0  0  0  0  0
  190.0200  172.7520  142.1560 N   0  0  0  0  0  0  0  0  0  0  0  0
  189.9070  172.2810  143.5070 C   0  0  0  0  0  0  0  0  0  0  0  0
  189.2410  171.2400  143.7490 O   0  0  0  0  0  0  0  0  0  0  0  0
  190.4520  174.0160  141.9060 O   0  0  0  0  0  0  0  0  0  0  0  0
  189.3430  174.7000  141.3970 C   0  0  0  0  0  1  0  0  0  0  0  0
  190.0180  171.7820  141.0660 C   0  0  0  0  0  2  0  0  0  0  0  0
  190.7650  170.4940  141.4380 C   0  0  0  0  0  2  0  0  0  0  0  0
  192.0790  170.3420  140.7990 N   0  0  0  0  0  0  0  0  0  0  0  0
  195.8400  169.1650  139.5610 O   0  0  0  0  0  1  0  0  0  0  0  0
  192.2080  168.9760  140.2950 C   0  0  0  0  0  2  0  0  0  0  0  0
  193.4810  168.8650  139.4680 C   0  0  0  0  0  2  0  0  0  0  0  0
  194.5390  170.5110  141.0700 C   0  0  1  0  0  3  0  0  0  0  0  0
  194.6880  169.1610  140.3470 C   0  0  2  0  0  3  0  0  0  0  0  0
  193.1640  170.6280  141.7450 C   0  0  0  0  0  2  0  0  0  0  0  0
  196.6430  171.5710  141.5500 O   0  0  0  0  0  1  0  0  0  0  0  0
  195.6700  170.7210  142.0870 C   0  0  1  0  0  3  0  0  0  0  0  0
  196.2450  171.3150  144.4640 C   0  0  1  0  0  3  0  0  0  0  0  0
  195.2340  170.2050  144.4840 C   0  0  2  0  0  3  0  0  0  0  0  0
  195.1480  171.2790  143.4140 C   0  0  2  0  0  3  0  0  0  0  0  0
  195.6450  170.8660  145.7860 C   0  0  0  0  0  2  0  0  0  0  0  0
  187.7190  177.8130  146.6370 C   0  0  0  0  0  2  0  0  0  0  0  0
  186.2820  177.9120  146.4530 N   0  0  0  0  0  2  0  0  0  0  0  0
  185.9930  179.2830  146.0600 C   0  0  0  0  0  2  0  0  0  0  0  0
  185.6850  179.3330  144.6020 C   0  0  0  0  0  0  0  0  0  0  0  0
  185.6090  180.4130  144.0340 O   0  0  0  0  0  0  0  0  0  0  0  0
  185.4670  178.0530  143.8430 C   0  0  2  0  0  3  0  0  0  0  0  0
  184.5180  178.2470  141.6050 C   0  0  0  0  0  2  0  0  0  0  0  0
  186.3430  176.6440  141.9500 N   0  0  0  0  0  2  0  0  0  0  0  0
  186.5450  177.8310  142.7910 C   0  0  1  0  0  0  0  0  0  0  0  0
  186.0130  177.9970  141.4520 C   0  0  2  0  0  3  0  0  0  0  0  0
  184.1560  178.1280  143.0800 C   0  0  0  0  0  2  0  0  0  0  0  0
  188.6670  178.2080  141.7700 O   0  0  0  0  0  1  0  0  0  0  0  0
  188.0110  178.1730  143.0010 C   0  0  0  0  0  2  0  0  0  0  0  0
  1 15  2  0  0  0  0
  2 32  1  6  0  0  0
  2  4  1  0  0  0  0
  3 29  1  0  0  0  0
  3 10  2  0  0  0  0
  4  7  2  0  0  0  0
  7  8  1  0  0  0  0
  8  5  1  0  0  0  0
  9 51  1  0  0  0  0
  9  8  1  0  0  0  0
 10 13  2  0  0  0  0
 11  2  1  0  0  0  0
 11  6  1  0  0  0  0
 12  1  1  0  0  0  0
 13  6  1  0  0  0  0
 13 12  1  0  0  0  0
 14  9  2  0  0  0  0
 15  5  1  0  0  0  0
 16 19  1  6  0  0  0
 16 17  1  0  0  0  0
 17  3  1  1  0  0  0
 18 17  1  0  0  0  0
 20 18  1  0  0  0  0
 21 23  1  6  0  0  0
 21 22  1  0  0  0  0
 21 20  1  0  0  0  0
 22 19  1  6  0  0  0
 22 16  1  0  0  0  0
 24 23  2  0  0  0  0
 25 23  2  0  0  0  0
 26 23  1  0  0  0  0
 27 29  1  0  0  0  0
 29 28  1  0  0  0  0
 30 29  1  0  0  0  0
 31 32  1  0  0  0  0
 32 33  2  0  0  0  0
 34 31  1  0  0  0  0
 35 34  1  0  0  0  0
 36 37  1  0  0  0  0
 36 31  1  0  0  0  0
 38 37  1  0  0  0  0
 38 44  1  0  0  0  0
 40 38  1  0  0  0  0
 41 40  1  0  0  0  0
 41 43  1  0  0  0  0
 42 44  1  0  0  0  0
 42 46  1  1  0  0  0
 43 39  1  6  0  0  0
 43 42  1  0  0  0  0
 46 45  1  6  0  0  0
 47 48  1  0  0  0  0
 47 50  1  1  0  0  0
 48 50  1  1  0  0  0
 49 46  1  6  0  0  0
 49 47  1  0  0  0  0
 49 48  1  0  0  0  0
 52 51  1  0  0  0  0
 53 52  1  0  0  0  0
 54 53  1  0  0  0  0
 55 54  2  0  0  0  0
 56 54  1  6  0  0  0
 57 61  1  0  0  0  0
 58 59  1  0  0  0  0
 59 63  1  1  0  0  0
 59 56  1  0  0  0  0
 60 57  1  1  0  0  0
 60 58  1  0  0  0  0
 60 59  1  0  0  0  0
 61 56  1  0  0  0  0
 62 63  1  0  0  0  0
M  END
>  <MODEL>
2

>  <REMARK>
 VINA RESULT:      -7.0      3.946      8.633
  Name = 
  16 active torsions:
  status: ('A' for Active; 'I' for Inactive)
    1  A    between atoms: C_1  and  N_25
    2  A    between atoms: C_1  and  C_41
    3  A    between atoms: S_2  and  C_50
    4  A    between atoms: O_3  and  N_19
    5  A    between atoms: C_6  and  C_11
    6  A    between atoms: C_7  and  C_23
    7  A    between atoms: C_9  and  C_21
    8  A    between atoms: C_9  and  C_24
    9  A    between atoms: C_10  and  C_11
   10  A    between atoms: C_10  and  N_25
   11  A    between atoms: N_13  and  C_47
   12  A    between atoms: N_19  and  C_54
   13  A    between atoms: C_32  and  C_40
   14  A    between atoms: C_32  and  C_45
   15  A    between atoms: C_43  and  C_57
   16  A    between atoms: C_47  and  C_54
                            x       y       z     vdW  Elec       q    Type
                         _______ _______ _______ _____ _____    ______ ____

>  <TORSDO>
F 16

$$$$
=
 OpenBabel11072409353D

 63 70  0  0  1  0  0  0  0  0999 V2000
  193.6350  172.5380  144.0010 N   0  0  0  0  0  0  0  0  0  0  0  0
  190.1320  175.1710  143.2420 C   0  0  2  0  0  3  0  0  0  0  0  0
  191.0560  170.5270  140.5240 C   0  0  0  0  0  0  0  0  0  0  0  0
  191.4760  175.6190  143.7410 C   0  0  0  0  0  3  0  0  0  0  0  0
  194.0850  174.0850  145.8080 C   0  0  0  0  0  2  0  0  0  0  0  0
  190.9210  172.8480  143.2220 N   0  0  0  0  0  2  0  0  0  0  0  0
  192.0040  175.0210  144.8010 C   0  0  0  0  0  3  0  0  0  0  0  0
  193.3600  175.2290  145.2330 N   0  0  0  0  0  0  0  0  0  0  0  0
  194.0180  176.5050  145.1030 C   0  0  0  0  0  0  0  0  0  0  0  0
  191.4180  171.1860  141.5970 C   0  0  0  0  0  0  0  0  0  0  0  0
  190.2720  173.8800  142.4230 C   0  0  0  0  0  2  0  0  0  0  0  0
  192.9760  171.3850  143.4420 C   0  0  0  0  0  2  0  0  0  0  0  0
  191.7660  171.8290  142.6770 C   0  0  0  0  0  0  0  0  0  0  0  0
  193.3750  177.5230  144.7290 O   0  0  0  0  0  0  0  0  0  0  0  0
  193.5790  172.7760  145.2610 C   0  0  0  0  0  3  0  0  0  0  0  0
  191.7350  172.4280  139.0270 C   0  0  1  0  0  3  0  0  0  0  0  0
  190.7730  171.2500  139.2400 C   0  0  2  0  0  3  0  0  0  0  0  0
  189.3050  171.6850  139.1410 C   0  0  0  0  0  2  0  0  0  0  0  0
  192.5070  172.2050  137.7930 N   0  0  0  0  0  2  0  0  0  0  0  0
  189.0190  172.5390  137.8990 C   0  0  0  0  0  2  0  0  0  0  0  0
  190.2450  172.7080  137.0020 C   0  0  2  0  0  3  0  0  0  0  0  0
  191.4420  173.2190  137.8100 C   0  0  1  0  0  3  0  0  0  0  0  0
  189.8890  173.8090  135.6460 S   0  0  0  0  0  0  0  0  0  0  0  0
  189.2780  173.0330  134.5140 O   0  0  0  0  0  0  0  0  0  0  0  0
  191.1590  174.4550  135.1750 O   0  0  0  0  0  0  0  0  0  0  0  0
  188.7620  175.0780  136.1640 C   0  0  0  0  0  1  0  0  0  0  0  0
  192.0240  168.4100  140.1690 F   0  0  0  0  0  0  0  0  0  0  0  0
  189.8360  168.6860  139.7060 F   0  0  0  0  0  0  0  0  0  0  0  0
  190.8580  169.0380  140.5690 C   0  0  0  0  0  0  0  0  0  0  0  0
  190.5330  168.6050  141.8440 F   0  0  0  0  0  0  0  0  0  0  0  0
  188.0870  176.1120  142.0470 N   0  0  0  0  0  0  0  0  0  0  0  0
  189.4620  176.2490  142.4360 C   0  0  0  0  0  0  0  0  0  0  0  0
  190.0970  177.2890  142.1210 O   0  0  0  0  0  0  0  0  0  0  0  0
  187.4820  174.8950  142.0920 O   0  0  0  0  0  0  0  0  0  0  0  0
  187.6340  174.3520  140.8120 C   0  0  0  0  0  1  0  0  0  0  0  0
  187.2570  177.3070  141.9510 C   0  0  0  0  0  2  0  0  0  0  0  0
  185.7740  177.0020  142.2030 C   0  0  0  0  0  2  0  0  0  0  0  0
  185.3040  177.3230  143.5570 N   0  0  0  0  0  0  0  0  0  0  0  0
  184.6550  178.8740  147.3300 O   0  0  0  0  0  1  0  0  0  0  0  0
  185.0380  178.7570  143.6410 C   0  0  0  0  0  2  0  0  0  0  0  0
  184.3720  179.0660  144.9740 C   0  0  0  0  0  2  0  0  0  0  0  0
  185.7930  177.2360  145.9870 C   0  0  1  0  0  3  0  0  0  0  0  0
  185.3110  178.6920  146.1130 C   0  0  2  0  0  3  0  0  0  0  0  0
  186.2980  176.9410  144.5670 C   0  0  0  0  0  2  0  0  0  0  0  0
  186.2880  176.3430  148.1640 O   0  0  0  0  0  1  0  0  0  0  0  0
  186.8730  176.9200  147.0310 C   0  0  1  0  0  3  0  0  0  0  0  0
  188.6250  175.1960  147.5690 C   0  0  1  0  0  3  0  0  0  0  0  0
  189.3120  176.4140  147.0230 C   0  0  2  0  0  3  0  0  0  0  0  0
  187.9610  176.0020  146.4670 C   0  0  2  0  0  3  0  0  0  0  0  0
  190.1190  175.1580  147.2890 C   0  0  0  0  0  2  0  0  0  0  0  0
  195.4700  176.6610  145.4230 C   0  0  0  0  0  2  0  0  0  0  0  0
  196.1930  177.1480  144.2610 N   0  0  0  0  0  2  0  0  0  0  0  0
  196.8360  175.9980  143.6430 C   0  0  0  0  0  2  0  0  0  0  0  0
  196.3390  175.8360  142.2460 C   0  0  0  0  0  0  0  0  0  0  0  0
  196.7760  176.5560  141.3590 O   0  0  0  0  0  0  0  0  0  0  0  0
  195.3010  174.7920  141.9420 C   0  0  2  0  0  3  0  0  0  0  0  0
  194.1810  174.9480  139.7810 C   0  0  0  0  0  2  0  0  0  0  0  0
  194.8440  172.7260  140.5790 N   0  0  0  0  0  2  0  0  0  0  0  0
  195.8350  173.7280  140.9910 C   0  0  1  0  0  0  0  0  0  0  0  0
  195.2200  173.8390  139.6830 C   0  0  2  0  0  3  0  0  0  0  0  0
  194.1250  175.4330  141.2240 C   0  0  0  0  0  2  0  0  0  0  0  0
  197.4300  172.4580  142.2260 O   0  0  0  0  0  1  0  0  0  0  0  0
  197.2510  173.1820  141.0470 C   0  0  0  0  0  2  0  0  0  0  0  0
  1 15  2  0  0  0  0
  2 32  1  6  0  0  0
  2  4  1  0  0  0  0
  3 29  1  0  0  0  0
  3 10  2  0  0  0  0
  4  7  2  0  0  0  0
  7  8  1  0  0  0  0
  8  5  1  0  0  0  0
  9  8  1  0  0  0  0
  9 51  1  0  0  0  0
 10 13  2  0  0  0  0
 11  6  1  0  0  0  0
 11  2  1  0  0  0  0
 12  1  1  0  0  0  0
 13  6  1  0  0  0  0
 13 12  1  0  0  0  0
 14  9  2  0  0  0  0
 15  5  1  0  0  0  0
 16 19  1  6  0  0  0
 16 17  1  0  0  0  0
 17  3  1  1  0  0  0
 18 17  1  0  0  0  0
 20 18  1  0  0  0  0
 21 23  1  6  0  0  0
 21 22  1  0  0  0  0
 21 20  1  0  0  0  0
 22 19  1  6  0  0  0
 22 16  1  0  0  0  0
 23 26  1  0  0  0  0
 24 23  2  0  0  0  0
 25 23  2  0  0  0  0
 27 29  1  0  0  0  0
 28 29  1  0  0  0  0
 29 30  1  0  0  0  0
 31 34  1  0  0  0  0
 31 32  1  0  0  0  0
 33 32  2  0  0  0  0
 35 34  1  0  0  0  0
 36 31  1  0  0  0  0
 36 37  1  0  0  0  0
 37 38  1  0  0  0  0
 38 40  1  0  0  0  0
 38 44  1  0  0  0  0
 40 41  1  0  0  0  0
 41 43  1  0  0  0  0
 42 43  1  0  0  0  0
 42 46  1  1  0  0  0
 43 39  1  1  0  0  0
 44 42  1  0  0  0  0
 46 45  1  1  0  0  0
 47 50  1  6  0  0  0
 48 50  1  6  0  0  0
 48 47  1  0  0  0  0
 49 48  1  0  0  0  0
 49 46  1  1  0  0  0
 49 47  1  0  0  0  0
 52 51  1  0  0  0  0
 53 52  1  0  0  0  0
 54 53  1  0  0  0  0
 55 54  2  0  0  0  0
 56 54  1  6  0  0  0
 57 61  1  0  0  0  0
 58 59  1  0  0  0  0
 59 63  1  1  0  0  0
 59 56  1  0  0  0  0
 60 57  1  1  0  0  0
 60 58  1  0  0  0  0
 60 59  1  0  0  0  0
 61 56  1  0  0  0  0
 63 62  1  0  0  0  0
M  END
>  <MODEL>
3

>  <REMARK>
 VINA RESULT:      -6.5      3.965      8.962
  Name = 
  16 active torsions:
  status: ('A' for Active; 'I' for Inactive)
    1  A    between atoms: C_1  and  N_25
    2  A    between atoms: C_1  and  C_41
    3  A    between atoms: S_2  and  C_50
    4  A    between atoms: O_3  and  N_19
    5  A    between atoms: C_6  and  C_11
    6  A    between atoms: C_7  and  C_23
    7  A    between atoms: C_9  and  C_21
    8  A    between atoms: C_9  and  C_24
    9  A    between atoms: C_10  and  C_11
   10  A    between atoms: C_10  and  N_25
   11  A    between atoms: N_13  and  C_47
   12  A    between atoms: N_19  and  C_54
   13  A    between atoms: C_32  and  C_40
   14  A    between atoms: C_32  and  C_45
   15  A    between atoms: C_43  and  C_57
   16  A    between atoms: C_47  and  C_54
                            x       y       z     vdW  Elec       q    Type
                         _______ _______ _______ _____ _____    ______ ____

>  <TORSDO>
F 16

$$$$
=
 OpenBabel11072409353D

 63 70  0  0  1  0  0  0  0  0999 V2000
  196.2170  176.0760  141.6220 N   0  0  0  0  0  0  0  0  0  0  0  0
  196.8700  171.7300  142.2980 C   0  0  2  0  0  3  0  0  0  0  0  0
  196.1110  173.9300  137.3590 C   0  0  0  0  0  0  0  0  0  0  0  0
  196.2290  172.6820  143.2660 C   0  0  0  0  0  3  0  0  0  0  0  0
  196.6340  176.2500  144.0010 C   0  0  0  0  0  2  0  0  0  0  0  0
  197.2250  173.5770  140.7240 N   0  0  0  0  0  2  0  0  0  0  0  0
  196.8640  173.8010  143.5890 C   0  0  0  0  0  3  0  0  0  0  0  0
  196.2580  174.8680  144.3380 N   0  0  0  0  0  0  0  0  0  0  0  0
  195.2940  174.6210  145.3810 C   0  0  0  0  0  0  0  0  0  0  0  0
  196.3960  174.2460  138.5990 C   0  0  0  0  0  0  0  0  0  0  0  0
  196.6860  172.2300  140.8580 C   0  0  0  0  0  2  0  0  0  0  0  0
  196.6550  175.9990  140.2520 C   0  0  0  0  0  2  0  0  0  0  0  0
  196.7000  174.5620  139.8280 C   0  0  0  0  0  0  0  0  0  0  0  0
  195.0530  173.4440  145.7650 O   0  0  0  0  0  0  0  0  0  0  0  0
  197.0440  176.3760  142.5570 C   0  0  0  0  0  3  0  0  0  0  0  0
  193.7770  173.0860  137.7550 C   0  0  1  0  0  3  0  0  0  0  0  0
  195.1220  172.8440  137.0540 C   0  0  2  0  0  3  0  0  0  0  0  0
  195.6880  171.4530  137.3650 C   0  0  0  0  0  2  0  0  0  0  0  0
  192.7200  173.2240  136.7400 N   0  0  0  0  0  2  0  0  0  0  0  0
  194.6530  170.3350  137.1850 C   0  0  0  0  0  2  0  0  0  0  0  0
  193.3100  170.8490  136.6690 C   0  0  2  0  0  3  0  0  0  0  0  0
  192.7960  171.9970  137.5450 C   0  0  1  0  0  3  0  0  0  0  0  0
  192.1120  169.5300  136.6000 S   0  0  0  0  0  0  0  0  0  0  0  0
  192.2870  168.6290  137.7880 O   0  0  0  0  0  0  0  0  0  0  0  0
  192.3100  168.7360  135.3420 O   0  0  0  0  0  0  0  0  0  0  0  0
  190.4660  170.1940  136.6020 C   0  0  0  0  0  1  0  0  0  0  0  0
  197.1930  175.8800  136.6030 F   0  0  0  0  0  0  0  0  0  0  0  0
  195.9440  174.7040  135.1420 F   0  0  0  0  0  0  0  0  0  0  0  0
  196.8110  174.6080  136.2160 C   0  0  0  0  0  0  0  0  0  0  0  0
  197.9350  173.9050  135.8180 F   0  0  0  0  0  0  0  0  0  0  0  0
  196.2230  169.7450  143.7620 N   0  0  0  0  0  0  0  0  0  0  0  0
  196.3220  170.3380  142.4580 C   0  0  0  0  0  0  0  0  0  0  0  0
  195.9250  169.6960  141.4510 O   0  0  0  0  0  0  0  0  0  0  0  0
  196.9200  170.2680  144.8050 O   0  0  0  0  0  0  0  0  0  0  0  0
  197.8610  169.2940  145.1550 C   0  0  0  0  0  1  0  0  0  0  0  0
  195.1240  168.8270  144.0390 C   0  0  0  0  0  2  0  0  0  0  0  0
  193.9000  169.5510  144.6160 C   0  0  0  0  0  2  0  0  0  0  0  0
  192.8000  169.7510  143.6630 N   0  0  0  0  0  0  0  0  0  0  0  0
  190.4020  170.3780  140.3590 O   0  0  0  0  0  1  0  0  0  0  0  0
  192.9600  168.8190  142.5490 C   0  0  0  0  0  2  0  0  0  0  0  0
  191.7270  168.8880  141.6590 C   0  0  0  0  0  2  0  0  0  0  0  0
  191.6070  171.3560  142.1960 C   0  0  1  0  0  3  0  0  0  0  0  0
  191.5900  170.2920  141.0850 C   0  0  2  0  0  3  0  0  0  0  0  0
  192.7810  171.1300  143.1600 C   0  0  0  0  0  2  0  0  0  0  0  0
  190.3650  173.3320  141.6180 O   0  0  0  0  0  1  0  0  0  0  0  0
  191.6470  172.7720  141.6030 C   0  0  1  0  0  3  0  0  0  0  0  0
  192.0170  175.0320  142.6470 C   0  0  1  0  0  3  0  0  0  0  0  0
  192.9650  174.8820  141.4930 C   0  0  2  0  0  3  0  0  0  0  0  0
  192.6320  173.6750  142.3510 C   0  0  2  0  0  3  0  0  0  0  0  0
  193.0770  176.0920  142.4000 C   0  0  0  0  0  2  0  0  0  0  0  0
  194.5680  175.7460  146.0460 C   0  0  0  0  0  2  0  0  0  0  0  0
  193.1760  175.3910  146.2620 N   0  0  0  0  0  2  0  0  0  0  0  0
  192.3740  176.5380  145.8640 C   0  0  0  0  0  2  0  0  0  0  0  0
  191.3080  176.7810  146.8770 C   0  0  0  0  0  0  0  0  0  0  0  0
  191.5810  176.7380  148.0680 O   0  0  0  0  0  0  0  0  0  0  0  0
  189.9040  177.0730  146.4250 C   0  0  2  0  0  3  0  0  0  0  0  0
  189.4880  177.0250  144.0220 C   0  0  0  0  0  2  0  0  0  0  0  0
  187.8110  176.0200  145.5040 N   0  0  0  0  0  2  0  0  0  0  0  0
  189.1600  175.8000  146.0420 C   0  0  1  0  0  0  0  0  0  0  0  0
  188.9510  175.7270  144.6090 C   0  0  2  0  0  3  0  0  0  0  0  0
  189.9380  177.9240  145.1670 C   0  0  0  0  0  2  0  0  0  0  0  0
  188.5680  174.5400  147.9780 O   0  0  0  0  0  1  0  0  0  0  0  0
  189.2990  174.4850  146.7910 C   0  0  0  0  0  2  0  0  0  0  0  0
  1 15  2  0  0  0  0
  2 32  1  6  0  0  0
  2  4  1  0  0  0  0
  3 10  2  0  0  0  0
  4  7  2  0  0  0  0
  5  8  1  0  0  0  0
  6 11  1  0  0  0  0
  7  8  1  0  0  0  0
  8  9  1  0  0  0  0
  9 14  2  0  0  0  0
  9 51  1  0  0  0  0
 10 13  2  0  0  0  0
 11  2  1  0  0  0  0
 12  1  1  0  0  0  0
 13 12  1  0  0  0  0
 13  6  1  0  0  0  0
 15  5  1  0  0  0  0
 16 19  1  6  0  0  0
 17  3  1  1  0  0  0
 17 18  1  0  0  0  0
 17 16  1  0  0  0  0
 20 18  1  0  0  0  0
 21 23  1  1  0  0  0
 21 20  1  0  0  0  0
 21 22  1  0  0  0  0
 22 19  1  6  0  0  0
 22 16  1  0  0  0  0
 23 26  1  0  0  0  0
 23 24  2  0  0  0  0
 25 23  2  0  0  0  0
 28 29  1  0  0  0  0
 29 27  1  0  0  0  0
 29  3  1  0  0  0  0
 30 29  1  0  0  0  0
 31 36  1  0  0  0  0
 31 34  1  0  0  0  0
 32 31  1  0  0  0  0
 33 32  2  0  0  0  0
 34 35  1  0  0  0  0
 36 37  1  0  0  0  0
 38 37  1  0  0  0  0
 40 38  1  0  0  0  0
 41 40  1  0  0  0  0
 42 46  1  6  0  0  0
 42 44  1  0  0  0  0
 43 39  1  1  0  0  0
 43 41  1  0  0  0  0
 43 42  1  0  0  0  0
 44 38  1  0  0  0  0
 46 45  1  1  0  0  0
 47 50  1  1  0  0  0
 48 49  1  0  0  0  0
 48 50  1  1  0  0  0
 48 47  1  0  0  0  0
 49 46  1  6  0  0  0
 49 47  1  0  0  0  0
 51 52  1  0  0  0  0
 53 52  1  0  0  0  0
 53 54  1  0  0  0  0
 54 55  2  0  0  0  0
 56 54  1  6  0  0  0
 57 61  1  0  0  0  0
 58 59  1  0  0  0  0
 59 56  1  0  0  0  0
 59 63  1  1  0  0  0
 60 57  1  6  0  0  0
 60 58  1  0  0  0  0
 60 59  1  0  0  0  0
 61 56  1  0  0  0  0
 63 62  1  0  0  0  0
M  END
>  <MODEL>
4

>  <REMARK>
 VINA RESULT:      -6.0      4.576      9.881
  Name = 
  16 active torsions:
  status: ('A' for Active; 'I' for Inactive)
    1  A    between atoms: C_1  and  N_25
    2  A    between atoms: C_1  and  C_41
    3  A    between atoms: S_2  and  C_50
    4  A    between atoms: O_3  and  N_19
    5  A    between atoms: C_6  and  C_11
    6  A    between atoms: C_7  and  C_23
    7  A    between atoms: C_9  and  C_21
    8  A    between atoms: C_9  and  C_24
    9  A    between atoms: C_10  and  C_11
   10  A    between atoms: C_10  and  N_25
   11  A    between atoms: N_13  and  C_47
   12  A    between atoms: N_19  and  C_54
   13  A    between atoms: C_32  and  C_40
   14  A    between atoms: C_32  and  C_45
   15  A    between atoms: C_43  and  C_57
   16  A    between atoms: C_47  and  C_54
                            x       y       z     vdW  Elec       q    Type
                         _______ _______ _______ _____ _____    ______ ____

>  <TORSDO>
F 16

$$$$
=
 OpenBabel11072409353D

 63 70  0  0  1  0  0  0  0  0999 V2000
  192.5680  176.7130  146.4700 N   0  0  0  0  0  0  0  0  0  0  0  0
  190.5420  173.1070  144.8380 C   0  0  2  0  0  3  0  0  0  0  0  0
  195.5200  174.7270  143.2860 C   0  0  0  0  0  0  0  0  0  0  0  0
  189.8580  174.3410  145.3510 C   0  0  0  0  0  3  0  0  0  0  0  0
  190.6420  176.8210  147.9340 C   0  0  0  0  0  2  0  0  0  0  0  0
  192.7200  174.0890  145.3940 N   0  0  0  0  0  2  0  0  0  0  0  0
  190.1640  174.7950  146.5590 C   0  0  0  0  0  3  0  0  0  0  0  0
  189.7270  176.0700  147.0600 N   0  0  0  0  0  0  0  0  0  0  0  0
  188.4410  176.6270  146.7190 C   0  0  0  0  0  0  0  0  0  0  0  0
  194.6180  174.9080  144.2210 C   0  0  0  0  0  0  0  0  0  0  0  0
  191.9510  173.4490  144.3340 C   0  0  0  0  0  2  0  0  0  0  0  0
  193.8760  176.2240  146.1160 C   0  0  0  0  0  2  0  0  0  0  0  0
  193.7320  175.0740  145.1640 C   0  0  0  0  0  0  0  0  0  0  0  0
  187.5980  175.9460  146.0750 O   0  0  0  0  0  0  0  0  0  0  0  0
  192.0830  176.4940  147.6380 C   0  0  0  0  0  3  0  0  0  0  0  0
  195.3850  175.7820  141.0090 C   0  0  1  0  0  3  0  0  0  0  0  0
  195.1110  174.5310  141.8560 C   0  0  2  0  0  3  0  0  0  0  0  0
  193.6540  174.0670  141.7370 C   0  0  0  0  0  2  0  0  0  0  0  0
  196.3400  175.4450  139.9410 N   0  0  0  0  0  2  0  0  0  0  0  0
  193.1720  173.9840  140.2830 C   0  0  0  0  0  2  0  0  0  0  0  0
  194.2720  174.3150  139.2750 C   0  0  2  0  0  3  0  0  0  0  0  0
  194.9250  175.6610  139.6070 C   0  0  1  0  0  3  0  0  0  0  0  0
  193.6250  174.3260  137.6140 S   0  0  0  0  0  0  0  0  0  0  0  0
  193.2670  175.7320  137.2230 O   0  0  0  0  0  0  0  0  0  0  0  0
  192.3980  173.4660  137.5450 O   0  0  0  0  0  0  0  0  0  0  0  0
  194.8320  173.6900  136.4800 C   0  0  0  0  0  1  0  0  0  0  0  0
  197.5450  175.9100  143.5010 F   0  0  0  0  0  0  0  0  0  0  0  0
  197.6120  173.7800  142.7700 F   0  0  0  0  0  0  0  0  0  0  0  0
  196.9790  174.6550  143.6340 C   0  0  0  0  0  0  0  0  0  0  0  0
  197.1730  174.2140  144.9330 F   0  0  0  0  0  0  0  0  0  0  0  0
  189.8320  172.8910  142.4000 N   0  0  0  0  0  0  0  0  0  0  0  0
  189.7320  172.4420  143.7600 C   0  0  0  0  0  0  0  0  0  0  0  0
  188.9810  171.4710  144.0410 O   0  0  0  0  0  0  0  0  0  0  0  0
  190.3710  174.1060  142.1190 O   0  0  0  0  0  0  0  0  0  0  0  0
  189.3240  174.8700  141.5920 C   0  0  0  0  0  1  0  0  0  0  0  0
  189.6910  171.9180  141.3220 C   0  0  0  0  0  2  0  0  0  0  0  0
  190.7980  170.8560  141.3540 C   0  0  0  0  0  2  0  0  0  0  0  0
  191.2080  170.3570  140.0350 N   0  0  0  0  0  0  0  0  0  0  0  0
  192.7450  168.2620  136.8240 O   0  0  0  0  0  1  0  0  0  0  0  0
  190.8020  168.9590  139.9070 C   0  0  0  0  0  2  0  0  0  0  0  0
  191.0510  168.4940  138.4790 C   0  0  0  0  0  2  0  0  0  0  0  0
  193.0880  169.9910  138.4590 C   0  0  1  0  0  3  0  0  0  0  0  0
  192.5380  168.5850  138.1650 C   0  0  2  0  0  3  0  0  0  0  0  0
  192.6600  170.4720  139.8530 C   0  0  0  0  0  2  0  0  0  0  0  0
  194.9600  170.3190  136.9860 O   0  0  0  0  0  1  0  0  0  0  0  0
  194.6170  170.0270  138.3110 C   0  0  1  0  0  3  0  0  0  0  0  0
  196.7660  170.8640  139.3170 C   0  0  1  0  0  3  0  0  0  0  0  0
  195.9130  170.3050  140.4190 C   0  0  2  0  0  3  0  0  0  0  0  0
  195.2590  171.0400  139.2640 C   0  0  2  0  0  3  0  0  0  0  0  0
  197.2060  171.0200  140.7630 C   0  0  0  0  0  2  0  0  0  0  0  0
  188.0670  178.0140  147.1310 C   0  0  0  0  0  2  0  0  0  0  0  0
  186.6490  178.0830  147.4400 N   0  0  0  0  0  2  0  0  0  0  0  0
  186.0730  179.1130  146.5890 C   0  0  0  0  0  2  0  0  0  0  0  0
  185.4150  178.4800  145.4100 C   0  0  0  0  0  0  0  0  0  0  0  0
  184.5120  177.6740  145.5780 O   0  0  0  0  0  0  0  0  0  0  0  0
  185.8730  178.8370  144.0230 C   0  0  2  0  0  3  0  0  0  0  0  0
  186.6580  177.0070  142.6160 C   0  0  0  0  0  2  0  0  0  0  0  0
  185.2420  178.7260  141.5890 N   0  0  0  0  0  2  0  0  0  0  0  0
  184.8240  178.4880  142.9760 C   0  0  1  0  0  0  0  0  0  0  0  0
  185.2480  177.3640  142.1640 C   0  0  2  0  0  3  0  0  0  0  0  0
  187.1020  178.0210  143.6630 C   0  0  0  0  0  2  0  0  0  0  0  0
  182.6440  178.3130  142.0260 O   0  0  0  0  0  1  0  0  0  0  0  0
  183.3300  178.6620  143.1900 C   0  0  0  0  0  2  0  0  0  0  0  0
  1 15  2  0  0  0  0
  2 32  1  6  0  0  0
  2  4  1  0  0  0  0
  3 29  1  0  0  0  0
  3 10  2  0  0  0  0
  4  7  2  0  0  0  0
  7  8  1  0  0  0  0
  8  5  1  0  0  0  0
  9  8  1  0  0  0  0
  9 51  1  0  0  0  0
 10 13  2  0  0  0  0
 11  2  1  0  0  0  0
 11  6  1  0  0  0  0
 12  1  1  0  0  0  0
 13  6  1  0  0  0  0
 13 12  1  0  0  0  0
 14  9  2  0  0  0  0
 15  5  1  0  0  0  0
 16 19  1  6  0  0  0
 16 17  1  0  0  0  0
 17  3  1  1  0  0  0
 18 17  1  0  0  0  0
 20 18  1  0  0  0  0
 21 23  1  6  0  0  0
 21 22  1  0  0  0  0
 21 20  1  0  0  0  0
 22 19  1  6  0  0  0
 22 16  1  0  0  0  0
 24 23  2  0  0  0  0
 25 23  2  0  0  0  0
 26 23  1  0  0  0  0
 27 29  1  0  0  0  0
 28 29  1  0  0  0  0
 29 30  1  0  0  0  0
 31 32  1  0  0  0  0
 32 33  2  0  0  0  0
 34 31  1  0  0  0  0
 35 34  1  0  0  0  0
 36 37  1  0  0  0  0
 36 31  1  0  0  0  0
 38 37  1  0  0  0  0
 40 38  1  0  0  0  0
 41 40  1  0  0  0  0
 42 46  1  1  0  0  0
 42 44  1  0  0  0  0
 43 39  1  6  0  0  0
 43 42  1  0  0  0  0
 43 41  1  0  0  0  0
 44 38  1  0  0  0  0
 46 45  1  6  0  0  0
 47 48  1  0  0  0  0
 47 50  1  1  0  0  0
 48 50  1  1  0  0  0
 49 46  1  6  0  0  0
 49 47  1  0  0  0  0
 49 48  1  0  0  0  0
 51 52  1  0  0  0  0
 53 52  1  0  0  0  0
 54 55  2  0  0  0  0
 54 53  1  0  0  0  0
 56 54  1  1  0  0  0
 57 61  1  0  0  0  0
 58 60  1  0  0  0  0
 58 59  1  0  0  0  0
 59 63  1  1  0  0  0
 59 56  1  0  0  0  0
 60 57  1  1  0  0  0
 60 59  1  0  0  0  0
 61 56  1  0  0  0  0
 62 63  1  0  0  0  0
M  END
>  <MODEL>
5

>  <REMARK>
 VINA RESULT:      -5.9      4.245      9.247
  Name = 
  16 active torsions:
  status: ('A' for Active; 'I' for Inactive)
    1  A    between atoms: C_1  and  N_25
    2  A    between atoms: C_1  and  C_41
    3  A    between atoms: S_2  and  C_50
    4  A    between atoms: O_3  and  N_19
    5  A    between atoms: C_6  and  C_11
    6  A    between atoms: C_7  and  C_23
    7  A    between atoms: C_9  and  C_21
    8  A    between atoms: C_9  and  C_24
    9  A    between atoms: C_10  and  C_11
   10  A    between atoms: C_10  and  N_25
   11  A    between atoms: N_13  and  C_47
   12  A    between atoms: N_19  and  C_54
   13  A    between atoms: C_32  and  C_40
   14  A    between atoms: C_32  and  C_45
   15  A    between atoms: C_43  and  C_57
   16  A    between atoms: C_47  and  C_54
                            x       y       z     vdW  Elec       q    Type
                         _______ _______ _______ _____ _____    ______ ____

>  <TORSDO>
F 16

$$$$
=
 OpenBabel11072409353D

 63 70  0  0  1  0  0  0  0  0999 V2000
  189.4030  173.3810  141.5050 N   0  0  0  0  0  0  0  0  0  0  0  0
  193.3970  175.3020  141.1410 C   0  0  2  0  0  3  0  0  0  0  0  0
  191.4030  171.7800  137.4760 C   0  0  0  0  0  0  0  0  0  0  0  0
  192.6860  174.9910  142.4260 C   0  0  0  0  0  3  0  0  0  0  0  0
  189.1670  174.8240  143.4350 C   0  0  0  0  0  2  0  0  0  0  0  0
  191.4930  174.4090  139.8790 N   0  0  0  0  0  2  0  0  0  0  0  0
  191.4400  175.4130  142.5950 C   0  0  0  0  0  3  0  0  0  0  0  0
  190.6050  174.9990  143.6900 N   0  0  0  0  0  0  0  0  0  0  0  0
  191.1380  174.7390  145.0040 C   0  0  0  0  0  0  0  0  0  0  0  0
  191.0450  172.5350  138.4860 C   0  0  0  0  0  0  0  0  0  0  0  0
  192.9410  174.3410  140.0340 C   0  0  0  0  0  2  0  0  0  0  0  0
  189.3240  173.1190  140.0900 C   0  0  0  0  0  2  0  0  0  0  0  0
  190.6800  173.3010  139.4780 C   0  0  0  0  0  0  0  0  0  0  0  0
  192.3420  175.0020  145.2710 O   0  0  0  0  0  0  0  0  0  0  0  0
  188.8990  174.4530  141.9990 C   0  0  0  0  0  3  0  0  0  0  0  0
  193.1680  170.7200  138.9160 C   0  0  1  0  0  3  0  0  0  0  0  0
  192.7190  171.0600  137.4880 C   0  0  2  0  0  3  0  0  0  0  0  0
  193.7970  171.8300  136.7160 C   0  0  0  0  0  2  0  0  0  0  0  0
  193.2830  169.2590  139.0530 N   0  0  0  0  0  2  0  0  0  0  0  0
  195.1840  171.1810  136.8220 C   0  0  0  0  0  2  0  0  0  0  0  0
  195.1660  169.8750  137.6150 C   0  0  2  0  0  3  0  0  0  0  0  0
  194.5010  170.0780  138.9800 C   0  0  1  0  0  3  0  0  0  0  0  0
  196.8180  169.2330  137.8130 S   0  0  0  0  0  0  0  0  0  0  0  0
  197.2810  168.6280  136.5180 O   0  0  0  0  0  0  0  0  0  0  0  0
  196.8240  168.1790  138.8810 O   0  0  0  0  0  0  0  0  0  0  0  0
  197.9300  170.5320  138.2860 C   0  0  0  0  0  1  0  0  0  0  0  0
  190.5240  172.8730  135.5840 F   0  0  0  0  0  0  0  0  0  0  0  0
  189.2390  171.3580  136.6490 F   0  0  0  0  0  0  0  0  0  0  0  0
  190.5300  171.6650  136.2590 C   0  0  0  0  0  0  0  0  0  0  0  0
  190.9820  170.6770  135.4000 F   0  0  0  0  0  0  0  0  0  0  0  0
  195.4900  175.6900  142.5440 N   0  0  0  0  0  0  0  0  0  0  0  0
  194.8900  175.2500  141.3160 C   0  0  0  0  0  0  0  0  0  0  0  0
  195.6180  174.7970  140.3950 O   0  0  0  0  0  0  0  0  0  0  0  0
  194.7840  176.4620  143.4110 O   0  0  0  0  0  0  0  0  0  0  0  0
  195.6510  176.7190  144.4780 C   0  0  0  0  0  1  0  0  0  0  0  0
  196.7000  175.0270  143.0160 C   0  0  0  0  0  2  0  0  0  0  0  0
  196.7130  173.5320  142.6680 C   0  0  0  0  0  2  0  0  0  0  0  0
  196.3040  172.6430  143.7640 N   0  0  0  0  0  0  0  0  0  0  0  0
  195.5470  169.4820  146.3120 O   0  0  0  0  0  1  0  0  0  0  0  0
  197.4560  171.8530  144.1910 C   0  0  0  0  0  2  0  0  0  0  0  0
  197.0910  171.0720  145.4450 C   0  0  0  0  0  2  0  0  0  0  0  0
  194.7570  170.8500  144.4990 C   0  0  1  0  0  3  0  0  0  0  0  0
  195.9490  170.1140  145.1360 C   0  0  2  0  0  3  0  0  0  0  0  0
  195.2160  171.7520  143.3440 C   0  0  0  0  0  2  0  0  0  0  0  0
  192.6550  169.7820  144.9730 O   0  0  0  0  0  1  0  0  0  0  0  0
  193.6840  169.8570  144.0280 C   0  0  1  0  0  3  0  0  0  0  0  0
  191.6880  170.7280  142.7660 C   0  0  1  0  0  3  0  0  0  0  0  0
  191.9570  169.3220  142.3150 C   0  0  2  0  0  3  0  0  0  0  0  0
  193.1200  170.2350  142.6550 C   0  0  2  0  0  3  0  0  0  0  0  0
  190.8990  170.1460  141.6060 C   0  0  0  0  0  2  0  0  0  0  0  0
  190.2790  174.1710  146.0880 C   0  0  0  0  0  2  0  0  0  0  0  0
  190.0070  175.1800  147.0970 N   0  0  0  0  0  2  0  0  0  0  0  0
  188.5610  175.2710  147.2320 C   0  0  0  0  0  2  0  0  0  0  0  0
  188.0910  176.5920  146.7240 C   0  0  0  0  0  0  0  0  0  0  0  0
  188.8630  177.5390  146.6900 O   0  0  0  0  0  0  0  0  0  0  0  0
  186.6700  176.7480  146.2600 C   0  0  2  0  0  3  0  0  0  0  0  0
  185.4900  178.7580  146.9790 C   0  0  0  0  0  2  0  0  0  0  0  0
  185.1840  178.0060  144.6640 N   0  0  0  0  0  2  0  0  0  0  0  0
  186.5580  177.7360  145.1070 C   0  0  1  0  0  0  0  0  0  0  0  0
  185.9080  178.9620  145.5290 C   0  0  2  0  0  3  0  0  0  0  0  0
  185.8260  177.3270  147.3830 C   0  0  0  0  0  2  0  0  0  0  0  0
  186.9370  178.1770  142.7950 O   0  0  0  0  0  1  0  0  0  0  0  0
  187.5800  177.8440  143.9880 C   0  0  0  0  0  2  0  0  0  0  0  0
  1 15  2  0  0  0  0
  2 32  1  1  0  0  0
  2  4  1  0  0  0  0
  3 10  2  0  0  0  0
  4  7  2  0  0  0  0
  5  8  1  0  0  0  0
  6 11  1  0  0  0  0
  7  8  1  0  0  0  0
  8  9  1  0  0  0  0
  9 14  2  0  0  0  0
  9 51  1  0  0  0  0
 10 13  2  0  0  0  0
 11  2  1  0  0  0  0
 12  1  1  0  0  0  0
 13  6  1  0  0  0  0
 13 12  1  0  0  0  0
 15  5  1  0  0  0  0
 16 22  1  0  0  0  0
 16 19  1  6  0  0  0
 17  3  1  1  0  0  0
 17 16  1  0  0  0  0
 18 20  1  0  0  0  0
 18 17  1  0  0  0  0
 20 21  1  0  0  0  0
 21 23  1  1  0  0  0
 21 22  1  0  0  0  0
 22 19  1  6  0  0  0
 23 26  1  0  0  0  0
 23 25  2  0  0  0  0
 24 23  2  0  0  0  0
 27 29  1  0  0  0  0
 29 28  1  0  0  0  0
 29  3  1  0  0  0  0
 30 29  1  0  0  0  0
 31 36  1  0  0  0  0
 31 34  1  0  0  0  0
 32 31  1  0  0  0  0
 33 32  2  0  0  0  0
 34 35  1  0  0  0  0
 37 36  1  0  0  0  0
 37 38  1  0  0  0  0
 38 40  1  0  0  0  0
 40 41  1  0  0  0  0
 42 46  1  6  0  0  0
 42 43  1  0  0  0  0
 43 41  1  0  0  0  0
 43 39  1  1  0  0  0
 44 38  1  0  0  0  0
 44 42  1  0  0  0  0
 46 45  1  1  0  0  0
 47 50  1  6  0  0  0
 48 50  1  6  0  0  0
 48 49  1  0  0  0  0
 48 47  1  0  0  0  0
 49 47  1  0  0  0  0
 49 46  1  1  0  0  0
 51 52  1  0  0  0  0
 52 53  1  0  0  0  0
 54 53  1  0  0  0  0
 55 54  2  0  0  0  0
 56 54  1  1  0  0  0
 56 61  1  0  0  0  0
 57 61  1  0  0  0  0
 58 59  1  0  0  0  0
 58 60  1  0  0  0  0
 59 63  1  6  0  0  0
 59 60  1  0  0  0  0
 59 56  1  0  0  0  0
 60 57  1  1  0  0  0
 62 63  1  0  0  0  0
M  END
>  <MODEL>
6

>  <REMARK>
 VINA RESULT:      -5.6      4.161      9.151
  Name = 
  16 active torsions:
  status: ('A' for Active; 'I' for Inactive)
    1  A    between atoms: C_1  and  N_25
    2  A    between atoms: C_1  and  C_41
    3  A    between atoms: S_2  and  C_50
    4  A    between atoms: O_3  and  N_19
    5  A    between atoms: C_6  and  C_11
    6  A    between atoms: C_7  and  C_23
    7  A    between atoms: C_9  and  C_21
    8  A    between atoms: C_9  and  C_24
    9  A    between atoms: C_10  and  C_11
   10  A    between atoms: C_10  and  N_25
   11  A    between atoms: N_13  and  C_47
   12  A    between atoms: N_19  and  C_54
   13  A    between atoms: C_32  and  C_40
   14  A    between atoms: C_32  and  C_45
   15  A    between atoms: C_43  and  C_57
   16  A    between atoms: C_47  and  C_54
                            x       y       z     vdW  Elec       q    Type
                         _______ _______ _______ _____ _____    ______ ____

>  <TORSDO>
F 16

$$$$
=
 OpenBabel11072409353D

 63 70  0  0  1  0  0  0  0  0999 V2000
  195.6090  172.1520  139.8410 N   0  0  0  0  0  0  0  0  0  0  0  0
  191.4240  173.5740  139.3550 C   0  0  2  0  0  3  0  0  0  0  0  0
  194.9060  175.6510  143.0110 C   0  0  0  0  0  0  0  0  0  0  0  0
  191.9170  172.1840  139.0740 C   0  0  0  0  0  3  0  0  0  0  0  0
  195.0970  170.7760  137.9150 C   0  0  0  0  0  2  0  0  0  0  0  0
  193.7010  174.2520  139.9650 N   0  0  0  0  0  2  0  0  0  0  0  0
  192.9630  172.0180  138.2760 C   0  0  0  0  0  3  0  0  0  0  0  0
  193.6380  170.7590  138.1060 N   0  0  0  0  0  0  0  0  0  0  0  0
  192.9320  169.5020  138.1340 C   0  0  0  0  0  0  0  0  0  0  0  0
  194.8600  174.9050  141.9350 C   0  0  0  0  0  0  0  0  0  0  0  0
  192.3120  174.2510  140.4080 C   0  0  0  0  0  2  0  0  0  0  0  0
  196.0310  173.3870  140.4520 C   0  0  0  0  0  2  0  0  0  0  0  0
  194.8220  174.1780  140.8520 C   0  0  0  0  0  0  0  0  0  0  0  0
  191.6720  169.4750  138.1730 O   0  0  0  0  0  0  0  0  0  0  0  0
  195.7280  171.9750  138.5750 C   0  0  0  0  0  3  0  0  0  0  0  0
  192.8040  176.6940  143.9110 C   0  0  1  0  0  3  0  0  0  0  0  0
  193.8290  175.5600  144.0520 C   0  0  2  0  0  3  0  0  0  0  0  0
  194.4110  175.4860  145.4690 C   0  0  0  0  0  2  0  0  0  0  0  0
  191.4770  176.1170  143.6450 N   0  0  0  0  0  2  0  0  0  0  0  0
  193.3310  175.5230  146.5590 C   0  0  0  0  0  2  0  0  0  0  0  0
  191.9140  175.5550  145.9870 C   0  0  2  0  0  3  0  0  0  0  0  0
  191.7660  176.6890  144.9670 C   0  0  1  0  0  3  0  0  0  0  0  0
  190.7100  175.7250  147.2910 S   0  0  0  0  0  0  0  0  0  0  0  0
  190.2860  177.1610  147.4000 O   0  0  0  0  0  0  0  0  0  0  0  0
  191.3120  175.2860  148.5930 O   0  0  0  0  0  0  0  0  0  0  0  0
  189.2900  174.7170  146.9510 C   0  0  0  0  0  1  0  0  0  0  0  0
  195.6190  177.5850  144.1510 F   0  0  0  0  0  0  0  0  0  0  0  0
  196.2380  177.3090  142.0020 F   0  0  0  0  0  0  0  0  0  0  0  0
  196.0050  176.6580  143.2000 C   0  0  0  0  0  0  0  0  0  0  0  0
  197.1820  176.0560  143.6140 F   0  0  0  0  0  0  0  0  0  0  0  0
  189.6500  173.4120  141.1790 N   0  0  0  0  0  0  0  0  0  0  0  0
  189.9850  173.5650  139.7910 C   0  0  0  0  0  0  0  0  0  0  0  0
  189.0670  173.7160  138.9420 O   0  0  0  0  0  0  0  0  0  0  0  0
  190.5730  172.9380  142.0560 O   0  0  0  0  0  0  0  0  0  0  0  0
  189.8510  172.1990  142.9990 C   0  0  0  0  0  1  0  0  0  0  0  0
  188.4670  174.0890  141.6990 C   0  0  0  0  0  2  0  0  0  0  0  0
  188.5400  175.6090  141.5060 C   0  0  0  0  0  2  0  0  0  0  0  0
  187.3110  176.3320  141.8610 N   0  0  0  0  0  0  0  0  0  0  0  0
  184.3800  179.1220  142.6870 O   0  0  0  0  0  1  0  0  0  0  0  0
  187.0020  177.2930  140.8040 C   0  0  0  0  0  2  0  0  0  0  0  0
  185.6350  177.9070  141.0700 C   0  0  0  0  0  2  0  0  0  0  0  0
  186.1650  177.7550  143.5380 C   0  0  1  0  0  3  0  0  0  0  0  0
  185.6610  178.6550  142.3960 C   0  0  2  0  0  3  0  0  0  0  0  0
  187.4610  177.0330  143.1420 C   0  0  0  0  0  2  0  0  0  0  0  0
  185.1280  179.0660  145.2660 O   0  0  0  0  0  1  0  0  0  0  0  0
  186.3580  178.5610  144.8310 C   0  0  1  0  0  3  0  0  0  0  0  0
  186.0020  176.7860  146.5800 C   0  0  1  0  0  3  0  0  0  0  0  0
  186.3790  178.0640  147.2720 C   0  0  2  0  0  3  0  0  0  0  0  0
  187.0100  177.7210  145.9340 C   0  0  2  0  0  3  0  0  0  0  0  0
  186.2550  176.7860  148.0780 C   0  0  0  0  0  2  0  0  0  0  0  0
  193.6690  168.2020  138.1020 C   0  0  0  0  0  2  0  0  0  0  0  0
  194.7710  168.2220  139.0480 N   0  0  0  0  0  2  0  0  0  0  0  0
  194.1920  168.1680  140.3820 C   0  0  0  0  0  2  0  0  0  0  0  0
  195.0250  168.9690  141.3240 C   0  0  0  0  0  0  0  0  0  0  0  0
  196.2440  168.8900  141.2750 O   0  0  0  0  0  0  0  0  0  0  0  0
  194.3580  169.8640  142.3300 C   0  0  2  0  0  3  0  0  0  0  0  0
  192.2760  169.0590  143.3140 C   0  0  0  0  0  2  0  0  0  0  0  0
  193.8970  170.1640  144.7870 N   0  0  0  0  0  2  0  0  0  0  0  0
  194.5970  169.3860  143.7560 C   0  0  1  0  0  0  0  0  0  0  0  0
  193.3820  168.8520  144.3400 C   0  0  2  0  0  3  0  0  0  0  0  0
  192.8520  169.8260  142.1310 C   0  0  0  0  0  2  0  0  0  0  0  0
  196.3140  169.4470  145.4090 O   0  0  0  0  0  1  0  0  0  0  0  0
  195.9130  168.8010  144.2390 C   0  0  0  0  0  2  0  0  0  0  0  0
  1 12  1  0  0  0  0
  2 32  1  1  0  0  0
  2 11  1  0  0  0  0
  3 29  1  0  0  0  0
  4  2  1  0  0  0  0
  5  8  1  0  0  0  0
  5 15  1  0  0  0  0
  6 11  1  0  0  0  0
  6 13  1  0  0  0  0
  7  4  2  0  0  0  0
  8  9  1  0  0  0  0
  8  7  1  0  0  0  0
  9 14  2  0  0  0  0
 10  3  2  0  0  0  0
 12 13  1  0  0  0  0
 13 10  2  0  0  0  0
 15  1  2  0  0  0  0
 16 19  1  6  0  0  0
 16 17  1  0  0  0  0
 16 22  1  0  0  0  0
 17  3  1  6  0  0  0
 17 18  1  0  0  0  0
 18 20  1  0  0  0  0
 21 20  1  0  0  0  0
 21 23  1  1  0  0  0
 22 19  1  6  0  0  0
 22 21  1  0  0  0  0
 23 24  2  0  0  0  0
 23 25  2  0  0  0  0
 26 23  1  0  0  0  0
 28 29  1  0  0  0  0
 29 30  1  0  0  0  0
 29 27  1  0  0  0  0
 31 36  1  0  0  0  0
 31 34  1  0  0  0  0
 32 31  1  0  0  0  0
 33 32  2  0  0  0  0
 34 35  1  0  0  0  0
 37 36  1  0  0  0  0
 37 38  1  0  0  0  0
 38 44  1  0  0  0  0
 40 41  1  0  0  0  0
 40 38  1  0  0  0  0
 41 43  1  0  0  0  0
 42 46  1  1  0  0  0
 43 39  1  1  0  0  0
 43 42  1  0  0  0  0
 44 42  1  0  0  0  0
 46 45  1  1  0  0  0
 47 48  1  0  0  0  0
 47 50  1  1  0  0  0
 48 50  1  1  0  0  0
 49 46  1  6  0  0  0
 49 47  1  0  0  0  0
 49 48  1  0  0  0  0
 51  9  1  0  0  0  0
 51 52  1  0  0  0  0
 52 53  1  0  0  0  0
 53 54  1  0  0  0  0
 55 54  2  0  0  0  0
 56 54  1  6  0  0  0
 56 59  1  0  0  0  0
 59 63  1  1  0  0  0
 59 60  1  0  0  0  0
 59 58  1  0  0  0  0
 60 57  1  6  0  0  0
 60 58  1  0  0  0  0
 61 56  1  0  0  0  0
 61 57  1  0  0  0  0
 63 62  1  0  0  0  0
M  END
>  <MODEL>
7

>  <REMARK>
 VINA RESULT:      -5.6      3.672      7.967
  Name = 
  16 active torsions:
  status: ('A' for Active; 'I' for Inactive)
    1  A    between atoms: C_1  and  N_25
    2  A    between atoms: C_1  and  C_41
    3  A    between atoms: S_2  and  C_50
    4  A    between atoms: O_3  and  N_19
    5  A    between atoms: C_6  and  C_11
    6  A    between atoms: C_7  and  C_23
    7  A    between atoms: C_9  and  C_21
    8  A    between atoms: C_9  and  C_24
    9  A    between atoms: C_10  and  C_11
   10  A    between atoms: C_10  and  N_25
   11  A    between atoms: N_13  and  C_47
   12  A    between atoms: N_19  and  C_54
   13  A    between atoms: C_32  and  C_40
   14  A    between atoms: C_32  and  C_45
   15  A    between atoms: C_43  and  C_57
   16  A    between atoms: C_47  and  C_54
                            x       y       z     vdW  Elec       q    Type
                         _______ _______ _______ _____ _____    ______ ____

>  <TORSDO>
F 16

$$$$
=
 OpenBabel11072409353D

 63 70  0  0  1  0  0  0  0  0999 V2000
  193.4510  174.1740  137.6330 N   0  0  0  0  0  0  0  0  0  0  0  0
  190.5770  173.3970  140.9370 C   0  0  2  0  0  3  0  0  0  0  0  0
  195.8460  174.5810  141.7430 C   0  0  0  0  0  0  0  0  0  0  0  0
  190.5010  172.8190  139.5530 C   0  0  0  0  0  3  0  0  0  0  0  0
  191.4890  173.9940  136.2250 C   0  0  0  0  0  2  0  0  0  0  0  0
  192.5900  174.6450  140.2990 N   0  0  0  0  0  2  0  0  0  0  0  0
  190.5510  173.6340  138.5080 C   0  0  0  0  0  3  0  0  0  0  0  0
  190.6920  173.1750  137.1530 N   0  0  0  0  0  0  0  0  0  0  0  0
  190.0970  171.9450  136.6940 C   0  0  0  0  0  0  0  0  0  0  0  0
  194.9070  174.6120  140.8280 C   0  0  0  0  0  0  0  0  0  0  0  0
  192.0310  173.7370  141.2930 C   0  0  0  0  0  2  0  0  0  0  0  0
  194.3430  174.9110  138.4910 C   0  0  0  0  0  2  0  0  0  0  0  0
  193.9700  174.6640  139.9210 C   0  0  0  0  0  0  0  0  0  0  0  0
  189.3120  171.2970  137.4380 O   0  0  0  0  0  0  0  0  0  0  0  0
  192.5490  174.7810  136.9520 C   0  0  0  0  0  3  0  0  0  0  0  0
  195.7190  172.0870  142.0280 C   0  0  1  0  0  3  0  0  0  0  0  0
  195.9270  173.4430  142.7180 C   0  0  2  0  0  3  0  0  0  0  0  0
  194.9710  173.6360  143.9010 C   0  0  0  0  0  2  0  0  0  0  0  0
  196.9270  171.2640  142.2020 N   0  0  0  0  0  2  0  0  0  0  0  0
  194.9400  172.4270  144.8450 C   0  0  0  0  0  2  0  0  0  0  0  0
  195.9190  171.3290  144.4330 C   0  0  2  0  0  3  0  0  0  0  0  0
  195.7130  170.9400  142.9650 C   0  0  1  0  0  3  0  0  0  0  0  0
  195.7500  169.9010  145.4880 S   0  0  0  0  0  0  0  0  0  0  0  0
  195.5780  168.6700  144.6440 O   0  0  0  0  0  0  0  0  0  0  0  0
  194.5480  170.0680  146.3710 O   0  0  0  0  0  0  0  0  0  0  0  0
  197.1890  169.7170  146.5100 C   0  0  0  0  0  1  0  0  0  0  0  0
  196.2060  176.7850  142.4870 F   0  0  0  0  0  0  0  0  0  0  0  0
  197.2530  176.0940  140.6150 F   0  0  0  0  0  0  0  0  0  0  0  0
  196.8260  175.7110  141.8740 C   0  0  0  0  0  0  0  0  0  0  0  0
  197.9300  175.3450  142.6250 F   0  0  0  0  0  0  0  0  0  0  0  0
  190.8220  171.7900  142.9000 N   0  0  0  0  0  0  0  0  0  0  0  0
  189.9790  172.4640  141.9530 C   0  0  0  0  0  0  0  0  0  0  0  0
  188.7330  172.2880  141.9930 O   0  0  0  0  0  0  0  0  0  0  0  0
  192.1610  171.7080  142.6860 O   0  0  0  0  0  0  0  0  0  0  0  0
  192.4950  170.3660  142.8980 C   0  0  0  0  0  1  0  0  0  0  0  0
  190.3040  171.5140  144.2360 C   0  0  0  0  0  2  0  0  0  0  0  0
  189.6980  172.7630  144.8880 C   0  0  0  0  0  2  0  0  0  0  0  0
  190.3120  174.0320  144.4740 N   0  0  0  0  0  0  0  0  0  0  0  0
  191.8160  177.8670  144.1760 O   0  0  0  0  0  1  0  0  0  0  0  0
  191.3090  174.4260  145.4670 C   0  0  0  0  0  2  0  0  0  0  0  0
  192.0800  175.6320  144.9510 C   0  0  0  0  0  2  0  0  0  0  0  0
  189.9330  176.4050  143.8610 C   0  0  1  0  0  3  0  0  0  0  0  0
  191.1250  176.8010  144.7510 C   0  0  2  0  0  3  0  0  0  0  0  0
  189.3020  175.0880  144.3360 C   0  0  0  0  0  2  0  0  0  0  0  0
  188.6490  177.8960  142.4790 O   0  0  0  0  0  1  0  0  0  0  0  0
  188.8880  177.5290  143.8080 C   0  0  1  0  0  3  0  0  0  0  0  0
  186.3900  177.3350  143.5740 C   0  0  1  0  0  3  0  0  0  0  0  0
  186.6880  178.3410  144.6470 C   0  0  2  0  0  3  0  0  0  0  0  0
  187.5790  177.1220  144.4930 C   0  0  2  0  0  3  0  0  0  0  0  0
  185.2540  177.9130  144.4010 C   0  0  0  0  0  2  0  0  0  0  0  0
  190.3770  171.4140  135.3250 C   0  0  0  0  0  2  0  0  0  0  0  0
  190.8970  170.0610  135.4050 N   0  0  0  0  0  2  0  0  0  0  0  0
  192.3350  170.1400  135.1960 C   0  0  0  0  0  2  0  0  0  0  0  0
  193.0470  169.6870  136.4250 C   0  0  0  0  0  0  0  0  0  0  0  0
  193.1770  168.4920  136.6460 O   0  0  0  0  0  0  0  0  0  0  0  0
  193.5970  170.7060  137.3840 C   0  0  2  0  0  3  0  0  0  0  0  0
  194.2230  169.9060  139.6020 C   0  0  0  0  0  2  0  0  0  0  0  0
  195.7070  171.5140  138.4940 N   0  0  0  0  0  2  0  0  0  0  0  0
  195.1120  170.6080  137.5030 C   0  0  1  0  0  0  0  0  0  0  0  0
  195.5030  170.0820  138.7960 C   0  0  2  0  0  3  0  0  0  0  0  0
  193.0570  170.4390  138.7790 C   0  0  0  0  0  2  0  0  0  0  0  0
  196.2980  171.4980  135.6360 O   0  0  0  0  0  1  0  0  0  0  0  0
  196.0320  170.3170  136.3290 C   0  0  0  0  0  2  0  0  0  0  0  0
  1 12  1  0  0  0  0
  2 11  1  0  0  0  0
  2 32  1  1  0  0  0
  3 29  1  0  0  0  0
  4  2  1  0  0  0  0
  5 15  1  0  0  0  0
  5  8  1  0  0  0  0
  6 11  1  0  0  0  0
  7  4  2  0  0  0  0
  8  7  1  0  0  0  0
  9  8  1  0  0  0  0
  9 14  2  0  0  0  0
 10  3  2  0  0  0  0
 12 13  1  0  0  0  0
 13  6  1  0  0  0  0
 13 10  2  0  0  0  0
 15  1  2  0  0  0  0
 16 19  1  6  0  0  0
 16 17  1  0  0  0  0
 16 22  1  0  0  0  0
 17  3  1  6  0  0  0
 17 18  1  0  0  0  0
 18 20  1  0  0  0  0
 21 20  1  0  0  0  0
 21 23  1  1  0  0  0
 22 19  1  6  0  0  0
 22 21  1  0  0  0  0
 23 25  2  0  0  0  0
 23 26  1  0  0  0  0
 24 23  2  0  0  0  0
 28 29  1  0  0  0  0
 29 27  1  0  0  0  0
 29 30  1  0  0  0  0
 31 36  1  0  0  0  0
 32 33  2  0  0  0  0
 32 31  1  0  0  0  0
 34 35  1  0  0  0  0
 34 31  1  0  0  0  0
 36 37  1  0  0  0  0
 38 37  1  0  0  0  0
 38 40  1  0  0  0  0
 41 40  1  0  0  0  0
 42 46  1  1  0  0  0
 42 44  1  0  0  0  0
 42 43  1  0  0  0  0
 43 39  1  6  0  0  0
 43 41  1  0  0  0  0
 44 38  1  0  0  0  0
 46 45  1  6  0  0  0
 47 50  1  1  0  0  0
 47 49  1  0  0  0  0
 47 48  1  0  0  0  0
 48 50  1  1  0  0  0
 49 46  1  6  0  0  0
 49 48  1  0  0  0  0
 51 52  1  0  0  0  0
 51  9  1  0  0  0  0
 53 52  1  0  0  0  0
 53 54  1  0  0  0  0
 54 55  2  0  0  0  0
 56 54  1  6  0  0  0
 56 59  1  0  0  0  0
 56 61  1  0  0  0  0
 58 60  1  0  0  0  0
 59 63  1  6  0  0  0
 59 58  1  0  0  0  0
 59 60  1  0  0  0  0
 60 57  1  1  0  0  0
 61 57  1  0  0  0  0
 62 63  1  0  0  0  0
M  END
>  <MODEL>
8

>  <REMARK>
 VINA RESULT:      -5.4      3.804      6.872
  Name = 
  16 active torsions:
  status: ('A' for Active; 'I' for Inactive)
    1  A    between atoms: C_1  and  N_25
    2  A    between atoms: C_1  and  C_41
    3  A    between atoms: S_2  and  C_50
    4  A    between atoms: O_3  and  N_19
    5  A    between atoms: C_6  and  C_11
    6  A    between atoms: C_7  and  C_23
    7  A    between atoms: C_9  and  C_21
    8  A    between atoms: C_9  and  C_24
    9  A    between atoms: C_10  and  C_11
   10  A    between atoms: C_10  and  N_25
   11  A    between atoms: N_13  and  C_47
   12  A    between atoms: N_19  and  C_54
   13  A    between atoms: C_32  and  C_40
   14  A    between atoms: C_32  and  C_45
   15  A    between atoms: C_43  and  C_57
   16  A    between atoms: C_47  and  C_54
                            x       y       z     vdW  Elec       q    Type
                         _______ _______ _______ _____ _____    ______ ____

>  <TORSDO>
F 16

$$$$
=
 OpenBabel11072409353D

 63 70  0  0  1  0  0  0  0  0999 V2000
  188.6950  174.4740  138.3790 N   0  0  0  0  0  0  0  0  0  0  0  0
  189.8350  171.2630  141.2370 C   0  0  2  0  0  3  0  0  0  0  0  0
  187.9970  176.1640  142.7890 C   0  0  0  0  0  0  0  0  0  0  0  0
  190.4150  171.4660  139.8670 C   0  0  0  0  0  3  0  0  0  0  0  0
  189.1180  172.7810  136.7010 C   0  0  0  0  0  2  0  0  0  0  0  0
  188.3410  173.1760  140.8810 N   0  0  0  0  0  2  0  0  0  0  0  0
  189.5990  171.5680  138.8270 C   0  0  0  0  0  3  0  0  0  0  0  0
  190.0330  171.9650  137.5150 N   0  0  0  0  0  0  0  0  0  0  0  0
  191.3280  171.6020  136.9940 C   0  0  0  0  0  0  0  0  0  0  0  0
  188.0830  175.3750  141.7460 C   0  0  0  0  0  0  0  0  0  0  0  0
  189.3140  172.5950  141.7970 C   0  0  0  0  0  2  0  0  0  0  0  0
  187.8520  175.1310  139.3460 C   0  0  0  0  0  2  0  0  0  0  0  0
  188.1470  174.5840  140.7100 C   0  0  0  0  0  0  0  0  0  0  0  0
  192.0720  170.8030  137.6250 O   0  0  0  0  0  0  0  0  0  0  0  0
  188.2050  173.6140  137.5620 C   0  0  0  0  0  3  0  0  0  0  0  0
  190.4290  176.6970  143.1290 C   0  0  1  0  0  3  0  0  0  0  0  0
  189.1170  176.2430  143.7840 C   0  0  2  0  0  3  0  0  0  0  0  0
  189.2870  174.9280  144.5560 C   0  0  0  0  0  2  0  0  0  0  0  0
  190.8670  177.9590  143.7460 N   0  0  0  0  0  2  0  0  0  0  0  0
  190.5070  174.9380  145.4860 C   0  0  0  0  0  2  0  0  0  0  0  0
  191.2390  176.2790  145.4880 C   0  0  2  0  0  3  0  0  0  0  0  0
  191.5810  176.7130  144.0590 C   0  0  1  0  0  3  0  0  0  0  0  0
  192.7150  176.1920  146.4850 S   0  0  0  0  0  0  0  0  0  0  0  0
  193.0170  174.7580  146.8130 O   0  0  0  0  0  0  0  0  0  0  0  0
  192.5080  176.9580  147.7590 O   0  0  0  0  0  0  0  0  0  0  0  0
  194.0890  176.8980  145.6120 C   0  0  0  0  0  1  0  0  0  0  0  0
  185.7990  176.6460  142.0920 F   0  0  0  0  0  0  0  0  0  0  0  0
  187.0480  178.3130  142.9520 F   0  0  0  0  0  0  0  0  0  0  0  0
  186.7510  176.9650  143.0430 C   0  0  0  0  0  0  0  0  0  0  0  0
  186.2290  176.7090  144.3000 F   0  0  0  0  0  0  0  0  0  0  0  0
  191.7350  171.4740  142.9220 N   0  0  0  0  0  0  0  0  0  0  0  0
  190.8390  170.6440  142.1690 C   0  0  0  0  0  0  0  0  0  0  0  0
  190.8800  169.3930  142.3120 O   0  0  0  0  0  0  0  0  0  0  0  0
  191.9310  172.7700  142.5630 O   0  0  0  0  0  0  0  0  0  0  0  0
  192.7360  173.3210  143.5660 C   0  0  0  0  0  1  0  0  0  0  0  0
  192.1490  171.0420  144.2530 C   0  0  0  0  0  2  0  0  0  0  0  0
  193.1300  169.8640  144.1980 C   0  0  0  0  0  2  0  0  0  0  0  0
  194.2290  170.0240  143.2360 N   0  0  0  0  0  0  0  0  0  0  0  0
  197.8360  170.1250  141.2270 O   0  0  0  0  0  1  0  0  0  0  0  0
  194.9570  168.7620  143.1290 C   0  0  0  0  0  2  0  0  0  0  0  0
  195.9720  168.8640  141.9990 C   0  0  0  0  0  2  0  0  0  0  0  0
  196.2710  171.2940  142.6280 C   0  0  1  0  0  3  0  0  0  0  0  0
  196.9770  169.9640  142.3130 C   0  0  2  0  0  3  0  0  0  0  0  0
  195.1440  171.0940  143.6520 C   0  0  0  0  0  2  0  0  0  0  0  0
  197.7420  173.0990  142.0300 O   0  0  0  0  0  1  0  0  0  0  0  0
  197.2750  172.3500  143.1150 C   0  0  1  0  0  3  0  0  0  0  0  0
  197.7310  173.8050  145.1170 C   0  0  1  0  0  3  0  0  0  0  0  0
  196.8630  172.6590  145.5510 C   0  0  2  0  0  3  0  0  0  0  0  0
  196.6650  173.2700  144.1760 C   0  0  2  0  0  3  0  0  0  0  0  0
  197.1680  173.7790  146.5280 C   0  0  0  0  0  2  0  0  0  0  0  0
  191.8160  172.1460  135.6900 C   0  0  0  0  0  2  0  0  0  0  0  0
  193.1090  172.7860  135.8630 N   0  0  0  0  0  2  0  0  0  0  0  0
  192.9080  174.2150  135.6800 C   0  0  0  0  0  2  0  0  0  0  0  0
  194.0940  174.9580  136.1950 C   0  0  0  0  0  0  0  0  0  0  0  0
  193.9360  176.0030  136.8100 O   0  0  0  0  0  0  0  0  0  0  0  0
  195.4750  174.4170  135.9500 C   0  0  2  0  0  3  0  0  0  0  0  0
  197.3120  176.0210  135.9960 C   0  0  0  0  0  2  0  0  0  0  0  0
  197.6560  173.8420  137.0680 N   0  0  0  0  0  2  0  0  0  0  0  0
  196.2650  174.2800  137.2440 C   0  0  1  0  0  0  0  0  0  0  0  0
  197.3290  175.2620  137.3160 C   0  0  2  0  0  3  0  0  0  0  0  0
  196.2610  175.3920  135.0900 C   0  0  0  0  0  2  0  0  0  0  0  0
  195.7100  172.4300  138.6420 O   0  0  0  0  0  1  0  0  0  0  0  0
  195.6550  173.8210  138.5580 C   0  0  0  0  0  2  0  0  0  0  0  0
  1 12  1  0  0  0  0
  2 11  1  0  0  0  0
  2 32  1  1  0  0  0
  3 29  1  0  0  0  0
  4  2  1  0  0  0  0
  5  8  1  0  0  0  0
  5 15  1  0  0  0  0
  6 11  1  0  0  0  0
  7  4  2  0  0  0  0
  8  7  1  0  0  0  0
  9  8  1  0  0  0  0
  9 14  2  0  0  0  0
 10  3  2  0  0  0  0
 12 13  1  0  0  0  0
 13  6  1  0  0  0  0
 13 10  2  0  0  0  0
 15  1  2  0  0  0  0
 16 19  1  1  0  0  0
 16 17  1  0  0  0  0
 16 22  1  0  0  0  0
 17  3  1  6  0  0  0
 17 18  1  0  0  0  0
 18 20  1  0  0  0  0
 20 21  1  0  0  0  0
 21 23  1  1  0  0  0
 22 19  1  1  0  0  0
 22 21  1  0  0  0  0
 23 24  2  0  0  0  0
 23 25  2  0  0  0  0
 26 23  1  0  0  0  0
 27 29  1  0  0  0  0
 28 29  1  0  0  0  0
 29 30  1  0  0  0  0
 31 36  1  0  0  0  0
 32 33  2  0  0  0  0
 32 31  1  0  0  0  0
 34 31  1  0  0  0  0
 34 35  1  0  0  0  0
 37 36  1  0  0  0  0
 38 44  1  0  0  0  0
 38 37  1  0  0  0  0
 40 38  1  0  0  0  0
 41 43  1  0  0  0  0
 41 40  1  0  0  0  0
 42 46  1  1  0  0  0
 42 44  1  0  0  0  0
 43 39  1  6  0  0  0
 43 42  1  0  0  0  0
 46 45  1  6  0  0  0
 47 48  1  0  0  0  0
 47 50  1  1  0  0  0
 48 50  1  1  0  0  0
 49 46  1  6  0  0  0
 49 47  1  0  0  0  0
 49 48  1  0  0  0  0
 51 52  1  0  0  0  0
 51  9  1  0  0  0  0
 53 52  1  0  0  0  0
 53 54  1  0  0  0  0
 54 55  2  0  0  0  0
 56 54  1  1  0  0  0
 56 59  1  0  0  0  0
 58 59  1  0  0  0  0
 58 60  1  0  0  0  0
 59 60  1  0  0  0  0
 59 63  1  1  0  0  0
 60 57  1  6  0  0  0
 61 56  1  0  0  0  0
 61 57  1  0  0  0  0
 63 62  1  0  0  0  0
M  END
>  <MODEL>
9

>  <REMARK>
 VINA RESULT:      -5.2      1.990      2.716
  Name = 
  16 active torsions:
  status: ('A' for Active; 'I' for Inactive)
    1  A    between atoms: C_1  and  N_25
    2  A    between atoms: C_1  and  C_41
    3  A    between atoms: S_2  and  C_50
    4  A    between atoms: O_3  and  N_19
    5  A    between atoms: C_6  and  C_11
    6  A    between atoms: C_7  and  C_23
    7  A    between atoms: C_9  and  C_21
    8  A    between atoms: C_9  and  C_24
    9  A    between atoms: C_10  and  C_11
   10  A    between atoms: C_10  and  N_25
   11  A    between atoms: N_13  and  C_47
   12  A    between atoms: N_19  and  C_54
   13  A    between atoms: C_32  and  C_40
   14  A    between atoms: C_32  and  C_45
   15  A    between atoms: C_43  and  C_57
   16  A    between atoms: C_47  and  C_54
                            x       y       z     vdW  Elec       q    Type
                         _______ _______ _______ _____ _____    ______ ____

>  <TORSDO>
F 16

$$$$
