=
 OpenBabel11062419513D

 30 33  0  0  1  0  0  0  0  0999 V2000
  189.5160  175.1000  146.7570 C   0  0  0  0  0  3  0  0  0  0  0  0
  190.4230  174.4130  146.1170 C   0  0  0  0  0  0  0  0  0  0  0  0
  189.7620  177.4550  144.2660 C   0  0  0  0  0  2  0  0  0  0  0  0
  193.9220  176.3760  144.9890 C   0  0  2  0  0  3  0  0  0  0  0  0
  192.3620  175.9710  142.4260 C   0  0  0  0  0  2  0  0  0  0  0  0
  189.5780  176.5620  146.6560 C   0  0  0  0  0  0  0  0  0  0  0  0
  191.2950  173.7730  145.3890 C   0  0  0  0  0  3  0  0  0  0  0  0
  192.4220  176.6920  144.8480 C   0  0  0  0  0  2  0  0  0  0  0  0
  194.5510  175.8540  143.6920 C   0  0  0  0  0  2  0  0  0  0  0  0
  191.7130  175.7900  143.8110 C   0  0  1  0  0  0  0  0  0  0  0  0
  193.8340  176.4160  142.4720 C   0  0  1  0  0  3  0  0  0  0  0  0
  190.2120  176.1230  143.6460 C   0  0  0  0  0  2  0  0  0  0  0  0
  194.4880  176.0130  141.3110 O   0  0  0  0  0  1  0  0  0  0  0  0
  191.8480  174.3800  144.2080 N   0  0  0  0  0  2  0  0  0  0  0  0
  188.8910  177.3010  145.5280 C   0  0  2  0  0  3  0  0  0  0  0  0
  190.4190  177.1880  147.3600 O   0  0  0  0  0  0  0  0  0  0  0  0
  195.3840  174.8840  145.7610 C   0  0  0  0  0  1  0  0  0  0  0  0
  194.1420  175.4690  146.0350 O   0  0  0  0  0  0  0  0  0  0  0  0
  187.4280  176.9010  145.2410 C   0  0  2  0  0  3  0  0  0  0  0  0
  187.0190  177.3250  143.8550 C   0  0  0  0  0  0  0  0  0  0  0  0
  186.2330  179.0440  142.3880 N   0  0  0  0  0  0  0  0  0  0  0  0
  186.8190  176.3850  142.8360 C   0  0  0  0  0  3  0  0  0  0  0  0
  186.0220  178.1370  141.3900 C   0  0  0  0  0  3  0  0  0  0  0  0
  186.6920  178.6640  143.6080 C   0  0  0  0  0  3  0  0  0  0  0  0
  186.3170  176.7910  141.6000 C   0  0  0  0  0  3  0  0  0  0  0  0
  186.4820  177.4770  146.2530 C   0  0  0  0  0  0  0  0  0  0  0  0
  184.5160  178.2910  147.5530 N   0  0  0  0  0  0  0  0  0  0  0  0
  184.8300  177.2790  146.2720 S   0  0  0  0  0  0  0  0  0  0  0  0
  186.8230  178.3580  147.2190 N   0  0  0  0  0  0  0  0  0  0  0  0
  185.7330  178.7830  147.9290 C   0  0  0  0  0  3  0  0  0  0  0  0
  2  1  2  0  0  0  0
  3 15  1  0  0  0  0
  4 18  1  1  0  0  0
  5 11  1  0  0  0  0
  6  1  1  0  0  0  0
  6 16  2  0  0  0  0
  7  2  2  0  0  0  0
  8  4  1  0  0  0  0
  9  4  1  0  0  0  0
 10  5  1  6  0  0  0
 10 14  1  0  0  0  0
 10  8  1  0  0  0  0
 11 13  1  6  0  0  0
 11  9  1  0  0  0  0
 12 10  1  0  0  0  0
 12  3  1  0  0  0  0
 14  7  1  0  0  0  0
 15 19  1  6  0  0  0
 15  6  1  0  0  0  0
 17 18  1  0  0  0  0
 19 20  1  6  0  0  0
 19 26  1  0  0  0  0
 21 24  2  0  0  0  0
 22 20  2  0  0  0  0
 23 25  2  0  0  0  0
 23 21  1  0  0  0  0
 24 20  1  0  0  0  0
 25 22  1  0  0  0  0
 26 28  1  0  0  0  0
 26 29  2  0  0  0  0
 27 30  2  0  0  0  0
 28 27  1  0  0  0  0
 29 30  1  0  0  0  0
M  END
>  <MODEL>
1

>  <REMARK>
 VINA RESULT:      -7.5      0.000      0.000
  Name = 
  4 active torsions:
  status: ('A' for Active; 'I' for Inactive)
    1  A    between atoms: C_2  and  C_11
    2  A    between atoms: C_5  and  C_11
    3  A    between atoms: C_9  and  O_28
    4  A    between atoms: C_11  and  C_29
                            x       y       z     vdW  Elec       q    Type
                         _______ _______ _______ _____ _____    ______ ____

>  <TORSDO>
F 4

$$$$
=
 OpenBabel11062419513D

 30 33  0  0  1  0  0  0  0  0999 V2000
  188.9680  178.1430  141.8770 C   0  0  0  0  0  3  0  0  0  0  0  0
  190.0780  178.1940  142.5610 C   0  0  0  0  0  0  0  0  0  0  0  0
  187.6120  176.3790  144.4960 C   0  0  0  0  0  2  0  0  0  0  0  0
  191.5830  174.6260  144.1040 C   0  0  2  0  0  3  0  0  0  0  0  0
  190.4970  176.1420  146.4890 C   0  0  0  0  0  2  0  0  0  0  0  0
  188.1150  176.9630  142.0580 C   0  0  0  0  0  0  0  0  0  0  0  0
  191.1290  178.2360  143.3330 C   0  0  0  0  0  3  0  0  0  0  0  0
  190.2020  175.3040  144.1230 C   0  0  0  0  0  2  0  0  0  0  0  0
  192.3470  174.7790  145.4250 C   0  0  0  0  0  2  0  0  0  0  0  0
  190.1540  176.5460  145.0430 C   0  0  1  0  0  0  0  0  0  0  0  0
  191.3860  174.8910  146.6010 C   0  0  1  0  0  3  0  0  0  0  0  0
  188.7600  177.2130  145.0870 C   0  0  0  0  0  2  0  0  0  0  0  0
  192.1010  174.9220  147.7950 O   0  0  0  0  0  1  0  0  0  0  0  0
  191.1430  177.5370  144.5890 N   0  0  0  0  0  2  0  0  0  0  0  0
  187.0730  176.9080  143.1530 C   0  0  2  0  0  3  0  0  0  0  0  0
  188.4220  175.8910  141.4660 O   0  0  0  0  0  0  0  0  0  0  0  0
  191.6990  174.6780  141.8800 C   0  0  0  0  0  1  0  0  0  0  0  0
  192.3580  175.1060  143.0380 O   0  0  0  0  0  0  0  0  0  0  0  0
  186.1540  178.1420  143.2840 C   0  0  2  0  0  3  0  0  0  0  0  0
  185.6210  178.2650  144.6880 C   0  0  0  0  0  0  0  0  0  0  0  0
  185.4560  179.5290  146.7120 N   0  0  0  0  0  0  0  0  0  0  0  0
  185.0220  177.1770  145.3370 C   0  0  0  0  0  3  0  0  0  0  0  0
  184.8840  178.4740  147.3600 C   0  0  0  0  0  3  0  0  0  0  0  0
  185.8500  179.4390  145.4170 C   0  0  0  0  0  3  0  0  0  0  0  0
  184.6550  177.2800  146.6780 C   0  0  0  0  0  3  0  0  0  0  0  0
  185.0170  178.0980  142.3060 C   0  0  0  0  0  0  0  0  0  0  0  0
  183.5280  178.1760  140.3080 N   0  0  0  0  0  0  0  0  0  0  0  0
  185.1530  178.0950  140.6470 S   0  0  0  0  0  0  0  0  0  0  0  0
  183.7100  178.1960  142.6330 N   0  0  0  0  0  0  0  0  0  0  0  0
  182.9080  178.2240  141.5240 C   0  0  0  0  0  3  0  0  0  0  0  0
  1  6  1  0  0  0  0
  1  2  2  0  0  0  0
  2  7  2  0  0  0  0
  3 12  1  0  0  0  0
  4 18  1  6  0  0  0
  4  8  1  0  0  0  0
  4  9  1  0  0  0  0
  5 11  1  0  0  0  0
  6 15  1  0  0  0  0
  7 14  1  0  0  0  0
  9 11  1  0  0  0  0
 10  8  1  6  0  0  0
 10 12  1  0  0  0  0
 10  5  1  0  0  0  0
 11 13  1  1  0  0  0
 14 10  1  0  0  0  0
 15 19  1  1  0  0  0
 15  3  1  0  0  0  0
 16  6  2  0  0  0  0
 17 18  1  0  0  0  0
 19 26  1  6  0  0  0
 19 20  1  0  0  0  0
 20 22  2  0  0  0  0
 20 24  1  0  0  0  0
 21 23  1  0  0  0  0
 22 25  1  0  0  0  0
 24 21  2  0  0  0  0
 25 23  2  0  0  0  0
 26 29  2  0  0  0  0
 27 28  1  0  0  0  0
 27 30  2  0  0  0  0
 28 26  1  0  0  0  0
 30 29  1  0  0  0  0
M  END
>  <MODEL>
2

>  <REMARK>
 VINA RESULT:      -7.5      2.410      4.617
  Name = 
  4 active torsions:
  status: ('A' for Active; 'I' for Inactive)
    1  A    between atoms: C_2  and  C_11
    2  A    between atoms: C_5  and  C_11
    3  A    between atoms: C_9  and  O_28
    4  A    between atoms: C_11  and  C_29
                            x       y       z     vdW  Elec       q    Type
                         _______ _______ _______ _____ _____    ______ ____

>  <TORSDO>
F 4

$$$$
=
 OpenBabel11062419513D

 30 33  0  0  1  0  0  0  0  0999 V2000
  188.7610  176.0670  145.8290 C   0  0  0  0  0  3  0  0  0  0  0  0
  189.4650  175.0000  145.5660 C   0  0  0  0  0  0  0  0  0  0  0  0
  188.5980  176.6080  142.4380 C   0  0  0  0  0  2  0  0  0  0  0  0
  192.7450  175.4030  143.0250 C   0  0  2  0  0  3  0  0  0  0  0  0
  190.6440  173.9450  141.4050 C   0  0  0  0  0  2  0  0  0  0  0  0
  188.8860  177.2040  144.9090 C   0  0  0  0  0  0  0  0  0  0  0  0
  190.1200  173.9290  145.2090 C   0  0  0  0  0  3  0  0  0  0  0  0
  191.2720  175.8420  142.9520 C   0  0  0  0  0  2  0  0  0  0  0  0
  193.0460  174.1610  142.1770 C   0  0  0  0  0  2  0  0  0  0  0  0
  190.3020  174.6590  142.7270 C   0  0  1  0  0  0  0  0  0  0  0  0
  192.1150  174.0830  140.9740 C   0  0  1  0  0  3  0  0  0  0  0  0
  188.8240  175.0990  142.6240 C   0  0  0  0  0  2  0  0  0  0  0  0
  192.4750  173.0100  140.1660 O   0  0  0  0  0  1  0  0  0  0  0  0
  190.4370  173.6920  143.8270 N   0  0  0  0  0  2  0  0  0  0  0  0
  188.0150  177.3160  143.6770 C   0  0  2  0  0  3  0  0  0  0  0  0
  189.8950  177.9570  145.0030 O   0  0  0  0  0  0  0  0  0  0  0  0
  193.0900  176.4470  144.9620 C   0  0  0  0  0  1  0  0  0  0  0  0
  193.1340  175.1870  144.3550 O   0  0  0  0  0  0  0  0  0  0  0  0
  186.5040  177.0810  143.8860 C   0  0  2  0  0  3  0  0  0  0  0  0
  185.7140  177.6080  142.7160 C   0  0  0  0  0  0  0  0  0  0  0  0
  183.5980  178.2260  141.7860 N   0  0  0  0  0  0  0  0  0  0  0  0
  186.2930  177.7360  141.4470 C   0  0  0  0  0  3  0  0  0  0  0  0
  184.1450  178.3430  140.5420 C   0  0  0  0  0  3  0  0  0  0  0  0
  184.3400  177.8400  142.8550 C   0  0  0  0  0  3  0  0  0  0  0  0
  185.5060  178.1020  140.3550 C   0  0  0  0  0  3  0  0  0  0  0  0
  186.0120  177.7040  145.1590 C   0  0  0  0  0  0  0  0  0  0  0  0
  184.8770  178.2720  147.3050 N   0  0  0  0  0  0  0  0  0  0  0  0
  185.1470  176.9350  146.3550 S   0  0  0  0  0  0  0  0  0  0  0  0
  186.0810  179.0210  145.4540 N   0  0  0  0  0  0  0  0  0  0  0  0
  185.4640  179.3100  146.6400 C   0  0  0  0  0  3  0  0  0  0  0  0
  2  1  2  0  0  0  0
  3 12  1  0  0  0  0
  3 15  1  0  0  0  0
  4 18  1  1  0  0  0
  6 16  2  0  0  0  0
  6  1  1  0  0  0  0
  7  2  2  0  0  0  0
  8  4  1  0  0  0  0
  9  4  1  0  0  0  0
 10  5  1  6  0  0  0
 10  8  1  0  0  0  0
 10 14  1  0  0  0  0
 11 13  1  6  0  0  0
 11  5  1  0  0  0  0
 11  9  1  0  0  0  0
 12 10  1  0  0  0  0
 14  7  1  0  0  0  0
 15 19  1  1  0  0  0
 15  6  1  0  0  0  0
 18 17  1  0  0  0  0
 19 20  1  6  0  0  0
 19 26  1  0  0  0  0
 20 24  1  0  0  0  0
 21 24  2  0  0  0  0
 22 20  2  0  0  0  0
 23 21  1  0  0  0  0
 25 23  2  0  0  0  0
 25 22  1  0  0  0  0
 26 29  2  0  0  0  0
 26 28  1  0  0  0  0
 28 27  1  0  0  0  0
 29 30  1  0  0  0  0
 30 27  2  0  0  0  0
M  END
>  <MODEL>
3

>  <REMARK>
 VINA RESULT:      -7.2      1.757      2.175
  Name = 
  4 active torsions:
  status: ('A' for Active; 'I' for Inactive)
    1  A    between atoms: C_2  and  C_11
    2  A    between atoms: C_5  and  C_11
    3  A    between atoms: C_9  and  O_28
    4  A    between atoms: C_11  and  C_29
                            x       y       z     vdW  Elec       q    Type
                         _______ _______ _______ _____ _____    ______ ____

>  <TORSDO>
F 4

$$$$
=
 OpenBabel11062419513D

 30 33  0  0  1  0  0  0  0  0999 V2000
  188.6800  175.8650  142.0730 C   0  0  0  0  0  3  0  0  0  0  0  0
  187.4600  175.8110  142.5360 C   0  0  0  0  0  0  0  0  0  0  0  0
  189.5920  177.2800  145.0700 C   0  0  0  0  0  2  0  0  0  0  0  0
  185.8350  179.2910  144.1550 C   0  0  2  0  0  3  0  0  0  0  0  0
  186.3980  177.4870  146.5200 C   0  0  0  0  0  2  0  0  0  0  0  0
  189.5300  176.9690  142.5320 C   0  0  0  0  0  0  0  0  0  0  0  0
  186.2840  175.7540  143.0960 C   0  0  0  0  0  3  0  0  0  0  0  0
  187.1610  178.5350  144.3510 C   0  0  0  0  0  2  0  0  0  0  0  0
  184.8330  179.0530  145.2920 C   0  0  0  0  0  2  0  0  0  0  0  0
  186.9880  177.2080  145.1250 C   0  0  1  0  0  0  0  0  0  0  0  0
  185.5530  178.7700  146.6040 C   0  0  1  0  0  3  0  0  0  0  0  0
  188.3220  176.4600  145.3490 C   0  0  0  0  0  2  0  0  0  0  0  0
  184.6280  178.6630  147.6380 O   0  0  0  0  0  1  0  0  0  0  0  0
  186.0630  176.3260  144.3960 N   0  0  0  0  0  2  0  0  0  0  0  0
  190.3500  176.8550  143.7970 C   0  0  2  0  0  3  0  0  0  0  0  0
  189.3800  178.1110  142.0130 O   0  0  0  0  0  0  0  0  0  0  0  0
  183.9180  178.6660  143.2090 C   0  0  0  0  0  1  0  0  0  0  0  0
  185.2540  178.9650  142.9220 O   0  0  0  0  0  0  0  0  0  0  0  0
  191.1800  175.5630  143.9590 C   0  0  2  0  0  3  0  0  0  0  0  0
  192.3130  175.7730  144.9290 C   0  0  0  0  0  0  0  0  0  0  0  0
  194.0770  177.1680  145.7470 N   0  0  0  0  0  0  0  0  0  0  0  0
  192.7970  174.7230  145.7200 C   0  0  0  0  0  3  0  0  0  0  0  0
  194.5660  176.1510  146.5130 C   0  0  0  0  0  3  0  0  0  0  0  0
  192.9960  176.9960  144.9450 C   0  0  0  0  0  3  0  0  0  0  0  0
  193.9290  174.9100  146.5130 C   0  0  0  0  0  3  0  0  0  0  0  0
  191.7140  175.0740  142.6450 C   0  0  0  0  0  0  0  0  0  0  0  0
  192.3540  173.7750  140.6150 N   0  0  0  0  0  0  0  0  0  0  0  0
  191.2610  173.6760  141.8640 S   0  0  0  0  0  0  0  0  0  0  0  0
  192.7450  175.6310  141.9720 N   0  0  0  0  0  0  0  0  0  0  0  0
  193.0720  174.9110  140.8550 C   0  0  0  0  0  3  0  0  0  0  0  0
  1  6  1  0  0  0  0
  1  2  2  0  0  0  0
  2  7  2  0  0  0  0
  3 12  1  0  0  0  0
  4 18  1  6  0  0  0
  4  8  1  0  0  0  0
  4  9  1  0  0  0  0
  5 11  1  0  0  0  0
  6 15  1  0  0  0  0
  7 14  1  0  0  0  0
  9 11  1  0  0  0  0
 10  8  1  6  0  0  0
 10 12  1  0  0  0  0
 10  5  1  0  0  0  0
 11 13  1  1  0  0  0
 14 10  1  0  0  0  0
 15 19  1  1  0  0  0
 15  3  1  0  0  0  0
 16  6  2  0  0  0  0
 18 17  1  0  0  0  0
 19 26  1  6  0  0  0
 19 20  1  0  0  0  0
 20 24  2  0  0  0  0
 20 22  1  0  0  0  0
 21 23  2  0  0  0  0
 22 25  2  0  0  0  0
 23 25  1  0  0  0  0
 24 21  1  0  0  0  0
 27 30  2  0  0  0  0
 27 28  1  0  0  0  0
 28 26  1  0  0  0  0
 29 26  2  0  0  0  0
 30 29  1  0  0  0  0
M  END
>  <MODEL>
4

>  <REMARK>
 VINA RESULT:      -7.1      3.065      7.757
  Name = 
  4 active torsions:
  status: ('A' for Active; 'I' for Inactive)
    1  A    between atoms: C_2  and  C_11
    2  A    between atoms: C_5  and  C_11
    3  A    between atoms: C_9  and  O_28
    4  A    between atoms: C_11  and  C_29
                            x       y       z     vdW  Elec       q    Type
                         _______ _______ _______ _____ _____    ______ ____

>  <TORSDO>
F 4

$$$$
=
 OpenBabel11062419513D

 30 33  0  0  1  0  0  0  0  0999 V2000
  189.9500  177.2080  145.5430 C   0  0  0  0  0  3  0  0  0  0  0  0
  190.7190  176.6140  146.4160 C   0  0  0  0  0  0  0  0  0  0  0  0
  191.1110  174.9580  143.2180 C   0  0  0  0  0  2  0  0  0  0  0  0
  194.7220  176.0310  145.4090 C   0  0  2  0  0  3  0  0  0  0  0  0
  193.4430  173.2920  145.2510 C   0  0  0  0  0  2  0  0  0  0  0  0
  190.4040  177.2330  144.1480 C   0  0  0  0  0  0  0  0  0  0  0  0
  191.4790  175.9330  147.2280 C   0  0  0  0  0  3  0  0  0  0  0  0
  193.3860  175.7560  144.6960 C   0  0  0  0  0  2  0  0  0  0  0  0
  195.3500  174.7700  146.0150 C   0  0  0  0  0  2  0  0  0  0  0  0
  192.6010  174.5800  145.3210 C   0  0  1  0  0  0  0  0  0  0  0  0
  194.9620  173.5300  145.2210 C   0  0  1  0  0  3  0  0  0  0  0  0
  191.2720  174.2830  144.5890 C   0  0  0  0  0  2  0  0  0  0  0  0
  195.6280  172.4170  145.7250 O   0  0  0  0  0  1  0  0  0  0  0  0
  192.3130  174.8720  146.7340 N   0  0  0  0  0  2  0  0  0  0  0  0
  190.0800  176.1030  143.1960 C   0  0  2  0  0  3  0  0  0  0  0  0
  191.2840  178.0720  143.8080 O   0  0  0  0  0  0  0  0  0  0  0  0
  194.9760  178.2100  145.7910 C   0  0  0  0  0  1  0  0  0  0  0  0
  194.5660  177.0160  146.3940 O   0  0  0  0  0  0  0  0  0  0  0  0
  188.6110  175.6300  143.1740 C   0  0  2  0  0  3  0  0  0  0  0  0
  188.3700  174.6830  142.0270 C   0  0  0  0  0  0  0  0  0  0  0  0
  187.9700  172.4520  141.2620 N   0  0  0  0  0  0  0  0  0  0  0  0
  188.5550  175.0890  140.6990 C   0  0  0  0  0  3  0  0  0  0  0  0
  188.1600  172.8300  139.9650 C   0  0  0  0  0  3  0  0  0  0  0  0
  188.0970  173.3340  142.2860 C   0  0  0  0  0  3  0  0  0  0  0  0
  188.4520  174.1600  139.6640 C   0  0  0  0  0  3  0  0  0  0  0  0
  187.6530  176.7820  143.0970 C   0  0  0  0  0  0  0  0  0  0  0  0
  185.6900  178.3180  143.1680 N   0  0  0  0  0  0  0  0  0  0  0  0
  186.1520  176.8570  143.8120 S   0  0  0  0  0  0  0  0  0  0  0  0
  187.8150  177.8740  142.3170 N   0  0  0  0  0  0  0  0  0  0  0  0
  186.7340  178.7100  142.3790 C   0  0  0  0  0  3  0  0  0  0  0  0
  1  2  2  0  0  0  0
  2  7  2  0  0  0  0
  3 12  1  0  0  0  0
  4  9  1  0  0  0  0
  4 18  1  1  0  0  0
  5 10  1  0  0  0  0
  6  1  1  0  0  0  0
  8 10  1  0  0  0  0
  8  4  1  0  0  0  0
 10 12  1  6  0  0  0
 10 14  1  0  0  0  0
 11  5  1  0  0  0  0
 11 13  1  1  0  0  0
 11  9  1  0  0  0  0
 14  7  1  0  0  0  0
 15 19  1  1  0  0  0
 15  3  1  0  0  0  0
 15  6  1  0  0  0  0
 16  6  2  0  0  0  0
 17 18  1  0  0  0  0
 19 20  1  6  0  0  0
 20 24  1  0  0  0  0
 21 24  2  0  0  0  0
 22 20  2  0  0  0  0
 23 21  1  0  0  0  0
 25 23  2  0  0  0  0
 25 22  1  0  0  0  0
 26 19  1  0  0  0  0
 26 28  1  0  0  0  0
 27 28  1  0  0  0  0
 29 30  1  0  0  0  0
 29 26  2  0  0  0  0
 30 27  2  0  0  0  0
M  END
>  <MODEL>
5

>  <REMARK>
 VINA RESULT:      -6.7      2.385      3.751
  Name = 
  4 active torsions:
  status: ('A' for Active; 'I' for Inactive)
    1  A    between atoms: C_2  and  C_11
    2  A    between atoms: C_5  and  C_11
    3  A    between atoms: C_9  and  O_28
    4  A    between atoms: C_11  and  C_29
                            x       y       z     vdW  Elec       q    Type
                         _______ _______ _______ _____ _____    ______ ____

>  <TORSDO>
F 4

$$$$
=
 OpenBabel11062419513D

 30 33  0  0  1  0  0  0  0  0999 V2000
  188.8570  175.7340  142.1950 C   0  0  0  0  0  3  0  0  0  0  0  0
  187.5750  175.6490  142.4270 C   0  0  0  0  0  0  0  0  0  0  0  0
  189.0870  177.6580  145.0340 C   0  0  0  0  0  2  0  0  0  0  0  0
  185.4780  179.1830  143.1240 C   0  0  2  0  0  3  0  0  0  0  0  0
  185.6640  177.8110  145.8160 C   0  0  0  0  0  2  0  0  0  0  0  0
  189.5400  176.9630  142.6150 C   0  0  0  0  0  0  0  0  0  0  0  0
  186.3170  175.5770  142.7620 C   0  0  0  0  0  3  0  0  0  0  0  0
  186.7790  178.5800  143.6830 C   0  0  0  0  0  2  0  0  0  0  0  0
  184.2880  179.0350  144.0800 C   0  0  0  0  0  2  0  0  0  0  0  0
  186.5310  177.3750  144.6190 C   0  0  1  0  0  0  0  0  0  0  0  0
  184.7510  179.0150  145.5300 C   0  0  1  0  0  3  0  0  0  0  0  0
  187.8340  176.7850  145.2050 C   0  0  0  0  0  2  0  0  0  0  0  0
  183.6490  178.9880  146.3790 O   0  0  0  0  0  1  0  0  0  0  0  0
  185.8150  176.3180  143.8870 N   0  0  0  0  0  2  0  0  0  0  0  0
  190.1020  177.1110  144.0110 C   0  0  2  0  0  3  0  0  0  0  0  0
  189.4330  177.9970  141.8960 O   0  0  0  0  0  0  0  0  0  0  0  0
  183.8050  178.3180  141.9350 C   0  0  0  0  0  1  0  0  0  0  0  0
  185.1690  178.6260  141.8750 O   0  0  0  0  0  0  0  0  0  0  0  0
  190.9520  175.9340  144.5330 C   0  0  2  0  0  3  0  0  0  0  0  0
  191.2190  176.0800  146.0090 C   0  0  0  0  0  0  0  0  0  0  0  0
  192.4970  177.0740  147.7700 N   0  0  0  0  0  0  0  0  0  0  0  0
  190.6320  175.2160  146.9430 C   0  0  0  0  0  3  0  0  0  0  0  0
  191.9430  176.2310  148.6890 C   0  0  0  0  0  3  0  0  0  0  0  0
  192.1790  176.9970  146.4530 C   0  0  0  0  0  3  0  0  0  0  0  0
  190.9960  175.2890  148.2870 C   0  0  0  0  0  3  0  0  0  0  0  0
  192.2480  175.8070  143.7880 C   0  0  0  0  0  0  0  0  0  0  0  0
  194.5020  175.1820  142.9240 N   0  0  0  0  0  0  0  0  0  0  0  0
  193.3140  174.5320  143.8880 S   0  0  0  0  0  0  0  0  0  0  0  0
  192.8060  176.7780  143.0320 N   0  0  0  0  0  0  0  0  0  0  0  0
  194.0350  176.4110  142.5570 C   0  0  0  0  0  3  0  0  0  0  0  0
  1  2  2  0  0  0  0
  1  6  1  0  0  0  0
  2  7  2  0  0  0  0
  3 12  1  0  0  0  0
  4 18  1  6  0  0  0
  4  8  1  0  0  0  0
  4  9  1  0  0  0  0
  6 15  1  0  0  0  0
  7 14  1  0  0  0  0
  9 11  1  0  0  0  0
 10  8  1  6  0  0  0
 10 12  1  0  0  0  0
 10  5  1  0  0  0  0
 11  5  1  0  0  0  0
 11 13  1  1  0  0  0
 14 10  1  0  0  0  0
 15 19  1  1  0  0  0
 15  3  1  0  0  0  0
 16  6  2  0  0  0  0
 18 17  1  0  0  0  0
 19 26  1  6  0  0  0
 19 20  1  0  0  0  0
 20 24  2  0  0  0  0
 20 22  1  0  0  0  0
 21 23  2  0  0  0  0
 22 25  2  0  0  0  0
 24 21  1  0  0  0  0
 25 23  1  0  0  0  0
 26 28  1  0  0  0  0
 27 28  1  0  0  0  0
 29 26  2  0  0  0  0
 30 27  2  0  0  0  0
 30 29  1  0  0  0  0
M  END
>  <MODEL>
6

>  <REMARK>
 VINA RESULT:      -6.5      3.296      7.718
  Name = 
  4 active torsions:
  status: ('A' for Active; 'I' for Inactive)
    1  A    between atoms: C_2  and  C_11
    2  A    between atoms: C_5  and  C_11
    3  A    between atoms: C_9  and  O_28
    4  A    between atoms: C_11  and  C_29
                            x       y       z     vdW  Elec       q    Type
                         _______ _______ _______ _____ _____    ______ ____

>  <TORSDO>
F 4

$$$$
=
 OpenBabel11062419513D

 30 33  0  0  1  0  0  0  0  0999 V2000
  191.5980  176.2230  145.3050 C   0  0  0  0  0  3  0  0  0  0  0  0
  190.8350  177.2410  145.0130 C   0  0  0  0  0  0  0  0  0  0  0  0
  189.3220  174.2400  143.6620 C   0  0  0  0  0  2  0  0  0  0  0  0
  186.7770  176.9620  145.9230 C   0  0  2  0  0  3  0  0  0  0  0  0
  186.9460  176.7180  142.9110 C   0  0  0  0  0  2  0  0  0  0  0  0
  190.9450  174.9260  145.5150 C   0  0  0  0  0  0  0  0  0  0  0  0
  190.0390  178.2030  144.6360 C   0  0  0  0  0  3  0  0  0  0  0  0
  187.7790  176.0450  145.2000 C   0  0  0  0  0  2  0  0  0  0  0  0
  185.8580  177.7260  144.9620 C   0  0  0  0  0  2  0  0  0  0  0  0
  188.1900  176.5820  143.8090 C   0  0  1  0  0  0  0  0  0  0  0  0
  185.6320  176.9370  143.6790 C   0  0  1  0  0  3  0  0  0  0  0  0
  189.1750  175.6490  143.0670 C   0  0  0  0  0  2  0  0  0  0  0  0
  184.7140  177.5990  142.8710 O   0  0  0  0  0  1  0  0  0  0  0  0
  188.8080  177.9090  143.9540 N   0  0  0  0  0  2  0  0  0  0  0  0
  190.6720  173.9880  144.3610 C   0  0  2  0  0  3  0  0  0  0  0  0
  190.3770  174.7010  146.6210 O   0  0  0  0  0  0  0  0  0  0  0  0
  186.4650  178.3460  147.6400 C   0  0  0  0  0  1  0  0  0  0  0  0
  187.4460  177.8580  146.7700 O   0  0  0  0  0  0  0  0  0  0  0  0
  191.8470  173.7380  143.3920 C   0  0  2  0  0  3  0  0  0  0  0  0
  191.4650  172.7340  142.3350 C   0  0  0  0  0  0  0  0  0  0  0  0
  191.0920  172.2340  140.0250 N   0  0  0  0  0  0  0  0  0  0  0  0
  190.9170  171.4910  142.6770 C   0  0  0  0  0  3  0  0  0  0  0  0
  190.5450  171.0260  140.3440 C   0  0  0  0  0  3  0  0  0  0  0  0
  191.5200  173.0950  140.9830 C   0  0  0  0  0  3  0  0  0  0  0  0
  190.4530  170.6340  141.6790 C   0  0  0  0  0  3  0  0  0  0  0  0
  193.0790  173.2770  144.1140 C   0  0  0  0  0  0  0  0  0  0  0  0
  195.3950  172.7630  144.8830 N   0  0  0  0  0  0  0  0  0  0  0  0
  194.6340  173.7980  143.8270 S   0  0  0  0  0  0  0  0  0  0  0  0
  193.1200  172.2670  145.0100 N   0  0  0  0  0  0  0  0  0  0  0  0
  194.3960  172.0090  145.4300 C   0  0  0  0  0  3  0  0  0  0  0  0
  1  6  1  0  0  0  0
  2  1  2  0  0  0  0
  3 15  1  0  0  0  0
  4 18  1  6  0  0  0
  5 11  1  0  0  0  0
  6 16  2  0  0  0  0
  7  2  2  0  0  0  0
  8  4  1  0  0  0  0
  9  4  1  0  0  0  0
 10  5  1  6  0  0  0
 10 14  1  0  0  0  0
 10  8  1  0  0  0  0
 11 13  1  6  0  0  0
 11  9  1  0  0  0  0
 12  3  1  0  0  0  0
 12 10  1  0  0  0  0
 14  7  1  0  0  0  0
 15 19  1  6  0  0  0
 15  6  1  0  0  0  0
 18 17  1  0  0  0  0
 19 20  1  6  0  0  0
 19 26  1  0  0  0  0
 20 22  1  0  0  0  0
 21 23  2  0  0  0  0
 21 24  1  0  0  0  0
 23 25  1  0  0  0  0
 24 20  2  0  0  0  0
 25 22  2  0  0  0  0
 26 29  2  0  0  0  0
 27 30  2  0  0  0  0
 28 26  1  0  0  0  0
 28 27  1  0  0  0  0
 29 30  1  0  0  0  0
M  END
>  <MODEL>
7

>  <REMARK>
 VINA RESULT:      -6.4      3.505      7.166
  Name = 
  4 active torsions:
  status: ('A' for Active; 'I' for Inactive)
    1  A    between atoms: C_2  and  C_11
    2  A    between atoms: C_5  and  C_11
    3  A    between atoms: C_9  and  O_28
    4  A    between atoms: C_11  and  C_29
                            x       y       z     vdW  Elec       q    Type
                         _______ _______ _______ _____ _____    ______ ____

>  <TORSDO>
F 4

$$$$
=
 OpenBabel11062419513D

 30 33  0  0  1  0  0  0  0  0999 V2000
  191.2550  175.0370  145.5680 C   0  0  0  0  0  3  0  0  0  0  0  0
  190.8570  176.2780  145.6570 C   0  0  0  0  0  0  0  0  0  0  0  0
  189.0720  174.6860  142.9370 C   0  0  0  0  0  2  0  0  0  0  0  0
  186.7560  177.0060  145.8090 C   0  0  2  0  0  3  0  0  0  0  0  0
  187.6300  177.8890  143.0490 C   0  0  0  0  0  2  0  0  0  0  0  0
  190.2800  174.0460  145.0980 C   0  0  0  0  0  0  0  0  0  0  0  0
  190.4370  177.5120  145.6420 C   0  0  0  0  0  3  0  0  0  0  0  0
  187.6620  176.1630  144.8940 C   0  0  0  0  0  2  0  0  0  0  0  0
  186.3240  178.3320  145.1710 C   0  0  0  0  0  2  0  0  0  0  0  0
  188.5320  177.0250  143.9500 C   0  0  1  0  0  0  0  0  0  0  0  0
  186.2540  178.2120  143.6550 C   0  0  1  0  0  3  0  0  0  0  0  0
  189.4230  176.1810  143.0090 C   0  0  0  0  0  2  0  0  0  0  0  0
  185.7590  179.3920  143.1090 O   0  0  0  0  0  1  0  0  0  0  0  0
  189.3900  177.9180  144.7450 N   0  0  0  0  0  2  0  0  0  0  0  0
  190.0970  173.7640  143.6230 C   0  0  2  0  0  3  0  0  0  0  0  0
  189.4100  173.6150  145.9060 O   0  0  0  0  0  0  0  0  0  0  0  0
  186.6460  178.2770  147.6340 C   0  0  0  0  0  1  0  0  0  0  0  0
  187.3780  177.2420  147.0430 O   0  0  0  0  0  0  0  0  0  0  0  0
  191.3870  173.5350  142.8070 C   0  0  2  0  0  3  0  0  0  0  0  0
  191.0610  173.1230  141.3950 C   0  0  0  0  0  0  0  0  0  0  0  0
  191.3100  173.4940  139.0440 N   0  0  0  0  0  0  0  0  0  0  0  0
  190.0590  172.1820  141.1250 C   0  0  0  0  0  3  0  0  0  0  0  0
  190.3280  172.5890  138.7670 C   0  0  0  0  0  3  0  0  0  0  0  0
  191.6630  173.7910  140.3210 C   0  0  0  0  0  3  0  0  0  0  0  0
  189.6890  171.9150  139.8070 C   0  0  0  0  0  3  0  0  0  0  0  0
  192.2790  172.5120  143.4460 C   0  0  0  0  0  0  0  0  0  0  0  0
  194.1750  171.1270  144.2840 N   0  0  0  0  0  0  0  0  0  0  0  0
  193.9200  172.6570  143.6860 S   0  0  0  0  0  0  0  0  0  0  0  0
  191.9000  171.2620  143.7940 N   0  0  0  0  0  0  0  0  0  0  0  0
  192.9510  170.5230  144.2630 C   0  0  0  0  0  3  0  0  0  0  0  0
  1  2  2  0  0  0  0
  3 12  1  0  0  0  0
  3 15  1  0  0  0  0
  4 18  1  1  0  0  0
  5 11  1  0  0  0  0
  5 10  1  0  0  0  0
  6  1  1  0  0  0  0
  6 16  2  0  0  0  0
  7  2  2  0  0  0  0
  8  4  1  0  0  0  0
  9  4  1  0  0  0  0
 10 12  1  6  0  0  0
 10 14  1  0  0  0  0
 10  8  1  0  0  0  0
 11 13  1  6  0  0  0
 11  9  1  0  0  0  0
 14  7  1  0  0  0  0
 15 19  1  6  0  0  0
 15  6  1  0  0  0  0
 18 17  1  0  0  0  0
 19 20  1  6  0  0  0
 19 26  1  0  0  0  0
 21 24  1  0  0  0  0
 22 20  1  0  0  0  0
 23 21  2  0  0  0  0
 23 25  1  0  0  0  0
 24 20  2  0  0  0  0
 25 22  2  0  0  0  0
 26 28  1  0  0  0  0
 26 29  2  0  0  0  0
 28 27  1  0  0  0  0
 29 30  1  0  0  0  0
 30 27  2  0  0  0  0
M  END
>  <MODEL>
8

>  <REMARK>
 VINA RESULT:      -6.3      3.654      6.973
  Name = 
  4 active torsions:
  status: ('A' for Active; 'I' for Inactive)
    1  A    between atoms: C_2  and  C_11
    2  A    between atoms: C_5  and  C_11
    3  A    between atoms: C_9  and  O_28
    4  A    between atoms: C_11  and  C_29
                            x       y       z     vdW  Elec       q    Type
                         _______ _______ _______ _____ _____    ______ ____

>  <TORSDO>
F 4

$$$$
=
 OpenBabel11062419513D

 30 33  0  0  1  0  0  0  0  0999 V2000
  189.7680  175.2350  142.3190 C   0  0  0  0  0  3  0  0  0  0  0  0
  191.0560  175.1640  142.1150 C   0  0  0  0  0  0  0  0  0  0  0  0
  190.4790  175.8210  145.6300 C   0  0  0  0  0  2  0  0  0  0  0  0
  193.2860  172.6550  144.5860 C   0  0  2  0  0  3  0  0  0  0  0  0
  193.9720  175.4700  145.4650 C   0  0  0  0  0  2  0  0  0  0  0  0
  189.2650  174.7970  143.6260 C   0  0  0  0  0  0  0  0  0  0  0  0
  192.3550  175.1570  141.9960 C   0  0  0  0  0  3  0  0  0  0  0  0
  192.2320  173.7470  144.8380 C   0  0  0  0  0  2  0  0  0  0  0  0
  194.7210  173.1330  144.8450 C   0  0  0  0  0  2  0  0  0  0  0  0
  192.7630  175.1730  144.5580 C   0  0  1  0  0  0  0  0  0  0  0  0
  194.7510  174.2210  145.9100 C   0  0  1  0  0  3  0  0  0  0  0  0
  191.7150  176.2740  144.8370 C   0  0  0  0  0  2  0  0  0  0  0  0
  196.0680  174.5610  146.2020 O   0  0  0  0  0  1  0  0  0  0  0  0
  193.1970  175.2710  143.1550 N   0  0  0  0  0  2  0  0  0  0  0  0
  189.1850  175.7520  144.7960 C   0  0  2  0  0  3  0  0  0  0  0  0
  189.1400  173.5600  143.8490 O   0  0  0  0  0  0  0  0  0  0  0  0
  191.9160  171.5330  143.2370 C   0  0  0  0  0  1  0  0  0  0  0  0
  193.1720  172.1460  143.2850 O   0  0  0  0  0  0  0  0  0  0  0  0
  188.5420  177.1260  144.5140 C   0  0  2  0  0  3  0  0  0  0  0  0
  187.5220  177.4670  145.5680 C   0  0  0  0  0  0  0  0  0  0  0  0
  186.2700  176.8030  147.4960 N   0  0  0  0  0  0  0  0  0  0  0  0
  186.7300  178.6190  145.4700 C   0  0  0  0  0  3  0  0  0  0  0  0
  185.4840  177.9140  147.4050 C   0  0  0  0  0  3  0  0  0  0  0  0
  187.2510  176.5510  146.5930 C   0  0  0  0  0  3  0  0  0  0  0  0
  185.7060  178.8430  146.3890 C   0  0  0  0  0  3  0  0  0  0  0  0
  187.9100  177.1790  143.1540 C   0  0  0  0  0  0  0  0  0  0  0  0
  187.1900  177.7220  140.8290 N   0  0  0  0  0  0  0  0  0  0  0  0
  188.4410  178.0840  141.8620 S   0  0  0  0  0  0  0  0  0  0  0  0
  186.7330  176.6020  142.8230 N   0  0  0  0  0  0  0  0  0  0  0  0
  186.3620  176.9020  141.5410 C   0  0  0  0  0  3  0  0  0  0  0  0
  1  6  1  0  0  0  0
  2  1  2  0  0  0  0
  4 18  1  6  0  0  0
  4  8  1  0  0  0  0
  4  9  1  0  0  0  0
  5 11  1  0  0  0  0
  6 16  2  0  0  0  0
  6 15  1  0  0  0  0
  7  2  2  0  0  0  0
  7 14  1  0  0  0  0
  9 11  1  0  0  0  0
 10 12  1  1  0  0  0
 10  8  1  0  0  0  0
 10  5  1  0  0  0  0
 11 13  1  6  0  0  0
 12  3  1  0  0  0  0
 14 10  1  0  0  0  0
 15 19  1  6  0  0  0
 15  3  1  0  0  0  0
 17 18  1  0  0  0  0
 19 26  1  6  0  0  0
 19 20  1  0  0  0  0
 20 24  1  0  0  0  0
 22 20  2  0  0  0  0
 22 25  1  0  0  0  0
 23 21  1  0  0  0  0
 24 21  2  0  0  0  0
 25 23  2  0  0  0  0
 27 30  2  0  0  0  0
 27 28  1  0  0  0  0
 28 26  1  0  0  0  0
 29 26  2  0  0  0  0
 30 29  1  0  0  0  0
M  END
>  <MODEL>
9

>  <REMARK>
 VINA RESULT:      -6.1      2.250      4.235
  Name = 
  4 active torsions:
  status: ('A' for Active; 'I' for Inactive)
    1  A    between atoms: C_2  and  C_11
    2  A    between atoms: C_5  and  C_11
    3  A    between atoms: C_9  and  O_28
    4  A    between atoms: C_11  and  C_29
                            x       y       z     vdW  Elec       q    Type
                         _______ _______ _______ _____ _____    ______ ____

>  <TORSDO>
F 4

$$$$
