=
 OpenBabel11062421273D

 31 36  0  0  1  0  0  0  0  0999 V2000
  185.7170  177.4100  141.2850 C   0  0  0  0  0  3  0  0  0  0  0  0
  186.1050  176.9530  145.5220 C   0  0  1  0  0  3  0  0  0  0  0  0
  185.5770  177.9960  147.6400 C   0  0  0  0  0  2  0  0  0  0  0  0
  187.0810  178.0480  147.4130 C   0  0  0  0  0  2  0  0  0  0  0  0
  188.5920  174.6900  142.7670 C   0  0  2  0  0  3  0  0  0  0  0  0
  187.7030  176.0590  140.9630 O   0  0  0  0  0  0  0  0  0  0  0  0
  186.8260  176.4410  143.1990 C   0  0  0  0  0  0  0  0  0  0  0  0
  188.8960  176.4280  144.4650 O   0  0  0  0  0  0  0  0  0  0  0  0
  184.9480  177.4420  146.3700 C   0  0  0  0  0  2  0  0  0  0  0  0
  188.8930  175.4560  141.4740 C   0  0  2  0  0  3  0  0  0  0  0  0
  188.6450  177.2150  145.6050 C   0  0  0  0  0  0  0  0  0  0  0  0
  185.8950  177.0580  144.0390 C   0  0  0  0  0  0  0  0  0  0  0  0
  184.8870  177.8490  143.4680 C   0  0  0  0  0  3  0  0  0  0  0  0
  189.6320  177.5650  146.3050 O   0  0  0  0  0  0  0  0  0  0  0  0
  186.7540  176.6370  141.8100 C   0  0  0  0  0  0  0  0  0  0  0  0
  184.8120  177.9930  142.1170 N   0  0  0  0  0  0  0  0  0  0  0  0
  187.2860  177.8030  145.9310 C   0  0  1  0  0  3  0  0  0  0  0  0
  187.9300  175.6110  143.8030 C   0  0  2  0  0  3  0  0  0  0  0  0
  190.9130  173.4800  139.3280 N   0  0  0  0  0  0  0  0  0  0  0  0
  189.4630  174.5680  140.4740 N   0  0  0  0  0  0  0  0  0  0  0  0
  189.6820  173.2990  138.8010 C   0  0  0  0  0  3  0  0  0  0  0  0
  190.7470  174.2780  140.3680 N   0  0  0  0  0  0  0  0  0  0  0  0
  188.7660  173.9850  139.5170 N   0  0  0  0  0  0  0  0  0  0  0  0
  189.7650  174.1330  143.2890 O   0  0  0  0  0  0  0  0  0  0  0  0
  192.5570  171.0960  144.5600 O   0  0  0  0  0  1  0  0  0  0  0  0
  191.8010  172.0600  143.8950 C   0  0  1  0  0  3  0  0  0  0  0  0
  191.5870  171.6360  142.4350 C   0  0  0  0  0  2  0  0  0  0  0  0
  189.3930  172.8690  143.7600 C   0  0  1  0  0  3  0  0  0  0  0  0
  190.2290  170.9720  142.2330 C   0  0  0  0  0  2  0  0  0  0  0  0
  189.0880  171.9410  142.5710 C   0  0  0  0  0  2  0  0  0  0  0  0
  190.4930  172.3020  144.6630 C   0  0  0  0  0  2  0  0  0  0  0  0
  1 15  2  0  0  0  0
  1 16  1  0  0  0  0
  2 17  1  0  0  0  0
  2  9  1  1  0  0  0
  4  3  1  0  0  0  0
  5 24  1  1  0  0  0
  5 18  1  0  0  0  0
  6 10  1  0  0  0  0
  6 15  1  0  0  0  0
  7 12  2  0  0  0  0
  8 11  1  0  0  0  0
  9  3  1  0  0  0  0
 10 20  1  6  0  0  0
 10  5  1  0  0  0  0
 11 17  1  0  0  0  0
 11 14  2  0  0  0  0
 12  2  1  0  0  0  0
 13 12  1  0  0  0  0
 15  7  1  0  0  0  0
 16 13  2  0  0  0  0
 17  4  1  1  0  0  0
 18  7  1  6  0  0  0
 18  8  1  0  0  0  0
 19 22  2  0  0  0  0
 21 19  1  0  0  0  0
 21 23  2  0  0  0  0
 22 20  1  0  0  0  0
 23 20  1  0  0  0  0
 26 25  1  1  0  0  0
 26 31  1  0  0  0  0
 27 26  1  0  0  0  0
 28 24  1  6  0  0  0
 28 31  1  0  0  0  0
 29 27  1  0  0  0  0
 29 30  1  0  0  0  0
 30 28  1  0  0  0  0
M  END
>  <MODEL>
1

>  <REMARK>
 VINA RESULT:      -7.4      0.000      0.000
  Name = 
  3 active torsions:
  status: ('A' for Active; 'I' for Inactive)
    1  A    between atoms: C_7  and  O_31
    2  A    between atoms: C_12  and  N_17
    3  A    between atoms: C_18  and  O_31
                            x       y       z     vdW  Elec       q    Type
                         _______ _______ _______ _____ _____    ______ ____

>  <TORSDO>
F 3

$$$$
=
 OpenBabel11062421273D

 31 36  0  0  1  0  0  0  0  0999 V2000
  188.9410  174.8660  147.1910 C   0  0  0  0  0  3  0  0  0  0  0  0
  188.0320  177.4190  143.8800 C   0  0  1  0  0  3  0  0  0  0  0  0
  186.2330  178.6210  142.7960 C   0  0  0  0  0  2  0  0  0  0  0  0
  186.6780  177.4690  141.9070 C   0  0  0  0  0  2  0  0  0  0  0  0
  191.6840  175.0640  143.9820 C   0  0  2  0  0  3  0  0  0  0  0  0
  190.8140  173.9460  145.9600 O   0  0  0  0  0  0  0  0  0  0  0  0
  189.4740  175.7350  145.0020 C   0  0  0  0  0  0  0  0  0  0  0  0
  189.6310  175.1590  142.6500 O   0  0  0  0  0  0  0  0  0  0  0  0
  186.9860  178.4920  144.1120 C   0  0  0  0  0  2  0  0  0  0  0  0
  191.5130  173.7380  144.7320 C   0  0  2  0  0  3  0  0  0  0  0  0
  188.4690  175.6850  142.0550 C   0  0  0  0  0  0  0  0  0  0  0  0
  188.3790  176.5980  145.0880 C   0  0  0  0  0  0  0  0  0  0  0  0
  187.5810  176.5670  146.2420 C   0  0  0  0  0  3  0  0  0  0  0  0
  188.1910  175.3150  140.8840 O   0  0  0  0  0  0  0  0  0  0  0  0
  189.7460  174.8420  146.0520 C   0  0  0  0  0  0  0  0  0  0  0  0
  187.8860  175.7220  147.2630 N   0  0  0  0  0  0  0  0  0  0  0  0
  187.4550  176.5270  142.8050 C   0  0  1  0  0  3  0  0  0  0  0  0
  190.3230  175.7400  143.7570 C   0  0  2  0  0  3  0  0  0  0  0  0
  194.7920  172.8560  145.7630 N   0  0  0  0  0  0  0  0  0  0  0  0
  192.8080  173.1310  144.9980 N   0  0  0  0  0  0  0  0  0  0  0  0
  194.4790  171.8430  144.9240 C   0  0  0  0  0  3  0  0  0  0  0  0
  193.7320  173.6460  145.7870 N   0  0  0  0  0  0  0  0  0  0  0  0
  193.2320  172.0140  144.4380 N   0  0  0  0  0  0  0  0  0  0  0  0
  192.3340  174.8550  142.7610 O   0  0  0  0  0  0  0  0  0  0  0  0
  196.0080  175.0750  140.5050 O   0  0  0  0  0  1  0  0  0  0  0  0
  194.9740  174.8210  141.4050 C   0  0  1  0  0  3  0  0  0  0  0  0
  195.5370  174.7290  142.8300 C   0  0  0  0  0  2  0  0  0  0  0  0
  193.0340  176.0400  142.5100 C   0  0  1  0  0  3  0  0  0  0  0  0
  195.3710  176.0410  143.5890 C   0  0  0  0  0  2  0  0  0  0  0  0
  193.8890  176.4080  143.7350 C   0  0  0  0  0  2  0  0  0  0  0  0
  193.8820  175.8890  141.2430 C   0  0  0  0  0  2  0  0  0  0  0  0
  1 16  1  0  0  0  0
  2  9  1  1  0  0  0
  2 12  1  0  0  0  0
  3  9  1  0  0  0  0
  4  3  1  0  0  0  0
  5 24  1  6  0  0  0
  5 10  1  0  0  0  0
  6 15  1  0  0  0  0
  7 12  2  0  0  0  0
  7 15  1  0  0  0  0
 10 20  1  1  0  0  0
 10  6  1  0  0  0  0
 11  8  1  0  0  0  0
 11 17  1  0  0  0  0
 12 13  1  0  0  0  0
 13 16  2  0  0  0  0
 14 11  2  0  0  0  0
 15  1  2  0  0  0  0
 17  4  1  6  0  0  0
 17  2  1  0  0  0  0
 18  8  1  6  0  0  0
 18  5  1  0  0  0  0
 18  7  1  0  0  0  0
 19 22  2  0  0  0  0
 20 22  1  0  0  0  0
 21 19  1  0  0  0  0
 23 21  2  0  0  0  0
 23 20  1  0  0  0  0
 26 25  1  6  0  0  0
 26 27  1  0  0  0  0
 27 29  1  0  0  0  0
 28 24  1  1  0  0  0
 28 30  1  0  0  0  0
 29 30  1  0  0  0  0
 31 26  1  0  0  0  0
 31 28  1  0  0  0  0
M  END
>  <MODEL>
2

>  <REMARK>
 VINA RESULT:      -7.1      3.774      5.312
  Name = 
  3 active torsions:
  status: ('A' for Active; 'I' for Inactive)
    1  A    between atoms: C_7  and  O_31
    2  A    between atoms: C_12  and  N_17
    3  A    between atoms: C_18  and  O_31
                            x       y       z     vdW  Elec       q    Type
                         _______ _______ _______ _____ _____    ______ ____

>  <TORSDO>
F 3

$$$$
=
 OpenBabel11062421273D

 31 36  0  0  1  0  0  0  0  0999 V2000
  184.1740  178.3520  142.0360 C   0  0  0  0  0  3  0  0  0  0  0  0
  186.2350  177.0970  145.5700 C   0  0  1  0  0  3  0  0  0  0  0  0
  186.6110  177.6510  147.8950 C   0  0  0  0  0  2  0  0  0  0  0  0
  187.8950  177.8710  147.1100 C   0  0  0  0  0  2  0  0  0  0  0  0
  187.3900  175.6400  141.6400 C   0  0  2  0  0  3  0  0  0  0  0  0
  185.8550  177.2610  140.6750 O   0  0  0  0  0  0  0  0  0  0  0  0
  185.9560  177.1180  143.1000 C   0  0  0  0  0  0  0  0  0  0  0  0
  188.3600  177.0250  143.4120 O   0  0  0  0  0  0  0  0  0  0  0  0
  185.5200  177.3100  146.8900 C   0  0  0  0  0  2  0  0  0  0  0  0
  187.1470  176.6700  140.5320 C   0  0  2  0  0  3  0  0  0  0  0  0
  188.5940  177.5460  144.6980 C   0  0  0  0  0  0  0  0  0  0  0  0
  185.4450  177.4760  144.3510 C   0  0  0  0  0  0  0  0  0  0  0  0
  184.2960  178.2790  144.4090 C   0  0  0  0  0  3  0  0  0  0  0  0
  189.7810  177.8310  145.0090 O   0  0  0  0  0  0  0  0  0  0  0  0
  185.3300  177.5790  141.9300 C   0  0  0  0  0  0  0  0  0  0  0  0
  183.6840  178.6810  143.2630 N   0  0  0  0  0  0  0  0  0  0  0  0
  187.4850  177.9430  145.6520 C   0  0  1  0  0  3  0  0  0  0  0  0
  187.2050  176.2780  143.0250 C   0  0  2  0  0  3  0  0  0  0  0  0
  187.8710  174.6960  137.6720 N   0  0  0  0  0  0  0  0  0  0  0  0
  187.2620  176.0480  139.2220 N   0  0  0  0  0  0  0  0  0  0  0  0
  187.1150  175.6860  137.1470 C   0  0  0  0  0  3  0  0  0  0  0  0
  187.9490  174.9500  138.9680 N   0  0  0  0  0  0  0  0  0  0  0  0
  186.7320  176.5410  138.1190 N   0  0  0  0  0  0  0  0  0  0  0  0
  188.6710  175.0890  141.5240 O   0  0  0  0  0  0  0  0  0  0  0  0
  192.2720  173.2320  143.0140 O   0  0  0  0  0  1  0  0  0  0  0  0
  191.2170  173.7570  142.2690 C   0  0  1  0  0  3  0  0  0  0  0  0
  190.9090  172.8350  141.0820 C   0  0  0  0  0  2  0  0  0  0  0  0
  188.6900  174.0120  142.4170 C   0  0  1  0  0  3  0  0  0  0  0  0
  189.7400  171.9020  141.3800 C   0  0  0  0  0  2  0  0  0  0  0  0
  188.4570  172.6980  141.6510 C   0  0  0  0  0  2  0  0  0  0  0  0
  190.0110  173.9970  143.1910 C   0  0  0  0  0  2  0  0  0  0  0  0
  1 16  1  0  0  0  0
  2 17  1  0  0  0  0
  2  9  1  1  0  0  0
  4  3  1  0  0  0  0
  5 24  1  1  0  0  0
  5 18  1  0  0  0  0
  6 15  1  0  0  0  0
  7 12  2  0  0  0  0
  8 11  1  0  0  0  0
  9  3  1  0  0  0  0
 10 20  1  6  0  0  0
 10  6  1  0  0  0  0
 10  5  1  0  0  0  0
 11 14  2  0  0  0  0
 11 17  1  0  0  0  0
 12 13  1  0  0  0  0
 12  2  1  0  0  0  0
 15  1  2  0  0  0  0
 15  7  1  0  0  0  0
 16 13  2  0  0  0  0
 17  4  1  1  0  0  0
 18  7  1  6  0  0  0
 18  8  1  0  0  0  0
 19 22  2  0  0  0  0
 21 19  1  0  0  0  0
 21 23  2  0  0  0  0
 22 20  1  0  0  0  0
 23 20  1  0  0  0  0
 26 25  1  1  0  0  0
 26 31  1  0  0  0  0
 27 29  1  0  0  0  0
 27 26  1  0  0  0  0
 28 24  1  6  0  0  0
 28 31  1  0  0  0  0
 29 30  1  0  0  0  0
 30 28  1  0  0  0  0
M  END
>  <MODEL>
3

>  <REMARK>
 VINA RESULT:      -7.0      1.694      2.049
  Name = 
  3 active torsions:
  status: ('A' for Active; 'I' for Inactive)
    1  A    between atoms: C_7  and  O_31
    2  A    between atoms: C_12  and  N_17
    3  A    between atoms: C_18  and  O_31
                            x       y       z     vdW  Elec       q    Type
                         _______ _______ _______ _____ _____    ______ ____

>  <TORSDO>
F 3

$$$$
=
 OpenBabel11062421273D

 31 36  0  0  1  0  0  0  0  0999 V2000
  189.7320  177.4200  146.9970 C   0  0  0  0  0  3  0  0  0  0  0  0
  192.7280  174.9180  145.2430 C   0  0  1  0  0  3  0  0  0  0  0  0
  195.0380  174.2260  145.4460 C   0  0  0  0  0  2  0  0  0  0  0  0
  194.8710  175.0680  144.1900 C   0  0  0  0  0  2  0  0  0  0  0  0
  189.1260  176.0000  143.0630 C   0  0  2  0  0  3  0  0  0  0  0  0
  188.6020  177.5560  144.8580 O   0  0  0  0  0  0  0  0  0  0  0  0
  190.5910  176.1810  145.1110 C   0  0  0  0  0  0  0  0  0  0  0  0
  191.5360  176.4030  142.8870 O   0  0  0  0  0  0  0  0  0  0  0  0
  193.7120  174.2620  146.1920 C   0  0  0  0  0  2  0  0  0  0  0  0
  188.6010  177.3900  143.4400 C   0  0  2  0  0  3  0  0  0  0  0  0
  192.9200  176.2030  143.0430 C   0  0  0  0  0  0  0  0  0  0  0  0
  191.6460  175.7210  145.9050 C   0  0  0  0  0  0  0  0  0  0  0  0
  191.7160  176.1350  147.2430 C   0  0  0  0  0  3  0  0  0  0  0  0
  193.6690  176.5040  142.0760 O   0  0  0  0  0  0  0  0  0  0  0  0
  189.6380  177.0580  145.6530 C   0  0  0  0  0  0  0  0  0  0  0  0
  190.7590  176.9530  147.7580 N   0  0  0  0  0  0  0  0  0  0  0  0
  193.5640  175.8160  144.3600 C   0  0  1  0  0  3  0  0  0  0  0  0
  190.5200  175.7650  143.6640 C   0  0  2  0  0  3  0  0  0  0  0  0
  185.6340  178.3530  141.7480 N   0  0  0  0  0  0  0  0  0  0  0  0
  187.2560  177.5860  142.9220 N   0  0  0  0  0  0  0  0  0  0  0  0
  185.1600  177.5030  142.6850 C   0  0  0  0  0  3  0  0  0  0  0  0
  186.9440  178.3880  141.9210 N   0  0  0  0  0  0  0  0  0  0  0  0
  186.1770  177.0190  143.4290 N   0  0  0  0  0  0  0  0  0  0  0  0
  189.1630  175.8520  141.6720 O   0  0  0  0  0  0  0  0  0  0  0  0
  189.9930  171.6570  141.0790 O   0  0  0  0  0  1  0  0  0  0  0  0
  189.9130  173.0490  141.0470 C   0  0  1  0  0  3  0  0  0  0  0  0
  189.9410  173.5370  139.5930 C   0  0  0  0  0  2  0  0  0  0  0  0
  188.1900  174.8900  141.3800 C   0  0  1  0  0  3  0  0  0  0  0  0
  188.5380  173.8190  139.0650 C   0  0  0  0  0  2  0  0  0  0  0  0
  187.8570  174.9270  139.8780 C   0  0  0  0  0  2  0  0  0  0  0  0
  188.6700  173.5060  141.8260 C   0  0  0  0  0  2  0  0  0  0  0  0
  1 16  1  0  0  0  0
  2 12  1  0  0  0  0
  2  9  1  1  0  0  0
  3  9  1  0  0  0  0
  4  3  1  0  0  0  0
  5 24  1  6  0  0  0
  5 10  1  0  0  0  0
  5 18  1  0  0  0  0
  6 15  1  0  0  0  0
  7 15  1  0  0  0  0
  7 12  2  0  0  0  0
  8 11  1  0  0  0  0
 10 20  1  1  0  0  0
 10  6  1  0  0  0  0
 11 17  1  0  0  0  0
 12 13  1  0  0  0  0
 13 16  2  0  0  0  0
 14 11  2  0  0  0  0
 15  1  2  0  0  0  0
 17  4  1  6  0  0  0
 17  2  1  0  0  0  0
 18  8  1  6  0  0  0
 18  7  1  0  0  0  0
 19 22  2  0  0  0  0
 19 21  1  0  0  0  0
 20 23  1  0  0  0  0
 21 23  2  0  0  0  0
 22 20  1  0  0  0  0
 26 25  1  6  0  0  0
 26 31  1  0  0  0  0
 27 26  1  0  0  0  0
 28 24  1  6  0  0  0
 28 31  1  0  0  0  0
 29 27  1  0  0  0  0
 29 30  1  0  0  0  0
 30 28  1  0  0  0  0
M  END
>  <MODEL>
4

>  <REMARK>
 VINA RESULT:      -7.0      3.009      5.807
  Name = 
  3 active torsions:
  status: ('A' for Active; 'I' for Inactive)
    1  A    between atoms: C_7  and  O_31
    2  A    between atoms: C_12  and  N_17
    3  A    between atoms: C_18  and  O_31
                            x       y       z     vdW  Elec       q    Type
                         _______ _______ _______ _____ _____    ______ ____

>  <TORSDO>
F 3

$$$$
=
 OpenBabel11062421273D

 31 36  0  0  1  0  0  0  0  0999 V2000
  194.0910  173.5990  141.5910 C   0  0  0  0  0  3  0  0  0  0  0  0
  193.3180  176.3410  144.7830 C   0  0  1  0  0  3  0  0  0  0  0  0
  194.1900  177.1660  146.8840 C   0  0  0  0  0  2  0  0  0  0  0  0
  192.9260  176.3600  147.1440 C   0  0  0  0  0  2  0  0  0  0  0  0
  190.1740  175.1170  142.0430 C   0  0  2  0  0  3  0  0  0  0  0  0
  191.7150  173.4700  141.1330 O   0  0  0  0  0  0  0  0  0  0  0  0
  192.5540  174.9540  142.8670 C   0  0  0  0  0  0  0  0  0  0  0  0
  190.6940  174.8700  144.4230 O   0  0  0  0  0  0  0  0  0  0  0  0
  194.5210  177.0220  145.4060 C   0  0  0  0  0  2  0  0  0  0  0  0
  190.3600  173.6850  141.5280 C   0  0  2  0  0  3  0  0  0  0  0  0
  191.2460  175.1490  145.6870 C   0  0  0  0  0  0  0  0  0  0  0  0
  193.6260  175.4500  143.6150 C   0  0  0  0  0  0  0  0  0  0  0  0
  194.9210  174.9940  143.3260 C   0  0  0  0  0  3  0  0  0  0  0  0
  190.5320  174.9290  146.7010 O   0  0  0  0  0  0  0  0  0  0  0  0
  192.7830  174.0020  141.8610 C   0  0  0  0  0  0  0  0  0  0  0  0
  195.1240  174.1010  142.3210 N   0  0  0  0  0  0  0  0  0  0  0  0
  192.7000  175.5280  145.8970 C   0  0  1  0  0  3  0  0  0  0  0  0
  191.1550  175.4160  143.1860 C   0  0  2  0  0  3  0  0  0  0  0  0
  187.8180  172.6710  139.2690 N   0  0  0  0  0  0  0  0  0  0  0  0
  189.4720  173.4260  140.4050 N   0  0  0  0  0  0  0  0  0  0  0  0
  188.6780  173.3180  138.4520 C   0  0  0  0  0  3  0  0  0  0  0  0
  188.3410  172.7510  140.4810 N   0  0  0  0  0  0  0  0  0  0  0  0
  189.7230  173.7930  139.1630 N   0  0  0  0  0  0  0  0  0  0  0  0
  188.8550  175.3170  142.4660 O   0  0  0  0  0  0  0  0  0  0  0  0
  186.7980  178.0250  145.1250 O   0  0  0  0  0  1  0  0  0  0  0  0
  187.2170  176.9890  144.2920 C   0  0  1  0  0  3  0  0  0  0  0  0
  186.0370  176.4920  143.4460 C   0  0  0  0  0  2  0  0  0  0  0  0
  188.5700  176.6530  142.1640 C   0  0  1  0  0  3  0  0  0  0  0  0
  186.0400  177.1120  142.0520 C   0  0  0  0  0  2  0  0  0  0  0  0
  187.3110  176.7290  141.2840 C   0  0  0  0  0  2  0  0  0  0  0  0
  188.4170  177.4610  143.4560 C   0  0  0  0  0  2  0  0  0  0  0  0
  1 15  2  0  0  0  0
  1 16  1  0  0  0  0
  2  9  1  1  0  0  0
  2 17  1  0  0  0  0
  3  4  1  0  0  0  0
  5 24  1  1  0  0  0
  5 18  1  0  0  0  0
  6 10  1  0  0  0  0
  6 15  1  0  0  0  0
  7 12  2  0  0  0  0
  8 11  1  0  0  0  0
  9  3  1  0  0  0  0
 10 20  1  6  0  0  0
 10  5  1  0  0  0  0
 11 17  1  0  0  0  0
 11 14  2  0  0  0  0
 12  2  1  0  0  0  0
 13 12  1  0  0  0  0
 15  7  1  0  0  0  0
 16 13  2  0  0  0  0
 17  4  1  1  0  0  0
 18  7  1  6  0  0  0
 18  8  1  0  0  0  0
 19 22  2  0  0  0  0
 20 22  1  0  0  0  0
 21 23  2  0  0  0  0
 21 19  1  0  0  0  0
 23 20  1  0  0  0  0
 26 25  1  6  0  0  0
 27 26  1  0  0  0  0
 28 24  1  1  0  0  0
 28 31  1  0  0  0  0
 29 27  1  0  0  0  0
 30 29  1  0  0  0  0
 30 28  1  0  0  0  0
 31 26  1  0  0  0  0
M  END
>  <MODEL>
5

>  <REMARK>
 VINA RESULT:      -6.9      3.024      6.106
  Name = 
  3 active torsions:
  status: ('A' for Active; 'I' for Inactive)
    1  A    between atoms: C_7  and  O_31
    2  A    between atoms: C_12  and  N_17
    3  A    between atoms: C_18  and  O_31
                            x       y       z     vdW  Elec       q    Type
                         _______ _______ _______ _____ _____    ______ ____

>  <TORSDO>
F 3

$$$$
=
 OpenBabel11062421273D

 31 36  0  0  1  0  0  0  0  0999 V2000
  191.2740  175.2910  147.5510 C   0  0  0  0  0  3  0  0  0  0  0  0
  189.7800  176.9740  143.9120 C   0  0  1  0  0  3  0  0  0  0  0  0
  187.7540  177.6710  142.7870 C   0  0  0  0  0  2  0  0  0  0  0  0
  188.3160  176.4370  142.0970 C   0  0  0  0  0  2  0  0  0  0  0  0
  193.7500  175.2170  144.1280 C   0  0  2  0  0  3  0  0  0  0  0  0
  193.1870  174.4100  146.3520 O   0  0  0  0  0  0  0  0  0  0  0  0
  191.5310  175.7660  145.1980 C   0  0  0  0  0  0  0  0  0  0  0  0
  191.6290  174.7560  142.9940 O   0  0  0  0  0  0  0  0  0  0  0  0
  188.5980  177.9160  144.0300 C   0  0  0  0  0  2  0  0  0  0  0  0
  193.8320  174.0580  145.1280 C   0  0  2  0  0  3  0  0  0  0  0  0
  190.3650  174.9850  142.4180 C   0  0  0  0  0  0  0  0  0  0  0  0
  190.3230  176.4690  145.2180 C   0  0  0  0  0  0  0  0  0  0  0  0
  189.6120  176.5610  146.4230 C   0  0  0  0  0  3  0  0  0  0  0  0
  190.0760  174.3530  141.3680 O   0  0  0  0  0  0  0  0  0  0  0  0
  192.0010  175.1500  146.3690 C   0  0  0  0  0  0  0  0  0  0  0  0
  190.1060  175.9890  147.5550 N   0  0  0  0  0  0  0  0  0  0  0  0
  189.2820  175.8120  143.0830 C   0  0  1  0  0  3  0  0  0  0  0  0
  192.2910  175.6390  143.9020 C   0  0  2  0  0  3  0  0  0  0  0  0
  197.0470  172.5830  145.4110 N   0  0  0  0  0  0  0  0  0  0  0  0
  195.2190  173.7030  145.3860 N   0  0  0  0  0  0  0  0  0  0  0  0
  197.1910  173.7130  146.1380 C   0  0  0  0  0  3  0  0  0  0  0  0
  195.8050  172.6010  144.9580 N   0  0  0  0  0  0  0  0  0  0  0  0
  196.0420  174.4200  146.1270 N   0  0  0  0  0  0  0  0  0  0  0  0
  194.3480  174.8590  142.9140 O   0  0  0  0  0  0  0  0  0  0  0  0
  197.6530  175.0030  140.1410 O   0  0  0  0  0  1  0  0  0  0  0  0
  196.7750  174.8080  141.2060 C   0  0  1  0  0  3  0  0  0  0  0  0
  197.5310  174.9480  142.5340 C   0  0  0  0  0  2  0  0  0  0  0  0
  194.9080  176.0410  142.4170 C   0  0  1  0  0  3  0  0  0  0  0  0
  197.3610  176.3380  143.1380 C   0  0  0  0  0  2  0  0  0  0  0  0
  195.8870  176.6260  143.4490 C   0  0  0  0  0  2  0  0  0  0  0  0
  195.5870  175.7730  141.0700 C   0  0  0  0  0  2  0  0  0  0  0  0
  1 16  1  0  0  0  0
  2  9  1  1  0  0  0
  2 12  1  0  0  0  0
  3  9  1  0  0  0  0
  4  3  1  0  0  0  0
  5 24  1  6  0  0  0
  5 10  1  0  0  0  0
  6 15  1  0  0  0  0
  7 12  2  0  0  0  0
  7 15  1  0  0  0  0
 10 20  1  1  0  0  0
 10  6  1  0  0  0  0
 11  8  1  0  0  0  0
 11 17  1  0  0  0  0
 12 13  1  0  0  0  0
 13 16  2  0  0  0  0
 14 11  2  0  0  0  0
 15  1  2  0  0  0  0
 17  4  1  6  0  0  0
 17  2  1  0  0  0  0
 18  8  1  6  0  0  0
 18  5  1  0  0  0  0
 18  7  1  0  0  0  0
 19 21  1  0  0  0  0
 20 23  1  0  0  0  0
 22 20  1  0  0  0  0
 22 19  2  0  0  0  0
 23 21  2  0  0  0  0
 26 25  1  6  0  0  0
 26 27  1  0  0  0  0
 27 29  1  0  0  0  0
 28 24  1  1  0  0  0
 28 30  1  0  0  0  0
 29 30  1  0  0  0  0
 31 26  1  0  0  0  0
 31 28  1  0  0  0  0
M  END
>  <MODEL>
6

>  <REMARK>
 VINA RESULT:      -6.9      4.904      6.708
  Name = 
  3 active torsions:
  status: ('A' for Active; 'I' for Inactive)
    1  A    between atoms: C_7  and  O_31
    2  A    between atoms: C_12  and  N_17
    3  A    between atoms: C_18  and  O_31
                            x       y       z     vdW  Elec       q    Type
                         _______ _______ _______ _____ _____    ______ ____

>  <TORSDO>
F 3

$$$$
=
 OpenBabel11062421273D

 31 36  0  0  1  0  0  0  0  0999 V2000
  186.8250  176.7270  144.0910 C   0  0  0  0  0  3  0  0  0  0  0  0
  188.7020  174.6510  140.8540 C   0  0  1  0  0  3  0  0  0  0  0  0
  188.2550  173.4660  138.7920 C   0  0  0  0  0  2  0  0  0  0  0  0
  188.7600  172.4840  139.8400 C   0  0  0  0  0  2  0  0  0  0  0  0
  190.8010  175.3870  144.5890 C   0  0  2  0  0  3  0  0  0  0  0  0
  188.6990  176.1760  145.5240 O   0  0  0  0  0  0  0  0  0  0  0  0
  188.7100  175.5230  143.1820 C   0  0  0  0  0  0  0  0  0  0  0  0
  189.9710  173.4560  143.3320 O   0  0  0  0  0  0  0  0  0  0  0  0
  188.0720  174.8090  139.4840 C   0  0  0  0  0  2  0  0  0  0  0  0
  189.8650  175.4000  145.8020 C   0  0  2  0  0  3  0  0  0  0  0  0
  189.5510  172.6770  142.2370 C   0  0  0  0  0  0  0  0  0  0  0  0
  188.0610  175.4590  141.9450 C   0  0  0  0  0  0  0  0  0  0  0  0
  186.7900  176.0380  141.8170 C   0  0  0  0  0  3  0  0  0  0  0  0
  189.8780  171.4610  142.2220 O   0  0  0  0  0  0  0  0  0  0  0  0
  188.0780  176.1410  144.2730 C   0  0  0  0  0  0  0  0  0  0  0  0
  186.2130  176.6660  142.8760 N   0  0  0  0  0  0  0  0  0  0  0  0
  188.5900  173.1780  141.1770 C   0  0  1  0  0  3  0  0  0  0  0  0
  190.0650  174.8810  143.3390 C   0  0  2  0  0  3  0  0  0  0  0  0
  191.5880  176.0190  148.8420 N   0  0  0  0  0  0  0  0  0  0  0  0
  190.5480  175.9370  146.9690 N   0  0  0  0  0  0  0  0  0  0  0  0
  191.3090  177.2710  148.4170 C   0  0  0  0  0  3  0  0  0  0  0  0
  191.0980  175.2070  147.9210 N   0  0  0  0  0  0  0  0  0  0  0  0
  190.6510  177.2240  147.2390 N   0  0  0  0  0  0  0  0  0  0  0  0
  191.9250  174.5940  144.8470 O   0  0  0  0  0  0  0  0  0  0  0  0
  196.1010  174.4150  145.9260 O   0  0  0  0  0  1  0  0  0  0  0  0
  194.7230  174.6040  145.8390 C   0  0  1  0  0  3  0  0  0  0  0  0
  194.3450  175.9620  146.4470 C   0  0  0  0  0  2  0  0  0  0  0  0
  192.9580  175.1650  144.0950 C   0  0  1  0  0  3  0  0  0  0  0  0
  194.1800  177.0340  145.3750 C   0  0  0  0  0  2  0  0  0  0  0  0
  193.0530  176.6690  144.4010 C   0  0  0  0  0  2  0  0  0  0  0  0
  194.2760  174.4380  144.3790 C   0  0  0  0  0  2  0  0  0  0  0  0
  1 15  1  0  0  0  0
  2  9  1  6  0  0  0
  2 17  1  0  0  0  0
  2 12  1  0  0  0  0
  3  9  1  0  0  0  0
  3  4  1  0  0  0  0
  5 24  1  1  0  0  0
  5 10  1  0  0  0  0
  6 10  1  0  0  0  0
  7 15  2  0  0  0  0
  8 18  1  0  0  0  0
 10 20  1  1  0  0  0
 11  8  1  0  0  0  0
 12  7  1  0  0  0  0
 13 12  2  0  0  0  0
 13 16  1  0  0  0  0
 14 11  2  0  0  0  0
 15  6  1  0  0  0  0
 16  1  2  0  0  0  0
 17  4  1  6  0  0  0
 17 11  1  0  0  0  0
 18  7  1  1  0  0  0
 18  5  1  0  0  0  0
 20 23  1  0  0  0  0
 20 22  1  0  0  0  0
 21 19  1  0  0  0  0
 22 19  2  0  0  0  0
 23 21  2  0  0  0  0
 26 25  1  6  0  0  0
 26 27  1  0  0  0  0
 28 31  1  0  0  0  0
 28 30  1  0  0  0  0
 28 24  1  1  0  0  0
 29 27  1  0  0  0  0
 30 29  1  0  0  0  0
 31 26  1  0  0  0  0
M  END
>  <MODEL>
7

>  <REMARK>
 VINA RESULT:      -6.9      3.819      6.122
  Name = 
  3 active torsions:
  status: ('A' for Active; 'I' for Inactive)
    1  A    between atoms: C_7  and  O_31
    2  A    between atoms: C_12  and  N_17
    3  A    between atoms: C_18  and  O_31
                            x       y       z     vdW  Elec       q    Type
                         _______ _______ _______ _____ _____    ______ ____

>  <TORSDO>
F 3

$$$$
=
 OpenBabel11062421273D

 31 36  0  0  1  0  0  0  0  0999 V2000
  186.5160  178.3290  146.1500 C   0  0  0  0  0  3  0  0  0  0  0  0
  189.9710  175.8080  146.2810 C   0  0  1  0  0  3  0  0  0  0  0  0
  191.9440  175.2890  147.5820 C   0  0  0  0  0  2  0  0  0  0  0  0
  192.3600  175.9510  146.2760 C   0  0  0  0  0  2  0  0  0  0  0  0
  187.7270  176.3780  142.6020 C   0  0  2  0  0  3  0  0  0  0  0  0
  186.4610  178.1180  143.7370 O   0  0  0  0  0  0  0  0  0  0  0  0
  188.1230  176.9110  145.0380 C   0  0  0  0  0  0  0  0  0  0  0  0
  189.9630  176.9000  143.4560 O   0  0  0  0  0  0  0  0  0  0  0  0
  190.4250  175.3420  147.6510 C   0  0  0  0  0  2  0  0  0  0  0  0
  187.0940  177.7700  142.5040 C   0  0  2  0  0  3  0  0  0  0  0  0
  191.1310  176.8070  144.2350 C   0  0  0  0  0  0  0  0  0  0  0  0
  188.7100  176.6230  146.2730 C   0  0  0  0  0  0  0  0  0  0  0  0
  188.1760  177.2090  147.4300 C   0  0  0  0  0  3  0  0  0  0  0  0
  192.2340  177.0250  143.6680 O   0  0  0  0  0  0  0  0  0  0  0  0
  187.0310  177.7910  144.9700 C   0  0  0  0  0  0  0  0  0  0  0  0
  187.0930  178.0280  147.3450 N   0  0  0  0  0  0  0  0  0  0  0  0
  191.1160  176.6330  145.7420 C   0  0  1  0  0  3  0  0  0  0  0  0
  188.7050  176.3080  143.7850 C   0  0  2  0  0  3  0  0  0  0  0  0
  185.3060  177.9060  139.4420 N   0  0  0  0  0  0  0  0  0  0  0  0
  186.1230  177.8150  141.4220 N   0  0  0  0  0  0  0  0  0  0  0  0
  184.3100  177.9700  140.3520 C   0  0  0  0  0  3  0  0  0  0  0  0
  186.4260  177.8130  140.1380 N   0  0  0  0  0  0  0  0  0  0  0  0
  184.8190  177.9170  141.6010 N   0  0  0  0  0  0  0  0  0  0  0  0
  188.3810  176.0530  141.4080 O   0  0  0  0  0  0  0  0  0  0  0  0
  190.2470  172.2500  142.2370 O   0  0  0  0  0  1  0  0  0  0  0  0
  189.8970  173.5370  141.8310 C   0  0  1  0  0  3  0  0  0  0  0  0
  190.4380  173.8010  140.4190 C   0  0  0  0  0  2  0  0  0  0  0  0
  187.8510  174.8160  141.0250 C   0  0  1  0  0  3  0  0  0  0  0  0
  189.3700  173.5800  139.3540 C   0  0  0  0  0  2  0  0  0  0  0  0
  188.1910  174.5410  139.5500 C   0  0  0  0  0  2  0  0  0  0  0  0
  188.3750  173.7130  141.9490 C   0  0  0  0  0  2  0  0  0  0  0  0
  1 16  1  0  0  0  0
  2  9  1  1  0  0  0
  3  9  1  0  0  0  0
  4  3  1  0  0  0  0
  5 24  1  6  0  0  0
  5 18  1  0  0  0  0
  6 15  1  0  0  0  0
  7 12  2  0  0  0  0
  8 11  1  0  0  0  0
 10 20  1  6  0  0  0
 10  5  1  0  0  0  0
 10  6  1  0  0  0  0
 11 17  1  0  0  0  0
 12  2  1  0  0  0  0
 12 13  1  0  0  0  0
 14 11  2  0  0  0  0
 15  7  1  0  0  0  0
 15  1  2  0  0  0  0
 16 13  2  0  0  0  0
 17  4  1  6  0  0  0
 17  2  1  0  0  0  0
 18  8  1  6  0  0  0
 18  7  1  0  0  0  0
 19 22  2  0  0  0  0
 19 21  1  0  0  0  0
 20 23  1  0  0  0  0
 21 23  2  0  0  0  0
 22 20  1  0  0  0  0
 26 31  1  0  0  0  0
 26 25  1  6  0  0  0
 27 26  1  0  0  0  0
 28 24  1  1  0  0  0
 28 31  1  0  0  0  0
 29 30  1  0  0  0  0
 29 27  1  0  0  0  0
 30 28  1  0  0  0  0
M  END
>  <MODEL>
8

>  <REMARK>
 VINA RESULT:      -6.7      2.623      4.443
  Name = 
  3 active torsions:
  status: ('A' for Active; 'I' for Inactive)
    1  A    between atoms: C_7  and  O_31
    2  A    between atoms: C_12  and  N_17
    3  A    between atoms: C_18  and  O_31
                            x       y       z     vdW  Elec       q    Type
                         _______ _______ _______ _____ _____    ______ ____

>  <TORSDO>
F 3

$$$$
=
 OpenBabel11062421273D

 31 36  0  0  1  0  0  0  0  0999 V2000
  188.2520  174.1890  137.8920 C   0  0  0  0  0  3  0  0  0  0  0  0
  191.5860  172.0090  139.4570 C   0  0  1  0  0  3  0  0  0  0  0  0
  192.9390  170.0320  139.1210 C   0  0  0  0  0  2  0  0  0  0  0  0
  192.1160  169.8710  140.3910 C   0  0  0  0  0  2  0  0  0  0  0  0
  189.5180  174.9980  141.8420 C   0  0  2  0  0  3  0  0  0  0  0  0
  187.8330  175.1160  140.0910 O   0  0  0  0  0  0  0  0  0  0  0  0
  189.7390  173.6520  139.7180 C   0  0  0  0  0  0  0  0  0  0  0  0
  189.8680  172.5750  141.8880 O   0  0  0  0  0  0  0  0  0  0  0  0
  192.4850  171.3190  138.4500 C   0  0  0  0  0  2  0  0  0  0  0  0
  188.0260  175.0950  141.5060 C   0  0  2  0  0  3  0  0  0  0  0  0
  190.4730  171.3260  141.6530 C   0  0  0  0  0  0  0  0  0  0  0  0
  190.4760  172.8280  138.8630 C   0  0  0  0  0  0  0  0  0  0  0  0
  190.0710  172.7030  137.5260 C   0  0  0  0  0  3  0  0  0  0  0  0
  190.4370  170.4730  142.5800 O   0  0  0  0  0  0  0  0  0  0  0  0
  188.6020  174.3210  139.2370 C   0  0  0  0  0  0  0  0  0  0  0  0
  188.9890  173.3910  137.0720 N   0  0  0  0  0  0  0  0  0  0  0  0
  191.0040  170.8970  140.2990 C   0  0  1  0  0  3  0  0  0  0  0  0
  190.1490  173.7730  141.1630 C   0  0  2  0  0  3  0  0  0  0  0  0
  186.2360  177.5410  143.3530 N   0  0  0  0  0  0  0  0  0  0  0  0
  187.4450  176.2900  142.1000 N   0  0  0  0  0  0  0  0  0  0  0  0
  186.9120  178.3000  142.4620 C   0  0  0  0  0  3  0  0  0  0  0  0
  186.5850  176.2910  143.1000 N   0  0  0  0  0  0  0  0  0  0  0  0
  187.6730  177.5160  141.6690 N   0  0  0  0  0  0  0  0  0  0  0  0
  189.7050  174.9380  143.2280 O   0  0  0  0  0  0  0  0  0  0  0  0
  190.7890  176.8460  146.9450 O   0  0  0  0  0  1  0  0  0  0  0  0
  190.2160  176.4210  145.7480 C   0  0  1  0  0  3  0  0  0  0  0  0
  189.6830  177.6310  144.9690 C   0  0  0  0  0  2  0  0  0  0  0  0
  190.9320  175.5690  143.4600 C   0  0  1  0  0  3  0  0  0  0  0  0
  190.6670  178.0920  143.8980 C   0  0  0  0  0  2  0  0  0  0  0  0
  190.9090  176.9860  142.8630 C   0  0  0  0  0  2  0  0  0  0  0  0
  191.2360  175.5850  144.9610 C   0  0  0  0  0  2  0  0  0  0  0  0
  1 15  1  0  0  0  0
  2  9  1  6  0  0  0
  2 17  1  0  0  0  0
  3  4  1  0  0  0  0
  5 24  1  1  0  0  0
  6 10  1  0  0  0  0
  9  3  1  0  0  0  0
 10  5  1  0  0  0  0
 10 20  1  1  0  0  0
 11  8  1  0  0  0  0
 11 14  2  0  0  0  0
 12  2  1  0  0  0  0
 12  7  1  0  0  0  0
 13 12  2  0  0  0  0
 15  7  2  0  0  0  0
 15  6  1  0  0  0  0
 16 13  1  0  0  0  0
 16  1  2  0  0  0  0
 17  4  1  1  0  0  0
 17 11  1  0  0  0  0
 18  7  1  6  0  0  0
 18  5  1  0  0  0  0
 18  8  1  0  0  0  0
 20 22  1  0  0  0  0
 21 19  1  0  0  0  0
 22 19  2  0  0  0  0
 23 20  1  0  0  0  0
 23 21  2  0  0  0  0
 26 25  1  1  0  0  0
 27 26  1  0  0  0  0
 28 24  1  1  0  0  0
 28 31  1  0  0  0  0
 29 27  1  0  0  0  0
 30 28  1  0  0  0  0
 30 29  1  0  0  0  0
 31 26  1  0  0  0  0
M  END
>  <MODEL>
9

>  <REMARK>
 VINA RESULT:      -6.6      2.536      6.954
  Name = 
  3 active torsions:
  status: ('A' for Active; 'I' for Inactive)
    1  A    between atoms: C_7  and  O_31
    2  A    between atoms: C_12  and  N_17
    3  A    between atoms: C_18  and  O_31
                            x       y       z     vdW  Elec       q    Type
                         _______ _______ _______ _____ _____    ______ ____

>  <TORSDO>
F 3

$$$$
