=
 OpenBabel11062420503D

 50 57  0  0  1  0  0  0  0  0999 V2000
  188.3530  174.6700  142.7890 C   0  0  0  0  0  2  0  0  0  0  0  0
  189.2940  174.0440  140.6880 O   0  0  0  0  0  0  0  0  0  0  0  0
  191.3470  172.9200  140.2920 C   0  0  0  0  0  0  0  0  0  0  0  0
  197.3440  175.8240  140.0170 C   0  0  0  0  0  2  0  0  0  0  0  0
  192.4150  172.3420  136.1460 O   0  0  0  0  0  0  0  0  0  0  0  0
  191.6530  170.7910  137.8870 C   0  0  0  0  0  2  0  0  0  0  0  0
  191.1040  171.5910  140.2570 C   0  0  0  0  0  3  0  0  0  0  0  0
  192.9260  172.9240  138.3500 C   0  0  1  0  0  3  0  0  0  0  0  0
  194.9550  174.3720  142.4560 O   0  0  0  0  0  0  0  0  0  0  0  0
  193.9090  173.7250  135.0380 O   0  0  0  0  0  0  0  0  0  0  0  0
  192.1570  175.1100  146.3050 C   0  0  0  0  0  2  0  0  0  0  0  0
  190.5640  173.7910  141.2310 C   0  0  2  0  0  3  0  0  0  0  0  0
  191.1860  174.2720  145.4500 C   0  0  0  0  0  2  0  0  0  0  0  0
  193.4560  175.1640  144.1250 C   0  0  2  0  0  3  0  0  0  0  0  0
  195.9430  174.7710  144.6170 C   0  0  0  0  0  2  0  0  0  0  0  0
  191.8280  170.5830  139.4010 C   0  0  0  0  0  2  0  0  0  0  0  0
  189.5520  174.0790  143.5550 C   0  0  1  0  0  3  0  0  0  0  0  0
  194.9900  174.2900  140.0160 C   0  0  0  0  0  3  0  0  0  0  0  0
  191.9000  172.2340  137.4580 C   0  0  1  0  0  3  0  0  0  0  0  0
  197.5280  175.3990  137.5700 C   0  0  0  0  0  1  0  0  0  0  0  0
  193.6530  173.9220  137.4410 C   0  0  2  0  0  3  0  0  0  0  0  0
  188.7780  175.1360  141.4020 C   0  0  0  0  0  2  0  0  0  0  0  0
  194.8910  175.2200  143.5900 C   0  0  1  0  0  3  0  0  0  0  0  0
  195.4450  174.7600  146.0640 C   0  0  0  0  0  2  0  0  0  0  0  0
  190.4440  173.1990  142.6520 C   0  0  0  0  0  2  0  0  0  0  0  0
  196.7040  175.4050  141.2700 N   0  0  0  0  0  0  0  0  0  0  0  0
  190.3070  175.0780  144.4730 C   0  0  2  0  0  0  0  0  0  0  0  0
  193.3620  173.3460  136.1060 C   0  0  0  0  0  0  0  0  0  0  0  0
  197.1100  174.7950  138.8970 C   0  0  2  0  0  3  0  0  0  0  0  0
  195.5920  174.7280  141.2740 C   0  0  0  0  0  0  0  0  0  0  0  0
  192.2520  173.5660  139.4280 O   0  0  0  0  0  0  0  0  0  0  0  0
  194.5280  175.9460  146.3230 C   0  0  0  0  0  2  0  0  0  0  0  0
  195.0670  173.9310  137.6700 O   0  0  0  0  0  0  0  0  0  0  0  0
  195.6640  174.3530  138.8690 C   0  0  0  0  0  0  0  0  0  0  0  0
  191.0990  176.1170  143.6500 C   0  0  0  0  0  2  0  0  0  0  0  0
  192.4490  175.6580  143.0760 C   0  0  0  0  0  2  0  0  0  0  0  0
  193.2470  175.8320  145.4970 C   0  0  2  0  0  3  0  0  0  0  0  0
  188.6450  175.3800  146.7940 O   0  0  0  0  0  0  0  0  0  0  0  0
  189.1010  175.9990  145.4930 P   0  0  1  0  0  4  0  0  0  0  0  0
  188.4360  177.6310  145.0460 C   0  0  0  0  0  2  0  0  0  0  0  0
  186.9380  177.5490  144.7900 C   0  0  0  0  0  2  0  0  0  0  0  0
  185.3820  179.3180  143.9790 C   0  0  0  0  0  0  0  0  0  0  0  0
  184.7870  177.4830  141.7180 C   0  0  0  0  0  2  0  0  0  0  0  0
  183.7460  178.4210  142.3300 C   0  0  0  0  0  2  0  0  0  0  0  0
  187.0930  178.3360  142.4250 C   0  0  0  0  0  2  0  0  0  0  0  0
  186.0290  178.2760  141.3200 C   0  0  1  0  0  3  0  0  0  0  0  0
  184.0250  178.7230  143.8010 C   0  0  0  0  0  2  0  0  0  0  0  0
  186.5330  178.4990  143.7640 N   0  0  0  0  0  0  0  0  0  0  0  0
  186.6130  177.6920  140.1270 N   0  0  0  0  0  1  0  0  0  0  0  0
  185.5120  180.5390  144.2540 O   0  0  0  0  0  0  0  0  0  0  0  0
  1 17  1  0  0  0  0
  2 12  1  0  0  0  0
  2 22  1  0  0  0  0
  3 12  1  0  0  0  0
  4 26  1  0  0  0  0
  5 19  1  0  0  0  0
  6 16  1  0  0  0  0
  7  3  2  0  0  0  0
  8 31  1  1  0  0  0
  9 23  1  0  0  0  0
 10 28  2  0  0  0  0
 12 25  1  1  0  0  0
 13 11  1  0  0  0  0
 14 36  1  6  0  0  0
 14 37  1  0  0  0  0
 15 24  1  0  0  0  0
 16  7  1  0  0  0  0
 17 25  1  6  0  0  0
 17 27  1  0  0  0  0
 18 30  1  0  0  0  0
 19  6  1  1  0  0  0
 19  8  1  0  0  0  0
 21 28  1  6  0  0  0
 21 33  1  0  0  0  0
 21  8  1  0  0  0  0
 22  1  1  0  0  0  0
 23 14  1  0  0  0  0
 23 15  1  1  0  0  0
 24 32  1  0  0  0  0
 26 30  2  0  0  0  0
 27 13  1  0  0  0  0
 27 39  1  1  0  0  0
 28  5  1  0  0  0  0
 29 20  1  6  0  0  0
 29  4  1  0  0  0  0
 30  9  1  0  0  0  0
 31  3  1  0  0  0  0
 33 34  1  0  0  0  0
 34 29  1  0  0  0  0
 34 18  2  0  0  0  0
 35 27  1  0  0  0  0
 36 35  1  0  0  0  0
 37 11  1  1  0  0  0
 37 32  1  0  0  0  0
 39 38  2  1  0  0  0
 40 39  1  0  0  0  0
 41 40  1  0  0  0  0
 42 50  2  0  0  0  0
 43 44  1  0  0  0  0
 44 47  1  0  0  0  0
 45 48  1  0  0  0  0
 46 49  1  6  0  0  0
 46 43  1  0  0  0  0
 46 45  1  0  0  0  0
 47 42  1  0  0  0  0
 48 42  1  0  0  0  0
 48 41  1  0  0  0  0
M  END
>  <MODEL>
1

>  <REMARK>
 VINA RESULT:      -9.9      0.000      0.000
  Name = 
  4 active torsions:
  status: ('A' for Active; 'I' for Inactive)
    1  A    between atoms: C_15  and  N_30
    2  A    between atoms: C_15  and  C_34
    3  A    between atoms: C_34  and  P_46
    4  A    between atoms: C_37  and  P_46
                            x       y       z     vdW  Elec       q    Type
                         _______ _______ _______ _____ _____    ______ ____

>  <TORSDO>
F 4

$$$$
=
 OpenBabel11062420503D

 50 57  0  0  1  0  0  0  0  0999 V2000
  188.7460  174.4270  142.9640 C   0  0  0  0  0  2  0  0  0  0  0  0
  189.5070  174.0010  140.7440 O   0  0  0  0  0  0  0  0  0  0  0  0
  191.5020  172.8980  140.0780 C   0  0  0  0  0  0  0  0  0  0  0  0
  197.5130  175.7460  139.6100 C   0  0  0  0  0  2  0  0  0  0  0  0
  192.2310  172.7200  135.8230 O   0  0  0  0  0  0  0  0  0  0  0  0
  191.5780  171.0140  137.4600 C   0  0  0  0  0  2  0  0  0  0  0  0
  191.2310  171.5820  139.9320 C   0  0  0  0  0  3  0  0  0  0  0  0
  192.9240  173.0750  138.0260 C   0  0  1  0  0  3  0  0  0  0  0  0
  195.2940  174.0880  142.0790 O   0  0  0  0  0  0  0  0  0  0  0  0
  193.6600  174.1890  134.7390 O   0  0  0  0  0  0  0  0  0  0  0  0
  192.8200  174.4750  146.1910 C   0  0  0  0  0  2  0  0  0  0  0  0
  190.8110  173.6810  141.1560 C   0  0  2  0  0  3  0  0  0  0  0  0
  191.7690  173.7370  145.3390 C   0  0  0  0  0  2  0  0  0  0  0  0
  193.9460  174.7290  143.9300 C   0  0  2  0  0  3  0  0  0  0  0  0
  196.4560  174.2610  144.1830 C   0  0  0  0  0  2  0  0  0  0  0  0
  191.8670  170.6550  138.9270 C   0  0  0  0  0  2  0  0  0  0  0  0
  189.9890  173.7500  143.5710 C   0  0  1  0  0  3  0  0  0  0  0  0
  195.1370  174.2470  139.6470 C   0  0  0  0  0  3  0  0  0  0  0  0
  191.8170  172.4890  137.1550 C   0  0  1  0  0  3  0  0  0  0  0  0
  197.4970  175.5630  137.1260 C   0  0  0  0  0  1  0  0  0  0  0  0
  193.5970  174.1500  137.1630 C   0  0  2  0  0  3  0  0  0  0  0  0
  189.0700  175.0230  141.5990 C   0  0  0  0  0  2  0  0  0  0  0  0
  195.3350  174.8210  143.2910 C   0  0  1  0  0  3  0  0  0  0  0  0
  196.0720  174.1130  145.6560 C   0  0  0  0  0  2  0  0  0  0  0  0
  190.7910  172.9540  142.5180 C   0  0  0  0  0  2  0  0  0  0  0  0
  196.9650  175.2130  140.8640 N   0  0  0  0  0  0  0  0  0  0  0  0
  190.8330  174.6450  144.5180 C   0  0  2  0  0  0  0  0  0  0  0  0
  193.1910  173.7120  135.8060 C   0  0  0  0  0  0  0  0  0  0  0  0
  197.1720  174.8350  138.4180 C   0  0  2  0  0  3  0  0  0  0  0  0
  195.8440  174.5520  140.8890 C   0  0  0  0  0  0  0  0  0  0  0  0
  192.3480  173.6160  139.2110 O   0  0  0  0  0  0  0  0  0  0  0  0
  195.2010  175.2780  146.1020 C   0  0  0  0  0  2  0  0  0  0  0  0
  195.0240  174.1200  137.2780 O   0  0  0  0  0  0  0  0  0  0  0  0
  195.7210  174.4160  138.4610 C   0  0  0  0  0  0  0  0  0  0  0  0
  191.5780  175.7510  143.7400 C   0  0  0  0  0  2  0  0  0  0  0  0
  192.8690  175.3360  143.0180 C   0  0  0  0  0  2  0  0  0  0  0  0
  193.8580  175.2610  145.3740 C   0  0  2  0  0  3  0  0  0  0  0  0
  189.0870  174.6360  146.7980 O   0  0  0  0  0  0  0  0  0  0  0  0
  189.7280  175.4750  145.7160 P   0  0  1  0  0  4  0  0  0  0  0  0
  189.3750  177.2580  145.6990 C   0  0  0  0  0  2  0  0  0  0  0  0
  188.6120  177.6420  144.4380 C   0  0  0  0  0  2  0  0  0  0  0  0
  186.3270  177.4830  143.4570 C   0  0  0  0  0  0  0  0  0  0  0  0
  185.5750  179.6420  145.3550 C   0  0  0  0  0  2  0  0  0  0  0  0
  184.9660  179.5070  143.9600 C   0  0  0  0  0  2  0  0  0  0  0  0
  186.6380  177.3920  145.9480 C   0  0  0  0  0  2  0  0  0  0  0  0
  185.4310  178.3260  146.1150 C   0  0  1  0  0  3  0  0  0  0  0  0
  185.9160  178.8330  142.9710 C   0  0  0  0  0  2  0  0  0  0  0  0
  187.1870  177.3870  144.5940 N   0  0  0  0  0  0  0  0  0  0  0  0
  185.2320  178.6020  147.5250 N   0  0  0  0  0  1  0  0  0  0  0  0
  185.8750  176.4430  142.9120 O   0  0  0  0  0  0  0  0  0  0  0  0
  1 17  1  0  0  0  0
  2 12  1  0  0  0  0
  2 22  1  0  0  0  0
  3 12  1  0  0  0  0
  4 26  1  0  0  0  0
  5 19  1  0  0  0  0
  6 16  1  0  0  0  0
  7  3  2  0  0  0  0
  8 31  1  1  0  0  0
  9 23  1  0  0  0  0
 10 28  2  0  0  0  0
 12 25  1  1  0  0  0
 13 11  1  0  0  0  0
 14 36  1  6  0  0  0
 14 37  1  0  0  0  0
 15 24  1  0  0  0  0
 16  7  1  0  0  0  0
 17 25  1  6  0  0  0
 17 27  1  0  0  0  0
 18 30  1  0  0  0  0
 19  6  1  6  0  0  0
 19  8  1  0  0  0  0
 21 28  1  6  0  0  0
 21 33  1  0  0  0  0
 21  8  1  0  0  0  0
 22  1  1  0  0  0  0
 23 14  1  0  0  0  0
 23 15  1  1  0  0  0
 24 32  1  0  0  0  0
 26 30  2  0  0  0  0
 27 13  1  0  0  0  0
 27 39  1  1  0  0  0
 28  5  1  0  0  0  0
 29 20  1  6  0  0  0
 29 34  1  0  0  0  0
 29  4  1  0  0  0  0
 30  9  1  0  0  0  0
 31  3  1  0  0  0  0
 33 34  1  0  0  0  0
 34 18  2  0  0  0  0
 35 27  1  0  0  0  0
 36 35  1  0  0  0  0
 37 32  1  1  0  0  0
 37 11  1  0  0  0  0
 39 38  2  1  0  0  0
 40 39  1  0  0  0  0
 41 48  1  0  0  0  0
 41 40  1  0  0  0  0
 42 48  1  0  0  0  0
 43 46  1  0  0  0  0
 44 43  1  0  0  0  0
 45 46  1  0  0  0  0
 46 49  1  1  0  0  0
 47 42  1  0  0  0  0
 47 44  1  0  0  0  0
 48 45  1  0  0  0  0
 50 42  2  0  0  0  0
M  END
>  <MODEL>
2

>  <REMARK>
 VINA RESULT:      -9.8      1.206      1.821
  Name = 
  4 active torsions:
  status: ('A' for Active; 'I' for Inactive)
    1  A    between atoms: C_15  and  N_30
    2  A    between atoms: C_15  and  C_34
    3  A    between atoms: C_34  and  P_46
    4  A    between atoms: C_37  and  P_46
                            x       y       z     vdW  Elec       q    Type
                         _______ _______ _______ _____ _____    ______ ____

>  <TORSDO>
F 4

$$$$
=
 OpenBabel11062420503D

 50 57  0  0  1  0  0  0  0  0999 V2000
  188.3700  175.3450  143.3460 C   0  0  0  0  0  2  0  0  0  0  0  0
  188.9630  174.6460  141.1440 O   0  0  0  0  0  0  0  0  0  0  0  0
  190.7770  173.2550  140.5000 C   0  0  0  0  0  0  0  0  0  0  0  0
  197.0520  175.3000  139.5430 C   0  0  0  0  0  2  0  0  0  0  0  0
  191.2660  172.6360  136.2530 O   0  0  0  0  0  0  0  0  0  0  0  0
  190.4990  171.1650  138.0590 C   0  0  0  0  0  2  0  0  0  0  0  0
  190.3460  171.9760  140.4830 C   0  0  0  0  0  3  0  0  0  0  0  0
  192.1050  173.0870  138.3850 C   0  0  1  0  0  3  0  0  0  0  0  0
  194.7790  174.1360  142.2350 O   0  0  0  0  0  0  0  0  0  0  0  0
  192.8030  173.8240  134.9870 O   0  0  0  0  0  0  0  0  0  0  0  0
  192.5780  175.1640  146.3920 C   0  0  0  0  0  2  0  0  0  0  0  0
  190.2390  174.2040  141.5310 C   0  0  2  0  0  3  0  0  0  0  0  0
  191.4060  174.4910  145.6520 C   0  0  0  0  0  2  0  0  0  0  0  0
  193.6110  175.0890  144.0750 C   0  0  2  0  0  3  0  0  0  0  0  0
  196.0570  174.3410  144.2680 C   0  0  0  0  0  2  0  0  0  0  0  0
  190.8160  170.8970  139.5400 C   0  0  0  0  0  2  0  0  0  0  0  0
  189.5530  174.5740  143.9610 C   0  0  1  0  0  3  0  0  0  0  0  0
  194.5200  174.1100  139.8070 C   0  0  0  0  0  3  0  0  0  0  0  0
  190.8960  172.5690  137.6150 C   0  0  1  0  0  3  0  0  0  0  0  0
  196.8900  174.9140  137.0880 C   0  0  0  0  0  1  0  0  0  0  0  0
  192.8570  173.9950  137.4050 C   0  0  2  0  0  3  0  0  0  0  0  0
  188.6930  175.7810  141.9220 C   0  0  0  0  0  2  0  0  0  0  0  0
  194.9670  174.9570  143.3750 C   0  0  1  0  0  3  0  0  0  0  0  0
  195.7330  174.3650  145.7630 C   0  0  0  0  0  2  0  0  0  0  0  0
  190.2020  173.6010  142.9520 C   0  0  0  0  0  2  0  0  0  0  0  0
  196.5090  174.9440  140.8590 N   0  0  0  0  0  0  0  0  0  0  0  0
  190.5430  175.4350  144.7910 C   0  0  2  0  0  0  0  0  0  0  0  0
  192.3340  173.4980  136.1090 C   0  0  0  0  0  0  0  0  0  0  0  0
  196.5470  174.3410  138.4500 C   0  0  2  0  0  3  0  0  0  0  0  0
  195.3200  174.4290  140.9880 C   0  0  0  0  0  0  0  0  0  0  0  0
  191.6580  173.7900  139.5400 O   0  0  0  0  0  0  0  0  0  0  0  0
  195.0290  175.6600  146.1380 C   0  0  0  0  0  2  0  0  0  0  0  0
  194.2740  173.8010  137.4650 O   0  0  0  0  0  0  0  0  0  0  0  0
  195.0600  174.1070  138.5890 C   0  0  0  0  0  0  0  0  0  0  0  0
  191.3740  176.3740  143.8890 C   0  0  0  0  0  2  0  0  0  0  0  0
  192.5690  175.7450  143.1560 C   0  0  0  0  0  2  0  0  0  0  0  0
  193.6590  175.7460  145.4670 C   0  0  2  0  0  3  0  0  0  0  0  0
  190.0470  177.9260  146.1310 O   0  0  0  0  0  0  0  0  0  0  0  0
  189.6050  176.4910  145.9530 P   0  0  1  0  0  4  0  0  0  0  0  0
  188.1540  175.9240  146.8880 C   0  0  0  0  0  2  0  0  0  0  0  0
  186.8700  176.2390  146.1320 C   0  0  0  0  0  2  0  0  0  0  0  0
  185.9310  178.3740  147.0100 C   0  0  0  0  0  0  0  0  0  0  0  0
  184.4110  178.5250  144.4610 C   0  0  0  0  0  2  0  0  0  0  0  0
  183.8640  179.0410  145.7930 C   0  0  0  0  0  2  0  0  0  0  0  0
  186.9460  178.2940  144.7130 C   0  0  0  0  0  2  0  0  0  0  0  0
  185.7790  179.1430  144.1880 C   0  0  1  0  0  3  0  0  0  0  0  0
  184.4410  178.2890  146.9910 C   0  0  0  0  0  2  0  0  0  0  0  0
  186.6790  177.6780  146.0110 N   0  0  0  0  0  0  0  0  0  0  0  0
  185.9420  179.3460  142.7610 N   0  0  0  0  0  1  0  0  0  0  0  0
  186.5190  179.0960  147.8560 O   0  0  0  0  0  0  0  0  0  0  0  0
  1 17  1  0  0  0  0
  2 12  1  0  0  0  0
  2 22  1  0  0  0  0
  3 12  1  0  0  0  0
  4 26  1  0  0  0  0
  5 19  1  0  0  0  0
  6 16  1  0  0  0  0
  7  3  2  0  0  0  0
  8 31  1  1  0  0  0
  9 23  1  0  0  0  0
 10 28  2  0  0  0  0
 12 25  1  1  0  0  0
 13 11  1  0  0  0  0
 14 36  1  6  0  0  0
 14 37  1  0  0  0  0
 15 24  1  0  0  0  0
 16  7  1  0  0  0  0
 17 25  1  6  0  0  0
 17 27  1  0  0  0  0
 18 30  1  0  0  0  0
 19  6  1  1  0  0  0
 19  8  1  0  0  0  0
 21 28  1  6  0  0  0
 21 33  1  0  0  0  0
 21  8  1  0  0  0  0
 22  1  1  0  0  0  0
 23 14  1  0  0  0  0
 23 15  1  1  0  0  0
 24 32  1  0  0  0  0
 26 30  2  0  0  0  0
 27 13  1  0  0  0  0
 27 39  1  1  0  0  0
 28  5  1  0  0  0  0
 29 20  1  6  0  0  0
 29 34  1  0  0  0  0
 29  4  1  0  0  0  0
 30  9  1  0  0  0  0
 31  3  1  0  0  0  0
 33 34  1  0  0  0  0
 34 18  2  0  0  0  0
 35 27  1  0  0  0  0
 36 35  1  0  0  0  0
 37 32  1  1  0  0  0
 37 11  1  0  0  0  0
 39 38  2  6  0  0  0
 39 40  1  0  0  0  0
 41 40  1  0  0  0  0
 42 50  2  0  0  0  0
 43 44  1  0  0  0  0
 44 47  1  0  0  0  0
 45 48  1  0  0  0  0
 46 49  1  6  0  0  0
 46 43  1  0  0  0  0
 46 45  1  0  0  0  0
 47 42  1  0  0  0  0
 48 41  1  0  0  0  0
 48 42  1  0  0  0  0
M  END
>  <MODEL>
3

>  <REMARK>
 VINA RESULT:      -9.5      1.345      1.601
  Name = 
  4 active torsions:
  status: ('A' for Active; 'I' for Inactive)
    1  A    between atoms: C_15  and  N_30
    2  A    between atoms: C_15  and  C_34
    3  A    between atoms: C_34  and  P_46
    4  A    between atoms: C_37  and  P_46
                            x       y       z     vdW  Elec       q    Type
                         _______ _______ _______ _____ _____    ______ ____

>  <TORSDO>
F 4

$$$$
=
 OpenBabel11062420503D

 50 57  0  0  1  0  0  0  0  0999 V2000
  193.3060  175.7280  146.6290 C   0  0  0  0  0  2  0  0  0  0  0  0
  191.2660  176.9610  146.6950 O   0  0  0  0  0  0  0  0  0  0  0  0
  189.1240  176.2680  145.9400 C   0  0  0  0  0  0  0  0  0  0  0  0
  186.9630  176.5980  139.6390 C   0  0  0  0  0  2  0  0  0  0  0  0
  185.9730  179.2090  146.2430 O   0  0  0  0  0  0  0  0  0  0  0  0
  186.4360  177.1490  147.4930 C   0  0  0  0  0  2  0  0  0  0  0  0
  188.4760  175.6900  146.9740 C   0  0  0  0  0  3  0  0  0  0  0  0
  187.1390  177.5400  145.0970 C   0  0  1  0  0  3  0  0  0  0  0  0
  188.8570  174.3700  141.9240 O   0  0  0  0  0  0  0  0  0  0  0  0
  185.2840  180.4900  144.4380 O   0  0  0  0  0  0  0  0  0  0  0  0
  193.0240  172.1490  142.8700 C   0  0  0  0  0  2  0  0  0  0  0  0
  190.6090  176.0950  145.8060 C   0  0  2  0  0  3  0  0  0  0  0  0
  192.6910  172.6640  144.2840 C   0  0  0  0  0  2  0  0  0  0  0  0
  191.1180  173.7070  142.2480 C   0  0  2  0  0  3  0  0  0  0  0  0
  189.5970  172.5390  140.5440 C   0  0  0  0  0  2  0  0  0  0  0  0
  186.9890  175.7400  147.2240 C   0  0  0  0  0  2  0  0  0  0  0  0
  192.6110  174.5220  145.9700 C   0  0  1  0  0  3  0  0  0  0  0  0
  187.5230  176.3630  142.3830 C   0  0  0  0  0  3  0  0  0  0  0  0
  186.9090  178.1740  146.4650 C   0  0  1  0  0  3  0  0  0  0  0  0
  185.3310  178.3920  140.2070 C   0  0  0  0  0  1  0  0  0  0  0  0
  186.8030  178.6350  144.0780 C   0  0  2  0  0  3  0  0  0  0  0  0
  192.5980  177.0250  146.2610 C   0  0  0  0  0  2  0  0  0  0  0  0
  189.9830  173.8590  141.2310 C   0  0  1  0  0  3  0  0  0  0  0  0
  190.6500  171.4350  140.6670 C   0  0  0  0  0  2  0  0  0  0  0  0
  191.0710  174.6370  146.0200 C   0  0  0  0  0  2  0  0  0  0  0  0
  187.7630  175.4840  140.1630 N   0  0  0  0  0  0  0  0  0  0  0  0
  193.2040  174.0820  144.6030 C   0  0  2  0  0  0  0  0  0  0  0  0
  185.9540  179.5300  144.9010 C   0  0  0  0  0  0  0  0  0  0  0  0
  185.9230  177.0730  140.6690 C   0  0  2  0  0  3  0  0  0  0  0  0
  188.0580  175.3940  141.4280 C   0  0  0  0  0  0  0  0  0  0  0  0
  188.4940  177.1110  145.0030 O   0  0  0  0  0  0  0  0  0  0  0  0
  192.0510  172.0170  140.5550 C   0  0  0  0  0  2  0  0  0  0  0  0
  186.0490  178.1290  142.9700 O   0  0  0  0  0  0  0  0  0  0  0  0
  186.5470  177.2030  142.0400 C   0  0  0  0  0  0  0  0  0  0  0  0
  192.8970  175.1110  143.4940 C   0  0  0  0  0  2  0  0  0  0  0  0
  191.4910  175.0590  142.8750 C   0  0  0  0  0  2  0  0  0  0  0  0
  192.3520  172.9390  141.7350 C   0  0  2  0  0  3  0  0  0  0  0  0
  195.6010  172.9980  145.7530 O   0  0  0  0  0  0  0  0  0  0  0  0
  195.0240  173.9610  144.7410 P   0  0  1  0  0  4  0  0  0  0  0  0
  196.1820  174.9120  143.7130 C   0  0  0  0  0  2  0  0  0  0  0  0
  196.6850  174.0690  142.5490 C   0  0  0  0  0  2  0  0  0  0  0  0
  195.8890  175.8970  141.0560 C   0  0  0  0  0  0  0  0  0  0  0  0
  195.6950  173.8190  138.9410 C   0  0  0  0  0  2  0  0  0  0  0  0
  194.7330  175.0030  139.0400 C   0  0  0  0  0  2  0  0  0  0  0  0
  197.7680  174.4000  140.3230 C   0  0  0  0  0  2  0  0  0  0  0  0
  197.1360  174.3210  138.9260 C   0  0  1  0  0  3  0  0  0  0  0  0
  194.5720  175.5060  140.4740 C   0  0  0  0  0  2  0  0  0  0  0  0
  196.8480  174.8800  141.3510 N   0  0  0  0  0  0  0  0  0  0  0  0
  197.9410  173.4540  138.0860 N   0  0  0  0  0  1  0  0  0  0  0  0
  196.1760  177.1100  141.2280 O   0  0  0  0  0  0  0  0  0  0  0  0
  3  7  2  0  0  0  0
  4 26  1  0  0  0  0
  4 29  1  0  0  0  0
  5 19  1  0  0  0  0
  7 16  1  0  0  0  0
  8 31  1  1  0  0  0
  8 19  1  0  0  0  0
 10 28  2  0  0  0  0
 11 13  1  0  0  0  0
 12  3  1  0  0  0  0
 12 25  1  1  0  0  0
 12  2  1  0  0  0  0
 13 27  1  0  0  0  0
 14 36  1  6  0  0  0
 15 24  1  0  0  0  0
 16  6  1  0  0  0  0
 17 25  1  6  0  0  0
 17  1  1  0  0  0  0
 19  6  1  1  0  0  0
 21 33  1  6  0  0  0
 21 28  1  0  0  0  0
 21  8  1  0  0  0  0
 22  1  1  0  0  0  0
 22  2  1  0  0  0  0
 23 15  1  1  0  0  0
 23  9  1  0  0  0  0
 23 14  1  0  0  0  0
 26 30  2  0  0  0  0
 27 39  1  1  0  0  0
 27 17  1  0  0  0  0
 28  5  1  0  0  0  0
 29 20  1  6  0  0  0
 29 34  1  0  0  0  0
 30  9  1  0  0  0  0
 30 18  1  0  0  0  0
 31  3  1  0  0  0  0
 32 24  1  0  0  0  0
 34 18  2  0  0  0  0
 34 33  1  0  0  0  0
 35 27  1  0  0  0  0
 36 35  1  0  0  0  0
 37 32  1  6  0  0  0
 37 14  1  0  0  0  0
 37 11  1  0  0  0  0
 39 38  2  6  0  0  0
 40 39  1  0  0  0  0
 41 40  1  0  0  0  0
 42 50  2  0  0  0  0
 42 48  1  0  0  0  0
 43 44  1  0  0  0  0
 44 47  1  0  0  0  0
 45 48  1  0  0  0  0
 46 49  1  6  0  0  0
 46 43  1  0  0  0  0
 46 45  1  0  0  0  0
 47 42  1  0  0  0  0
 48 41  1  0  0  0  0
M  END
>  <MODEL>
4

>  <REMARK>
 VINA RESULT:      -9.0      2.616      9.201
  Name = 
  4 active torsions:
  status: ('A' for Active; 'I' for Inactive)
    1  A    between atoms: C_15  and  N_30
    2  A    between atoms: C_15  and  C_34
    3  A    between atoms: C_34  and  P_46
    4  A    between atoms: C_37  and  P_46
                            x       y       z     vdW  Elec       q    Type
                         _______ _______ _______ _____ _____    ______ ____

>  <TORSDO>
F 4

$$$$
=
 OpenBabel11062420503D

 50 57  0  0  1  0  0  0  0  0999 V2000
  193.2460  175.8030  146.7740 C   0  0  0  0  0  2  0  0  0  0  0  0
  191.2050  177.0380  146.7690 O   0  0  0  0  0  0  0  0  0  0  0  0
  189.0770  176.3240  145.9940 C   0  0  0  0  0  0  0  0  0  0  0  0
  187.0320  176.4820  139.6490 C   0  0  0  0  0  2  0  0  0  0  0  0
  185.9220  179.2710  146.1600 O   0  0  0  0  0  0  0  0  0  0  0  0
  186.3620  177.2470  147.4730 C   0  0  0  0  0  2  0  0  0  0  0  0
  188.4100  175.7740  147.0320 C   0  0  0  0  0  3  0  0  0  0  0  0
  187.1090  177.5720  145.0820 C   0  0  1  0  0  3  0  0  0  0  0  0
  188.8830  174.3180  142.0270 O   0  0  0  0  0  0  0  0  0  0  0  0
  185.2660  180.5030  144.3090 O   0  0  0  0  0  0  0  0  0  0  0  0
  193.0310  172.1240  143.1090 C   0  0  0  0  0  2  0  0  0  0  0  0
  190.5640  176.1470  145.8930 C   0  0  2  0  0  3  0  0  0  0  0  0
  192.6730  172.6770  144.5020 C   0  0  0  0  0  2  0  0  0  0  0  0
  191.1380  173.6640  142.4100 C   0  0  2  0  0  3  0  0  0  0  0  0
  189.6480  172.4500  140.7110 C   0  0  0  0  0  2  0  0  0  0  0  0
  186.9190  175.8300  147.2540 C   0  0  0  0  0  2  0  0  0  0  0  0
  192.5630  174.5790  146.1350 C   0  0  1  0  0  3  0  0  0  0  0  0
  187.5420  176.3220  142.4080 C   0  0  0  0  0  3  0  0  0  0  0  0
  186.8540  178.2430  146.4270 C   0  0  1  0  0  3  0  0  0  0  0  0
  185.3900  178.2910  140.1380 C   0  0  0  0  0  1  0  0  0  0  0  0
  186.7920  178.6390  144.0270 C   0  0  2  0  0  3  0  0  0  0  0  0
  192.5450  177.0900  146.3580 C   0  0  0  0  0  2  0  0  0  0  0  0
  190.0210  173.7880  141.3690 C   0  0  1  0  0  3  0  0  0  0  0  0
  190.6980  171.3500  140.8830 C   0  0  0  0  0  2  0  0  0  0  0  0
  191.0230  174.6960  146.1540 C   0  0  0  0  0  2  0  0  0  0  0  0
  187.8220  175.3830  140.2170 N   0  0  0  0  0  0  0  0  0  0  0  0
  193.1810  174.1030  144.7920 C   0  0  2  0  0  0  0  0  0  0  0  0
  185.9270  179.5560  144.8090 C   0  0  0  0  0  0  0  0  0  0  0  0
  185.9740  176.9850  140.6460 C   0  0  2  0  0  3  0  0  0  0  0  0
  188.0940  175.3280  141.4900 C   0  0  0  0  0  0  0  0  0  0  0  0
  188.4650  177.1410  145.0230 O   0  0  0  0  0  0  0  0  0  0  0  0
  192.1010  171.9280  140.7810 C   0  0  0  0  0  2  0  0  0  0  0  0
  186.0570  178.1030  142.9200 O   0  0  0  0  0  0  0  0  0  0  0  0
  186.5720  177.1520  142.0240 C   0  0  0  0  0  0  0  0  0  0  0  0
  192.8940  175.1020  143.6500 C   0  0  0  0  0  2  0  0  0  0  0  0
  191.5000  175.0320  143.0070 C   0  0  0  0  0  2  0  0  0  0  0  0
  192.3800  172.8830  141.9410 C   0  0  2  0  0  3  0  0  0  0  0  0
  195.8410  175.1240  144.4390 O   0  0  0  0  0  0  0  0  0  0  0  0
  194.9980  173.9860  144.9670 P   0  0  1  0  0  4  0  0  0  0  0  0
  195.8490  172.5920  145.7630 C   0  0  0  0  0  2  0  0  0  0  0  0
  196.7790  171.8960  144.7770 C   0  0  0  0  0  2  0  0  0  0  0  0
  196.7650  169.5810  143.8580 C   0  0  0  0  0  0  0  0  0  0  0  0
  194.1940  169.2310  145.3060 C   0  0  0  0  0  2  0  0  0  0  0  0
  194.4960  168.5600  143.9670 C   0  0  0  0  0  2  0  0  0  0  0  0
  196.4270  169.9610  146.3180 C   0  0  0  0  0  2  0  0  0  0  0  0
  195.3030  168.9170  146.3070 C   0  0  1  0  0  3  0  0  0  0  0  0
  195.4850  169.3610  143.1220 C   0  0  0  0  0  2  0  0  0  0  0  0
  196.7750  170.4550  144.9870 N   0  0  0  0  0  0  0  0  0  0  0  0
  194.7370  168.8110  147.6380 N   0  0  0  0  0  1  0  0  0  0  0  0
  197.8070  168.9580  143.5260 O   0  0  0  0  0  0  0  0  0  0  0  0
  3  7  2  0  0  0  0
  4 26  1  0  0  0  0
  4 29  1  0  0  0  0
  5 19  1  0  0  0  0
  7 16  1  0  0  0  0
  8 31  1  1  0  0  0
  8 19  1  0  0  0  0
 10 28  2  0  0  0  0
 11 13  1  0  0  0  0
 12  3  1  0  0  0  0
 12 25  1  1  0  0  0
 12  2  1  0  0  0  0
 13 27  1  0  0  0  0
 14 36  1  6  0  0  0
 15 24  1  0  0  0  0
 16  6  1  0  0  0  0
 17 25  1  6  0  0  0
 17  1  1  0  0  0  0
 19  6  1  1  0  0  0
 21 33  1  6  0  0  0
 21 28  1  0  0  0  0
 21  8  1  0  0  0  0
 22  2  1  0  0  0  0
 22  1  1  0  0  0  0
 23 15  1  1  0  0  0
 23  9  1  0  0  0  0
 23 14  1  0  0  0  0
 26 30  2  0  0  0  0
 27 39  1  1  0  0  0
 27 17  1  0  0  0  0
 28  5  1  0  0  0  0
 29 20  1  6  0  0  0
 29 34  1  0  0  0  0
 30  9  1  0  0  0  0
 30 18  1  0  0  0  0
 31  3  1  0  0  0  0
 32 24  1  0  0  0  0
 34 18  2  0  0  0  0
 34 33  1  0  0  0  0
 35 27  1  0  0  0  0
 36 35  1  0  0  0  0
 37 32  1  6  0  0  0
 37 14  1  0  0  0  0
 37 11  1  0  0  0  0
 39 38  2  1  0  0  0
 39 40  1  0  0  0  0
 41 48  1  0  0  0  0
 41 40  1  0  0  0  0
 42 48  1  0  0  0  0
 43 46  1  0  0  0  0
 44 43  1  0  0  0  0
 46 45  1  0  0  0  0
 46 49  1  1  0  0  0
 47 42  1  0  0  0  0
 47 44  1  0  0  0  0
 48 45  1  0  0  0  0
 50 42  2  0  0  0  0
M  END
>  <MODEL>
5

>  <REMARK>
 VINA RESULT:      -8.8      3.510      9.874
  Name = 
  4 active torsions:
  status: ('A' for Active; 'I' for Inactive)
    1  A    between atoms: C_15  and  N_30
    2  A    between atoms: C_15  and  C_34
    3  A    between atoms: C_34  and  P_46
    4  A    between atoms: C_37  and  P_46
                            x       y       z     vdW  Elec       q    Type
                         _______ _______ _______ _____ _____    ______ ____

>  <TORSDO>
F 4

$$$$
=
 OpenBabel11062420503D

 50 57  0  0  1  0  0  0  0  0999 V2000
  188.8970  174.4420  143.5050 C   0  0  0  0  0  2  0  0  0  0  0  0
  189.1160  173.0230  141.6010 O   0  0  0  0  0  0  0  0  0  0  0  0
  190.9630  171.6480  141.0180 C   0  0  0  0  0  0  0  0  0  0  0  0
  196.4380  173.7000  137.8110 C   0  0  0  0  0  2  0  0  0  0  0  0
  190.6300  169.5310  137.2680 O   0  0  0  0  0  0  0  0  0  0  0  0
  190.5330  168.7820  139.6010 C   0  0  0  0  0  2  0  0  0  0  0  0
  190.7650  170.4240  141.5530 C   0  0  0  0  0  3  0  0  0  0  0  0
  191.8160  170.8130  138.8190 C   0  0  1  0  0  3  0  0  0  0  0  0
  195.0300  173.4410  141.2350 O   0  0  0  0  0  0  0  0  0  0  0  0
  191.6320  170.2830  135.3170 O   0  0  0  0  0  0  0  0  0  0  0  0
  193.6250  175.7610  145.2140 C   0  0  0  0  0  2  0  0  0  0  0  0
  190.5020  172.8650  141.7660 C   0  0  2  0  0  3  0  0  0  0  0  0
  192.4560  174.7650  145.0820 C   0  0  0  0  0  2  0  0  0  0  0  0
  194.1350  174.9120  142.8760 C   0  0  2  0  0  3  0  0  0  0  0  0
  196.6580  174.4950  142.6640 C   0  0  0  0  0  2  0  0  0  0  0  0
  191.2020  169.1140  140.9460 C   0  0  0  0  0  2  0  0  0  0  0  0
  190.2990  174.0570  144.0130 C   0  0  1  0  0  3  0  0  0  0  0  0
  194.2660  172.4890  139.1200 C   0  0  0  0  0  3  0  0  0  0  0  0
  190.5770  169.9470  138.6170 C   0  0  1  0  0  3  0  0  0  0  0  0
  195.8230  172.4120  135.7690 C   0  0  0  0  0  1  0  0  0  0  0  0
  192.1720  171.3490  137.4270 C   0  0  2  0  0  3  0  0  0  0  0  0
  188.8270  174.3400  141.9870 C   0  0  0  0  0  2  0  0  0  0  0  0
  195.3130  174.6410  141.9340 C   0  0  1  0  0  3  0  0  0  0  0  0
  196.6630  175.0480  144.0910 C   0  0  0  0  0  2  0  0  0  0  0  0
  190.8740  172.8350  143.2640 C   0  0  0  0  0  2  0  0  0  0  0  0
  196.2590  173.8170  139.2640 N   0  0  0  0  0  0  0  0  0  0  0  0
  191.2800  175.2450  144.2090 C   0  0  2  0  0  0  0  0  0  0  0  0
  191.4780  170.3620  136.5630 C   0  0  0  0  0  0  0  0  0  0  0  0
  195.8840  172.3640  137.2850 C   0  0  2  0  0  3  0  0  0  0  0  0
  195.2320  173.2910  139.8680 C   0  0  0  0  0  0  0  0  0  0  0  0
  191.5120  171.8570  139.7380 O   0  0  0  0  0  0  0  0  0  0  0  0
  195.8430  176.3270  144.1720 C   0  0  0  0  0  2  0  0  0  0  0  0
  193.5810  171.3090  137.1760 O   0  0  0  0  0  0  0  0  0  0  0  0
  194.5240  172.0760  137.8800 C   0  0  0  0  0  0  0  0  0  0  0  0
  191.7230  175.8440  142.8570 C   0  0  0  0  0  2  0  0  0  0  0  0
  192.8240  175.0880  142.0960 C   0  0  0  0  0  2  0  0  0  0  0  0
  194.3660  176.0430  143.8970 C   0  0  2  0  0  3  0  0  0  0  0  0
  190.5710  177.9950  144.6350 O   0  0  0  0  0  0  0  0  0  0  0  0
  190.4450  176.5770  145.1440 P   0  0  1  0  0  4  0  0  0  0  0  0
  189.4460  176.2920  146.6360 C   0  0  0  0  0  2  0  0  0  0  0  0
  187.9620  176.2860  146.2960 C   0  0  0  0  0  2  0  0  0  0  0  0
  186.8230  178.1470  147.4990 C   0  0  0  0  0  0  0  0  0  0  0  0
  184.6960  177.9160  145.4370 C   0  0  0  0  0  2  0  0  0  0  0  0
  184.4130  178.3000  146.8890 C   0  0  0  0  0  2  0  0  0  0  0  0
  187.1920  178.2890  145.0180 C   0  0  0  0  0  2  0  0  0  0  0  0
  185.7660  178.8360  144.8560 C   0  0  1  0  0  3  0  0  0  0  0  0
  185.4400  177.7150  147.8580 C   0  0  0  0  0  2  0  0  0  0  0  0
  187.4210  177.6380  146.3060 N   0  0  0  0  0  0  0  0  0  0  0  0
  185.4990  179.0590  143.4470 N   0  0  0  0  0  1  0  0  0  0  0  0
  187.4300  178.9950  148.2030 O   0  0  0  0  0  0  0  0  0  0  0  0
  1 17  1  0  0  0  0
  2 12  1  0  0  0  0
  2 22  1  0  0  0  0
  3  7  2  0  0  0  0
  3 12  1  0  0  0  0
  4 26  1  0  0  0  0
  5 19  1  0  0  0  0
  6 16  1  0  0  0  0
  8 31  1  1  0  0  0
  9 23  1  0  0  0  0
 10 28  2  0  0  0  0
 12 25  1  1  0  0  0
 13 11  1  0  0  0  0
 14 36  1  6  0  0  0
 14 37  1  0  0  0  0
 15 24  1  0  0  0  0
 16  7  1  0  0  0  0
 17 25  1  6  0  0  0
 17 27  1  0  0  0  0
 18 30  1  0  0  0  0
 19  8  1  0  0  0  0
 19  6  1  1  0  0  0
 21 28  1  6  0  0  0
 21  8  1  0  0  0  0
 22  1  1  0  0  0  0
 23 15  1  1  0  0  0
 23 14  1  0  0  0  0
 24 32  1  0  0  0  0
 26 30  2  0  0  0  0
 27 13  1  0  0  0  0
 27 39  1  1  0  0  0
 28  5  1  0  0  0  0
 29 20  1  6  0  0  0
 29  4  1  0  0  0  0
 29 34  1  0  0  0  0
 30  9  1  0  0  0  0
 31  3  1  0  0  0  0
 33 21  1  0  0  0  0
 33 34  1  0  0  0  0
 34 18  2  0  0  0  0
 35 27  1  0  0  0  0
 36 35  1  0  0  0  0
 37 32  1  1  0  0  0
 37 11  1  0  0  0  0
 39 38  2  6  0  0  0
 39 40  1  0  0  0  0
 41 48  1  0  0  0  0
 41 40  1  0  0  0  0
 42 47  1  0  0  0  0
 42 50  2  0  0  0  0
 43 44  1  0  0  0  0
 44 47  1  0  0  0  0
 45 48  1  0  0  0  0
 46 49  1  6  0  0  0
 46 45  1  0  0  0  0
 46 43  1  0  0  0  0
 48 42  1  0  0  0  0
M  END
>  <MODEL>
6

>  <REMARK>
 VINA RESULT:      -8.5      2.013      2.684
  Name = 
  4 active torsions:
  status: ('A' for Active; 'I' for Inactive)
    1  A    between atoms: C_15  and  N_30
    2  A    between atoms: C_15  and  C_34
    3  A    between atoms: C_34  and  P_46
    4  A    between atoms: C_37  and  P_46
                            x       y       z     vdW  Elec       q    Type
                         _______ _______ _______ _____ _____    ______ ____

>  <TORSDO>
F 4

$$$$
=
 OpenBabel11062420503D

 50 57  0  0  1  0  0  0  0  0999 V2000
  192.9530  175.6800  146.4050 C   0  0  0  0  0  2  0  0  0  0  0  0
  194.6050  174.7130  144.9820 O   0  0  0  0  0  0  0  0  0  0  0  0
  194.6940  174.7740  142.6090 C   0  0  0  0  0  0  0  0  0  0  0  0
  191.4210  170.6460  138.5200 C   0  0  0  0  0  2  0  0  0  0  0  0
  197.9410  172.5830  140.7870 O   0  0  0  0  0  0  0  0  0  0  0  0
  197.5090  174.9840  141.0460 C   0  0  0  0  0  2  0  0  0  0  0  0
  195.4170  175.8530  142.2390 C   0  0  0  0  0  3  0  0  0  0  0  0
  195.6990  173.2250  140.9190 C   0  0  1  0  0  3  0  0  0  0  0  0
  190.9660  173.8300  140.3710 O   0  0  0  0  0  0  0  0  0  0  0  0
  197.6710  170.4590  139.9000 O   0  0  0  0  0  0  0  0  0  0  0  0
  188.5150  176.2240  143.7540 C   0  0  0  0  0  2  0  0  0  0  0  0
  193.8190  174.8510  143.8260 C   0  0  2  0  0  3  0  0  0  0  0  0
  189.9430  176.6720  144.1200 C   0  0  0  0  0  2  0  0  0  0  0  0
  189.7920  174.5840  142.2970 C   0  0  2  0  0  3  0  0  0  0  0  0
  188.6680  174.4520  139.9940 C   0  0  0  0  0  2  0  0  0  0  0  0
  196.3090  175.9460  141.0270 C   0  0  0  0  0  2  0  0  0  0  0  0
  192.1650  176.2250  145.1990 C   0  0  1  0  0  3  0  0  0  0  0  0
  192.9740  172.5110  139.9370 C   0  0  0  0  0  3  0  0  0  0  0  0
  197.1110  173.5520  141.3940 C   0  0  1  0  0  3  0  0  0  0  0  0
  193.5380  169.5460  137.8040 C   0  0  0  0  0  1  0  0  0  0  0  0
  195.7200  171.7310  140.5740 C   0  0  2  0  0  3  0  0  0  0  0  0
  193.7140  174.4170  146.0240 C   0  0  0  0  0  2  0  0  0  0  0  0
  189.6810  173.8280  140.9690 C   0  0  1  0  0  3  0  0  0  0  0  0
  187.6780  175.4170  140.6490 C   0  0  0  0  0  2  0  0  0  0  0  0
  192.9760  176.1430  143.8870 C   0  0  0  0  0  2  0  0  0  0  0  0
  190.8250  171.8590  139.0930 N   0  0  0  0  0  0  0  0  0  0  0  0
  190.6890  175.7500  145.1040 C   0  0  2  0  0  0  0  0  0  0  0  0
  197.1740  171.5110  140.3800 C   0  0  0  0  0  0  0  0  0  0  0  0
  192.8850  170.8820  138.1100 C   0  0  2  0  0  3  0  0  0  0  0  0
  191.5340  172.7050  139.7840 C   0  0  0  0  0  0  0  0  0  0  0  0
  194.7750  173.5270  141.9600 O   0  0  0  0  0  0  0  0  0  0  0  0
  187.2590  174.9060  142.0200 C   0  0  0  0  0  2  0  0  0  0  0  0
  195.0170  171.4470  139.3590 O   0  0  0  0  0  0  0  0  0  0  0  0
  193.6340  171.6230  139.1940 C   0  0  0  0  0  0  0  0  0  0  0  0
  190.5980  174.2540  144.7330 C   0  0  0  0  0  2  0  0  0  0  0  0
  190.7840  173.9000  143.2490 C   0  0  0  0  0  2  0  0  0  0  0  0
  188.4470  174.8980  142.9810 C   0  0  2  0  0  3  0  0  0  0  0  0
  190.0600  174.8660  147.7620 O   0  0  0  0  0  0  0  0  0  0  0  0
  189.8780  175.9550  146.7300 P   0  0  1  0  0  4  0  0  0  0  0  0
  188.8860  177.4070  147.1890 C   0  0  0  0  0  2  0  0  0  0  0  0
  187.4150  177.1770  146.8660 C   0  0  0  0  0  2  0  0  0  0  0  0
  185.7610  179.0080  147.2120 C   0  0  0  0  0  0  0  0  0  0  0  0
  184.5210  178.1030  144.6680 C   0  0  0  0  0  2  0  0  0  0  0  0
  183.7140  178.6730  145.8350 C   0  0  0  0  0  2  0  0  0  0  0  0
  186.9600  178.7920  145.0150 C   0  0  0  0  0  2  0  0  0  0  0  0
  185.6380  179.0710  144.2870 C   0  0  1  0  0  3  0  0  0  0  0  0
  184.3860  178.4280  147.1840 C   0  0  0  0  0  2  0  0  0  0  0  0
  186.7840  178.4090  146.4140 N   0  0  0  0  0  0  0  0  0  0  0  0
  185.8600  179.0120  142.8550 N   0  0  0  0  0  1  0  0  0  0  0  0
  186.0030  180.0460  147.8810 O   0  0  0  0  0  0  0  0  0  0  0  0
  2 22  1  0  0  0  0
  3 12  1  0  0  0  0
  4 26  1  0  0  0  0
  5 19  1  0  0  0  0
  7  3  2  0  0  0  0
  8 19  1  0  0  0  0
  8 31  1  1  0  0  0
  9 23  1  0  0  0  0
 10 28  2  0  0  0  0
 11 13  1  0  0  0  0
 12 25  1  1  0  0  0
 12  2  1  0  0  0  0
 13 27  1  0  0  0  0
 14 37  1  0  0  0  0
 14 36  1  1  0  0  0
 15 24  1  0  0  0  0
 16  6  1  0  0  0  0
 16  7  1  0  0  0  0
 17 25  1  6  0  0  0
 17  1  1  0  0  0  0
 19  6  1  6  0  0  0
 21 33  1  6  0  0  0
 21  8  1  0  0  0  0
 22  1  1  0  0  0  0
 23 15  1  6  0  0  0
 23 14  1  0  0  0  0
 24 32  1  0  0  0  0
 26 30  2  0  0  0  0
 27 17  1  0  0  0  0
 27 39  1  1  0  0  0
 28 21  1  0  0  0  0
 28  5  1  0  0  0  0
 29 20  1  1  0  0  0
 29  4  1  0  0  0  0
 29 34  1  0  0  0  0
 30 18  1  0  0  0  0
 30  9  1  0  0  0  0
 31  3  1  0  0  0  0
 34 33  1  0  0  0  0
 34 18  2  0  0  0  0
 35 27  1  0  0  0  0
 36 35  1  0  0  0  0
 37 32  1  6  0  0  0
 37 11  1  0  0  0  0
 39 40  1  0  0  0  0
 39 38  2  1  0  0  0
 41 40  1  0  0  0  0
 42 50  2  0  0  0  0
 43 44  1  0  0  0  0
 44 47  1  0  0  0  0
 45 48  1  0  0  0  0
 46 49  1  6  0  0  0
 46 43  1  0  0  0  0
 46 45  1  0  0  0  0
 47 42  1  0  0  0  0
 48 41  1  0  0  0  0
 48 42  1  0  0  0  0
M  END
>  <MODEL>
7

>  <REMARK>
 VINA RESULT:      -8.5      2.279      5.134
  Name = 
  4 active torsions:
  status: ('A' for Active; 'I' for Inactive)
    1  A    between atoms: C_15  and  N_30
    2  A    between atoms: C_15  and  C_34
    3  A    between atoms: C_34  and  P_46
    4  A    between atoms: C_37  and  P_46
                            x       y       z     vdW  Elec       q    Type
                         _______ _______ _______ _____ _____    ______ ____

>  <TORSDO>
F 4

$$$$
=
 OpenBabel11062420503D

 50 57  0  0  1  0  0  0  0  0999 V2000
  189.1200  173.8210  142.7130 C   0  0  0  0  0  2  0  0  0  0  0  0
  189.8030  172.9600  140.5960 O   0  0  0  0  0  0  0  0  0  0  0  0
  191.7690  171.7250  140.0960 C   0  0  0  0  0  0  0  0  0  0  0  0
  197.7740  174.3600  138.8850 C   0  0  0  0  0  2  0  0  0  0  0  0
  192.3540  170.7090  135.9380 O   0  0  0  0  0  0  0  0  0  0  0  0
  191.7490  169.3630  137.8980 C   0  0  0  0  0  2  0  0  0  0  0  0
  191.4880  170.4100  140.2210 C   0  0  0  0  0  3  0  0  0  0  0  0
  193.1220  171.4810  138.0040 C   0  0  1  0  0  3  0  0  0  0  0  0
  195.6320  173.2420  141.7020 O   0  0  0  0  0  0  0  0  0  0  0  0
  193.7520  171.9210  134.5420 O   0  0  0  0  0  0  0  0  0  0  0  0
  193.3000  174.4550  145.7360 C   0  0  0  0  0  2  0  0  0  0  0  0
  191.1190  172.7120  141.0210 C   0  0  2  0  0  3  0  0  0  0  0  0
  192.2180  173.5760  145.0800 C   0  0  0  0  0  2  0  0  0  0  0  0
  194.3500  174.2480  143.4340 C   0  0  2  0  0  3  0  0  0  0  0  0
  196.8650  173.8120  143.6920 C   0  0  0  0  0  2  0  0  0  0  0  0
  192.0850  169.2970  139.3970 C   0  0  0  0  0  2  0  0  0  0  0  0
  190.3790  173.2610  143.4010 C   0  0  1  0  0  3  0  0  0  0  0  0
  195.3940  172.9230  139.2930 C   0  0  0  0  0  3  0  0  0  0  0  0
  191.9850  170.7480  137.3020 C   0  0  1  0  0  3  0  0  0  0  0  0
  197.6740  173.6940  136.4880 C   0  0  0  0  0  1  0  0  0  0  0  0
  193.7700  172.3590  136.9270 C   0  0  2  0  0  3  0  0  0  0  0  0
  189.3990  174.1330  141.2490 C   0  0  0  0  0  2  0  0  0  0  0  0
  195.7180  174.1980  142.7450 C   0  0  1  0  0  3  0  0  0  0  0  0
  196.5310  173.9600  145.1780 C   0  0  0  0  0  2  0  0  0  0  0  0
  191.1420  172.2660  142.4990 C   0  0  0  0  0  2  0  0  0  0  0  0
  197.2670  174.0900  140.2360 N   0  0  0  0  0  0  0  0  0  0  0  0
  191.2590  174.3160  144.1270 C   0  0  2  0  0  0  0  0  0  0  0  0
  193.3170  171.6670  135.6950 C   0  0  0  0  0  0  0  0  0  0  0  0
  197.3890  173.2370  137.9070 C   0  0  2  0  0  3  0  0  0  0  0  0
  196.1440  173.4590  140.4270 C   0  0  0  0  0  0  0  0  0  0  0  0
  192.5900  172.2500  139.0790 O   0  0  0  0  0  0  0  0  0  0  0  0
  195.6800  175.1990  145.4140 C   0  0  0  0  0  2  0  0  0  0  0  0
  195.2000  172.3360  137.0000 O   0  0  0  0  0  0  0  0  0  0  0  0
  195.9380  172.8500  138.0790 C   0  0  0  0  0  0  0  0  0  0  0  0
  191.9820  175.2400  143.1230 C   0  0  0  0  0  2  0  0  0  0  0  0
  193.2460  174.6770  142.4560 C   0  0  0  0  0  2  0  0  0  0  0  0
  194.3130  175.0540  144.7470 C   0  0  2  0  0  3  0  0  0  0  0  0
  189.8630  174.8980  146.5670 O   0  0  0  0  0  0  0  0  0  0  0  0
  190.1980  175.3760  145.1730 P   0  0  1  0  0  4  0  0  0  0  0  0
  189.5440  176.9880  144.6440 C   0  0  0  0  0  2  0  0  0  0  0  0
  188.4840  177.4840  145.6190 C   0  0  0  0  0  2  0  0  0  0  0  0
  186.8790  177.3170  143.7210 C   0  0  0  0  0  0  0  0  0  0  0  0
  185.3030  179.4070  145.1270 C   0  0  0  0  0  2  0  0  0  0  0  0
  185.3810  179.3030  143.6040 C   0  0  0  0  0  2  0  0  0  0  0  0
  186.0530  177.1570  146.0870 C   0  0  0  0  0  2  0  0  0  0  0  0
  184.8730  178.0670  145.7180 C   0  0  1  0  0  3  0  0  0  0  0  0
  186.6900  178.6740  143.1290 C   0  0  0  0  0  2  0  0  0  0  0  0
  187.1460  177.2010  145.1190 N   0  0  0  0  0  0  0  0  0  0  0  0
  184.0600  178.2970  146.8970 N   0  0  0  0  0  1  0  0  0  0  0  0
  186.7460  176.2870  143.0110 O   0  0  0  0  0  0  0  0  0  0  0  0
  1 17  1  0  0  0  0
  2 12  1  0  0  0  0
  2 22  1  0  0  0  0
  3  7  2  0  0  0  0
  3 12  1  0  0  0  0
  4 26  1  0  0  0  0
  5 19  1  0  0  0  0
  6 16  1  0  0  0  0
  8 31  1  1  0  0  0
  9 23  1  0  0  0  0
 10 28  2  0  0  0  0
 12 25  1  1  0  0  0
 13 11  1  0  0  0  0
 14 36  1  6  0  0  0
 14 37  1  0  0  0  0
 15 24  1  0  0  0  0
 16  7  1  0  0  0  0
 17 25  1  6  0  0  0
 17 27  1  0  0  0  0
 18 30  1  0  0  0  0
 19  6  1  1  0  0  0
 19  8  1  0  0  0  0
 21 28  1  6  0  0  0
 21 33  1  0  0  0  0
 21  8  1  0  0  0  0
 22  1  1  0  0  0  0
 23 14  1  0  0  0  0
 23 15  1  1  0  0  0
 24 32  1  0  0  0  0
 26 30  2  0  0  0  0
 27 13  1  0  0  0  0
 27 39  1  1  0  0  0
 28  5  1  0  0  0  0
 29 20  1  6  0  0  0
 29 34  1  0  0  0  0
 29  4  1  0  0  0  0
 30  9  1  0  0  0  0
 31  3  1  0  0  0  0
 33 34  1  0  0  0  0
 34 18  2  0  0  0  0
 35 27  1  0  0  0  0
 36 35  1  0  0  0  0
 37 32  1  1  0  0  0
 37 11  1  0  0  0  0
 39 38  2  1  0  0  0
 40 39  1  0  0  0  0
 40 41  1  0  0  0  0
 42 48  1  0  0  0  0
 43 46  1  0  0  0  0
 44 43  1  0  0  0  0
 46 45  1  0  0  0  0
 46 49  1  1  0  0  0
 47 44  1  0  0  0  0
 47 42  1  0  0  0  0
 48 41  1  0  0  0  0
 48 45  1  0  0  0  0
 50 42  2  0  0  0  0
M  END
>  <MODEL>
8

>  <REMARK>
 VINA RESULT:      -8.4      1.674      2.204
  Name = 
  4 active torsions:
  status: ('A' for Active; 'I' for Inactive)
    1  A    between atoms: C_15  and  N_30
    2  A    between atoms: C_15  and  C_34
    3  A    between atoms: C_34  and  P_46
    4  A    between atoms: C_37  and  P_46
                            x       y       z     vdW  Elec       q    Type
                         _______ _______ _______ _____ _____    ______ ____

>  <TORSDO>
F 4

$$$$
=
 OpenBabel11062420503D

 50 57  0  0  1  0  0  0  0  0999 V2000
  189.7150  171.8920  141.3950 C   0  0  0  0  0  2  0  0  0  0  0  0
  187.9920  173.4600  141.9040 O   0  0  0  0  0  0  0  0  0  0  0  0
  188.2360  175.7510  142.4810 C   0  0  0  0  0  0  0  0  0  0  0  0
  189.5920  178.0660  148.5860 C   0  0  0  0  0  2  0  0  0  0  0  0
  184.5890  177.8510  143.4550 O   0  0  0  0  0  0  0  0  0  0  0  0
  186.0890  177.9580  141.5170 C   0  0  0  0  0  2  0  0  0  0  0  0
  188.1750  176.4830  141.3470 C   0  0  0  0  0  3  0  0  0  0  0  0
  186.8270  177.3070  143.8440 C   0  0  1  0  0  3  0  0  0  0  0  0
  191.2920  176.8020  145.5400 O   0  0  0  0  0  0  0  0  0  0  0  0
  183.9090  178.2250  145.6400 O   0  0  0  0  0  0  0  0  0  0  0  0
  194.1550  173.4480  143.6060 C   0  0  0  0  0  2  0  0  0  0  0  0
  188.8830  174.3970  142.4530 C   0  0  2  0  0  3  0  0  0  0  0  0
  193.0860  173.5290  142.4980 C   0  0  0  0  0  2  0  0  0  0  0  0
  192.4360  174.8290  144.8630 C   0  0  2  0  0  3  0  0  0  0  0  0
  193.6320  176.7250  146.1130 C   0  0  0  0  0  2  0  0  0  0  0  0
  187.5950  177.8690  141.2210 C   0  0  0  0  0  2  0  0  0  0  0  0
  190.8110  172.9530  141.6110 C   0  0  1  0  0  3  0  0  0  0  0  0
  188.9680  177.4480  145.9170 C   0  0  0  0  0  3  0  0  0  0  0  0
  185.7010  177.2580  142.8160 C   0  0  1  0  0  3  0  0  0  0  0  0
  187.3140  179.0490  148.8080 C   0  0  0  0  0  1  0  0  0  0  0  0
  186.1320  177.3560  145.2100 C   0  0  2  0  0  3  0  0  0  0  0  0
  188.4930  172.1980  142.2510 C   0  0  0  0  0  2  0  0  0  0  0  0
  192.3320  175.9220  145.9320 C   0  0  1  0  0  3  0  0  0  0  0  0
  194.8750  176.0470  145.5350 C   0  0  0  0  0  2  0  0  0  0  0  0
  190.2290  174.3810  141.6970 C   0  0  0  0  0  2  0  0  0  0  0  0
  190.6230  177.6080  147.6470 N   0  0  0  0  0  0  0  0  0  0  0  0
  191.8730  172.5970  142.6860 C   0  0  2  0  0  0  0  0  0  0  0  0
  184.7880  177.8490  144.8210 C   0  0  0  0  0  0  0  0  0  0  0  0
  188.4860  178.8550  147.8630 C   0  0  2  0  0  3  0  0  0  0  0  0
  190.3300  177.2830  146.4200 C   0  0  0  0  0  0  0  0  0  0  0  0
  187.6460  176.1510  143.6950 O   0  0  0  0  0  0  0  0  0  0  0  0
  194.8230  174.5440  145.7680 C   0  0  0  0  0  2  0  0  0  0  0  0
  186.7540  178.2880  146.1000 O   0  0  0  0  0  0  0  0  0  0  0  0
  188.0600  178.1450  146.5990 C   0  0  0  0  0  0  0  0  0  0  0  0
  191.2780  172.6430  144.1100 C   0  0  0  0  0  2  0  0  0  0  0  0
  191.1280  174.0330  144.7490 C   0  0  0  0  0  2  0  0  0  0  0  0
  193.6700  173.9140  144.9880 C   0  0  2  0  0  3  0  0  0  0  0  0
  192.3230  170.3000  141.0240 O   0  0  0  0  0  0  0  0  0  0  0  0
  192.4750  170.8930  142.4060 P   0  0  1  0  0  4  0  0  0  0  0  0
  193.2720  169.8790  143.6860 C   0  0  0  0  0  2  0  0  0  0  0  0
  194.7880  169.9810  143.5860 C   0  0  0  0  0  2  0  0  0  0  0  0
  196.7450  170.7250  144.9360 C   0  0  0  0  0  0  0  0  0  0  0  0
  196.4410  168.1720  146.4250 C   0  0  0  0  0  2  0  0  0  0  0  0
  197.7960  168.8290  146.1610 C   0  0  0  0  0  2  0  0  0  0  0  0
  194.6440  169.9600  146.0800 C   0  0  0  0  0  2  0  0  0  0  0  0
  195.4980  169.1750  147.0850 C   0  0  1  0  0  3  0  0  0  0  0  0
  197.7980  169.6690  144.8850 C   0  0  0  0  0  2  0  0  0  0  0  0
  195.3710  170.3400  144.8710 N   0  0  0  0  0  0  0  0  0  0  0  0
  194.6260  168.4800  148.0130 N   0  0  0  0  0  1  0  0  0  0  0  0
  197.0600  171.9330  145.0970 O   0  0  0  0  0  0  0  0  0  0  0  0
  1 22  1  0  0  0  0
  2 22  1  0  0  0  0
  2 12  1  0  0  0  0
  3 31  1  0  0  0  0
  5 28  1  0  0  0  0
  7  3  2  0  0  0  0
  8 31  1  1  0  0  0
  8 21  1  0  0  0  0
  9 23  1  0  0  0  0
  9 30  1  0  0  0  0
 12 25  1  6  0  0  0
 12  3  1  0  0  0  0
 13 27  1  0  0  0  0
 13 11  1  0  0  0  0
 14 36  1  1  0  0  0
 14 37  1  0  0  0  0
 14 23  1  0  0  0  0
 16  7  1  0  0  0  0
 16  6  1  0  0  0  0
 17  1  1  1  0  0  0
 17 25  1  0  0  0  0
 17 27  1  0  0  0  0
 18 30  1  0  0  0  0
 18 34  2  0  0  0  0
 19  6  1  6  0  0  0
 19  5  1  0  0  0  0
 19  8  1  0  0  0  0
 21 28  1  6  0  0  0
 21 33  1  0  0  0  0
 23 15  1  6  0  0  0
 24 32  1  0  0  0  0
 24 15  1  0  0  0  0
 26  4  1  0  0  0  0
 27 39  1  6  0  0  0
 27 35  1  0  0  0  0
 28 10  2  0  0  0  0
 29  4  1  0  0  0  0
 29 20  1  1  0  0  0
 30 26  2  0  0  0  0
 33 34  1  0  0  0  0
 34 29  1  0  0  0  0
 35 36  1  0  0  0  0
 37 11  1  6  0  0  0
 37 32  1  0  0  0  0
 39 38  2  6  0  0  0
 39 40  1  0  0  0  0
 41 40  1  0  0  0  0
 41 48  1  0  0  0  0
 42 50  2  0  0  0  0
 43 46  1  0  0  0  0
 44 43  1  0  0  0  0
 45 46  1  0  0  0  0
 46 49  1  1  0  0  0
 47 42  1  0  0  0  0
 47 44  1  0  0  0  0
 48 42  1  0  0  0  0
 48 45  1  0  0  0  0
M  END
>  <MODEL>
9

>  <REMARK>
 VINA RESULT:      -8.3      3.682      9.611
  Name = 
  4 active torsions:
  status: ('A' for Active; 'I' for Inactive)
    1  A    between atoms: C_15  and  N_30
    2  A    between atoms: C_15  and  C_34
    3  A    between atoms: C_34  and  P_46
    4  A    between atoms: C_37  and  P_46
                            x       y       z     vdW  Elec       q    Type
                         _______ _______ _______ _____ _____    ______ ____

>  <TORSDO>
F 4

$$$$
