=
 OpenBabel11062422283D

 36 41  0  0  1  0  0  0  0  0999 V2000
  189.0060  176.8470  145.7050 C   0  0  1  0  0  3  0  0  0  0  0  0
  188.0940  178.2840  143.9370 C   0  0  0  0  0  2  0  0  0  0  0  0
  189.2370  177.3490  144.2800 C   0  0  0  0  0  2  0  0  0  0  0  0
  187.0600  178.0110  144.9650 C   0  0  0  0  0  0  0  0  0  0  0  0
  187.4160  177.7160  147.3690 C   0  0  0  0  0  3  0  0  0  0  0  0
  187.5360  177.0870  146.0230 C   0  0  2  0  0  3  0  0  0  0  0  0
  185.7990  178.4560  144.8700 C   0  0  0  0  0  0  0  0  0  0  0  0
  184.9970  178.0280  147.1870 N   0  0  0  0  0  0  0  0  0  0  0  0
  186.2500  178.0990  147.8850 C   0  0  0  0  0  3  0  0  0  0  0  0
  184.7760  178.1760  145.9110 C   0  0  0  0  0  3  0  0  0  0  0  0
  190.5610  175.0240  144.9480 C   0  0  0  0  0  2  0  0  0  0  0  0
  189.8260  175.0350  147.2470 C   0  0  0  0  0  2  0  0  0  0  0  0
  191.3450  175.0780  147.2590 C   0  0  0  0  0  2  0  0  0  0  0  0
  189.3720  175.3630  145.8310 C   0  0  1  0  0  3  0  0  0  0  0  0
  191.7860  175.2370  145.8160 C   0  0  1  0  0  3  0  0  0  0  0  0
  192.8590  174.3060  145.4730 N   0  0  0  0  0  0  0  0  0  0  0  0
  192.4700  172.9700  145.0210 C   0  0  0  0  0  2  0  0  0  0  0  0
  194.2550  174.6150  145.6630 C   0  0  0  0  0  0  0  0  0  0  0  0
  194.7460  172.2810  145.3370 O   0  0  0  0  0  0  0  0  0  0  0  0
  195.2810  173.5830  145.2580 C   0  0  2  0  0  3  0  0  0  0  0  0
  194.6160  175.7520  146.0740 O   0  0  0  0  0  0  0  0  0  0  0  0
  193.6700  172.2240  144.4350 C   0  0  0  0  0  2  0  0  0  0  0  0
  196.5640  173.6750  146.0850 C   0  0  0  0  0  2  0  0  0  0  0  0
  197.7890  173.8980  145.2120 C   0  0  0  0  0  1  0  0  0  0  0  0
  185.4300  179.2410  143.7250 N   0  0  0  0  0  2  0  0  0  0  0  0
  185.3330  177.3850  139.3570 O   0  0  0  0  0  0  0  0  0  0  0  0
  184.6970  178.7730  142.5860 C   0  0  0  0  0  0  0  0  0  0  0  0
  183.2080  177.8340  140.2980 C   0  0  0  0  0  3  0  0  0  0  0  0
  182.5560  178.9540  143.6270 O   0  0  0  0  0  0  0  0  0  0  0  0
  185.3800  178.3210  141.5300 C   0  0  0  0  0  3  0  0  0  0  0  0
  182.5020  178.2730  141.3470 C   0  0  0  0  0  0  0  0  0  0  0  0
  184.6790  177.8200  140.3380 C   0  0  0  0  0  0  0  0  0  0  0  0
  183.2100  178.7010  142.5800 C   0  0  0  0  0  0  0  0  0  0  0  0
  180.4750  179.4350  140.5990 C   0  0  0  0  0  2  0  0  0  0  0  0
  181.0030  178.2400  141.2980 C   0  0  1  0  0  3  0  0  0  0  0  0
  180.5690  178.1890  139.9570 O   0  0  0  0  0  0  0  0  0  0  0  0
  1  3  1  6  0  0  0
  1 14  1  0  0  0  0
  1  6  1  0  0  0  0
  2  3  1  0  0  0  0
  2  4  1  0  0  0  0
  4  6  1  0  0  0  0
  5  9  2  0  0  0  0
  6  5  1  1  0  0  0
  7  4  2  0  0  0  0
  7 10  1  0  0  0  0
  8  9  1  0  0  0  0
 10  8  2  0  0  0  0
 12 13  1  0  0  0  0
 14 11  1  6  0  0  0
 14 12  1  0  0  0  0
 15 11  1  6  0  0  0
 15 13  1  0  0  0  0
 16 18  1  0  0  0  0
 16 15  1  0  0  0  0
 17 16  1  0  0  0  0
 18 21  2  0  0  0  0
 20 19  1  0  0  0  0
 20 18  1  0  0  0  0
 20 23  1  1  0  0  0
 22 17  1  0  0  0  0
 22 19  1  0  0  0  0
 24 23  1  0  0  0  0
 25  7  1  0  0  0  0
 26 32  2  0  0  0  0
 27 25  1  0  0  0  0
 28 32  1  0  0  0  0
 28 31  2  0  0  0  0
 30 27  2  0  0  0  0
 31 33  1  0  0  0  0
 32 30  1  0  0  0  0
 33 27  1  0  0  0  0
 33 29  2  0  0  0  0
 34 35  1  0  0  0  0
 35 31  1  6  0  0  0
 36 34  1  0  0  0  0
 36 35  1  0  0  0  0
M  END
>  <MODEL>
1

>  <REMARK>
 VINA RESULT:      -8.4      0.000      0.000
  Name = 
  6 active torsions:
  status: ('A' for Active; 'I' for Inactive)
    1  A    between atoms: N_1  and  C_16
    2  A    between atoms: N_1  and  C_22
    3  A    between atoms: C_5  and  C_27
    4  A    between atoms: C_7  and  C_23
    5  A    between atoms: N_12  and  C_30
    6  A    between atoms: C_20  and  C_28
                            x       y       z     vdW  Elec       q    Type
                         _______ _______ _______ _____ _____    ______ ____

>  <TORSDO>
F 6

$$$$
=
 OpenBabel11062422283D

 36 41  0  0  1  0  0  0  0  0999 V2000
  192.1900  174.9550  146.1950 C   0  0  1  0  0  3  0  0  0  0  0  0
  190.8120  176.9570  145.8550 C   0  0  0  0  0  2  0  0  0  0  0  0
  191.9830  176.4020  146.6420 C   0  0  0  0  0  2  0  0  0  0  0  0
  190.6220  176.0020  144.7350 C   0  0  0  0  0  0  0  0  0  0  0  0
  190.6700  173.5580  144.8590 C   0  0  0  0  0  3  0  0  0  0  0  0
  191.4870  174.8040  144.8530 C   0  0  2  0  0  3  0  0  0  0  0  0
  189.8440  176.2650  143.6740 C   0  0  0  0  0  0  0  0  0  0  0  0
  189.6900  173.9970  142.6610 N   0  0  0  0  0  0  0  0  0  0  0  0
  189.8930  173.2010  143.8390 C   0  0  0  0  0  3  0  0  0  0  0  0
  189.6630  175.2960  142.5630 C   0  0  0  0  0  3  0  0  0  0  0  0
  194.0600  174.2870  144.6550 C   0  0  0  0  0  2  0  0  0  0  0  0
  194.5350  175.8340  146.4440 C   0  0  0  0  0  2  0  0  0  0  0  0
  194.9240  176.5170  145.1430 C   0  0  0  0  0  2  0  0  0  0  0  0
  193.6840  174.6230  146.0870 C   0  0  1  0  0  3  0  0  0  0  0  0
  194.4680  175.6020  144.0210 C   0  0  1  0  0  3  0  0  0  0  0  0
  195.5140  175.4170  143.0170 N   0  0  0  0  0  0  0  0  0  0  0  0
  196.8900  175.7100  143.4200 C   0  0  0  0  0  2  0  0  0  0  0  0
  195.2320  175.0690  141.6470 C   0  0  0  0  0  0  0  0  0  0  0  0
  197.4990  175.6610  141.1000 O   0  0  0  0  0  0  0  0  0  0  0  0
  196.3930  174.8870  140.6970 C   0  0  2  0  0  3  0  0  0  0  0  0
  194.0500  174.8350  141.2680 O   0  0  0  0  0  0  0  0  0  0  0  0
  197.8820  175.2010  142.3720 C   0  0  0  0  0  2  0  0  0  0  0  0
  196.0230  175.2110  139.2490 C   0  0  0  0  0  2  0  0  0  0  0  0
  197.2480  175.2740  138.3510 C   0  0  0  0  0  1  0  0  0  0  0  0
  189.1550  177.5230  143.6200 N   0  0  0  0  0  2  0  0  0  0  0  0
  185.0370  178.5410  141.4890 O   0  0  0  0  0  0  0  0  0  0  0  0
  187.7350  177.7070  143.6770 C   0  0  0  0  0  0  0  0  0  0  0  0
  184.8740  178.0740  143.8040 C   0  0  0  0  0  3  0  0  0  0  0  0
  187.5180  176.9640  145.9350 O   0  0  0  0  0  0  0  0  0  0  0  0
  187.0910  178.0450  142.5550 C   0  0  0  0  0  3  0  0  0  0  0  0
  185.4960  177.7260  144.9370 C   0  0  0  0  0  0  0  0  0  0  0  0
  185.6330  178.2360  142.5530 C   0  0  0  0  0  0  0  0  0  0  0  0
  186.9560  177.4530  144.9190 C   0  0  0  0  0  0  0  0  0  0  0  0
  184.8510  178.6850  147.1020 C   0  0  0  0  0  2  0  0  0  0  0  0
  184.6950  177.5280  146.1900 C   0  0  1  0  0  3  0  0  0  0  0  0
  183.7120  178.5330  146.2940 O   0  0  0  0  0  0  0  0  0  0  0  0
  1  3  1  6  0  0  0
  2  3  1  0  0  0  0
  4  6  1  0  0  0  0
  4  2  1  0  0  0  0
  6  5  1  1  0  0  0
  6  1  1  0  0  0  0
  7  4  2  0  0  0  0
  8  9  1  0  0  0  0
  9  5  2  0  0  0  0
 10  8  2  0  0  0  0
 10  7  1  0  0  0  0
 13 12  1  0  0  0  0
 14 11  1  6  0  0  0
 14  1  1  0  0  0  0
 14 12  1  0  0  0  0
 15 16  1  6  0  0  0
 15 11  1  0  0  0  0
 15 13  1  0  0  0  0
 16 17  1  0  0  0  0
 18 16  1  0  0  0  0
 19 22  1  0  0  0  0
 20 23  1  6  0  0  0
 20 19  1  0  0  0  0
 20 18  1  0  0  0  0
 21 18  2  0  0  0  0
 22 17  1  0  0  0  0
 24 23  1  0  0  0  0
 25  7  1  0  0  0  0
 25 27  1  0  0  0  0
 26 32  2  0  0  0  0
 27 33  1  0  0  0  0
 28 31  2  0  0  0  0
 30 27  2  0  0  0  0
 32 30  1  0  0  0  0
 32 28  1  0  0  0  0
 33 31  1  0  0  0  0
 33 29  2  0  0  0  0
 35 31  1  6  0  0  0
 35 36  1  0  0  0  0
 35 34  1  0  0  0  0
 36 34  1  0  0  0  0
M  END
>  <MODEL>
2

>  <REMARK>
 VINA RESULT:      -8.0      3.089      5.111
  Name = 
  6 active torsions:
  status: ('A' for Active; 'I' for Inactive)
    1  A    between atoms: N_1  and  C_16
    2  A    between atoms: N_1  and  C_22
    3  A    between atoms: C_5  and  C_27
    4  A    between atoms: C_7  and  C_23
    5  A    between atoms: N_12  and  C_30
    6  A    between atoms: C_20  and  C_28
                            x       y       z     vdW  Elec       q    Type
                         _______ _______ _______ _____ _____    ______ ____

>  <TORSDO>
F 6

$$$$
=
 OpenBabel11062422283D

 36 41  0  0  1  0  0  0  0  0999 V2000
  190.3190  175.8150  146.5950 C   0  0  1  0  0  3  0  0  0  0  0  0
  190.1460  173.6160  145.5210 C   0  0  0  0  0  2  0  0  0  0  0  0
  189.4800  174.5400  146.5210 C   0  0  0  0  0  2  0  0  0  0  0  0
  191.0870  174.4840  144.7710 C   0  0  0  0  0  0  0  0  0  0  0  0
  192.5800  176.1850  145.7010 C   0  0  0  0  0  3  0  0  0  0  0  0
  191.1750  175.8520  145.3350 C   0  0  2  0  0  3  0  0  0  0  0  0
  191.6880  174.1010  143.6350 C   0  0  0  0  0  0  0  0  0  0  0  0
  193.4170  175.8780  143.4230 N   0  0  0  0  0  0  0  0  0  0  0  0
  193.5680  176.2230  144.8090 C   0  0  0  0  0  3  0  0  0  0  0  0
  192.6300  174.9820  142.8980 C   0  0  0  0  0  3  0  0  0  0  0  0
  189.0830  177.5950  145.3220 C   0  0  0  0  0  2  0  0  0  0  0  0
  188.0810  176.7030  147.3280 C   0  0  0  0  0  2  0  0  0  0  0  0
  187.0930  176.4830  146.1950 C   0  0  0  0  0  2  0  0  0  0  0  0
  189.4230  177.0560  146.7000 C   0  0  1  0  0  3  0  0  0  0  0  0
  187.7990  176.8970  144.9170 C   0  0  1  0  0  3  0  0  0  0  0  0
  186.9550  177.7540  144.0870 N   0  0  0  0  0  0  0  0  0  0  0  0
  186.0870  178.7100  144.7760 C   0  0  0  0  0  2  0  0  0  0  0  0
  186.8720  177.6200  142.6540 C   0  0  0  0  0  0  0  0  0  0  0  0
  184.9180  179.0250  142.7040 O   0  0  0  0  0  0  0  0  0  0  0  0
  185.9790  178.5730  141.8930 C   0  0  2  0  0  3  0  0  0  0  0  0
  187.5930  176.7870  142.0380 O   0  0  0  0  0  0  0  0  0  0  0  0
  185.4930  179.7150  143.7860 C   0  0  0  0  0  2  0  0  0  0  0  0
  185.4300  177.9600  140.6040 C   0  0  0  0  0  2  0  0  0  0  0  0
  183.9490  178.2490  140.4230 C   0  0  0  0  0  1  0  0  0  0  0  0
  191.4180  172.7870  143.1220 N   0  0  0  0  0  2  0  0  0  0  0  0
  192.6020  170.8130  138.9700 O   0  0  0  0  0  0  0  0  0  0  0  0
  191.1040  172.4630  141.7620 C   0  0  0  0  0  0  0  0  0  0  0  0
  190.4590  171.8170  139.0230 C   0  0  0  0  0  3  0  0  0  0  0  0
  188.8420  173.2160  141.8860 O   0  0  0  0  0  0  0  0  0  0  0  0
  192.0150  171.8080  141.0360 C   0  0  0  0  0  3  0  0  0  0  0  0
  189.5280  172.4650  139.7330 C   0  0  0  0  0  0  0  0  0  0  0  0
  191.7420  171.4410  139.6380 C   0  0  0  0  0  0  0  0  0  0  0  0
  189.7730  172.7610  141.1680 C   0  0  0  0  0  0  0  0  0  0  0  0
  188.2420  174.1660  138.5180 C   0  0  0  0  0  2  0  0  0  0  0  0
  188.2120  172.8020  139.0960 C   0  0  1  0  0  3  0  0  0  0  0  0
  188.3910  173.0230  137.7150 O   0  0  0  0  0  0  0  0  0  0  0  0
  1  3  1  6  0  0  0
  1 14  1  0  0  0  0
  2  3  1  0  0  0  0
  4  6  1  0  0  0  0
  4  2  1  0  0  0  0
  6  5  1  1  0  0  0
  6  1  1  0  0  0  0
  7  4  2  0  0  0  0
  8  9  1  0  0  0  0
  9  5  2  0  0  0  0
 10  8  2  0  0  0  0
 10  7  1  0  0  0  0
 13 12  1  0  0  0  0
 14 11  1  6  0  0  0
 14 12  1  0  0  0  0
 15 16  1  1  0  0  0
 15 11  1  0  0  0  0
 15 13  1  0  0  0  0
 16 17  1  0  0  0  0
 18 16  1  0  0  0  0
 19 22  1  0  0  0  0
 20 23  1  6  0  0  0
 20 18  1  0  0  0  0
 20 19  1  0  0  0  0
 21 18  2  0  0  0  0
 22 17  1  0  0  0  0
 24 23  1  0  0  0  0
 25  7  1  0  0  0  0
 26 32  2  0  0  0  0
 27 25  1  0  0  0  0
 28 32  1  0  0  0  0
 28 31  2  0  0  0  0
 30 27  2  0  0  0  0
 31 33  1  0  0  0  0
 32 30  1  0  0  0  0
 33 27  1  0  0  0  0
 33 29  2  0  0  0  0
 34 35  1  0  0  0  0
 35 31  1  1  0  0  0
 36 34  1  0  0  0  0
 36 35  1  0  0  0  0
M  END
>  <MODEL>
3

>  <REMARK>
 VINA RESULT:      -7.9      3.377      8.452
  Name = 
  6 active torsions:
  status: ('A' for Active; 'I' for Inactive)
    1  A    between atoms: N_1  and  C_16
    2  A    between atoms: N_1  and  C_22
    3  A    between atoms: C_5  and  C_27
    4  A    between atoms: C_7  and  C_23
    5  A    between atoms: N_12  and  C_30
    6  A    between atoms: C_20  and  C_28
                            x       y       z     vdW  Elec       q    Type
                         _______ _______ _______ _____ _____    ______ ____

>  <TORSDO>
F 6

$$$$
=
 OpenBabel11062422283D

 36 41  0  0  1  0  0  0  0  0999 V2000
  190.7250  175.3180  146.5680 C   0  0  1  0  0  3  0  0  0  0  0  0
  189.3430  177.2670  146.0140 C   0  0  0  0  0  2  0  0  0  0  0  0
  190.2810  176.6960  147.0580 C   0  0  0  0  0  2  0  0  0  0  0  0
  189.5600  176.4300  144.8090 C   0  0  0  0  0  0  0  0  0  0  0  0
  189.7710  173.9930  144.7300 C   0  0  0  0  0  3  0  0  0  0  0  0
  190.4510  175.2740  145.0710 C   0  0  2  0  0  3  0  0  0  0  0  0
  189.1000  176.7620  143.5940 C   0  0  0  0  0  0  0  0  0  0  0  0
  189.4290  174.6110  142.3870 N   0  0  0  0  0  0  0  0  0  0  0  0
  189.3510  173.7050  143.5000 C   0  0  0  0  0  3  0  0  0  0  0  0
  189.3250  175.9100  142.3990 C   0  0  0  0  0  3  0  0  0  0  0  0
  192.9310  174.5340  145.6540 C   0  0  0  0  0  2  0  0  0  0  0  0
  192.9140  176.3900  147.1960 C   0  0  0  0  0  2  0  0  0  0  0  0
  193.5870  176.8700  145.9200 C   0  0  0  0  0  2  0  0  0  0  0  0
  192.2100  175.0790  146.8750 C   0  0  1  0  0  3  0  0  0  0  0  0
  193.4430  175.7490  144.9070 C   0  0  1  0  0  3  0  0  0  0  0  0
  194.7060  175.4730  144.2250 N   0  0  0  0  0  0  0  0  0  0  0  0
  195.8330  175.0370  145.0520 C   0  0  0  0  0  2  0  0  0  0  0  0
  194.9060  175.7120  142.8180 C   0  0  0  0  0  0  0  0  0  0  0  0
  197.2720  175.4620  143.1800 O   0  0  0  0  0  0  0  0  0  0  0  0
  196.2490  175.3740  142.2140 C   0  0  2  0  0  3  0  0  0  0  0  0
  193.9570  176.1110  142.0880 O   0  0  0  0  0  0  0  0  0  0  0  0
  196.9770  174.5180  144.1790 C   0  0  0  0  0  2  0  0  0  0  0  0
  196.5880  176.2500  141.0080 C   0  0  0  0  0  2  0  0  0  0  0  0
  196.7940  175.4260  139.7470 C   0  0  0  0  0  1  0  0  0  0  0  0
  188.3540  177.9810  143.4500 N   0  0  0  0  0  2  0  0  0  0  0  0
  184.0630  178.6150  145.3790 O   0  0  0  0  0  0  0  0  0  0  0  0
  186.9310  178.0840  143.3170 C   0  0  0  0  0  0  0  0  0  0  0  0
  184.0650  178.2900  143.0340 C   0  0  0  0  0  3  0  0  0  0  0  0
  186.9420  178.0420  140.9300 O   0  0  0  0  0  0  0  0  0  0  0  0
  186.2010  178.2870  144.4180 C   0  0  0  0  0  3  0  0  0  0  0  0
  184.7760  178.0960  141.9170 C   0  0  0  0  0  0  0  0  0  0  0  0
  184.7370  178.4110  144.3380 C   0  0  0  0  0  0  0  0  0  0  0  0
  186.2590  178.0540  141.9890 C   0  0  0  0  0  0  0  0  0  0  0  0
  182.6070  177.9070  140.7870 C   0  0  0  0  0  2  0  0  0  0  0  0
  184.0710  178.0170  140.5950 C   0  0  1  0  0  3  0  0  0  0  0  0
  183.2140  179.1260  140.4420 O   0  0  0  0  0  0  0  0  0  0  0  0
  1 14  1  0  0  0  0
  1  3  1  6  0  0  0
  2  3  1  0  0  0  0
  4  6  1  0  0  0  0
  4  2  1  0  0  0  0
  6  5  1  1  0  0  0
  6  1  1  0  0  0  0
  7  4  2  0  0  0  0
  8 10  2  0  0  0  0
  8  9  1  0  0  0  0
  9  5  2  0  0  0  0
 10  7  1  0  0  0  0
 13 12  1  0  0  0  0
 14 11  1  6  0  0  0
 14 12  1  0  0  0  0
 15 16  1  1  0  0  0
 15 11  1  0  0  0  0
 15 13  1  0  0  0  0
 16 17  1  0  0  0  0
 18 16  1  0  0  0  0
 19 22  1  0  0  0  0
 20 23  1  6  0  0  0
 20 18  1  0  0  0  0
 20 19  1  0  0  0  0
 21 18  2  0  0  0  0
 22 17  1  0  0  0  0
 24 23  1  0  0  0  0
 25  7  1  0  0  0  0
 27 25  1  0  0  0  0
 27 30  2  0  0  0  0
 28 32  1  0  0  0  0
 29 33  2  0  0  0  0
 31 33  1  0  0  0  0
 31 28  2  0  0  0  0
 32 30  1  0  0  0  0
 32 26  2  0  0  0  0
 33 27  1  0  0  0  0
 35 34  1  0  0  0  0
 35 31  1  1  0  0  0
 36 35  1  0  0  0  0
 36 34  1  0  0  0  0
M  END
>  <MODEL>
4

>  <REMARK>
 VINA RESULT:      -7.8      2.447      4.044
  Name = 
  6 active torsions:
  status: ('A' for Active; 'I' for Inactive)
    1  A    between atoms: N_1  and  C_16
    2  A    between atoms: N_1  and  C_22
    3  A    between atoms: C_5  and  C_27
    4  A    between atoms: C_7  and  C_23
    5  A    between atoms: N_12  and  C_30
    6  A    between atoms: C_20  and  C_28
                            x       y       z     vdW  Elec       q    Type
                         _______ _______ _______ _____ _____    ______ ____

>  <TORSDO>
F 6

$$$$
=
 OpenBabel11062422283D

 36 41  0  0  1  0  0  0  0  0999 V2000
  190.5810  175.7710  146.2340 C   0  0  1  0  0  3  0  0  0  0  0  0
  190.4270  173.6440  145.0210 C   0  0  0  0  0  2  0  0  0  0  0  0
  189.7700  174.4830  146.0990 C   0  0  0  0  0  2  0  0  0  0  0  0
  191.3250  174.5830  144.3040 C   0  0  0  0  0  0  0  0  0  0  0  0
  192.8050  176.2560  145.3040 C   0  0  0  0  0  3  0  0  0  0  0  0
  191.3980  175.9130  144.9560 C   0  0  2  0  0  3  0  0  0  0  0  0
  191.9000  174.2910  143.1280 C   0  0  0  0  0  0  0  0  0  0  0  0
  193.5810  176.1220  142.9870 N   0  0  0  0  0  0  0  0  0  0  0  0
  193.7640  176.3790  144.3890 C   0  0  0  0  0  3  0  0  0  0  0  0
  192.7990  175.2430  142.4260 C   0  0  0  0  0  3  0  0  0  0  0  0
  189.2390  177.5790  145.1170 C   0  0  0  0  0  2  0  0  0  0  0  0
  188.3590  176.5560  147.1180 C   0  0  0  0  0  2  0  0  0  0  0  0
  187.3230  176.3680  146.0230 C   0  0  0  0  0  2  0  0  0  0  0  0
  189.6600  176.9790  146.4480 C   0  0  1  0  0  3  0  0  0  0  0  0
  187.9560  176.8670  144.7370 C   0  0  1  0  0  3  0  0  0  0  0  0
  187.0510  177.7430  143.9940 N   0  0  0  0  0  0  0  0  0  0  0  0
  186.2310  178.6740  144.7700 C   0  0  0  0  0  2  0  0  0  0  0  0
  186.8650  177.6480  142.5680 C   0  0  0  0  0  0  0  0  0  0  0  0
  184.9150  179.0410  142.7980 O   0  0  0  0  0  0  0  0  0  0  0  0
  185.9160  178.6170  141.9010 C   0  0  2  0  0  3  0  0  0  0  0  0
  187.5430  176.8370  141.8780 O   0  0  0  0  0  0  0  0  0  0  0  0
  185.5650  179.7030  143.8550 C   0  0  0  0  0  2  0  0  0  0  0  0
  185.2780  178.0370  140.6380 C   0  0  0  0  0  2  0  0  0  0  0  0
  183.7800  178.2910  140.5900 C   0  0  0  0  0  1  0  0  0  0  0  0
  191.6460  173.0080  142.5370 N   0  0  0  0  0  2  0  0  0  0  0  0
  188.1980  174.1700  139.4880 O   0  0  0  0  0  0  0  0  0  0  0  0
  190.9250  172.7700  141.3210 C   0  0  0  0  0  0  0  0  0  0  0  0
  189.4820  172.2800  138.8700 C   0  0  0  0  0  3  0  0  0  0  0  0
  192.3840  171.0450  140.5490 O   0  0  0  0  0  0  0  0  0  0  0  0
  189.9100  173.5820  141.0130 C   0  0  0  0  0  3  0  0  0  0  0  0
  190.5010  171.4590  139.1530 C   0  0  0  0  0  0  0  0  0  0  0  0
  189.1430  173.3910  139.7730 C   0  0  0  0  0  0  0  0  0  0  0  0
  191.3260  171.7040  140.3630 C   0  0  0  0  0  0  0  0  0  0  0  0
  190.1740  169.0970  138.5750 C   0  0  0  0  0  2  0  0  0  0  0  0
  190.8530  170.3580  138.1960 C   0  0  1  0  0  3  0  0  0  0  0  0
  189.6910  169.9090  137.5350 O   0  0  0  0  0  0  0  0  0  0  0  0
  1  3  1  6  0  0  0
  1 14  1  0  0  0  0
  2  3  1  0  0  0  0
  4  6  1  0  0  0  0
  4  2  1  0  0  0  0
  6  5  1  1  0  0  0
  6  1  1  0  0  0  0
  7  4  2  0  0  0  0
  8  9  1  0  0  0  0
  9  5  2  0  0  0  0
 10  8  2  0  0  0  0
 10  7  1  0  0  0  0
 13 12  1  0  0  0  0
 14 11  1  6  0  0  0
 14 12  1  0  0  0  0
 15 16  1  1  0  0  0
 15 11  1  0  0  0  0
 15 13  1  0  0  0  0
 16 17  1  0  0  0  0
 18 16  1  0  0  0  0
 19 22  1  0  0  0  0
 20 23  1  6  0  0  0
 20 18  1  0  0  0  0
 20 19  1  0  0  0  0
 21 18  2  0  0  0  0
 22 17  1  0  0  0  0
 24 23  1  0  0  0  0
 25  7  1  0  0  0  0
 26 32  2  0  0  0  0
 27 25  1  0  0  0  0
 28 31  2  0  0  0  0
 28 32  1  0  0  0  0
 30 27  2  0  0  0  0
 31 33  1  0  0  0  0
 32 30  1  0  0  0  0
 33 29  2  0  0  0  0
 33 27  1  0  0  0  0
 35 34  1  0  0  0  0
 35 31  1  1  0  0  0
 36 35  1  0  0  0  0
 36 34  1  0  0  0  0
M  END
>  <MODEL>
5

>  <REMARK>
 VINA RESULT:      -7.7      3.713      8.857
  Name = 
  6 active torsions:
  status: ('A' for Active; 'I' for Inactive)
    1  A    between atoms: N_1  and  C_16
    2  A    between atoms: N_1  and  C_22
    3  A    between atoms: C_5  and  C_27
    4  A    between atoms: C_7  and  C_23
    5  A    between atoms: N_12  and  C_30
    6  A    between atoms: C_20  and  C_28
                            x       y       z     vdW  Elec       q    Type
                         _______ _______ _______ _____ _____    ______ ____

>  <TORSDO>
F 6

$$$$
=
 OpenBabel11062422283D

 36 41  0  0  1  0  0  0  0  0999 V2000
  189.0830  176.7300  146.0310 C   0  0  1  0  0  3  0  0  0  0  0  0
  188.3670  178.2160  144.2150 C   0  0  0  0  0  2  0  0  0  0  0  0
  189.5200  177.3670  144.7130 C   0  0  0  0  0  2  0  0  0  0  0  0
  187.1950  177.7660  145.0050 C   0  0  0  0  0  0  0  0  0  0  0  0
  187.1280  177.3070  147.4080 C   0  0  0  0  0  3  0  0  0  0  0  0
  187.5620  176.8060  146.0740 C   0  0  2  0  0  3  0  0  0  0  0  0
  185.9330  178.0980  144.6960 C   0  0  0  0  0  0  0  0  0  0  0  0
  184.7650  177.4070  146.7820 N   0  0  0  0  0  0  0  0  0  0  0  0
  185.8530  177.5360  147.7120 C   0  0  0  0  0  3  0  0  0  0  0  0
  184.7710  177.6390  145.5000 C   0  0  0  0  0  3  0  0  0  0  0  0
  190.6310  174.9960  145.0760 C   0  0  0  0  0  2  0  0  0  0  0  0
  190.2730  175.0360  147.4620 C   0  0  0  0  0  2  0  0  0  0  0  0
  191.7670  175.1870  147.2280 C   0  0  0  0  0  2  0  0  0  0  0  0
  189.5760  175.2800  146.1300 C   0  0  1  0  0  3  0  0  0  0  0  0
  191.9590  175.3260  145.7290 C   0  0  1  0  0  3  0  0  0  0  0  0
  193.0310  174.4620  145.2390 N   0  0  0  0  0  0  0  0  0  0  0  0
  192.6930  173.0670  144.9570 C   0  0  0  0  0  2  0  0  0  0  0  0
  194.4010  174.8990  145.1300 C   0  0  0  0  0  0  0  0  0  0  0  0
  195.0430  172.5960  144.8600 O   0  0  0  0  0  0  0  0  0  0  0  0
  195.4260  173.9260  144.5950 C   0  0  2  0  0  3  0  0  0  0  0  0
  194.7230  176.0920  145.3910 O   0  0  0  0  0  0  0  0  0  0  0  0
  193.8250  172.3780  144.1930 C   0  0  0  0  0  2  0  0  0  0  0  0
  196.8280  174.1900  145.1460 C   0  0  0  0  0  2  0  0  0  0  0  0
  197.1180  173.3560  146.3830 C   0  0  0  0  0  1  0  0  0  0  0  0
  185.7020  178.9360  143.5530 N   0  0  0  0  0  2  0  0  0  0  0  0
  182.2690  178.0090  140.4080 O   0  0  0  0  0  0  0  0  0  0  0  0
  185.2880  178.4930  142.2550 C   0  0  0  0  0  0  0  0  0  0  0  0
  184.4690  177.5980  139.6360 C   0  0  0  0  0  3  0  0  0  0  0  0
  187.5010  178.3460  141.3710 O   0  0  0  0  0  0  0  0  0  0  0  0
  183.9810  178.4600  141.9800 C   0  0  0  0  0  3  0  0  0  0  0  0
  185.7830  177.6320  139.8850 C   0  0  0  0  0  0  0  0  0  0  0  0
  183.5010  178.0230  140.6590 C   0  0  0  0  0  0  0  0  0  0  0  0
  186.2690  178.1510  141.1890 C   0  0  0  0  0  0  0  0  0  0  0  0
  187.0650  175.7870  138.8990 C   0  0  0  0  0  2  0  0  0  0  0  0
  186.7520  177.2320  138.8110 C   0  0  1  0  0  3  0  0  0  0  0  0
  186.1530  176.2860  137.9550 O   0  0  0  0  0  0  0  0  0  0  0  0
  1  3  1  6  0  0  0
  1  6  1  0  0  0  0
  1 14  1  0  0  0  0
  2  3  1  0  0  0  0
  2  4  1  0  0  0  0
  4  6  1  0  0  0  0
  5  9  2  0  0  0  0
  6  5  1  1  0  0  0
  7  4  2  0  0  0  0
  7 10  1  0  0  0  0
  8  9  1  0  0  0  0
 10  8  2  0  0  0  0
 13 12  1  0  0  0  0
 14 11  1  6  0  0  0
 14 12  1  0  0  0  0
 15 11  1  6  0  0  0
 15 13  1  0  0  0  0
 16 15  1  0  0  0  0
 17 16  1  0  0  0  0
 18 16  1  0  0  0  0
 18 21  2  0  0  0  0
 20 19  1  0  0  0  0
 20 18  1  0  0  0  0
 20 23  1  1  0  0  0
 22 19  1  0  0  0  0
 22 17  1  0  0  0  0
 23 24  1  0  0  0  0
 25  7  1  0  0  0  0
 26 32  2  0  0  0  0
 27 25  1  0  0  0  0
 28 31  2  0  0  0  0
 28 32  1  0  0  0  0
 30 27  2  0  0  0  0
 31 33  1  0  0  0  0
 32 30  1  0  0  0  0
 33 29  2  0  0  0  0
 33 27  1  0  0  0  0
 35 34  1  0  0  0  0
 35 31  1  1  0  0  0
 36 35  1  0  0  0  0
 36 34  1  0  0  0  0
M  END
>  <MODEL>
6

>  <REMARK>
 VINA RESULT:      -7.5      1.154      2.471
  Name = 
  6 active torsions:
  status: ('A' for Active; 'I' for Inactive)
    1  A    between atoms: N_1  and  C_16
    2  A    between atoms: N_1  and  C_22
    3  A    between atoms: C_5  and  C_27
    4  A    between atoms: C_7  and  C_23
    5  A    between atoms: N_12  and  C_30
    6  A    between atoms: C_20  and  C_28
                            x       y       z     vdW  Elec       q    Type
                         _______ _______ _______ _____ _____    ______ ____

>  <TORSDO>
F 6

$$$$
=
 OpenBabel11062422283D

 36 41  0  0  1  0  0  0  0  0999 V2000
  193.3100  177.0100  145.0470 C   0  0  1  0  0  3  0  0  0  0  0  0
  191.0730  177.0610  144.0410 C   0  0  0  0  0  2  0  0  0  0  0  0
  192.5440  177.2900  143.7540 C   0  0  0  0  0  2  0  0  0  0  0  0
  191.0480  176.3030  145.3160 C   0  0  0  0  0  0  0  0  0  0  0  0
  192.3950  176.7380  147.3130 C   0  0  0  0  0  3  0  0  0  0  0  0
  192.3920  176.1790  145.9320 C   0  0  2  0  0  3  0  0  0  0  0  0
  189.9490  175.6930  145.7840 C   0  0  0  0  0  0  0  0  0  0  0  0
  190.6690  175.2000  148.1140 N   0  0  0  0  0  0  0  0  0  0  0  0
  191.6310  176.2530  148.2890 C   0  0  0  0  0  3  0  0  0  0  0  0
  189.9420  174.9410  147.0640 C   0  0  0  0  0  3  0  0  0  0  0  0
  194.7620  175.0450  145.6360 C   0  0  0  0  0  2  0  0  0  0  0  0
  194.6450  175.7440  143.3290 C   0  0  0  0  0  2  0  0  0  0  0  0
  194.2180  174.2870  143.3800 C   0  0  0  0  0  2  0  0  0  0  0  0
  194.6250  176.2750  144.7560 C   0  0  1  0  0  3  0  0  0  0  0  0
  194.1370  173.9100  144.8480 C   0  0  1  0  0  3  0  0  0  0  0  0
  194.8020  172.6360  145.1160 N   0  0  0  0  0  0  0  0  0  0  0  0
  196.2260  172.6800  145.4510 C   0  0  0  0  0  2  0  0  0  0  0  0
  194.1460  171.3620  144.9600 C   0  0  0  0  0  0  0  0  0  0  0  0
  196.3060  170.3100  145.0890 O   0  0  0  0  0  0  0  0  0  0  0  0
  194.9250  170.1080  145.2810 C   0  0  2  0  0  3  0  0  0  0  0  0
  192.9240  171.2960  144.6480 O   0  0  0  0  0  0  0  0  0  0  0  0
  196.7010  171.3240  145.9780 C   0  0  0  0  0  2  0  0  0  0  0  0
  194.4520  168.9000  144.4710 C   0  0  0  0  0  2  0  0  0  0  0  0
  195.5050  168.4350  143.4780 C   0  0  0  0  0  1  0  0  0  0  0  0
  188.7350  175.7840  145.0230 N   0  0  0  0  0  2  0  0  0  0  0  0
  185.7880  177.8800  148.0970 O   0  0  0  0  0  0  0  0  0  0  0  0
  187.6360  176.6640  145.2940 C   0  0  0  0  0  0  0  0  0  0  0  0
  185.4230  178.4380  145.8260 C   0  0  0  0  0  3  0  0  0  0  0  0
  187.4410  177.4510  143.0480 O   0  0  0  0  0  0  0  0  0  0  0  0
  187.2490  176.8270  146.5620 C   0  0  0  0  0  3  0  0  0  0  0  0
  185.7990  178.2980  144.5490 C   0  0  0  0  0  0  0  0  0  0  0  0
  186.1340  177.7250  146.8990 C   0  0  0  0  0  0  0  0  0  0  0  0
  186.9760  177.4550  144.2200 C   0  0  0  0  0  0  0  0  0  0  0  0
  184.0980  178.2050  142.7830 C   0  0  0  0  0  2  0  0  0  0  0  0
  185.0840  179.0660  143.4770 C   0  0  1  0  0  3  0  0  0  0  0  0
  183.7050  179.1250  143.7690 O   0  0  0  0  0  0  0  0  0  0  0  0
  1  3  1  6  0  0  0
  1  6  1  0  0  0  0
  2  4  1  0  0  0  0
  3  2  1  0  0  0  0
  4  7  2  0  0  0  0
  4  6  1  0  0  0  0
  5  9  2  0  0  0  0
  6  5  1  1  0  0  0
  7 10  1  0  0  0  0
  8  9  1  0  0  0  0
 10  8  2  0  0  0  0
 12 13  1  0  0  0  0
 14 12  1  6  0  0  0
 14  1  1  0  0  0  0
 14 11  1  0  0  0  0
 15 13  1  6  0  0  0
 15 16  1  0  0  0  0
 15 11  1  0  0  0  0
 16 17  1  0  0  0  0
 17 22  1  0  0  0  0
 18 16  1  0  0  0  0
 18 20  1  0  0  0  0
 19 20  1  0  0  0  0
 19 22  1  0  0  0  0
 20 23  1  6  0  0  0
 21 18  2  0  0  0  0
 24 23  1  0  0  0  0
 25 27  1  0  0  0  0
 25  7  1  0  0  0  0
 27 30  2  0  0  0  0
 28 32  1  0  0  0  0
 29 33  2  0  0  0  0
 30 32  1  0  0  0  0
 31 28  2  0  0  0  0
 32 26  2  0  0  0  0
 33 31  1  0  0  0  0
 33 27  1  0  0  0  0
 34 35  1  0  0  0  0
 34 36  1  0  0  0  0
 35 36  1  0  0  0  0
 35 31  1  1  0  0  0
M  END
>  <MODEL>
7

>  <REMARK>
 VINA RESULT:      -7.4      2.435      4.969
  Name = 
  6 active torsions:
  status: ('A' for Active; 'I' for Inactive)
    1  A    between atoms: N_1  and  C_16
    2  A    between atoms: N_1  and  C_22
    3  A    between atoms: C_5  and  C_27
    4  A    between atoms: C_7  and  C_23
    5  A    between atoms: N_12  and  C_30
    6  A    between atoms: C_20  and  C_28
                            x       y       z     vdW  Elec       q    Type
                         _______ _______ _______ _____ _____    ______ ____

>  <TORSDO>
F 6

$$$$
=
 OpenBabel11062422283D

 36 41  0  0  1  0  0  0  0  0999 V2000
  191.1150  176.7910  145.0030 C   0  0  1  0  0  3  0  0  0  0  0  0
  189.7790  178.4120  143.7350 C   0  0  0  0  0  2  0  0  0  0  0  0
  191.1420  177.7540  143.8160 C   0  0  0  0  0  2  0  0  0  0  0  0
  188.9000  177.5710  144.5840 C   0  0  0  0  0  0  0  0  0  0  0  0
  189.4290  176.6470  146.7880 C   0  0  0  0  0  3  0  0  0  0  0  0
  189.6500  176.5240  145.3190 C   0  0  2  0  0  3  0  0  0  0  0  0
  187.5630  177.6730  144.5800 C   0  0  0  0  0  0  0  0  0  0  0  0
  187.0070  176.3500  146.6120 N   0  0  0  0  0  0  0  0  0  0  0  0
  188.2280  176.5280  147.3490 C   0  0  0  0  0  3  0  0  0  0  0  0
  186.6990  176.8240  145.4390 C   0  0  0  0  0  3  0  0  0  0  0  0
  192.9650  175.7490  143.6600 C   0  0  0  0  0  2  0  0  0  0  0  0
  192.5810  174.9550  145.9060 C   0  0  0  0  0  2  0  0  0  0  0  0
  194.0240  175.4260  145.8360 C   0  0  0  0  0  2  0  0  0  0  0  0
  191.8650  175.4940  144.6750 C   0  0  1  0  0  3  0  0  0  0  0  0
  194.2030  176.0720  144.4740 C   0  0  1  0  0  3  0  0  0  0  0  0
  195.4220  175.6080  143.8130 N   0  0  0  0  0  0  0  0  0  0  0  0
  196.4030  176.6230  143.4280 C   0  0  0  0  0  2  0  0  0  0  0  0
  195.6350  174.2320  143.4390 C   0  0  0  0  0  0  0  0  0  0  0  0
  197.4780  174.9610  142.0730 O   0  0  0  0  0  0  0  0  0  0  0  0
  196.9410  173.8620  142.7750 C   0  0  2  0  0  3  0  0  0  0  0  0
  194.7930  173.3410  143.7380 O   0  0  0  0  0  0  0  0  0  0  0  0
  197.7260  175.9710  143.0190 C   0  0  0  0  0  2  0  0  0  0  0  0
  196.8040  172.6590  141.8410 C   0  0  0  0  0  2  0  0  0  0  0  0
  196.1010  173.0230  140.5430 C   0  0  0  0  0  1  0  0  0  0  0  0
  186.9500  178.6480  143.7220 N   0  0  0  0  0  2  0  0  0  0  0  0
  186.4460  177.4750  139.1500 O   0  0  0  0  0  0  0  0  0  0  0  0
  186.1140  178.3670  142.5930 C   0  0  0  0  0  0  0  0  0  0  0  0
  184.4170  177.8040  140.3260 C   0  0  0  0  0  3  0  0  0  0  0  0
  184.0720  178.4170  143.8290 O   0  0  0  0  0  0  0  0  0  0  0  0
  186.6960  178.0720  141.4270 C   0  0  0  0  0  3  0  0  0  0  0  0
  183.8120  178.0880  141.4850 C   0  0  0  0  0  0  0  0  0  0  0  0
  185.8860  177.7650  140.2380 C   0  0  0  0  0  0  0  0  0  0  0  0
  184.6310  178.3160  142.7030 C   0  0  0  0  0  0  0  0  0  0  0  0
  181.7490  179.2610  140.8620 C   0  0  0  0  0  2  0  0  0  0  0  0
  182.3140  178.0820  141.5600 C   0  0  1  0  0  3  0  0  0  0  0  0
  181.7700  177.9910  140.2610 O   0  0  0  0  0  0  0  0  0  0  0  0
  1  3  1  6  0  0  0
  1  6  1  0  0  0  0
  2  3  1  0  0  0  0
  2  4  1  0  0  0  0
  4  6  1  0  0  0  0
  5  9  2  0  0  0  0
  6  5  1  1  0  0  0
  7  4  2  0  0  0  0
  7 10  1  0  0  0  0
  8  9  1  0  0  0  0
 10  8  2  0  0  0  0
 13 12  1  0  0  0  0
 14 11  1  6  0  0  0
 14  1  1  0  0  0  0
 14 12  1  0  0  0  0
 15 11  1  6  0  0  0
 15 13  1  0  0  0  0
 16 15  1  0  0  0  0
 17 16  1  0  0  0  0
 18 21  2  0  0  0  0
 18 16  1  0  0  0  0
 19 20  1  0  0  0  0
 19 22  1  0  0  0  0
 20 23  1  6  0  0  0
 20 18  1  0  0  0  0
 22 17  1  0  0  0  0
 24 23  1  0  0  0  0
 25  7  1  0  0  0  0
 26 32  2  0  0  0  0
 27 33  1  0  0  0  0
 27 25  1  0  0  0  0
 28 31  2  0  0  0  0
 30 27  2  0  0  0  0
 31 33  1  0  0  0  0
 32 28  1  0  0  0  0
 32 30  1  0  0  0  0
 33 29  2  0  0  0  0
 34 35  1  0  0  0  0
 35 31  1  6  0  0  0
 36 34  1  0  0  0  0
 36 35  1  0  0  0  0
M  END
>  <MODEL>
8

>  <REMARK>
 VINA RESULT:      -7.3      2.103      2.823
  Name = 
  6 active torsions:
  status: ('A' for Active; 'I' for Inactive)
    1  A    between atoms: N_1  and  C_16
    2  A    between atoms: N_1  and  C_22
    3  A    between atoms: C_5  and  C_27
    4  A    between atoms: C_7  and  C_23
    5  A    between atoms: N_12  and  C_30
    6  A    between atoms: C_20  and  C_28
                            x       y       z     vdW  Elec       q    Type
                         _______ _______ _______ _____ _____    ______ ____

>  <TORSDO>
F 6

$$$$
=
 OpenBabel11062422283D

 36 41  0  0  1  0  0  0  0  0999 V2000
  193.8900  175.4460  145.6630 C   0  0  1  0  0  3  0  0  0  0  0  0
  192.5980  177.1380  144.4430 C   0  0  0  0  0  2  0  0  0  0  0  0
  193.9300  176.4140  144.4810 C   0  0  0  0  0  2  0  0  0  0  0  0
  191.7040  176.3340  145.3120 C   0  0  0  0  0  0  0  0  0  0  0  0
  192.2500  175.3700  147.4940 C   0  0  0  0  0  3  0  0  0  0  0  0
  192.4220  175.2470  146.0190 C   0  0  2  0  0  3  0  0  0  0  0  0
  190.3740  176.5020  145.3470 C   0  0  0  0  0  0  0  0  0  0  0  0
  189.8120  175.1920  147.3870 N   0  0  0  0  0  0  0  0  0  0  0  0
  191.0610  175.3060  148.0890 C   0  0  0  0  0  3  0  0  0  0  0  0
  189.4940  175.6890  146.2260 C   0  0  0  0  0  3  0  0  0  0  0  0
  193.5530  172.9840  145.2890 C   0  0  0  0  0  2  0  0  0  0  0  0
  195.1310  174.1590  143.8920 C   0  0  0  0  0  2  0  0  0  0  0  0
  194.1070  173.5150  142.9720 C   0  0  0  0  0  2  0  0  0  0  0  0
  194.5650  174.1160  145.3050 C   0  0  1  0  0  3  0  0  0  0  0  0
  193.0340  172.9210  143.8660 C   0  0  1  0  0  3  0  0  0  0  0  0
  192.6980  171.5540  143.4720 N   0  0  0  0  0  0  0  0  0  0  0  0
  193.4920  170.4730  144.0580 C   0  0  0  0  0  2  0  0  0  0  0  0
  191.7090  171.2480  142.4690 C   0  0  0  0  0  0  0  0  0  0  0  0
  192.5640  168.9990  142.4090 O   0  0  0  0  0  0  0  0  0  0  0  0
  191.4300  169.7970  142.1530 C   0  0  2  0  0  3  0  0  0  0  0  0
  191.0280  172.1640  141.9310 O   0  0  0  0  0  0  0  0  0  0  0  0
  192.8460  169.1140  143.7810 C   0  0  0  0  0  2  0  0  0  0  0  0
  190.9560  169.5910  140.7140 C   0  0  0  0  0  2  0  0  0  0  0  0
  192.1180  169.5470  139.7340 C   0  0  0  0  0  1  0  0  0  0  0  0
  189.7850  177.5120  144.5130 N   0  0  0  0  0  2  0  0  0  0  0  0
  187.4900  176.2600  140.5500 O   0  0  0  0  0  0  0  0  0  0  0  0
  188.5690  177.3810  143.7660 C   0  0  0  0  0  0  0  0  0  0  0  0
  186.1120  177.1230  142.2720 C   0  0  0  0  0  3  0  0  0  0  0  0
  187.1420  177.9780  145.5840 O   0  0  0  0  0  0  0  0  0  0  0  0
  188.6340  176.8960  142.5220 C   0  0  0  0  0  3  0  0  0  0  0  0
  186.0210  177.6020  143.5180 C   0  0  0  0  0  0  0  0  0  0  0  0
  187.4170  176.7310  141.7140 C   0  0  0  0  0  0  0  0  0  0  0  0
  187.2410  177.6910  144.3610 C   0  0  0  0  0  0  0  0  0  0  0  0
  184.4410  179.4180  143.9940 C   0  0  0  0  0  2  0  0  0  0  0  0
  184.6760  177.9580  144.0780 C   0  0  1  0  0  3  0  0  0  0  0  0
  183.8720  178.5270  143.0690 O   0  0  0  0  0  0  0  0  0  0  0  0
  1  3  1  6  0  0  0
  1  6  1  0  0  0  0
  2  3  1  0  0  0  0
  2  4  1  0  0  0  0
  4  7  2  0  0  0  0
  4  6  1  0  0  0  0
  5  9  2  0  0  0  0
  6  5  1  1  0  0  0
  7 10  1  0  0  0  0
  8  9  1  0  0  0  0
 10  8  2  0  0  0  0
 11 14  1  0  0  0  0
 13 12  1  0  0  0  0
 14 12  1  6  0  0  0
 14  1  1  0  0  0  0
 15 13  1  6  0  0  0
 15 11  1  0  0  0  0
 16 15  1  0  0  0  0
 16 17  1  0  0  0  0
 18 16  1  0  0  0  0
 19 22  1  0  0  0  0
 20 23  1  6  0  0  0
 20 19  1  0  0  0  0
 20 18  1  0  0  0  0
 21 18  2  0  0  0  0
 22 17  1  0  0  0  0
 24 23  1  0  0  0  0
 25  7  1  0  0  0  0
 26 32  2  0  0  0  0
 27 33  1  0  0  0  0
 27 25  1  0  0  0  0
 28 31  2  0  0  0  0
 30 27  2  0  0  0  0
 31 33  1  0  0  0  0
 32 28  1  0  0  0  0
 32 30  1  0  0  0  0
 33 29  2  0  0  0  0
 34 35  1  0  0  0  0
 35 31  1  6  0  0  0
 36 34  1  0  0  0  0
 36 35  1  0  0  0  0
M  END
>  <MODEL>
9

>  <REMARK>
 VINA RESULT:      -7.2      2.926      5.081
  Name = 
  6 active torsions:
  status: ('A' for Active; 'I' for Inactive)
    1  A    between atoms: N_1  and  C_16
    2  A    between atoms: N_1  and  C_22
    3  A    between atoms: C_5  and  C_27
    4  A    between atoms: C_7  and  C_23
    5  A    between atoms: N_12  and  C_30
    6  A    between atoms: C_20  and  C_28
                            x       y       z     vdW  Elec       q    Type
                         _______ _______ _______ _____ _____    ______ ____

>  <TORSDO>
F 6

$$$$
