=
 OpenBabel11062419283D

 38 43  0  0  1  0  0  0  0  0999 V2000
  189.2250  177.0780  143.9210 C   0  0  1  0  0  0  0  0  0  0  0  0
  190.2140  178.2080  143.6750 C   0  0  0  0  0  2  0  0  0  0  0  0
  190.2130  177.5020  145.0240 C   0  0  2  0  0  3  0  0  0  0  0  0
  185.0240  178.5720  141.6850 O   0  0  0  0  0  1  0  0  0  0  0  0
  185.6680  178.7050  142.9150 C   0  0  2  0  0  3  0  0  0  0  0  0
  187.0900  178.1890  142.8110 C   0  0  0  0  0  0  0  0  0  0  0  0
  185.6810  177.8680  145.2510 C   0  0  0  0  0  0  0  0  0  0  0  0
  187.7000  178.3450  141.7180 O   0  0  0  0  0  0  0  0  0  0  0  0
  184.8550  177.9820  143.9880 C   0  0  0  0  0  2  0  0  0  0  0  0
  185.4580  178.9580  146.2640 C   0  0  0  0  0  2  0  0  0  0  0  0
  184.9660  177.5400  146.5350 C   0  0  0  0  0  2  0  0  0  0  0  0
  187.7810  177.5720  143.9880 C   0  0  0  0  0  0  0  0  0  0  0  0
  187.0950  177.4140  145.1300 C   0  0  0  0  0  3  0  0  0  0  0  0
  193.8250  176.2280  144.6500 C   0  0  0  0  0  2  0  0  0  0  0  0
  192.6290  177.1650  144.4930 C   0  0  0  0  0  2  0  0  0  0  0  0
  191.4010  176.5610  145.1670 C   0  0  1  0  0  3  0  0  0  0  0  0
  194.1150  175.9450  146.1310 C   0  0  2  0  0  3  0  0  0  0  0  0
  191.6950  176.3570  146.6540 C   0  0  0  0  0  2  0  0  0  0  0  0
  195.1310  174.9940  146.2250 O   0  0  0  0  0  1  0  0  0  0  0  0
  192.8720  175.4080  146.8320 C   0  0  0  0  0  2  0  0  0  0  0  0
  189.5630  175.9600  143.0370 N   0  0  0  0  0  2  0  0  0  0  0  0
  188.6910  174.8210  143.3080 C   0  0  0  0  0  2  0  0  0  0  0  0
  189.0410  171.8800  143.1800 O   0  0  0  0  0  1  0  0  0  0  0  0
  188.8030  173.9880  139.5320 C   0  0  0  0  0  3  0  0  0  0  0  0
  188.4870  173.9780  142.0480 C   0  0  2  0  0  3  0  0  0  0  0  0
  191.0000  173.4580  140.3050 C   0  0  0  0  0  2  0  0  0  0  0  0
  189.2650  172.6360  142.0300 C   0  0  1  0  0  3  0  0  0  0  0  0
  188.5720  174.8230  140.7630 C   0  0  2  0  0  3  0  0  0  0  0  0
  189.9150  173.3640  139.3500 N   0  0  0  0  0  0  0  0  0  0  0  0
  190.7500  172.6150  141.5670 C   0  0  2  0  0  3  0  0  0  0  0  0
  187.4160  175.5590  140.6040 F   0  0  0  0  0  0  0  0  0  0  0  0
  191.4780  172.4210  144.0290 C   0  0  0  0  0  2  0  0  0  0  0  0
  192.8270  172.5260  144.6840 C   0  0  0  0  0  2  0  0  0  0  0  0
  193.1660  172.6610  142.3840 N   0  0  0  0  0  0  0  0  0  0  0  0
  191.7650  172.9910  142.6700 C   0  0  1  0  0  3  0  0  0  0  0  0
  193.8270  172.7180  143.6290 N   0  0  0  0  0  2  0  0  0  0  0  0
  193.2990  171.2750  141.9190 C   0  0  0  0  0  2  0  0  0  0  0  0
  193.9160  171.2610  140.6630 O   0  0  0  0  0  1  0  0  0  0  0  0
  1 21  1  6  0  0  0
  1 12  1  0  0  0  0
  1  3  1  0  0  0  0
  2  1  1  0  0  0  0
  3  2  1  6  0  0  0
  3 16  1  0  0  0  0
  5  4  1  6  0  0  0
  5  9  1  0  0  0  0
  6  5  1  0  0  0  0
  6 12  1  0  0  0  0
  7 10  1  0  0  0  0
  7 11  1  0  0  0  0
  8  6  2  0  0  0  0
  9  7  1  0  0  0  0
 10 11  1  0  0  0  0
 12 13  2  0  0  0  0
 13  7  1  0  0  0  0
 14 17  1  0  0  0  0
 15 14  1  0  0  0  0
 16 15  1  6  0  0  0
 16 18  1  0  0  0  0
 17 19  1  6  0  0  0
 17 20  1  0  0  0  0
 18 20  1  0  0  0  0
 21 22  1  0  0  0  0
 24 28  1  0  0  0  0
 25 22  1  1  0  0  0
 27 25  1  0  0  0  0
 27 23  1  1  0  0  0
 28 31  1  6  0  0  0
 28 25  1  0  0  0  0
 29 24  2  0  0  0  0
 29 26  1  0  0  0  0
 30 26  1  6  0  0  0
 30 27  1  0  0  0  0
 30 35  1  0  0  0  0
 32 33  1  0  0  0  0
 34 35  1  0  0  0  0
 34 36  1  0  0  0  0
 35 32  1  1  0  0  0
 36 33  1  0  0  0  0
 37 34  1  0  0  0  0
 38 37  1  0  0  0  0
M  END
>  <MODEL>
1

>  <REMARK>
 VINA RESULT:      -8.2      0.000      0.000
  Name = 
  7 active torsions:
  status: ('A' for Active; 'I' for Inactive)
    1  A    between atoms: C_2  and  N_32
    2  A    between atoms: C_2  and  C_33
    3  A    between atoms: C_7  and  N_14
    4  A    between atoms: C_11  and  C_17
    5  A    between atoms: C_15  and  C_28
    6  A    between atoms: C_17  and  N_32
    7  A    between atoms: C_25  and  C_34
                            x       y       z     vdW  Elec       q    Type
                         _______ _______ _______ _____ _____    ______ ____

>  <TORSDO>
F 7

$$$$
=
 OpenBabel11062419283D

 38 43  0  0  1  0  0  0  0  0999 V2000
  189.6570  176.7150  144.4820 C   0  0  1  0  0  0  0  0  0  0  0  0
  190.4990  177.9340  144.1350 C   0  0  0  0  0  2  0  0  0  0  0  0
  190.8310  177.1340  145.3860 C   0  0  2  0  0  3  0  0  0  0  0  0
  186.0240  176.9380  147.8930 O   0  0  0  0  0  1  0  0  0  0  0  0
  186.1680  176.9150  146.5060 C   0  0  2  0  0  3  0  0  0  0  0  0
  187.5950  176.5590  146.1410 C   0  0  0  0  0  0  0  0  0  0  0  0
  186.1550  178.3550  144.4840 C   0  0  0  0  0  0  0  0  0  0  0  0
  188.2170  175.7560  146.8890 O   0  0  0  0  0  0  0  0  0  0  0  0
  185.7310  178.2640  145.9340 C   0  0  0  0  0  2  0  0  0  0  0  0
  185.1080  177.9480  143.4830 C   0  0  0  0  0  2  0  0  0  0  0  0
  185.5120  179.4110  143.6260 C   0  0  0  0  0  2  0  0  0  0  0  0
  188.2340  177.0870  144.8930 C   0  0  0  0  0  0  0  0  0  0  0  0
  187.5440  177.9470  144.1280 C   0  0  0  0  0  3  0  0  0  0  0  0
  194.5460  176.3230  144.7970 C   0  0  0  0  0  2  0  0  0  0  0  0
  193.2930  177.1770  144.9740 C   0  0  0  0  0  2  0  0  0  0  0  0
  192.0770  176.2820  145.1950 C   0  0  1  0  0  3  0  0  0  0  0  0
  194.7700  175.4110  146.0120 C   0  0  2  0  0  3  0  0  0  0  0  0
  192.2990  175.4380  146.4510 C   0  0  0  0  0  2  0  0  0  0  0  0
  195.8500  174.5650  145.7570 O   0  0  0  0  0  1  0  0  0  0  0  0
  193.5330  174.5620  146.2850 C   0  0  0  0  0  2  0  0  0  0  0  0
  189.8650  175.6940  143.4520 N   0  0  0  0  0  2  0  0  0  0  0  0
  188.9760  174.5590  143.6800 C   0  0  0  0  0  2  0  0  0  0  0  0
  188.9750  171.6560  143.0750 O   0  0  0  0  0  1  0  0  0  0  0  0
  188.5050  174.3340  139.8470 C   0  0  0  0  0  3  0  0  0  0  0  0
  188.5180  173.9500  142.3530 C   0  0  2  0  0  3  0  0  0  0  0  0
  190.7100  173.4900  140.2070 C   0  0  0  0  0  2  0  0  0  0  0  0
  189.1310  172.5630  142.0270 C   0  0  1  0  0  3  0  0  0  0  0  0
  188.5300  174.9790  141.2070 C   0  0  2  0  0  3  0  0  0  0  0  0
  189.5070  173.6490  139.4170 N   0  0  0  0  0  0  0  0  0  0  0  0
  190.5320  172.4820  141.3560 C   0  0  2  0  0  3  0  0  0  0  0  0
  187.4530  175.8330  141.3270 F   0  0  0  0  0  0  0  0  0  0  0  0
  191.5530  171.8180  143.6240 C   0  0  0  0  0  2  0  0  0  0  0  0
  192.9800  171.7010  144.0820 C   0  0  0  0  0  2  0  0  0  0  0  0
  193.0260  172.1920  141.8060 N   0  0  0  0  0  0  0  0  0  0  0  0
  191.7170  172.5830  142.3430 C   0  0  1  0  0  3  0  0  0  0  0  0
  193.8470  171.9850  142.9350 N   0  0  0  0  0  2  0  0  0  0  0  0
  192.9510  170.8980  141.1190 C   0  0  0  0  0  2  0  0  0  0  0  0
  193.4090  171.0410  139.8040 O   0  0  0  0  0  1  0  0  0  0  0  0
  1 21  1  6  0  0  0
  1 12  1  0  0  0  0
  1  3  1  0  0  0  0
  2  1  1  0  0  0  0
  3  2  1  6  0  0  0
  5  4  1  1  0  0  0
  6  5  1  0  0  0  0
  6  8  2  0  0  0  0
  7  9  1  0  0  0  0
  9  5  1  0  0  0  0
 10 11  1  0  0  0  0
 10  7  1  0  0  0  0
 11  7  1  0  0  0  0
 12  6  1  0  0  0  0
 13  7  1  0  0  0  0
 13 12  2  0  0  0  0
 14 15  1  0  0  0  0
 14 17  1  0  0  0  0
 16 15  1  1  0  0  0
 16  3  1  0  0  0  0
 16 18  1  0  0  0  0
 17 19  1  6  0  0  0
 17 20  1  0  0  0  0
 20 18  1  0  0  0  0
 21 22  1  0  0  0  0
 24 28  1  0  0  0  0
 25 22  1  1  0  0  0
 27 25  1  0  0  0  0
 27 23  1  1  0  0  0
 28 31  1  1  0  0  0
 28 25  1  0  0  0  0
 29 24  2  0  0  0  0
 29 26  1  0  0  0  0
 30 26  1  6  0  0  0
 30 27  1  0  0  0  0
 30 35  1  0  0  0  0
 32 33  1  0  0  0  0
 34 35  1  0  0  0  0
 34 36  1  0  0  0  0
 35 32  1  1  0  0  0
 36 33  1  0  0  0  0
 37 34  1  0  0  0  0
 38 37  1  0  0  0  0
M  END
>  <MODEL>
2

>  <REMARK>
 VINA RESULT:      -8.2      1.608      1.996
  Name = 
  7 active torsions:
  status: ('A' for Active; 'I' for Inactive)
    1  A    between atoms: C_2  and  N_32
    2  A    between atoms: C_2  and  C_33
    3  A    between atoms: C_7  and  N_14
    4  A    between atoms: C_11  and  C_17
    5  A    between atoms: C_15  and  C_28
    6  A    between atoms: C_17  and  N_32
    7  A    between atoms: C_25  and  C_34
                            x       y       z     vdW  Elec       q    Type
                         _______ _______ _______ _____ _____    ______ ____

>  <TORSDO>
F 7

$$$$
=
 OpenBabel11062419283D

 38 43  0  0  1  0  0  0  0  0999 V2000
  190.0100  177.0690  143.6710 C   0  0  1  0  0  0  0  0  0  0  0  0
  190.8540  178.2870  144.0140 C   0  0  0  0  0  2  0  0  0  0  0  0
  190.7810  177.1320  145.0020 C   0  0  2  0  0  3  0  0  0  0  0  0
  185.8230  178.2760  141.2450 O   0  0  0  0  0  1  0  0  0  0  0  0
  186.3560  178.3580  142.5300 C   0  0  2  0  0  3  0  0  0  0  0  0
  187.8360  178.0270  142.4960 C   0  0  0  0  0  0  0  0  0  0  0  0
  186.3100  177.2930  144.7710 C   0  0  0  0  0  0  0  0  0  0  0  0
  188.4970  178.3650  141.4770 O   0  0  0  0  0  0  0  0  0  0  0  0
  185.5670  177.4370  143.4610 C   0  0  0  0  0  2  0  0  0  0  0  0
  185.8800  178.2390  145.8600 C   0  0  0  0  0  2  0  0  0  0  0  0
  185.5530  176.7530  145.9560 C   0  0  0  0  0  2  0  0  0  0  0  0
  188.5140  177.3790  143.6640 C   0  0  0  0  0  0  0  0  0  0  0  0
  187.7750  177.0240  144.7260 C   0  0  0  0  0  3  0  0  0  0  0  0
  194.5600  176.4070  144.9410 C   0  0  0  0  0  2  0  0  0  0  0  0
  193.2750  177.2320  144.9270 C   0  0  0  0  0  2  0  0  0  0  0  0
  192.0620  176.3090  145.0000 C   0  0  1  0  0  3  0  0  0  0  0  0
  194.6380  175.5230  146.1950 C   0  0  2  0  0  3  0  0  0  0  0  0
  192.1300  175.4940  146.2930 C   0  0  0  0  0  2  0  0  0  0  0  0
  195.7610  174.7010  146.1060 O   0  0  0  0  0  1  0  0  0  0  0  0
  193.3950  174.6480  146.3150 C   0  0  0  0  0  2  0  0  0  0  0  0
  190.6110  176.3930  142.5180 N   0  0  0  0  0  2  0  0  0  0  0  0
  189.9470  175.1150  142.2800 C   0  0  0  0  0  2  0  0  0  0  0  0
  192.3980  174.2930  140.8280 O   0  0  0  0  0  1  0  0  0  0  0  0
  190.8120  171.6120  143.6760 C   0  0  0  0  0  3  0  0  0  0  0  0
  190.8480  173.9490  142.6910 C   0  0  2  0  0  3  0  0  0  0  0  0
  190.2320  171.1980  141.3960 C   0  0  0  0  0  2  0  0  0  0  0  0
  191.6790  173.3300  141.5370 C   0  0  1  0  0  3  0  0  0  0  0  0
  190.1200  172.9480  143.6080 C   0  0  2  0  0  3  0  0  0  0  0  0
  190.8600  170.8360  142.6490 N   0  0  0  0  0  0  0  0  0  0  0  0
  191.0350  172.2540  140.6170 C   0  0  2  0  0  3  0  0  0  0  0  0
  190.0090  173.4690  144.8810 F   0  0  0  0  0  0  0  0  0  0  0  0
  190.9160  173.7200  138.5040 C   0  0  0  0  0  2  0  0  0  0  0  0
  190.0050  173.6800  137.3090 C   0  0  0  0  0  2  0  0  0  0  0  0
  189.4790  171.8410  138.6380 N   0  0  0  0  0  0  0  0  0  0  0  0
  190.1810  172.8300  139.4650 C   0  0  1  0  0  3  0  0  0  0  0  0
  189.1100  172.5290  137.4630 N   0  0  0  0  0  2  0  0  0  0  0  0
  190.3850  170.7690  138.2110 C   0  0  0  0  0  2  0  0  0  0  0  0
  189.7070  169.5450  138.2410 O   0  0  0  0  0  1  0  0  0  0  0  0
  1 21  1  6  0  0  0
  1  2  1  0  0  0  0
  1  3  1  0  0  0  0
  3  2  1  6  0  0  0
  5  4  1  6  0  0  0
  5  9  1  0  0  0  0
  6  5  1  0  0  0  0
  6 12  1  0  0  0  0
  7 10  1  0  0  0  0
  7 11  1  0  0  0  0
  8  6  2  0  0  0  0
  9  7  1  0  0  0  0
 10 11  1  0  0  0  0
 12  1  1  0  0  0  0
 12 13  2  0  0  0  0
 13  7  1  0  0  0  0
 14 17  1  0  0  0  0
 15 14  1  0  0  0  0
 16 15  1  1  0  0  0
 16  3  1  0  0  0  0
 16 18  1  0  0  0  0
 17 19  1  6  0  0  0
 17 20  1  0  0  0  0
 18 20  1  0  0  0  0
 22 21  1  0  0  0  0
 25 22  1  6  0  0  0
 25 28  1  0  0  0  0
 26 29  1  0  0  0  0
 27 23  1  6  0  0  0
 27 25  1  0  0  0  0
 28 24  1  0  0  0  0
 28 31  1  1  0  0  0
 29 24  2  0  0  0  0
 30 26  1  1  0  0  0
 30 27  1  0  0  0  0
 33 36  1  0  0  0  0
 33 32  1  0  0  0  0
 34 35  1  0  0  0  0
 35 32  1  6  0  0  0
 35 30  1  0  0  0  0
 36 34  1  0  0  0  0
 37 38  1  0  0  0  0
 37 34  1  0  0  0  0
M  END
>  <MODEL>
3

>  <REMARK>
 VINA RESULT:      -7.5      1.919      3.235
  Name = 
  7 active torsions:
  status: ('A' for Active; 'I' for Inactive)
    1  A    between atoms: C_2  and  N_32
    2  A    between atoms: C_2  and  C_33
    3  A    between atoms: C_7  and  N_14
    4  A    between atoms: C_11  and  C_17
    5  A    between atoms: C_15  and  C_28
    6  A    between atoms: C_17  and  N_32
    7  A    between atoms: C_25  and  C_34
                            x       y       z     vdW  Elec       q    Type
                         _______ _______ _______ _____ _____    ______ ____

>  <TORSDO>
F 7

$$$$
=
 OpenBabel11062419283D

 38 43  0  0  1  0  0  0  0  0999 V2000
  188.0710  175.8650  142.0930 C   0  0  1  0  0  0  0  0  0  0  0  0
  187.7770  174.4720  142.6300 C   0  0  0  0  0  2  0  0  0  0  0  0
  187.8510  174.6880  141.1250 C   0  0  2  0  0  3  0  0  0  0  0  0
  184.2860  178.6640  140.4430 O   0  0  0  0  0  1  0  0  0  0  0  0
  185.1610  178.6080  141.5280 C   0  0  2  0  0  3  0  0  0  0  0  0
  186.2720  177.6170  141.2430 C   0  0  0  0  0  0  0  0  0  0  0  0
  185.3370  177.9130  143.9040 C   0  0  0  0  0  0  0  0  0  0  0  0
  186.6770  177.5030  140.0540 O   0  0  0  0  0  0  0  0  0  0  0  0
  184.3720  178.2640  142.7910 C   0  0  0  0  0  2  0  0  0  0  0  0
  185.6980  179.0500  144.8210 C   0  0  0  0  0  2  0  0  0  0  0  0
  184.8140  177.9120  145.3160 C   0  0  0  0  0  2  0  0  0  0  0  0
  186.9240  176.8420  142.3470 C   0  0  0  0  0  0  0  0  0  0  0  0
  186.4590  176.9820  143.5980 C   0  0  0  0  0  3  0  0  0  0  0  0
  190.7980  172.2630  140.6370 C   0  0  0  0  0  2  0  0  0  0  0  0
  189.5110  172.8260  141.2340 C   0  0  0  0  0  2  0  0  0  0  0  0
  189.1420  174.1340  140.5410 C   0  0  1  0  0  3  0  0  0  0  0  0
  190.6570  172.0420  139.1230 C   0  0  2  0  0  3  0  0  0  0  0  0
  188.9380  173.8690  139.0480 C   0  0  0  0  0  2  0  0  0  0  0  0
  191.8880  171.6450  138.6020 O   0  0  0  0  0  1  0  0  0  0  0  0
  190.2190  173.3270  138.4300 C   0  0  0  0  0  2  0  0  0  0  0  0
  189.4330  176.2380  142.4810 N   0  0  0  0  0  2  0  0  0  0  0  0
  189.7910  175.6000  143.7440 C   0  0  0  0  0  2  0  0  0  0  0  0
  192.3240  177.1390  143.6610 O   0  0  0  0  0  1  0  0  0  0  0  0
  190.1220  177.1780  147.2610 C   0  0  0  0  0  3  0  0  0  0  0  0
  190.2060  176.6430  144.7840 C   0  0  2  0  0  3  0  0  0  0  0  0
  191.9380  175.6310  147.1490 C   0  0  0  0  0  2  0  0  0  0  0  0
  191.7360  176.8760  144.8970 C   0  0  1  0  0  3  0  0  0  0  0  0
  189.4500  176.4700  146.1140 C   0  0  2  0  0  3  0  0  0  0  0  0
  191.2630  176.7840  147.7080 N   0  0  0  0  0  0  0  0  0  0  0  0
  192.5910  175.9320  145.7900 C   0  0  2  0  0  3  0  0  0  0  0  0
  188.1570  176.9350  145.9860 F   0  0  0  0  0  0  0  0  0  0  0  0
  193.2730  174.7190  143.6230 C   0  0  0  0  0  2  0  0  0  0  0  0
  194.1140  173.4960  143.3840 C   0  0  0  0  0  2  0  0  0  0  0  0
  194.1960  173.9520  145.6660 N   0  0  0  0  0  0  0  0  0  0  0  0
  193.0160  174.6160  145.0990 C   0  0  1  0  0  3  0  0  0  0  0  0
  194.6210  173.0370  144.6800 N   0  0  0  0  0  2  0  0  0  0  0  0
  195.3020  174.8990  145.8430 C   0  0  0  0  0  2  0  0  0  0  0  0
  196.5060  174.1950  145.9610 O   0  0  0  0  0  1  0  0  0  0  0  0
  1 12  1  0  0  0  0
  1 21  1  1  0  0  0
  1  2  1  0  0  0  0
  3  1  1  0  0  0  0
  3  2  1  1  0  0  0
  5  4  1  6  0  0  0
  5  9  1  0  0  0  0
  6  5  1  0  0  0  0
  6 12  1  0  0  0  0
  7 10  1  0  0  0  0
  7 11  1  0  0  0  0
  8  6  2  0  0  0  0
  9  7  1  0  0  0  0
 10 11  1  0  0  0  0
 12 13  2  0  0  0  0
 13  7  1  0  0  0  0
 14 15  1  0  0  0  0
 16 18  1  6  0  0  0
 16  3  1  0  0  0  0
 16 15  1  0  0  0  0
 17 19  1  6  0  0  0
 17 14  1  0  0  0  0
 20 18  1  0  0  0  0
 20 17  1  0  0  0  0
 21 22  1  0  0  0  0
 24 29  2  0  0  0  0
 25 22  1  6  0  0  0
 25 27  1  0  0  0  0
 25 28  1  0  0  0  0
 26 29  1  0  0  0  0
 27 23  1  6  0  0  0
 27 30  1  0  0  0  0
 28 31  1  6  0  0  0
 28 24  1  0  0  0  0
 30 26  1  1  0  0  0
 33 32  1  0  0  0  0
 33 36  1  0  0  0  0
 34 37  1  0  0  0  0
 35 32  1  6  0  0  0
 35 34  1  0  0  0  0
 35 30  1  0  0  0  0
 36 34  1  0  0  0  0
 37 38  1  0  0  0  0
M  END
>  <MODEL>
4

>  <REMARK>
 VINA RESULT:      -7.5      2.101      5.164
  Name = 
  7 active torsions:
  status: ('A' for Active; 'I' for Inactive)
    1  A    between atoms: C_2  and  N_32
    2  A    between atoms: C_2  and  C_33
    3  A    between atoms: C_7  and  N_14
    4  A    between atoms: C_11  and  C_17
    5  A    between atoms: C_15  and  C_28
    6  A    between atoms: C_17  and  N_32
    7  A    between atoms: C_25  and  C_34
                            x       y       z     vdW  Elec       q    Type
                         _______ _______ _______ _____ _____    ______ ____

>  <TORSDO>
F 7

$$$$
=
 OpenBabel11062419283D

 38 43  0  0  1  0  0  0  0  0999 V2000
  188.3870  176.2180  142.7550 C   0  0  1  0  0  0  0  0  0  0  0  0
  187.2120  176.9380  142.1100 C   0  0  0  0  0  2  0  0  0  0  0  0
  187.0420  176.3320  143.4960 C   0  0  2  0  0  3  0  0  0  0  0  0
  189.4260  171.3400  142.8600 O   0  0  0  0  0  1  0  0  0  0  0  0
  189.6370  172.4450  142.0360 C   0  0  2  0  0  3  0  0  0  0  0  0
  189.2650  173.7160  142.7730 C   0  0  0  0  0  0  0  0  0  0  0  0
  188.8290  173.5670  139.9750 C   0  0  0  0  0  0  0  0  0  0  0  0
  189.4710  173.7640  144.0160 O   0  0  0  0  0  0  0  0  0  0  0  0
  188.8470  172.2610  140.7400 C   0  0  0  0  0  2  0  0  0  0  0  0
  189.9020  173.7110  138.9290 C   0  0  0  0  0  2  0  0  0  0  0  0
  188.4450  173.5270  138.5190 C   0  0  0  0  0  2  0  0  0  0  0  0
  188.7340  174.9120  142.0420 C   0  0  0  0  0  0  0  0  0  0  0  0
  188.5190  174.8190  140.7210 C   0  0  0  0  0  3  0  0  0  0  0  0
  185.8030  179.3670  145.5110 C   0  0  0  0  0  2  0  0  0  0  0  0
  185.8170  178.3040  144.4150 C   0  0  0  0  0  2  0  0  0  0  0  0
  187.0360  177.4000  144.5790 C   0  0  1  0  0  3  0  0  0  0  0  0
  185.8050  178.7240  146.9060 C   0  0  2  0  0  3  0  0  0  0  0  0
  186.9730  176.7200  145.9480 C   0  0  0  0  0  2  0  0  0  0  0  0
  185.9150  179.7250  147.8710 O   0  0  0  0  0  1  0  0  0  0  0  0
  186.9790  177.7640  147.0550 C   0  0  0  0  0  2  0  0  0  0  0  0
  189.4460  177.1950  143.0220 N   0  0  0  0  0  2  0  0  0  0  0  0
  190.7570  176.5800  142.8410 C   0  0  0  0  0  2  0  0  0  0  0  0
  193.7180  176.4430  142.7890 O   0  0  0  0  0  1  0  0  0  0  0  0
  191.8250  176.5580  146.5590 C   0  0  0  0  0  3  0  0  0  0  0  0
  191.6580  176.8540  144.0460 C   0  0  2  0  0  3  0  0  0  0  0  0
  192.4630  174.3990  145.7620 C   0  0  0  0  0  2  0  0  0  0  0  0
  193.0520  176.1750  143.9850 C   0  0  1  0  0  3  0  0  0  0  0  0
  190.9010  176.7190  145.3800 C   0  0  2  0  0  3  0  0  0  0  0  0
  192.5370  175.4950  146.7060 N   0  0  0  0  0  0  0  0  0  0  0  0
  193.2080  174.6990  144.4500 C   0  0  2  0  0  3  0  0  0  0  0  0
  190.0950  177.8200  145.5800 F   0  0  0  0  0  0  0  0  0  0  0  0
  193.4850  173.8500  142.0350 C   0  0  0  0  0  2  0  0  0  0  0  0
  193.3510  172.4780  141.4360 C   0  0  0  0  0  2  0  0  0  0  0  0
  193.0930  172.2510  143.7390 N   0  0  0  0  0  0  0  0  0  0  0  0
  192.8390  173.6510  143.3760 C   0  0  1  0  0  3  0  0  0  0  0  0
  193.0650  171.5370  142.5230 N   0  0  0  0  0  2  0  0  0  0  0  0
  194.4470  172.0820  144.2760 C   0  0  0  0  0  2  0  0  0  0  0  0
  194.4010  171.2660  145.4130 O   0  0  0  0  0  1  0  0  0  0  0  0
  1 21  1  1  0  0  0
  1  3  1  0  0  0  0
  2  1  1  0  0  0  0
  3  2  1  6  0  0  0
  3 16  1  0  0  0  0
  5  6  1  0  0  0  0
  5  4  1  1  0  0  0
  6  8  2  0  0  0  0
  7 13  1  0  0  0  0
  7  9  1  0  0  0  0
  9  5  1  0  0  0  0
 10  7  1  0  0  0  0
 11 10  1  0  0  0  0
 11  7  1  0  0  0  0
 12  1  1  0  0  0  0
 12  6  1  0  0  0  0
 13 12  2  0  0  0  0
 14 17  1  0  0  0  0
 15 14  1  0  0  0  0
 16 15  1  6  0  0  0
 16 18  1  0  0  0  0
 17 20  1  0  0  0  0
 17 19  1  1  0  0  0
 18 20  1  0  0  0  0
 22 21  1  0  0  0  0
 24 29  2  0  0  0  0
 25 22  1  6  0  0  0
 25 28  1  0  0  0  0
 26 29  1  0  0  0  0
 27 23  1  6  0  0  0
 27 25  1  0  0  0  0
 27 30  1  0  0  0  0
 28 31  1  1  0  0  0
 28 24  1  0  0  0  0
 30 26  1  1  0  0  0
 33 32  1  0  0  0  0
 33 36  1  0  0  0  0
 34 37  1  0  0  0  0
 35 32  1  6  0  0  0
 35 34  1  0  0  0  0
 35 30  1  0  0  0  0
 36 34  1  0  0  0  0
 37 38  1  0  0  0  0
M  END
>  <MODEL>
5

>  <REMARK>
 VINA RESULT:      -7.4      2.401      6.000
  Name = 
  7 active torsions:
  status: ('A' for Active; 'I' for Inactive)
    1  A    between atoms: C_2  and  N_32
    2  A    between atoms: C_2  and  C_33
    3  A    between atoms: C_7  and  N_14
    4  A    between atoms: C_11  and  C_17
    5  A    between atoms: C_15  and  C_28
    6  A    between atoms: C_17  and  N_32
    7  A    between atoms: C_25  and  C_34
                            x       y       z     vdW  Elec       q    Type
                         _______ _______ _______ _____ _____    ______ ____

>  <TORSDO>
F 7

$$$$
=
 OpenBabel11062419283D

 38 43  0  0  1  0  0  0  0  0999 V2000
  190.5450  174.2470  142.3300 C   0  0  1  0  0  0  0  0  0  0  0  0
  189.6050  173.3870  143.1610 C   0  0  0  0  0  2  0  0  0  0  0  0
  191.0230  173.6280  143.6560 C   0  0  2  0  0  3  0  0  0  0  0  0
  193.9960  172.8800  138.9970 O   0  0  0  0  0  1  0  0  0  0  0  0
  192.6270  173.1410  139.0500 C   0  0  2  0  0  3  0  0  0  0  0  0
  192.2770  173.7880  140.3760 C   0  0  0  0  0  0  0  0  0  0  0  0
  190.3990  172.0530  139.1490 C   0  0  0  0  0  0  0  0  0  0  0  0
  193.1240  174.5600  140.9030 O   0  0  0  0  0  0  0  0  0  0  0  0
  191.8580  171.8430  138.8050 C   0  0  0  0  0  2  0  0  0  0  0  0
  189.5150  172.4250  137.9900 C   0  0  0  0  0  2  0  0  0  0  0  0
  189.4020  171.0490  138.6350 C   0  0  0  0  0  2  0  0  0  0  0  0
  190.9380  173.5770  141.0140 C   0  0  0  0  0  0  0  0  0  0  0  0
  190.0670  172.7420  140.4280 C   0  0  0  0  0  3  0  0  0  0  0  0
  190.1280  175.1650  147.0680 C   0  0  0  0  0  2  0  0  0  0  0  0
  190.0850  174.1790  145.9030 C   0  0  0  0  0  2  0  0  0  0  0  0
  191.0550  174.6190  144.8100 C   0  0  1  0  0  3  0  0  0  0  0  0
  191.5490  175.2900  147.6360 C   0  0  2  0  0  3  0  0  0  0  0  0
  192.4710  174.6650  145.3870 C   0  0  0  0  0  2  0  0  0  0  0  0
  191.5660  176.2870  148.6120 O   0  0  0  0  0  1  0  0  0  0  0  0
  192.5390  175.6600  146.5370 C   0  0  0  0  0  2  0  0  0  0  0  0
  190.0330  175.6190  142.3140 N   0  0  0  0  0  2  0  0  0  0  0  0
  188.5740  175.6140  142.3290 C   0  0  0  0  0  2  0  0  0  0  0  0
  188.8420  178.3210  143.5070 O   0  0  0  0  0  1  0  0  0  0  0  0
  186.0590  177.8110  140.3760 C   0  0  0  0  0  3  0  0  0  0  0  0
  188.0170  176.8920  141.6990 C   0  0  2  0  0  3  0  0  0  0  0  0
  185.1760  177.7570  142.5950 C   0  0  0  0  0  2  0  0  0  0  0  0
  187.7390  178.0430  142.7010 C   0  0  1  0  0  3  0  0  0  0  0  0
  186.8990  176.5990  140.6820 C   0  0  2  0  0  3  0  0  0  0  0  0
  185.2890  178.3290  141.2700 N   0  0  0  0  0  0  0  0  0  0  0  0
  186.3930  178.0740  143.4800 C   0  0  2  0  0  3  0  0  0  0  0  0
  187.4420  176.1140  139.5100 F   0  0  0  0  0  0  0  0  0  0  0  0
  187.5580  177.3510  145.6590 C   0  0  0  0  0  2  0  0  0  0  0  0
  187.0140  176.8030  146.9500 C   0  0  0  0  0  2  0  0  0  0  0  0
  185.1890  177.3380  145.6060 N   0  0  0  0  0  0  0  0  0  0  0  0
  186.3730  177.1940  144.7500 C   0  0  1  0  0  3  0  0  0  0  0  0
  185.5520  176.7750  146.8470 N   0  0  0  0  0  2  0  0  0  0  0  0
  184.8990  178.7520  145.8730 C   0  0  0  0  0  2  0  0  0  0  0  0
  183.5860  179.0410  145.4850 O   0  0  0  0  0  1  0  0  0  0  0  0
  1 21  1  6  0  0  0
  1  2  1  0  0  0  0
  1  3  1  0  0  0  0
  3  2  1  1  0  0  0
  3 16  1  0  0  0  0
  5  4  1  1  0  0  0
  5  6  1  0  0  0  0
  6  8  2  0  0  0  0
  6 12  1  0  0  0  0
  7 13  1  0  0  0  0
  9  5  1  0  0  0  0
  9  7  1  0  0  0  0
 10 11  1  0  0  0  0
 10  7  1  0  0  0  0
 11  7  1  0  0  0  0
 12  1  1  0  0  0  0
 13 12  2  0  0  0  0
 14 17  1  0  0  0  0
 15 14  1  0  0  0  0
 16 18  1  1  0  0  0
 16 15  1  0  0  0  0
 17 19  1  1  0  0  0
 18 20  1  0  0  0  0
 20 17  1  0  0  0  0
 21 22  1  0  0  0  0
 24 28  1  0  0  0  0
 24 29  2  0  0  0  0
 25 22  1  1  0  0  0
 25 27  1  0  0  0  0
 27 30  1  0  0  0  0
 27 23  1  1  0  0  0
 28 31  1  6  0  0  0
 28 25  1  0  0  0  0
 29 26  1  0  0  0  0
 30 26  1  6  0  0  0
 30 35  1  0  0  0  0
 32 33  1  0  0  0  0
 34 37  1  0  0  0  0
 34 36  1  0  0  0  0
 35 34  1  0  0  0  0
 35 32  1  1  0  0  0
 36 33  1  0  0  0  0
 38 37  1  0  0  0  0
M  END
>  <MODEL>
6

>  <REMARK>
 VINA RESULT:      -7.3      2.479      7.140
  Name = 
  7 active torsions:
  status: ('A' for Active; 'I' for Inactive)
    1  A    between atoms: C_2  and  N_32
    2  A    between atoms: C_2  and  C_33
    3  A    between atoms: C_7  and  N_14
    4  A    between atoms: C_11  and  C_17
    5  A    between atoms: C_15  and  C_28
    6  A    between atoms: C_17  and  N_32
    7  A    between atoms: C_25  and  C_34
                            x       y       z     vdW  Elec       q    Type
                         _______ _______ _______ _____ _____    ______ ____

>  <TORSDO>
F 7

$$$$
=
 OpenBabel11062419283D

 38 43  0  0  1  0  0  0  0  0999 V2000
  189.6830  176.4100  144.4860 C   0  0  1  0  0  0  0  0  0  0  0  0
  190.4600  177.3870  143.6150 C   0  0  0  0  0  2  0  0  0  0  0  0
  190.9380  177.1140  145.0340 C   0  0  2  0  0  3  0  0  0  0  0  0
  186.1190  177.2160  147.8810 O   0  0  0  0  0  1  0  0  0  0  0  0
  186.2470  177.0810  146.4990 C   0  0  2  0  0  3  0  0  0  0  0  0
  187.6310  176.5680  146.1570 C   0  0  0  0  0  0  0  0  0  0  0  0
  186.3500  178.3680  144.3790 C   0  0  0  0  0  0  0  0  0  0  0  0
  188.1830  175.7650  146.9590 O   0  0  0  0  0  0  0  0  0  0  0  0
  185.9330  178.4210  145.8330 C   0  0  0  0  0  2  0  0  0  0  0  0
  185.2600  177.9910  143.4130 C   0  0  0  0  0  2  0  0  0  0  0  0
  185.8000  179.4160  143.4490 C   0  0  0  0  0  2  0  0  0  0  0  0
  188.3050  176.9430  144.8720 C   0  0  0  0  0  0  0  0  0  0  0  0
  187.6910  177.8080  144.0500 C   0  0  0  0  0  3  0  0  0  0  0  0
  194.6620  176.1700  144.8060 C   0  0  0  0  0  2  0  0  0  0  0  0
  193.4210  177.0590  144.7750 C   0  0  0  0  0  2  0  0  0  0  0  0
  192.1730  176.2250  145.0500 C   0  0  1  0  0  3  0  0  0  0  0  0
  194.7910  175.4460  146.1540 C   0  0  2  0  0  3  0  0  0  0  0  0
  192.3000  175.5750  146.4290 C   0  0  0  0  0  2  0  0  0  0  0  0
  195.8630  174.5560  146.0950 O   0  0  0  0  0  1  0  0  0  0  0  0
  193.5200  174.6670  146.4720 C   0  0  0  0  0  2  0  0  0  0  0  0
  189.8000  175.0700  143.9050 N   0  0  0  0  0  2  0  0  0  0  0  0
  189.9590  175.1600  142.4570 C   0  0  0  0  0  2  0  0  0  0  0  0
  191.7790  172.8250  142.6150 O   0  0  0  0  0  1  0  0  0  0  0  0
  188.7060  172.7260  139.7240 C   0  0  0  0  0  3  0  0  0  0  0  0
  189.6920  173.8070  141.7940 C   0  0  2  0  0  3  0  0  0  0  0  0
  190.8640  173.4000  138.9510 C   0  0  0  0  0  2  0  0  0  0  0  0
  190.9620  172.9680  141.4940 C   0  0  1  0  0  3  0  0  0  0  0  0
  188.6680  173.9130  140.6500 C   0  0  2  0  0  3  0  0  0  0  0  0
  189.7250  172.5060  138.9670 N   0  0  0  0  0  0  0  0  0  0  0  0
  191.7640  173.2300  140.1870 C   0  0  2  0  0  3  0  0  0  0  0  0
  187.3950  174.0470  141.1650 F   0  0  0  0  0  0  0  0  0  0  0  0
  193.4880  174.5270  141.5920 C   0  0  0  0  0  2  0  0  0  0  0  0
  194.6760  175.3600  141.1990 C   0  0  0  0  0  2  0  0  0  0  0  0
  193.8100  174.4300  139.2470 N   0  0  0  0  0  0  0  0  0  0  0  0
  192.7680  174.4010  140.2810 C   0  0  1  0  0  3  0  0  0  0  0  0
  194.8030  175.3030  139.7390 N   0  0  0  0  0  2  0  0  0  0  0  0
  194.4560  173.1190  139.1110 C   0  0  0  0  0  2  0  0  0  0  0  0
  194.3460  172.6800  137.7860 O   0  0  0  0  0  1  0  0  0  0  0  0
  1 21  1  6  0  0  0
  1 12  1  0  0  0  0
  1  3  1  0  0  0  0
  2  1  1  0  0  0  0
  3  2  1  6  0  0  0
  3 16  1  0  0  0  0
  5  4  1  1  0  0  0
  6  5  1  0  0  0  0
  6  8  2  0  0  0  0
  7  9  1  0  0  0  0
  9  5  1  0  0  0  0
 10 11  1  0  0  0  0
 10  7  1  0  0  0  0
 11  7  1  0  0  0  0
 12  6  1  0  0  0  0
 13  7  1  0  0  0  0
 13 12  2  0  0  0  0
 14 17  1  0  0  0  0
 15 14  1  0  0  0  0
 16 15  1  1  0  0  0
 16 18  1  0  0  0  0
 17 19  1  6  0  0  0
 17 20  1  0  0  0  0
 18 20  1  0  0  0  0
 22 21  1  0  0  0  0
 24 28  1  0  0  0  0
 25 22  1  6  0  0  0
 26 29  1  0  0  0  0
 27 25  1  0  0  0  0
 27 23  1  1  0  0  0
 28 31  1  1  0  0  0
 28 25  1  0  0  0  0
 29 24  2  0  0  0  0
 30 26  1  6  0  0  0
 30 35  1  0  0  0  0
 30 27  1  0  0  0  0
 33 32  1  0  0  0  0
 34 36  1  0  0  0  0
 34 35  1  0  0  0  0
 35 32  1  1  0  0  0
 36 33  1  0  0  0  0
 37 34  1  0  0  0  0
 38 37  1  0  0  0  0
M  END
>  <MODEL>
7

>  <REMARK>
 VINA RESULT:      -7.3      2.224      2.718
  Name = 
  7 active torsions:
  status: ('A' for Active; 'I' for Inactive)
    1  A    between atoms: C_2  and  N_32
    2  A    between atoms: C_2  and  C_33
    3  A    between atoms: C_7  and  N_14
    4  A    between atoms: C_11  and  C_17
    5  A    between atoms: C_15  and  C_28
    6  A    between atoms: C_17  and  N_32
    7  A    between atoms: C_25  and  C_34
                            x       y       z     vdW  Elec       q    Type
                         _______ _______ _______ _____ _____    ______ ____

>  <TORSDO>
F 7

$$$$
=
 OpenBabel11062419283D

 38 43  0  0  1  0  0  0  0  0999 V2000
  192.1000  174.9660  145.2110 C   0  0  1  0  0  0  0  0  0  0  0  0
  191.9480  175.2030  146.7060 C   0  0  0  0  0  2  0  0  0  0  0  0
  191.4820  176.2760  145.7320 C   0  0  2  0  0  3  0  0  0  0  0  0
  195.8150  176.7910  142.4260 O   0  0  0  0  0  1  0  0  0  0  0  0
  195.4770  175.6130  143.0910 C   0  0  2  0  0  3  0  0  0  0  0  0
  194.0270  175.6660  143.5290 C   0  0  0  0  0  0  0  0  0  0  0  0
  195.9090  174.3040  145.1550 C   0  0  0  0  0  0  0  0  0  0  0  0
  193.2040  176.2730  142.7900 O   0  0  0  0  0  0  0  0  0  0  0  0
  196.4400  175.4040  144.2600 C   0  0  0  0  0  2  0  0  0  0  0  0
  196.4540  172.9300  144.8720 C   0  0  0  0  0  2  0  0  0  0  0  0
  196.8600  173.6750  146.1380 C   0  0  0  0  0  2  0  0  0  0  0  0
  193.5620  174.9610  144.7670 C   0  0  0  0  0  0  0  0  0  0  0  0
  194.4680  174.3340  145.5320 C   0  0  0  0  0  3  0  0  0  0  0  0
  187.8130  176.0770  146.8770 C   0  0  0  0  0  2  0  0  0  0  0  0
  189.3360  176.0230  146.9830 C   0  0  0  0  0  2  0  0  0  0  0  0
  189.9640  176.3150  145.6240 C   0  0  1  0  0  3  0  0  0  0  0  0
  187.3420  177.4430  146.3560 C   0  0  2  0  0  3  0  0  0  0  0  0
  189.5350  177.7100  145.1640 C   0  0  0  0  0  2  0  0  0  0  0  0
  185.9620  177.4060  146.1590 O   0  0  0  0  0  1  0  0  0  0  0  0
  188.0200  177.7770  145.0310 C   0  0  0  0  0  2  0  0  0  0  0  0
  191.2260  173.8570  144.8210 N   0  0  0  0  0  2  0  0  0  0  0  0
  191.2520  173.6790  143.3730 C   0  0  0  0  0  2  0  0  0  0  0  0
  189.2010  171.5380  143.3250 O   0  0  0  0  0  1  0  0  0  0  0  0
  188.5640  174.9210  140.8840 C   0  0  0  0  0  3  0  0  0  0  0  0
  189.8500  173.8340  142.7790 C   0  0  2  0  0  3  0  0  0  0  0  0
  189.5020  173.0050  139.8110 C   0  0  0  0  0  2  0  0  0  0  0  0
  189.1850  172.5090  142.3240 C   0  0  1  0  0  3  0  0  0  0  0  0
  189.7680  175.0060  141.7840 C   0  0  2  0  0  3  0  0  0  0  0  0
  188.4590  173.9920  139.9990 N   0  0  0  0  0  0  0  0  0  0  0  0
  189.5060  171.9340  140.9150 C   0  0  2  0  0  3  0  0  0  0  0  0
  189.7440  176.2050  142.4650 F   0  0  0  0  0  0  0  0  0  0  0  0
  190.8160  169.8520  141.6760 C   0  0  0  0  0  2  0  0  0  0  0  0
  191.9220  169.0720  141.0220 C   0  0  0  0  0  2  0  0  0  0  0  0
  191.2360  170.6980  139.5030 N   0  0  0  0  0  0  0  0  0  0  0  0
  190.8080  171.1040  140.8480 C   0  0  1  0  0  3  0  0  0  0  0  0
  192.1720  169.6620  139.7040 N   0  0  0  0  0  2  0  0  0  0  0  0
  190.1250  170.0990  138.7540 C   0  0  0  0  0  2  0  0  0  0  0  0
  190.3500  170.2540  137.3810 O   0  0  0  0  0  1  0  0  0  0  0  0
  1 21  1  6  0  0  0
  1  3  1  0  0  0  0
  1  2  1  0  0  0  0
  3  2  1  1  0  0  0
  5  4  1  1  0  0  0
  5  6  1  0  0  0  0
  5  9  1  0  0  0  0
  6 12  1  0  0  0  0
  7 13  1  0  0  0  0
  7 11  1  0  0  0  0
  8  6  2  0  0  0  0
  9  7  1  0  0  0  0
 10  7  1  0  0  0  0
 10 11  1  0  0  0  0
 12  1  1  0  0  0  0
 12 13  2  0  0  0  0
 14 15  1  0  0  0  0
 16 18  1  1  0  0  0
 16  3  1  0  0  0  0
 16 15  1  0  0  0  0
 17 19  1  6  0  0  0
 17 14  1  0  0  0  0
 20 18  1  0  0  0  0
 20 17  1  0  0  0  0
 22 21  1  0  0  0  0
 24 28  1  0  0  0  0
 25 22  1  6  0  0  0
 26 29  1  0  0  0  0
 27 25  1  0  0  0  0
 27 23  1  1  0  0  0
 28 31  1  1  0  0  0
 28 25  1  0  0  0  0
 29 24  2  0  0  0  0
 30 26  1  6  0  0  0
 30 27  1  0  0  0  0
 33 32  1  0  0  0  0
 34 36  1  0  0  0  0
 34 35  1  0  0  0  0
 35 30  1  0  0  0  0
 35 32  1  1  0  0  0
 36 33  1  0  0  0  0
 37 34  1  0  0  0  0
 38 37  1  0  0  0  0
M  END
>  <MODEL>
8

>  <REMARK>
 VINA RESULT:      -7.1      2.538      6.188
  Name = 
  7 active torsions:
  status: ('A' for Active; 'I' for Inactive)
    1  A    between atoms: C_2  and  N_32
    2  A    between atoms: C_2  and  C_33
    3  A    between atoms: C_7  and  N_14
    4  A    between atoms: C_11  and  C_17
    5  A    between atoms: C_15  and  C_28
    6  A    between atoms: C_17  and  N_32
    7  A    between atoms: C_25  and  C_34
                            x       y       z     vdW  Elec       q    Type
                         _______ _______ _______ _____ _____    ______ ____

>  <TORSDO>
F 7

$$$$
=
 OpenBabel11062419283D

 38 43  0  0  1  0  0  0  0  0999 V2000
  189.2480  176.4340  144.7850 C   0  0  1  0  0  0  0  0  0  0  0  0
  189.9860  177.1810  143.6840 C   0  0  0  0  0  2  0  0  0  0  0  0
  190.5370  177.2140  145.1020 C   0  0  2  0  0  3  0  0  0  0  0  0
  185.6860  177.6320  148.0640 O   0  0  0  0  0  1  0  0  0  0  0  0
  185.8270  177.4140  146.6950 C   0  0  2  0  0  3  0  0  0  0  0  0
  187.1840  176.8030  146.4070 C   0  0  0  0  0  0  0  0  0  0  0  0
  186.0380  178.5710  144.5090 C   0  0  0  0  0  0  0  0  0  0  0  0
  187.6750  176.0160  147.2620 O   0  0  0  0  0  0  0  0  0  0  0  0
  185.6020  178.7300  145.9500 C   0  0  0  0  0  2  0  0  0  0  0  0
  184.9430  178.2050  143.5450 C   0  0  0  0  0  2  0  0  0  0  0  0
  185.5650  179.5960  143.5130 C   0  0  0  0  0  2  0  0  0  0  0  0
  187.8980  177.0660  145.1160 C   0  0  0  0  0  0  0  0  0  0  0  0
  187.3490  177.9170  144.2360 C   0  0  0  0  0  3  0  0  0  0  0  0
  194.0990  175.9080  144.4570 C   0  0  0  0  0  2  0  0  0  0  0  0
  192.8640  176.7910  144.2990 C   0  0  0  0  0  2  0  0  0  0  0  0
  191.7640  176.3240  145.2480 C   0  0  1  0  0  3  0  0  0  0  0  0
  194.6070  175.9190  145.9060 C   0  0  2  0  0  3  0  0  0  0  0  0
  192.2730  176.4140  146.6880 C   0  0  0  0  0  2  0  0  0  0  0  0
  195.6560  175.0080  146.0310 O   0  0  0  0  0  1  0  0  0  0  0  0
  193.4940  175.5230  146.8700 C   0  0  0  0  0  2  0  0  0  0  0  0
  189.3210  174.9970  144.5060 N   0  0  0  0  0  2  0  0  0  0  0  0
  189.7710  174.7720  143.1360 C   0  0  0  0  0  2  0  0  0  0  0  0
  191.6560  174.4930  140.8650 O   0  0  0  0  0  1  0  0  0  0  0  0
  191.6720  171.4710  143.8110 C   0  0  0  0  0  3  0  0  0  0  0  0
  190.9480  173.7950  143.1020 C   0  0  2  0  0  3  0  0  0  0  0  0
  190.4080  171.0160  141.8360 C   0  0  0  0  0  2  0  0  0  0  0  0
  191.4140  173.3870  141.6800 C   0  0  1  0  0  3  0  0  0  0  0  0
  190.7780  172.6450  144.1110 C   0  0  2  0  0  3  0  0  0  0  0  0
  191.4910  170.7490  142.7600 N   0  0  0  0  0  0  0  0  0  0  0  0
  190.6860  172.2310  140.9360 C   0  0  2  0  0  3  0  0  0  0  0  0
  191.0330  173.0970  145.3900 F   0  0  0  0  0  0  0  0  0  0  0  0
  189.2450  174.1360  139.9750 C   0  0  0  0  0  2  0  0  0  0  0  0
  188.2340  174.1610  138.8630 C   0  0  0  0  0  2  0  0  0  0  0  0
  189.1620  172.0260  138.9000 N   0  0  0  0  0  0  0  0  0  0  0  0
  189.3950  172.6590  140.2040 C   0  0  1  0  0  3  0  0  0  0  0  0
  188.1890  172.8250  138.2630 N   0  0  0  0  0  2  0  0  0  0  0  0
  190.3600  172.0980  138.0560 C   0  0  0  0  0  2  0  0  0  0  0  0
  190.1200  171.4370  136.8460 O   0  0  0  0  0  1  0  0  0  0  0  0
  1 21  1  6  0  0  0
  1  3  1  0  0  0  0
  1 12  1  0  0  0  0
  2  1  1  0  0  0  0
  3  2  1  6  0  0  0
  3 16  1  0  0  0  0
  5  4  1  1  0  0  0
  6  5  1  0  0  0  0
  6  8  2  0  0  0  0
  7  9  1  0  0  0  0
  9  5  1  0  0  0  0
 10  7  1  0  0  0  0
 11 10  1  0  0  0  0
 11  7  1  0  0  0  0
 12  6  1  0  0  0  0
 13  7  1  0  0  0  0
 13 12  2  0  0  0  0
 14 17  1  0  0  0  0
 15 14  1  0  0  0  0
 16 15  1  6  0  0  0
 16 18  1  0  0  0  0
 17 19  1  6  0  0  0
 17 20  1  0  0  0  0
 18 20  1  0  0  0  0
 22 21  1  0  0  0  0
 24 28  1  0  0  0  0
 25 22  1  6  0  0  0
 25 28  1  0  0  0  0
 26 29  1  0  0  0  0
 27 23  1  6  0  0  0
 27 25  1  0  0  0  0
 28 31  1  1  0  0  0
 29 24  2  0  0  0  0
 30 27  1  0  0  0  0
 30 26  1  1  0  0  0
 33 32  1  0  0  0  0
 34 35  1  0  0  0  0
 35 32  1  6  0  0  0
 35 30  1  0  0  0  0
 36 33  1  0  0  0  0
 36 34  1  0  0  0  0
 37 34  1  0  0  0  0
 38 37  1  0  0  0  0
M  END
>  <MODEL>
9

>  <REMARK>
 VINA RESULT:      -7.1      2.359      3.777
  Name = 
  7 active torsions:
  status: ('A' for Active; 'I' for Inactive)
    1  A    between atoms: C_2  and  N_32
    2  A    between atoms: C_2  and  C_33
    3  A    between atoms: C_7  and  N_14
    4  A    between atoms: C_11  and  C_17
    5  A    between atoms: C_15  and  C_28
    6  A    between atoms: C_17  and  N_32
    7  A    between atoms: C_25  and  C_34
                            x       y       z     vdW  Elec       q    Type
                         _______ _______ _______ _____ _____    ______ ____

>  <TORSDO>
F 7

$$$$
