=
 OpenBabel11062423003D

 62 68  0  0  1  0  0  0  0  0999 V2000
  191.4260  175.8840  145.9480 C   0  0  0  0  0  0  0  0  0  0  0  0
  190.8160  176.6160  144.7820 C   0  0  0  0  0  2  0  0  0  0  0  0
  190.8240  173.7580  144.8790 C   0  0  0  0  0  3  0  0  0  0  0  0
  191.4500  174.5440  145.9620 C   0  0  0  0  0  3  0  0  0  0  0  0
  190.0500  174.3520  143.9650 C   0  0  0  0  0  0  0  0  0  0  0  0
  189.6940  175.8170  144.1070 C   0  0  2  0  0  3  0  0  0  0  0  0
  193.4450  176.8740  146.9990 C   0  0  0  0  0  1  0  0  0  0  0  0
  192.0390  176.6430  146.9490 O   0  0  0  0  0  0  0  0  0  0  0  0
  189.4760  173.5130  142.8630 C   0  0  0  0  0  2  0  0  0  0  0  0
  193.6640  172.1950  140.2960 N   0  0  0  0  0  0  0  0  0  0  0  0
  190.9810  170.1990  141.8520 C   0  0  0  0  0  0  0  0  0  0  0  0
  192.1210  170.6310  141.2670 C   0  0  0  0  0  0  0  0  0  0  0  0
  191.6270  172.9040  141.6410 C   0  0  0  0  0  3  0  0  0  0  0  0
  190.4430  172.5070  142.3240 C   0  0  0  0  0  0  0  0  0  0  0  0
  194.1430  173.5320  140.0390 C   0  0  0  0  0  0  0  0  0  0  0  0
  193.3950  174.5240  140.2180 O   0  0  0  0  0  0  0  0  0  0  0  0
  190.8440  168.7200  141.6000 C   0  0  0  0  0  2  0  0  0  0  0  0
  193.8080  169.7360  139.8950 N   0  0  0  0  0  0  0  0  0  0  0  0
  192.4840  171.9360  141.0960 C   0  0  0  0  0  0  0  0  0  0  0  0
  190.1000  171.1310  142.4040 C   0  0  0  0  0  3  0  0  0  0  0  0
  194.5130  171.0430  139.8760 C   0  0  0  0  0  2  0  0  0  0  0  0
  192.7360  169.5770  140.6000 C   0  0  0  0  0  0  0  0  0  0  0  0
  191.9830  168.4200  140.7650 O   0  0  0  0  0  0  0  0  0  0  0  0
  195.6110  174.9510  138.6310 C   0  0  0  0  0  1  0  0  0  0  0  0
  195.5450  173.7450  139.5410 C   0  0  1  0  0  3  0  0  0  0  0  0
  196.6060  173.8700  140.6420 C   0  0  0  0  0  2  0  0  0  0  0  0
  197.4890  174.9730  142.6790 C   0  0  0  0  0  2  0  0  0  0  0  0
  195.4920  176.0500  143.5480 O   0  0  0  0  0  1  0  0  0  0  0  0
  196.0080  174.8980  142.9540 C   0  0  1  0  0  0  0  0  0  0  0  0
  196.4840  175.1120  141.5360 C   0  0  2  0  0  3  0  0  0  0  0  0
  195.4500  173.5490  143.3930 C   0  0  0  0  0  2  0  0  0  0  0  0
  196.3750  172.8610  144.3800 C   0  0  1  0  0  3  0  0  0  0  0  0
  196.1870  173.4800  145.7500 C   0  0  0  0  0  2  0  0  0  0  0  0
  197.4180  173.8410  146.2920 O   0  0  0  0  0  1  0  0  0  0  0  0
  196.0720  171.3620  144.3870 C   0  0  2  0  0  3  0  0  0  0  0  0
  195.0860  171.0230  143.4550 O   0  0  0  0  0  1  0  0  0  0  0  0
  195.7450  170.8160  145.7830 C   0  0  0  0  0  2  0  0  0  0  0  0
  196.5470  169.2230  147.4130 N   0  0  0  0  0  2  0  0  0  0  0  0
  196.6940  169.7520  146.2550 C   0  0  0  0  0  3  0  0  0  0  0  0
  189.3550  176.4680  142.7770 C   0  0  0  0  0  2  0  0  0  0  0  0
  187.1760  177.0690  141.5720 N   0  0  0  0  0  0  0  0  0  0  0  0
  187.4940  177.4840  143.8590 O   0  0  0  0  0  0  0  0  0  0  0  0
  187.9650  177.0290  142.7800 C   0  0  0  0  0  0  0  0  0  0  0  0
  185.1310  177.8550  140.4110 C   0  0  0  0  0  3  0  0  0  0  0  0
  183.1350  178.3840  141.6750 C   0  0  0  0  0  0  0  0  0  0  0  0
  183.8020  178.2840  140.4470 C   0  0  0  0  0  3  0  0  0  0  0  0
  185.8060  177.5290  141.5990 C   0  0  0  0  0  0  0  0  0  0  0  0
  183.7920  178.0500  142.8560 C   0  0  0  0  0  3  0  0  0  0  0  0
  185.1180  177.6200  142.8220 C   0  0  0  0  0  3  0  0  0  0  0  0
  180.6960  179.2560  141.7600 N   0  0  0  0  0  0  0  0  0  0  0  0
  181.7830  178.8700  141.7230 C   0  0  0  0  0  0  0  0  0  0  0  0
  187.7350  176.5350  140.3640 C   0  0  0  0  0  3  0  0  0  0  0  0
  187.6270  175.2400  140.0880 C   0  0  0  0  0  3  0  0  0  0  0  0
  188.2710  174.6110  138.9390 C   0  0  0  0  0  0  0  0  0  0  0  0
  189.3700  173.7120  139.1130 N   0  0  0  0  0  2  0  0  0  0  0  0
  187.7670  174.7830  137.7970 O   0  0  0  0  0  0  0  0  0  0  0  0
  190.5900  170.3610  136.9280 N   0  0  0  0  0  2  0  0  0  0  0  0
  191.5840  171.4440  136.9740 C   0  0  0  0  0  2  0  0  0  0  0  0
  189.1750  171.2850  138.7130 C   0  0  0  0  0  2  0  0  0  0  0  0
  189.6670  172.6350  138.1720 C   0  0  0  0  0  3  0  0  0  0  0  0
  191.1680  172.6210  137.8640 C   0  0  0  0  0  2  0  0  0  0  0  0
  190.0510  170.1050  138.2550 C   0  0  0  0  0  2  0  0  0  0  0  0
  1  4  2  0  0  0  0
  1  8  1  0  0  0  0
  2  1  1  0  0  0  0
  3  4  1  0  0  0  0
  5  6  1  0  0  0  0
  5  3  2  0  0  0  0
  6 40  1  6  0  0  0
  6  2  1  0  0  0  0
  8  7  1  0  0  0  0
  9  5  1  0  0  0  0
 10 19  1  0  0  0  0
 11 20  1  0  0  0  0
 12 11  2  0  0  0  0
 13 14  1  0  0  0  0
 14 20  2  0  0  0  0
 14  9  1  0  0  0  0
 15 16  2  0  0  0  0
 15 10  1  0  0  0  0
 17 11  1  0  0  0  0
 18 22  2  0  0  0  0
 19 12  1  0  0  0  0
 19 13  2  0  0  0  0
 21 18  1  0  0  0  0
 21 10  1  0  0  0  0
 22 23  1  0  0  0  0
 22 12  1  0  0  0  0
 23 17  1  0  0  0  0
 25 24  1  1  0  0  0
 25 15  1  0  0  0  0
 25 26  1  0  0  0  0
 27 29  1  0  0  0  0
 29 31  1  0  0  0  0
 29 28  1  1  0  0  0
 30 26  1  6  0  0  0
 30 27  1  0  0  0  0
 30 29  1  0  0  0  0
 32 31  1  6  0  0  0
 32 35  1  0  0  0  0
 32 33  1  0  0  0  0
 33 34  1  0  0  0  0
 35 36  1  6  0  0  0
 35 37  1  0  0  0  0
 37 39  1  0  0  0  0
 39 38  2  0  0  0  0
 40 43  1  0  0  0  0
 41 47  1  0  0  0  0
 41 43  1  0  0  0  0
 43 42  2  0  0  0  0
 44 46  2  0  0  0  0
 44 47  1  0  0  0  0
 45 51  1  0  0  0  0
 45 48  2  0  0  0  0
 46 45  1  0  0  0  0
 47 49  2  0  0  0  0
 49 48  1  0  0  0  0
 51 50  3  0  0  0  0
 52 41  1  0  0  0  0
 53 52  2  0  0  0  0
 54 55  1  0  0  0  0
 54 53  1  0  0  0  0
 56 54  2  0  0  0  0
 57 58  1  0  0  0  0
 57 62  1  0  0  0  0
 58 61  1  0  0  0  0
 60 59  1  0  0  0  0
 60 55  1  0  0  0  0
 61 60  1  0  0  0  0
 62 59  1  0  0  0  0
M  END
>  <MODEL>
1

>  <REMARK>
 VINA RESULT:      -6.0      0.000      0.000
  Name = 
  19 active torsions:
  status: ('A' for Active; 'I' for Inactive)
    1  A    between atoms: C_2  and  C_16
    2  A    between atoms: C_2  and  C_57
    3  A    between atoms: N_4  and  C_7
    4  A    between atoms: N_4  and  C_49
    5  A    between atoms: C_8  and  O_51
    6  A    between atoms: C_9  and  C_34
    7  A    between atoms: C_11  and  C_17
    8  A    between atoms: C_14  and  C_23
    9  A    between atoms: C_15  and  C_23
   10  A    between atoms: C_15  and  C_34
   11  A    between atoms: C_16  and  C_29
   12  A    between atoms: C_23  and  C_30
   13  A    between atoms: C_27  and  C_56
   14  A    between atoms: N_28  and  C_32
   15  A    between atoms: C_30  and  C_50
   16  A    between atoms: C_37  and  C_41
   17  A    between atoms: C_40  and  C_56
   18  A    between atoms: C_48  and  C_52
   19  A    between atoms: C_52  and  C_59
                            x       y       z     vdW  Elec       q    Type
                         _______ _______ _______ _____ _____    ______ ____

>  <TORSDO>
F 19

$$$$
=
 OpenBabel11062423003D

 62 68  0  0  1  0  0  0  0  0999 V2000
  186.5810  176.9480  145.2440 C   0  0  0  0  0  0  0  0  0  0  0  0
  187.0990  175.6890  144.6000 C   0  0  0  0  0  2  0  0  0  0  0  0
  188.3340  178.2160  144.0860 C   0  0  0  0  0  3  0  0  0  0  0  0
  187.1520  178.1280  144.9670 C   0  0  0  0  0  3  0  0  0  0  0  0
  188.9830  177.1120  143.7040 C   0  0  0  0  0  0  0  0  0  0  0  0
  188.5970  175.7650  144.2790 C   0  0  2  0  0  3  0  0  0  0  0  0
  184.5280  177.9270  146.2400 C   0  0  0  0  0  1  0  0  0  0  0  0
  185.4430  176.8500  146.0510 O   0  0  0  0  0  0  0  0  0  0  0  0
  190.1500  177.2570  142.7740 C   0  0  0  0  0  2  0  0  0  0  0  0
  194.8540  175.3240  142.7670 N   0  0  0  0  0  0  0  0  0  0  0  0
  192.8000  176.8340  145.4320 C   0  0  0  0  0  0  0  0  0  0  0  0
  193.8010  176.3200  144.6820 C   0  0  0  0  0  0  0  0  0  0  0  0
  192.5300  176.3510  142.6980 C   0  0  0  0  0  3  0  0  0  0  0  0
  191.4630  176.9520  143.4230 C   0  0  0  0  0  0  0  0  0  0  0  0
  194.8910  174.9520  141.3730 C   0  0  0  0  0  0  0  0  0  0  0  0
  193.8370  174.9250  140.6900 O   0  0  0  0  0  0  0  0  0  0  0  0
  193.2010  176.7580  146.8830 C   0  0  0  0  0  2  0  0  0  0  0  0
  195.8650  175.2540  145.0480 N   0  0  0  0  0  0  0  0  0  0  0  0
  193.7280  176.0240  143.3510 C   0  0  0  0  0  0  0  0  0  0  0  0
  191.5910  177.1690  144.8210 C   0  0  0  0  0  3  0  0  0  0  0  0
  196.0890  175.1430  143.5830 C   0  0  0  0  0  2  0  0  0  0  0  0
  194.8200  175.8590  145.5090 C   0  0  0  0  0  0  0  0  0  0  0  0
  194.4800  176.0900  146.8370 O   0  0  0  0  0  0  0  0  0  0  0  0
  197.2260  175.6660  140.9380 C   0  0  0  0  0  1  0  0  0  0  0  0
  196.1970  174.5790  140.7290 C   0  0  1  0  0  3  0  0  0  0  0  0
  196.7720  173.2290  141.1780 C   0  0  0  0  0  2  0  0  0  0  0  0
  196.4920  171.0230  142.2720 C   0  0  0  0  0  2  0  0  0  0  0  0
  194.5510  170.1480  141.1010 O   0  0  0  0  0  1  0  0  0  0  0  0
  195.7510  170.8470  140.9700 C   0  0  1  0  0  0  0  0  0  0  0  0
  195.7380  172.1980  141.6490 C   0  0  2  0  0  3  0  0  0  0  0  0
  196.5890  170.6140  139.7180 C   0  0  0  0  0  2  0  0  0  0  0  0
  195.7570  170.7670  138.4580 C   0  0  1  0  0  3  0  0  0  0  0  0
  196.0670  172.1050  137.8190 C   0  0  0  0  0  2  0  0  0  0  0  0
  194.9400  172.9230  137.8340 O   0  0  0  0  0  1  0  0  0  0  0  0
  196.0620  169.6030  137.5140 C   0  0  2  0  0  3  0  0  0  0  0  0
  196.7540  170.0220  136.3740 O   0  0  0  0  0  1  0  0  0  0  0  0
  194.8230  168.7730  137.1550 C   0  0  0  0  0  2  0  0  0  0  0  0
  192.4250  168.7750  137.4520 N   0  0  0  0  0  2  0  0  0  0  0  0
  193.5580  169.2600  137.8030 C   0  0  0  0  0  3  0  0  0  0  0  0
  188.9650  174.6110  143.3640 C   0  0  0  0  0  2  0  0  0  0  0  0
  190.9420  172.9920  143.1770 N   0  0  0  0  0  0  0  0  0  0  0  0
  190.0270  173.6130  145.2460 O   0  0  0  0  0  0  0  0  0  0  0  0
  189.9990  173.7240  143.9890 C   0  0  0  0  0  0  0  0  0  0  0  0
  193.0120  172.8250  144.5320 C   0  0  0  0  0  3  0  0  0  0  0  0
  193.9980  170.6640  144.9970 C   0  0  0  0  0  0  0  0  0  0  0  0
  194.0130  172.0580  145.1320 C   0  0  0  0  0  3  0  0  0  0  0  0
  191.9920  172.2090  143.7890 C   0  0  0  0  0  0  0  0  0  0  0  0
  192.9830  170.0430  144.2730 C   0  0  0  0  0  3  0  0  0  0  0  0
  191.9820  170.8080  143.6760 C   0  0  0  0  0  3  0  0  0  0  0  0
  195.9010  169.2400  146.0300 N   0  0  0  0  0  0  0  0  0  0  0  0
  195.0510  169.8720  145.5710 C   0  0  0  0  0  0  0  0  0  0  0  0
  190.8930  173.1480  141.7530 C   0  0  0  0  0  3  0  0  0  0  0  0
  190.2330  172.2730  141.0020 C   0  0  0  0  0  3  0  0  0  0  0  0
  190.2410  172.3040  139.5430 C   0  0  0  0  0  0  0  0  0  0  0  0
  189.5690  173.3450  138.8260 N   0  0  0  0  0  2  0  0  0  0  0  0
  190.9490  171.4640  138.9270 O   0  0  0  0  0  0  0  0  0  0  0  0
  191.1690  174.0580  135.0280 N   0  0  0  0  0  2  0  0  0  0  0  0
  192.0470  174.4620  136.1370 C   0  0  0  0  0  2  0  0  0  0  0  0
  189.6300  172.7530  136.4310 C   0  0  0  0  0  2  0  0  0  0  0  0
  189.9930  173.7920  137.5020 C   0  0  0  0  0  3  0  0  0  0  0  0
  191.4950  174.1000  137.5200 C   0  0  0  0  0  2  0  0  0  0  0  0
  190.6310  172.7270  135.2630 C   0  0  0  0  0  2  0  0  0  0  0  0
  1  8  1  0  0  0  0
  2  1  1  0  0  0  0
  3  4  1  0  0  0  0
  4  1  2  0  0  0  0
  5  3  2  0  0  0  0
  5  6  1  0  0  0  0
  6 40  1  6  0  0  0
  6  2  1  0  0  0  0
  8  7  1  0  0  0  0
  9 14  1  0  0  0  0
  9  5  1  0  0  0  0
 10 19  1  0  0  0  0
 10 21  1  0  0  0  0
 11 17  1  0  0  0  0
 12 11  2  0  0  0  0
 12 22  1  0  0  0  0
 13 19  2  0  0  0  0
 13 14  1  0  0  0  0
 14 20  2  0  0  0  0
 15 10  1  0  0  0  0
 16 15  2  0  0  0  0
 18 22  2  0  0  0  0
 19 12  1  0  0  0  0
 20 11  1  0  0  0  0
 21 18  1  0  0  0  0
 22 23  1  0  0  0  0
 23 17  1  0  0  0  0
 25 24  1  1  0  0  0
 25 26  1  0  0  0  0
 25 15  1  0  0  0  0
 29 28  1  1  0  0  0
 29 30  1  0  0  0  0
 29 27  1  0  0  0  0
 30 26  1  6  0  0  0
 30 27  1  0  0  0  0
 31 29  1  0  0  0  0
 32 33  1  6  0  0  0
 32 31  1  0  0  0  0
 33 34  1  0  0  0  0
 35 36  1  6  0  0  0
 35 32  1  0  0  0  0
 37 35  1  0  0  0  0
 37 39  1  0  0  0  0
 38 39  2  0  0  0  0
 40 43  1  0  0  0  0
 41 47  1  0  0  0  0
 41 43  1  0  0  0  0
 43 42  2  0  0  0  0
 44 46  1  0  0  0  0
 45 46  2  0  0  0  0
 45 51  1  0  0  0  0
 47 44  2  0  0  0  0
 48 45  1  0  0  0  0
 49 47  1  0  0  0  0
 49 48  2  0  0  0  0
 51 50  3  0  0  0  0
 52 41  1  0  0  0  0
 53 52  2  0  0  0  0
 54 53  1  0  0  0  0
 55 54  1  0  0  0  0
 56 54  2  0  0  0  0
 57 62  1  0  0  0  0
 57 58  1  0  0  0  0
 58 61  1  0  0  0  0
 59 60  1  0  0  0  0
 60 61  1  0  0  0  0
 60 55  1  0  0  0  0
 62 59  1  0  0  0  0
M  END
>  <MODEL>
2

>  <REMARK>
 VINA RESULT:      -5.4      2.996      7.108
  Name = 
  19 active torsions:
  status: ('A' for Active; 'I' for Inactive)
    1  A    between atoms: C_2  and  C_16
    2  A    between atoms: C_2  and  C_57
    3  A    between atoms: N_4  and  C_7
    4  A    between atoms: N_4  and  C_49
    5  A    between atoms: C_8  and  O_51
    6  A    between atoms: C_9  and  C_34
    7  A    between atoms: C_11  and  C_17
    8  A    between atoms: C_14  and  C_23
    9  A    between atoms: C_15  and  C_23
   10  A    between atoms: C_15  and  C_34
   11  A    between atoms: C_16  and  C_29
   12  A    between atoms: C_23  and  C_30
   13  A    between atoms: C_27  and  C_56
   14  A    between atoms: N_28  and  C_32
   15  A    between atoms: C_30  and  C_50
   16  A    between atoms: C_37  and  C_41
   17  A    between atoms: C_40  and  C_56
   18  A    between atoms: C_48  and  C_52
   19  A    between atoms: C_52  and  C_59
                            x       y       z     vdW  Elec       q    Type
                         _______ _______ _______ _____ _____    ______ ____

>  <TORSDO>
F 19

$$$$
=
 OpenBabel11062423003D

 62 68  0  0  1  0  0  0  0  0999 V2000
  187.5740  176.6050  145.6150 C   0  0  0  0  0  0  0  0  0  0  0  0
  187.9340  175.3920  144.7990 C   0  0  0  0  0  2  0  0  0  0  0  0
  189.2590  177.8910  144.3760 C   0  0  0  0  0  3  0  0  0  0  0  0
  188.1830  177.7770  145.3820 C   0  0  0  0  0  3  0  0  0  0  0  0
  189.7880  176.7980  143.8170 C   0  0  0  0  0  0  0  0  0  0  0  0
  189.3860  175.4220  144.3070 C   0  0  2  0  0  3  0  0  0  0  0  0
  185.2060  176.9350  146.2820 C   0  0  0  0  0  1  0  0  0  0  0  0
  186.5340  176.4860  146.5420 O   0  0  0  0  0  0  0  0  0  0  0  0
  190.8470  176.9750  142.7700 C   0  0  0  0  0  2  0  0  0  0  0  0
  195.4790  175.0100  142.0350 N   0  0  0  0  0  0  0  0  0  0  0  0
  193.7400  176.1860  145.0670 C   0  0  0  0  0  0  0  0  0  0  0  0
  194.6480  175.7620  144.1590 C   0  0  0  0  0  0  0  0  0  0  0  0
  193.1840  176.0620  142.3360 C   0  0  0  0  0  3  0  0  0  0  0  0
  192.2100  176.5760  143.2370 C   0  0  0  0  0  0  0  0  0  0  0  0
  195.3670  174.8200  140.6090 C   0  0  0  0  0  0  0  0  0  0  0  0
  194.2500  174.8920  140.0400 O   0  0  0  0  0  0  0  0  0  0  0  0
  194.2820  175.9200  146.4470 C   0  0  0  0  0  2  0  0  0  0  0  0
  196.7120  174.6370  144.1730 N   0  0  0  0  0  0  0  0  0  0  0  0
  194.4350  175.6410  142.8150 C   0  0  0  0  0  0  0  0  0  0  0  0
  192.4830  176.6100  144.6310 C   0  0  0  0  0  3  0  0  0  0  0  0
  196.7850  174.7130  142.6900 C   0  0  0  0  0  2  0  0  0  0  0  0
  195.7330  175.1880  144.8120 C   0  0  0  0  0  0  0  0  0  0  0  0
  195.5340  175.2500  146.1860 O   0  0  0  0  0  0  0  0  0  0  0  0
  197.5200  175.7130  139.7620 C   0  0  0  0  0  1  0  0  0  0  0  0
  196.5920  174.5190  139.7920 C   0  0  1  0  0  3  0  0  0  0  0  0
  197.3680  173.2720  140.2330 C   0  0  0  0  0  2  0  0  0  0  0  0
  197.6040  170.8210  139.9500 C   0  0  0  0  0  2  0  0  0  0  0  0
  195.6120  170.2900  138.6640 O   0  0  0  0  0  1  0  0  0  0  0  0
  196.6580  171.1970  138.8370 C   0  0  1  0  0  0  0  0  0  0  0  0
  196.5930  171.9500  140.1460 C   0  0  2  0  0  3  0  0  0  0  0  0
  197.2650  171.8420  137.5970 C   0  0  0  0  0  2  0  0  0  0  0  0
  196.3070  171.7950  136.4220 C   0  0  1  0  0  3  0  0  0  0  0  0
  195.0930  172.6450  136.7370 C   0  0  0  0  0  2  0  0  0  0  0  0
  194.1970  172.6280  135.6710 O   0  0  0  0  0  1  0  0  0  0  0  0
  197.0310  172.2820  135.1660 C   0  0  2  0  0  3  0  0  0  0  0  0
  197.7930  171.2690  134.5760 O   0  0  0  0  0  1  0  0  0  0  0  0
  197.8570  173.5540  135.3970 C   0  0  0  0  0  2  0  0  0  0  0  0
  197.8400  175.8130  134.5430 N   0  0  0  0  0  2  0  0  0  0  0  0
  197.1610  174.8150  134.9730 C   0  0  0  0  0  3  0  0  0  0  0  0
  189.5730  174.3480  143.2500 C   0  0  0  0  0  2  0  0  0  0  0  0
  191.3370  172.5890  142.6560 N   0  0  0  0  0  0  0  0  0  0  0  0
  190.8960  173.2160  144.8730 O   0  0  0  0  0  0  0  0  0  0  0  0
  190.6330  173.3660  143.6480 C   0  0  0  0  0  0  0  0  0  0  0  0
  192.1800  170.3570  143.3350 C   0  0  0  0  0  3  0  0  0  0  0  0
  194.5410  170.0140  143.7410 C   0  0  0  0  0  0  0  0  0  0  0  0
  193.2340  169.5120  143.6870 C   0  0  0  0  0  3  0  0  0  0  0  0
  192.4190  171.7090  143.0380 C   0  0  0  0  0  0  0  0  0  0  0  0
  194.7900  171.3490  143.4360 C   0  0  0  0  0  3  0  0  0  0  0  0
  193.7380  172.1930  143.0810 C   0  0  0  0  0  3  0  0  0  0  0  0
  196.4910  168.4770  144.4830 N   0  0  0  0  0  0  0  0  0  0  0  0
  195.6240  169.1620  144.1500 C   0  0  0  0  0  0  0  0  0  0  0  0
  191.0240  172.7890  141.2710 C   0  0  0  0  0  3  0  0  0  0  0  0
  190.2180  171.9480  140.6340 C   0  0  0  0  0  3  0  0  0  0  0  0
  189.9520  172.0250  139.2010 C   0  0  0  0  0  0  0  0  0  0  0  0
  189.6240  173.2720  138.5800 N   0  0  0  0  0  2  0  0  0  0  0  0
  190.1320  170.9940  138.4990 O   0  0  0  0  0  0  0  0  0  0  0  0
  190.5680  174.7410  134.7800 N   0  0  0  0  0  2  0  0  0  0  0  0
  189.1700  174.9580  135.1780 C   0  0  0  0  0  2  0  0  0  0  0  0
  191.3440  174.1220  137.0290 C   0  0  0  0  0  2  0  0  0  0  0  0
  189.9230  173.5590  137.1800 C   0  0  0  0  0  3  0  0  0  0  0  0
  188.8630  174.5090  136.6120 C   0  0  0  0  0  2  0  0  0  0  0  0
  191.4700  175.1150  135.8590 C   0  0  0  0  0  2  0  0  0  0  0  0
  1  8  1  0  0  0  0
  2  1  1  0  0  0  0
  3  4  1  0  0  0  0
  4  1  2  0  0  0  0
  5  6  1  0  0  0  0
  5  3  2  0  0  0  0
  6 40  1  6  0  0  0
  6  2  1  0  0  0  0
  7  8  1  0  0  0  0
  9 14  1  0  0  0  0
  9  5  1  0  0  0  0
 10 21  1  0  0  0  0
 10 19  1  0  0  0  0
 11 17  1  0  0  0  0
 12 22  1  0  0  0  0
 12 11  2  0  0  0  0
 13 19  2  0  0  0  0
 13 14  1  0  0  0  0
 14 20  2  0  0  0  0
 15 10  1  0  0  0  0
 16 15  2  0  0  0  0
 18 22  2  0  0  0  0
 19 12  1  0  0  0  0
 20 11  1  0  0  0  0
 21 18  1  0  0  0  0
 22 23  1  0  0  0  0
 23 17  1  0  0  0  0
 25 24  1  1  0  0  0
 25 26  1  0  0  0  0
 25 15  1  0  0  0  0
 27 30  1  0  0  0  0
 29 28  1  6  0  0  0
 29 27  1  0  0  0  0
 29 30  1  0  0  0  0
 30 26  1  6  0  0  0
 31 29  1  0  0  0  0
 32 33  1  1  0  0  0
 32 31  1  0  0  0  0
 34 33  1  0  0  0  0
 35 36  1  1  0  0  0
 35 37  1  0  0  0  0
 35 32  1  0  0  0  0
 38 39  2  0  0  0  0
 39 37  1  0  0  0  0
 40 43  1  0  0  0  0
 41 47  1  0  0  0  0
 41 43  1  0  0  0  0
 43 42  2  0  0  0  0
 44 46  1  0  0  0  0
 45 51  1  0  0  0  0
 46 45  2  0  0  0  0
 47 49  1  0  0  0  0
 47 44  2  0  0  0  0
 48 45  1  0  0  0  0
 49 48  2  0  0  0  0
 51 50  3  0  0  0  0
 52 41  1  0  0  0  0
 53 52  2  0  0  0  0
 54 53  1  0  0  0  0
 55 54  1  0  0  0  0
 56 54  2  0  0  0  0
 57 58  1  0  0  0  0
 57 62  1  0  0  0  0
 58 61  1  0  0  0  0
 59 60  1  0  0  0  0
 60 55  1  0  0  0  0
 61 60  1  0  0  0  0
 62 59  1  0  0  0  0
M  END
>  <MODEL>
3

>  <REMARK>
 VINA RESULT:      -5.2      3.218      7.612
  Name = 
  19 active torsions:
  status: ('A' for Active; 'I' for Inactive)
    1  A    between atoms: C_2  and  C_16
    2  A    between atoms: C_2  and  C_57
    3  A    between atoms: N_4  and  C_7
    4  A    between atoms: N_4  and  C_49
    5  A    between atoms: C_8  and  O_51
    6  A    between atoms: C_9  and  C_34
    7  A    between atoms: C_11  and  C_17
    8  A    between atoms: C_14  and  C_23
    9  A    between atoms: C_15  and  C_23
   10  A    between atoms: C_15  and  C_34
   11  A    between atoms: C_16  and  C_29
   12  A    between atoms: C_23  and  C_30
   13  A    between atoms: C_27  and  C_56
   14  A    between atoms: N_28  and  C_32
   15  A    between atoms: C_30  and  C_50
   16  A    between atoms: C_37  and  C_41
   17  A    between atoms: C_40  and  C_56
   18  A    between atoms: C_48  and  C_52
   19  A    between atoms: C_52  and  C_59
                            x       y       z     vdW  Elec       q    Type
                         _______ _______ _______ _____ _____    ______ ____

>  <TORSDO>
F 19

$$$$
=
 OpenBabel11062423003D

 62 68  0  0  1  0  0  0  0  0999 V2000
  191.7610  171.2590  141.9700 C   0  0  0  0  0  0  0  0  0  0  0  0
  191.3390  172.7030  142.0140 C   0  0  0  0  0  2  0  0  0  0  0  0
  190.3390  170.9420  139.9950 C   0  0  0  0  0  3  0  0  0  0  0  0
  191.3080  170.4550  140.9980 C   0  0  0  0  0  3  0  0  0  0  0  0
  189.7400  172.1280  140.1440 C   0  0  0  0  0  0  0  0  0  0  0  0
  189.9450  172.9280  141.4140 C   0  0  2  0  0  3  0  0  0  0  0  0
  192.7130  169.4990  143.4390 C   0  0  0  0  0  1  0  0  0  0  0  0
  192.7000  170.8220  142.9100 O   0  0  0  0  0  0  0  0  0  0  0  0
  188.8000  172.5920  139.0730 C   0  0  0  0  0  2  0  0  0  0  0  0
  192.9020  174.6280  136.8630 N   0  0  0  0  0  0  0  0  0  0  0  0
  189.3080  174.8070  136.0560 C   0  0  0  0  0  0  0  0  0  0  0  0
  190.6580  174.8730  136.0420 C   0  0  0  0  0  0  0  0  0  0  0  0
  190.8920  173.5220  137.9580 C   0  0  0  0  0  3  0  0  0  0  0  0
  189.4780  173.3650  137.9870 C   0  0  0  0  0  0  0  0  0  0  0  0
  193.8810  174.0910  137.7780 C   0  0  0  0  0  0  0  0  0  0  0  0
  193.5250  173.5900  138.8720 O   0  0  0  0  0  0  0  0  0  0  0  0
  188.7700  175.7810  135.0400 C   0  0  0  0  0  2  0  0  0  0  0  0
  192.3160  176.1610  134.9830 N   0  0  0  0  0  0  0  0  0  0  0  0
  191.4940  174.3020  136.9590 C   0  0  0  0  0  0  0  0  0  0  0  0
  188.6710  174.0450  137.0370 C   0  0  0  0  0  3  0  0  0  0  0  0
  193.3830  175.3940  135.6780 C   0  0  0  0  0  2  0  0  0  0  0  0
  191.0720  175.8450  135.1380 C   0  0  0  0  0  0  0  0  0  0  0  0
  189.9610  176.4210  134.5340 O   0  0  0  0  0  0  0  0  0  0  0  0
  196.0300  175.2640  138.1750 C   0  0  0  0  0  1  0  0  0  0  0  0
  195.3420  174.1420  137.4300 C   0  0  1  0  0  3  0  0  0  0  0  0
  196.1030  172.8290  137.6560 C   0  0  0  0  0  2  0  0  0  0  0  0
  194.9320  170.7240  137.0700 C   0  0  0  0  0  2  0  0  0  0  0  0
  196.6200  169.5860  135.7450 O   0  0  0  0  0  1  0  0  0  0  0  0
  196.3840  170.3640  136.8790 C   0  0  1  0  0  0  0  0  0  0  0  0
  195.9240  171.7680  136.5610 C   0  0  2  0  0  3  0  0  0  0  0  0
  197.2000  170.0770  138.1330 C   0  0  0  0  0  2  0  0  0  0  0  0
  196.3050  169.8340  139.3340 C   0  0  1  0  0  3  0  0  0  0  0  0
  195.9860  168.3560  139.4250 C   0  0  0  0  0  2  0  0  0  0  0  0
  194.6350  168.1660  139.7020 O   0  0  0  0  0  1  0  0  0  0  0  0
  197.0080  170.3420  140.5930 C   0  0  2  0  0  3  0  0  0  0  0  0
  197.8630  169.3800  141.1380 O   0  0  0  0  0  1  0  0  0  0  0  0
  196.0420  170.9050  141.6430 C   0  0  0  0  0  2  0  0  0  0  0  0
  195.9160  171.2330  144.0330 N   0  0  0  0  0  2  0  0  0  0  0  0
  196.4240  170.5750  143.0570 C   0  0  0  0  0  3  0  0  0  0  0  0
  189.7300  174.4170  141.2080 C   0  0  0  0  0  2  0  0  0  0  0  0
  189.2990  175.8390  143.2940 N   0  0  0  0  0  0  0  0  0  0  0  0
  187.5780  174.6930  142.1880 O   0  0  0  0  0  0  0  0  0  0  0  0
  188.8050  174.9850  142.2420 C   0  0  0  0  0  0  0  0  0  0  0  0
  187.5670  177.5260  143.8480 C   0  0  0  0  0  3  0  0  0  0  0  0
  186.6080  177.6100  146.0680 C   0  0  0  0  0  0  0  0  0  0  0  0
  186.6810  178.1040  144.7600 C   0  0  0  0  0  3  0  0  0  0  0  0
  188.3900  176.4560  144.2350 C   0  0  0  0  0  0  0  0  0  0  0  0
  187.4100  176.5400  146.4570 C   0  0  0  0  0  3  0  0  0  0  0  0
  188.2940  175.9610  145.5470 C   0  0  0  0  0  3  0  0  0  0  0  0
  185.0280  178.7240  147.7940 N   0  0  0  0  0  0  0  0  0  0  0  0
  185.7330  178.2300  147.0250 C   0  0  0  0  0  0  0  0  0  0  0  0
  190.6960  176.1630  143.3230 C   0  0  0  0  0  3  0  0  0  0  0  0
  191.5420  175.4340  144.0430 C   0  0  0  0  0  3  0  0  0  0  0  0
  192.9500  175.7760  144.2110 C   0  0  0  0  0  0  0  0  0  0  0  0
  193.9770  174.8140  143.9500 N   0  0  0  0  0  2  0  0  0  0  0  0
  193.2520  176.9710  144.4760 O   0  0  0  0  0  0  0  0  0  0  0  0
  197.9130  175.2210  142.5980 N   0  0  0  0  0  2  0  0  0  0  0  0
  197.8000  174.8110  144.0060 C   0  0  0  0  0  2  0  0  0  0  0  0
  195.5550  174.7920  142.0540 C   0  0  0  0  0  2  0  0  0  0  0  0
  195.3200  175.1900  143.5180 C   0  0  0  0  0  3  0  0  0  0  0  0
  196.3560  174.5640  144.4590 C   0  0  0  0  0  2  0  0  0  0  0  0
  197.0220  174.4300  141.7630 C   0  0  0  0  0  2  0  0  0  0  0  0
  1  2  1  0  0  0  0
  1  8  1  0  0  0  0
  3  5  2  0  0  0  0
  3  4  1  0  0  0  0
  4  1  2  0  0  0  0
  5  6  1  0  0  0  0
  6 40  1  6  0  0  0
  6  2  1  0  0  0  0
  8  7  1  0  0  0  0
  9  5  1  0  0  0  0
 10 19  1  0  0  0  0
 10 15  1  0  0  0  0
 11 20  1  0  0  0  0
 12 11  2  0  0  0  0
 12 19  1  0  0  0  0
 13 14  1  0  0  0  0
 14  9  1  0  0  0  0
 15 16  2  0  0  0  0
 17 11  1  0  0  0  0
 18 22  2  0  0  0  0
 18 21  1  0  0  0  0
 19 13  2  0  0  0  0
 20 14  2  0  0  0  0
 21 10  1  0  0  0  0
 22 12  1  0  0  0  0
 23 17  1  0  0  0  0
 23 22  1  0  0  0  0
 25 26  1  0  0  0  0
 25 15  1  0  0  0  0
 25 24  1  1  0  0  0
 29 28  1  6  0  0  0
 29 27  1  0  0  0  0
 29 31  1  0  0  0  0
 30 29  1  0  0  0  0
 30 27  1  0  0  0  0
 30 26  1  1  0  0  0
 32 31  1  6  0  0  0
 32 33  1  0  0  0  0
 32 35  1  0  0  0  0
 33 34  1  0  0  0  0
 35 36  1  1  0  0  0
 35 37  1  0  0  0  0
 37 39  1  0  0  0  0
 39 38  2  0  0  0  0
 40 43  1  0  0  0  0
 41 52  1  0  0  0  0
 41 47  1  0  0  0  0
 42 43  2  0  0  0  0
 43 41  1  0  0  0  0
 44 47  2  0  0  0  0
 44 46  1  0  0  0  0
 45 48  1  0  0  0  0
 45 51  1  0  0  0  0
 46 45  2  0  0  0  0
 47 49  1  0  0  0  0
 49 48  2  0  0  0  0
 51 50  3  0  0  0  0
 52 53  2  0  0  0  0
 53 54  1  0  0  0  0
 54 56  2  0  0  0  0
 55 54  1  0  0  0  0
 57 58  1  0  0  0  0
 58 61  1  0  0  0  0
 59 60  1  0  0  0  0
 60 55  1  0  0  0  0
 60 61  1  0  0  0  0
 62 59  1  0  0  0  0
 62 57  1  0  0  0  0
M  END
>  <MODEL>
4

>  <REMARK>
 VINA RESULT:      -5.1      2.977      6.321
  Name = 
  19 active torsions:
  status: ('A' for Active; 'I' for Inactive)
    1  A    between atoms: C_2  and  C_16
    2  A    between atoms: C_2  and  C_57
    3  A    between atoms: N_4  and  C_7
    4  A    between atoms: N_4  and  C_49
    5  A    between atoms: C_8  and  O_51
    6  A    between atoms: C_9  and  C_34
    7  A    between atoms: C_11  and  C_17
    8  A    between atoms: C_14  and  C_23
    9  A    between atoms: C_15  and  C_23
   10  A    between atoms: C_15  and  C_34
   11  A    between atoms: C_16  and  C_29
   12  A    between atoms: C_23  and  C_30
   13  A    between atoms: C_27  and  C_56
   14  A    between atoms: N_28  and  C_32
   15  A    between atoms: C_30  and  C_50
   16  A    between atoms: C_37  and  C_41
   17  A    between atoms: C_40  and  C_56
   18  A    between atoms: C_48  and  C_52
   19  A    between atoms: C_52  and  C_59
                            x       y       z     vdW  Elec       q    Type
                         _______ _______ _______ _____ _____    ______ ____

>  <TORSDO>
F 19

$$$$
=
 OpenBabel11062423003D

 62 68  0  0  1  0  0  0  0  0999 V2000
  188.1220  174.8850  136.8890 C   0  0  0  0  0  0  0  0  0  0  0  0
  188.0790  174.7990  138.3920 C   0  0  0  0  0  2  0  0  0  0  0  0
  189.1880  172.6750  136.8310 C   0  0  0  0  0  3  0  0  0  0  0  0
  188.6160  173.8670  136.1710 C   0  0  0  0  0  3  0  0  0  0  0  0
  189.4090  172.6650  138.1490 C   0  0  0  0  0  0  0  0  0  0  0  0
  189.2030  173.9250  138.9640 C   0  0  2  0  0  3  0  0  0  0  0  0
  186.2190  176.0210  135.7710 C   0  0  0  0  0  1  0  0  0  0  0  0
  187.5500  176.0070  136.2810 O   0  0  0  0  0  0  0  0  0  0  0  0
  189.9500  171.4130  138.7720 C   0  0  0  0  0  2  0  0  0  0  0  0
  194.8990  171.9470  137.7330 N   0  0  0  0  0  0  0  0  0  0  0  0
  192.3990  169.4540  136.6670 C   0  0  0  0  0  0  0  0  0  0  0  0
  193.5330  170.1420  136.9300 C   0  0  0  0  0  0  0  0  0  0  0  0
  192.4470  171.6790  138.3480 C   0  0  0  0  0  3  0  0  0  0  0  0
  191.2350  170.9570  138.1580 C   0  0  0  0  0  0  0  0  0  0  0  0
  195.1160  173.1400  138.5150 C   0  0  0  0  0  0  0  0  0  0  0  0
  194.1450  173.8090  138.9450 O   0  0  0  0  0  0  0  0  0  0  0  0
  192.6830  168.4660  135.5650 C   0  0  0  0  0  2  0  0  0  0  0  0
  195.7100  170.2870  136.0550 N   0  0  0  0  0  0  0  0  0  0  0  0
  193.6250  171.2590  137.7110 C   0  0  0  0  0  0  0  0  0  0  0  0
  191.2050  169.8430  137.2780 C   0  0  0  0  0  3  0  0  0  0  0  0
  196.0730  171.3050  137.0750 C   0  0  0  0  0  2  0  0  0  0  0  0
  194.5420  169.7350  136.0640 C   0  0  0  0  0  0  0  0  0  0  0  0
  194.0570  168.7430  135.2190 O   0  0  0  0  0  0  0  0  0  0  0  0
  196.7590  174.9780  138.2370 C   0  0  0  0  0  1  0  0  0  0  0  0
  196.5170  173.6000  138.8110 C   0  0  1  0  0  3  0  0  0  0  0  0
  196.8970  173.5850  140.2970 C   0  0  0  0  0  2  0  0  0  0  0  0
  197.8300  175.2400  141.8880 C   0  0  0  0  0  2  0  0  0  0  0  0
  195.8590  175.8320  143.1800 O   0  0  0  0  0  1  0  0  0  0  0  0
  196.5660  174.7910  142.5760 C   0  0  1  0  0  0  0  0  0  0  0  0
  196.5940  174.8770  141.0670 C   0  0  2  0  0  3  0  0  0  0  0  0
  196.5990  173.4390  143.2800 C   0  0  0  0  0  2  0  0  0  0  0  0
  195.4530  173.2980  144.2640 C   0  0  1  0  0  3  0  0  0  0  0  0
  194.4120  172.3620  143.6820 C   0  0  0  0  0  2  0  0  0  0  0  0
  193.4510  172.0490  144.6400 O   0  0  0  0  0  1  0  0  0  0  0  0
  195.9990  172.7820  145.5960 C   0  0  2  0  0  3  0  0  0  0  0  0
  196.4960  173.8180  146.3930 O   0  0  0  0  0  1  0  0  0  0  0  0
  197.0190  171.6480  145.4350 C   0  0  0  0  0  2  0  0  0  0  0  0
  195.5950  170.0100  146.4960 N   0  0  0  0  0  2  0  0  0  0  0  0
  196.7780  170.4810  146.3490 C   0  0  0  0  0  3  0  0  0  0  0  0
  188.9070  173.6340  140.4250 C   0  0  0  0  0  2  0  0  0  0  0  0
  189.6550  175.0190  142.4460 N   0  0  0  0  0  0  0  0  0  0  0  0
  191.1850  173.9000  141.0640 O   0  0  0  0  0  0  0  0  0  0  0  0
  189.9800  174.1780  141.3190 C   0  0  0  0  0  0  0  0  0  0  0  0
  191.2650  176.7380  143.2200 C   0  0  0  0  0  3  0  0  0  0  0  0
  192.6570  176.3270  145.1580 C   0  0  0  0  0  0  0  0  0  0  0  0
  192.2490  177.1680  144.1140 C   0  0  0  0  0  3  0  0  0  0  0  0
  190.6850  175.4670  143.3570 C   0  0  0  0  0  0  0  0  0  0  0  0
  192.0770  175.0700  145.3090 C   0  0  0  0  0  3  0  0  0  0  0  0
  191.0940  174.6410  144.4180 C   0  0  0  0  0  3  0  0  0  0  0  0
  194.5440  177.0740  146.7670 N   0  0  0  0  0  0  0  0  0  0  0  0
  193.7020  176.7430  146.0520 C   0  0  0  0  0  0  0  0  0  0  0  0
  188.2770  175.3070  142.7180 C   0  0  0  0  0  3  0  0  0  0  0  0
  187.7780  176.5120  142.4630 C   0  0  0  0  0  3  0  0  0  0  0  0
  186.4200  176.9080  142.8230 C   0  0  0  0  0  0  0  0  0  0  0  0
  185.6480  177.7520  141.9640 N   0  0  0  0  0  2  0  0  0  0  0  0
  185.8960  176.3970  143.8500 O   0  0  0  0  0  0  0  0  0  0  0  0
  181.5160  178.2630  141.5680 N   0  0  0  0  0  2  0  0  0  0  0  0
  182.0890  178.8970  142.7650 C   0  0  0  0  0  2  0  0  0  0  0  0
  183.6810  177.8550  140.4780 C   0  0  0  0  0  2  0  0  0  0  0  0
  184.1890  177.7110  141.9200 C   0  0  0  0  0  3  0  0  0  0  0  0
  183.6160  178.7920  142.8430 C   0  0  0  0  0  2  0  0  0  0  0  0
  182.3200  178.5680  140.3940 C   0  0  0  0  0  2  0  0  0  0  0  0
  1  2  1  0  0  0  0
  2  6  1  0  0  0  0
  3  5  2  0  0  0  0
  4  3  1  0  0  0  0
  4  1  2  0  0  0  0
  5  9  1  0  0  0  0
  5  6  1  0  0  0  0
  6 40  1  1  0  0  0
  7  8  1  0  0  0  0
  8  1  1  0  0  0  0
 10 15  1  0  0  0  0
 11 12  2  0  0  0  0
 11 20  1  0  0  0  0
 12 19  1  0  0  0  0
 14 13  1  0  0  0  0
 14  9  1  0  0  0  0
 15 25  1  0  0  0  0
 15 16  2  0  0  0  0
 17 11  1  0  0  0  0
 18 22  2  0  0  0  0
 18 21  1  0  0  0  0
 19 10  1  0  0  0  0
 19 13  2  0  0  0  0
 20 14  2  0  0  0  0
 21 10  1  0  0  0  0
 22 12  1  0  0  0  0
 23 17  1  0  0  0  0
 23 22  1  0  0  0  0
 25 24  1  1  0  0  0
 25 26  1  0  0  0  0
 27 29  1  0  0  0  0
 29 28  1  1  0  0  0
 29 31  1  0  0  0  0
 30 26  1  6  0  0  0
 30 27  1  0  0  0  0
 30 29  1  0  0  0  0
 32 31  1  6  0  0  0
 32 35  1  0  0  0  0
 33 32  1  0  0  0  0
 33 34  1  0  0  0  0
 35 36  1  6  0  0  0
 37 35  1  0  0  0  0
 37 39  1  0  0  0  0
 39 38  2  0  0  0  0
 40 43  1  0  0  0  0
 41 52  1  0  0  0  0
 41 47  1  0  0  0  0
 42 43  2  0  0  0  0
 43 41  1  0  0  0  0
 44 47  2  0  0  0  0
 44 46  1  0  0  0  0
 45 48  1  0  0  0  0
 45 51  1  0  0  0  0
 46 45  2  0  0  0  0
 47 49  1  0  0  0  0
 49 48  2  0  0  0  0
 51 50  3  0  0  0  0
 53 52  2  0  0  0  0
 53 54  1  0  0  0  0
 54 56  2  0  0  0  0
 55 54  1  0  0  0  0
 57 58  1  0  0  0  0
 58 61  1  0  0  0  0
 59 60  1  0  0  0  0
 60 55  1  0  0  0  0
 60 61  1  0  0  0  0
 62 59  1  0  0  0  0
 62 57  1  0  0  0  0
M  END
>  <MODEL>
5

>  <REMARK>
 VINA RESULT:      -5.0      2.203      6.700
  Name = 
  19 active torsions:
  status: ('A' for Active; 'I' for Inactive)
    1  A    between atoms: C_2  and  C_16
    2  A    between atoms: C_2  and  C_57
    3  A    between atoms: N_4  and  C_7
    4  A    between atoms: N_4  and  C_49
    5  A    between atoms: C_8  and  O_51
    6  A    between atoms: C_9  and  C_34
    7  A    between atoms: C_11  and  C_17
    8  A    between atoms: C_14  and  C_23
    9  A    between atoms: C_15  and  C_23
   10  A    between atoms: C_15  and  C_34
   11  A    between atoms: C_16  and  C_29
   12  A    between atoms: C_23  and  C_30
   13  A    between atoms: C_27  and  C_56
   14  A    between atoms: N_28  and  C_32
   15  A    between atoms: C_30  and  C_50
   16  A    between atoms: C_37  and  C_41
   17  A    between atoms: C_40  and  C_56
   18  A    between atoms: C_48  and  C_52
   19  A    between atoms: C_52  and  C_59
                            x       y       z     vdW  Elec       q    Type
                         _______ _______ _______ _____ _____    ______ ____

>  <TORSDO>
F 19

$$$$
=
 OpenBabel11062423003D

 62 68  0  0  1  0  0  0  0  0999 V2000
  188.1370  175.9280  141.6690 C   0  0  0  0  0  0  0  0  0  0  0  0
  188.1510  174.4230  141.6130 C   0  0  0  0  0  2  0  0  0  0  0  0
  190.2700  175.8650  142.8820 C   0  0  0  0  0  3  0  0  0  0  0  0
  189.1540  176.5890  142.2400 C   0  0  0  0  0  3  0  0  0  0  0  0
  190.1990  174.5460  143.0860 C   0  0  0  0  0  0  0  0  0  0  0  0
  188.9180  173.7970  142.7860 C   0  0  2  0  0  3  0  0  0  0  0  0
  186.7210  177.9400  141.3380 C   0  0  0  0  0  1  0  0  0  0  0  0
  187.0880  176.5970  141.0310 O   0  0  0  0  0  0  0  0  0  0  0  0
  191.3790  173.8560  143.7020 C   0  0  0  0  0  2  0  0  0  0  0  0
  196.0070  174.7300  141.7840 N   0  0  0  0  0  0  0  0  0  0  0  0
  194.0840  176.3810  144.4630 C   0  0  0  0  0  0  0  0  0  0  0  0
  194.9840  176.0510  143.5090 C   0  0  0  0  0  0  0  0  0  0  0  0
  193.6560  174.3030  142.6520 C   0  0  0  0  0  3  0  0  0  0  0  0
  192.6460  174.6440  143.5940 C   0  0  0  0  0  0  0  0  0  0  0  0
  195.9980  173.6680  140.8070 C   0  0  0  0  0  0  0  0  0  0  0  0
  195.1320  172.7600  140.8590 O   0  0  0  0  0  0  0  0  0  0  0  0
  194.7170  177.3820  145.3940 C   0  0  0  0  0  2  0  0  0  0  0  0
  197.2380  176.5120  143.0250 N   0  0  0  0  0  0  0  0  0  0  0  0
  194.8590  175.0250  142.6160 C   0  0  0  0  0  0  0  0  0  0  0  0
  192.8770  175.6820  144.5350 C   0  0  0  0  0  3  0  0  0  0  0  0
  197.1690  175.6640  141.8060 C   0  0  0  0  0  2  0  0  0  0  0  0
  196.1850  176.7080  143.7490 C   0  0  0  0  0  0  0  0  0  0  0  0
  196.0630  177.5000  144.8850 O   0  0  0  0  0  0  0  0  0  0  0  0
  197.8650  172.3700  139.8170 C   0  0  0  0  0  1  0  0  0  0  0  0
  197.0390  173.6330  139.7240 C   0  0  1  0  0  3  0  0  0  0  0  0
  196.4900  173.7880  138.3000 C   0  0  0  0  0  2  0  0  0  0  0  0
  197.4830  175.6620  137.0180 C   0  0  0  0  0  2  0  0  0  0  0  0
  197.9100  174.6060  134.8720 O   0  0  0  0  0  1  0  0  0  0  0  0
  197.0120  174.7280  135.9320 C   0  0  1  0  0  0  0  0  0  0  0  0
  197.5290  174.1500  137.2300 C   0  0  2  0  0  3  0  0  0  0  0  0
  195.5200  174.7230  135.6180 C   0  0  0  0  0  2  0  0  0  0  0  0
  194.8880  176.0700  135.9120 C   0  0  1  0  0  3  0  0  0  0  0  0
  194.9330  176.9230  134.6610 C   0  0  0  0  0  2  0  0  0  0  0  0
  195.1450  178.2590  134.9910 O   0  0  0  0  0  1  0  0  0  0  0  0
  193.4550  175.8540  136.4000 C   0  0  2  0  0  3  0  0  0  0  0  0
  193.4180  175.2620  137.6660 O   0  0  0  0  0  1  0  0  0  0  0  0
  192.5780  175.0980  135.3930 C   0  0  0  0  0  2  0  0  0  0  0  0
  190.3520  174.3350  135.9370 N   0  0  0  0  0  2  0  0  0  0  0  0
  191.1050  175.3120  135.5900 C   0  0  0  0  0  3  0  0  0  0  0  0
  189.1540  172.3260  142.4920 C   0  0  0  0  0  2  0  0  0  0  0  0
  190.9190  171.4050  140.8800 N   0  0  0  0  0  0  0  0  0  0  0  0
  189.0480  172.6050  140.1300 O   0  0  0  0  0  0  0  0  0  0  0  0
  189.6880  172.1230  141.1060 C   0  0  0  0  0  0  0  0  0  0  0  0
  192.2170  172.0440  138.8660 C   0  0  0  0  0  3  0  0  0  0  0  0
  192.2970  170.5730  136.9460 C   0  0  0  0  0  0  0  0  0  0  0  0
  192.6710  171.7670  137.5750 C   0  0  0  0  0  3  0  0  0  0  0  0
  191.3820  171.1350  139.5370 C   0  0  0  0  0  0  0  0  0  0  0  0
  191.4810  169.6600  137.6080 C   0  0  0  0  0  3  0  0  0  0  0  0
  191.0280  169.9340  138.8980 C   0  0  0  0  0  3  0  0  0  0  0  0
  193.0590  170.0900  134.5160 N   0  0  0  0  0  0  0  0  0  0  0  0
  192.7220  170.3030  135.5990 C   0  0  0  0  0  0  0  0  0  0  0  0
  191.6170  170.8590  142.0080 C   0  0  0  0  0  3  0  0  0  0  0  0
  192.9410  170.7510  141.9920 C   0  0  0  0  0  3  0  0  0  0  0  0
  193.7030  170.0990  143.0520 C   0  0  0  0  0  0  0  0  0  0  0  0
  194.3020  170.8630  144.1040 N   0  0  0  0  0  2  0  0  0  0  0  0
  193.7250  168.8400  143.0910 O   0  0  0  0  0  0  0  0  0  0  0  0
  195.4230  168.8900  147.6160 N   0  0  0  0  0  2  0  0  0  0  0  0
  194.4200  168.1720  146.8160 C   0  0  0  0  0  2  0  0  0  0  0  0
  196.0080  170.4930  145.8470 C   0  0  0  0  0  2  0  0  0  0  0  0
  194.5380  170.3200  145.4390 C   0  0  0  0  0  3  0  0  0  0  0  0
  194.0960  168.8530  145.4820 C   0  0  0  0  0  2  0  0  0  0  0  0
  196.5060  169.3660  146.7690 C   0  0  0  0  0  2  0  0  0  0  0  0
  1  4  2  0  0  0  0
  2  1  1  0  0  0  0
  2  6  1  0  0  0  0
  3  5  2  0  0  0  0
  4  3  1  0  0  0  0
  5  9  1  0  0  0  0
  6 40  1  6  0  0  0
  6  5  1  0  0  0  0
  8  7  1  0  0  0  0
  8  1  1  0  0  0  0
 10 21  1  0  0  0  0
 10 19  1  0  0  0  0
 11 20  1  0  0  0  0
 11 17  1  0  0  0  0
 12 22  1  0  0  0  0
 12 11  2  0  0  0  0
 13 14  1  0  0  0  0
 14  9  1  0  0  0  0
 14 20  2  0  0  0  0
 15 16  2  0  0  0  0
 15 10  1  0  0  0  0
 18 22  2  0  0  0  0
 19 13  2  0  0  0  0
 19 12  1  0  0  0  0
 21 18  1  0  0  0  0
 22 23  1  0  0  0  0
 23 17  1  0  0  0  0
 25 24  1  6  0  0  0
 25 15  1  0  0  0  0
 26 25  1  0  0  0  0
 27 30  1  0  0  0  0
 29 28  1  6  0  0  0
 29 27  1  0  0  0  0
 29 30  1  0  0  0  0
 30 26  1  1  0  0  0
 31 32  1  0  0  0  0
 31 29  1  0  0  0  0
 32 33  1  6  0  0  0
 32 35  1  0  0  0  0
 33 34  1  0  0  0  0
 35 36  1  1  0  0  0
 37 39  1  0  0  0  0
 37 35  1  0  0  0  0
 39 38  2  0  0  0  0
 41 43  1  0  0  0  0
 41 52  1  0  0  0  0
 42 43  2  0  0  0  0
 43 40  1  0  0  0  0
 44 47  1  0  0  0  0
 45 46  1  0  0  0  0
 45 48  2  0  0  0  0
 46 44  2  0  0  0  0
 47 41  1  0  0  0  0
 48 49  1  0  0  0  0
 49 47  2  0  0  0  0
 50 51  3  0  0  0  0
 51 45  1  0  0  0  0
 53 52  2  0  0  0  0
 53 54  1  0  0  0  0
 54 56  2  0  0  0  0
 54 55  1  0  0  0  0
 55 60  1  0  0  0  0
 58 57  1  0  0  0  0
 59 62  1  0  0  0  0
 60 61  1  0  0  0  0
 60 59  1  0  0  0  0
 61 58  1  0  0  0  0
 62 57  1  0  0  0  0
M  END
>  <MODEL>
6

>  <REMARK>
 VINA RESULT:      -4.5      2.884      8.469
  Name = 
  19 active torsions:
  status: ('A' for Active; 'I' for Inactive)
    1  A    between atoms: C_2  and  C_16
    2  A    between atoms: C_2  and  C_57
    3  A    between atoms: N_4  and  C_7
    4  A    between atoms: N_4  and  C_49
    5  A    between atoms: C_8  and  O_51
    6  A    between atoms: C_9  and  C_34
    7  A    between atoms: C_11  and  C_17
    8  A    between atoms: C_14  and  C_23
    9  A    between atoms: C_15  and  C_23
   10  A    between atoms: C_15  and  C_34
   11  A    between atoms: C_16  and  C_29
   12  A    between atoms: C_23  and  C_30
   13  A    between atoms: C_27  and  C_56
   14  A    between atoms: N_28  and  C_32
   15  A    between atoms: C_30  and  C_50
   16  A    between atoms: C_37  and  C_41
   17  A    between atoms: C_40  and  C_56
   18  A    between atoms: C_48  and  C_52
   19  A    between atoms: C_52  and  C_59
                            x       y       z     vdW  Elec       q    Type
                         _______ _______ _______ _____ _____    ______ ____

>  <TORSDO>
F 19

$$$$
=
 OpenBabel11062423003D

 62 68  0  0  1  0  0  0  0  0999 V2000
  190.7520  175.7950  143.6820 C   0  0  0  0  0  0  0  0  0  0  0  0
  190.1800  176.9170  142.8570 C   0  0  0  0  0  2  0  0  0  0  0  0
  189.4000  174.2060  142.3890 C   0  0  0  0  0  3  0  0  0  0  0  0
  190.3990  174.5270  143.4290 C   0  0  0  0  0  3  0  0  0  0  0  0
  188.6780  175.1740  141.8150 C   0  0  0  0  0  0  0  0  0  0  0  0
  188.7790  176.5990  142.3180 C   0  0  2  0  0  3  0  0  0  0  0  0
  192.8480  176.9370  144.3640 C   0  0  0  0  0  1  0  0  0  0  0  0
  191.7170  176.1140  144.6420 O   0  0  0  0  0  0  0  0  0  0  0  0
  187.7100  174.7950  140.7340 C   0  0  0  0  0  2  0  0  0  0  0  0
  191.5010  172.6730  138.0910 N   0  0  0  0  0  0  0  0  0  0  0  0
  188.5010  174.5480  137.0490 C   0  0  0  0  0  0  0  0  0  0  0  0
  189.6150  173.7840  137.1020 C   0  0  0  0  0  0  0  0  0  0  0  0
  189.5890  173.6470  139.4540 C   0  0  0  0  0  3  0  0  0  0  0  0
  188.3790  174.3960  139.4570 C   0  0  0  0  0  0  0  0  0  0  0  0
  192.2410  172.1650  139.2200 C   0  0  0  0  0  0  0  0  0  0  0  0
  191.9790  172.5540  140.3840 O   0  0  0  0  0  0  0  0  0  0  0  0
  188.3200  175.0350  135.6340 C   0  0  0  0  0  2  0  0  0  0  0  0
  191.3510  173.1550  135.6460 N   0  0  0  0  0  0  0  0  0  0  0  0
  190.2230  173.3390  138.2410 C   0  0  0  0  0  0  0  0  0  0  0  0
  187.8430  174.8810  138.2350 C   0  0  0  0  0  3  0  0  0  0  0  0
  191.9810  172.3410  136.7190 C   0  0  0  0  0  2  0  0  0  0  0  0
  190.2260  173.7570  135.8530 C   0  0  0  0  0  0  0  0  0  0  0  0
  189.4830  174.5150  134.9560 O   0  0  0  0  0  0  0  0  0  0  0  0
  194.6840  171.8690  138.9080 C   0  0  0  0  0  1  0  0  0  0  0  0
  193.3470  171.1690  139.0070 C   0  0  1  0  0  3  0  0  0  0  0  0
  193.4230  170.0570  140.0620 C   0  0  0  0  0  2  0  0  0  0  0  0
  194.6930  168.7110  141.7110 C   0  0  0  0  0  2  0  0  0  0  0  0
  196.4030  170.2900  142.4070 O   0  0  0  0  0  1  0  0  0  0  0  0
  195.0560  170.1270  142.0840 C   0  0  1  0  0  0  0  0  0  0  0  0
  194.8220  169.7840  140.6300 C   0  0  2  0  0  3  0  0  0  0  0  0
  194.0240  170.9260  142.8700 C   0  0  0  0  0  2  0  0  0  0  0  0
  194.6630  172.0950  143.5960 C   0  0  1  0  0  3  0  0  0  0  0  0
  193.9480  173.3720  143.2060 C   0  0  0  0  0  2  0  0  0  0  0  0
  194.5620  173.9560  142.1010 O   0  0  0  0  0  1  0  0  0  0  0  0
  194.5970  171.8440  145.1030 C   0  0  2  0  0  3  0  0  0  0  0  0
  193.8160  172.8000  145.7580 O   0  0  0  0  0  1  0  0  0  0  0  0
  195.9790  171.6960  145.7540 C   0  0  0  0  0  2  0  0  0  0  0  0
  197.1580  173.8000  145.6300 N   0  0  0  0  0  2  0  0  0  0  0  0
  197.0220  172.6090  145.1780 C   0  0  0  0  0  3  0  0  0  0  0  0
  188.4130  177.6220  141.2580 C   0  0  0  0  0  2  0  0  0  0  0  0
  186.1230  177.9060  142.3680 N   0  0  0  0  0  0  0  0  0  0  0  0
  186.3870  177.8910  140.0370 O   0  0  0  0  0  0  0  0  0  0  0  0
  186.9300  177.8180  141.1750 C   0  0  0  0  0  0  0  0  0  0  0  0
  184.0180  178.7610  143.3640 C   0  0  0  0  0  3  0  0  0  0  0  0
  181.9650  178.7480  142.0820 C   0  0  0  0  0  0  0  0  0  0  0  0
  182.6530  179.0390  143.2670 C   0  0  0  0  0  3  0  0  0  0  0  0
  184.7060  178.1840  142.2840 C   0  0  0  0  0  0  0  0  0  0  0  0
  182.6420  178.1890  141.0010 C   0  0  0  0  0  3  0  0  0  0  0  0
  184.0050  177.9120  141.0960 C   0  0  0  0  0  3  0  0  0  0  0  0
  179.4170  179.1830  141.9150 N   0  0  0  0  0  0  0  0  0  0  0  0
  180.5510  178.9880  141.9920 C   0  0  0  0  0  0  0  0  0  0  0  0
  186.7690  177.8310  143.6460 C   0  0  0  0  0  3  0  0  0  0  0  0
  186.4880  176.8400  144.4850 C   0  0  0  0  0  3  0  0  0  0  0  0
  187.0180  176.7680  145.8430 C   0  0  0  0  0  0  0  0  0  0  0  0
  188.0900  175.8770  146.1670 N   0  0  0  0  0  2  0  0  0  0  0  0
  186.5940  177.5880  146.7000 O   0  0  0  0  0  0  0  0  0  0  0  0
  191.2700  176.6800  148.7620 N   0  0  0  0  0  2  0  0  0  0  0  0
  191.1780  175.2750  148.3400 C   0  0  0  0  0  2  0  0  0  0  0  0
  189.6910  177.5200  147.0750 C   0  0  0  0  0  2  0  0  0  0  0  0
  189.0370  176.1410  147.2470 C   0  0  0  0  0  3  0  0  0  0  0  0
  190.0740  175.0140  147.3090 C   0  0  0  0  0  2  0  0  0  0  0  0
  191.1310  177.5670  147.6160 C   0  0  0  0  0  2  0  0  0  0  0  0
  1  8  1  0  0  0  0
  2  1  1  0  0  0  0
  3  4  1  0  0  0  0
  4  1  2  0  0  0  0
  5  6  1  0  0  0  0
  5  3  2  0  0  0  0
  6 40  1  6  0  0  0
  6  2  1  0  0  0  0
  7  8  1  0  0  0  0
  9  5  1  0  0  0  0
 10 19  1  0  0  0  0
 10 15  1  0  0  0  0
 11 12  2  0  0  0  0
 11 20  1  0  0  0  0
 12 19  1  0  0  0  0
 13 14  1  0  0  0  0
 14  9  1  0  0  0  0
 15 16  2  0  0  0  0
 17 11  1  0  0  0  0
 18 22  2  0  0  0  0
 18 21  1  0  0  0  0
 19 13  2  0  0  0  0
 20 14  2  0  0  0  0
 21 10  1  0  0  0  0
 22 12  1  0  0  0  0
 23 17  1  0  0  0  0
 23 22  1  0  0  0  0
 25 24  1  1  0  0  0
 25 15  1  0  0  0  0
 25 26  1  0  0  0  0
 27 29  1  0  0  0  0
 29 28  1  1  0  0  0
 29 31  1  0  0  0  0
 30 26  1  1  0  0  0
 30 27  1  0  0  0  0
 30 29  1  0  0  0  0
 32 31  1  6  0  0  0
 32 35  1  0  0  0  0
 33 32  1  0  0  0  0
 34 33  1  0  0  0  0
 35 37  1  0  0  0  0
 35 36  1  1  0  0  0
 39 38  2  0  0  0  0
 39 37  1  0  0  0  0
 41 52  1  0  0  0  0
 42 43  2  0  0  0  0
 43 40  1  0  0  0  0
 43 41  1  0  0  0  0
 45 46  2  0  0  0  0
 46 44  1  0  0  0  0
 47 41  1  0  0  0  0
 47 44  2  0  0  0  0
 48 49  2  0  0  0  0
 48 45  1  0  0  0  0
 49 47  1  0  0  0  0
 50 51  3  0  0  0  0
 51 45  1  0  0  0  0
 52 53  2  0  0  0  0
 53 54  1  0  0  0  0
 54 55  1  0  0  0  0
 54 56  2  0  0  0  0
 55 60  1  0  0  0  0
 58 57  1  0  0  0  0
 59 60  1  0  0  0  0
 59 62  1  0  0  0  0
 60 61  1  0  0  0  0
 61 58  1  0  0  0  0
 62 57  1  0  0  0  0
M  END
>  <MODEL>
7

>  <REMARK>
 VINA RESULT:      -4.5      2.350      5.467
  Name = 
  19 active torsions:
  status: ('A' for Active; 'I' for Inactive)
    1  A    between atoms: C_2  and  C_16
    2  A    between atoms: C_2  and  C_57
    3  A    between atoms: N_4  and  C_7
    4  A    between atoms: N_4  and  C_49
    5  A    between atoms: C_8  and  O_51
    6  A    between atoms: C_9  and  C_34
    7  A    between atoms: C_11  and  C_17
    8  A    between atoms: C_14  and  C_23
    9  A    between atoms: C_15  and  C_23
   10  A    between atoms: C_15  and  C_34
   11  A    between atoms: C_16  and  C_29
   12  A    between atoms: C_23  and  C_30
   13  A    between atoms: C_27  and  C_56
   14  A    between atoms: N_28  and  C_32
   15  A    between atoms: C_30  and  C_50
   16  A    between atoms: C_37  and  C_41
   17  A    between atoms: C_40  and  C_56
   18  A    between atoms: C_48  and  C_52
   19  A    between atoms: C_52  and  C_59
                            x       y       z     vdW  Elec       q    Type
                         _______ _______ _______ _____ _____    ______ ____

>  <TORSDO>
F 19

$$$$
=
 OpenBabel11062423003D

 62 68  0  0  1  0  0  0  0  0999 V2000
  189.4630  172.9110  143.3220 C   0  0  0  0  0  0  0  0  0  0  0  0
  189.2180  174.3850  143.1330 C   0  0  0  0  0  2  0  0  0  0  0  0
  189.3390  172.6170  140.8880 C   0  0  0  0  0  3  0  0  0  0  0  0
  189.5480  172.1020  142.2570 C   0  0  0  0  0  3  0  0  0  0  0  0
  188.8670  173.8520  140.6890 C   0  0  0  0  0  0  0  0  0  0  0  0
  188.4110  174.6900  141.8650 C   0  0  2  0  0  3  0  0  0  0  0  0
  189.6690  173.2960  145.7660 C   0  0  0  0  0  1  0  0  0  0  0  0
  189.6870  172.4460  144.6210 O   0  0  0  0  0  0  0  0  0  0  0  0
  188.7170  174.3380  139.2790 C   0  0  0  0  0  2  0  0  0  0  0  0
  193.1540  173.3010  137.0210 N   0  0  0  0  0  0  0  0  0  0  0  0
  189.7230  172.0930  136.4130 C   0  0  0  0  0  0  0  0  0  0  0  0
  191.0620  172.2770  136.4330 C   0  0  0  0  0  0  0  0  0  0  0  0
  190.9750  173.7920  138.2350 C   0  0  0  0  0  3  0  0  0  0  0  0
  189.5680  173.5900  138.3030 C   0  0  0  0  0  0  0  0  0  0  0  0
  193.9730  174.1680  137.8330 C   0  0  0  0  0  0  0  0  0  0  0  0
  193.4470  175.0380  138.5700 O   0  0  0  0  0  0  0  0  0  0  0  0
  189.3660  171.2990  135.1820 C   0  0  0  0  0  2  0  0  0  0  0  0
  192.8920  171.8190  135.0300 N   0  0  0  0  0  0  0  0  0  0  0  0
  191.7380  173.1190  137.2690 C   0  0  0  0  0  0  0  0  0  0  0  0
  188.9280  172.7490  137.3550 C   0  0  0  0  0  3  0  0  0  0  0  0
  193.8240  172.4290  136.0130 C   0  0  0  0  0  2  0  0  0  0  0  0
  191.6310  171.7180  135.2940 C   0  0  0  0  0  0  0  0  0  0  0  0
  190.6360  171.1410  134.5130 O   0  0  0  0  0  0  0  0  0  0  0  0
  196.0790  175.1840  137.0050 C   0  0  0  0  0  1  0  0  0  0  0  0
  195.4700  174.0440  137.7900 C   0  0  1  0  0  3  0  0  0  0  0  0
  196.1460  173.9440  139.1640 C   0  0  0  0  0  2  0  0  0  0  0  0
  197.5230  175.0180  140.9230 C   0  0  0  0  0  2  0  0  0  0  0  0
  196.0400  176.7860  141.6830 O   0  0  0  0  0  1  0  0  0  0  0  0
  196.1230  175.4530  141.2810 C   0  0  1  0  0  0  0  0  0  0  0  0
  196.4940  175.2840  139.8250 C   0  0  2  0  0  3  0  0  0  0  0  0
  195.2360  174.4310  141.9820 C   0  0  0  0  0  2  0  0  0  0  0  0
  194.6380  174.9970  143.2560 C   0  0  1  0  0  3  0  0  0  0  0  0
  193.1680  174.6350  143.3190 C   0  0  0  0  0  2  0  0  0  0  0  0
  192.7480  174.5380  144.6430 O   0  0  0  0  0  1  0  0  0  0  0  0
  195.4100  174.4480  144.4570 C   0  0  2  0  0  3  0  0  0  0  0  0
  196.4260  175.3180  144.8670 O   0  0  0  0  0  1  0  0  0  0  0  0
  195.9350  173.0230  144.2410 C   0  0  0  0  0  2  0  0  0  0  0  0
  196.6740  171.3510  145.8200 N   0  0  0  0  0  2  0  0  0  0  0  0
  196.8270  172.5310  145.3440 C   0  0  0  0  0  3  0  0  0  0  0  0
  188.4800  176.1810  141.5820 C   0  0  0  0  0  2  0  0  0  0  0  0
  186.1430  176.9600  142.2820 N   0  0  0  0  0  0  0  0  0  0  0  0
  186.8560  177.0020  140.0470 O   0  0  0  0  0  0  0  0  0  0  0  0
  187.1290  176.7390  141.2510 C   0  0  0  0  0  0  0  0  0  0  0  0
  184.4200  177.6670  140.6430 C   0  0  0  0  0  3  0  0  0  0  0  0
  182.3930  178.7570  141.3940 C   0  0  0  0  0  0  0  0  0  0  0  0
  183.1860  178.2540  140.3540 C   0  0  0  0  0  3  0  0  0  0  0  0
  184.8740  177.5810  141.9700 C   0  0  0  0  0  0  0  0  0  0  0  0
  182.8290  178.6640  142.7120 C   0  0  0  0  0  3  0  0  0  0  0  0
  184.0600  178.0760  143.0030 C   0  0  0  0  0  3  0  0  0  0  0  0
  180.1410  179.9250  140.8670 N   0  0  0  0  0  0  0  0  0  0  0  0
  181.1450  179.4050  141.0990 C   0  0  0  0  0  0  0  0  0  0  0  0
  186.4850  176.6620  143.6420 C   0  0  0  0  0  3  0  0  0  0  0  0
  186.8760  177.6290  144.4650 C   0  0  0  0  0  3  0  0  0  0  0  0
  187.3510  177.3790  145.8220 C   0  0  0  0  0  0  0  0  0  0  0  0
  188.5000  176.5610  146.0610 N   0  0  0  0  0  2  0  0  0  0  0  0
  186.8000  177.9940  146.7750 O   0  0  0  0  0  0  0  0  0  0  0  0
  191.2400  177.5790  149.0520 N   0  0  0  0  0  2  0  0  0  0  0  0
  191.8090  176.7670  147.9660 C   0  0  0  0  0  2  0  0  0  0  0  0
  189.1600  178.1170  147.8580 C   0  0  0  0  0  2  0  0  0  0  0  0
  189.3630  176.7320  147.2270 C   0  0  0  0  0  3  0  0  0  0  0  0
  190.8230  176.4900  146.8260 C   0  0  0  0  0  2  0  0  0  0  0  0
  190.4400  178.6670  148.5110 C   0  0  0  0  0  2  0  0  0  0  0  0
  1  8  1  0  0  0  0
  2  1  1  0  0  0  0
  3  4  1  0  0  0  0
  4  1  2  0  0  0  0
  5  3  2  0  0  0  0
  5  6  1  0  0  0  0
  6 40  1  6  0  0  0
  6  2  1  0  0  0  0
  8  7  1  0  0  0  0
  9  5  1  0  0  0  0
 10 19  1  0  0  0  0
 10 15  1  0  0  0  0
 11 12  2  0  0  0  0
 11 20  1  0  0  0  0
 12 19  1  0  0  0  0
 13 14  1  0  0  0  0
 14  9  1  0  0  0  0
 15 16  2  0  0  0  0
 17 11  1  0  0  0  0
 18 22  2  0  0  0  0
 18 21  1  0  0  0  0
 19 13  2  0  0  0  0
 20 14  2  0  0  0  0
 21 10  1  0  0  0  0
 22 12  1  0  0  0  0
 23 17  1  0  0  0  0
 23 22  1  0  0  0  0
 25 24  1  1  0  0  0
 25 15  1  0  0  0  0
 25 26  1  0  0  0  0
 27 29  1  0  0  0  0
 29 28  1  1  0  0  0
 29 31  1  0  0  0  0
 30 26  1  1  0  0  0
 30 27  1  0  0  0  0
 30 29  1  0  0  0  0
 32 31  1  6  0  0  0
 32 33  1  0  0  0  0
 32 35  1  0  0  0  0
 33 34  1  0  0  0  0
 35 36  1  6  0  0  0
 37 35  1  0  0  0  0
 37 39  1  0  0  0  0
 39 38  2  0  0  0  0
 41 52  1  0  0  0  0
 42 43  2  0  0  0  0
 43 40  1  0  0  0  0
 43 41  1  0  0  0  0
 44 47  1  0  0  0  0
 45 48  2  0  0  0  0
 46 44  2  0  0  0  0
 46 45  1  0  0  0  0
 47 41  1  0  0  0  0
 47 49  2  0  0  0  0
 48 49  1  0  0  0  0
 50 51  3  0  0  0  0
 51 45  1  0  0  0  0
 52 53  2  0  0  0  0
 53 54  1  0  0  0  0
 54 55  1  0  0  0  0
 54 56  2  0  0  0  0
 55 60  1  0  0  0  0
 58 57  1  0  0  0  0
 59 62  1  0  0  0  0
 60 59  1  0  0  0  0
 61 60  1  0  0  0  0
 61 58  1  0  0  0  0
 62 57  1  0  0  0  0
M  END
>  <MODEL>
8

>  <REMARK>
 VINA RESULT:      -4.3      2.426      5.323
  Name = 
  19 active torsions:
  status: ('A' for Active; 'I' for Inactive)
    1  A    between atoms: C_2  and  C_16
    2  A    between atoms: C_2  and  C_57
    3  A    between atoms: N_4  and  C_7
    4  A    between atoms: N_4  and  C_49
    5  A    between atoms: C_8  and  O_51
    6  A    between atoms: C_9  and  C_34
    7  A    between atoms: C_11  and  C_17
    8  A    between atoms: C_14  and  C_23
    9  A    between atoms: C_15  and  C_23
   10  A    between atoms: C_15  and  C_34
   11  A    between atoms: C_16  and  C_29
   12  A    between atoms: C_23  and  C_30
   13  A    between atoms: C_27  and  C_56
   14  A    between atoms: N_28  and  C_32
   15  A    between atoms: C_30  and  C_50
   16  A    between atoms: C_37  and  C_41
   17  A    between atoms: C_40  and  C_56
   18  A    between atoms: C_48  and  C_52
   19  A    between atoms: C_52  and  C_59
                            x       y       z     vdW  Elec       q    Type
                         _______ _______ _______ _____ _____    ______ ____

>  <TORSDO>
F 19

$$$$
=
 OpenBabel11062423003D

 62 68  0  0  1  0  0  0  0  0999 V2000
  188.1780  173.8410  138.0850 C   0  0  0  0  0  0  0  0  0  0  0  0
  188.4730  174.5280  139.3920 C   0  0  0  0  0  2  0  0  0  0  0  0
  188.8660  171.7110  139.0950 C   0  0  0  0  0  3  0  0  0  0  0  0
  188.3380  172.5140  137.9720 C   0  0  0  0  0  3  0  0  0  0  0  0
  189.3830  172.3060  140.1750 C   0  0  0  0  0  0  0  0  0  0  0  0
  189.5580  173.8100  140.2050 C   0  0  2  0  0  3  0  0  0  0  0  0
  188.4660  175.3370  136.1260 C   0  0  0  0  0  1  0  0  0  0  0  0
  187.6520  174.6110  137.0440 O   0  0  0  0  0  0  0  0  0  0  0  0
  189.8630  171.4420  141.3020 C   0  0  0  0  0  2  0  0  0  0  0  0
  193.9390  170.4770  138.4190 N   0  0  0  0  0  0  0  0  0  0  0  0
  193.1140  169.6170  141.9090 C   0  0  0  0  0  0  0  0  0  0  0  0
  193.7270  169.8340  140.7230 C   0  0  0  0  0  0  0  0  0  0  0  0
  191.9140  171.0550  139.8420 C   0  0  0  0  0  3  0  0  0  0  0  0
  191.2460  170.9120  141.0900 C   0  0  0  0  0  0  0  0  0  0  0  0
  193.4700  171.1340  137.2230 C   0  0  0  0  0  0  0  0  0  0  0  0
  192.2650  171.4660  137.1070 O   0  0  0  0  0  0  0  0  0  0  0  0
  193.9370  168.6330  142.7000 C   0  0  0  0  0  2  0  0  0  0  0  0
  195.5970  169.0040  139.5650 N   0  0  0  0  0  0  0  0  0  0  0  0
  193.1880  170.4950  139.6560 C   0  0  0  0  0  0  0  0  0  0  0  0
  191.8450  170.1540  142.1310 C   0  0  0  0  0  3  0  0  0  0  0  0
  195.3230  169.9200  138.4270 C   0  0  0  0  0  2  0  0  0  0  0  0
  194.8660  169.0420  140.6300 C   0  0  0  0  0  0  0  0  0  0  0  0
  195.0080  168.2940  141.7930 O   0  0  0  0  0  0  0  0  0  0  0  0
  193.7680  171.1450  134.7600 C   0  0  0  0  0  1  0  0  0  0  0  0
  194.4240  171.4150  136.0960 C   0  0  1  0  0  3  0  0  0  0  0  0
  195.0260  172.8260  136.1000 C   0  0  0  0  0  2  0  0  0  0  0  0
  194.5300  175.2510  136.2250 C   0  0  0  0  0  2  0  0  0  0  0  0
  194.1980  175.5530  138.6130 O   0  0  0  0  0  1  0  0  0  0  0  0
  194.9670  174.9270  137.6310 C   0  0  1  0  0  0  0  0  0  0  0  0
  194.2030  173.8900  136.8380 C   0  0  2  0  0  3  0  0  0  0  0  0
  196.4630  174.7720  137.8760 C   0  0  0  0  0  2  0  0  0  0  0  0
  196.7470  173.7020  138.9130 C   0  0  1  0  0  3  0  0  0  0  0  0
  197.9060  172.8470  138.4400 C   0  0  0  0  0  2  0  0  0  0  0  0
  197.4630  171.5700  138.1060 O   0  0  0  0  0  1  0  0  0  0  0  0
  197.0470  174.3720  140.2540 C   0  0  2  0  0  3  0  0  0  0  0  0
  196.2840  173.8280  141.2920 O   0  0  0  0  0  1  0  0  0  0  0  0
  196.9340  175.9020  140.2060 C   0  0  0  0  0  2  0  0  0  0  0  0
  196.9700  176.3220  142.5850 N   0  0  0  0  0  2  0  0  0  0  0  0
  196.3790  176.5080  141.4630 C   0  0  0  0  0  3  0  0  0  0  0  0
  189.5700  174.3690  141.6160 C   0  0  0  0  0  2  0  0  0  0  0  0
  191.1450  174.5300  143.6300 N   0  0  0  0  0  0  0  0  0  0  0  0
  191.9270  174.0720  141.4660 O   0  0  0  0  0  0  0  0  0  0  0  0
  190.9410  174.3080  142.2180 C   0  0  0  0  0  0  0  0  0  0  0  0
  193.1570  173.1690  144.1260 C   0  0  0  0  0  3  0  0  0  0  0  0
  195.0170  174.1330  145.3390 C   0  0  0  0  0  0  0  0  0  0  0  0
  194.4310  173.0410  144.6850 C   0  0  0  0  0  3  0  0  0  0  0  0
  192.4570  174.3830  144.2190 C   0  0  0  0  0  0  0  0  0  0  0  0
  194.3350  175.3440  145.4250 C   0  0  0  0  0  3  0  0  0  0  0  0
  193.0650  175.4730  144.8650 C   0  0  0  0  0  3  0  0  0  0  0  0
  197.3420  173.8780  146.4540 N   0  0  0  0  0  0  0  0  0  0  0  0
  196.3060  173.9940  145.9590 C   0  0  0  0  0  0  0  0  0  0  0  0
  190.0040  174.7850  144.4610 C   0  0  0  0  0  3  0  0  0  0  0  0
  189.7870  176.0000  144.9520 C   0  0  0  0  0  3  0  0  0  0  0  0
  188.7150  176.3000  145.8960 C   0  0  0  0  0  0  0  0  0  0  0  0
  187.8360  177.4090  145.6830 N   0  0  0  0  0  2  0  0  0  0  0  0
  188.5040  175.4960  146.8430 O   0  0  0  0  0  0  0  0  0  0  0  0
  183.9090  178.1450  146.9190 N   0  0  0  0  0  2  0  0  0  0  0  0
  184.9340  178.5750  147.8810 C   0  0  0  0  0  2  0  0  0  0  0  0
  185.4820  177.8070  145.0600 C   0  0  0  0  0  2  0  0  0  0  0  0
  186.4640  177.4360  146.1810 C   0  0  0  0  0  3  0  0  0  0  0  0
  186.3690  178.3960  147.3720 C   0  0  0  0  0  2  0  0  0  0  0  0
  184.2560  178.5820  145.5750 C   0  0  0  0  0  2  0  0  0  0  0  0
  1  2  1  0  0  0  0
  2  6  1  0  0  0  0
  3  5  2  0  0  0  0
  4  1  2  0  0  0  0
  4  3  1  0  0  0  0
  5  6  1  0  0  0  0
  5  9  1  0  0  0  0
  6 40  1  1  0  0  0
  7  8  1  0  0  0  0
  8  1  1  0  0  0  0
 10 21  1  0  0  0  0
 10 19  1  0  0  0  0
 11 20  1  0  0  0  0
 11 17  1  0  0  0  0
 12 11  2  0  0  0  0
 13 14  1  0  0  0  0
 14  9  1  0  0  0  0
 14 20  2  0  0  0  0
 15 10  1  0  0  0  0
 16 15  2  0  0  0  0
 18 22  2  0  0  0  0
 19 13  2  0  0  0  0
 19 12  1  0  0  0  0
 21 18  1  0  0  0  0
 22 12  1  0  0  0  0
 22 23  1  0  0  0  0
 23 17  1  0  0  0  0
 25 24  1  6  0  0  0
 25 26  1  0  0  0  0
 25 15  1  0  0  0  0
 27 30  1  0  0  0  0
 27 29  1  0  0  0  0
 29 31  1  0  0  0  0
 29 28  1  1  0  0  0
 30 26  1  6  0  0  0
 30 29  1  0  0  0  0
 32 31  1  6  0  0  0
 32 35  1  0  0  0  0
 33 32  1  0  0  0  0
 34 33  1  0  0  0  0
 35 36  1  1  0  0  0
 37 35  1  0  0  0  0
 37 39  1  0  0  0  0
 39 38  2  0  0  0  0
 40 43  1  0  0  0  0
 41 47  1  0  0  0  0
 41 52  1  0  0  0  0
 42 43  2  0  0  0  0
 43 41  1  0  0  0  0
 44 47  2  0  0  0  0
 44 46  1  0  0  0  0
 45 48  1  0  0  0  0
 45 51  1  0  0  0  0
 46 45  2  0  0  0  0
 47 49  1  0  0  0  0
 49 48  2  0  0  0  0
 51 50  3  0  0  0  0
 52 53  2  0  0  0  0
 53 54  1  0  0  0  0
 54 56  2  0  0  0  0
 55 54  1  0  0  0  0
 55 60  1  0  0  0  0
 57 58  1  0  0  0  0
 59 62  1  0  0  0  0
 59 60  1  0  0  0  0
 60 61  1  0  0  0  0
 61 58  1  0  0  0  0
 62 57  1  0  0  0  0
M  END
>  <MODEL>
9

>  <REMARK>
 VINA RESULT:      -4.0      2.735      7.846
  Name = 
  19 active torsions:
  status: ('A' for Active; 'I' for Inactive)
    1  A    between atoms: C_2  and  C_16
    2  A    between atoms: C_2  and  C_57
    3  A    between atoms: N_4  and  C_7
    4  A    between atoms: N_4  and  C_49
    5  A    between atoms: C_8  and  O_51
    6  A    between atoms: C_9  and  C_34
    7  A    between atoms: C_11  and  C_17
    8  A    between atoms: C_14  and  C_23
    9  A    between atoms: C_15  and  C_23
   10  A    between atoms: C_15  and  C_34
   11  A    between atoms: C_16  and  C_29
   12  A    between atoms: C_23  and  C_30
   13  A    between atoms: C_27  and  C_56
   14  A    between atoms: N_28  and  C_32
   15  A    between atoms: C_30  and  C_50
   16  A    between atoms: C_37  and  C_41
   17  A    between atoms: C_40  and  C_56
   18  A    between atoms: C_48  and  C_52
   19  A    between atoms: C_52  and  C_59
                            x       y       z     vdW  Elec       q    Type
                         _______ _______ _______ _____ _____    ______ ____

>  <TORSDO>
F 19

$$$$
