=
 OpenBabel11072409073D

 47 53  0  0  1  0  0  0  0  0999 V2000
  195.2570  175.9970  143.1340 C   0  0  0  0  0  2  0  0  0  0  0  0
  184.0740  178.2660  146.3170 C   0  0  0  0  0  2  0  0  0  0  0  0
  188.1710  177.5050  145.4130 C   0  0  1  0  0  3  0  0  0  0  0  0
  194.4300  174.8560  141.0810 C   0  0  0  0  0  0  0  0  0  0  0  0
  186.6550  177.4710  145.5540 C   0  0  1  0  0  3  0  0  0  0  0  0
  188.5840  177.6690  146.8340 C   0  0  0  0  0  0  0  0  0  0  0  0
  197.5900  175.8350  143.4270 O   0  0  0  0  0  0  0  0  0  0  0  0
  184.5760  178.9230  145.0230 C   0  0  0  0  0  2  0  0  0  0  0  0
  192.9670  174.7160  143.0720 C   0  0  1  0  0  0  0  0  0  0  0  0
  195.9030  174.7610  139.0190 C   0  0  0  0  0  1  0  0  0  0  0  0
  192.5430  175.5510  144.2730 C   0  0  0  0  0  2  0  0  0  0  0  0
  195.6570  175.4010  140.3750 C   0  0  2  0  0  3  0  0  0  0  0  0
  191.8880  176.5330  146.7970 O   0  0  0  0  0  0  0  0  0  0  0  0
  189.7490  177.3120  147.2840 N   0  0  0  0  0  0  0  0  0  0  0  0
  191.0500  175.6640  144.1450 C   0  0  0  0  0  0  0  0  0  0  0  0
  188.7430  176.2110  144.8460 C   0  0  0  0  0  2  0  0  0  0  0  0
  196.9110  175.2640  141.2420 C   0  0  0  0  0  2  0  0  0  0  0  0
  193.0650  173.2540  143.4930 C   0  0  0  0  0  1  0  0  0  0  0  0
  190.6980  176.6800  146.4110 C   0  0  0  0  0  0  0  0  0  0  0  0
  191.9370  174.1650  140.7490 C   0  0  1  0  0  3  0  0  0  0  0  0
  187.5130  178.0450  147.6760 N   0  0  0  0  0  2  0  0  0  0  0  0
  186.4420  177.9550  146.9600 C   0  0  1  0  0  3  0  0  0  0  0  0
  185.1000  178.3970  147.4460 C   0  0  0  0  0  2  0  0  0  0  0  0
  190.5540  175.1640  142.8270 C   0  0  0  0  0  2  0  0  0  0  0  0
  196.6530  175.7020  142.6590 C   0  0  0  0  0  0  0  0  0  0  0  0
  191.8440  174.9400  142.0780 C   0  0  1  0  0  3  0  0  0  0  0  0
  194.2450  175.1520  142.3960 C   0  0  0  0  0  0  0  0  0  0  0  0
  190.2330  176.1730  145.0850 C   0  0  0  0  0  0  0  0  0  0  0  0
  193.4240  173.9790  140.3410 C   0  0  0  0  0  2  0  0  0  0  0  0
  185.9630  178.4160  144.5620 C   0  0  2  0  0  3  0  0  0  0  0  0
  192.1530  171.6830  140.3370 C   0  0  0  0  0  2  0  0  0  0  0  0
  188.8690  172.4860  140.5310 O   0  0  0  0  0  1  0  0  0  0  0  0
  191.3510  170.7840  139.4230 C   0  0  0  0  0  2  0  0  0  0  0  0
  190.2820  171.6650  138.8090 C   0  0  1  0  0  3  0  0  0  0  0  0
  190.0320  172.7690  139.8150 C   0  0  2  0  0  3  0  0  0  0  0  0
  191.2170  172.8040  140.7750 C   0  0  2  0  0  3  0  0  0  0  0  0
  190.7770  172.2770  137.5060 C   0  0  0  0  0  2  0  0  0  0  0  0
  189.0590  173.6960  136.6600 O   0  0  0  0  0  1  0  0  0  0  0  0
  189.2240  171.6390  135.6630 O   0  0  0  0  0  0  0  0  0  0  0  0
  189.6350  172.5790  136.5980 C   0  0  0  0  0  0  0  0  0  0  0  0
  185.9010  177.8190  143.1580 C   0  0  0  0  0  2  0  0  0  0  0  0
  186.6690  178.6590  142.1440 C   0  0  0  0  0  2  0  0  0  0  0  0
  187.8580  177.8830  141.6010 C   0  0  0  0  0  2  0  0  0  0  0  0
  187.7440  175.6440  140.8010 O   0  0  0  0  0  0  0  0  0  0  0  0
  187.4130  176.8480  140.6260 C   0  0  0  0  0  0  0  0  0  0  0  0
  186.6110  177.2190  139.5460 O   0  0  0  0  0  0  0  0  0  0  0  0
  186.6050  176.4860  138.3310 C   0  0  0  0  0  1  0  0  0  0  0  0
  2 23  1  0  0  0  0
  3 16  1  1  0  0  0
  3  5  1  0  0  0  0
  3  6  1  0  0  0  0
  4 27  2  0  0  0  0
  5 22  1  0  0  0  0
  6 14  2  0  0  0  0
  6 21  1  0  0  0  0
  8  2  1  0  0  0  0
  9 18  1  0  0  0  0
  9 11  1  0  0  0  0
 10 12  1  0  0  0  0
 12  4  1  0  0  0  0
 12 17  1  0  0  0  0
 15 11  1  0  0  0  0
 15 28  2  0  0  0  0
 16 28  1  0  0  0  0
 17 25  1  0  0  0  0
 19 13  2  0  0  0  0
 19 14  1  0  0  0  0
 20 36  1  0  0  0  0
 20 26  1  0  0  0  0
 22 23  1  0  0  0  0
 22 21  1  0  0  0  0
 24 15  1  0  0  0  0
 25  1  1  0  0  0  0
 25  7  2  0  0  0  0
 26 24  1  0  0  0  0
 26  9  1  0  0  0  0
 27  9  1  0  0  0  0
 27  1  1  0  0  0  0
 28 19  1  0  0  0  0
 29 20  1  0  0  0  0
 29  4  1  0  0  0  0
 30  8  1  0  0  0  0
 30  5  1  0  0  0  0
 31 36  1  0  0  0  0
 33 31  1  0  0  0  0
 34 33  1  0  0  0  0
 34 35  1  0  0  0  0
 35 32  1  0  0  0  0
 35 36  1  0  0  0  0
 37 34  1  0  0  0  0
 39 40  2  0  0  0  0
 40 38  1  0  0  0  0
 40 37  1  0  0  0  0
 41 30  1  0  0  0  0
 42 41  1  0  0  0  0
 43 42  1  0  0  0  0
 45 44  2  0  0  0  0
 45 43  1  0  0  0  0
 46 45  1  0  0  0  0
 47 46  1  0  0  0  0
M  END
>  <MODEL>
1

>  <REMARK>
 VINA RESULT:      -8.8      0.000      0.000
  Name = 
  8 active torsions:
  status: ('A' for Active; 'I' for Inactive)
    1  A    between atoms: O_4  and  C_24
    2  A    between atoms: C_11  and  C_15
    3  A    between atoms: C_11  and  C_36
    4  A    between atoms: C_15  and  C_24
    5  A    between atoms: C_21  and  C_38
    6  A    between atoms: C_21  and  C_41
    7  A    between atoms: C_31  and  C_43
    8  A    between atoms: C_36  and  C_47
                            x       y       z     vdW  Elec       q    Type
                         _______ _______ _______ _____ _____    ______ ____

>  <TORSDO>
F 8

$$$$
=
 OpenBabel11072409073D

 47 53  0  0  1  0  0  0  0  0999 V2000
  194.8770  174.5770  145.4620 C   0  0  0  0  0  2  0  0  0  0  0  0
  183.8340  178.8170  144.8310 C   0  0  0  0  0  2  0  0  0  0  0  0
  187.7760  177.2660  145.3130 C   0  0  1  0  0  3  0  0  0  0  0  0
  194.8730  174.2280  142.9960 C   0  0  0  0  0  0  0  0  0  0  0  0
  186.3580  177.5920  144.8620 C   0  0  1  0  0  3  0  0  0  0  0  0
  187.5530  176.9640  146.7540 C   0  0  0  0  0  0  0  0  0  0  0  0
  196.8090  173.7500  146.5270 O   0  0  0  0  0  0  0  0  0  0  0  0
  184.9280  179.6180  144.1110 C   0  0  0  0  0  2  0  0  0  0  0  0
  192.6890  173.9890  144.1360 C   0  0  1  0  0  0  0  0  0  0  0  0
  197.0640  174.2610  141.7210 C   0  0  0  0  0  1  0  0  0  0  0  0
  191.9050  174.5850  145.2980 C   0  0  0  0  0  2  0  0  0  0  0  0
  196.3450  174.5920  143.0180 C   0  0  2  0  0  3  0  0  0  0  0  0
  190.3630  175.0560  147.5710 O   0  0  0  0  0  0  0  0  0  0  0  0
  188.3500  176.2180  147.4580 N   0  0  0  0  0  0  0  0  0  0  0  0
  190.6440  175.1090  144.6710 C   0  0  0  0  0  0  0  0  0  0  0  0
  188.3570  176.0470  144.6050 C   0  0  0  0  0  2  0  0  0  0  0  0
  197.0700  173.9270  144.1900 C   0  0  0  0  0  2  0  0  0  0  0  0
  192.3980  172.4950  144.0560 C   0  0  0  0  0  1  0  0  0  0  0  0
  189.4890  175.5960  146.8430 C   0  0  0  0  0  0  0  0  0  0  0  0
  192.7000  174.3100  141.5570 C   0  0  1  0  0  3  0  0  0  0  0  0
  186.2840  177.3870  147.2120 N   0  0  0  0  0  2  0  0  0  0  0  0
  185.6260  177.7560  146.1640 C   0  0  1  0  0  3  0  0  0  0  0  0
  184.2790  178.3980  146.2340 C   0  0  0  0  0  2  0  0  0  0  0  0
  190.7030  175.0930  143.1780 C   0  0  0  0  0  2  0  0  0  0  0  0
  196.2880  174.0560  145.4700 C   0  0  0  0  0  0  0  0  0  0  0  0
  192.1480  174.7330  142.9320 C   0  0  1  0  0  3  0  0  0  0  0  0
  194.1800  174.2300  144.1680 C   0  0  0  0  0  0  0  0  0  0  0  0
  189.5780  175.5660  145.3530 C   0  0  0  0  0  0  0  0  0  0  0  0
  194.1770  173.8500  141.6910 C   0  0  0  0  0  2  0  0  0  0  0  0
  186.2960  178.8970  144.0560 C   0  0  2  0  0  3  0  0  0  0  0  0
  192.7500  172.0790  140.3740 C   0  0  0  0  0  2  0  0  0  0  0  0
  189.7660  173.5680  139.7890 O   0  0  0  0  0  1  0  0  0  0  0  0
  192.2540  171.7060  138.9950 C   0  0  0  0  0  2  0  0  0  0  0  0
  191.6170  172.9610  138.4320 C   0  0  1  0  0  3  0  0  0  0  0  0
  191.1390  173.7530  139.6320 C   0  0  2  0  0  3  0  0  0  0  0  0
  191.8640  173.2180  140.8630 C   0  0  2  0  0  3  0  0  0  0  0  0
  192.6430  173.7830  137.6640 C   0  0  0  0  0  2  0  0  0  0  0  0
  192.5530  175.8400  136.4630 O   0  0  0  0  0  1  0  0  0  0  0  0
  190.7060  174.4980  136.2660 O   0  0  0  0  0  0  0  0  0  0  0  0
  191.9680  174.7700  136.7750 C   0  0  0  0  0  0  0  0  0  0  0  0
  186.7670  178.6990  142.6180 C   0  0  0  0  0  2  0  0  0  0  0  0
  185.9420  177.6480  141.8840 C   0  0  0  0  0  2  0  0  0  0  0  0
  185.9320  177.9270  140.3900 C   0  0  0  0  0  2  0  0  0  0  0  0
  187.5440  176.1790  140.2620 O   0  0  0  0  0  0  0  0  0  0  0  0
  186.6880  176.8760  139.6520 C   0  0  0  0  0  0  0  0  0  0  0  0
  186.4190  176.6580  138.3000 O   0  0  0  0  0  0  0  0  0  0  0  0
  187.1180  175.6800  137.5460 C   0  0  0  0  0  1  0  0  0  0  0  0
  1 25  1  0  0  0  0
  2 23  1  0  0  0  0
  3 16  1  6  0  0  0
  3  6  1  0  0  0  0
  4 12  1  0  0  0  0
  4 27  2  0  0  0  0
  5  3  1  0  0  0  0
  5 22  1  0  0  0  0
  6 21  1  0  0  0  0
  6 14  2  0  0  0  0
  8  2  1  0  0  0  0
  9 27  1  0  0  0  0
  9 11  1  0  0  0  0
 10 12  1  0  0  0  0
 12 17  1  0  0  0  0
 15 11  1  0  0  0  0
 15 28  2  0  0  0  0
 16 28  1  0  0  0  0
 17 25  1  0  0  0  0
 18  9  1  0  0  0  0
 19 14  1  0  0  0  0
 19 13  2  0  0  0  0
 20 29  1  0  0  0  0
 20 26  1  0  0  0  0
 22 23  1  0  0  0  0
 22 21  1  0  0  0  0
 24 15  1  0  0  0  0
 25  7  2  0  0  0  0
 26 24  1  0  0  0  0
 26  9  1  0  0  0  0
 27  1  1  0  0  0  0
 28 19  1  0  0  0  0
 29  4  1  0  0  0  0
 30  8  1  0  0  0  0
 30  5  1  0  0  0  0
 31 36  1  0  0  0  0
 33 31  1  0  0  0  0
 34 33  1  0  0  0  0
 34 35  1  0  0  0  0
 35 32  1  0  0  0  0
 35 36  1  0  0  0  0
 36 20  1  0  0  0  0
 37 34  1  0  0  0  0
 38 40  1  0  0  0  0
 39 40  2  0  0  0  0
 40 37  1  0  0  0  0
 41 30  1  0  0  0  0
 42 41  1  0  0  0  0
 43 42  1  0  0  0  0
 45 44  2  0  0  0  0
 45 43  1  0  0  0  0
 46 45  1  0  0  0  0
 47 46  1  0  0  0  0
M  END
>  <MODEL>
2

>  <REMARK>
 VINA RESULT:      -8.5      1.661      1.921
  Name = 
  8 active torsions:
  status: ('A' for Active; 'I' for Inactive)
    1  A    between atoms: O_4  and  C_24
    2  A    between atoms: C_11  and  C_15
    3  A    between atoms: C_11  and  C_36
    4  A    between atoms: C_15  and  C_24
    5  A    between atoms: C_21  and  C_38
    6  A    between atoms: C_21  and  C_41
    7  A    between atoms: C_31  and  C_43
    8  A    between atoms: C_36  and  C_47
                            x       y       z     vdW  Elec       q    Type
                         _______ _______ _______ _____ _____    ______ ____

>  <TORSDO>
F 8

$$$$
=
 OpenBabel11072409073D

 47 53  0  0  1  0  0  0  0  0999 V2000
  195.2600  175.3540  143.8060 C   0  0  0  0  0  2  0  0  0  0  0  0
  184.0740  178.7390  145.7410 C   0  0  0  0  0  2  0  0  0  0  0  0
  188.1400  177.5330  145.2990 C   0  0  1  0  0  3  0  0  0  0  0  0
  194.6300  174.6200  141.5110 C   0  0  0  0  0  0  0  0  0  0  0  0
  186.6280  177.6940  145.2250 C   0  0  1  0  0  3  0  0  0  0  0  0
  188.3450  177.4490  146.7720 C   0  0  0  0  0  0  0  0  0  0  0  0
  197.4830  174.8270  144.3870 O   0  0  0  0  0  0  0  0  0  0  0  0
  184.8450  179.4830  144.6410 C   0  0  0  0  0  2  0  0  0  0  0  0
  192.8700  174.4280  143.2400 C   0  0  1  0  0  0  0  0  0  0  0  0
  196.3830  174.5890  139.6790 C   0  0  0  0  0  1  0  0  0  0  0  0
  192.3690  175.1490  144.4850 C   0  0  0  0  0  2  0  0  0  0  0  0
  196.0080  175.0740  141.0690 C   0  0  2  0  0  3  0  0  0  0  0  0
  191.4540  175.8740  147.0140 O   0  0  0  0  0  0  0  0  0  0  0  0
  189.3740  176.8750  147.3170 N   0  0  0  0  0  0  0  0  0  0  0  0
  190.9380  175.4870  144.1730 C   0  0  0  0  0  0  0  0  0  0  0  0
  188.6330  176.2570  144.6270 C   0  0  0  0  0  2  0  0  0  0  0  0
  197.0870  174.6490  142.0690 C   0  0  0  0  0  2  0  0  0  0  0  0
  192.7250  172.9240  143.4470 C   0  0  0  0  0  1  0  0  0  0  0  0
  190.3650  176.2370  146.4960 C   0  0  0  0  0  0  0  0  0  0  0  0
  192.1540  174.3370  140.7430 C   0  0  1  0  0  3  0  0  0  0  0  0
  187.2090  177.8590  147.5070 N   0  0  0  0  0  2  0  0  0  0  0  0
  186.2590  178.0160  146.6460 C   0  0  1  0  0  3  0  0  0  0  0  0
  184.9210  178.5750  147.0050 C   0  0  0  0  0  2  0  0  0  0  0  0
  190.5960  175.2390  142.7400 C   0  0  0  0  0  2  0  0  0  0  0  0
  196.6670  174.9300  143.4870 C   0  0  0  0  0  0  0  0  0  0  0  0
  191.9510  174.9360  142.1480 C   0  0  1  0  0  3  0  0  0  0  0  0
  194.2810  174.7640  142.8190 C   0  0  0  0  0  0  0  0  0  0  0  0
  190.0530  175.9780  145.0590 C   0  0  0  0  0  0  0  0  0  0  0  0
  193.6530  173.9980  140.5170 C   0  0  0  0  0  2  0  0  0  0  0  0
  186.2160  178.8500  144.3020 C   0  0  2  0  0  3  0  0  0  0  0  0
  192.0790  172.0170  139.7470 C   0  0  0  0  0  2  0  0  0  0  0  0
  188.9110  173.1160  140.2210 O   0  0  0  0  0  1  0  0  0  0  0  0
  191.1770  171.4590  138.6690 C   0  0  0  0  0  2  0  0  0  0  0  0
  190.2170  172.5760  138.3130 C   0  0  1  0  0  3  0  0  0  0  0  0
  190.0990  173.4290  139.5600 C   0  0  2  0  0  3  0  0  0  0  0  0
  191.2810  173.0990  140.4660 C   0  0  2  0  0  3  0  0  0  0  0  0
  190.7780  173.4220  137.1790 C   0  0  0  0  0  2  0  0  0  0  0  0
  188.9280  174.6950  136.3790 O   0  0  0  0  0  1  0  0  0  0  0  0
  189.6190  172.9870  135.0150 O   0  0  0  0  0  0  0  0  0  0  0  0
  189.7180  173.7360  136.1800 C   0  0  0  0  0  0  0  0  0  0  0  0
  186.3010  178.4570  142.8300 C   0  0  0  0  0  2  0  0  0  0  0  0
  185.1010  177.6290  142.3860 C   0  0  0  0  0  2  0  0  0  0  0  0
  184.6700  178.0240  140.9830 C   0  0  0  0  0  2  0  0  0  0  0  0
  182.6020  177.7380  139.8400 O   0  0  0  0  0  0  0  0  0  0  0  0
  183.1860  178.1170  140.8910 C   0  0  0  0  0  0  0  0  0  0  0  0
  182.4580  178.5970  141.9810 O   0  0  0  0  0  0  0  0  0  0  0  0
  181.0570  178.8090  141.9100 C   0  0  0  0  0  1  0  0  0  0  0  0
  2 23  1  0  0  0  0
  3 16  1  6  0  0  0
  3  6  1  0  0  0  0
  4 27  2  0  0  0  0
  5  3  1  0  0  0  0
  5 22  1  0  0  0  0
  6 14  2  0  0  0  0
  6 21  1  0  0  0  0
  8  2  1  0  0  0  0
  9 18  1  0  0  0  0
  9 11  1  0  0  0  0
 10 12  1  0  0  0  0
 12  4  1  0  0  0  0
 12 17  1  0  0  0  0
 15 11  1  0  0  0  0
 15 28  2  0  0  0  0
 16 28  1  0  0  0  0
 17 25  1  0  0  0  0
 19 13  2  0  0  0  0
 19 14  1  0  0  0  0
 20 26  1  0  0  0  0
 22 23  1  0  0  0  0
 22 21  1  0  0  0  0
 24 15  1  0  0  0  0
 25  1  1  0  0  0  0
 25  7  2  0  0  0  0
 26 24  1  0  0  0  0
 26  9  1  0  0  0  0
 27  9  1  0  0  0  0
 27  1  1  0  0  0  0
 28 19  1  0  0  0  0
 29 20  1  0  0  0  0
 29  4  1  0  0  0  0
 30  8  1  0  0  0  0
 30  5  1  0  0  0  0
 31 36  1  0  0  0  0
 33 31  1  0  0  0  0
 34 33  1  0  0  0  0
 34 35  1  0  0  0  0
 35 32  1  0  0  0  0
 35 36  1  0  0  0  0
 36 20  1  0  0  0  0
 37 34  1  0  0  0  0
 39 40  2  0  0  0  0
 40 38  1  0  0  0  0
 40 37  1  0  0  0  0
 41 30  1  0  0  0  0
 42 41  1  0  0  0  0
 43 42  1  0  0  0  0
 44 45  2  0  0  0  0
 45 43  1  0  0  0  0
 45 46  1  0  0  0  0
 47 46  1  0  0  0  0
M  END
>  <MODEL>
3

>  <REMARK>
 VINA RESULT:      -8.3      1.499      1.857
  Name = 
  8 active torsions:
  status: ('A' for Active; 'I' for Inactive)
    1  A    between atoms: O_4  and  C_24
    2  A    between atoms: C_11  and  C_15
    3  A    between atoms: C_11  and  C_36
    4  A    between atoms: C_15  and  C_24
    5  A    between atoms: C_21  and  C_38
    6  A    between atoms: C_21  and  C_41
    7  A    between atoms: C_31  and  C_43
    8  A    between atoms: C_36  and  C_47
                            x       y       z     vdW  Elec       q    Type
                         _______ _______ _______ _____ _____    ______ ____

>  <TORSDO>
F 8

$$$$
=
 OpenBabel11072409073D

 47 53  0  0  1  0  0  0  0  0999 V2000
  189.4690  171.3420  138.8940 C   0  0  0  0  0  2  0  0  0  0  0  0
  185.7080  179.3870  146.7340 C   0  0  0  0  0  2  0  0  0  0  0  0
  186.9340  176.6210  143.7290 C   0  0  1  0  0  3  0  0  0  0  0  0
  191.1710  170.5570  140.5320 C   0  0  0  0  0  0  0  0  0  0  0  0
  186.8420  177.5890  144.9010 C   0  0  1  0  0  3  0  0  0  0  0  0
  186.3380  177.4410  142.6380 C   0  0  0  0  0  0  0  0  0  0  0  0
  189.6470  170.3120  136.7820 O   0  0  0  0  0  0  0  0  0  0  0  0
  185.5350  177.9100  147.1160 C   0  0  0  0  0  2  0  0  0  0  0  0
  190.5790  172.9570  140.6400 C   0  0  1  0  0  0  0  0  0  0  0  0
  192.0090  168.1660  140.4210 C   0  0  0  0  0  1  0  0  0  0  0  0
  189.3770  173.8750  140.4550 C   0  0  0  0  0  2  0  0  0  0  0  0
  190.9500  169.1620  139.9790 C   0  0  2  0  0  3  0  0  0  0  0  0
  187.5940  175.9010  139.7640 O   0  0  0  0  0  0  0  0  0  0  0  0
  186.5890  177.2430  141.3790 N   0  0  0  0  0  0  0  0  0  0  0  0
  189.2350  174.5780  141.7760 C   0  0  0  0  0  0  0  0  0  0  0  0
  188.3700  176.2480  143.3810 C   0  0  0  0  0  2  0  0  0  0  0  0
  190.8630  169.1720  138.4510 C   0  0  0  0  0  2  0  0  0  0  0  0
  191.8270  173.6640  140.1220 C   0  0  0  0  0  1  0  0  0  0  0  0
  187.5190  176.2240  140.9790 C   0  0  0  0  0  0  0  0  0  0  0  0
  191.8020  171.9010  142.6760 C   0  0  1  0  0  3  0  0  0  0  0  0
  185.6530  178.5800  143.1200 N   0  0  0  0  0  2  0  0  0  0  0  0
  185.9150  178.6520  144.3810 C   0  0  1  0  0  3  0  0  0  0  0  0
  185.2700  179.6470  145.2900 C   0  0  0  0  0  2  0  0  0  0  0  0
  190.1110  173.9860  142.8320 C   0  0  0  0  0  2  0  0  0  0  0  0
  189.9740  170.2810  137.9550 C   0  0  0  0  0  0  0  0  0  0  0  0
  190.6330  172.7500  142.1400 C   0  0  1  0  0  3  0  0  0  0  0  0
  190.4540  171.5900  140.0120 C   0  0  0  0  0  0  0  0  0  0  0  0
  188.4060  175.6110  142.0120 C   0  0  0  0  0  0  0  0  0  0  0  0
  192.1880  170.8080  141.6420 C   0  0  0  0  0  2  0  0  0  0  0  0
  186.2360  176.9280  146.1480 C   0  0  2  0  0  3  0  0  0  0  0  0
  194.2910  172.1990  142.3710 C   0  0  0  0  0  2  0  0  0  0  0  0
  193.2970  173.9520  145.0920 O   0  0  0  0  0  1  0  0  0  0  0  0
  195.3950  172.2100  143.4040 C   0  0  0  0  0  2  0  0  0  0  0  0
  194.7070  172.0730  144.7470 C   0  0  1  0  0  3  0  0  0  0  0  0
  193.3230  172.6630  144.5620 C   0  0  2  0  0  3  0  0  0  0  0  0
  193.0410  172.7290  143.0640 C   0  0  2  0  0  3  0  0  0  0  0  0
  194.5780  170.6060  145.1360 C   0  0  0  0  0  2  0  0  0  0  0  0
  196.6850  170.8540  146.2220 O   0  0  0  0  0  0  0  0  0  0  0  0
  195.2990  169.2550  147.1030 O   0  0  0  0  0  1  0  0  0  0  0  0
  195.5850  170.2450  146.1720 C   0  0  0  0  0  0  0  0  0  0  0  0
  187.2540  176.0550  146.8770 C   0  0  0  0  0  2  0  0  0  0  0  0
  188.6120  176.7350  146.9960 C   0  0  0  0  0  2  0  0  0  0  0  0
  189.7300  175.7440  146.7140 C   0  0  0  0  0  2  0  0  0  0  0  0
  192.0050  176.2970  147.1430 O   0  0  0  0  0  0  0  0  0  0  0  0
  191.0000  176.4560  146.3970 C   0  0  0  0  0  0  0  0  0  0  0  0
  191.0700  177.2680  145.2650 O   0  0  0  0  0  0  0  0  0  0  0  0
  192.0460  177.0620  144.2550 C   0  0  0  0  0  1  0  0  0  0  0  0
  1 27  1  0  0  0  0
  2  8  1  0  0  0  0
  3 16  1  6  0  0  0
  3  5  1  0  0  0  0
  4 29  1  0  0  0  0
  5 30  1  0  0  0  0
  6 21  1  0  0  0  0
  6  3  1  0  0  0  0
  7 25  2  0  0  0  0
  9 26  1  0  0  0  0
 11  9  1  0  0  0  0
 11 15  1  0  0  0  0
 12 10  1  0  0  0  0
 12  4  1  0  0  0  0
 13 19  2  0  0  0  0
 14  6  2  0  0  0  0
 15 28  2  0  0  0  0
 15 24  1  0  0  0  0
 17 12  1  0  0  0  0
 18  9  1  0  0  0  0
 19 14  1  0  0  0  0
 19 28  1  0  0  0  0
 20 36  1  0  0  0  0
 21 22  1  0  0  0  0
 22  5  1  0  0  0  0
 22 23  1  0  0  0  0
 23  2  1  0  0  0  0
 25 17  1  0  0  0  0
 25  1  1  0  0  0  0
 26 20  1  0  0  0  0
 26 24  1  0  0  0  0
 27  4  2  0  0  0  0
 27  9  1  0  0  0  0
 28 16  1  0  0  0  0
 29 20  1  0  0  0  0
 30 41  1  0  0  0  0
 30  8  1  0  0  0  0
 31 36  1  0  0  0  0
 31 33  1  0  0  0  0
 33 34  1  0  0  0  0
 34 37  1  0  0  0  0
 35 34  1  0  0  0  0
 35 32  1  0  0  0  0
 36 35  1  0  0  0  0
 37 40  1  0  0  0  0
 40 38  2  0  0  0  0
 40 39  1  0  0  0  0
 41 42  1  0  0  0  0
 43 42  1  0  0  0  0
 45 43  1  0  0  0  0
 45 44  2  0  0  0  0
 46 45  1  0  0  0  0
 47 46  1  0  0  0  0
M  END
>  <MODEL>
4

>  <REMARK>
 VINA RESULT:      -8.3      2.513      6.435
  Name = 
  8 active torsions:
  status: ('A' for Active; 'I' for Inactive)
    1  A    between atoms: O_4  and  C_24
    2  A    between atoms: C_11  and  C_15
    3  A    between atoms: C_11  and  C_36
    4  A    between atoms: C_15  and  C_24
    5  A    between atoms: C_21  and  C_38
    6  A    between atoms: C_21  and  C_41
    7  A    between atoms: C_31  and  C_43
    8  A    between atoms: C_36  and  C_47
                            x       y       z     vdW  Elec       q    Type
                         _______ _______ _______ _____ _____    ______ ____

>  <TORSDO>
F 8

$$$$
=
 OpenBabel11072409073D

 47 53  0  0  1  0  0  0  0  0999 V2000
  190.0860  171.1760  139.2420 C   0  0  0  0  0  2  0  0  0  0  0  0
  185.9420  179.7610  146.2740 C   0  0  0  0  0  2  0  0  0  0  0  0
  187.2570  176.7400  143.5680 C   0  0  1  0  0  3  0  0  0  0  0  0
  192.1320  171.0230  140.6520 C   0  0  0  0  0  0  0  0  0  0  0  0
  187.1410  177.8790  144.5720 C   0  0  1  0  0  3  0  0  0  0  0  0
  186.3550  177.2230  142.4870 C   0  0  0  0  0  0  0  0  0  0  0  0
  190.1620  169.8150  137.3200 O   0  0  0  0  0  0  0  0  0  0  0  0
  186.1320  178.3750  146.9070 C   0  0  0  0  0  2  0  0  0  0  0  0
  191.0850  173.2590  140.4880 C   0  0  1  0  0  0  0  0  0  0  0  0
  193.4150  168.8390  140.7680 C   0  0  0  0  0  1  0  0  0  0  0  0
  189.7070  173.9010  140.3800 C   0  0  0  0  0  2  0  0  0  0  0  0
  192.1230  169.5330  140.3720 C   0  0  2  0  0  3  0  0  0  0  0  0
  187.4670  175.4160  139.7110 O   0  0  0  0  0  0  0  0  0  0  0  0
  186.4550  176.8400  141.2500 N   0  0  0  0  0  0  0  0  0  0  0  0
  189.6180  174.8030  141.5790 C   0  0  0  0  0  0  0  0  0  0  0  0
  188.6730  176.5660  143.0320 C   0  0  0  0  0  2  0  0  0  0  0  0
  191.8140  169.2400  138.9010 C   0  0  0  0  0  2  0  0  0  0  0  0
  192.0740  174.0640  139.6510 C   0  0  0  0  0  1  0  0  0  0  0  0
  187.5050  175.9430  140.8540 C   0  0  0  0  0  0  0  0  0  0  0  0
  192.7800  172.8350  142.4130 C   0  0  1  0  0  3  0  0  0  0  0  0
  185.5290  178.2940  142.8990 N   0  0  0  0  0  2  0  0  0  0  0  0
  185.9510  178.6460  144.0670 C   0  0  1  0  0  3  0  0  0  0  0  0
  185.2560  179.6650  144.9100 C   0  0  0  0  0  2  0  0  0  0  0  0
  190.7400  174.5820  142.5410 C   0  0  0  0  0  2  0  0  0  0  0  0
  190.6550  170.0640  138.4060 C   0  0  0  0  0  0  0  0  0  0  0  0
  191.3970  173.3500  141.9680 C   0  0  1  0  0  3  0  0  0  0  0  0
  191.1520  171.7980  140.1140 C   0  0  0  0  0  0  0  0  0  0  0  0
  188.6390  175.7000  141.7950 C   0  0  0  0  0  0  0  0  0  0  0  0
  193.2270  171.6530  141.5090 C   0  0  0  0  0  2  0  0  0  0  0  0
  186.8700  177.3680  145.9950 C   0  0  2  0  0  3  0  0  0  0  0  0
  195.2460  173.3280  142.1850 C   0  0  0  0  0  2  0  0  0  0  0  0
  193.7210  175.9840  143.6300 O   0  0  0  0  0  1  0  0  0  0  0  0
  196.1910  173.9930  143.1600 C   0  0  0  0  0  2  0  0  0  0  0  0
  195.3410  174.4030  144.3460 C   0  0  1  0  0  3  0  0  0  0  0  0
  193.9460  174.6170  143.7960 C   0  0  2  0  0  3  0  0  0  0  0  0
  193.8670  173.9260  142.4390 C   0  0  2  0  0  3  0  0  0  0  0  0
  195.3050  173.2930  145.3880 C   0  0  0  0  0  2  0  0  0  0  0  0
  197.3070  173.7940  146.5800 O   0  0  0  0  0  1  0  0  0  0  0  0
  197.2570  171.7510  145.5420 O   0  0  0  0  0  0  0  0  0  0  0  0
  196.6790  172.9720  145.8640 C   0  0  0  0  0  0  0  0  0  0  0  0
  188.1390  176.8390  146.6580 C   0  0  0  0  0  2  0  0  0  0  0  0
  187.9470  175.4400  147.2300 C   0  0  0  0  0  2  0  0  0  0  0  0
  189.2920  174.7890  147.5100 C   0  0  0  0  0  2  0  0  0  0  0  0
  189.5290  173.6990  145.4070 O   0  0  0  0  0  0  0  0  0  0  0  0
  190.0180  174.5100  146.2400 C   0  0  0  0  0  0  0  0  0  0  0  0
  191.2190  175.1700  145.9750 O   0  0  0  0  0  0  0  0  0  0  0  0
  191.8020  176.0660  146.9080 C   0  0  0  0  0  1  0  0  0  0  0  0
  1 27  1  0  0  0  0
  2  8  1  0  0  0  0
  3 16  1  6  0  0  0
  3  5  1  0  0  0  0
  4 29  1  0  0  0  0
  5 30  1  0  0  0  0
  6 21  1  0  0  0  0
  6  3  1  0  0  0  0
  7 25  2  0  0  0  0
  9 26  1  0  0  0  0
 11  9  1  0  0  0  0
 11 15  1  0  0  0  0
 12  4  1  0  0  0  0
 12 10  1  0  0  0  0
 13 19  2  0  0  0  0
 14  6  2  0  0  0  0
 15 28  2  0  0  0  0
 15 24  1  0  0  0  0
 17 12  1  0  0  0  0
 18  9  1  0  0  0  0
 19 14  1  0  0  0  0
 19 28  1  0  0  0  0
 20 36  1  0  0  0  0
 21 22  1  0  0  0  0
 22  5  1  0  0  0  0
 22 23  1  0  0  0  0
 23  2  1  0  0  0  0
 25 17  1  0  0  0  0
 25  1  1  0  0  0  0
 26 20  1  0  0  0  0
 26 24  1  0  0  0  0
 27  9  1  0  0  0  0
 27  4  2  0  0  0  0
 28 16  1  0  0  0  0
 29 20  1  0  0  0  0
 30 41  1  0  0  0  0
 30  8  1  0  0  0  0
 31 36  1  0  0  0  0
 31 33  1  0  0  0  0
 32 35  1  0  0  0  0
 33 34  1  0  0  0  0
 34 37  1  0  0  0  0
 35 34  1  0  0  0  0
 36 35  1  0  0  0  0
 37 40  1  0  0  0  0
 39 40  2  0  0  0  0
 40 38  1  0  0  0  0
 41 42  1  0  0  0  0
 42 43  1  0  0  0  0
 44 45  2  0  0  0  0
 45 43  1  0  0  0  0
 46 45  1  0  0  0  0
 46 47  1  0  0  0  0
M  END
>  <MODEL>
5

>  <REMARK>
 VINA RESULT:      -7.4      2.346      6.424
  Name = 
  8 active torsions:
  status: ('A' for Active; 'I' for Inactive)
    1  A    between atoms: O_4  and  C_24
    2  A    between atoms: C_11  and  C_15
    3  A    between atoms: C_11  and  C_36
    4  A    between atoms: C_15  and  C_24
    5  A    between atoms: C_21  and  C_38
    6  A    between atoms: C_21  and  C_41
    7  A    between atoms: C_31  and  C_43
    8  A    between atoms: C_36  and  C_47
                            x       y       z     vdW  Elec       q    Type
                         _______ _______ _______ _____ _____    ______ ____

>  <TORSDO>
F 8

$$$$
=
 OpenBabel11072409073D

 47 53  0  0  1  0  0  0  0  0999 V2000
  195.4490  173.3130  141.7410 C   0  0  0  0  0  2  0  0  0  0  0  0
  185.3080  177.7590  145.9510 C   0  0  0  0  0  2  0  0  0  0  0  0
  189.0140  176.0810  144.6750 C   0  0  1  0  0  3  0  0  0  0  0  0
  194.5530  173.4900  139.4250 C   0  0  0  0  0  0  0  0  0  0  0  0
  187.5640  176.5160  144.8360 C   0  0  1  0  0  3  0  0  0  0  0  0
  189.2820  175.4860  146.0140 C   0  0  0  0  0  0  0  0  0  0  0  0
  197.5500  172.2510  141.8610 O   0  0  0  0  0  0  0  0  0  0  0  0
  186.1490  178.6760  145.0510 C   0  0  0  0  0  2  0  0  0  0  0  0
  192.8930  173.0500  141.2070 C   0  0  1  0  0  0  0  0  0  0  0  0
  196.1550  173.7570  137.4780 C   0  0  0  0  0  1  0  0  0  0  0  0
  192.6200  173.4010  142.6640 C   0  0  0  0  0  2  0  0  0  0  0  0
  195.9670  173.8190  138.9840 C   0  0  2  0  0  3  0  0  0  0  0  0
  192.0180  173.4070  145.3840 O   0  0  0  0  0  0  0  0  0  0  0  0
  190.2040  174.5970  146.2280 N   0  0  0  0  0  0  0  0  0  0  0  0
  191.2720  174.0640  142.6450 C   0  0  0  0  0  0  0  0  0  0  0  0
  189.2000  175.0290  143.5870 C   0  0  0  0  0  2  0  0  0  0  0  0
  196.9930  172.9110  139.6660 C   0  0  0  0  0  2  0  0  0  0  0  0
  192.4600  171.6100  140.9540 C   0  0  0  0  0  1  0  0  0  0  0  0
  190.9970  174.1010  145.1380 C   0  0  0  0  0  0  0  0  0  0  0  0
  192.0310  173.9050  138.9080 C   0  0  1  0  0  3  0  0  0  0  0  0
  188.2970  175.8230  146.9700 N   0  0  0  0  0  2  0  0  0  0  0  0
  187.3500  176.4140  146.3200 C   0  0  1  0  0  3  0  0  0  0  0  0
  186.1760  177.0470  146.9920 C   0  0  0  0  0  2  0  0  0  0  0  0
  190.8040  174.3600  141.2570 C   0  0  0  0  0  2  0  0  0  0  0  0
  196.7210  172.7810  141.1410 C   0  0  0  0  0  0  0  0  0  0  0  0
  192.0340  174.0380  140.4440 C   0  0  1  0  0  3  0  0  0  0  0  0
  194.3160  173.2570  140.7450 C   0  0  0  0  0  0  0  0  0  0  0  0
  190.5560  174.3840  143.7390 C   0  0  0  0  0  0  0  0  0  0  0  0
  193.4150  173.4050  138.4120 C   0  0  0  0  0  2  0  0  0  0  0  0
  187.3410  177.9620  144.3720 C   0  0  2  0  0  3  0  0  0  0  0  0
  191.4350  172.0770  137.2710 C   0  0  0  0  0  2  0  0  0  0  0  0
  188.5850  173.5110  138.4050 O   0  0  0  0  0  1  0  0  0  0  0  0
  190.3860  172.0600  136.1830 C   0  0  0  0  0  2  0  0  0  0  0  0
  189.6580  173.3850  136.2900 C   0  0  1  0  0  3  0  0  0  0  0  0
  189.7770  173.8020  137.7420 C   0  0  2  0  0  3  0  0  0  0  0  0
  190.9110  172.9960  138.3680 C   0  0  2  0  0  3  0  0  0  0  0  0
  190.3230  174.4340  135.4100 C   0  0  0  0  0  2  0  0  0  0  0  0
  188.1360  175.2880  134.9950 O   0  0  0  0  0  1  0  0  0  0  0  0
  189.8330  176.8260  134.9020 O   0  0  0  0  0  0  0  0  0  0  0  0
  189.3680  175.5300  135.0830 C   0  0  0  0  0  0  0  0  0  0  0  0
  187.2610  178.0630  142.8510 C   0  0  0  0  0  2  0  0  0  0  0  0
  186.1380  177.2060  142.2780 C   0  0  0  0  0  2  0  0  0  0  0  0
  185.3850  177.9670  141.1990 C   0  0  0  0  0  2  0  0  0  0  0  0
  183.6520  178.2880  142.7990 O   0  0  0  0  0  0  0  0  0  0  0  0
  183.9580  178.1540  141.5830 C   0  0  0  0  0  0  0  0  0  0  0  0
  182.9790  178.2060  140.5890 O   0  0  0  0  0  0  0  0  0  0  0  0
  181.6650  178.6700  140.8560 C   0  0  0  0  0  1  0  0  0  0  0  0
  2 23  1  0  0  0  0
  3 16  1  6  0  0  0
  3  5  1  0  0  0  0
  3  6  1  0  0  0  0
  4 27  2  0  0  0  0
  5 22  1  0  0  0  0
  6 14  2  0  0  0  0
  6 21  1  0  0  0  0
  8  2  1  0  0  0  0
  9 11  1  0  0  0  0
 10 12  1  0  0  0  0
 12  4  1  0  0  0  0
 12 17  1  0  0  0  0
 15 11  1  0  0  0  0
 15 28  2  0  0  0  0
 16 28  1  0  0  0  0
 17 25  1  0  0  0  0
 18  9  1  0  0  0  0
 19 13  2  0  0  0  0
 19 14  1  0  0  0  0
 20 26  1  0  0  0  0
 22 21  1  0  0  0  0
 22 23  1  0  0  0  0
 24 15  1  0  0  0  0
 25  1  1  0  0  0  0
 25  7  2  0  0  0  0
 26  9  1  0  0  0  0
 26 24  1  0  0  0  0
 27  9  1  0  0  0  0
 27  1  1  0  0  0  0
 28 19  1  0  0  0  0
 29 20  1  0  0  0  0
 29  4  1  0  0  0  0
 30  5  1  0  0  0  0
 30  8  1  0  0  0  0
 31 36  1  0  0  0  0
 33 34  1  0  0  0  0
 33 31  1  0  0  0  0
 34 35  1  0  0  0  0
 35 36  1  0  0  0  0
 35 32  1  0  0  0  0
 36 20  1  0  0  0  0
 37 34  1  0  0  0  0
 38 40  1  0  0  0  0
 39 40  2  0  0  0  0
 40 37  1  0  0  0  0
 41 30  1  0  0  0  0
 42 41  1  0  0  0  0
 43 45  1  0  0  0  0
 43 42  1  0  0  0  0
 45 44  2  0  0  0  0
 46 47  1  0  0  0  0
 46 45  1  0  0  0  0
M  END
>  <MODEL>
6

>  <REMARK>
 VINA RESULT:      -7.4      2.129      2.845
  Name = 
  8 active torsions:
  status: ('A' for Active; 'I' for Inactive)
    1  A    between atoms: O_4  and  C_24
    2  A    between atoms: C_11  and  C_15
    3  A    between atoms: C_11  and  C_36
    4  A    between atoms: C_15  and  C_24
    5  A    between atoms: C_21  and  C_38
    6  A    between atoms: C_21  and  C_41
    7  A    between atoms: C_31  and  C_43
    8  A    between atoms: C_36  and  C_47
                            x       y       z     vdW  Elec       q    Type
                         _______ _______ _______ _____ _____    ______ ____

>  <TORSDO>
F 8

$$$$
=
 OpenBabel11072409073D

 47 53  0  0  1  0  0  0  0  0999 V2000
  186.2060  177.1770  140.8930 C   0  0  0  0  0  2  0  0  0  0  0  0
  196.2740  171.6260  138.0370 C   0  0  0  0  0  2  0  0  0  0  0  0
  192.5450  173.5290  138.8490 C   0  0  1  0  0  3  0  0  0  0  0  0
  187.0480  177.4860  143.2160 C   0  0  0  0  0  0  0  0  0  0  0  0
  193.8590  172.7600  138.9070 C   0  0  1  0  0  3  0  0  0  0  0  0
  191.8790  172.8630  137.6960 C   0  0  0  0  0  0  0  0  0  0  0  0
  183.9800  177.8900  140.5950 O   0  0  0  0  0  0  0  0  0  0  0  0
  196.3850  173.1030  138.4420 C   0  0  0  0  0  2  0  0  0  0  0  0
  187.8130  175.4480  142.0400 C   0  0  1  0  0  0  0  0  0  0  0  0
  186.2050  179.4320  144.6060 C   0  0  0  0  0  1  0  0  0  0  0  0
  188.1960  174.9770  140.6420 C   0  0  0  0  0  2  0  0  0  0  0  0
  186.3200  178.8170  143.2220 C   0  0  2  0  0  3  0  0  0  0  0  0
  188.5100  173.6200  138.2300 O   0  0  0  0  0  0  0  0  0  0  0  0
  190.5910  172.8490  137.5270 N   0  0  0  0  0  0  0  0  0  0  0  0
  189.6100  174.4870  140.7850 C   0  0  0  0  0  0  0  0  0  0  0  0
  191.7050  173.3610  140.1090 C   0  0  0  0  0  2  0  0  0  0  0  0
  184.9280  178.6980  142.5960 C   0  0  0  0  0  2  0  0  0  0  0  0
  187.0900  174.3170  142.7630 C   0  0  0  0  0  1  0  0  0  0  0  0
  189.7280  173.4530  138.5030 C   0  0  0  0  0  0  0  0  0  0  0  0
  189.1180  176.2090  144.1560 C   0  0  1  0  0  3  0  0  0  0  0  0
  192.7670  172.0720  136.9310 N   0  0  0  0  0  2  0  0  0  0  0  0
  193.8740  172.0300  137.5940 C   0  0  1  0  0  3  0  0  0  0  0  0
  195.1180  171.3990  137.0590 C   0  0  0  0  0  2  0  0  0  0  0  0
  190.2030  174.8420  142.1100 C   0  0  0  0  0  2  0  0  0  0  0  0
  184.9640  177.9140  141.3120 C   0  0  0  0  0  0  0  0  0  0  0  0
  189.1500  175.7600  142.6810 C   0  0  1  0  0  3  0  0  0  0  0  0
  186.9920  176.7140  142.0970 C   0  0  0  0  0  0  0  0  0  0  0  0
  190.2930  173.8220  139.8360 C   0  0  0  0  0  0  0  0  0  0  0  0
  187.8180  177.0080  144.4440 C   0  0  0  0  0  2  0  0  0  0  0  0
  195.0710  173.6970  139.0020 C   0  0  2  0  0  3  0  0  0  0  0  0
  188.6440  175.4090  146.5030 C   0  0  0  0  0  2  0  0  0  0  0  0
  190.9730  173.3900  145.1020 O   0  0  0  0  0  1  0  0  0  0  0  0
  189.5990  174.9160  147.5660 C   0  0  0  0  0  2  0  0  0  0  0  0
  190.9710  174.9160  146.9220 C   0  0  1  0  0  3  0  0  0  0  0  0
  190.7280  174.7220  145.4390 C   0  0  2  0  0  3  0  0  0  0  0  0
  189.2640  175.0490  145.1580 C   0  0  2  0  0  3  0  0  0  0  0  0
  191.6670  176.2510  147.1450 C   0  0  0  0  0  2  0  0  0  0  0  0
  192.8660  177.2020  145.3170 O   0  0  0  0  0  0  0  0  0  0  0  0
  193.9890  175.6000  146.5130 O   0  0  0  0  0  1  0  0  0  0  0  0
  192.8640  176.3760  146.2670 C   0  0  0  0  0  0  0  0  0  0  0  0
  195.2600  174.2380  140.4170 C   0  0  0  0  0  2  0  0  0  0  0  0
  194.9210  175.7200  140.5150 C   0  0  0  0  0  2  0  0  0  0  0  0
  193.9120  175.9640  141.6250 C   0  0  0  0  0  2  0  0  0  0  0  0
  193.8530  174.4110  143.4280 O   0  0  0  0  0  0  0  0  0  0  0  0
  194.4100  175.4230  142.9200 C   0  0  0  0  0  0  0  0  0  0  0  0
  195.5040  176.0250  143.5430 O   0  0  0  0  0  0  0  0  0  0  0  0
  196.6680  175.2900  143.8880 C   0  0  0  0  0  1  0  0  0  0  0  0
  1 25  1  0  0  0  0
  1 27  1  0  0  0  0
  2  8  1  0  0  0  0
  3  5  1  0  0  0  0
  3 16  1  1  0  0  0
  4 12  1  0  0  0  0
  4 29  1  0  0  0  0
  5 30  1  0  0  0  0
  6  3  1  0  0  0  0
  7 25  2  0  0  0  0
  8 30  1  0  0  0  0
  9 27  1  0  0  0  0
  9 26  1  0  0  0  0
  9 18  1  0  0  0  0
 11 15  1  0  0  0  0
 11  9  1  0  0  0  0
 12 10  1  0  0  0  0
 13 19  2  0  0  0  0
 14  6  2  0  0  0  0
 14 19  1  0  0  0  0
 15 24  1  0  0  0  0
 17 12  1  0  0  0  0
 19 28  1  0  0  0  0
 20 29  1  0  0  0  0
 20 36  1  0  0  0  0
 21 22  1  0  0  0  0
 21  6  1  0  0  0  0
 22  5  1  0  0  0  0
 23 22  1  0  0  0  0
 23  2  1  0  0  0  0
 24 26  1  0  0  0  0
 25 17  1  0  0  0  0
 26 20  1  0  0  0  0
 27  4  2  0  0  0  0
 28 16  1  0  0  0  0
 28 15  2  0  0  0  0
 30 41  1  0  0  0  0
 31 33  1  0  0  0  0
 32 35  1  0  0  0  0
 34 37  1  0  0  0  0
 34 33  1  0  0  0  0
 35 34  1  0  0  0  0
 36 35  1  0  0  0  0
 36 31  1  0  0  0  0
 38 40  2  0  0  0  0
 40 39  1  0  0  0  0
 40 37  1  0  0  0  0
 41 42  1  0  0  0  0
 42 43  1  0  0  0  0
 43 45  1  0  0  0  0
 45 44  2  0  0  0  0
 45 46  1  0  0  0  0
 46 47  1  0  0  0  0
M  END
>  <MODEL>
7

>  <REMARK>
 VINA RESULT:      -7.3      3.055      9.703
  Name = 
  8 active torsions:
  status: ('A' for Active; 'I' for Inactive)
    1  A    between atoms: O_4  and  C_24
    2  A    between atoms: C_11  and  C_15
    3  A    between atoms: C_11  and  C_36
    4  A    between atoms: C_15  and  C_24
    5  A    between atoms: C_21  and  C_38
    6  A    between atoms: C_21  and  C_41
    7  A    between atoms: C_31  and  C_43
    8  A    between atoms: C_36  and  C_47
                            x       y       z     vdW  Elec       q    Type
                         _______ _______ _______ _____ _____    ______ ____

>  <TORSDO>
F 8

$$$$
=
 OpenBabel11072409073D

 47 53  0  0  1  0  0  0  0  0999 V2000
  192.6250  176.9720  145.3770 C   0  0  0  0  0  2  0  0  0  0  0  0
  181.5460  178.5280  141.4840 C   0  0  0  0  0  2  0  0  0  0  0  0
  185.4650  178.0860  143.1030 C   0  0  1  0  0  3  0  0  0  0  0  0
  193.0100  175.2920  143.5790 C   0  0  0  0  0  0  0  0  0  0  0  0
  184.1120  177.9000  142.4300 C   0  0  1  0  0  3  0  0  0  0  0  0
  185.0510  178.6250  144.4280 C   0  0  0  0  0  0  0  0  0  0  0  0
  194.4270  177.1700  146.8820 O   0  0  0  0  0  0  0  0  0  0  0  0
  182.6810  178.9230  140.5280 C   0  0  0  0  0  2  0  0  0  0  0  0
  190.7020  175.4400  144.4580 C   0  0  1  0  0  0  0  0  0  0  0  0
  195.3600  174.9030  142.7090 C   0  0  0  0  0  1  0  0  0  0  0  0
  189.7160  176.4730  144.9900 C   0  0  0  0  0  2  0  0  0  0  0  0
  194.4360  175.8050  143.5090 C   0  0  2  0  0  3  0  0  0  0  0  0
  187.8270  177.9260  146.4310 O   0  0  0  0  0  0  0  0  0  0  0  0
  185.7810  178.5280  145.4980 N   0  0  0  0  0  0  0  0  0  0  0  0
  188.5310  176.3680  144.0720 C   0  0  0  0  0  0  0  0  0  0  0  0
  186.2230  176.7760  143.2830 C   0  0  0  0  0  2  0  0  0  0  0  0
  195.0210  176.0280  144.9060 C   0  0  0  0  0  2  0  0  0  0  0  0
  190.5230  174.1390  145.2340 C   0  0  0  0  0  1  0  0  0  0  0  0
  187.0360  177.8330  145.4550 C   0  0  0  0  0  0  0  0  0  0  0  0
  191.0740  174.2430  142.1810 C   0  0  1  0  0  3  0  0  0  0  0  0
  183.7030  179.0520  144.4480 N   0  0  0  0  0  2  0  0  0  0  0  0
  183.1860  178.6680  143.3300 C   0  0  1  0  0  3  0  0  0  0  0  0
  181.8040  179.0420  142.9020 C   0  0  0  0  0  2  0  0  0  0  0  0
  188.8120  175.5190  142.8750 C   0  0  0  0  0  2  0  0  0  0  0  0
  194.0500  176.7480  145.8030 C   0  0  0  0  0  0  0  0  0  0  0  0
  190.2980  175.2880  143.0050 C   0  0  1  0  0  3  0  0  0  0  0  0
  192.1520  175.8600  144.4690 C   0  0  0  0  0  0  0  0  0  0  0  0
  187.3480  176.9780  144.2710 C   0  0  0  0  0  0  0  0  0  0  0  0
  192.5430  174.1500  142.6810 C   0  0  0  0  0  2  0  0  0  0  0  0
  184.0860  178.4970  141.0150 C   0  0  2  0  0  3  0  0  0  0  0  0
  191.4730  171.7550  142.3470 C   0  0  0  0  0  2  0  0  0  0  0  0
  188.3630  172.2920  141.1210 O   0  0  0  0  0  1  0  0  0  0  0  0
  191.1080  170.6520  141.3790 C   0  0  0  0  0  2  0  0  0  0  0  0
  190.3510  171.3250  140.2520 C   0  0  1  0  0  3  0  0  0  0  0  0
  189.7090  172.5540  140.8650 C   0  0  2  0  0  3  0  0  0  0  0  0
  190.4240  172.8470  142.1800 C   0  0  2  0  0  3  0  0  0  0  0  0
  191.3060  171.7560  139.1480 C   0  0  0  0  0  2  0  0  0  0  0  0
  191.0340  173.6950  137.7880 O   0  0  0  0  0  1  0  0  0  0  0  0
  189.4580  172.0560  137.5020 O   0  0  0  0  0  0  0  0  0  0  0  0
  190.5930  172.5630  138.1190 C   0  0  0  0  0  0  0  0  0  0  0  0
  184.7770  177.5870  140.0030 C   0  0  0  0  0  2  0  0  0  0  0  0
  186.2420  177.9580  139.8070 C   0  0  0  0  0  2  0  0  0  0  0  0
  187.1170  176.7160  139.8540 C   0  0  0  0  0  2  0  0  0  0  0  0
  187.7530  174.9520  138.3870 O   0  0  0  0  0  0  0  0  0  0  0  0
  187.2170  176.0880  138.5070 C   0  0  0  0  0  0  0  0  0  0  0  0
  186.6930  176.7520  137.3970 O   0  0  0  0  0  0  0  0  0  0  0  0
  186.3820  176.0690  136.1930 C   0  0  0  0  0  1  0  0  0  0  0  0
  1 25  1  0  0  0  0
  2 23  1  0  0  0  0
  3 16  1  1  0  0  0
  3  6  1  0  0  0  0
  4 27  2  0  0  0  0
  5  3  1  0  0  0  0
  5 22  1  0  0  0  0
  6 21  1  0  0  0  0
  6 14  2  0  0  0  0
  8 30  1  0  0  0  0
  8  2  1  0  0  0  0
  9 27  1  0  0  0  0
  9 11  1  0  0  0  0
  9 18  1  0  0  0  0
 10 12  1  0  0  0  0
 12  4  1  0  0  0  0
 12 17  1  0  0  0  0
 15 28  2  0  0  0  0
 15 11  1  0  0  0  0
 16 28  1  0  0  0  0
 17 25  1  0  0  0  0
 19 14  1  0  0  0  0
 19 13  2  0  0  0  0
 20 29  1  0  0  0  0
 20 26  1  0  0  0  0
 22 21  1  0  0  0  0
 23 22  1  0  0  0  0
 24 26  1  0  0  0  0
 24 15  1  0  0  0  0
 25  7  2  0  0  0  0
 26  9  1  0  0  0  0
 27  1  1  0  0  0  0
 28 19  1  0  0  0  0
 29  4  1  0  0  0  0
 30  5  1  0  0  0  0
 33 31  1  0  0  0  0
 34 35  1  0  0  0  0
 34 33  1  0  0  0  0
 35 32  1  0  0  0  0
 35 36  1  0  0  0  0
 36 20  1  0  0  0  0
 36 31  1  0  0  0  0
 37 34  1  0  0  0  0
 38 40  1  0  0  0  0
 39 40  2  0  0  0  0
 40 37  1  0  0  0  0
 41 30  1  0  0  0  0
 42 43  1  0  0  0  0
 42 41  1  0  0  0  0
 44 45  2  0  0  0  0
 45 43  1  0  0  0  0
 46 45  1  0  0  0  0
 47 46  1  0  0  0  0
M  END
>  <MODEL>
8

>  <REMARK>
 VINA RESULT:      -7.0      2.115      3.302
  Name = 
  8 active torsions:
  status: ('A' for Active; 'I' for Inactive)
    1  A    between atoms: O_4  and  C_24
    2  A    between atoms: C_11  and  C_15
    3  A    between atoms: C_11  and  C_36
    4  A    between atoms: C_15  and  C_24
    5  A    between atoms: C_21  and  C_38
    6  A    between atoms: C_21  and  C_41
    7  A    between atoms: C_31  and  C_43
    8  A    between atoms: C_36  and  C_47
                            x       y       z     vdW  Elec       q    Type
                         _______ _______ _______ _____ _____    ______ ____

>  <TORSDO>
F 8

$$$$
=
 OpenBabel11072409073D

 47 53  0  0  1  0  0  0  0  0999 V2000
  195.5930  175.6560  140.6210 C   0  0  0  0  0  2  0  0  0  0  0  0
  185.1150  177.1200  145.9490 C   0  0  0  0  0  2  0  0  0  0  0  0
  189.0000  176.6750  144.2480 C   0  0  1  0  0  3  0  0  0  0  0  0
  194.4940  174.2780  138.8610 C   0  0  0  0  0  0  0  0  0  0  0  0
  187.5570  176.5100  144.7080 C   0  0  1  0  0  3  0  0  0  0  0  0
  189.6730  176.9920  145.5380 C   0  0  0  0  0  0  0  0  0  0  0  0
  197.9400  175.7380  140.4240 O   0  0  0  0  0  0  0  0  0  0  0  0
  185.2680  177.7130  144.5410 C   0  0  0  0  0  2  0  0  0  0  0  0
  193.4920  174.1650  141.1210 C   0  0  1  0  0  0  0  0  0  0  0  0
  195.5180  174.1530  136.5450 C   0  0  0  0  0  1  0  0  0  0  0  0
  193.2330  175.0530  142.3320 C   0  0  0  0  0  2  0  0  0  0  0  0
  195.4850  174.8770  137.8810 C   0  0  2  0  0  3  0  0  0  0  0  0
  193.0040  176.1720  144.8720 O   0  0  0  0  0  0  0  0  0  0  0  0
  190.9370  176.7840  145.7520 N   0  0  0  0  0  0  0  0  0  0  0  0
  191.7420  175.0140  142.5150 C   0  0  0  0  0  0  0  0  0  0  0  0
  189.5810  175.3980  143.6520 C   0  0  0  0  0  2  0  0  0  0  0  0
  196.8970  174.9290  138.4700 C   0  0  0  0  0  2  0  0  0  0  0  0
  193.8320  172.7580  141.6000 C   0  0  0  0  0  1  0  0  0  0  0  0
  191.7520  176.1750  144.7380 C   0  0  0  0  0  0  0  0  0  0  0  0
  192.0760  173.3320  139.1050 C   0  0  1  0  0  3  0  0  0  0  0  0
  188.7620  177.3340  146.5630 N   0  0  0  0  0  2  0  0  0  0  0  0
  187.5840  177.0860  146.0950 C   0  0  1  0  0  3  0  0  0  0  0  0
  186.3290  177.4390  146.8260 C   0  0  0  0  0  2  0  0  0  0  0  0
  191.0450  174.3630  141.3650 C   0  0  0  0  0  2  0  0  0  0  0  0
  196.8870  175.4550  139.8800 C   0  0  0  0  0  0  0  0  0  0  0  0
  192.1730  174.2010  140.3750 C   0  0  1  0  0  3  0  0  0  0  0  0
  194.5500  174.6620  140.1660 C   0  0  0  0  0  0  0  0  0  0  0  0
  191.0840  175.5190  143.5740 C   0  0  0  0  0  0  0  0  0  0  0  0
  193.4600  173.2530  138.4040 C   0  0  0  0  0  2  0  0  0  0  0  0
  186.5780  177.3020  143.8290 C   0  0  2  0  0  3  0  0  0  0  0  0
  192.6180  170.8670  139.1750 C   0  0  0  0  0  2  0  0  0  0  0  0
  189.2550  171.2530  139.1130 O   0  0  0  0  0  1  0  0  0  0  0  0
  191.9860  169.7180  138.4230 C   0  0  0  0  0  2  0  0  0  0  0  0
  190.8520  170.3240  137.6210 C   0  0  1  0  0  3  0  0  0  0  0  0
  190.4120  171.5510  138.3930 C   0  0  2  0  0  3  0  0  0  0  0  0
  191.5300  171.9160  139.3650 C   0  0  2  0  0  3  0  0  0  0  0  0
  191.3380  170.7460  136.2420 C   0  0  0  0  0  2  0  0  0  0  0  0
  189.2140  171.4620  135.4300 O   0  0  0  0  0  1  0  0  0  0  0  0
  190.8850  173.0300  135.3500 O   0  0  0  0  0  0  0  0  0  0  0  0
  190.4190  171.7560  135.6450 C   0  0  0  0  0  0  0  0  0  0  0  0
  186.2980  176.5890  142.5090 C   0  0  0  0  0  2  0  0  0  0  0  0
  187.3330  176.9280  141.4430 C   0  0  0  0  0  2  0  0  0  0  0  0
  186.6510  177.3730  140.1600 C   0  0  0  0  0  2  0  0  0  0  0  0
  186.2200  176.4880  137.9930 O   0  0  0  0  0  0  0  0  0  0  0  0
  186.8510  176.3690  139.0780 C   0  0  0  0  0  0  0  0  0  0  0  0
  187.7550  175.3230  139.2690 O   0  0  0  0  0  0  0  0  0  0  0  0
  188.1300  174.4560  138.2100 C   0  0  0  0  0  1  0  0  0  0  0  0
  2 23  1  0  0  0  0
  3 16  1  1  0  0  0
  3  5  1  0  0  0  0
  3  6  1  0  0  0  0
  4 27  2  0  0  0  0
  5 22  1  0  0  0  0
  6 14  2  0  0  0  0
  6 21  1  0  0  0  0
  8  2  1  0  0  0  0
  9 18  1  0  0  0  0
  9 11  1  0  0  0  0
 10 12  1  0  0  0  0
 11 15  1  0  0  0  0
 12 17  1  0  0  0  0
 12  4  1  0  0  0  0
 15 28  2  0  0  0  0
 17 25  1  0  0  0  0
 19 13  2  0  0  0  0
 19 14  1  0  0  0  0
 20 36  1  0  0  0  0
 20 26  1  0  0  0  0
 22 21  1  0  0  0  0
 22 23  1  0  0  0  0
 24 15  1  0  0  0  0
 25  7  2  0  0  0  0
 25  1  1  0  0  0  0
 26  9  1  0  0  0  0
 26 24  1  0  0  0  0
 27  1  1  0  0  0  0
 27  9  1  0  0  0  0
 28 16  1  0  0  0  0
 28 19  1  0  0  0  0
 29  4  1  0  0  0  0
 29 20  1  0  0  0  0
 30  8  1  0  0  0  0
 30  5  1  0  0  0  0
 31 36  1  0  0  0  0
 33 31  1  0  0  0  0
 34 35  1  0  0  0  0
 34 33  1  0  0  0  0
 35 32  1  0  0  0  0
 35 36  1  0  0  0  0
 37 34  1  0  0  0  0
 38 40  1  0  0  0  0
 39 40  2  0  0  0  0
 40 37  1  0  0  0  0
 41 30  1  0  0  0  0
 42 41  1  0  0  0  0
 43 42  1  0  0  0  0
 44 45  2  0  0  0  0
 45 46  1  0  0  0  0
 45 43  1  0  0  0  0
 47 46  1  0  0  0  0
M  END
>  <MODEL>
9

>  <REMARK>
 VINA RESULT:      -6.8      1.469      2.070
  Name = 
  8 active torsions:
  status: ('A' for Active; 'I' for Inactive)
    1  A    between atoms: O_4  and  C_24
    2  A    between atoms: C_11  and  C_15
    3  A    between atoms: C_11  and  C_36
    4  A    between atoms: C_15  and  C_24
    5  A    between atoms: C_21  and  C_38
    6  A    between atoms: C_21  and  C_41
    7  A    between atoms: C_31  and  C_43
    8  A    between atoms: C_36  and  C_47
                            x       y       z     vdW  Elec       q    Type
                         _______ _______ _______ _____ _____    ______ ____

>  <TORSDO>
F 8

$$$$
