=
 OpenBabel11062420343D

 32 34  0  0  1  0  0  0  0  0999 V2000
  189.8910  176.2700  144.9300 C   0  0  0  0  0  0  0  0  0  0  0  0
  189.1190  177.0240  145.7160 C   0  0  0  0  0  3  0  0  0  0  0  0
  190.9970  176.9030  144.1310 C   0  0  1  0  0  3  0  0  0  0  0  0
  190.6720  178.2130  143.7710 O   0  0  0  0  0  1  0  0  0  0  0  0
  192.3540  176.8420  144.8260 C   0  0  0  0  0  2  0  0  0  0  0  0
  193.3550  176.2270  143.9700 N   0  0  0  0  0  1  0  0  0  0  0  0
  188.0000  176.4540  146.5200 C   0  0  0  0  0  2  0  0  0  0  0  0
  186.7090  176.5460  145.7260 C   0  0  0  0  0  2  0  0  0  0  0  0
  185.4290  180.0500  144.2190 S   0  0  0  0  0  0  0  0  0  0  0  0
  186.7100  177.8030  144.8760 C   0  0  1  0  0  3  0  0  0  0  0  0
  186.1300  177.5030  143.5040 C   0  0  1  0  0  3  0  0  0  0  0  0
  185.8350  178.8550  145.5120 C   0  0  0  0  0  2  0  0  0  0  0  0
  185.3940  178.7300  142.9700 C   0  0  1  0  0  3  0  0  0  0  0  0
  187.8880  177.9630  141.9590 O   0  0  0  0  0  0  0  0  0  0  0  0
  187.4730  175.7380  142.3350 O   0  0  0  0  0  1  0  0  0  0  0  0
  187.2110  177.0860  142.5590 C   0  0  0  0  0  0  0  0  0  0  0  0
  183.5070  178.2960  141.3380 C   0  0  0  0  0  0  0  0  0  0  0  0
  184.0110  178.3880  142.6710 N   0  0  0  0  0  2  0  0  0  0  0  0
  184.2470  178.5550  140.3530 O   0  0  0  0  0  0  0  0  0  0  0  0
  181.3760  179.0720  140.7100 O   0  0  0  0  0  1  0  0  0  0  0  0
  182.0810  177.9400  141.1170 C   0  0  0  0  0  2  0  0  0  0  0  0
  189.6650  174.8570  144.8470 N   0  0  0  0  0  2  0  0  0  0  0  0
  190.1970  172.1120  142.3740 N   0  0  0  0  0  0  0  0  0  0  0  0
  189.5000  172.9370  143.3760 C   0  0  1  0  0  3  0  0  0  0  0  0
  191.0520  171.7130  143.4990 C   0  0  0  0  0  2  0  0  0  0  0  0
  190.4000  172.5830  144.5060 C   0  0  1  0  0  3  0  0  0  0  0  0
  190.4210  173.9890  143.9580 C   0  0  2  0  0  3  0  0  0  0  0  0
  190.6650  170.7600  140.4720 C   0  0  0  0  0  2  0  0  0  0  0  0
  190.0840  171.8430  140.9740 C   0  0  0  0  0  0  0  0  0  0  0  0
  188.5260  172.2480  139.2330 O   0  0  0  0  0  0  0  0  0  0  0  0
  189.4040  174.1130  140.2220 O   0  0  0  0  0  1  0  0  0  0  0  0
  189.3030  172.7320  140.0970 C   0  0  0  0  0  0  0  0  0  0  0  0
  1  2  2  0  0  0  0
  2  7  1  0  0  0  0
  3  4  1  1  0  0  0
  3  5  1  0  0  0  0
  3  1  1  0  0  0  0
  6  5  1  0  0  0  0
  8  7  1  0  0  0  0
  9 12  1  0  0  0  0
 10 12  1  0  0  0  0
 10  8  1  1  0  0  0
 11 16  1  6  0  0  0
 11 10  1  0  0  0  0
 13 18  1  1  0  0  0
 13 11  1  0  0  0  0
 13  9  1  0  0  0  0
 14 16  2  0  0  0  0
 15 16  1  0  0  0  0
 17 18  1  0  0  0  0
 19 17  2  0  0  0  0
 20 21  1  0  0  0  0
 21 17  1  0  0  0  0
 22  1  1  0  0  0  0
 23 25  1  0  0  0  0
 24 23  1  6  0  0  0
 24 27  1  0  0  0  0
 24 26  1  0  0  0  0
 26 25  1  6  0  0  0
 27 26  1  0  0  0  0
 27 22  1  1  0  0  0
 28 29  2  0  0  0  0
 29 23  1  0  0  0  0
 30 32  2  0  0  0  0
 32 31  1  0  0  0  0
 32 29  1  0  0  0  0
M  END
>  <MODEL>
1

>  <REMARK>
 VINA RESULT:      -6.0      0.000      0.000
  Name = 
  12 active torsions:
  status: ('A' for Active; 'I' for Inactive)
    1  A    between atoms: C_2  and  C_8
    2  A    between atoms: C_2  and  C_31
    3  A    between atoms: C_5  and  C_13
    4  A    between atoms: C_7  and  C_13
    5  A    between atoms: C_7  and  N_29
    6  A    between atoms: C_10  and  C_11
    7  A    between atoms: C_12  and  C_31
    8  A    between atoms: C_15  and  C_16
    9  A    between atoms: N_17  and  C_23
   10  A    between atoms: N_20  and  C_26
   11  A    between atoms: C_23  and  C_24
   12  A    between atoms: N_29  and  C_32
                            x       y       z     vdW  Elec       q    Type
                         _______ _______ _______ _____ _____    ______ ____

>  <TORSDO>
F 12

$$$$
=
 OpenBabel11062420343D

 32 34  0  0  1  0  0  0  0  0999 V2000
  187.6690  176.4440  145.9920 C   0  0  0  0  0  0  0  0  0  0  0  0
  188.3530  175.7700  146.9180 C   0  0  0  0  0  3  0  0  0  0  0  0
  186.5370  177.3460  146.4020 C   0  0  1  0  0  3  0  0  0  0  0  0
  185.3400  176.6350  146.5110 O   0  0  0  0  0  1  0  0  0  0  0  0
  186.8270  178.1390  147.6730 C   0  0  0  0  0  2  0  0  0  0  0  0
  186.0230  179.3480  147.7340 N   0  0  0  0  0  1  0  0  0  0  0  0
  189.4760  174.8510  146.5710 C   0  0  0  0  0  2  0  0  0  0  0  0
  190.7950  175.5900  146.7120 C   0  0  0  0  0  2  0  0  0  0  0  0
  192.1930  174.0240  143.2810 S   0  0  0  0  0  0  0  0  0  0  0  0
  191.5830  175.4990  145.4190 C   0  0  1  0  0  3  0  0  0  0  0  0
  192.9940  175.0130  145.7030 C   0  0  1  0  0  3  0  0  0  0  0  0
  190.9400  174.4940  144.4950 C   0  0  0  0  0  2  0  0  0  0  0  0
  193.5030  174.1780  144.5300 C   0  0  1  0  0  3  0  0  0  0  0  0
  194.7830  176.4740  145.1080 O   0  0  0  0  0  0  0  0  0  0  0  0
  193.7920  176.9130  147.1300 O   0  0  0  0  0  1  0  0  0  0  0  0
  193.9050  176.1700  145.9600 C   0  0  0  0  0  0  0  0  0  0  0  0
  195.2310  172.5030  145.3200 C   0  0  0  0  0  0  0  0  0  0  0  0
  193.8850  172.8520  144.9930 N   0  0  0  0  0  2  0  0  0  0  0  0
  196.1620  173.3370  145.1750 O   0  0  0  0  0  0  0  0  0  0  0  0
  196.8520  171.0740  146.2490 O   0  0  0  0  0  1  0  0  0  0  0  0
  195.5380  171.1260  145.7870 C   0  0  0  0  0  2  0  0  0  0  0  0
  188.0100  176.3070  144.6070 N   0  0  0  0  0  2  0  0  0  0  0  0
  185.9580  177.4850  141.7210 N   0  0  0  0  0  0  0  0  0  0  0  0
  186.5420  176.5450  142.6930 C   0  0  1  0  0  3  0  0  0  0  0  0
  187.3330  177.6050  141.2180 C   0  0  0  0  0  2  0  0  0  0  0  0
  187.9450  176.7090  142.2270 C   0  0  1  0  0  3  0  0  0  0  0  0
  187.5520  177.2350  143.5860 C   0  0  2  0  0  3  0  0  0  0  0  0
  184.3180  178.2130  140.1570 C   0  0  0  0  0  2  0  0  0  0  0  0
  184.6650  178.0180  141.4240 C   0  0  0  0  0  0  0  0  0  0  0  0
  184.0930  178.3570  143.7000 O   0  0  0  0  0  1  0  0  0  0  0  0
  182.3720  178.5730  142.2100 O   0  0  0  0  0  0  0  0  0  0  0  0
  183.7070  178.3170  142.5020 C   0  0  0  0  0  0  0  0  0  0  0  0
  1  3  1  0  0  0  0
  1  2  2  0  0  0  0
  3  4  1  1  0  0  0
  3  5  1  0  0  0  0
  5  6  1  0  0  0  0
  7  8  1  0  0  0  0
  7  2  1  0  0  0  0
  9 12  1  0  0  0  0
  9 13  1  0  0  0  0
 10 11  1  0  0  0  0
 10  8  1  1  0  0  0
 11 16  1  6  0  0  0
 12 10  1  0  0  0  0
 13 18  1  1  0  0  0
 13 11  1  0  0  0  0
 14 16  2  0  0  0  0
 16 15  1  0  0  0  0
 17 21  1  0  0  0  0
 18 17  1  0  0  0  0
 19 17  2  0  0  0  0
 21 20  1  0  0  0  0
 22  1  1  0  0  0  0
 24 23  1  6  0  0  0
 24 27  1  0  0  0  0
 25 23  1  0  0  0  0
 26 25  1  6  0  0  0
 26 24  1  0  0  0  0
 26 27  1  0  0  0  0
 27 22  1  1  0  0  0
 28 29  2  0  0  0  0
 29 23  1  0  0  0  0
 29 32  1  0  0  0  0
 31 32  2  0  0  0  0
 32 30  1  0  0  0  0
M  END
>  <MODEL>
2

>  <REMARK>
 VINA RESULT:      -5.7      3.809      8.579
  Name = 
  12 active torsions:
  status: ('A' for Active; 'I' for Inactive)
    1  A    between atoms: C_2  and  C_8
    2  A    between atoms: C_2  and  C_31
    3  A    between atoms: C_5  and  C_13
    4  A    between atoms: C_7  and  C_13
    5  A    between atoms: C_7  and  N_29
    6  A    between atoms: C_10  and  C_11
    7  A    between atoms: C_12  and  C_31
    8  A    between atoms: C_15  and  C_16
    9  A    between atoms: N_17  and  C_23
   10  A    between atoms: N_20  and  C_26
   11  A    between atoms: C_23  and  C_24
   12  A    between atoms: N_29  and  C_32
                            x       y       z     vdW  Elec       q    Type
                         _______ _______ _______ _____ _____    ______ ____

>  <TORSDO>
F 12

$$$$
=
 OpenBabel11062420343D

 32 34  0  0  1  0  0  0  0  0999 V2000
  190.3620  174.3040  143.7370 C   0  0  0  0  0  0  0  0  0  0  0  0
  189.2590  175.0530  143.6820 C   0  0  0  0  0  3  0  0  0  0  0  0
  190.7050  173.3850  142.5960 C   0  0  1  0  0  3  0  0  0  0  0  0
  191.6960  173.9380  141.7830 O   0  0  0  0  0  1  0  0  0  0  0  0
  191.0840  171.9780  143.0490 C   0  0  0  0  0  2  0  0  0  0  0  0
  190.6860  170.9840  142.0660 N   0  0  0  0  0  1  0  0  0  0  0  0
  188.8620  175.9720  144.7870 C   0  0  0  0  0  2  0  0  0  0  0  0
  187.3730  176.2590  144.6950 C   0  0  0  0  0  2  0  0  0  0  0  0
  185.5790  179.8380  144.2960 S   0  0  0  0  0  0  0  0  0  0  0  0
  187.1460  177.6800  144.2130 C   0  0  1  0  0  3  0  0  0  0  0  0
  186.4360  177.6650  142.8700 C   0  0  1  0  0  3  0  0  0  0  0  0
  186.2560  178.4160  145.1830 C   0  0  0  0  0  2  0  0  0  0  0  0
  185.5220  178.8840  142.7510 C   0  0  1  0  0  3  0  0  0  0  0  0
  188.5090  178.2800  141.8640 O   0  0  0  0  0  1  0  0  0  0  0  0
  187.1670  176.9220  140.5910 O   0  0  0  0  0  0  0  0  0  0  0  0
  187.4280  177.6410  141.7520 C   0  0  0  0  0  0  0  0  0  0  0  0
  183.6080  178.3330  141.1860 C   0  0  0  0  0  0  0  0  0  0  0  0
  184.1540  178.4550  142.5000 N   0  0  0  0  0  2  0  0  0  0  0  0
  184.2950  178.6380  140.1770 O   0  0  0  0  0  0  0  0  0  0  0  0
  181.3480  178.9840  141.1440 O   0  0  0  0  0  1  0  0  0  0  0  0
  182.2000  177.8880  141.0160 C   0  0  0  0  0  2  0  0  0  0  0  0
  191.2210  174.3750  144.8830 N   0  0  0  0  0  2  0  0  0  0  0  0
  194.8390  174.8300  145.6790 N   0  0  0  0  0  0  0  0  0  0  0  0
  193.4730  174.2840  145.7720 C   0  0  1  0  0  3  0  0  0  0  0  0
  194.2300  176.0660  146.1890 C   0  0  0  0  0  2  0  0  0  0  0  0
  192.8420  175.5500  146.2310 C   0  0  1  0  0  3  0  0  0  0  0  0
  192.5220  175.0220  144.8530 C   0  0  2  0  0  3  0  0  0  0  0  0
  196.8420  173.6240  146.1180 C   0  0  0  0  0  2  0  0  0  0  0  0
  196.1300  174.3650  145.2780 C   0  0  0  0  0  0  0  0  0  0  0  0
  197.8390  175.0750  143.7960 O   0  0  0  0  0  1  0  0  0  0  0  0
  195.8590  174.4950  142.8100 O   0  0  0  0  0  0  0  0  0  0  0  0
  196.6560  174.6680  143.9360 C   0  0  0  0  0  0  0  0  0  0  0  0
  1 22  1  0  0  0  0
  2  1  2  0  0  0  0
  2  7  1  0  0  0  0
  3  4  1  1  0  0  0
  3  5  1  0  0  0  0
  3  1  1  0  0  0  0
  6  5  1  0  0  0  0
  8  7  1  0  0  0  0
  9 12  1  0  0  0  0
 10  8  1  1  0  0  0
 10 12  1  0  0  0  0
 11 16  1  6  0  0  0
 11 10  1  0  0  0  0
 13 18  1  1  0  0  0
 13 11  1  0  0  0  0
 13  9  1  0  0  0  0
 15 16  2  0  0  0  0
 16 14  1  0  0  0  0
 17 18  1  0  0  0  0
 19 17  2  0  0  0  0
 21 20  1  0  0  0  0
 21 17  1  0  0  0  0
 23 25  1  0  0  0  0
 24 23  1  6  0  0  0
 24 26  1  0  0  0  0
 26 25  1  6  0  0  0
 27 22  1  1  0  0  0
 27 24  1  0  0  0  0
 27 26  1  0  0  0  0
 29 23  1  0  0  0  0
 29 28  2  0  0  0  0
 30 32  1  0  0  0  0
 31 32  2  0  0  0  0
 32 29  1  0  0  0  0
M  END
>  <MODEL>
3

>  <REMARK>
 VINA RESULT:      -5.7      2.714      4.453
  Name = 
  12 active torsions:
  status: ('A' for Active; 'I' for Inactive)
    1  A    between atoms: C_2  and  C_8
    2  A    between atoms: C_2  and  C_31
    3  A    between atoms: C_5  and  C_13
    4  A    between atoms: C_7  and  C_13
    5  A    between atoms: C_7  and  N_29
    6  A    between atoms: C_10  and  C_11
    7  A    between atoms: C_12  and  C_31
    8  A    between atoms: C_15  and  C_16
    9  A    between atoms: N_17  and  C_23
   10  A    between atoms: N_20  and  C_26
   11  A    between atoms: C_23  and  C_24
   12  A    between atoms: N_29  and  C_32
                            x       y       z     vdW  Elec       q    Type
                         _______ _______ _______ _____ _____    ______ ____

>  <TORSDO>
F 12

$$$$
=
 OpenBabel11062420343D

 32 34  0  0  1  0  0  0  0  0999 V2000
  187.5700  177.3520  145.7100 C   0  0  0  0  0  0  0  0  0  0  0  0
  188.4840  177.0550  146.6360 C   0  0  0  0  0  3  0  0  0  0  0  0
  186.1200  177.4700  146.0930 C   0  0  1  0  0  3  0  0  0  0  0  0
  185.8760  176.8690  147.3300 O   0  0  0  0  0  1  0  0  0  0  0  0
  185.6040  178.9060  146.0650 C   0  0  0  0  0  2  0  0  0  0  0  0
  184.1790  178.9460  145.7820 N   0  0  0  0  0  1  0  0  0  0  0  0
  189.9320  176.9120  146.3130 C   0  0  0  0  0  2  0  0  0  0  0  0
  190.2630  175.4430  146.1130 C   0  0  0  0  0  2  0  0  0  0  0  0
  194.1840  176.2960  146.3890 S   0  0  0  0  0  0  0  0  0  0  0  0
  191.7480  175.2110  146.3210 C   0  0  1  0  0  3  0  0  0  0  0  0
  192.3880  174.7470  145.0240 C   0  0  1  0  0  3  0  0  0  0  0  0
  192.4200  176.5030  146.7160 C   0  0  0  0  0  2  0  0  0  0  0  0
  193.8240  175.2620  144.9400 C   0  0  1  0  0  3  0  0  0  0  0  0
  193.4120  172.5960  145.1330 O   0  0  0  0  0  1  0  0  0  0  0  0
  191.1760  172.5910  144.6170 O   0  0  0  0  0  0  0  0  0  0  0  0
  192.3580  173.2550  144.9290 C   0  0  0  0  0  0  0  0  0  0  0  0
  194.6080  175.5320  142.5460 C   0  0  0  0  0  0  0  0  0  0  0  0
  193.9980  176.0510  143.7290 N   0  0  0  0  0  2  0  0  0  0  0  0
  195.0650  174.3600  142.5230 O   0  0  0  0  0  0  0  0  0  0  0  0
  196.0330  176.9420  141.3150 O   0  0  0  0  0  1  0  0  0  0  0  0
  194.7470  176.4040  141.3510 C   0  0  0  0  0  2  0  0  0  0  0  0
  187.9710  177.5590  144.3490 N   0  0  0  0  0  2  0  0  0  0  0  0
  188.6600  175.3480  141.4220 N   0  0  0  0  0  0  0  0  0  0  0  0
  188.8940  176.3890  142.4370 C   0  0  1  0  0  3  0  0  0  0  0  0
  187.6470  176.2760  140.9030 C   0  0  0  0  0  2  0  0  0  0  0  0
  187.8290  177.3060  141.9520 C   0  0  1  0  0  3  0  0  0  0  0  0
  187.6600  176.6170  143.2850 C   0  0  2  0  0  3  0  0  0  0  0  0
  188.3770  173.1480  140.5610 C   0  0  0  0  0  2  0  0  0  0  0  0
  189.1790  174.0530  141.1070 C   0  0  0  0  0  0  0  0  0  0  0  0
  191.4270  174.6500  141.5680 O   0  0  0  0  0  1  0  0  0  0  0  0
  191.0270  172.4090  141.3540 O   0  0  0  0  0  0  0  0  0  0  0  0
  190.5960  173.7300  141.3490 C   0  0  0  0  0  0  0  0  0  0  0  0
  1  3  1  0  0  0  0
  1  2  2  0  0  0  0
  3  4  1  1  0  0  0
  5  3  1  0  0  0  0
  6  5  1  0  0  0  0
  7  2  1  0  0  0  0
  8  7  1  0  0  0  0
  9 12  1  0  0  0  0
 10  8  1  6  0  0  0
 10 12  1  0  0  0  0
 11 16  1  1  0  0  0
 11 10  1  0  0  0  0
 13 18  1  6  0  0  0
 13 11  1  0  0  0  0
 13  9  1  0  0  0  0
 15 16  2  0  0  0  0
 16 14  1  0  0  0  0
 17 18  1  0  0  0  0
 19 17  2  0  0  0  0
 20 21  1  0  0  0  0
 21 17  1  0  0  0  0
 22  1  1  0  0  0  0
 24 23  1  6  0  0  0
 24 27  1  0  0  0  0
 25 23  1  0  0  0  0
 26 25  1  6  0  0  0
 26 24  1  0  0  0  0
 26 27  1  0  0  0  0
 27 22  1  1  0  0  0
 28 29  2  0  0  0  0
 29 32  1  0  0  0  0
 29 23  1  0  0  0  0
 32 31  2  0  0  0  0
 32 30  1  0  0  0  0
M  END
>  <MODEL>
4

>  <REMARK>
 VINA RESULT:      -5.6      3.748      7.146
  Name = 
  12 active torsions:
  status: ('A' for Active; 'I' for Inactive)
    1  A    between atoms: C_2  and  C_8
    2  A    between atoms: C_2  and  C_31
    3  A    between atoms: C_5  and  C_13
    4  A    between atoms: C_7  and  C_13
    5  A    between atoms: C_7  and  N_29
    6  A    between atoms: C_10  and  C_11
    7  A    between atoms: C_12  and  C_31
    8  A    between atoms: C_15  and  C_16
    9  A    between atoms: N_17  and  C_23
   10  A    between atoms: N_20  and  C_26
   11  A    between atoms: C_23  and  C_24
   12  A    between atoms: N_29  and  C_32
                            x       y       z     vdW  Elec       q    Type
                         _______ _______ _______ _____ _____    ______ ____

>  <TORSDO>
F 12

$$$$
=
 OpenBabel11062420343D

 32 34  0  0  1  0  0  0  0  0999 V2000
  189.4790  175.2070  143.0030 C   0  0  0  0  0  0  0  0  0  0  0  0
  190.6820  174.6600  142.8190 C   0  0  0  0  0  3  0  0  0  0  0  0
  188.3500  174.8760  142.0660 C   0  0  1  0  0  3  0  0  0  0  0  0
  188.0040  175.9790  141.2830 O   0  0  0  0  0  1  0  0  0  0  0  0
  188.6240  173.6490  141.2010 C   0  0  0  0  0  2  0  0  0  0  0  0
  188.6400  173.9940  139.7890 N   0  0  0  0  0  1  0  0  0  0  0  0
  191.8410  174.9610  143.7070 C   0  0  0  0  0  2  0  0  0  0  0  0
  192.3960  176.3340  143.3660 C   0  0  0  0  0  2  0  0  0  0  0  0
  196.3520  175.6930  143.7080 S   0  0  0  0  0  0  0  0  0  0  0  0
  193.8080  176.4720  143.9030 C   0  0  1  0  0  3  0  0  0  0  0  0
  193.9990  175.5570  145.1000 C   0  0  1  0  0  3  0  0  0  0  0  0
  194.8020  176.0490  142.8500 C   0  0  0  0  0  2  0  0  0  0  0  0
  195.4430  175.0590  145.1480 C   0  0  1  0  0  3  0  0  0  0  0  0
  194.3800  177.2070  146.7790 O   0  0  0  0  0  0  0  0  0  0  0  0
  192.5170  175.9030  147.0910 O   0  0  0  0  0  1  0  0  0  0  0  0
  193.6470  176.2690  146.3660 C   0  0  0  0  0  0  0  0  0  0  0  0
  196.3720  172.8330  145.9210 C   0  0  0  0  0  0  0  0  0  0  0  0
  195.4670  173.6030  145.1300 N   0  0  0  0  0  2  0  0  0  0  0  0
  197.2310  173.4000  146.6470 O   0  0  0  0  0  0  0  0  0  0  0  0
  197.0250  170.9220  144.7130 O   0  0  0  0  0  1  0  0  0  0  0  0
  196.3320  171.3490  145.8450 C   0  0  0  0  0  2  0  0  0  0  0  0
  189.2620  176.1130  144.0940 N   0  0  0  0  0  2  0  0  0  0  0  0
  186.3890  177.6850  145.8840 N   0  0  0  0  0  0  0  0  0  0  0  0
  187.7020  177.5850  145.2220 C   0  0  1  0  0  3  0  0  0  0  0  0
  187.0000  176.8410  146.9180 C   0  0  0  0  0  2  0  0  0  0  0  0
  188.3060  176.6800  146.2360 C   0  0  1  0  0  3  0  0  0  0  0  0
  188.0220  176.1520  144.8510 C   0  0  2  0  0  3  0  0  0  0  0  0
  184.1870  178.2800  146.5600 C   0  0  0  0  0  2  0  0  0  0  0  0
  185.1290  178.3100  145.6260 C   0  0  0  0  0  0  0  0  0  0  0  0
  185.4230  180.1270  144.1320 O   0  0  0  0  0  1  0  0  0  0  0  0
  184.0660  178.4460  143.3830 O   0  0  0  0  0  0  0  0  0  0  0  0
  184.8830  179.0120  144.3550 C   0  0  0  0  0  0  0  0  0  0  0  0
  1 22  1  0  0  0  0
  2  1  2  0  0  0  0
  2  7  1  0  0  0  0
  3  4  1  6  0  0  0
  3  1  1  0  0  0  0
  5  3  1  0  0  0  0
  6  5  1  0  0  0  0
  8  7  1  0  0  0  0
  9 13  1  0  0  0  0
 10  8  1  6  0  0  0
 10 11  1  0  0  0  0
 11 13  1  0  0  0  0
 11 16  1  1  0  0  0
 12  9  1  0  0  0  0
 12 10  1  0  0  0  0
 13 18  1  6  0  0  0
 16 14  2  0  0  0  0
 16 15  1  0  0  0  0
 17 19  2  0  0  0  0
 18 17  1  0  0  0  0
 20 21  1  0  0  0  0
 21 17  1  0  0  0  0
 23 25  1  0  0  0  0
 24 23  1  1  0  0  0
 24 26  1  0  0  0  0
 26 25  1  1  0  0  0
 27 22  1  6  0  0  0
 27 24  1  0  0  0  0
 27 26  1  0  0  0  0
 29 23  1  0  0  0  0
 29 28  2  0  0  0  0
 30 32  1  0  0  0  0
 31 32  2  0  0  0  0
 32 29  1  0  0  0  0
M  END
>  <MODEL>
5

>  <REMARK>
 VINA RESULT:      -5.6      4.144      9.159
  Name = 
  12 active torsions:
  status: ('A' for Active; 'I' for Inactive)
    1  A    between atoms: C_2  and  C_8
    2  A    between atoms: C_2  and  C_31
    3  A    between atoms: C_5  and  C_13
    4  A    between atoms: C_7  and  C_13
    5  A    between atoms: C_7  and  N_29
    6  A    between atoms: C_10  and  C_11
    7  A    between atoms: C_12  and  C_31
    8  A    between atoms: C_15  and  C_16
    9  A    between atoms: N_17  and  C_23
   10  A    between atoms: N_20  and  C_26
   11  A    between atoms: C_23  and  C_24
   12  A    between atoms: N_29  and  C_32
                            x       y       z     vdW  Elec       q    Type
                         _______ _______ _______ _____ _____    ______ ____

>  <TORSDO>
F 12

$$$$
=
 OpenBabel11062420343D

 32 34  0  0  1  0  0  0  0  0999 V2000
  194.6260  175.5380  143.3800 C   0  0  0  0  0  0  0  0  0  0  0  0
  193.8770  176.4200  144.0450 C   0  0  0  0  0  3  0  0  0  0  0  0
  195.5920  176.0120  142.3290 C   0  0  1  0  0  3  0  0  0  0  0  0
  194.9380  176.7460  141.3380 O   0  0  0  0  0  1  0  0  0  0  0  0
  196.7730  176.7900  142.9020 C   0  0  0  0  0  2  0  0  0  0  0  0
  197.9090  175.9160  143.1460 N   0  0  0  0  0  1  0  0  0  0  0  0
  192.8930  176.0090  145.0870 C   0  0  0  0  0  2  0  0  0  0  0  0
  191.7310  176.9870  145.1000 C   0  0  0  0  0  2  0  0  0  0  0  0
  188.5260  176.8030  142.6760 S   0  0  0  0  0  0  0  0  0  0  0  0
  190.5400  176.3880  144.3770 C   0  0  1  0  0  3  0  0  0  0  0  0
  189.3130  176.4340  145.2710 C   0  0  1  0  0  3  0  0  0  0  0  0
  190.2260  177.1980  143.1430 C   0  0  0  0  0  2  0  0  0  0  0  0
  188.0570  176.6250  144.4230 C   0  0  1  0  0  3  0  0  0  0  0  0
  188.6980  175.2290  147.2360 O   0  0  0  0  0  1  0  0  0  0  0  0
  189.6800  173.9740  145.5850 O   0  0  0  0  0  0  0  0  0  0  0  0
  189.2110  175.1840  146.0860 C   0  0  0  0  0  0  0  0  0  0  0  0
  186.2260  177.7760  145.7420 C   0  0  0  0  0  0  0  0  0  0  0  0
  187.3440  177.8180  144.8540 N   0  0  0  0  0  2  0  0  0  0  0  0
  185.7820  176.6740  146.1590 O   0  0  0  0  0  0  0  0  0  0  0  0
  184.1710  178.8830  146.0340 O   0  0  0  0  0  1  0  0  0  0  0  0
  185.5530  179.0410  146.1340 C   0  0  0  0  0  2  0  0  0  0  0  0
  194.5090  174.1380  143.6670 N   0  0  0  0  0  2  0  0  0  0  0  0
  196.2210  171.6490  145.8590 N   0  0  0  0  0  0  0  0  0  0  0  0
  195.1670  172.5640  145.3890 C   0  0  1  0  0  3  0  0  0  0  0  0
  196.9920  172.8770  146.0900 C   0  0  0  0  0  2  0  0  0  0  0  0
  195.9650  173.8060  145.5640 C   0  0  1  0  0  3  0  0  0  0  0  0
  195.6170  173.3420  144.1710 C   0  0  2  0  0  3  0  0  0  0  0  0
  197.5850  169.7010  145.7690 C   0  0  0  0  0  2  0  0  0  0  0  0
  196.3950  170.2370  146.0090 C   0  0  0  0  0  0  0  0  0  0  0  0
  195.3500  168.7850  147.5640 O   0  0  0  0  0  1  0  0  0  0  0  0
  194.1390  169.2470  145.6810 O   0  0  0  0  0  0  0  0  0  0  0  0
  195.2810  169.3850  146.4600 C   0  0  0  0  0  0  0  0  0  0  0  0
  1 22  1  0  0  0  0
  1  2  2  0  0  0  0
  2  7  1  0  0  0  0
  3  4  1  6  0  0  0
  3  5  1  0  0  0  0
  3  1  1  0  0  0  0
  5  6  1  0  0  0  0
  7  8  1  0  0  0  0
  9 12  1  0  0  0  0
  9 13  1  0  0  0  0
 10  8  1  1  0  0  0
 10 11  1  0  0  0  0
 11 16  1  6  0  0  0
 12 10  1  0  0  0  0
 13 18  1  1  0  0  0
 13 11  1  0  0  0  0
 15 16  2  0  0  0  0
 16 14  1  0  0  0  0
 17 21  1  0  0  0  0
 17 19  2  0  0  0  0
 18 17  1  0  0  0  0
 20 21  1  0  0  0  0
 23 29  1  0  0  0  0
 23 25  1  0  0  0  0
 24 26  1  0  0  0  0
 24 23  1  6  0  0  0
 26 25  1  6  0  0  0
 27 22  1  1  0  0  0
 27 24  1  0  0  0  0
 27 26  1  0  0  0  0
 28 29  2  0  0  0  0
 29 32  1  0  0  0  0
 31 32  2  0  0  0  0
 32 30  1  0  0  0  0
M  END
>  <MODEL>
6

>  <REMARK>
 VINA RESULT:      -5.6      4.680      6.066
  Name = 
  12 active torsions:
  status: ('A' for Active; 'I' for Inactive)
    1  A    between atoms: C_2  and  C_8
    2  A    between atoms: C_2  and  C_31
    3  A    between atoms: C_5  and  C_13
    4  A    between atoms: C_7  and  C_13
    5  A    between atoms: C_7  and  N_29
    6  A    between atoms: C_10  and  C_11
    7  A    between atoms: C_12  and  C_31
    8  A    between atoms: C_15  and  C_16
    9  A    between atoms: N_17  and  C_23
   10  A    between atoms: N_20  and  C_26
   11  A    between atoms: C_23  and  C_24
   12  A    between atoms: N_29  and  C_32
                            x       y       z     vdW  Elec       q    Type
                         _______ _______ _______ _____ _____    ______ ____

>  <TORSDO>
F 12

$$$$
=
 OpenBabel11062420343D

 32 34  0  0  1  0  0  0  0  0999 V2000
  190.5890  176.2820  144.4920 C   0  0  0  0  0  0  0  0  0  0  0  0
  191.8910  176.2710  144.7830 C   0  0  0  0  0  3  0  0  0  0  0  0
  190.1400  176.2990  143.0560 C   0  0  1  0  0  3  0  0  0  0  0  0
  190.4360  177.5220  142.4500 O   0  0  0  0  0  1  0  0  0  0  0  0
  190.6860  175.1320  142.2390 C   0  0  0  0  0  2  0  0  0  0  0  0
  189.6480  174.5370  141.4140 N   0  0  0  0  0  1  0  0  0  0  0  0
  192.3950  176.2670  146.1870 C   0  0  0  0  0  2  0  0  0  0  0  0
  192.7830  174.8510  146.5800 C   0  0  0  0  0  2  0  0  0  0  0  0
  193.3300  171.8530  143.9540 S   0  0  0  0  0  0  0  0  0  0  0  0
  193.3350  174.1110  145.3760 C   0  0  1  0  0  3  0  0  0  0  0  0
  194.6580  173.4540  145.7330 C   0  0  1  0  0  3  0  0  0  0  0  0
  192.3850  173.0120  144.9680 C   0  0  0  0  0  2  0  0  0  0  0  0
  194.8200  172.1520  144.9500 C   0  0  1  0  0  3  0  0  0  0  0  0
  196.9280  174.1510  145.9540 O   0  0  0  0  0  1  0  0  0  0  0  0
  195.6140  175.4960  144.6390 O   0  0  0  0  0  0  0  0  0  0  0  0
  195.7960  174.3820  145.4510 C   0  0  0  0  0  0  0  0  0  0  0  0
  196.2930  170.4560  146.1190 C   0  0  0  0  0  0  0  0  0  0  0  0
  195.0150  171.0410  145.8700 N   0  0  0  0  0  2  0  0  0  0  0  0
  197.3140  170.8620  145.5050 O   0  0  0  0  0  0  0  0  0  0  0  0
  195.1460  168.7720  147.2950 O   0  0  0  0  0  1  0  0  0  0  0  0
  196.4070  169.3230  147.0750 C   0  0  0  0  0  2  0  0  0  0  0  0
  189.6180  176.2780  145.5460 N   0  0  0  0  0  2  0  0  0  0  0  0
  186.2280  177.7960  145.1750 N   0  0  0  0  0  0  0  0  0  0  0  0
  187.6530  177.6990  145.5350 C   0  0  1  0  0  3  0  0  0  0  0  0
  186.0320  176.8100  146.2450 C   0  0  0  0  0  2  0  0  0  0  0  0
  187.4680  176.6550  146.5780 C   0  0  1  0  0  3  0  0  0  0  0  0
  188.1850  176.3000  145.2980 C   0  0  2  0  0  3  0  0  0  0  0  0
  185.1740  179.7990  144.4410 C   0  0  0  0  0  2  0  0  0  0  0  0
  185.4310  178.5140  144.2290 C   0  0  0  0  0  0  0  0  0  0  0  0
  185.6170  176.9670  142.4430 O   0  0  0  0  0  0  0  0  0  0  0  0
  183.6860  178.1900  142.4890 O   0  0  0  0  0  1  0  0  0  0  0  0
  184.9290  177.8530  143.0130 C   0  0  0  0  0  0  0  0  0  0  0  0
  1  2  2  0  0  0  0
  1 22  1  0  0  0  0
  2  7  1  0  0  0  0
  3  4  1  6  0  0  0
  3  1  1  0  0  0  0
  5  3  1  0  0  0  0
  6  5  1  0  0  0  0
  7  8  1  0  0  0  0
  9 13  1  0  0  0  0
  9 12  1  0  0  0  0
 10 11  1  0  0  0  0
 10  8  1  1  0  0  0
 11 16  1  6  0  0  0
 12 10  1  0  0  0  0
 13 11  1  0  0  0  0
 13 18  1  1  0  0  0
 15 16  2  0  0  0  0
 16 14  1  0  0  0  0
 17 21  1  0  0  0  0
 18 17  1  0  0  0  0
 19 17  2  0  0  0  0
 21 20  1  0  0  0  0
 23 25  1  0  0  0  0
 24 23  1  6  0  0  0
 24 26  1  0  0  0  0
 26 25  1  6  0  0  0
 27 24  1  0  0  0  0
 27 22  1  1  0  0  0
 27 26  1  0  0  0  0
 29 28  2  0  0  0  0
 29 23  1  0  0  0  0
 30 32  2  0  0  0  0
 31 32  1  0  0  0  0
 32 29  1  0  0  0  0
M  END
>  <MODEL>
7

>  <REMARK>
 VINA RESULT:      -5.5      4.599      9.295
  Name = 
  12 active torsions:
  status: ('A' for Active; 'I' for Inactive)
    1  A    between atoms: C_2  and  C_8
    2  A    between atoms: C_2  and  C_31
    3  A    between atoms: C_5  and  C_13
    4  A    between atoms: C_7  and  C_13
    5  A    between atoms: C_7  and  N_29
    6  A    between atoms: C_10  and  C_11
    7  A    between atoms: C_12  and  C_31
    8  A    between atoms: C_15  and  C_16
    9  A    between atoms: N_17  and  C_23
   10  A    between atoms: N_20  and  C_26
   11  A    between atoms: C_23  and  C_24
   12  A    between atoms: N_29  and  C_32
                            x       y       z     vdW  Elec       q    Type
                         _______ _______ _______ _____ _____    ______ ____

>  <TORSDO>
F 12

$$$$
=
 OpenBabel11062420343D

 32 34  0  0  1  0  0  0  0  0999 V2000
  192.5680  175.0600  146.3630 C   0  0  0  0  0  0  0  0  0  0  0  0
  191.3920  175.4520  146.8580 C   0  0  0  0  0  3  0  0  0  0  0  0
  193.7520  175.9860  146.4150 C   0  0  1  0  0  3  0  0  0  0  0  0
  194.9470  175.2710  146.5120 O   0  0  0  0  0  1  0  0  0  0  0  0
  193.7940  176.9770  145.2550 C   0  0  0  0  0  2  0  0  0  0  0  0
  195.1400  177.1060  144.7230 N   0  0  0  0  0  1  0  0  0  0  0  0
  190.1800  174.5830  146.8230 C   0  0  0  0  0  2  0  0  0  0  0  0
  189.2740  175.0250  145.6860 C   0  0  0  0  0  2  0  0  0  0  0  0
  186.6710  177.9160  146.7050 S   0  0  0  0  0  0  0  0  0  0  0  0
  188.7490  176.4230  145.9540 C   0  0  1  0  0  3  0  0  0  0  0  0
  188.2680  177.0530  144.6580 C   0  0  1  0  0  3  0  0  0  0  0  0
  187.5670  176.3590  146.8880 C   0  0  0  0  0  2  0  0  0  0  0  0
  187.0900  177.9840  144.9390 C   0  0  1  0  0  3  0  0  0  0  0  0
  189.3300  178.0180  142.7530 O   0  0  0  0  0  0  0  0  0  0  0  0
  190.4690  178.2500  144.7310 O   0  0  0  0  0  1  0  0  0  0  0  0
  189.3800  177.7980  143.9930 C   0  0  0  0  0  0  0  0  0  0  0  0
  185.2370  178.4620  143.2800 C   0  0  0  0  0  0  0  0  0  0  0  0
  185.9350  177.5740  144.1540 N   0  0  0  0  0  2  0  0  0  0  0  0
  185.5780  179.6700  143.1880 O   0  0  0  0  0  0  0  0  0  0  0  0
  184.3860  177.9160  141.1550 O   0  0  0  0  0  1  0  0  0  0  0  0
  184.0660  177.9640  142.5120 C   0  0  0  0  0  2  0  0  0  0  0  0
  192.7020  173.7560  145.7820 N   0  0  0  0  0  2  0  0  0  0  0  0
  191.4880  172.3340  142.5520 N   0  0  0  0  0  0  0  0  0  0  0  0
  191.6240  172.5040  144.0090 C   0  0  1  0  0  3  0  0  0  0  0  0
  192.8790  171.8680  142.6150 C   0  0  0  0  0  2  0  0  0  0  0  0
  193.0510  172.0900  144.0700 C   0  0  1  0  0  3  0  0  0  0  0  0
  192.6860  173.5290  144.3460 C   0  0  2  0  0  3  0  0  0  0  0  0
  190.1310  171.5260  140.7720 C   0  0  0  0  0  2  0  0  0  0  0  0
  190.4760  172.5350  141.5620 C   0  0  0  0  0  0  0  0  0  0  0  0
  188.7100  173.9220  140.8000 O   0  0  0  0  0  0  0  0  0  0  0  0
  190.3250  174.9710  142.0320 O   0  0  0  0  0  1  0  0  0  0  0  0
  189.7920  173.8340  141.4370 C   0  0  0  0  0  0  0  0  0  0  0  0
  1  3  1  0  0  0  0
  1  2  2  0  0  0  0
  3  4  1  6  0  0  0
  5  3  1  0  0  0  0
  6  5  1  0  0  0  0
  7  2  1  0  0  0  0
  8  7  1  0  0  0  0
  9 12  1  0  0  0  0
 10  8  1  6  0  0  0
 10 12  1  0  0  0  0
 11 16  1  1  0  0  0
 11 13  1  0  0  0  0
 11 10  1  0  0  0  0
 13 18  1  6  0  0  0
 13  9  1  0  0  0  0
 14 16  2  0  0  0  0
 16 15  1  0  0  0  0
 17 18  1  0  0  0  0
 19 17  2  0  0  0  0
 20 21  1  0  0  0  0
 21 17  1  0  0  0  0
 22  1  1  0  0  0  0
 23 25  1  0  0  0  0
 24 23  1  6  0  0  0
 24 26  1  0  0  0  0
 24 27  1  0  0  0  0
 26 25  1  6  0  0  0
 26 27  1  0  0  0  0
 27 22  1  1  0  0  0
 28 29  2  0  0  0  0
 29 23  1  0  0  0  0
 30 32  2  0  0  0  0
 32 29  1  0  0  0  0
 32 31  1  0  0  0  0
M  END
>  <MODEL>
8

>  <REMARK>
 VINA RESULT:      -5.5      2.138      2.841
  Name = 
  12 active torsions:
  status: ('A' for Active; 'I' for Inactive)
    1  A    between atoms: C_2  and  C_8
    2  A    between atoms: C_2  and  C_31
    3  A    between atoms: C_5  and  C_13
    4  A    between atoms: C_7  and  C_13
    5  A    between atoms: C_7  and  N_29
    6  A    between atoms: C_10  and  C_11
    7  A    between atoms: C_12  and  C_31
    8  A    between atoms: C_15  and  C_16
    9  A    between atoms: N_17  and  C_23
   10  A    between atoms: N_20  and  C_26
   11  A    between atoms: C_23  and  C_24
   12  A    between atoms: N_29  and  C_32
                            x       y       z     vdW  Elec       q    Type
                         _______ _______ _______ _____ _____    ______ ____

>  <TORSDO>
F 12

$$$$
=
 OpenBabel11062420343D

 32 34  0  0  1  0  0  0  0  0999 V2000
  188.0320  177.3430  145.3360 C   0  0  0  0  0  0  0  0  0  0  0  0
  189.2340  177.3030  145.9140 C   0  0  0  0  0  3  0  0  0  0  0  0
  186.8040  176.9870  146.1290 C   0  0  1  0  0  3  0  0  0  0  0  0
  187.1320  176.2250  147.2520 O   0  0  0  0  0  1  0  0  0  0  0  0
  185.9610  178.2010  146.5120 C   0  0  0  0  0  2  0  0  0  0  0  0
  186.2630  178.6450  147.8620 N   0  0  0  0  0  1  0  0  0  0  0  0
  190.4870  177.6320  145.1750 C   0  0  0  0  0  2  0  0  0  0  0  0
  191.2870  176.3610  144.9480 C   0  0  0  0  0  2  0  0  0  0  0  0
  194.3710  175.9880  142.3920 S   0  0  0  0  0  0  0  0  0  0  0  0
  192.5990  176.6890  144.2580 C   0  0  1  0  0  3  0  0  0  0  0  0
  193.7600  176.1210  145.0560 C   0  0  1  0  0  3  0  0  0  0  0  0
  192.6370  176.0490  142.8930 C   0  0  0  0  0  2  0  0  0  0  0  0
  194.8880  175.7110  144.1110 C   0  0  1  0  0  3  0  0  0  0  0  0
  193.8340  177.0700  147.2430 O   0  0  0  0  0  1  0  0  0  0  0  0
  195.1570  178.1060  145.6810 O   0  0  0  0  0  0  0  0  0  0  0  0
  194.2490  177.1210  146.0550 C   0  0  0  0  0  0  0  0  0  0  0  0
  196.5220  173.8340  144.5860 C   0  0  0  0  0  0  0  0  0  0  0  0
  195.2040  174.3020  144.2970 N   0  0  0  0  0  2  0  0  0  0  0  0
  197.4880  174.6390  144.6480 O   0  0  0  0  0  0  0  0  0  0  0  0
  196.7760  172.0710  146.1230 O   0  0  0  0  0  1  0  0  0  0  0  0
  196.7610  172.3780  144.7630 C   0  0  0  0  0  2  0  0  0  0  0  0
  187.9100  177.7220  143.9590 N   0  0  0  0  0  2  0  0  0  0  0  0
  188.2180  175.2660  141.1650 N   0  0  0  0  0  0  0  0  0  0  0  0
  188.6310  176.2910  142.1400 C   0  0  1  0  0  3  0  0  0  0  0  0
  187.4320  176.3520  140.5650 C   0  0  0  0  0  2  0  0  0  0  0  0
  187.7890  177.3780  141.5720 C   0  0  1  0  0  3  0  0  0  0  0  0
  187.4450  176.8090  142.9270 C   0  0  2  0  0  3  0  0  0  0  0  0
  188.4120  173.0280  141.9480 C   0  0  0  0  0  2  0  0  0  0  0  0
  188.4710  173.8790  140.9310 C   0  0  0  0  0  0  0  0  0  0  0  0
  187.9430  172.6230  138.9900 O   0  0  0  0  0  1  0  0  0  0  0  0
  189.9230  173.7640  138.9160 O   0  0  0  0  0  0  0  0  0  0  0  0
  188.7580  173.3840  139.5730 C   0  0  0  0  0  0  0  0  0  0  0  0
  1  2  2  0  0  0  0
  1  3  1  0  0  0  0
  3  5  1  0  0  0  0
  3  4  1  1  0  0  0
  5  6  1  0  0  0  0
  7  2  1  0  0  0  0
  8  7  1  0  0  0  0
  9 12  1  0  0  0  0
  9 13  1  0  0  0  0
 10  8  1  1  0  0  0
 10 11  1  0  0  0  0
 11 16  1  1  0  0  0
 12 10  1  0  0  0  0
 13 18  1  6  0  0  0
 13 11  1  0  0  0  0
 15 16  2  0  0  0  0
 16 14  1  0  0  0  0
 17 19  2  0  0  0  0
 17 21  1  0  0  0  0
 18 17  1  0  0  0  0
 21 20  1  0  0  0  0
 22  1  1  0  0  0  0
 24 23  1  6  0  0  0
 24 27  1  0  0  0  0
 25 23  1  0  0  0  0
 26 25  1  6  0  0  0
 26 24  1  0  0  0  0
 26 27  1  0  0  0  0
 27 22  1  1  0  0  0
 29 23  1  0  0  0  0
 29 28  2  0  0  0  0
 30 32  1  0  0  0  0
 31 32  2  0  0  0  0
 32 29  1  0  0  0  0
M  END
>  <MODEL>
9

>  <REMARK>
 VINA RESULT:      -5.5      3.895      8.017
  Name = 
  12 active torsions:
  status: ('A' for Active; 'I' for Inactive)
    1  A    between atoms: C_2  and  C_8
    2  A    between atoms: C_2  and  C_31
    3  A    between atoms: C_5  and  C_13
    4  A    between atoms: C_7  and  C_13
    5  A    between atoms: C_7  and  N_29
    6  A    between atoms: C_10  and  C_11
    7  A    between atoms: C_12  and  C_31
    8  A    between atoms: C_15  and  C_16
    9  A    between atoms: N_17  and  C_23
   10  A    between atoms: N_20  and  C_26
   11  A    between atoms: C_23  and  C_24
   12  A    between atoms: N_29  and  C_32
                            x       y       z     vdW  Elec       q    Type
                         _______ _______ _______ _____ _____    ______ ____

>  <TORSDO>
F 12

$$$$
