=
 OpenBabel11062419423D

 30 33  0  0  1  0  0  0  0  0999 V2000
  184.0680  179.0370  145.7480 N   0  0  0  0  0  2  0  0  0  0  0  0
  191.1420  175.4360  144.0750 C   0  0  0  0  0  0  0  0  0  0  0  0
  193.5520  175.0660  143.5810 N   0  0  0  0  0  1  0  0  0  0  0  0
  187.0050  175.6540  142.9390 C   0  0  0  0  0  2  0  0  0  0  0  0
  184.4020  177.7850  146.4160 C   0  0  0  0  0  2  0  0  0  0  0  0
  186.5240  177.1090  142.8400 C   0  0  1  0  0  3  0  0  0  0  0  0
  185.9090  177.6610  146.5980 C   0  0  0  0  0  2  0  0  0  0  0  0
  184.3860  178.9130  144.3310 C   0  0  0  0  0  2  0  0  0  0  0  0
  190.1840  175.8380  145.0390 C   0  0  0  0  0  0  0  0  0  0  0  0
  188.8190  175.9120  144.7090 C   0  0  0  0  0  0  0  0  0  0  0  0
  192.5010  175.4150  144.4790 C   0  0  0  0  0  0  0  0  0  0  0  0
  189.3590  175.1760  142.4930 N   0  0  0  0  0  0  0  0  0  0  0  0
  186.5310  176.9960  145.3760 C   0  0  1  0  0  3  0  0  0  0  0  0
  190.5890  176.1620  146.2980 N   0  0  0  0  0  0  0  0  0  0  0  0
  192.8330  175.7520  145.7500 N   0  0  0  0  0  0  0  0  0  0  0  0
  191.8940  176.1190  146.6550 C   0  0  0  0  0  3  0  0  0  0  0  0
  188.4260  175.5620  143.3980 C   0  0  0  0  0  0  0  0  0  0  0  0
  185.8690  179.1890  144.1170 C   0  0  0  0  0  2  0  0  0  0  0  0
  186.7150  177.9080  144.1400 C   0  0  2  0  0  3  0  0  0  0  0  0
  190.6830  175.0910  142.7780 C   0  0  0  0  0  0  0  0  0  0  0  0
  187.8360  176.3080  145.7970 C   0  0  0  0  0  2  0  0  0  0  0  0
  187.1400  177.8020  141.6640 C   0  0  0  0  0  0  0  0  0  0  0  0
  188.4100  178.3600  141.7570 O   0  0  0  0  0  1  0  0  0  0  0  0
  186.5110  177.8620  140.5760 O   0  0  0  0  0  0  0  0  0  0  0  0
  191.5840  174.6080  141.6850 C   0  0  0  0  0  2  0  0  0  0  0  0
  190.8780  173.6070  140.7790 C   0  0  0  0  0  2  0  0  0  0  0  0
  190.9590  170.9060  140.3640 O   0  0  0  0  0  0  0  0  0  0  0  0
  192.3890  171.7510  142.5140 C   0  0  0  0  0  1  0  0  0  0  0  0
  190.9110  171.9270  141.4790 P   0  0  1  0  0  0  0  0  0  0  0  0
  189.5380  171.6620  142.4300 O   0  0  0  0  0  1  0  0  0  0  0  0
  1  5  1  0  0  0  0
  2 11  2  0  0  0  0
  2  9  1  0  0  0  0
  3 11  1  0  0  0  0
  4 17  1  0  0  0  0
  5  7  1  0  0  0  0
  6 22  1  6  0  0  0
  6  4  1  0  0  0  0
  6 19  1  0  0  0  0
  8  1  1  0  0  0  0
  9 14  2  0  0  0  0
 10  9  1  0  0  0  0
 10 21  1  0  0  0  0
 11 15  1  0  0  0  0
 12 20  2  0  0  0  0
 12 17  1  0  0  0  0
 13 21  1  1  0  0  0
 13  7  1  0  0  0  0
 14 16  1  0  0  0  0
 15 16  2  0  0  0  0
 17 10  2  0  0  0  0
 18  8  1  0  0  0  0
 19 18  1  1  0  0  0
 19 13  1  0  0  0  0
 20  2  1  0  0  0  0
 22 23  1  0  0  0  0
 24 22  2  0  0  0  0
 25 20  1  0  0  0  0
 26 29  1  0  0  0  0
 26 25  1  0  0  0  0
 27 29  2  0  0  0  0
 29 30  1  0  0  0  0
 29 28  1  1  0  0  0
M  END
>  <MODEL>
1

>  <REMARK>
 VINA RESULT:      -7.8      0.000      0.000
  Name = 
  4 active torsions:
  status: ('A' for Active; 'I' for Inactive)
    1  A    between atoms: C_6  and  C_16
    2  A    between atoms: C_6  and  P_27
    3  A    between atoms: C_7  and  C_18
    4  A    between atoms: C_16  and  C_26
                            x       y       z     vdW  Elec       q    Type
                         _______ _______ _______ _____ _____    ______ ____

>  <TORSDO>
F 4

$$$$
=
 OpenBabel11062419423D

 30 33  0  0  1  0  0  0  0  0999 V2000
  185.1480  178.4990  146.8860 N   0  0  0  0  0  2  0  0  0  0  0  0
  190.6410  174.8950  142.1270 C   0  0  0  0  0  0  0  0  0  0  0  0
  191.9420  173.1630  140.9040 N   0  0  0  0  0  1  0  0  0  0  0  0
  190.1330  177.7640  145.2840 C   0  0  0  0  0  2  0  0  0  0  0  0
  185.5010  179.1190  145.6150 C   0  0  0  0  0  2  0  0  0  0  0  0
  189.1930  177.2370  146.3770 C   0  0  1  0  0  3  0  0  0  0  0  0
  185.8850  178.0600  144.5900 C   0  0  0  0  0  2  0  0  0  0  0  0
  186.3700  178.0710  147.5540 C   0  0  0  0  0  2  0  0  0  0  0  0
  189.4000  175.5690  142.2520 C   0  0  0  0  0  0  0  0  0  0  0  0
  189.1980  176.5220  143.2660 C   0  0  0  0  0  0  0  0  0  0  0  0
  190.7550  173.9280  141.0950 C   0  0  0  0  0  0  0  0  0  0  0  0
  191.4470  176.1480  144.0050 N   0  0  0  0  0  0  0  0  0  0  0  0
  187.3770  177.7590  144.6810 C   0  0  1  0  0  3  0  0  0  0  0  0
  188.3890  175.2870  141.3840 N   0  0  0  0  0  0  0  0  0  0  0  0
  189.7050  173.6970  140.2680 N   0  0  0  0  0  0  0  0  0  0  0  0
  188.5350  174.3660  140.4020 C   0  0  0  0  0  3  0  0  0  0  0  0
  190.2670  176.8010  144.1460 C   0  0  0  0  0  0  0  0  0  0  0  0
  186.8020  176.7160  147.0080 C   0  0  0  0  0  2  0  0  0  0  0  0
  187.8020  176.8410  145.8510 C   0  0  2  0  0  3  0  0  0  0  0  0
  191.6760  175.2250  143.0380 C   0  0  0  0  0  0  0  0  0  0  0  0
  187.8610  177.2410  143.3220 C   0  0  0  0  0  2  0  0  0  0  0  0
  189.8320  176.1270  147.1520 C   0  0  0  0  0  0  0  0  0  0  0  0
  189.3640  174.8230  147.0370 O   0  0  0  0  0  0  0  0  0  0  0  0
  190.8160  176.3730  147.8970 O   0  0  0  0  0  1  0  0  0  0  0  0
  193.0460  174.6220  142.9850 C   0  0  0  0  0  2  0  0  0  0  0  0
  194.0950  175.6490  142.5780 C   0  0  0  0  0  2  0  0  0  0  0  0
  195.7160  174.6280  144.5280 O   0  0  0  0  0  0  0  0  0  0  0  0
  196.7560  176.7670  143.2140 C   0  0  0  0  0  1  0  0  0  0  0  0
  195.2980  175.9450  143.9110 P   0  0  1  0  0  0  0  0  0  0  0  0
  194.6220  176.9390  145.1000 O   0  0  0  0  0  1  0  0  0  0  0  0
  1  8  1  0  0  0  0
  2  9  1  0  0  0  0
  2 20  2  0  0  0  0
  3 11  1  0  0  0  0
  4  6  1  0  0  0  0
  5  1  1  0  0  0  0
  6 22  1  6  0  0  0
  7 13  1  0  0  0  0
  7  5  1  0  0  0  0
  9 10  2  0  0  0  0
 10 21  1  0  0  0  0
 10 17  1  0  0  0  0
 11  2  1  0  0  0  0
 12 17  2  0  0  0  0
 13 21  1  6  0  0  0
 13 19  1  0  0  0  0
 14  9  1  0  0  0  0
 15 16  1  0  0  0  0
 15 11  2  0  0  0  0
 16 14  2  0  0  0  0
 17  4  1  0  0  0  0
 18  8  1  0  0  0  0
 19  6  1  0  0  0  0
 19 18  1  1  0  0  0
 20 12  1  0  0  0  0
 22 24  1  0  0  0  0
 23 22  2  0  0  0  0
 25 20  1  0  0  0  0
 26 25  1  0  0  0  0
 26 29  1  0  0  0  0
 29 28  1  6  0  0  0
 29 27  2  0  0  0  0
 29 30  1  0  0  0  0
M  END
>  <MODEL>
2

>  <REMARK>
 VINA RESULT:      -7.7      3.260      4.688
  Name = 
  4 active torsions:
  status: ('A' for Active; 'I' for Inactive)
    1  A    between atoms: C_6  and  C_16
    2  A    between atoms: C_6  and  P_27
    3  A    between atoms: C_7  and  C_18
    4  A    between atoms: C_16  and  C_26
                            x       y       z     vdW  Elec       q    Type
                         _______ _______ _______ _____ _____    ______ ____

>  <TORSDO>
F 4

$$$$
=
 OpenBabel11062419423D

 30 33  0  0  1  0  0  0  0  0999 V2000
  185.1070  178.4330  146.8950 N   0  0  0  0  0  2  0  0  0  0  0  0
  190.6750  174.9240  142.1520 C   0  0  0  0  0  0  0  0  0  0  0  0
  192.0210  173.2130  140.9490 N   0  0  0  0  0  1  0  0  0  0  0  0
  190.1000  177.8300  145.2630 C   0  0  0  0  0  2  0  0  0  0  0  0
  185.4300  179.0420  145.6100 C   0  0  0  0  0  2  0  0  0  0  0  0
  189.1860  177.2930  146.3740 C   0  0  1  0  0  3  0  0  0  0  0  0
  185.8390  177.9780  144.6010 C   0  0  0  0  0  2  0  0  0  0  0  0
  186.3470  178.0570  147.5600 C   0  0  0  0  0  2  0  0  0  0  0  0
  189.4140  175.5590  142.2760 C   0  0  0  0  0  0  0  0  0  0  0  0
  189.1900  176.5240  143.2750 C   0  0  0  0  0  0  0  0  0  0  0  0
  190.8120  173.9430  141.1370 C   0  0  0  0  0  0  0  0  0  0  0  0
  191.4550  176.2350  144.0020 N   0  0  0  0  0  0  0  0  0  0  0  0
  187.3400  177.7270  144.6840 C   0  0  1  0  0  3  0  0  0  0  0  0
  188.4060  175.2300  141.4220 N   0  0  0  0  0  0  0  0  0  0  0  0
  189.7640  173.6640  140.3220 N   0  0  0  0  0  0  0  0  0  0  0  0
  188.5740  174.2970  140.4550 C   0  0  0  0  0  3  0  0  0  0  0  0
  190.2560  176.8520  144.1410 C   0  0  0  0  0  0  0  0  0  0  0  0
  186.8180  176.7070  147.0340 C   0  0  0  0  0  2  0  0  0  0  0  0
  187.8050  176.8430  145.8660 C   0  0  2  0  0  3  0  0  0  0  0  0
  191.7060  175.3030  143.0480 C   0  0  0  0  0  0  0  0  0  0  0  0
  187.8310  177.2000  143.3300 C   0  0  0  0  0  2  0  0  0  0  0  0
  189.8670  176.2180  147.1620 C   0  0  0  0  0  0  0  0  0  0  0  0
  189.4860  174.8890  147.0220 O   0  0  0  0  0  0  0  0  0  0  0  0
  190.8070  176.5180  147.9420 O   0  0  0  0  0  1  0  0  0  0  0  0
  193.0940  174.7430  142.9950 C   0  0  0  0  0  2  0  0  0  0  0  0
  193.5490  174.2430  144.3610 C   0  0  0  0  0  2  0  0  0  0  0  0
  195.3730  176.2470  144.0020 O   0  0  0  0  0  0  0  0  0  0  0  0
  194.1720  176.2490  146.4390 C   0  0  0  0  0  1  0  0  0  0  0  0
  194.8590  175.2950  145.0590 P   0  0  1  0  0  0  0  0  0  0  0  0
  196.1330  174.3410  145.6300 O   0  0  0  0  0  1  0  0  0  0  0  0
  1  8  1  0  0  0  0
  2  9  1  0  0  0  0
  2 20  2  0  0  0  0
  3 11  1  0  0  0  0
  4  6  1  0  0  0  0
  5  1  1  0  0  0  0
  6 22  1  6  0  0  0
  7 13  1  0  0  0  0
  7  5  1  0  0  0  0
  9 10  2  0  0  0  0
 10 21  1  0  0  0  0
 10 17  1  0  0  0  0
 11  2  1  0  0  0  0
 12 17  2  0  0  0  0
 13 21  1  6  0  0  0
 13 19  1  0  0  0  0
 14  9  1  0  0  0  0
 15 16  1  0  0  0  0
 15 11  2  0  0  0  0
 16 14  2  0  0  0  0
 17  4  1  0  0  0  0
 18  8  1  0  0  0  0
 19  6  1  0  0  0  0
 19 18  1  1  0  0  0
 20 12  1  0  0  0  0
 22 24  1  0  0  0  0
 23 22  2  0  0  0  0
 25 20  1  0  0  0  0
 25 26  1  0  0  0  0
 26 29  1  0  0  0  0
 27 29  2  0  0  0  0
 29 30  1  0  0  0  0
 29 28  1  1  0  0  0
M  END
>  <MODEL>
3

>  <REMARK>
 VINA RESULT:      -7.6      3.225      4.685
  Name = 
  4 active torsions:
  status: ('A' for Active; 'I' for Inactive)
    1  A    between atoms: C_6  and  C_16
    2  A    between atoms: C_6  and  P_27
    3  A    between atoms: C_7  and  C_18
    4  A    between atoms: C_16  and  C_26
                            x       y       z     vdW  Elec       q    Type
                         _______ _______ _______ _____ _____    ______ ____

>  <TORSDO>
F 4

$$$$
=
 OpenBabel11062419423D

 30 33  0  0  1  0  0  0  0  0999 V2000
  184.0660  179.0400  145.4780 N   0  0  0  0  0  2  0  0  0  0  0  0
  191.5200  175.8400  145.3630 C   0  0  0  0  0  0  0  0  0  0  0  0
  193.9960  175.6070  145.3180 N   0  0  0  0  0  1  0  0  0  0  0  0
  187.6370  175.6590  143.5340 C   0  0  0  0  0  2  0  0  0  0  0  0
  184.3510  177.8760  146.3080 C   0  0  0  0  0  2  0  0  0  0  0  0
  187.0970  177.0610  143.2190 C   0  0  1  0  0  3  0  0  0  0  0  0
  185.8080  177.8770  146.7520 C   0  0  0  0  0  2  0  0  0  0  0  0
  184.6320  178.8210  144.1540 C   0  0  0  0  0  2  0  0  0  0  0  0
  190.3870  176.2500  146.1110 C   0  0  0  0  0  0  0  0  0  0  0  0
  189.0980  176.1950  145.5500 C   0  0  0  0  0  0  0  0  0  0  0  0
  192.7870  175.9510  145.9900 C   0  0  0  0  0  0  0  0  0  0  0  0
  190.0570  175.3200  143.5360 N   0  0  0  0  0  0  0  0  0  0  0  0
  186.6700  177.1600  145.7200 C   0  0  1  0  0  3  0  0  0  0  0  0
  190.5480  176.7060  147.3830 N   0  0  0  0  0  0  0  0  0  0  0  0
  192.8730  176.4170  147.2610 N   0  0  0  0  0  0  0  0  0  0  0  0
  191.7720  176.7880  147.9560 C   0  0  0  0  0  3  0  0  0  0  0  0
  188.9600  175.7100  144.2320 C   0  0  0  0  0  0  0  0  0  0  0  0
  186.1110  179.1870  144.1660 C   0  0  0  0  0  2  0  0  0  0  0  0
  187.0120  177.9780  144.4520 C   0  0  2  0  0  3  0  0  0  0  0  0
  191.3130  175.3560  144.0460 C   0  0  0  0  0  0  0  0  0  0  0  0
  187.9200  176.6070  146.4160 C   0  0  0  0  0  2  0  0  0  0  0  0
  187.8660  177.6980  142.1030 C   0  0  0  0  0  0  0  0  0  0  0  0
  187.3820  177.6620  140.8000 O   0  0  0  0  0  0  0  0  0  0  0  0
  188.9490  178.2890  142.3500 O   0  0  0  0  0  1  0  0  0  0  0  0
  192.4170  174.8510  143.1700 C   0  0  0  0  0  2  0  0  0  0  0  0
  192.8420  175.8960  142.1460 C   0  0  0  0  0  2  0  0  0  0  0  0
  195.1150  174.3780  142.1560 O   0  0  0  0  0  1  0  0  0  0  0  0
  194.0950  174.8510  139.6820 C   0  0  0  0  0  1  0  0  0  0  0  0
  194.4230  175.4600  141.3570 P   0  0  1  0  0  0  0  0  0  0  0  0
  195.4230  176.8210  141.2620 O   0  0  0  0  0  0  0  0  0  0  0  0
  1  5  1  0  0  0  0
  2 11  2  0  0  0  0
  2  9  1  0  0  0  0
  3 11  1  0  0  0  0
  4 17  1  0  0  0  0
  5  7  1  0  0  0  0
  6 22  1  6  0  0  0
  6  4  1  0  0  0  0
  6 19  1  0  0  0  0
  8 18  1  0  0  0  0
  8  1  1  0  0  0  0
  9 14  2  0  0  0  0
 10  9  1  0  0  0  0
 10 21  1  0  0  0  0
 11 15  1  0  0  0  0
 12 20  2  0  0  0  0
 12 17  1  0  0  0  0
 13 21  1  1  0  0  0
 13  7  1  0  0  0  0
 14 16  1  0  0  0  0
 15 16  2  0  0  0  0
 17 10  2  0  0  0  0
 19 18  1  6  0  0  0
 19 13  1  0  0  0  0
 20  2  1  0  0  0  0
 22 24  1  0  0  0  0
 23 22  2  0  0  0  0
 25 20  1  0  0  0  0
 26 25  1  0  0  0  0
 29 28  1  6  0  0  0
 29 26  1  0  0  0  0
 29 27  1  0  0  0  0
 30 29  2  0  0  0  0
M  END
>  <MODEL>
4

>  <REMARK>
 VINA RESULT:      -7.5      2.197      2.521
  Name = 
  4 active torsions:
  status: ('A' for Active; 'I' for Inactive)
    1  A    between atoms: C_6  and  C_16
    2  A    between atoms: C_6  and  P_27
    3  A    between atoms: C_7  and  C_18
    4  A    between atoms: C_16  and  C_26
                            x       y       z     vdW  Elec       q    Type
                         _______ _______ _______ _____ _____    ______ ____

>  <TORSDO>
F 4

$$$$
=
 OpenBabel11062419423D

 30 33  0  0  1  0  0  0  0  0999 V2000
  196.7470  172.4250  145.4180 N   0  0  0  0  0  2  0  0  0  0  0  0
  189.2910  175.2340  143.8920 C   0  0  0  0  0  0  0  0  0  0  0  0
  187.3670  176.3700  142.7990 N   0  0  0  0  0  1  0  0  0  0  0  0
  192.3420  174.9450  146.9030 C   0  0  0  0  0  2  0  0  0  0  0  0
  195.5980  171.5750  145.7000 C   0  0  0  0  0  2  0  0  0  0  0  0
  193.7260  175.2950  146.3370 C   0  0  1  0  0  3  0  0  0  0  0  0
  194.4590  171.8740  144.7330 C   0  0  0  0  0  2  0  0  0  0  0  0
  196.4710  173.7670  145.9140 C   0  0  0  0  0  2  0  0  0  0  0  0
  190.2210  174.1670  143.8290 C   0  0  0  0  0  0  0  0  0  0  0  0
  191.2290  174.0320  144.8020 C   0  0  0  0  0  0  0  0  0  0  0  0
  188.3240  175.3160  142.8580 C   0  0  0  0  0  0  0  0  0  0  0  0
  190.3770  175.9890  145.8920 N   0  0  0  0  0  0  0  0  0  0  0  0
  193.5780  172.9860  145.2910 C   0  0  1  0  0  3  0  0  0  0  0  0
  190.1440  173.2630  142.8130 N   0  0  0  0  0  0  0  0  0  0  0  0
  188.3070  174.3810  141.8750 N   0  0  0  0  0  0  0  0  0  0  0  0
  189.2000  173.3630  141.8480 C   0  0  0  0  0  3  0  0  0  0  0  0
  191.2800  174.9780  145.8490 C   0  0  0  0  0  0  0  0  0  0  0  0
  195.6480  174.5310  144.8850 C   0  0  0  0  0  2  0  0  0  0  0  0
  194.1390  174.4200  145.1410 C   0  0  2  0  0  3  0  0  0  0  0  0
  189.3920  176.1470  144.9730 C   0  0  0  0  0  0  0  0  0  0  0  0
  192.1690  172.8430  144.7040 C   0  0  0  0  0  2  0  0  0  0  0  0
  193.8280  176.7550  146.0220 C   0  0  0  0  0  0  0  0  0  0  0  0
  193.3830  177.2470  144.8000 O   0  0  0  0  0  0  0  0  0  0  0  0
  194.2990  177.5470  146.8780 O   0  0  0  0  0  1  0  0  0  0  0  0
  188.4460  177.2880  145.1800 C   0  0  0  0  0  2  0  0  0  0  0  0
  187.7050  177.1670  146.5060 C   0  0  0  0  0  2  0  0  0  0  0  0
  185.9630  178.9430  147.6390 O   0  0  0  0  0  1  0  0  0  0  0  0
  185.9810  178.9710  144.9220 C   0  0  0  0  0  1  0  0  0  0  0  0
  186.0930  178.0100  146.4550 P   0  0  1  0  0  0  0  0  0  0  0  0
  184.8390  176.8760  146.4870 O   0  0  0  0  0  0  0  0  0  0  0  0
  1  5  1  0  0  0  0
  1  8  1  0  0  0  0
  2 20  2  0  0  0  0
  3 11  1  0  0  0  0
  6 22  1  6  0  0  0
  6  4  1  0  0  0  0
  7 13  1  0  0  0  0
  7  5  1  0  0  0  0
  9  2  1  0  0  0  0
  9 10  2  0  0  0  0
 10 17  1  0  0  0  0
 11  2  1  0  0  0  0
 13 21  1  6  0  0  0
 14  9  1  0  0  0  0
 15 11  2  0  0  0  0
 16 15  1  0  0  0  0
 16 14  2  0  0  0  0
 17 12  2  0  0  0  0
 17  4  1  0  0  0  0
 18  8  1  0  0  0  0
 19 18  1  1  0  0  0
 19 13  1  0  0  0  0
 19  6  1  0  0  0  0
 20 25  1  0  0  0  0
 20 12  1  0  0  0  0
 21 10  1  0  0  0  0
 22 24  1  0  0  0  0
 23 22  2  0  0  0  0
 25 26  1  0  0  0  0
 29 28  1  6  0  0  0
 29 30  2  0  0  0  0
 29 26  1  0  0  0  0
 29 27  1  0  0  0  0
M  END
>  <MODEL>
5

>  <REMARK>
 VINA RESULT:      -7.2      3.645      8.035
  Name = 
  4 active torsions:
  status: ('A' for Active; 'I' for Inactive)
    1  A    between atoms: C_6  and  C_16
    2  A    between atoms: C_6  and  P_27
    3  A    between atoms: C_7  and  C_18
    4  A    between atoms: C_16  and  C_26
                            x       y       z     vdW  Elec       q    Type
                         _______ _______ _______ _____ _____    ______ ____

>  <TORSDO>
F 4

$$$$
=
 OpenBabel11062419423D

 30 33  0  0  1  0  0  0  0  0999 V2000
  190.8000  175.3340  147.4560 N   0  0  0  0  0  2  0  0  0  0  0  0
  185.4420  177.9950  141.9760 C   0  0  0  0  0  0  0  0  0  0  0  0
  183.4070  178.2010  140.5610 N   0  0  0  0  0  1  0  0  0  0  0  0
  189.5780  177.0100  142.5920 C   0  0  0  0  0  2  0  0  0  0  0  0
  190.5790  176.7680  147.3190 C   0  0  0  0  0  2  0  0  0  0  0  0
  189.7340  175.6770  143.3380 C   0  0  1  0  0  3  0  0  0  0  0  0
  189.1460  177.0500  146.8850 C   0  0  0  0  0  2  0  0  0  0  0  0
  190.9220  174.7490  146.1270 C   0  0  0  0  0  2  0  0  0  0  0  0
  185.9820  178.0780  143.2840 C   0  0  0  0  0  0  0  0  0  0  0  0
  187.3340  177.7740  143.5250 C   0  0  0  0  0  0  0  0  0  0  0  0
  184.0640  178.2910  141.8220 C   0  0  0  0  0  0  0  0  0  0  0  0
  187.6050  177.3280  141.1860 N   0  0  0  0  0  0  0  0  0  0  0  0
  189.0500  177.0460  145.3640 C   0  0  1  0  0  3  0  0  0  0  0  0
  185.1840  178.4520  144.3210 N   0  0  0  0  0  0  0  0  0  0  0  0
  183.3270  178.6560  142.9010 N   0  0  0  0  0  0  0  0  0  0  0  0
  183.8730  178.7400  144.1380 C   0  0  0  0  0  3  0  0  0  0  0  0
  188.1420  177.3970  142.4290 C   0  0  0  0  0  0  0  0  0  0  0  0
  189.5340  174.4850  145.5570 C   0  0  0  0  0  2  0  0  0  0  0  0
  189.0190  175.6490  144.7000 C   0  0  2  0  0  3  0  0  0  0  0  0
  186.3070  177.6180  140.9180 C   0  0  0  0  0  0  0  0  0  0  0  0
  187.8650  177.9230  144.9400 C   0  0  0  0  0  2  0  0  0  0  0  0
  189.3310  174.5230  142.4730 C   0  0  0  0  0  0  0  0  0  0  0  0
  188.0030  174.1170  142.4100 O   0  0  0  0  0  1  0  0  0  0  0  0
  190.1990  173.9290  141.7820 O   0  0  0  0  0  0  0  0  0  0  0  0
  185.8740  177.5370  139.4870 C   0  0  0  0  0  2  0  0  0  0  0  0
  187.0660  177.3930  138.5490 C   0  0  0  0  0  2  0  0  0  0  0  0
  185.2280  176.0410  137.0430 O   0  0  0  0  0  0  0  0  0  0  0  0
  187.4090  176.8820  135.6580 C   0  0  0  0  0  1  0  0  0  0  0  0
  186.7220  176.2210  137.2000 P   0  0  1  0  0  0  0  0  0  0  0  0
  187.4420  174.7250  137.5260 O   0  0  0  0  0  1  0  0  0  0  0  0
  2  9  1  0  0  0  0
  3 11  1  0  0  0  0
  4  6  1  0  0  0  0
  5  1  1  0  0  0  0
  6 22  1  6  0  0  0
  6 19  1  0  0  0  0
  7  5  1  0  0  0  0
  8  1  1  0  0  0  0
  9 10  1  0  0  0  0
  9 14  2  0  0  0  0
 10 21  1  0  0  0  0
 11  2  2  0  0  0  0
 11 15  1  0  0  0  0
 12 17  1  0  0  0  0
 13 21  1  1  0  0  0
 13  7  1  0  0  0  0
 15 16  2  0  0  0  0
 16 14  1  0  0  0  0
 17  4  1  0  0  0  0
 17 10  2  0  0  0  0
 18  8  1  0  0  0  0
 19 13  1  0  0  0  0
 19 18  1  1  0  0  0
 20 12  2  0  0  0  0
 20  2  1  0  0  0  0
 23 22  1  0  0  0  0
 24 22  2  0  0  0  0
 25 20  1  0  0  0  0
 26 25  1  0  0  0  0
 27 29  2  0  0  0  0
 29 28  1  6  0  0  0
 29 30  1  0  0  0  0
 29 26  1  0  0  0  0
M  END
>  <MODEL>
6

>  <REMARK>
 VINA RESULT:      -7.1      2.884      6.354
  Name = 
  4 active torsions:
  status: ('A' for Active; 'I' for Inactive)
    1  A    between atoms: C_6  and  C_16
    2  A    between atoms: C_6  and  P_27
    3  A    between atoms: C_7  and  C_18
    4  A    between atoms: C_16  and  C_26
                            x       y       z     vdW  Elec       q    Type
                         _______ _______ _______ _____ _____    ______ ____

>  <TORSDO>
F 4

$$$$
=
 OpenBabel11062419423D

 30 33  0  0  1  0  0  0  0  0999 V2000
  184.3790  178.6970  144.0520 N   0  0  0  0  0  2  0  0  0  0  0  0
  190.5650  173.4720  143.5580 C   0  0  0  0  0  0  0  0  0  0  0  0
  191.9730  171.4380  143.8210 N   0  0  0  0  0  1  0  0  0  0  0  0
  189.5190  177.5340  144.4850 C   0  0  0  0  0  2  0  0  0  0  0  0
  185.1080  178.5780  142.7950 C   0  0  0  0  0  2  0  0  0  0  0  0
  188.2810  177.6040  145.3910 C   0  0  1  0  0  3  0  0  0  0  0  0
  185.6460  177.1640  142.6200 C   0  0  0  0  0  2  0  0  0  0  0  0
  185.3390  178.7590  145.1470 C   0  0  0  0  0  2  0  0  0  0  0  0
  189.4030  174.0340  142.9730 C   0  0  0  0  0  0  0  0  0  0  0  0
  189.0320  175.3630  143.2440 C   0  0  0  0  0  0  0  0  0  0  0  0
  190.8540  172.1160  143.2570 C   0  0  0  0  0  0  0  0  0  0  0  0
  190.9650  175.5700  144.6460 N   0  0  0  0  0  0  0  0  0  0  0  0
  187.0270  177.0470  143.2540 C   0  0  1  0  0  3  0  0  0  0  0  0
  188.6320  173.2780  142.1440 N   0  0  0  0  0  0  0  0  0  0  0  0
  190.0400  171.4220  142.4230 N   0  0  0  0  0  0  0  0  0  0  0  0
  188.9430  171.9890  141.8670 C   0  0  0  0  0  3  0  0  0  0  0  0
  189.8550  176.1270  144.1010 C   0  0  0  0  0  0  0  0  0  0  0  0
  185.7700  177.3480  145.5260 C   0  0  0  0  0  2  0  0  0  0  0  0
  187.0450  176.9070  144.7940 C   0  0  2  0  0  3  0  0  0  0  0  0
  191.3520  174.2930  144.4050 C   0  0  0  0  0  0  0  0  0  0  0  0
  187.8000  175.9220  142.5530 C   0  0  0  0  0  2  0  0  0  0  0  0
  188.5900  177.1070  146.7690 C   0  0  0  0  0  0  0  0  0  0  0  0
  188.2540  175.8120  147.1450 O   0  0  0  0  0  0  0  0  0  0  0  0
  189.1770  177.8620  147.5860 O   0  0  0  0  0  1  0  0  0  0  0  0
  192.6250  173.8360  145.0470 C   0  0  0  0  0  2  0  0  0  0  0  0
  193.8120  174.6790  144.5980 C   0  0  0  0  0  2  0  0  0  0  0  0
  196.0670  174.5420  146.1380 O   0  0  0  0  0  1  0  0  0  0  0  0
  195.0760  172.1260  145.3870 C   0  0  0  0  0  1  0  0  0  0  0  0
  195.3960  173.8600  144.9660 P   0  0  1  0  0  0  0  0  0  0  0  0
  196.4130  173.9210  143.6170 O   0  0  0  0  0  0  0  0  0  0  0  0
  1  8  1  0  0  0  0
  2 20  2  0  0  0  0
  4  6  1  0  0  0  0
  5  1  1  0  0  0  0
  6 22  1  1  0  0  0
  7  5  1  0  0  0  0
  7 13  1  0  0  0  0
  8 18  1  0  0  0  0
  9 10  2  0  0  0  0
  9  2  1  0  0  0  0
 10 17  1  0  0  0  0
 11  2  1  0  0  0  0
 11  3  1  0  0  0  0
 13 21  1  6  0  0  0
 13 19  1  0  0  0  0
 14  9  1  0  0  0  0
 15 11  2  0  0  0  0
 16 14  2  0  0  0  0
 16 15  1  0  0  0  0
 17  4  1  0  0  0  0
 17 12  2  0  0  0  0
 19  6  1  0  0  0  0
 19 18  1  1  0  0  0
 20 12  1  0  0  0  0
 20 25  1  0  0  0  0
 21 10  1  0  0  0  0
 22 23  2  0  0  0  0
 22 24  1  0  0  0  0
 26 29  1  0  0  0  0
 26 25  1  0  0  0  0
 29 28  1  1  0  0  0
 29 27  1  0  0  0  0
 30 29  2  0  0  0  0
M  END
>  <MODEL>
7

>  <REMARK>
 VINA RESULT:      -6.9      3.249      4.438
  Name = 
  4 active torsions:
  status: ('A' for Active; 'I' for Inactive)
    1  A    between atoms: C_6  and  C_16
    2  A    between atoms: C_6  and  P_27
    3  A    between atoms: C_7  and  C_18
    4  A    between atoms: C_16  and  C_26
                            x       y       z     vdW  Elec       q    Type
                         _______ _______ _______ _____ _____    ______ ____

>  <TORSDO>
F 4

$$$$
=
 OpenBabel11062419423D

 30 33  0  0  1  0  0  0  0  0999 V2000
  195.5570  174.1030  145.7250 N   0  0  0  0  0  2  0  0  0  0  0  0
  187.9120  176.7630  145.1860 C   0  0  0  0  0  0  0  0  0  0  0  0
  185.4740  177.0570  145.5820 N   0  0  0  0  0  1  0  0  0  0  0  0
  191.2630  175.3470  142.9010 C   0  0  0  0  0  2  0  0  0  0  0  0
  195.3130  175.5280  145.5400 C   0  0  0  0  0  2  0  0  0  0  0  0
  191.8920  174.1000  143.5390 C   0  0  1  0  0  3  0  0  0  0  0  0
  193.9960  175.9350  146.1870 C   0  0  0  0  0  2  0  0  0  0  0  0
  194.6980  173.3580  144.8130 C   0  0  0  0  0  2  0  0  0  0  0  0
  189.2190  176.9280  145.7080 C   0  0  0  0  0  0  0  0  0  0  0  0
  190.3430  176.4870  144.9850 C   0  0  0  0  0  0  0  0  0  0  0  0
  186.8310  177.2100  145.9890 C   0  0  0  0  0  0  0  0  0  0  0  0
  188.8760  175.7450  143.2420 N   0  0  0  0  0  0  0  0  0  0  0  0
  192.8510  175.7680  145.1950 C   0  0  1  0  0  3  0  0  0  0  0  0
  189.3920  177.5160  146.9230 N   0  0  0  0  0  0  0  0  0  0  0  0
  187.0760  177.7850  147.1930 N   0  0  0  0  0  0  0  0  0  0  0  0
  188.3380  177.9420  147.6590 C   0  0  0  0  0  3  0  0  0  0  0  0
  190.1350  175.8890  143.7230 C   0  0  0  0  0  0  0  0  0  0  0  0
  193.3130  173.2060  145.4280 C   0  0  0  0  0  2  0  0  0  0  0  0
  192.3510  174.3190  144.9910 C   0  0  2  0  0  3  0  0  0  0  0  0
  187.7710  176.1610  143.9100 C   0  0  0  0  0  0  0  0  0  0  0  0
  191.7200  176.7310  145.5770 C   0  0  0  0  0  2  0  0  0  0  0  0
  190.9880  172.9130  143.4130 C   0  0  0  0  0  0  0  0  0  0  0  0
  191.0000  172.1340  142.2620 O   0  0  0  0  0  0  0  0  0  0  0  0
  190.2260  172.6060  144.3660 O   0  0  0  0  0  1  0  0  0  0  0  0
  186.4520  175.9700  143.2280 C   0  0  0  0  0  2  0  0  0  0  0  0
  186.4610  176.5510  141.8190 C   0  0  0  0  0  2  0  0  0  0  0  0
  185.4740  178.6040  140.3090 O   0  0  0  0  0  0  0  0  0  0  0  0
  183.9460  177.9650  142.4630 C   0  0  0  0  0  1  0  0  0  0  0  0
  185.6010  178.1530  141.7470 P   0  0  1  0  0  0  0  0  0  0  0  0
  186.4540  179.3150  142.6320 O   0  0  0  0  0  1  0  0  0  0  0  0
  2  9  2  0  0  0  0
  2 11  1  0  0  0  0
  3 11  1  0  0  0  0
  4  6  1  0  0  0  0
  4 17  1  0  0  0  0
  5  1  1  0  0  0  0
  5  7  1  0  0  0  0
  6 22  1  1  0  0  0
  6 19  1  0  0  0  0
  8 18  1  0  0  0  0
  8  1  1  0  0  0  0
  9 14  1  0  0  0  0
 10 21  1  0  0  0  0
 10  9  1  0  0  0  0
 11 15  2  0  0  0  0
 12 17  1  0  0  0  0
 12 20  2  0  0  0  0
 13 21  1  1  0  0  0
 13  7  1  0  0  0  0
 14 16  2  0  0  0  0
 15 16  1  0  0  0  0
 17 10  2  0  0  0  0
 19 13  1  0  0  0  0
 19 18  1  6  0  0  0
 20  2  1  0  0  0  0
 22 24  1  0  0  0  0
 23 22  2  0  0  0  0
 25 20  1  0  0  0  0
 26 25  1  0  0  0  0
 27 29  2  0  0  0  0
 29 26  1  0  0  0  0
 29 28  1  1  0  0  0
 29 30  1  0  0  0  0
M  END
>  <MODEL>
8

>  <REMARK>
 VINA RESULT:      -6.7      2.408      7.026
  Name = 
  4 active torsions:
  status: ('A' for Active; 'I' for Inactive)
    1  A    between atoms: C_6  and  C_16
    2  A    between atoms: C_6  and  P_27
    3  A    between atoms: C_7  and  C_18
    4  A    between atoms: C_16  and  C_26
                            x       y       z     vdW  Elec       q    Type
                         _______ _______ _______ _____ _____    ______ ____

>  <TORSDO>
F 4

$$$$
=
 OpenBabel11062419423D

 30 33  0  0  1  0  0  0  0  0999 V2000
  193.2680  174.1560  145.2290 N   0  0  0  0  0  2  0  0  0  0  0  0
  186.2690  178.2590  145.2180 C   0  0  0  0  0  0  0  0  0  0  0  0
  183.8600  178.8300  145.4510 N   0  0  0  0  0  1  0  0  0  0  0  0
  189.7710  177.3630  142.8960 C   0  0  0  0  0  2  0  0  0  0  0  0
  193.2510  175.5310  145.7130 C   0  0  0  0  0  2  0  0  0  0  0  0
  190.1030  175.8640  142.9330 C   0  0  1  0  0  3  0  0  0  0  0  0
  191.9010  175.8640  146.3360 C   0  0  0  0  0  2  0  0  0  0  0  0
  192.5030  174.0850  143.9910 C   0  0  0  0  0  2  0  0  0  0  0  0
  187.4680  177.9070  145.8880 C   0  0  0  0  0  0  0  0  0  0  0  0
  188.6380  177.6170  145.1630 C   0  0  0  0  0  0  0  0  0  0  0  0
  185.1260  178.5090  146.0190 C   0  0  0  0  0  0  0  0  0  0  0  0
  187.4350  178.0410  143.1350 N   0  0  0  0  0  0  0  0  0  0  0  0
  190.9480  176.3900  145.2690 C   0  0  1  0  0  3  0  0  0  0  0  0
  187.4870  177.8440  147.2480 N   0  0  0  0  0  0  0  0  0  0  0  0
  185.2170  178.4260  147.3710 N   0  0  0  0  0  0  0  0  0  0  0  0
  186.3810  178.1010  147.9840 C   0  0  0  0  0  3  0  0  0  0  0  0
  188.5920  177.6980  143.7550 C   0  0  0  0  0  0  0  0  0  0  0  0
  191.0200  173.9570  144.3150 C   0  0  0  0  0  2  0  0  0  0  0  0
  190.3090  175.3170  144.3560 C   0  0  2  0  0  3  0  0  0  0  0  0
  186.2900  178.3290  143.8020 C   0  0  0  0  0  0  0  0  0  0  0  0
  189.9020  177.2890  145.9390 C   0  0  0  0  0  2  0  0  0  0  0  0
  189.0900  175.0670  142.1710 C   0  0  0  0  0  0  0  0  0  0  0  0
  187.9820  174.5300  142.8160 O   0  0  0  0  0  1  0  0  0  0  0  0
  189.2320  174.9010  140.9320 O   0  0  0  0  0  0  0  0  0  0  0  0
  185.1070  178.7320  142.9780 C   0  0  0  0  0  2  0  0  0  0  0  0
  184.5690  177.5640  142.1610 C   0  0  0  0  0  2  0  0  0  0  0  0
  184.6420  179.4010  140.1390 O   0  0  0  0  0  1  0  0  0  0  0  0
  186.1460  177.1830  139.6900 C   0  0  0  0  0  1  0  0  0  0  0  0
  184.6320  177.9070  140.3750 P   0  0  1  0  0  0  0  0  0  0  0  0
  183.2940  177.2210  139.6000 O   0  0  0  0  0  0  0  0  0  0  0  0
  1  5  1  0  0  0  0
  2  9  2  0  0  0  0
  2 11  1  0  0  0  0
  3 11  1  0  0  0  0
  4  6  1  0  0  0  0
  4 17  1  0  0  0  0
  5  7  1  0  0  0  0
  6 22  1  1  0  0  0
  6 19  1  0  0  0  0
  8 18  1  0  0  0  0
  8  1  1  0  0  0  0
  9 14  1  0  0  0  0
 10  9  1  0  0  0  0
 10 21  1  0  0  0  0
 11 15  2  0  0  0  0
 12 17  1  0  0  0  0
 12 20  2  0  0  0  0
 13 21  1  1  0  0  0
 13  7  1  0  0  0  0
 14 16  2  0  0  0  0
 15 16  1  0  0  0  0
 17 10  2  0  0  0  0
 19 18  1  6  0  0  0
 19 13  1  0  0  0  0
 20  2  1  0  0  0  0
 22 23  1  0  0  0  0
 24 22  2  0  0  0  0
 25 20  1  0  0  0  0
 26 25  1  0  0  0  0
 27 29  1  0  0  0  0
 29 28  1  6  0  0  0
 29 26  1  0  0  0  0
 30 29  2  0  0  0  0
M  END
>  <MODEL>
9

>  <REMARK>
 VINA RESULT:      -6.6      2.654      6.686
  Name = 
  4 active torsions:
  status: ('A' for Active; 'I' for Inactive)
    1  A    between atoms: C_6  and  C_16
    2  A    between atoms: C_6  and  P_27
    3  A    between atoms: C_7  and  C_18
    4  A    between atoms: C_16  and  C_26
                            x       y       z     vdW  Elec       q    Type
                         _______ _______ _______ _____ _____    ______ ____

>  <TORSDO>
F 4

$$$$
