=
 OpenBabel11062423013D

 62 68  0  0  1  0  0  0  0  0999 V2000
  188.1780  177.3050  143.2660 C   0  0  2  0  0  3  0  0  0  0  0  0
  186.3820  175.5590  142.8700 C   0  0  0  0  0  1  0  0  0  0  0  0
  188.8210  174.2280  141.3810 C   0  0  0  0  0  2  0  0  0  0  0  0
  187.8800  175.8570  142.8110 C   0  0  2  0  0  0  0  0  0  0  0  0
  188.5670  174.9540  143.6460 O   0  0  0  0  0  0  0  0  0  0  0  0
  189.0400  173.8980  142.8390 C   0  0  2  0  0  3  0  0  0  0  0  0
  188.3670  175.6480  141.3950 C   0  0  0  0  0  2  0  0  0  0  0  0
  191.7330  170.1820  140.5820 P   0  0  1  0  0  0  0  0  0  0  0  0
  191.0280  172.3070  142.6470 C   0  0  2  0  0  0  0  0  0  0  0  0
  190.0200  171.3280  141.9990 C   0  0  0  0  0  2  0  0  0  0  0  0
  189.7180  171.9350  144.8090 C   0  0  0  0  0  1  0  0  0  0  0  0
  192.4610  172.3190  142.1080 C   0  0  0  0  0  2  0  0  0  0  0  0
  190.9100  172.6150  144.1370 C   0  0  2  0  0  3  0  0  0  0  0  0
  190.5360  173.6830  143.0850 C   0  0  2  0  0  3  0  0  0  0  0  0
  190.5860  170.0520  141.8380 O   0  0  0  0  0  0  0  0  0  0  0  0
  192.5110  171.8380  140.6580 C   0  0  2  0  0  3  0  0  0  0  0  0
  192.7990  169.1290  140.7930 O   0  0  0  0  0  0  0  0  0  0  0  0
  190.2200  168.6980  139.0130 O   0  0  0  0  0  1  0  0  0  0  0  0
  191.9060  169.8150  137.9740 O   0  0  0  0  0  1  0  0  0  0  0  0
  190.9350  169.8940  138.9720 C   0  0  0  0  0  3  0  0  0  0  0  0
  191.8130  172.7360  139.8430 O   0  0  0  0  0  0  0  0  0  0  0  0
  192.7890  173.3640  139.0650 C   0  0  1  0  0  3  0  0  0  0  0  0
  193.3220  174.5760  139.8040 C   0  0  0  0  0  1  0  0  0  0  0  0
  193.8400  172.4780  138.8160 O   0  0  0  0  0  1  0  0  0  0  0  0
  190.6290  177.6750  143.5390 C   0  0  0  0  0  3  0  0  0  0  0  0
  189.4430  177.4210  144.0870 C   0  0  0  0  0  3  0  0  0  0  0  0
  191.8320  177.8070  144.4130 C   0  0  0  0  0  2  0  0  0  0  0  0
  192.2910  175.8220  143.1480 O   0  0  0  0  0  1  0  0  0  0  0  0
  192.8340  176.7050  144.0840 C   0  0  2  0  0  3  0  0  0  0  0  0
  192.4150  174.9410  145.9240 C   0  0  0  0  0  2  0  0  0  0  0  0
  192.7500  176.2290  146.6610 C   0  0  0  0  0  2  0  0  0  0  0  0
  193.3820  175.9400  145.3030 C   0  0  0  0  0  0  0  0  0  0  0  0
  195.3020  174.1440  144.7620 C   0  0  2  0  0  3  0  0  0  0  0  0
  194.8760  175.5330  145.2590 C   0  0  1  0  0  3  0  0  0  0  0  0
  197.1360  177.2860  143.0080 F   0  0  0  0  0  0  0  0  0  0  0  0
  196.1540  176.4110  143.4240 C   0  0  2  0  0  0  0  0  0  0  0  0
  195.1230  174.0790  143.2620 C   0  0  0  0  0  2  0  0  0  0  0  0
  195.6750  176.5920  144.7540 O   0  0  0  0  0  0  0  0  0  0  0  0
  195.9170  175.1890  142.5890 C   0  0  1  0  0  3  0  0  0  0  0  0
  195.1050  176.3460  142.4880 O   0  0  0  0  0  0  0  0  0  0  0  0
  194.6190  172.9930  145.4830 C   0  0  0  0  0  2  0  0  0  0  0  0
  196.8800  172.1510  145.8690 C   0  0  0  0  0  2  0  0  0  0  0  0
  195.5840  171.8850  145.7440 C   0  0  0  0  0  0  0  0  0  0  0  0
  194.9780  170.2220  146.0150 S   0  0  0  0  0  0  0  0  0  0  0  0
  192.9990  169.3870  144.2920 C   0  0  0  0  0  1  0  0  0  0  0  0
  194.3510  170.0840  144.3110 C   0  0  2  0  0  3  0  0  0  0  0  0
  195.2910  169.4190  143.4680 O   0  0  0  0  0  0  0  0  0  0  0  0
  196.1430  170.0800  142.5760 C   0  0  0  0  0  0  0  0  0  0  0  0
  195.6560  170.7500  141.6310 O   0  0  0  0  0  0  0  0  0  0  0  0
  197.5260  169.9910  142.7060 O   0  0  0  0  0  1  0  0  0  0  0  0
  186.9560  178.0040  143.8990 C   0  0  0  0  0  2  0  0  0  0  0  0
  186.3620  179.1300  143.0440 C   0  0  0  0  0  2  0  0  0  0  0  0
  184.9250  178.9060  142.6960 C   0  0  0  0  0  3  0  0  0  0  0  0
  184.5760  178.4330  141.5400 N   0  0  0  0  0  0  0  0  0  0  0  0
  182.1690  178.6100  142.1290 N   0  0  0  0  0  2  0  0  0  0  0  0
  182.9080  177.7010  140.1010 O   0  0  0  0  0  0  0  0  0  0  0  0
  178.4320  178.4470  140.9880 C   0  0  0  0  0  2  0  0  0  0  0  0
  179.9290  178.8610  142.8180 N   0  0  0  0  0  0  0  0  0  0  0  0
  180.7630  178.6690  141.8560 C   0  0  0  0  0  0  0  0  0  0  0  0
  183.2010  178.2320  141.2070 C   0  0  0  0  0  0  0  0  0  0  0  0
  178.5360  178.9570  142.4170 C   0  0  0  0  0  2  0  0  0  0  0  0
  180.0720  178.6320  140.2110 S   0  0  0  0  0  0  0  0  0  0  0  0
  1 51  1  1  0  0  0
  1 26  1  0  0  0  0
  3  7  1  0  0  0  0
  4  2  1  1  0  0  0
  4  1  1  0  0  0  0
  4  5  1  0  0  0  0
  6  3  1  6  0  0  0
  6  5  1  0  0  0  0
  7  4  1  0  0  0  0
  8 16  1  0  0  0  0
  8 17  2  1  0  0  0
  8 15  1  0  0  0  0
  9 10  1  6  0  0  0
  9 14  1  0  0  0  0
  9 13  1  0  0  0  0
 12  9  1  0  0  0  0
 13 11  1  6  0  0  0
 14  6  1  6  0  0  0
 14 13  1  0  0  0  0
 15 10  1  0  0  0  0
 16 21  1  6  0  0  0
 16 12  1  0  0  0  0
 19 20  1  0  0  0  0
 20 18  1  0  0  0  0
 20  8  1  0  0  0  0
 22 23  1  1  0  0  0
 22 21  1  0  0  0  0
 24 22  1  0  0  0  0
 25 26  2  0  0  0  0
 25 27  1  0  0  0  0
 29 28  1  6  0  0  0
 29 27  1  0  0  0  0
 29 32  1  0  0  0  0
 30 31  1  0  0  0  0
 32 30  1  0  0  0  0
 32 31  1  0  0  0  0
 33 34  1  0  0  0  0
 33 41  1  1  0  0  0
 34 32  1  6  0  0  0
 36 35  1  6  0  0  0
 36 38  1  0  0  0  0
 37 33  1  0  0  0  0
 38 34  1  0  0  0  0
 39 37  1  1  0  0  0
 39 36  1  0  0  0  0
 40 39  1  0  0  0  0
 40 36  1  0  0  0  0
 41 43  1  0  0  0  0
 43 42  2  0  0  0  0
 43 44  1  0  0  0  0
 46 45  1  1  0  0  0
 46 44  1  0  0  0  0
 47 46  1  0  0  0  0
 48 50  1  0  0  0  0
 48 47  1  0  0  0  0
 49 48  2  0  0  0  0
 52 51  1  0  0  0  0
 53 52  1  0  0  0  0
 54 53  2  0  0  0  0
 56 60  2  0  0  0  0
 57 61  1  0  0  0  0
 59 55  1  0  0  0  0
 59 58  2  0  0  0  0
 60 54  1  0  0  0  0
 60 55  1  0  0  0  0
 61 58  1  0  0  0  0
 62 57  1  0  0  0  0
 62 59  1  0  0  0  0
M  END
>  <MODEL>
1

>  <REMARK>
 VINA RESULT:      -6.7      0.000      0.000
  Name = 
  20 active torsions:
  status: ('A' for Active; 'I' for Inactive)
    1  A    between atoms: C_1  and  C_39
    2  A    between atoms: C_2  and  C_26
    3  A    between atoms: O_4  and  C_18
    4  A    between atoms: O_4  and  C_24
    5  A    between atoms: P_6  and  C_34
    6  A    between atoms: C_8  and  C_58
    7  A    between atoms: C_22  and  C_35
    8  A    between atoms: O_23  and  C_45
    9  A    between atoms: O_23  and  C_54
   10  A    between atoms: C_24  and  S_25
   11  A    between atoms: S_25  and  C_50
   12  A    between atoms: C_26  and  C_37
   13  A    between atoms: C_28  and  C_35
   14  A    between atoms: C_33  and  C_46
   15  A    between atoms: C_35  and  C_41
   16  A    between atoms: C_36  and  C_59
   17  A    between atoms: C_37  and  C_58
   18  A    between atoms: C_39  and  C_50
   19  A    between atoms: C_41  and  C_59
   20  A    between atoms: C_42  and  N_62
                            x       y       z     vdW  Elec       q    Type
                         _______ _______ _______ _____ _____    ______ ____

>  <TORSDO>
F 20

$$$$
=
 OpenBabel11062423013D

 62 68  0  0  1  0  0  0  0  0999 V2000
  188.6790  175.4540  141.5620 C   0  0  2  0  0  3  0  0  0  0  0  0
  187.5590  173.2160  141.9730 C   0  0  0  0  0  1  0  0  0  0  0  0
  189.3010  172.5360  139.4340 C   0  0  0  0  0  2  0  0  0  0  0  0
  188.6760  173.9450  141.2260 C   0  0  2  0  0  0  0  0  0  0  0  0
  189.9180  173.3840  141.5840 O   0  0  0  0  0  0  0  0  0  0  0  0
  190.2650  172.4420  140.5930 C   0  0  2  0  0  3  0  0  0  0  0  0
  188.4850  173.7460  139.7390 C   0  0  0  0  0  2  0  0  0  0  0  0
  192.9120  169.1030  137.7640 P   0  0  1  0  0  0  0  0  0  0  0  0
  192.4160  171.4570  139.6330 C   0  0  2  0  0  0  0  0  0  0  0  0
  191.6740  170.1010  139.6950 C   0  0  0  0  0  2  0  0  0  0  0  0
  192.3920  171.3780  142.1870 C   0  0  0  0  0  1  0  0  0  0  0  0
  193.3660  171.7000  138.4560 C   0  0  0  0  0  2  0  0  0  0  0  0
  192.8370  172.1330  140.9350 C   0  0  2  0  0  3  0  0  0  0  0  0
  191.6840  172.7160  140.0870 C   0  0  2  0  0  3  0  0  0  0  0  0
  192.5470  169.0330  139.4290 O   0  0  0  0  0  0  0  0  0  0  0  0
  192.9710  170.8570  137.2430 C   0  0  2  0  0  3  0  0  0  0  0  0
  194.2730  168.4810  137.5430 O   0  0  0  0  0  0  0  0  0  0  0  0
  191.9450  168.2920  135.4490 O   0  0  0  0  0  1  0  0  0  0  0  0
  190.4020  168.6630  137.0780 O   0  0  0  0  0  1  0  0  0  0  0  0
  191.6780  168.1660  136.8120 C   0  0  0  0  0  3  0  0  0  0  0  0
  191.7140  171.2650  136.7810 O   0  0  0  0  0  0  0  0  0  0  0  0
  191.9490  171.8410  135.5300 C   0  0  1  0  0  3  0  0  0  0  0  0
  190.8430  171.4410  134.5740 C   0  0  0  0  0  1  0  0  0  0  0  0
  191.9750  173.2340  135.6460 O   0  0  0  0  0  1  0  0  0  0  0  0
  189.9820  177.0420  142.9760 C   0  0  0  0  0  3  0  0  0  0  0  0
  189.5680  175.8000  142.7360 C   0  0  0  0  0  3  0  0  0  0  0  0
  190.8330  177.3170  144.1710 C   0  0  0  0  0  2  0  0  0  0  0  0
  192.3730  177.9300  142.4390 O   0  0  0  0  0  1  0  0  0  0  0  0
  192.2920  177.4490  143.7470 C   0  0  2  0  0  3  0  0  0  0  0  0
  194.2840  176.0250  142.9240 C   0  0  0  0  0  2  0  0  0  0  0  0
  193.0620  175.1280  142.8010 C   0  0  0  0  0  2  0  0  0  0  0  0
  193.1340  176.1700  143.9120 C   0  0  0  0  0  0  0  0  0  0  0  0
  192.6460  174.4690  145.9300 C   0  0  2  0  0  3  0  0  0  0  0  0
  193.3910  175.6840  145.3600 C   0  0  1  0  0  3  0  0  0  0  0  0
  196.6710  174.3800  146.2490 F   0  0  0  0  0  0  0  0  0  0  0  0
  195.4020  174.4180  145.7060 C   0  0  2  0  0  0  0  0  0  0  0  0
  193.1900  173.2110  145.2910 C   0  0  0  0  0  2  0  0  0  0  0  0
  194.7780  175.6980  145.6610 O   0  0  0  0  0  0  0  0  0  0  0  0
  194.6910  173.1120  145.5190 C   0  0  1  0  0  3  0  0  0  0  0  0
  195.3670  173.7670  144.4600 O   0  0  0  0  0  0  0  0  0  0  0  0
  191.1320  174.5680  145.8290 C   0  0  0  0  0  2  0  0  0  0  0  0
  191.3230  175.5280  148.0680 C   0  0  0  0  0  2  0  0  0  0  0  0
  190.5420  175.0040  147.1280 C   0  0  0  0  0  0  0  0  0  0  0  0
  188.7690  174.9360  147.3690 S   0  0  0  0  0  0  0  0  0  0  0  0
  188.2450  177.6390  147.3290 C   0  0  0  0  0  1  0  0  0  0  0  0
  188.4960  176.4560  146.4060 C   0  0  2  0  0  3  0  0  0  0  0  0
  187.4280  176.2900  145.4720 O   0  0  0  0  0  0  0  0  0  0  0  0
  186.5600  177.3170  145.0890 C   0  0  0  0  0  0  0  0  0  0  0  0
  185.3480  177.2610  145.4150 O   0  0  0  0  0  1  0  0  0  0  0  0
  187.0140  178.3940  144.3330 O   0  0  0  0  0  0  0  0  0  0  0  0
  187.2600  176.0560  141.6550 C   0  0  0  0  0  2  0  0  0  0  0  0
  187.0030  177.2150  140.6840 C   0  0  0  0  0  2  0  0  0  0  0  0
  185.6280  177.7890  140.8100 C   0  0  0  0  0  3  0  0  0  0  0  0
  184.9620  177.7080  141.9200 N   0  0  0  0  0  0  0  0  0  0  0  0
  182.6860  178.0490  140.9830 N   0  0  0  0  0  2  0  0  0  0  0  0
  183.3380  178.9150  143.0590 O   0  0  0  0  0  0  0  0  0  0  0  0
  178.9780  179.1610  141.5400 C   0  0  0  0  0  2  0  0  0  0  0  0
  180.5680  178.2720  139.9750 N   0  0  0  0  0  0  0  0  0  0  0  0
  181.2840  178.3390  141.0430 C   0  0  0  0  0  0  0  0  0  0  0  0
  183.6430  178.2480  142.0340 C   0  0  0  0  0  0  0  0  0  0  0  0
  179.1510  178.5320  140.1650 C   0  0  0  0  0  2  0  0  0  0  0  0
  180.4040  178.6610  142.5620 S   0  0  0  0  0  0  0  0  0  0  0  0
  1 51  1  1  0  0  0
  1 26  1  0  0  0  0
  3  7  1  0  0  0  0
  4  1  1  0  0  0  0
  4  5  1  0  0  0  0
  4  2  1  1  0  0  0
  6  3  1  6  0  0  0
  6  5  1  0  0  0  0
  7  4  1  0  0  0  0
  8 17  2  6  0  0  0
  8 15  1  0  0  0  0
  9 12  1  6  0  0  0
  9 10  1  0  0  0  0
  9 14  1  0  0  0  0
  9 13  1  0  0  0  0
 13 11  1  1  0  0  0
 14  6  1  1  0  0  0
 14 13  1  0  0  0  0
 15 10  1  0  0  0  0
 16 21  1  1  0  0  0
 16  8  1  0  0  0  0
 16 12  1  0  0  0  0
 18 20  1  0  0  0  0
 20 19  1  0  0  0  0
 20  8  1  0  0  0  0
 22 23  1  6  0  0  0
 22 24  1  0  0  0  0
 22 21  1  0  0  0  0
 25 27  1  0  0  0  0
 26 25  2  0  0  0  0
 29 28  1  6  0  0  0
 29 32  1  0  0  0  0
 29 27  1  0  0  0  0
 30 32  1  0  0  0  0
 31 30  1  0  0  0  0
 31 32  1  0  0  0  0
 33 41  1  6  0  0  0
 34 32  1  6  0  0  0
 34 38  1  0  0  0  0
 34 33  1  0  0  0  0
 36 35  1  1  0  0  0
 37 33  1  0  0  0  0
 38 36  1  0  0  0  0
 39 37  1  6  0  0  0
 39 36  1  0  0  0  0
 40 39  1  0  0  0  0
 40 36  1  0  0  0  0
 41 43  1  0  0  0  0
 43 44  1  0  0  0  0
 43 42  2  0  0  0  0
 46 45  1  1  0  0  0
 46 44  1  0  0  0  0
 47 46  1  0  0  0  0
 48 49  1  0  0  0  0
 48 47  1  0  0  0  0
 50 48  2  0  0  0  0
 52 53  1  0  0  0  0
 52 51  1  0  0  0  0
 53 54  2  0  0  0  0
 54 60  1  0  0  0  0
 55 59  1  0  0  0  0
 55 60  1  0  0  0  0
 57 62  1  0  0  0  0
 58 61  1  0  0  0  0
 58 59  2  0  0  0  0
 59 62  1  0  0  0  0
 60 56  2  0  0  0  0
 61 57  1  0  0  0  0
M  END
>  <MODEL>
2

>  <REMARK>
 VINA RESULT:      -5.9      2.441      4.784
  Name = 
  20 active torsions:
  status: ('A' for Active; 'I' for Inactive)
    1  A    between atoms: C_1  and  C_39
    2  A    between atoms: C_2  and  C_26
    3  A    between atoms: O_4  and  C_18
    4  A    between atoms: O_4  and  C_24
    5  A    between atoms: P_6  and  C_34
    6  A    between atoms: C_8  and  C_58
    7  A    between atoms: C_22  and  C_35
    8  A    between atoms: O_23  and  C_45
    9  A    between atoms: O_23  and  C_54
   10  A    between atoms: C_24  and  S_25
   11  A    between atoms: S_25  and  C_50
   12  A    between atoms: C_26  and  C_37
   13  A    between atoms: C_28  and  C_35
   14  A    between atoms: C_33  and  C_46
   15  A    between atoms: C_35  and  C_41
   16  A    between atoms: C_36  and  C_59
   17  A    between atoms: C_37  and  C_58
   18  A    between atoms: C_39  and  C_50
   19  A    between atoms: C_41  and  C_59
   20  A    between atoms: C_42  and  N_62
                            x       y       z     vdW  Elec       q    Type
                         _______ _______ _______ _____ _____    ______ ____

>  <TORSDO>
F 20

$$$$
=
 OpenBabel11062423013D

 62 68  0  0  1  0  0  0  0  0999 V2000
  188.1280  177.2310  143.2590 C   0  0  2  0  0  3  0  0  0  0  0  0
  186.3930  175.3920  143.0650 C   0  0  0  0  0  1  0  0  0  0  0  0
  188.4860  174.4430  140.9070 C   0  0  0  0  0  2  0  0  0  0  0  0
  187.8150  175.8220  142.7060 C   0  0  2  0  0  0  0  0  0  0  0  0
  188.7300  174.8950  143.2430 O   0  0  0  0  0  0  0  0  0  0  0  0
  189.0600  173.9770  142.2250 C   0  0  2  0  0  3  0  0  0  0  0  0
  187.9670  175.8100  141.2010 C   0  0  0  0  0  2  0  0  0  0  0  0
  191.3610  170.4950  139.2680 P   0  0  1  0  0  0  0  0  0  0  0  0
  191.0410  172.5340  141.5090 C   0  0  2  0  0  0  0  0  0  0  0  0
  189.9720  171.4960  141.0920 C   0  0  0  0  0  2  0  0  0  0  0  0
  190.3220  172.0380  143.9100 C   0  0  0  0  0  1  0  0  0  0  0  0
  192.2970  172.6560  140.6410 C   0  0  0  0  0  2  0  0  0  0  0  0
  191.2690  172.8100  142.9930 C   0  0  2  0  0  3  0  0  0  0  0  0
  190.5820  173.8650  142.0960 C   0  0  2  0  0  3  0  0  0  0  0  0
  190.5640  170.2660  140.7590 O   0  0  0  0  0  0  0  0  0  0  0  0
  192.0250  172.2000  139.2070 C   0  0  2  0  0  3  0  0  0  0  0  0
  192.5130  169.5180  139.1830 O   0  0  0  0  0  0  0  0  0  0  0  0
  189.8860  168.8220  137.8620 O   0  0  0  0  0  1  0  0  0  0  0  0
  190.8260  170.5240  136.6840 O   0  0  0  0  0  1  0  0  0  0  0  0
  190.2180  170.1760  137.8900 C   0  0  0  0  0  3  0  0  0  0  0  0
  191.0930  173.0600  138.6130 O   0  0  0  0  0  0  0  0  0  0  0  0
  191.8460  173.9290  137.8200 C   0  0  1  0  0  3  0  0  0  0  0  0
  192.9680  173.1600  137.1510 C   0  0  0  0  0  1  0  0  0  0  0  0
  191.0320  174.5000  136.8380 O   0  0  0  0  0  1  0  0  0  0  0  0
  190.6130  177.3570  143.4280 C   0  0  0  0  0  3  0  0  0  0  0  0
  189.4270  177.2920  144.0310 C   0  0  0  0  0  3  0  0  0  0  0  0
  191.8540  177.4450  144.2530 C   0  0  0  0  0  2  0  0  0  0  0  0
  192.5520  176.0790  142.4100 O   0  0  0  0  0  1  0  0  0  0  0  0
  193.0210  176.8160  143.4990 C   0  0  2  0  0  3  0  0  0  0  0  0
  193.7220  176.0500  145.8650 C   0  0  0  0  0  2  0  0  0  0  0  0
  194.9560  176.7060  145.2650 C   0  0  0  0  0  2  0  0  0  0  0  0
  193.9710  175.9670  144.3650 C   0  0  0  0  0  0  0  0  0  0  0  0
  195.6790  174.4180  142.9910 C   0  0  2  0  0  3  0  0  0  0  0  0
  194.3850  174.5860  143.8000 C   0  0  1  0  0  3  0  0  0  0  0  0
  195.2020  171.8890  146.1030 F   0  0  0  0  0  0  0  0  0  0  0  0
  195.3520  173.0500  145.3730 C   0  0  2  0  0  0  0  0  0  0  0  0
  196.8630  174.5160  143.9260 C   0  0  0  0  0  2  0  0  0  0  0  0
  194.1720  173.5620  144.7590 O   0  0  0  0  0  0  0  0  0  0  0  0
  196.7480  173.4770  145.0310 C   0  0  1  0  0  3  0  0  0  0  0  0
  196.0290  174.0320  146.1190 O   0  0  0  0  0  0  0  0  0  0  0  0
  195.7930  175.3600  141.8030 C   0  0  0  0  0  2  0  0  0  0  0  0
  197.6110  175.8380  140.2420 C   0  0  0  0  0  2  0  0  0  0  0  0
  196.8880  174.9270  140.8860 C   0  0  0  0  0  0  0  0  0  0  0  0
  197.3060  173.1910  140.7550 S   0  0  0  0  0  0  0  0  0  0  0  0
  195.6620  171.5790  139.2450 C   0  0  0  0  0  1  0  0  0  0  0  0
  196.2770  172.9700  139.2700 C   0  0  2  0  0  3  0  0  0  0  0  0
  197.0260  173.2280  138.0820 O   0  0  0  0  0  0  0  0  0  0  0  0
  196.5110  173.8930  136.9640 C   0  0  0  0  0  0  0  0  0  0  0  0
  196.4980  173.3160  135.8480 O   0  0  0  0  0  0  0  0  0  0  0  0
  196.0280  175.1950  137.0640 O   0  0  0  0  0  1  0  0  0  0  0  0
  186.9330  177.8710  143.9970 C   0  0  0  0  0  2  0  0  0  0  0  0
  186.3810  179.1350  143.3260 C   0  0  0  0  0  2  0  0  0  0  0  0
  184.8870  179.1580  143.2610 C   0  0  0  0  0  3  0  0  0  0  0  0
  184.2470  178.6260  142.2660 N   0  0  0  0  0  0  0  0  0  0  0  0
  182.1410  178.3000  140.9880 N   0  0  0  0  0  2  0  0  0  0  0  0
  182.1660  179.0300  143.2130 O   0  0  0  0  0  0  0  0  0  0  0  0
  178.2430  177.9880  141.0010 C   0  0  0  0  0  2  0  0  0  0  0  0
  180.2320  177.9280  139.6570 N   0  0  0  0  0  0  0  0  0  0  0  0
  180.7330  178.0820  140.8340 C   0  0  0  0  0  0  0  0  0  0  0  0
  182.8190  178.6600  142.2000 C   0  0  0  0  0  0  0  0  0  0  0  0
  178.8050  177.6590  139.6260 C   0  0  0  0  0  2  0  0  0  0  0  0
  179.6090  177.8640  142.2020 S   0  0  0  0  0  0  0  0  0  0  0  0
  1 51  1  1  0  0  0
  1 26  1  0  0  0  0
  3  7  1  0  0  0  0
  4  2  1  1  0  0  0
  4  5  1  0  0  0  0
  4  1  1  0  0  0  0
  6  3  1  6  0  0  0
  6  5  1  0  0  0  0
  7  4  1  0  0  0  0
  8 17  2  6  0  0  0
  8 15  1  0  0  0  0
  9 12  1  6  0  0  0
  9 14  1  0  0  0  0
  9 13  1  0  0  0  0
 10  9  1  0  0  0  0
 13 11  1  1  0  0  0
 14  6  1  1  0  0  0
 14 13  1  0  0  0  0
 15 10  1  0  0  0  0
 16 21  1  1  0  0  0
 16  8  1  0  0  0  0
 16 12  1  0  0  0  0
 18 20  1  0  0  0  0
 19 20  1  0  0  0  0
 20  8  1  0  0  0  0
 22 23  1  6  0  0  0
 22 21  1  0  0  0  0
 24 22  1  0  0  0  0
 25 26  2  0  0  0  0
 25 27  1  0  0  0  0
 29 28  1  6  0  0  0
 29 27  1  0  0  0  0
 29 32  1  0  0  0  0
 31 30  1  0  0  0  0
 32 31  1  0  0  0  0
 32 30  1  0  0  0  0
 33 41  1  6  0  0  0
 33 34  1  0  0  0  0
 33 37  1  0  0  0  0
 34 32  1  1  0  0  0
 34 38  1  0  0  0  0
 36 35  1  1  0  0  0
 36 40  1  0  0  0  0
 38 36  1  0  0  0  0
 39 37  1  6  0  0  0
 39 36  1  0  0  0  0
 39 40  1  0  0  0  0
 42 43  2  0  0  0  0
 43 41  1  0  0  0  0
 44 43  1  0  0  0  0
 46 45  1  6  0  0  0
 46 44  1  0  0  0  0
 47 46  1  0  0  0  0
 48 50  1  0  0  0  0
 48 47  1  0  0  0  0
 49 48  2  0  0  0  0
 52 51  1  0  0  0  0
 53 52  1  0  0  0  0
 54 53  2  0  0  0  0
 55 60  1  0  0  0  0
 57 62  1  0  0  0  0
 58 59  2  0  0  0  0
 59 55  1  0  0  0  0
 59 62  1  0  0  0  0
 60 54  1  0  0  0  0
 60 56  2  0  0  0  0
 61 58  1  0  0  0  0
 61 57  1  0  0  0  0
M  END
>  <MODEL>
3

>  <REMARK>
 VINA RESULT:      -5.6      2.177      3.190
  Name = 
  20 active torsions:
  status: ('A' for Active; 'I' for Inactive)
    1  A    between atoms: C_1  and  C_39
    2  A    between atoms: C_2  and  C_26
    3  A    between atoms: O_4  and  C_18
    4  A    between atoms: O_4  and  C_24
    5  A    between atoms: P_6  and  C_34
    6  A    between atoms: C_8  and  C_58
    7  A    between atoms: C_22  and  C_35
    8  A    between atoms: O_23  and  C_45
    9  A    between atoms: O_23  and  C_54
   10  A    between atoms: C_24  and  S_25
   11  A    between atoms: S_25  and  C_50
   12  A    between atoms: C_26  and  C_37
   13  A    between atoms: C_28  and  C_35
   14  A    between atoms: C_33  and  C_46
   15  A    between atoms: C_35  and  C_41
   16  A    between atoms: C_36  and  C_59
   17  A    between atoms: C_37  and  C_58
   18  A    between atoms: C_39  and  C_50
   19  A    between atoms: C_41  and  C_59
   20  A    between atoms: C_42  and  N_62
                            x       y       z     vdW  Elec       q    Type
                         _______ _______ _______ _____ _____    ______ ____

>  <TORSDO>
F 20

$$$$
=
 OpenBabel11062423013D

 62 68  0  0  1  0  0  0  0  0999 V2000
  188.5760  175.4370  141.9650 C   0  0  2  0  0  3  0  0  0  0  0  0
  187.4040  173.1930  141.8160 C   0  0  0  0  0  1  0  0  0  0  0  0
  189.4200  172.9560  139.4030 C   0  0  0  0  0  2  0  0  0  0  0  0
  188.6030  174.0190  141.3500 C   0  0  2  0  0  0  0  0  0  0  0  0
  189.7930  173.3670  141.7290 O   0  0  0  0  0  0  0  0  0  0  0  0
  190.2450  172.6190  140.6220 C   0  0  2  0  0  3  0  0  0  0  0  0
  188.5810  174.1090  139.8400 C   0  0  0  0  0  2  0  0  0  0  0  0
  192.9470  170.3320  136.9300 P   0  0  1  0  0  0  0  0  0  0  0  0
  192.4160  171.8830  139.4990 C   0  0  2  0  0  0  0  0  0  0  0  0
  191.6030  170.6590  139.0150 C   0  0  0  0  0  2  0  0  0  0  0  0
  192.1720  170.8870  141.8400 C   0  0  0  0  0  1  0  0  0  0  0  0
  193.4730  172.4590  138.5510 C   0  0  0  0  0  2  0  0  0  0  0  0
  192.7600  172.0060  140.9800 C   0  0  2  0  0  3  0  0  0  0  0  0
  191.7140  172.9450  140.3380 C   0  0  2  0  0  3  0  0  0  0  0  0
  192.4390  169.6940  138.4290 O   0  0  0  0  0  0  0  0  0  0  0  0
  193.1390  172.1460  137.0930 C   0  0  2  0  0  3  0  0  0  0  0  0
  194.2880  169.7270  136.5790 O   0  0  0  0  0  0  0  0  0  0  0  0
  190.8560  168.9490  136.1130 O   0  0  0  0  0  1  0  0  0  0  0  0
  192.4230  169.3820  134.5240 O   0  0  0  0  0  1  0  0  0  0  0  0
  191.7500  169.9030  135.6290 C   0  0  0  0  0  3  0  0  0  0  0  0
  191.9480  172.7900  136.7380 O   0  0  0  0  0  0  0  0  0  0  0  0
  192.3250  173.7960  135.8440 C   0  0  1  0  0  3  0  0  0  0  0  0
  192.3600  175.1280  136.5660 C   0  0  0  0  0  1  0  0  0  0  0  0
  193.5930  173.5200  135.3260 O   0  0  0  0  0  1  0  0  0  0  0  0
  190.1560  176.3960  143.6390 C   0  0  0  0  0  3  0  0  0  0  0  0
  189.2160  175.5030  143.3330 C   0  0  0  0  0  3  0  0  0  0  0  0
  190.7230  176.4240  145.0200 C   0  0  0  0  0  2  0  0  0  0  0  0
  190.6450  175.0030  146.9500 O   0  0  0  0  0  1  0  0  0  0  0  0
  190.8280  175.0040  145.5650 C   0  0  2  0  0  3  0  0  0  0  0  0
  192.4200  174.2090  143.6920 C   0  0  0  0  0  2  0  0  0  0  0  0
  191.9780  172.9470  144.4160 C   0  0  0  0  0  2  0  0  0  0  0  0
  192.1200  174.2560  145.1840 C   0  0  0  0  0  0  0  0  0  0  0  0
  194.7570  174.1080  145.6640 C   0  0  2  0  0  3  0  0  0  0  0  0
  193.3300  174.4220  146.1370 C   0  0  1  0  0  3  0  0  0  0  0  0
  194.2120  177.7440  147.3370 F   0  0  0  0  0  0  0  0  0  0  0  0
  194.1040  176.6710  146.4750 C   0  0  2  0  0  0  0  0  0  0  0  0
  195.2130  175.1910  144.7130 C   0  0  0  0  0  2  0  0  0  0  0  0
  193.2260  175.6250  146.8830 O   0  0  0  0  0  0  0  0  0  0  0  0
  195.1270  176.5530  145.3860 C   0  0  1  0  0  3  0  0  0  0  0  0
  193.8400  177.1020  145.1620 O   0  0  0  0  0  0  0  0  0  0  0  0
  194.9230  172.7130  145.0840 C   0  0  0  0  0  2  0  0  0  0  0  0
  196.8260  171.5980  146.1360 C   0  0  0  0  0  2  0  0  0  0  0  0
  196.3560  172.2960  145.1070 C   0  0  0  0  0  0  0  0  0  0  0  0
  197.4040  172.6290  143.6940 S   0  0  0  0  0  0  0  0  0  0  0  0
  196.0090  170.7690  142.2190 C   0  0  0  0  0  1  0  0  0  0  0  0
  196.0690  172.2600  142.5130 C   0  0  2  0  0  3  0  0  0  0  0  0
  196.2170  173.0210  141.3130 O   0  0  0  0  0  0  0  0  0  0  0  0
  195.9730  174.3950  141.2260 C   0  0  0  0  0  0  0  0  0  0  0  0
  196.8980  175.2090  141.4730 O   0  0  0  0  0  1  0  0  0  0  0  0
  194.7120  174.8790  140.8900 O   0  0  0  0  0  0  0  0  0  0  0  0
  187.1840  176.1000  141.8940 C   0  0  0  0  0  2  0  0  0  0  0  0
  187.2090  177.5720  141.4630 C   0  0  0  0  0  2  0  0  0  0  0  0
  185.8650  178.2250  141.5330 C   0  0  0  0  0  3  0  0  0  0  0  0
  184.8410  177.6090  142.0360 N   0  0  0  0  0  0  0  0  0  0  0  0
  182.5810  177.9740  141.0690 N   0  0  0  0  0  2  0  0  0  0  0  0
  183.2960  179.0240  143.0360 O   0  0  0  0  0  0  0  0  0  0  0  0
  178.9460  179.3490  141.5040 C   0  0  0  0  0  2  0  0  0  0  0  0
  180.4710  178.2040  140.0450 N   0  0  0  0  0  0  0  0  0  0  0  0
  181.1980  178.3480  141.0980 C   0  0  0  0  0  0  0  0  0  0  0  0
  183.5550  178.2320  142.0900 C   0  0  0  0  0  0  0  0  0  0  0  0
  179.0730  178.5640  140.2070 C   0  0  0  0  0  2  0  0  0  0  0  0
  180.3490  178.8840  142.5730 S   0  0  0  0  0  0  0  0  0  0  0  0
  1 51  1  1  0  0  0
  1 26  1  0  0  0  0
  3  7  1  0  0  0  0
  4  5  1  0  0  0  0
  4  2  1  1  0  0  0
  4  1  1  0  0  0  0
  6  3  1  6  0  0  0
  6  5  1  0  0  0  0
  7  4  1  0  0  0  0
  8 17  2  6  0  0  0
  8 16  1  0  0  0  0
  8 15  1  0  0  0  0
  9 12  1  6  0  0  0
  9 14  1  0  0  0  0
  9 13  1  0  0  0  0
 10  9  1  0  0  0  0
 13 11  1  1  0  0  0
 14  6  1  1  0  0  0
 14 13  1  0  0  0  0
 15 10  1  0  0  0  0
 16 21  1  1  0  0  0
 16 12  1  0  0  0  0
 19 20  1  0  0  0  0
 20 18  1  0  0  0  0
 20  8  1  0  0  0  0
 22 23  1  1  0  0  0
 22 21  1  0  0  0  0
 24 22  1  0  0  0  0
 25 27  1  0  0  0  0
 26 25  2  0  0  0  0
 27 29  1  0  0  0  0
 29 28  1  1  0  0  0
 30 31  1  0  0  0  0
 30 32  1  0  0  0  0
 31 32  1  0  0  0  0
 32 29  1  0  0  0  0
 33 41  1  6  0  0  0
 33 34  1  0  0  0  0
 34 32  1  6  0  0  0
 34 38  1  0  0  0  0
 36 38  1  0  0  0  0
 36 35  1  1  0  0  0
 37 33  1  0  0  0  0
 39 37  1  6  0  0  0
 39 36  1  0  0  0  0
 40 39  1  0  0  0  0
 40 36  1  0  0  0  0
 41 43  1  0  0  0  0
 43 42  2  0  0  0  0
 44 43  1  0  0  0  0
 46 45  1  6  0  0  0
 46 44  1  0  0  0  0
 47 46  1  0  0  0  0
 48 47  1  0  0  0  0
 48 49  1  0  0  0  0
 50 48  2  0  0  0  0
 52 53  1  0  0  0  0
 52 51  1  0  0  0  0
 53 54  2  0  0  0  0
 54 60  1  0  0  0  0
 55 59  1  0  0  0  0
 55 60  1  0  0  0  0
 57 62  1  0  0  0  0
 58 61  1  0  0  0  0
 58 59  2  0  0  0  0
 59 62  1  0  0  0  0
 60 56  2  0  0  0  0
 61 57  1  0  0  0  0
M  END
>  <MODEL>
4

>  <REMARK>
 VINA RESULT:      -5.4      2.174      3.113
  Name = 
  20 active torsions:
  status: ('A' for Active; 'I' for Inactive)
    1  A    between atoms: C_1  and  C_39
    2  A    between atoms: C_2  and  C_26
    3  A    between atoms: O_4  and  C_18
    4  A    between atoms: O_4  and  C_24
    5  A    between atoms: P_6  and  C_34
    6  A    between atoms: C_8  and  C_58
    7  A    between atoms: C_22  and  C_35
    8  A    between atoms: O_23  and  C_45
    9  A    between atoms: O_23  and  C_54
   10  A    between atoms: C_24  and  S_25
   11  A    between atoms: S_25  and  C_50
   12  A    between atoms: C_26  and  C_37
   13  A    between atoms: C_28  and  C_35
   14  A    between atoms: C_33  and  C_46
   15  A    between atoms: C_35  and  C_41
   16  A    between atoms: C_36  and  C_59
   17  A    between atoms: C_37  and  C_58
   18  A    between atoms: C_39  and  C_50
   19  A    between atoms: C_41  and  C_59
   20  A    between atoms: C_42  and  N_62
                            x       y       z     vdW  Elec       q    Type
                         _______ _______ _______ _____ _____    ______ ____

>  <TORSDO>
F 20

$$$$
=
 OpenBabel11062423013D

 62 68  0  0  1  0  0  0  0  0999 V2000
  188.1840  176.4100  141.8900 C   0  0  2  0  0  3  0  0  0  0  0  0
  187.1050  174.1440  142.2520 C   0  0  0  0  0  1  0  0  0  0  0  0
  188.9160  173.5310  139.7450 C   0  0  0  0  0  2  0  0  0  0  0  0
  188.2220  174.9060  141.5380 C   0  0  2  0  0  0  0  0  0  0  0  0
  189.4680  174.3680  141.9160 O   0  0  0  0  0  0  0  0  0  0  0  0
  189.8570  173.4450  140.9230 C   0  0  2  0  0  3  0  0  0  0  0  0
  188.0660  174.7200  140.0450 C   0  0  0  0  0  2  0  0  0  0  0  0
  192.4220  170.4700  137.6470 P   0  0  1  0  0  0  0  0  0  0  0  0
  191.9830  172.5570  139.8240 C   0  0  2  0  0  0  0  0  0  0  0  0
  191.2120  171.2200  139.7040 C   0  0  0  0  0  2  0  0  0  0  0  0
  191.9650  172.1290  142.3430 C   0  0  0  0  0  1  0  0  0  0  0  0
  192.9340  172.9380  138.6850 C   0  0  0  0  0  2  0  0  0  0  0  0
  192.4230  173.0380  141.2030 C   0  0  2  0  0  3  0  0  0  0  0  0
  191.2800  173.7560  140.4510 C   0  0  2  0  0  3  0  0  0  0  0  0
  192.0610  170.1810  139.2890 O   0  0  0  0  0  0  0  0  0  0  0  0
  192.5170  172.2780  137.3710 C   0  0  2  0  0  3  0  0  0  0  0  0
  193.7690  169.8560  137.3350 O   0  0  0  0  0  0  0  0  0  0  0  0
  190.3830  168.8270  137.3400 O   0  0  0  0  0  1  0  0  0  0  0  0
  191.7880  168.9850  135.5590 O   0  0  0  0  0  1  0  0  0  0  0  0
  191.1640  169.6990  136.5830 C   0  0  0  0  0  3  0  0  0  0  0  0
  191.2680  172.7720  136.9770 O   0  0  0  0  0  0  0  0  0  0  0  0
  191.5430  173.9200  136.2290 C   0  0  1  0  0  3  0  0  0  0  0  0
  192.3490  173.5420  135.0020 C   0  0  0  0  0  1  0  0  0  0  0  0
  190.3480  174.5220  135.8260 O   0  0  0  0  0  1  0  0  0  0  0  0
  190.3340  177.5210  142.4920 C   0  0  0  0  0  3  0  0  0  0  0  0
  189.2650  176.8200  142.8650 C   0  0  0  0  0  3  0  0  0  0  0  0
  191.3470  177.9180  143.5140 C   0  0  0  0  0  2  0  0  0  0  0  0
  192.5610  176.4240  142.0830 O   0  0  0  0  0  1  0  0  0  0  0  0
  192.6810  177.2450  143.2070 C   0  0  2  0  0  3  0  0  0  0  0  0
  193.6280  177.3170  145.6100 C   0  0  0  0  0  2  0  0  0  0  0  0
  194.7550  176.7790  144.7420 C   0  0  0  0  0  2  0  0  0  0  0  0
  193.3050  176.4720  144.3840 C   0  0  0  0  0  0  0  0  0  0  0  0
  193.2280  174.2360  145.8670 C   0  0  2  0  0  3  0  0  0  0  0  0
  192.7710  175.0420  144.6420 C   0  0  1  0  0  3  0  0  0  0  0  0
  189.2340  174.5590  145.3550 F   0  0  0  0  0  0  0  0  0  0  0  0
  190.5580  174.8920  145.5630 C   0  0  2  0  0  0  0  0  0  0  0  0
  192.5900  174.8190  147.1080 C   0  0  0  0  0  2  0  0  0  0  0  0
  191.3750  174.9700  144.3980 O   0  0  0  0  0  0  0  0  0  0  0  0
  191.0760  174.8250  146.9680 C   0  0  1  0  0  3  0  0  0  0  0  0
  190.6690  176.0420  146.3650 O   0  0  0  0  0  0  0  0  0  0  0  0
  194.7370  174.1030  145.9920 C   0  0  0  0  0  2  0  0  0  0  0  0
  194.2810  171.8160  145.2610 C   0  0  0  0  0  2  0  0  0  0  0  0
  195.1780  172.7220  145.6380 C   0  0  0  0  0  0  0  0  0  0  0  0
  196.9240  172.3260  145.6020 S   0  0  0  0  0  0  0  0  0  0  0  0
  197.7700  170.5030  143.7200 C   0  0  0  0  0  1  0  0  0  0  0  0
  196.8280  171.6840  143.9010 C   0  0  2  0  0  3  0  0  0  0  0  0
  197.0930  172.7120  142.9470 O   0  0  0  0  0  0  0  0  0  0  0  0
  196.1560  173.1730  142.0160 C   0  0  0  0  0  0  0  0  0  0  0  0
  196.0420  172.5930  140.9080 O   0  0  0  0  0  0  0  0  0  0  0  0
  195.3590  174.2810  142.2910 O   0  0  0  0  0  1  0  0  0  0  0  0
  186.7730  176.9050  142.2770 C   0  0  0  0  0  2  0  0  0  0  0  0
  186.2710  178.0900  141.4430 C   0  0  0  0  0  2  0  0  0  0  0  0
  184.8500  178.4520  141.7380 C   0  0  0  0  0  3  0  0  0  0  0  0
  183.8680  177.9280  141.0730 N   0  0  0  0  0  0  0  0  0  0  0  0
  181.4970  178.1080  140.3500 N   0  0  0  0  0  2  0  0  0  0  0  0
  182.2230  178.7780  142.4750 O   0  0  0  0  0  0  0  0  0  0  0  0
  177.7500  178.6860  141.3080 C   0  0  0  0  0  2  0  0  0  0  0  0
  179.2890  178.2000  139.5310 N   0  0  0  0  0  0  0  0  0  0  0  0
  180.0810  178.2170  140.5460 C   0  0  0  0  0  0  0  0  0  0  0  0
  182.5110  178.2860  141.3500 C   0  0  0  0  0  0  0  0  0  0  0  0
  177.8740  178.2620  139.8530 C   0  0  0  0  0  2  0  0  0  0  0  0
  179.3030  178.2370  142.1520 S   0  0  0  0  0  0  0  0  0  0  0  0
  1 51  1  1  0  0  0
  1 26  1  0  0  0  0
  3  7  1  0  0  0  0
  4  1  1  0  0  0  0
  4  5  1  0  0  0  0
  4  2  1  1  0  0  0
  6  3  1  6  0  0  0
  6  5  1  0  0  0  0
  7  4  1  0  0  0  0
  8 17  2  6  0  0  0
  8 15  1  0  0  0  0
  9 12  1  6  0  0  0
  9 14  1  0  0  0  0
  9 13  1  0  0  0  0
 10  9  1  0  0  0  0
 13 11  1  1  0  0  0
 14  6  1  1  0  0  0
 14 13  1  0  0  0  0
 15 10  1  0  0  0  0
 16 21  1  1  0  0  0
 16  8  1  0  0  0  0
 16 12  1  0  0  0  0
 19 20  1  0  0  0  0
 20 18  1  0  0  0  0
 20  8  1  0  0  0  0
 22 23  1  6  0  0  0
 22 21  1  0  0  0  0
 24 22  1  0  0  0  0
 25 26  2  0  0  0  0
 25 27  1  0  0  0  0
 29 28  1  6  0  0  0
 29 27  1  0  0  0  0
 29 32  1  0  0  0  0
 31 30  1  0  0  0  0
 32 31  1  0  0  0  0
 32 30  1  0  0  0  0
 33 41  1  1  0  0  0
 33 37  1  0  0  0  0
 34 32  1  1  0  0  0
 34 33  1  0  0  0  0
 36 35  1  6  0  0  0
 36 40  1  0  0  0  0
 36 39  1  0  0  0  0
 38 34  1  0  0  0  0
 38 36  1  0  0  0  0
 39 37  1  6  0  0  0
 40 39  1  0  0  0  0
 42 43  2  0  0  0  0
 43 41  1  0  0  0  0
 44 43  1  0  0  0  0
 46 45  1  1  0  0  0
 46 44  1  0  0  0  0
 47 46  1  0  0  0  0
 48 50  1  0  0  0  0
 48 47  1  0  0  0  0
 49 48  2  0  0  0  0
 52 53  1  0  0  0  0
 52 51  1  0  0  0  0
 54 60  1  0  0  0  0
 54 53  2  0  0  0  0
 55 59  1  0  0  0  0
 55 60  1  0  0  0  0
 57 62  1  0  0  0  0
 58 61  1  0  0  0  0
 58 59  2  0  0  0  0
 59 62  1  0  0  0  0
 60 56  2  0  0  0  0
 61 57  1  0  0  0  0
M  END
>  <MODEL>
5

>  <REMARK>
 VINA RESULT:      -5.3      2.235      3.176
  Name = 
  20 active torsions:
  status: ('A' for Active; 'I' for Inactive)
    1  A    between atoms: C_1  and  C_39
    2  A    between atoms: C_2  and  C_26
    3  A    between atoms: O_4  and  C_18
    4  A    between atoms: O_4  and  C_24
    5  A    between atoms: P_6  and  C_34
    6  A    between atoms: C_8  and  C_58
    7  A    between atoms: C_22  and  C_35
    8  A    between atoms: O_23  and  C_45
    9  A    between atoms: O_23  and  C_54
   10  A    between atoms: C_24  and  S_25
   11  A    between atoms: S_25  and  C_50
   12  A    between atoms: C_26  and  C_37
   13  A    between atoms: C_28  and  C_35
   14  A    between atoms: C_33  and  C_46
   15  A    between atoms: C_35  and  C_41
   16  A    between atoms: C_36  and  C_59
   17  A    between atoms: C_37  and  C_58
   18  A    between atoms: C_39  and  C_50
   19  A    between atoms: C_41  and  C_59
   20  A    between atoms: C_42  and  N_62
                            x       y       z     vdW  Elec       q    Type
                         _______ _______ _______ _____ _____    ______ ____

>  <TORSDO>
F 20

$$$$
=
 OpenBabel11062423013D

 62 68  0  0  1  0  0  0  0  0999 V2000
  187.3890  177.6440  143.8600 C   0  0  2  0  0  3  0  0  0  0  0  0
  186.0400  177.4110  141.7260 C   0  0  0  0  0  1  0  0  0  0  0  0
  188.7140  175.9710  140.8810 C   0  0  0  0  0  2  0  0  0  0  0  0
  187.2780  176.9390  142.4890 C   0  0  2  0  0  0  0  0  0  0  0  0
  187.2010  175.5460  142.6840 O   0  0  0  0  0  0  0  0  0  0  0  0
  187.9510  174.9270  141.6630 C   0  0  2  0  0  3  0  0  0  0  0  0
  188.5070  177.2280  141.6570 C   0  0  0  0  0  2  0  0  0  0  0  0
  190.5710  171.5310  138.8760 P   0  0  1  0  0  0  0  0  0  0  0  0
  189.2860  172.7740  141.3430 C   0  0  2  0  0  0  0  0  0  0  0  0
  188.6520  172.7400  139.9320 C   0  0  0  0  0  2  0  0  0  0  0  0
  186.9280  172.3110  142.2130 C   0  0  0  0  0  1  0  0  0  0  0  0
  190.7300  172.2850  141.4910 C   0  0  0  0  0  2  0  0  0  0  0  0
  188.4030  172.5150  142.5600 C   0  0  2  0  0  3  0  0  0  0  0  0
  188.9440  173.9340  142.2730 C   0  0  2  0  0  3  0  0  0  0  0  0
  188.9160  171.5190  139.2880 O   0  0  0  0  0  0  0  0  0  0  0  0
  191.4990  172.4260  140.1770 C   0  0  2  0  0  3  0  0  0  0  0  0
  191.0630  170.1020  138.8180 O   0  0  0  0  0  0  0  0  0  0  0  0
  189.6910  172.0470  136.4440 O   0  0  0  0  0  1  0  0  0  0  0  0
  191.9390  171.7670  136.6310 O   0  0  0  0  0  1  0  0  0  0  0  0
  190.8050  172.2990  137.2440 C   0  0  0  0  0  3  0  0  0  0  0  0
  191.6110  173.7810  139.8440 O   0  0  0  0  0  0  0  0  0  0  0  0
  192.8740  174.1700  140.2990 C   0  0  1  0  0  3  0  0  0  0  0  0
  193.6820  172.9390  140.6580 C   0  0  0  0  0  1  0  0  0  0  0  0
  193.5400  174.8810  139.2970 O   0  0  0  0  0  1  0  0  0  0  0  0
  189.7130  177.6830  144.7650 C   0  0  0  0  0  3  0  0  0  0  0  0
  188.5130  177.1060  144.7160 C   0  0  0  0  0  3  0  0  0  0  0  0
  190.7670  177.1150  145.6550 C   0  0  0  0  0  2  0  0  0  0  0  0
  191.7250  176.7960  143.4800 O   0  0  0  0  0  1  0  0  0  0  0  0
  192.0250  176.8200  144.8440 C   0  0  2  0  0  3  0  0  0  0  0  0
  192.3290  174.9280  146.5780 C   0  0  0  0  0  2  0  0  0  0  0  0
  193.6790  175.6230  146.4880 C   0  0  0  0  0  2  0  0  0  0  0  0
  192.7800  175.5430  145.2590 C   0  0  0  0  0  0  0  0  0  0  0  0
  194.6340  174.3820  143.7040 C   0  0  2  0  0  3  0  0  0  0  0  0
  193.1690  174.5620  144.1260 C   0  0  1  0  0  3  0  0  0  0  0  0
  192.6250  170.9930  144.5940 F   0  0  0  0  0  0  0  0  0  0  0  0
  193.2160  172.2340  144.7180 C   0  0  2  0  0  0  0  0  0  0  0  0
  195.3680  173.6100  144.7770 C   0  0  0  0  0  2  0  0  0  0  0  0
  192.4540  173.3410  144.2450 O   0  0  0  0  0  0  0  0  0  0  0  0
  194.6820  172.2750  145.0260 C   0  0  1  0  0  3  0  0  0  0  0  0
  193.6920  172.4390  146.0260 O   0  0  0  0  0  0  0  0  0  0  0  0
  195.3350  175.6800  143.3350 C   0  0  0  0  0  2  0  0  0  0  0  0
  197.6890  176.2800  143.0720 C   0  0  0  0  0  2  0  0  0  0  0  0
  196.7120  175.4120  142.8260 C   0  0  0  0  0  0  0  0  0  0  0  0
  197.0720  173.8660  141.9990 S   0  0  0  0  0  0  0  0  0  0  0  0
  196.5410  175.7490  140.0610 C   0  0  0  0  0  1  0  0  0  0  0  0
  197.5740  174.7070  140.4650 C   0  0  2  0  0  3  0  0  0  0  0  0
  197.8030  173.7680  139.4140 O   0  0  0  0  0  0  0  0  0  0  0  0
  196.9300  173.5710  138.3390 C   0  0  0  0  0  0  0  0  0  0  0  0
  197.1130  174.1970  137.2650 O   0  0  0  0  0  0  0  0  0  0  0  0
  195.8450  172.7050  138.4470 O   0  0  0  0  0  1  0  0  0  0  0  0
  186.0370  177.7480  144.5980 C   0  0  0  0  0  2  0  0  0  0  0  0
  185.5460  179.1850  144.8160 C   0  0  0  0  0  2  0  0  0  0  0  0
  184.1530  179.4090  144.3200 C   0  0  0  0  0  3  0  0  0  0  0  0
  183.6360  178.6570  143.3980 N   0  0  0  0  0  0  0  0  0  0  0  0
  181.8900  178.3320  141.6600 N   0  0  0  0  0  2  0  0  0  0  0  0
  181.5170  179.5850  143.6030 O   0  0  0  0  0  0  0  0  0  0  0  0
  178.1330  178.6040  140.6100 C   0  0  0  0  0  2  0  0  0  0  0  0
  180.3340  177.9200  139.9380 N   0  0  0  0  0  0  0  0  0  0  0  0
  180.5510  178.2900  141.1530 C   0  0  0  0  0  0  0  0  0  0  0  0
  182.3090  178.8820  142.9170 C   0  0  0  0  0  0  0  0  0  0  0  0
  178.9360  177.8630  139.5510 C   0  0  0  0  0  2  0  0  0  0  0  0
  179.1040  178.5880  142.1540 S   0  0  0  0  0  0  0  0  0  0  0  0
  1 51  1  1  0  0  0
  1 26  1  0  0  0  0
  3  7  1  0  0  0  0
  4  2  1  6  0  0  0
  4  5  1  0  0  0  0
  4  1  1  0  0  0  0
  6  3  1  1  0  0  0
  6  5  1  0  0  0  0
  7  4  1  0  0  0  0
  8 17  2  6  0  0  0
  8 15  1  0  0  0  0
  8 16  1  0  0  0  0
  9 10  1  6  0  0  0
  9 12  1  0  0  0  0
  9 14  1  0  0  0  0
  9 13  1  0  0  0  0
 13 11  1  6  0  0  0
 14  6  1  6  0  0  0
 14 13  1  0  0  0  0
 15 10  1  0  0  0  0
 16 21  1  6  0  0  0
 16 12  1  0  0  0  0
 18 20  1  0  0  0  0
 19 20  1  0  0  0  0
 20  8  1  0  0  0  0
 21 22  1  0  0  0  0
 22 23  1  6  0  0  0
 24 22  1  0  0  0  0
 25 27  1  0  0  0  0
 26 25  2  0  0  0  0
 29 28  1  6  0  0  0
 29 32  1  0  0  0  0
 29 27  1  0  0  0  0
 31 30  1  0  0  0  0
 32 31  1  0  0  0  0
 32 30  1  0  0  0  0
 33 41  1  1  0  0  0
 33 34  1  0  0  0  0
 33 37  1  0  0  0  0
 34 38  1  0  0  0  0
 34 32  1  1  0  0  0
 36 35  1  6  0  0  0
 36 39  1  0  0  0  0
 36 40  1  0  0  0  0
 38 36  1  0  0  0  0
 39 37  1  6  0  0  0
 39 40  1  0  0  0  0
 43 42  2  0  0  0  0
 43 41  1  0  0  0  0
 44 43  1  0  0  0  0
 46 45  1  6  0  0  0
 46 44  1  0  0  0  0
 47 46  1  0  0  0  0
 48 50  1  0  0  0  0
 48 47  1  0  0  0  0
 49 48  2  0  0  0  0
 51 52  1  0  0  0  0
 53 52  1  0  0  0  0
 54 53  2  0  0  0  0
 55 60  1  0  0  0  0
 57 62  1  0  0  0  0
 58 59  2  0  0  0  0
 59 55  1  0  0  0  0
 59 62  1  0  0  0  0
 60 54  1  0  0  0  0
 60 56  2  0  0  0  0
 61 58  1  0  0  0  0
 61 57  1  0  0  0  0
M  END
>  <MODEL>
6

>  <REMARK>
 VINA RESULT:      -5.2      2.410      3.406
  Name = 
  20 active torsions:
  status: ('A' for Active; 'I' for Inactive)
    1  A    between atoms: C_1  and  C_39
    2  A    between atoms: C_2  and  C_26
    3  A    between atoms: O_4  and  C_18
    4  A    between atoms: O_4  and  C_24
    5  A    between atoms: P_6  and  C_34
    6  A    between atoms: C_8  and  C_58
    7  A    between atoms: C_22  and  C_35
    8  A    between atoms: O_23  and  C_45
    9  A    between atoms: O_23  and  C_54
   10  A    between atoms: C_24  and  S_25
   11  A    between atoms: S_25  and  C_50
   12  A    between atoms: C_26  and  C_37
   13  A    between atoms: C_28  and  C_35
   14  A    between atoms: C_33  and  C_46
   15  A    between atoms: C_35  and  C_41
   16  A    between atoms: C_36  and  C_59
   17  A    between atoms: C_37  and  C_58
   18  A    between atoms: C_39  and  C_50
   19  A    between atoms: C_41  and  C_59
   20  A    between atoms: C_42  and  N_62
                            x       y       z     vdW  Elec       q    Type
                         _______ _______ _______ _____ _____    ______ ____

>  <TORSDO>
F 20

$$$$
=
 OpenBabel11062423013D

 62 68  0  0  1  0  0  0  0  0999 V2000
  189.4490  173.6910  138.0220 C   0  0  2  0  0  3  0  0  0  0  0  0
  189.4540  171.1630  138.2280 C   0  0  0  0  0  1  0  0  0  0  0  0
  192.0350  171.8850  139.8880 C   0  0  0  0  0  2  0  0  0  0  0  0
  190.0410  172.4690  138.7630 C   0  0  2  0  0  0  0  0  0  0  0  0
  189.7600  172.5760  140.1390 O   0  0  0  0  0  0  0  0  0  0  0  0
  190.8900  172.1160  140.8460 C   0  0  2  0  0  3  0  0  0  0  0  0
  191.5440  172.4390  138.5940 C   0  0  0  0  0  2  0  0  0  0  0  0
  194.4650  171.2190  144.3930 P   0  0  1  0  0  0  0  0  0  0  0  0
  192.0670  172.5540  143.0690 C   0  0  2  0  0  0  0  0  0  0  0  0
  192.3460  171.0320  143.0770 C   0  0  0  0  0  2  0  0  0  0  0  0
  189.6130  171.9190  143.4000 C   0  0  0  0  0  1  0  0  0  0  0  0
  193.1460  173.4810  143.6360 C   0  0  0  0  0  2  0  0  0  0  0  0
  190.6370  173.0470  143.2740 C   0  0  2  0  0  3  0  0  0  0  0  0
  191.3120  173.1560  141.8880 C   0  0  2  0  0  3  0  0  0  0  0  0
  192.8700  170.6190  144.3130 O   0  0  0  0  0  0  0  0  0  0  0  0
  194.5310  172.8400  143.5430 C   0  0  2  0  0  3  0  0  0  0  0  0
  194.8350  171.4120  145.8470 O   0  0  0  0  0  0  0  0  0  0  0  0
  194.9150  169.1290  142.8500 O   0  0  0  0  0  1  0  0  0  0  0  0
  196.2880  169.3280  144.6510 O   0  0  0  0  0  1  0  0  0  0  0  0
  195.6210  170.0290  143.6470 C   0  0  0  0  0  3  0  0  0  0  0  0
  194.8760  172.6660  142.1980 O   0  0  0  0  0  0  0  0  0  0  0  0
  195.8640  173.6220  141.9440 C   0  0  1  0  0  3  0  0  0  0  0  0
  197.1090  172.9330  141.4210 C   0  0  0  0  0  1  0  0  0  0  0  0
  195.4070  174.5330  140.9880 O   0  0  0  0  0  1  0  0  0  0  0  0
  187.9310  175.5040  138.8140 C   0  0  0  0  0  3  0  0  0  0  0  0
  188.1730  174.2040  138.6490 C   0  0  0  0  0  3  0  0  0  0  0  0
  186.6360  175.9420  139.4120 C   0  0  0  0  0  2  0  0  0  0  0  0
  187.8150  177.8250  140.3140 O   0  0  0  0  0  1  0  0  0  0  0  0
  186.9000  176.8190  140.6310 C   0  0  2  0  0  3  0  0  0  0  0  0
  188.8490  175.9550  142.0910 C   0  0  0  0  0  2  0  0  0  0  0  0
  188.0500  174.7210  141.7040 C   0  0  0  0  0  2  0  0  0  0  0  0
  187.3420  176.0580  141.8960 C   0  0  0  0  0  0  0  0  0  0  0  0
  187.1020  176.8170  144.4590 C   0  0  2  0  0  3  0  0  0  0  0  0
  186.4830  176.2600  143.1690 C   0  0  1  0  0  3  0  0  0  0  0  0
  183.7870  178.7050  143.1330 F   0  0  0  0  0  0  0  0  0  0  0  0
  185.0720  178.2030  143.1910 C   0  0  2  0  0  0  0  0  0  0  0  0
  187.3820  178.2910  144.2780 C   0  0  0  0  0  2  0  0  0  0  0  0
  185.2240  176.8290  142.8460 O   0  0  0  0  0  0  0  0  0  0  0  0
  186.1050  179.0260  143.9000 C   0  0  1  0  0  3  0  0  0  0  0  0
  185.9690  179.0280  142.4890 O   0  0  0  0  0  0  0  0  0  0  0  0
  188.3190  176.0460  144.9440 C   0  0  0  0  0  2  0  0  0  0  0  0
  187.8060  175.7880  147.3190 C   0  0  0  0  0  2  0  0  0  0  0  0
  188.5850  176.3260  146.3850 C   0  0  0  0  0  0  0  0  0  0  0  0
  190.0230  177.2820  146.8570 S   0  0  0  0  0  0  0  0  0  0  0  0
  191.8890  175.2590  146.9330 C   0  0  0  0  0  1  0  0  0  0  0  0
  191.1560  176.1730  145.9630 C   0  0  2  0  0  3  0  0  0  0  0  0
  192.0710  176.9130  145.1540 O   0  0  0  0  0  0  0  0  0  0  0  0
  191.7890  177.3460  143.8540 C   0  0  0  0  0  0  0  0  0  0  0  0
  192.1280  176.6360  142.8740 O   0  0  0  0  0  0  0  0  0  0  0  0
  191.1550  178.5640  143.6260 O   0  0  0  0  0  1  0  0  0  0  0  0
  189.3560  173.4850  136.4950 C   0  0  0  0  0  2  0  0  0  0  0  0
  189.7870  174.7030  135.6680 C   0  0  0  0  0  2  0  0  0  0  0  0
  191.2680  174.9120  135.6610 C   0  0  0  0  0  3  0  0  0  0  0  0
  191.7860  176.0760  135.9040 N   0  0  0  0  0  0  0  0  0  0  0  0
  194.0850  175.2430  136.3470 N   0  0  0  0  0  2  0  0  0  0  0  0
  193.6620  177.3750  135.4740 O   0  0  0  0  0  0  0  0  0  0  0  0
  197.9410  175.6690  135.8580 C   0  0  0  0  0  2  0  0  0  0  0  0
  196.2010  174.3100  136.8000 N   0  0  0  0  0  0  0  0  0  0  0  0
  195.5090  175.2100  136.1920 C   0  0  0  0  0  0  0  0  0  0  0  0
  193.2010  176.2750  135.8840 C   0  0  0  0  0  0  0  0  0  0  0  0
  197.6270  174.3390  136.5260 C   0  0  0  0  0  2  0  0  0  0  0  0
  196.4080  176.2720  135.0750 S   0  0  0  0  0  0  0  0  0  0  0  0
  1 51  1  6  0  0  0
  1 26  1  0  0  0  0
  1  4  1  0  0  0  0
  4  2  1  6  0  0  0
  4  5  1  0  0  0  0
  5  6  1  0  0  0  0
  6  3  1  6  0  0  0
  7  4  1  0  0  0  0
  7  3  1  0  0  0  0
  8 17  2  1  0  0  0
  9 10  1  1  0  0  0
  9 13  1  0  0  0  0
  9 12  1  0  0  0  0
 10 15  1  0  0  0  0
 13 11  1  6  0  0  0
 14  6  1  6  0  0  0
 14  9  1  0  0  0  0
 14 13  1  0  0  0  0
 15  8  1  0  0  0  0
 16 21  1  6  0  0  0
 16 12  1  0  0  0  0
 16  8  1  0  0  0  0
 18 20  1  0  0  0  0
 20  8  1  0  0  0  0
 20 19  1  0  0  0  0
 22 23  1  6  0  0  0
 22 21  1  0  0  0  0
 24 22  1  0  0  0  0
 25 27  1  0  0  0  0
 26 25  2  0  0  0  0
 27 29  1  0  0  0  0
 29 28  1  6  0  0  0
 29 32  1  0  0  0  0
 31 32  1  0  0  0  0
 31 30  1  0  0  0  0
 32 30  1  0  0  0  0
 33 41  1  6  0  0  0
 34 32  1  6  0  0  0
 34 33  1  0  0  0  0
 36 35  1  1  0  0  0
 36 39  1  0  0  0  0
 37 33  1  0  0  0  0
 38 34  1  0  0  0  0
 38 36  1  0  0  0  0
 39 37  1  6  0  0  0
 40 36  1  0  0  0  0
 40 39  1  0  0  0  0
 41 43  1  0  0  0  0
 43 44  1  0  0  0  0
 43 42  2  0  0  0  0
 46 44  1  0  0  0  0
 46 45  1  1  0  0  0
 47 46  1  0  0  0  0
 48 47  1  0  0  0  0
 49 48  2  0  0  0  0
 50 48  1  0  0  0  0
 52 51  1  0  0  0  0
 53 52  1  0  0  0  0
 53 54  2  0  0  0  0
 56 60  2  0  0  0  0
 57 61  1  0  0  0  0
 59 55  1  0  0  0  0
 59 58  2  0  0  0  0
 60 54  1  0  0  0  0
 60 55  1  0  0  0  0
 61 58  1  0  0  0  0
 62 57  1  0  0  0  0
 62 59  1  0  0  0  0
M  END
>  <MODEL>
7

>  <REMARK>
 VINA RESULT:      -5.1      4.482      8.911
  Name = 
  20 active torsions:
  status: ('A' for Active; 'I' for Inactive)
    1  A    between atoms: C_1  and  C_39
    2  A    between atoms: C_2  and  C_26
    3  A    between atoms: O_4  and  C_18
    4  A    between atoms: O_4  and  C_24
    5  A    between atoms: P_6  and  C_34
    6  A    between atoms: C_8  and  C_58
    7  A    between atoms: C_22  and  C_35
    8  A    between atoms: O_23  and  C_45
    9  A    between atoms: O_23  and  C_54
   10  A    between atoms: C_24  and  S_25
   11  A    between atoms: S_25  and  C_50
   12  A    between atoms: C_26  and  C_37
   13  A    between atoms: C_28  and  C_35
   14  A    between atoms: C_33  and  C_46
   15  A    between atoms: C_35  and  C_41
   16  A    between atoms: C_36  and  C_59
   17  A    between atoms: C_37  and  C_58
   18  A    between atoms: C_39  and  C_50
   19  A    between atoms: C_41  and  C_59
   20  A    between atoms: C_42  and  N_62
                            x       y       z     vdW  Elec       q    Type
                         _______ _______ _______ _____ _____    ______ ____

>  <TORSDO>
F 20

$$$$
=
 OpenBabel11062423013D

 62 68  0  0  1  0  0  0  0  0999 V2000
  190.4200  172.1330  136.8940 C   0  0  2  0  0  3  0  0  0  0  0  0
  191.4730  169.8670  136.4600 C   0  0  0  0  0  1  0  0  0  0  0  0
  193.2890  170.9070  138.8170 C   0  0  0  0  0  2  0  0  0  0  0  0
  191.3820  171.0470  137.4270 C   0  0  2  0  0  0  0  0  0  0  0  0
  190.9230  170.5880  138.6780 O   0  0  0  0  0  0  0  0  0  0  0  0
  192.0500  170.3750  139.4980 C   0  0  2  0  0  3  0  0  0  0  0  0
  192.7640  171.6290  137.6230 C   0  0  0  0  0  2  0  0  0  0  0  0
  195.5290  170.2380  143.2450 P   0  0  1  0  0  0  0  0  0  0  0  0
  192.8050  170.5930  141.9280 C   0  0  2  0  0  0  0  0  0  0  0  0
  193.8230  169.4820  141.5790 C   0  0  0  0  0  2  0  0  0  0  0  0
  191.0170  168.7880  141.6460 C   0  0  0  0  0  1  0  0  0  0  0  0
  193.2490  171.6910  142.8990 C   0  0  0  0  0  2  0  0  0  0  0  0
  191.3210  170.2430  142.0040 C   0  0  2  0  0  3  0  0  0  0  0  0
  191.8650  171.0960  140.8360 C   0  0  2  0  0  3  0  0  0  0  0  0
  194.4670  169.0050  142.7330 O   0  0  0  0  0  0  0  0  0  0  0  0
  194.7670  171.8640  142.8820 C   0  0  2  0  0  3  0  0  0  0  0  0
  195.7260  170.1130  144.7400 O   0  0  0  0  0  0  0  0  0  0  0  0
  197.9390  169.1740  143.1470 O   0  0  0  0  0  1  0  0  0  0  0  0
  197.7750  171.3000  142.3560 O   0  0  0  0  0  1  0  0  0  0  0  0
  197.1410  170.0590  142.4230 C   0  0  0  0  0  3  0  0  0  0  0  0
  195.1720  172.3140  141.6210 O   0  0  0  0  0  0  0  0  0  0  0  0
  195.4370  173.6770  141.7820 C   0  0  1  0  0  3  0  0  0  0  0  0
  195.7900  173.9540  143.2300 C   0  0  0  0  0  1  0  0  0  0  0  0
  196.5090  174.0520  140.9680 O   0  0  0  0  0  1  0  0  0  0  0  0
  189.5260  173.7550  138.5630 C   0  0  0  0  0  3  0  0  0  0  0  0
  189.4130  172.5920  137.9240 C   0  0  0  0  0  3  0  0  0  0  0  0
  188.4780  174.1600  139.5460 C   0  0  0  0  0  2  0  0  0  0  0  0
  190.4730  174.1940  140.8750 O   0  0  0  0  0  1  0  0  0  0  0  0
  189.1340  174.5890  140.8540 C   0  0  2  0  0  3  0  0  0  0  0  0
  189.0650  172.9570  142.8550 C   0  0  0  0  0  2  0  0  0  0  0  0
  187.7590  172.7420  142.1070 C   0  0  0  0  0  2  0  0  0  0  0  0
  188.4070  174.1230  142.1290 C   0  0  0  0  0  0  0  0  0  0  0  0
  188.6310  176.1430  143.8820 C   0  0  2  0  0  3  0  0  0  0  0  0
  187.7640  175.2220  143.0100 C   0  0  1  0  0  3  0  0  0  0  0  0
  186.0200  177.9910  141.4160 F   0  0  0  0  0  0  0  0  0  0  0  0
  187.0710  177.2170  141.8660 C   0  0  2  0  0  0  0  0  0  0  0  0
  189.3620  177.1230  142.9930 C   0  0  0  0  0  2  0  0  0  0  0  0
  186.7380  175.9030  142.3030 O   0  0  0  0  0  0  0  0  0  0  0  0
  188.3690  177.9110  142.1510 C   0  0  1  0  0  3  0  0  0  0  0  0
  188.1300  177.2160  140.9400 O   0  0  0  0  0  0  0  0  0  0  0  0
  189.5640  175.4010  144.8260 C   0  0  0  0  0  2  0  0  0  0  0  0
  188.8260  176.8030  146.6870 C   0  0  0  0  0  2  0  0  0  0  0  0
  189.8320  176.2120  146.0500 C   0  0  0  0  0  0  0  0  0  0  0  0
  191.4880  176.2820  146.7270 S   0  0  0  0  0  0  0  0  0  0  0  0
  192.5160  174.0070  145.5640 C   0  0  0  0  0  1  0  0  0  0  0  0
  192.2090  175.4670  145.2670 C   0  0  2  0  0  3  0  0  0  0  0  0
  193.3710  176.1600  144.8120 O   0  0  0  0  0  0  0  0  0  0  0  0
  194.3950  176.6050  145.6550 C   0  0  0  0  0  0  0  0  0  0  0  0
  195.0550  175.7720  146.3250 O   0  0  0  0  0  1  0  0  0  0  0  0
  194.6820  177.9620  145.7800 O   0  0  0  0  0  0  0  0  0  0  0  0
  189.7970  171.7710  135.5290 C   0  0  0  0  0  2  0  0  0  0  0  0
  189.7900  172.9210  134.5140 C   0  0  0  0  0  2  0  0  0  0  0  0
  191.0160  173.7740  134.5890 C   0  0  0  0  0  3  0  0  0  0  0  0
  191.0870  174.7840  135.4010 N   0  0  0  0  0  0  0  0  0  0  0  0
  193.5540  175.0090  135.5920 N   0  0  0  0  0  2  0  0  0  0  0  0
  192.1280  176.8590  135.4180 O   0  0  0  0  0  0  0  0  0  0  0  0
  196.7320  177.2700  135.3060 C   0  0  0  0  0  2  0  0  0  0  0  0
  195.9040  175.0630  135.7600 N   0  0  0  0  0  0  0  0  0  0  0  0
  194.8150  175.6760  135.4520 C   0  0  0  0  0  0  0  0  0  0  0  0
  192.2560  175.6050  135.4610 C   0  0  0  0  0  0  0  0  0  0  0  0
  197.1240  175.8160  135.5260 C   0  0  0  0  0  2  0  0  0  0  0  0
  195.0020  177.2970  134.7300 S   0  0  0  0  0  0  0  0  0  0  0  0
  1 51  1  6  0  0  0
  1  4  1  0  0  0  0
  1 26  1  0  0  0  0
  4  2  1  6  0  0  0
  4  7  1  0  0  0  0
  4  5  1  0  0  0  0
  5  6  1  0  0  0  0
  6  3  1  6  0  0  0
  7  3  1  0  0  0  0
  8 17  2  1  0  0  0
  9 10  1  6  0  0  0
  9 13  1  0  0  0  0
  9 12  1  0  0  0  0
 10 15  1  0  0  0  0
 13 11  1  6  0  0  0
 14  6  1  6  0  0  0
 14  9  1  0  0  0  0
 14 13  1  0  0  0  0
 15  8  1  0  0  0  0
 16 21  1  6  0  0  0
 16 12  1  0  0  0  0
 16  8  1  0  0  0  0
 19 20  1  0  0  0  0
 20 18  1  0  0  0  0
 20  8  1  0  0  0  0
 21 22  1  0  0  0  0
 22 23  1  1  0  0  0
 24 22  1  0  0  0  0
 25 27  1  0  0  0  0
 26 25  2  0  0  0  0
 27 29  1  0  0  0  0
 29 28  1  1  0  0  0
 29 32  1  0  0  0  0
 31 32  1  0  0  0  0
 31 30  1  0  0  0  0
 32 30  1  0  0  0  0
 33 41  1  6  0  0  0
 34 32  1  6  0  0  0
 34 33  1  0  0  0  0
 36 35  1  6  0  0  0
 36 39  1  0  0  0  0
 36 38  1  0  0  0  0
 37 33  1  0  0  0  0
 38 34  1  0  0  0  0
 39 37  1  1  0  0  0
 40 36  1  0  0  0  0
 40 39  1  0  0  0  0
 41 43  1  0  0  0  0
 43 42  2  0  0  0  0
 43 44  1  0  0  0  0
 46 45  1  1  0  0  0
 46 44  1  0  0  0  0
 47 46  1  0  0  0  0
 47 48  1  0  0  0  0
 48 50  2  0  0  0  0
 48 49  1  0  0  0  0
 52 53  1  0  0  0  0
 52 51  1  0  0  0  0
 53 54  2  0  0  0  0
 54 60  1  0  0  0  0
 56 60  2  0  0  0  0
 57 61  1  0  0  0  0
 59 55  1  0  0  0  0
 59 58  2  0  0  0  0
 60 55  1  0  0  0  0
 61 58  1  0  0  0  0
 62 57  1  0  0  0  0
 62 59  1  0  0  0  0
M  END
>  <MODEL>
8

>  <REMARK>
 VINA RESULT:      -5.1      4.471      8.662
  Name = 
  20 active torsions:
  status: ('A' for Active; 'I' for Inactive)
    1  A    between atoms: C_1  and  C_39
    2  A    between atoms: C_2  and  C_26
    3  A    between atoms: O_4  and  C_18
    4  A    between atoms: O_4  and  C_24
    5  A    between atoms: P_6  and  C_34
    6  A    between atoms: C_8  and  C_58
    7  A    between atoms: C_22  and  C_35
    8  A    between atoms: O_23  and  C_45
    9  A    between atoms: O_23  and  C_54
   10  A    between atoms: C_24  and  S_25
   11  A    between atoms: S_25  and  C_50
   12  A    between atoms: C_26  and  C_37
   13  A    between atoms: C_28  and  C_35
   14  A    between atoms: C_33  and  C_46
   15  A    between atoms: C_35  and  C_41
   16  A    between atoms: C_36  and  C_59
   17  A    between atoms: C_37  and  C_58
   18  A    between atoms: C_39  and  C_50
   19  A    between atoms: C_41  and  C_59
   20  A    between atoms: C_42  and  N_62
                            x       y       z     vdW  Elec       q    Type
                         _______ _______ _______ _____ _____    ______ ____

>  <TORSDO>
F 20

$$$$
=
 OpenBabel11062423013D

 62 68  0  0  1  0  0  0  0  0999 V2000
  186.9160  177.4980  143.8700 C   0  0  2  0  0  3  0  0  0  0  0  0
  185.8460  177.2540  141.5840 C   0  0  0  0  0  1  0  0  0  0  0  0
  188.7210  176.0980  141.0040 C   0  0  0  0  0  2  0  0  0  0  0  0
  187.0270  176.8550  142.4680 C   0  0  2  0  0  0  0  0  0  0  0  0
  187.0580  175.4530  142.5980 O   0  0  0  0  0  0  0  0  0  0  0  0
  187.9740  174.9540  141.6490 C   0  0  2  0  0  3  0  0  0  0  0  0
  188.3120  177.2920  141.7990 C   0  0  0  0  0  2  0  0  0  0  0  0
  190.9340  171.6710  139.0750 P   0  0  1  0  0  0  0  0  0  0  0  0
  189.4370  172.8720  141.4420 C   0  0  2  0  0  0  0  0  0  0  0  0
  188.8930  172.7870  139.9950 C   0  0  0  0  0  2  0  0  0  0  0  0
  187.0590  172.2930  142.1740 C   0  0  0  0  0  1  0  0  0  0  0  0
  190.8930  172.4620  141.6830 C   0  0  0  0  0  2  0  0  0  0  0  0
  188.4960  172.5790  142.6070 C   0  0  2  0  0  3  0  0  0  0  0  0
  188.9780  174.0220  142.3330 C   0  0  2  0  0  3  0  0  0  0  0  0
  189.2600  171.5760  139.3860 O   0  0  0  0  0  0  0  0  0  0  0  0
  191.7330  172.6290  140.4160 C   0  0  2  0  0  3  0  0  0  0  0  0
  191.5040  170.2700  139.0670 O   0  0  0  0  0  0  0  0  0  0  0  0
  192.5580  172.2470  137.0790 O   0  0  0  0  0  1  0  0  0  0  0  0
  190.9550  173.7990  137.5130 O   0  0  0  0  0  1  0  0  0  0  0  0
  191.2270  172.4330  137.4490 C   0  0  0  0  0  3  0  0  0  0  0  0
  191.7930  173.9840  140.0720 O   0  0  0  0  0  0  0  0  0  0  0  0
  193.1410  174.3350  140.1900 C   0  0  1  0  0  3  0  0  0  0  0  0
  193.3240  175.2300  141.4000 C   0  0  0  0  0  1  0  0  0  0  0  0
  193.9190  173.1850  140.3460 O   0  0  0  0  0  1  0  0  0  0  0  0
  189.1540  177.6090  144.9650 C   0  0  0  0  0  3  0  0  0  0  0  0
  187.9720  177.0080  144.8340 C   0  0  0  0  0  3  0  0  0  0  0  0
  190.1380  177.0890  145.9590 C   0  0  0  0  0  2  0  0  0  0  0  0
  191.2310  176.6880  143.8620 O   0  0  0  0  0  1  0  0  0  0  0  0
  191.4190  176.6680  145.2460 C   0  0  2  0  0  3  0  0  0  0  0  0
  191.5930  174.1220  144.8420 C   0  0  0  0  0  2  0  0  0  0  0  0
  191.0250  174.2760  146.2450 C   0  0  0  0  0  2  0  0  0  0  0  0
  191.9990  175.3150  145.6990 C   0  0  0  0  0  0  0  0  0  0  0  0
  194.5200  174.3950  145.6560 C   0  0  2  0  0  3  0  0  0  0  0  0
  193.4480  175.3230  146.2450 C   0  0  1  0  0  3  0  0  0  0  0  0
  195.4870  178.3120  145.8480 F   0  0  0  0  0  0  0  0  0  0  0  0
  194.8400  177.1390  145.5150 C   0  0  2  0  0  0  0  0  0  0  0  0
  194.9140  174.9010  144.2860 C   0  0  0  0  0  2  0  0  0  0  0  0
  193.8990  176.6510  146.4660 O   0  0  0  0  0  0  0  0  0  0  0  0
  195.3990  176.3400  144.3760 C   0  0  1  0  0  3  0  0  0  0  0  0
  194.2940  177.2140  144.2200 O   0  0  0  0  0  0  0  0  0  0  0  0
  194.1300  172.9260  145.6470 C   0  0  0  0  0  2  0  0  0  0  0  0
  196.4900  172.5120  146.1240 C   0  0  0  0  0  2  0  0  0  0  0  0
  195.3420  172.0560  145.6340 C   0  0  0  0  0  0  0  0  0  0  0  0
  195.2150  170.3600  145.0740 S   0  0  0  0  0  0  0  0  0  0  0  0
  192.8900  169.9690  143.6510 C   0  0  0  0  0  1  0  0  0  0  0  0
  194.1530  170.8160  143.6670 C   0  0  2  0  0  3  0  0  0  0  0  0
  194.8630  170.7150  142.4320 O   0  0  0  0  0  0  0  0  0  0  0  0
  196.2350  170.9520  142.2990 C   0  0  0  0  0  0  0  0  0  0  0  0
  196.6800  172.1200  142.4310 O   0  0  0  0  0  1  0  0  0  0  0  0
  197.1160  169.9160  142.0020 O   0  0  0  0  0  0  0  0  0  0  0  0
  185.4820  177.4590  144.4410 C   0  0  0  0  0  2  0  0  0  0  0  0
  184.7290  178.7910  144.3450 C   0  0  0  0  0  2  0  0  0  0  0  0
  183.3610  178.6500  143.7570 C   0  0  0  0  0  3  0  0  0  0  0  0
  183.1570  178.7890  142.4840 N   0  0  0  0  0  0  0  0  0  0  0  0
  181.2230  179.7870  141.2850 N   0  0  0  0  0  2  0  0  0  0  0  0
  181.2390  177.5640  142.0230 O   0  0  0  0  0  0  0  0  0  0  0  0
  177.8380  179.2700  139.3960 C   0  0  0  0  0  2  0  0  0  0  0  0
  179.4790  180.8650  140.1230 N   0  0  0  0  0  0  0  0  0  0  0  0
  180.0220  179.7610  140.5020 C   0  0  0  0  0  0  0  0  0  0  0  0
  181.8460  178.6650  141.9260 C   0  0  0  0  0  0  0  0  0  0  0  0
  178.2980  180.7160  139.2900 C   0  0  0  0  0  2  0  0  0  0  0  0
  179.2790  178.2630  139.8800 S   0  0  0  0  0  0  0  0  0  0  0  0
  1 51  1  1  0  0  0
  1 26  1  0  0  0  0
  3  7  1  0  0  0  0
  4  2  1  6  0  0  0
  4  5  1  0  0  0  0
  4  1  1  0  0  0  0
  6  3  1  1  0  0  0
  6  5  1  0  0  0  0
  7  4  1  0  0  0  0
  8 17  2  6  0  0  0
  8 15  1  0  0  0  0
  8 16  1  0  0  0  0
  9 10  1  6  0  0  0
  9 12  1  0  0  0  0
  9 14  1  0  0  0  0
  9 13  1  0  0  0  0
 13 11  1  6  0  0  0
 14  6  1  6  0  0  0
 14 13  1  0  0  0  0
 15 10  1  0  0  0  0
 16 21  1  6  0  0  0
 16 12  1  0  0  0  0
 18 20  1  0  0  0  0
 20 19  1  0  0  0  0
 20  8  1  0  0  0  0
 21 22  1  0  0  0  0
 22 24  1  0  0  0  0
 22 23  1  1  0  0  0
 25 27  1  0  0  0  0
 26 25  2  0  0  0  0
 29 28  1  6  0  0  0
 29 32  1  0  0  0  0
 29 27  1  0  0  0  0
 30 32  1  0  0  0  0
 30 31  1  0  0  0  0
 32 31  1  0  0  0  0
 33 41  1  6  0  0  0
 33 34  1  0  0  0  0
 34 32  1  6  0  0  0
 34 38  1  0  0  0  0
 36 35  1  1  0  0  0
 36 38  1  0  0  0  0
 37 33  1  0  0  0  0
 39 37  1  1  0  0  0
 39 36  1  0  0  0  0
 40 39  1  0  0  0  0
 40 36  1  0  0  0  0
 43 41  1  0  0  0  0
 43 42  2  0  0  0  0
 44 43  1  0  0  0  0
 46 45  1  6  0  0  0
 46 44  1  0  0  0  0
 47 46  1  0  0  0  0
 48 49  1  0  0  0  0
 48 47  1  0  0  0  0
 50 48  2  0  0  0  0
 52 51  1  0  0  0  0
 53 52  1  0  0  0  0
 54 53  2  0  0  0  0
 55 60  1  0  0  0  0
 57 62  1  0  0  0  0
 58 59  2  0  0  0  0
 59 55  1  0  0  0  0
 60 56  2  0  0  0  0
 60 54  1  0  0  0  0
 61 57  1  0  0  0  0
 61 58  1  0  0  0  0
 62 59  1  0  0  0  0
M  END
>  <MODEL>
9

>  <REMARK>
 VINA RESULT:      -5.0      1.686      2.135
  Name = 
  20 active torsions:
  status: ('A' for Active; 'I' for Inactive)
    1  A    between atoms: C_1  and  C_39
    2  A    between atoms: C_2  and  C_26
    3  A    between atoms: O_4  and  C_18
    4  A    between atoms: O_4  and  C_24
    5  A    between atoms: P_6  and  C_34
    6  A    between atoms: C_8  and  C_58
    7  A    between atoms: C_22  and  C_35
    8  A    between atoms: O_23  and  C_45
    9  A    between atoms: O_23  and  C_54
   10  A    between atoms: C_24  and  S_25
   11  A    between atoms: S_25  and  C_50
   12  A    between atoms: C_26  and  C_37
   13  A    between atoms: C_28  and  C_35
   14  A    between atoms: C_33  and  C_46
   15  A    between atoms: C_35  and  C_41
   16  A    between atoms: C_36  and  C_59
   17  A    between atoms: C_37  and  C_58
   18  A    between atoms: C_39  and  C_50
   19  A    between atoms: C_41  and  C_59
   20  A    between atoms: C_42  and  N_62
                            x       y       z     vdW  Elec       q    Type
                         _______ _______ _______ _____ _____    ______ ____

>  <TORSDO>
F 20

$$$$
