=
 OpenBabel11062420253D

 49 50  0  0  1  0  0  0  0  0999 V2000
  196.3310  174.7390  144.9220 C   0  0  0  0  0  2  0  0  0  0  0  0
  193.0400  175.2880  142.8080 S   0  0  0  0  0  0  0  0  0  0  0  0
  195.3900  173.6910  142.3690 C   0  0  2  0  0  3  0  0  0  0  0  0
  194.9970  175.1490  144.3750 C   0  0  0  0  0  0  0  0  0  0  0  0
  194.1050  176.0610  144.9580 C   0  0  0  0  0  0  0  0  0  0  0  0
  194.3810  176.7860  146.2320 C   0  0  0  0  0  1  0  0  0  0  0  0
  196.3190  173.0240  143.2020 O   0  0  0  0  0  0  0  0  0  0  0  0
  194.5260  174.5980  143.1980 C   0  0  0  0  0  0  0  0  0  0  0  0
  197.1270  174.0040  143.8260 C   0  0  0  0  0  2  0  0  0  0  0  0
  192.9480  176.2390  144.1990 C   0  0  0  0  0  0  0  0  0  0  0  0
  194.5340  172.6680  141.6380 C   0  0  0  0  0  2  0  0  0  0  0  0
  195.2080  171.3060  141.6060 C   0  0  2  0  0  3  0  0  0  0  0  0
  195.6970  171.0330  140.3260 O   0  0  0  0  0  1  0  0  0  0  0  0
  194.2330  170.2140  142.0750 C   0  0  2  0  0  3  0  0  0  0  0  0
  192.7550  170.5800  141.8970 C   0  0  0  0  0  2  0  0  0  0  0  0
  192.2470  169.9660  140.7200 O   0  0  0  0  0  0  0  0  0  0  0  0
  191.8180  170.7140  139.6230 C   0  0  0  0  0  0  0  0  0  0  0  0
  192.6450  171.2070  138.8110 O   0  0  0  0  0  0  0  0  0  0  0  0
  190.3590  170.9420  139.4250 C   0  0  0  0  0  2  0  0  0  0  0  0
  188.9070  172.8510  138.6170 C   0  0  0  0  0  0  0  0  0  0  0  0
  187.9690  172.5200  139.3920 O   0  0  0  0  0  0  0  0  0  0  0  0
  188.7350  174.0150  137.7060 C   0  0  0  0  0  1  0  0  0  0  0  0
  190.1440  172.1320  138.6160 N   0  0  0  0  0  2  0  0  0  0  0  0
  194.5410  169.6510  143.3380 O   0  0  0  0  0  0  0  0  0  0  0  0
  193.5900  170.0710  144.2890 C   0  0  1  0  0  3  0  0  0  0  0  0
  192.8720  168.9720  144.7630 O   0  0  0  0  0  1  0  0  0  0  0  0
  194.2730  170.7920  145.4490 C   0  0  0  0  0  2  0  0  0  0  0  0
  195.7840  170.8120  145.2870 C   0  0  0  0  0  1  0  0  0  0  0  0
  191.8250  177.1670  144.5140 C   0  0  0  0  0  2  0  0  0  0  0  0
  191.2200  176.7810  145.7100 O   0  0  0  0  0  0  0  0  0  0  0  0
  190.0740  176.0930  145.3110 C   0  0  0  0  0  2  0  0  0  0  0  0
  189.4610  175.3790  146.5030 C   0  0  2  0  0  3  0  0  0  0  0  0
  189.5690  173.9970  146.3230 O   0  0  0  0  0  0  0  0  0  0  0  0
  189.7220  173.8190  144.9470 C   0  0  0  0  0  2  0  0  0  0  0  0
  190.1160  172.4480  144.6800 N   0  0  0  0  0  2  0  0  0  0  0  0
  189.4800  172.0640  143.4300 C   0  0  0  0  0  2  0  0  0  0  0  0
  189.9640  172.9710  142.3140 C   0  0  0  0  0  1  0  0  0  0  0  0
  187.9950  175.7680  146.6010 C   0  0  0  0  0  2  0  0  0  0  0  0
  187.7930  177.2080  146.1580 C   0  0  0  0  0  2  0  0  0  0  0  0
  186.6950  177.3110  145.1020 C   0  0  0  0  0  2  0  0  0  0  0  0
  186.8540  178.5690  144.2430 C   0  0  2  0  0  3  0  0  0  0  0  0
  185.7350  179.5410  144.6060 C   0  0  0  0  0  1  0  0  0  0  0  0
  186.7990  178.2290  142.8130 N   0  0  0  0  0  0  0  0  0  0  0  0
  187.9310  177.3590  142.4960 C   0  0  0  0  0  2  0  0  0  0  0  0
  188.0860  175.6590  140.8480 O   0  0  0  0  0  1  0  0  0  0  0  0
  187.4280  176.0110  142.0230 C   0  0  0  0  0  2  0  0  0  0  0  0
  185.6150  177.4100  142.5800 C   0  0  0  0  0  2  0  0  0  0  0  0
  184.7420  178.0570  141.5240 C   0  0  0  0  0  2  0  0  0  0  0  0
  183.3360  178.2030  142.0610 C   0  0  0  0  0  1  0  0  0  0  0  0
  2  8  1  0  0  0  0
  2 10  1  0  0  0  0
  3 11  1  1  0  0  0
  3  8  1  0  0  0  0
  3  7  1  0  0  0  0
  4  1  1  0  0  0  0
  4  5  1  0  0  0  0
  5  6  1  0  0  0  0
  7  9  1  0  0  0  0
  8  4  2  0  0  0  0
  9  1  1  0  0  0  0
 10 29  1  0  0  0  0
 10  5  2  0  0  0  0
 12 13  1  6  0  0  0
 12 11  1  0  0  0  0
 12 14  1  0  0  0  0
 14 15  1  1  0  0  0
 14 24  1  0  0  0  0
 16 15  1  0  0  0  0
 17 16  1  0  0  0  0
 18 17  2  0  0  0  0
 19 17  1  0  0  0  0
 20 21  2  0  0  0  0
 22 20  1  0  0  0  0
 23 20  1  0  0  0  0
 23 19  1  0  0  0  0
 24 25  1  0  0  0  0
 25 26  1  1  0  0  0
 25 27  1  0  0  0  0
 28 27  1  0  0  0  0
 29 30  1  0  0  0  0
 31 30  1  0  0  0  0
 32 31  1  6  0  0  0
 32 38  1  0  0  0  0
 33 32  1  0  0  0  0
 34 33  1  0  0  0  0
 35 34  1  0  0  0  0
 36 35  1  0  0  0  0
 37 36  1  0  0  0  0
 39 38  1  0  0  0  0
 40 39  1  0  0  0  0
 41 42  1  1  0  0  0
 41 40  1  0  0  0  0
 43 41  1  0  0  0  0
 44 43  1  0  0  0  0
 45 46  1  0  0  0  0
 46 44  1  0  0  0  0
 47 43  1  0  0  0  0
 48 49  1  0  0  0  0
 48 47  1  0  0  0  0
M  END
>  <MODEL>
1

>  <REMARK>
 VINA RESULT:      -4.8      0.000      0.000
  Name = 
  28 active torsions:
  status: ('A' for Active; 'I' for Inactive)
    1  A    between atoms: O_1  and  C_19
    2  A    between atoms: O_1  and  C_27
    3  A    between atoms: C_3  and  C_5
    4  A    between atoms: C_3  and  N_39
    5  A    between atoms: C_4  and  O_34
    6  A    between atoms: C_4  and  C_47
    7  A    between atoms: C_5  and  C_18
    8  A    between atoms: C_6  and  C_33
    9  A    between atoms: C_6  and  C_44
   10  A    between atoms: C_8  and  N_24
   11  A    between atoms: C_9  and  C_33
   12  A    between atoms: C_12  and  C_21
   13  A    between atoms: C_17  and  C_19
   14  A    between atoms: C_17  and  O_36
   15  A    between atoms: C_18  and  C_37
   16  A    between atoms: C_19  and  C_37
   17  A    between atoms: C_21  and  N_39
   18  A    between atoms: C_22  and  C_25
   19  A    between atoms: C_22  and  N_43
   20  A    between atoms: C_23  and  O_36
   21  A    between atoms: C_23  and  C_42
   22  A    between atoms: N_24  and  C_27
   23  A    between atoms: C_25  and  O_46
   24  A    between atoms: C_32  and  C_40
   25  A    between atoms: O_34  and  C_44
   26  A    between atoms: N_39  and  C_40
   27  A    between atoms: C_44  and  C_49
   28  A    between atoms: O_46  and  C_49
                            x       y       z     vdW  Elec       q    Type
                         _______ _______ _______ _____ _____    ______ ____

>  <TORSDO>
F 28

$$$$
=
 OpenBabel11062420253D

 49 50  0  0  1  0  0  0  0  0999 V2000
  188.1860  173.8570  138.7660 C   0  0  0  0  0  2  0  0  0  0  0  0
  188.8880  175.1560  142.4290 S   0  0  0  0  0  0  0  0  0  0  0  0
  189.5500  172.7090  141.0720 C   0  0  2  0  0  3  0  0  0  0  0  0
  188.2890  174.6240  140.0500 C   0  0  0  0  0  0  0  0  0  0  0  0
  187.7450  175.8910  140.3060 C   0  0  0  0  0  0  0  0  0  0  0  0
  186.9440  176.6620  139.3120 C   0  0  0  0  0  1  0  0  0  0  0  0
  189.8250  172.3480  139.7320 O   0  0  0  0  0  0  0  0  0  0  0  0
  188.9950  174.1040  141.1190 C   0  0  0  0  0  0  0  0  0  0  0  0
  188.6100  172.3950  139.0090 C   0  0  0  0  0  2  0  0  0  0  0  0
  188.0070  176.3340  141.6030 C   0  0  0  0  0  0  0  0  0  0  0  0
  190.8250  172.6200  141.8970 C   0  0  0  0  0  2  0  0  0  0  0  0
  190.7720  171.4540  142.8710 C   0  0  2  0  0  3  0  0  0  0  0  0
  190.4520  171.9040  144.1550 O   0  0  0  0  0  1  0  0  0  0  0  0
  192.1050  170.6890  142.8650 C   0  0  2  0  0  3  0  0  0  0  0  0
  192.7370  170.5260  144.2520 C   0  0  0  0  0  2  0  0  0  0  0  0
  194.0680  171.0230  144.2350 O   0  0  0  0  0  0  0  0  0  0  0  0
  194.4890  172.0380  145.0960 C   0  0  0  0  0  0  0  0  0  0  0  0
  195.6290  172.0030  145.6300 O   0  0  0  0  0  0  0  0  0  0  0  0
  193.5640  173.1670  145.3940 C   0  0  0  0  0  2  0  0  0  0  0  0
  194.6950  175.0370  144.1190 C   0  0  0  0  0  0  0  0  0  0  0  0
  194.3730  174.5320  143.0090 O   0  0  0  0  0  0  0  0  0  0  0  0
  195.4940  176.2920  144.1520 C   0  0  0  0  0  1  0  0  0  0  0  0
  194.2850  174.4300  145.3470 N   0  0  0  0  0  2  0  0  0  0  0  0
  193.0160  171.0980  141.8600 O   0  0  0  0  0  0  0  0  0  0  0  0
  193.2480  170.0320  140.9680 C   0  0  1  0  0  3  0  0  0  0  0  0
  192.7330  168.8480  141.4980 O   0  0  0  0  0  1  0  0  0  0  0  0
  192.6120  170.3210  139.6100 C   0  0  0  0  0  2  0  0  0  0  0  0
  193.3050  171.4690  138.8960 C   0  0  0  0  0  1  0  0  0  0  0  0
  187.5340  177.6120  142.2070 C   0  0  0  0  0  2  0  0  0  0  0  0
  187.8140  177.6140  143.5740 O   0  0  0  0  0  0  0  0  0  0  0  0
  186.8420  178.4500  144.1240 C   0  0  0  0  0  2  0  0  0  0  0  0
  185.9230  177.6470  145.0280 C   0  0  2  0  0  3  0  0  0  0  0  0
  184.6090  177.7470  144.5640 O   0  0  0  0  0  0  0  0  0  0  0  0
  184.5330  179.0000  143.9520 C   0  0  0  0  0  2  0  0  0  0  0  0
  183.4010  179.0240  143.0430 N   0  0  0  0  0  2  0  0  0  0  0  0
  183.6090  177.9510  142.0840 C   0  0  0  0  0  2  0  0  0  0  0  0
  184.1870  178.5210  140.8030 C   0  0  0  0  0  1  0  0  0  0  0  0
  186.0120  178.2130  146.4360 C   0  0  0  0  0  2  0  0  0  0  0  0
  187.3090  177.7850  147.1040 C   0  0  0  0  0  2  0  0  0  0  0  0
  187.5320  176.2820  146.9640 C   0  0  0  0  0  2  0  0  0  0  0  0
  188.9640  175.9620  146.5260 C   0  0  2  0  0  3  0  0  0  0  0  0
  189.3730  174.6340  147.1570 C   0  0  0  0  0  1  0  0  0  0  0  0
  189.8820  177.0350  146.9380 N   0  0  0  0  0  0  0  0  0  0  0  0
  191.0400  176.4320  147.5960 C   0  0  0  0  0  2  0  0  0  0  0  0
  190.6180  178.3820  148.8800 O   0  0  0  0  0  1  0  0  0  0  0  0
  191.4850  177.3010  148.7540 C   0  0  0  0  0  2  0  0  0  0  0  0
  190.4160  177.6690  145.7380 C   0  0  0  0  0  2  0  0  0  0  0  0
  191.2270  176.6650  144.9420 C   0  0  0  0  0  2  0  0  0  0  0  0
  191.7500  177.3290  143.6890 C   0  0  0  0  0  1  0  0  0  0  0  0
  1  9  1  0  0  0  0
  1  4  1  0  0  0  0
  3  8  1  0  0  0  0
  3 11  1  1  0  0  0
  4  5  1  0  0  0  0
  4  8  2  0  0  0  0
  5 10  2  0  0  0  0
  6  5  1  0  0  0  0
  7  3  1  0  0  0  0
  8  2  1  0  0  0  0
  9  7  1  0  0  0  0
 10 29  1  0  0  0  0
 10  2  1  0  0  0  0
 11 12  1  0  0  0  0
 12 13  1  1  0  0  0
 14 12  1  0  0  0  0
 14 15  1  1  0  0  0
 16 15  1  0  0  0  0
 16 17  1  0  0  0  0
 17 19  1  0  0  0  0
 17 18  2  0  0  0  0
 20 22  1  0  0  0  0
 20 23  1  0  0  0  0
 21 20  2  0  0  0  0
 23 19  1  0  0  0  0
 24 14  1  0  0  0  0
 25 26  1  1  0  0  0
 25 24  1  0  0  0  0
 27 25  1  0  0  0  0
 28 27  1  0  0  0  0
 29 30  1  0  0  0  0
 30 31  1  0  0  0  0
 32 31  1  6  0  0  0
 32 38  1  0  0  0  0
 33 32  1  0  0  0  0
 34 33  1  0  0  0  0
 35 34  1  0  0  0  0
 36 35  1  0  0  0  0
 37 36  1  0  0  0  0
 38 39  1  0  0  0  0
 40 39  1  0  0  0  0
 41 43  1  0  0  0  0
 41 40  1  0  0  0  0
 41 42  1  1  0  0  0
 43 44  1  0  0  0  0
 44 46  1  0  0  0  0
 46 45  1  0  0  0  0
 47 43  1  0  0  0  0
 48 47  1  0  0  0  0
 49 48  1  0  0  0  0
M  END
>  <MODEL>
2

>  <REMARK>
 VINA RESULT:      -4.7      2.375      6.559
  Name = 
  28 active torsions:
  status: ('A' for Active; 'I' for Inactive)
    1  A    between atoms: O_1  and  C_19
    2  A    between atoms: O_1  and  C_27
    3  A    between atoms: C_3  and  C_5
    4  A    between atoms: C_3  and  N_39
    5  A    between atoms: C_4  and  O_34
    6  A    between atoms: C_4  and  C_47
    7  A    between atoms: C_5  and  C_18
    8  A    between atoms: C_6  and  C_33
    9  A    between atoms: C_6  and  C_44
   10  A    between atoms: C_8  and  N_24
   11  A    between atoms: C_9  and  C_33
   12  A    between atoms: C_12  and  C_21
   13  A    between atoms: C_17  and  C_19
   14  A    between atoms: C_17  and  O_36
   15  A    between atoms: C_18  and  C_37
   16  A    between atoms: C_19  and  C_37
   17  A    between atoms: C_21  and  N_39
   18  A    between atoms: C_22  and  C_25
   19  A    between atoms: C_22  and  N_43
   20  A    between atoms: C_23  and  O_36
   21  A    between atoms: C_23  and  C_42
   22  A    between atoms: N_24  and  C_27
   23  A    between atoms: C_25  and  O_46
   24  A    between atoms: C_32  and  C_40
   25  A    between atoms: O_34  and  C_44
   26  A    between atoms: N_39  and  C_40
   27  A    between atoms: C_44  and  C_49
   28  A    between atoms: O_46  and  C_49
                            x       y       z     vdW  Elec       q    Type
                         _______ _______ _______ _____ _____    ______ ____

>  <TORSDO>
F 28

$$$$
=
 OpenBabel11062420253D

 49 50  0  0  1  0  0  0  0  0999 V2000
  194.6400  176.6650  145.6110 C   0  0  0  0  0  2  0  0  0  0  0  0
  193.4350  173.0230  144.6710 S   0  0  0  0  0  0  0  0  0  0  0  0
  192.4620  174.9700  146.5490 C   0  0  2  0  0  3  0  0  0  0  0  0
  194.4400  175.2950  145.0380 C   0  0  0  0  0  0  0  0  0  0  0  0
  195.2440  174.6730  144.0710 C   0  0  0  0  0  0  0  0  0  0  0  0
  196.4590  175.3040  143.4800 C   0  0  0  0  0  1  0  0  0  0  0  0
  192.4440  176.3840  146.6100 O   0  0  0  0  0  0  0  0  0  0  0  0
  193.3660  174.5210  145.4370 C   0  0  0  0  0  0  0  0  0  0  0  0
  193.7630  176.8250  146.8690 C   0  0  0  0  0  2  0  0  0  0  0  0
  194.8010  173.3900  143.7500 C   0  0  0  0  0  0  0  0  0  0  0  0
  191.0500  174.4520  146.3240 C   0  0  0  0  0  2  0  0  0  0  0  0
  190.0290  175.2750  147.0950 C   0  0  2  0  0  3  0  0  0  0  0  0
  189.1050  174.4380  147.7260 O   0  0  0  0  0  1  0  0  0  0  0  0
  189.3300  176.2750  146.1610 C   0  0  2  0  0  3  0  0  0  0  0  0
  188.7230  177.4830  146.8830 C   0  0  0  0  0  2  0  0  0  0  0  0
  187.4170  177.7360  146.3820 O   0  0  0  0  0  0  0  0  0  0  0  0
  186.2810  177.6140  147.1830 C   0  0  0  0  0  0  0  0  0  0  0  0
  186.1470  176.6430  147.9740 O   0  0  0  0  0  0  0  0  0  0  0  0
  185.2090  178.6440  147.0850 C   0  0  0  0  0  2  0  0  0  0  0  0
  184.6330  179.1300  144.6690 C   0  0  0  0  0  0  0  0  0  0  0  0
  185.6000  179.9320  144.5570 O   0  0  0  0  0  0  0  0  0  0  0  0
  183.7270  178.9020  143.5110 C   0  0  0  0  0  1  0  0  0  0  0  0
  184.4090  178.4200  145.8900 N   0  0  0  0  0  2  0  0  0  0  0  0
  188.4710  175.6850  145.2010 O   0  0  0  0  0  0  0  0  0  0  0  0
  188.9480  175.9630  143.9040 C   0  0  1  0  0  3  0  0  0  0  0  0
  190.0450  176.8230  143.9750 O   0  0  0  0  0  1  0  0  0  0  0  0
  189.3370  174.6720  143.1870 C   0  0  0  0  0  2  0  0  0  0  0  0
  189.5210  174.8900  141.6940 C   0  0  0  0  0  1  0  0  0  0  0  0
  195.4530  172.4480  142.7970 C   0  0  0  0  0  2  0  0  0  0  0  0
  194.6940  172.3640  141.6290 O   0  0  0  0  0  0  0  0  0  0  0  0
  195.5040  172.9380  140.6490 C   0  0  0  0  0  2  0  0  0  0  0  0
  194.6600  173.7960  139.7220 C   0  0  2  0  0  3  0  0  0  0  0  0
  195.2290  175.0680  139.6190 O   0  0  0  0  0  0  0  0  0  0  0  0
  195.9950  175.0320  138.4520 C   0  0  0  0  0  2  0  0  0  0  0  0
  195.2040  174.4730  137.3730 N   0  0  0  0  0  2  0  0  0  0  0  0
  194.9570  175.5520  136.4300 C   0  0  0  0  0  2  0  0  0  0  0  0
  193.5120  176.0020  136.5410 C   0  0  0  0  0  1  0  0  0  0  0  0
  193.2600  173.9080  140.3040 C   0  0  0  0  0  2  0  0  0  0  0  0
  192.2200  173.9320  139.1960 C   0  0  0  0  0  2  0  0  0  0  0  0
  191.9620  172.5300  138.6510 C   0  0  0  0  0  2  0  0  0  0  0  0
  191.0880  171.7070  139.6030 C   0  0  2  0  0  3  0  0  0  0  0  0
  191.8590  170.4500  139.9960 C   0  0  0  0  0  1  0  0  0  0  0  0
  189.8140  171.3520  138.9580 N   0  0  0  0  0  0  0  0  0  0  0  0
  188.8220  172.3730  139.2880 C   0  0  0  0  0  2  0  0  0  0  0  0
  187.9860  174.4170  138.4190 O   0  0  0  0  0  1  0  0  0  0  0  0
  188.4630  173.1630  138.0470 C   0  0  0  0  0  2  0  0  0  0  0  0
  189.9890  171.4460  137.5130 C   0  0  0  0  0  2  0  0  0  0  0  0
  189.8720  170.0700  136.8890 C   0  0  0  0  0  2  0  0  0  0  0  0
  191.1300  169.7700  136.1040 C   0  0  0  0  0  1  0  0  0  0  0  0
  1  9  1  0  0  0  0
  2  8  1  0  0  0  0
  3 11  1  6  0  0  0
  3  7  1  0  0  0  0
  4  8  2  0  0  0  0
  4  1  1  0  0  0  0
  5  4  1  0  0  0  0
  6  5  1  0  0  0  0
  7  9  1  0  0  0  0
  8  3  1  0  0  0  0
 10  5  2  0  0  0  0
 10  2  1  0  0  0  0
 11 12  1  0  0  0  0
 12 13  1  6  0  0  0
 14 15  1  1  0  0  0
 14 12  1  0  0  0  0
 16 15  1  0  0  0  0
 16 17  1  0  0  0  0
 17 18  2  0  0  0  0
 19 17  1  0  0  0  0
 20 23  1  0  0  0  0
 21 20  2  0  0  0  0
 22 20  1  0  0  0  0
 23 19  1  0  0  0  0
 24 14  1  0  0  0  0
 25 26  1  1  0  0  0
 25 24  1  0  0  0  0
 27 25  1  0  0  0  0
 28 27  1  0  0  0  0
 29 10  1  0  0  0  0
 30 29  1  0  0  0  0
 31 30  1  0  0  0  0
 32 38  1  1  0  0  0
 32 31  1  0  0  0  0
 33 32  1  0  0  0  0
 34 33  1  0  0  0  0
 35 34  1  0  0  0  0
 36 37  1  0  0  0  0
 36 35  1  0  0  0  0
 39 38  1  0  0  0  0
 40 39  1  0  0  0  0
 40 41  1  0  0  0  0
 41 42  1  6  0  0  0
 43 44  1  0  0  0  0
 43 41  1  0  0  0  0
 46 45  1  0  0  0  0
 46 44  1  0  0  0  0
 47 43  1  0  0  0  0
 48 47  1  0  0  0  0
 49 48  1  0  0  0  0
M  END
>  <MODEL>
3

>  <REMARK>
 VINA RESULT:      -4.7      2.708      8.297
  Name = 
  28 active torsions:
  status: ('A' for Active; 'I' for Inactive)
    1  A    between atoms: O_1  and  C_19
    2  A    between atoms: O_1  and  C_27
    3  A    between atoms: C_3  and  C_5
    4  A    between atoms: C_3  and  N_39
    5  A    between atoms: C_4  and  O_34
    6  A    between atoms: C_4  and  C_47
    7  A    between atoms: C_5  and  C_18
    8  A    between atoms: C_6  and  C_33
    9  A    between atoms: C_6  and  C_44
   10  A    between atoms: C_8  and  N_24
   11  A    between atoms: C_9  and  C_33
   12  A    between atoms: C_12  and  C_21
   13  A    between atoms: C_17  and  C_19
   14  A    between atoms: C_17  and  O_36
   15  A    between atoms: C_18  and  C_37
   16  A    between atoms: C_19  and  C_37
   17  A    between atoms: C_21  and  N_39
   18  A    between atoms: C_22  and  C_25
   19  A    between atoms: C_22  and  N_43
   20  A    between atoms: C_23  and  O_36
   21  A    between atoms: C_23  and  C_42
   22  A    between atoms: N_24  and  C_27
   23  A    between atoms: C_25  and  O_46
   24  A    between atoms: C_32  and  C_40
   25  A    between atoms: O_34  and  C_44
   26  A    between atoms: N_39  and  C_40
   27  A    between atoms: C_44  and  C_49
   28  A    between atoms: O_46  and  C_49
                            x       y       z     vdW  Elec       q    Type
                         _______ _______ _______ _____ _____    ______ ____

>  <TORSDO>
F 28

$$$$
=
 OpenBabel11062420253D

 49 50  0  0  1  0  0  0  0  0999 V2000
  193.9910  176.0760  142.3580 C   0  0  0  0  0  2  0  0  0  0  0  0
  194.8960  175.0010  146.0490 S   0  0  0  0  0  0  0  0  0  0  0  0
  192.6660  176.4300  144.9300 C   0  0  2  0  0  3  0  0  0  0  0  0
  194.6060  175.5340  143.6130 C   0  0  0  0  0  0  0  0  0  0  0  0
  195.8350  174.8670  143.7140 C   0  0  0  0  0  0  0  0  0  0  0  0
  196.7380  174.6190  142.5530 C   0  0  0  0  0  1  0  0  0  0  0  0
  191.9880  176.4180  143.6880 O   0  0  0  0  0  0  0  0  0  0  0  0
  193.9410  175.6450  144.8200 C   0  0  0  0  0  0  0  0  0  0  0  0
  192.8310  177.0220  142.7260 C   0  0  0  0  0  2  0  0  0  0  0  0
  196.1360  174.4930  145.0240 C   0  0  0  0  0  0  0  0  0  0  0  0
  191.7700  175.8350  146.0060 C   0  0  0  0  0  2  0  0  0  0  0  0
  190.6490  176.7910  146.3820 C   0  0  2  0  0  3  0  0  0  0  0  0
  190.7290  177.1280  147.7360 O   0  0  0  0  0  1  0  0  0  0  0  0
  189.2830  176.1750  146.0420 C   0  0  2  0  0  3  0  0  0  0  0  0
  189.3640  174.9380  145.1390 C   0  0  0  0  0  2  0  0  0  0  0  0
  189.1380  175.3140  143.7880 O   0  0  0  0  0  0  0  0  0  0  0  0
  189.2330  174.3980  142.7400 C   0  0  0  0  0  0  0  0  0  0  0  0
  190.3150  173.7980  142.5000 O   0  0  0  0  0  0  0  0  0  0  0  0
  188.0390  174.1420  141.8870 C   0  0  0  0  0  2  0  0  0  0  0  0
  188.4100  173.6120  139.4410 C   0  0  0  0  0  0  0  0  0  0  0  0
  188.1930  172.3850  139.6310 O   0  0  0  0  0  0  0  0  0  0  0  0
  188.7590  174.0960  138.0780 C   0  0  0  0  0  1  0  0  0  0  0  0
  188.3060  174.5490  140.5160 N   0  0  0  0  0  2  0  0  0  0  0  0
  188.2940  177.1120  145.6500 O   0  0  0  0  0  0  0  0  0  0  0  0
  187.1270  176.9180  146.4170 C   0  0  1  0  0  3  0  0  0  0  0  0
  187.0990  177.8250  147.4770 O   0  0  0  0  0  1  0  0  0  0  0  0
  185.8820  177.0840  145.5490 C   0  0  0  0  0  2  0  0  0  0  0  0
  184.6470  177.3720  146.3860 C   0  0  0  0  0  1  0  0  0  0  0  0
  197.3800  173.8110  145.4800 C   0  0  0  0  0  2  0  0  0  0  0  0
  197.0540  172.5950  146.0810 O   0  0  0  0  0  0  0  0  0  0  0  0
  197.4170  171.6350  145.1370 C   0  0  0  0  0  2  0  0  0  0  0  0
  196.2440  170.7060  144.8710 C   0  0  2  0  0  3  0  0  0  0  0  0
  196.7180  169.4080  144.6590 O   0  0  0  0  0  0  0  0  0  0  0  0
  196.8220  168.8450  145.9320 C   0  0  0  0  0  2  0  0  0  0  0  0
  195.5000  168.7350  146.5200 N   0  0  0  0  0  2  0  0  0  0  0  0
  195.6830  168.2500  147.8790 C   0  0  0  0  0  2  0  0  0  0  0  0
  197.1650  168.1710  148.1940 C   0  0  0  0  0  1  0  0  0  0  0  0
  195.5120  171.1910  143.6300 C   0  0  0  0  0  2  0  0  0  0  0  0
  194.6880  170.0690  143.0210 C   0  0  0  0  0  2  0  0  0  0  0  0
  193.9840  170.5300  141.7480 C   0  0  0  0  0  2  0  0  0  0  0  0
  192.5640  169.9640  141.6510 C   0  0  2  0  0  3  0  0  0  0  0  0
  192.6560  168.4420  141.6230 C   0  0  0  0  0  1  0  0  0  0  0  0
  191.8900  170.4640  140.4440 N   0  0  0  0  0  0  0  0  0  0  0  0
  192.7710  171.4230  139.7800 C   0  0  0  0  0  2  0  0  0  0  0  0
  192.6270  173.7600  140.1670 O   0  0  0  0  0  1  0  0  0  0  0  0
  192.0160  172.7050  139.4950 C   0  0  0  0  0  2  0  0  0  0  0  0
  191.7540  169.3590  139.5020 C   0  0  0  0  0  2  0  0  0  0  0  0
  190.4010  169.4250  138.8220 C   0  0  0  0  0  2  0  0  0  0  0  0
  190.4880  168.7500  137.4720 C   0  0  0  0  0  1  0  0  0  0  0  0
  1  9  1  0  0  0  0
  1  4  1  0  0  0  0
  3 11  1  1  0  0  0
  4  5  1  0  0  0  0
  4  8  2  0  0  0  0
  5 10  2  0  0  0  0
  6  5  1  0  0  0  0
  7  3  1  0  0  0  0
  8  3  1  0  0  0  0
  8  2  1  0  0  0  0
  9  7  1  0  0  0  0
 10 29  1  0  0  0  0
 10  2  1  0  0  0  0
 11 12  1  0  0  0  0
 12 13  1  1  0  0  0
 14 15  1  6  0  0  0
 14 12  1  0  0  0  0
 16 15  1  0  0  0  0
 17 16  1  0  0  0  0
 18 17  2  0  0  0  0
 19 17  1  0  0  0  0
 20 21  2  0  0  0  0
 20 23  1  0  0  0  0
 22 20  1  0  0  0  0
 23 19  1  0  0  0  0
 24 14  1  0  0  0  0
 24 25  1  0  0  0  0
 25 26  1  1  0  0  0
 27 28  1  0  0  0  0
 27 25  1  0  0  0  0
 29 30  1  0  0  0  0
 31 30  1  0  0  0  0
 32 38  1  6  0  0  0
 32 31  1  0  0  0  0
 33 32  1  0  0  0  0
 33 34  1  0  0  0  0
 34 35  1  0  0  0  0
 35 36  1  0  0  0  0
 36 37  1  0  0  0  0
 39 38  1  0  0  0  0
 40 39  1  0  0  0  0
 41 42  1  6  0  0  0
 41 40  1  0  0  0  0
 43 41  1  0  0  0  0
 44 43  1  0  0  0  0
 46 44  1  0  0  0  0
 46 45  1  0  0  0  0
 47 43  1  0  0  0  0
 48 47  1  0  0  0  0
 49 48  1  0  0  0  0
M  END
>  <MODEL>
4

>  <REMARK>
 VINA RESULT:      -4.4      2.415      7.898
  Name = 
  28 active torsions:
  status: ('A' for Active; 'I' for Inactive)
    1  A    between atoms: O_1  and  C_19
    2  A    between atoms: O_1  and  C_27
    3  A    between atoms: C_3  and  C_5
    4  A    between atoms: C_3  and  N_39
    5  A    between atoms: C_4  and  O_34
    6  A    between atoms: C_4  and  C_47
    7  A    between atoms: C_5  and  C_18
    8  A    between atoms: C_6  and  C_33
    9  A    between atoms: C_6  and  C_44
   10  A    between atoms: C_8  and  N_24
   11  A    between atoms: C_9  and  C_33
   12  A    between atoms: C_12  and  C_21
   13  A    between atoms: C_17  and  C_19
   14  A    between atoms: C_17  and  O_36
   15  A    between atoms: C_18  and  C_37
   16  A    between atoms: C_19  and  C_37
   17  A    between atoms: C_21  and  N_39
   18  A    between atoms: C_22  and  C_25
   19  A    between atoms: C_22  and  N_43
   20  A    between atoms: C_23  and  O_36
   21  A    between atoms: C_23  and  C_42
   22  A    between atoms: N_24  and  C_27
   23  A    between atoms: C_25  and  O_46
   24  A    between atoms: C_32  and  C_40
   25  A    between atoms: O_34  and  C_44
   26  A    between atoms: N_39  and  C_40
   27  A    between atoms: C_44  and  C_49
   28  A    between atoms: O_46  and  C_49
                            x       y       z     vdW  Elec       q    Type
                         _______ _______ _______ _____ _____    ______ ____

>  <TORSDO>
F 28

$$$$
=
 OpenBabel11062420253D

 49 50  0  0  1  0  0  0  0  0999 V2000
  185.2530  178.0700  145.2900 C   0  0  0  0  0  2  0  0  0  0  0  0
  188.3540  176.1840  143.7340 S   0  0  0  0  0  0  0  0  0  0  0  0
  187.7790  177.1190  146.3910 C   0  0  2  0  0  3  0  0  0  0  0  0
  186.2490  177.3680  144.4170 C   0  0  0  0  0  0  0  0  0  0  0  0
  186.1240  177.1310  143.0410 C   0  0  0  0  0  0  0  0  0  0  0  0
  184.9560  177.5780  142.2280 C   0  0  0  0  0  1  0  0  0  0  0  0
  186.6040  177.3030  147.1570 O   0  0  0  0  0  0  0  0  0  0  0  0
  187.4150  176.8590  144.9580 C   0  0  0  0  0  0  0  0  0  0  0  0
  185.9150  178.4230  146.6370 C   0  0  0  0  0  2  0  0  0  0  0  0
  187.2270  176.4610  142.5100 C   0  0  0  0  0  0  0  0  0  0  0  0
  188.5770  175.9510  146.9530 C   0  0  0  0  0  2  0  0  0  0  0  0
  189.9920  176.3730  147.3140 C   0  0  2  0  0  3  0  0  0  0  0  0
  190.0580  177.7560  147.4980 O   0  0  0  0  0  1  0  0  0  0  0  0
  190.9820  175.9060  146.2350 C   0  0  2  0  0  3  0  0  0  0  0  0
  191.4890  174.4730  146.4320 C   0  0  0  0  0  2  0  0  0  0  0  0
  190.6340  173.5640  145.7530 O   0  0  0  0  0  0  0  0  0  0  0  0
  190.9190  173.0980  144.4690 C   0  0  0  0  0  0  0  0  0  0  0  0
  189.9960  172.7740  143.6770 O   0  0  0  0  0  0  0  0  0  0  0  0
  192.3410  172.9720  144.0420 C   0  0  0  0  0  2  0  0  0  0  0  0
  194.0760  171.6900  145.3650 C   0  0  0  0  0  0  0  0  0  0  0  0
  194.6250  172.7560  145.7560 O   0  0  0  0  0  0  0  0  0  0  0  0
  194.6380  170.3760  145.7790 C   0  0  0  0  0  1  0  0  0  0  0  0
  192.9060  171.7280  144.5440 N   0  0  0  0  0  2  0  0  0  0  0  0
  192.0000  176.8410  145.9240 O   0  0  0  0  0  0  0  0  0  0  0  0
  192.3930  176.6850  144.5790 C   0  0  1  0  0  3  0  0  0  0  0  0
  191.8120  177.6830  143.7960 O   0  0  0  0  0  1  0  0  0  0  0  0
  193.9140  176.7370  144.4550 C   0  0  0  0  0  2  0  0  0  0  0  0
  194.5980  176.4120  145.7720 C   0  0  0  0  0  1  0  0  0  0  0  0
  187.4290  176.0980  141.0790 C   0  0  0  0  0  2  0  0  0  0  0  0
  188.6700  175.4800  140.9240 O   0  0  0  0  0  0  0  0  0  0  0  0
  188.3630  174.1360  140.7140 C   0  0  0  0  0  2  0  0  0  0  0  0
  188.7660  173.7290  139.3070 C   0  0  2  0  0  3  0  0  0  0  0  0
  188.3540  172.4150  139.0670 O   0  0  0  0  0  0  0  0  0  0  0  0
  188.8720  172.0940  137.8110 C   0  0  0  0  0  2  0  0  0  0  0  0
  189.7180  170.9200  137.9240 N   0  0  0  0  0  2  0  0  0  0  0  0
  190.1220  170.5620  136.5740 C   0  0  0  0  0  2  0  0  0  0  0  0
  189.4760  171.5110  135.5820 C   0  0  0  0  0  1  0  0  0  0  0  0
  190.2780  173.8200  139.1900 C   0  0  0  0  0  2  0  0  0  0  0  0
  190.9430  173.4130  140.4940 C   0  0  0  0  0  2  0  0  0  0  0  0
  192.3260  174.0440  140.6300 C   0  0  0  0  0  2  0  0  0  0  0  0
  193.3750  173.2870  139.8100 C   0  0  2  0  0  3  0  0  0  0  0  0
  193.6020  171.9260  140.4620 C   0  0  0  0  0  1  0  0  0  0  0  0
  194.6320  174.0480  139.7500 N   0  0  0  0  0  0  0  0  0  0  0  0
  194.9370  174.3380  138.3500 C   0  0  0  0  0  2  0  0  0  0  0  0
  193.3980  174.6290  136.5670 O   0  0  0  0  0  1  0  0  0  0  0  0
  193.8450  175.2030  137.7530 C   0  0  0  0  0  2  0  0  0  0  0  0
  194.4100  175.3510  140.3680 C   0  0  0  0  0  2  0  0  0  0  0  0
  195.7270  175.9190  140.8570 C   0  0  0  0  0  2  0  0  0  0  0  0
  196.1790  175.1500  142.0780 C   0  0  0  0  0  1  0  0  0  0  0  0
  1  9  1  0  0  0  0
  2  8  1  0  0  0  0
  3 11  1  1  0  0  0
  3  7  1  0  0  0  0
  4  8  2  0  0  0  0
  4  1  1  0  0  0  0
  5  4  1  0  0  0  0
  6  5  1  0  0  0  0
  8  3  1  0  0  0  0
  9  7  1  0  0  0  0
 10  5  2  0  0  0  0
 10  2  1  0  0  0  0
 11 12  1  0  0  0  0
 12 13  1  6  0  0  0
 14 15  1  1  0  0  0
 14 12  1  0  0  0  0
 16 15  1  0  0  0  0
 17 16  1  0  0  0  0
 18 17  2  0  0  0  0
 19 17  1  0  0  0  0
 19 23  1  0  0  0  0
 20 21  2  0  0  0  0
 20 22  1  0  0  0  0
 23 20  1  0  0  0  0
 24 14  1  0  0  0  0
 25 26  1  6  0  0  0
 25 24  1  0  0  0  0
 27 25  1  0  0  0  0
 27 28  1  0  0  0  0
 29 10  1  0  0  0  0
 30 29  1  0  0  0  0
 31 30  1  0  0  0  0
 32 38  1  1  0  0  0
 32 31  1  0  0  0  0
 33 32  1  0  0  0  0
 34 35  1  0  0  0  0
 34 33  1  0  0  0  0
 36 35  1  0  0  0  0
 37 36  1  0  0  0  0
 38 39  1  0  0  0  0
 39 40  1  0  0  0  0
 41 42  1  1  0  0  0
 41 40  1  0  0  0  0
 43 41  1  0  0  0  0
 43 47  1  0  0  0  0
 44 43  1  0  0  0  0
 45 46  1  0  0  0  0
 46 44  1  0  0  0  0
 47 48  1  0  0  0  0
 48 49  1  0  0  0  0
M  END
>  <MODEL>
5

>  <REMARK>
 VINA RESULT:      -4.4      2.570      8.375
  Name = 
  28 active torsions:
  status: ('A' for Active; 'I' for Inactive)
    1  A    between atoms: O_1  and  C_19
    2  A    between atoms: O_1  and  C_27
    3  A    between atoms: C_3  and  C_5
    4  A    between atoms: C_3  and  N_39
    5  A    between atoms: C_4  and  O_34
    6  A    between atoms: C_4  and  C_47
    7  A    between atoms: C_5  and  C_18
    8  A    between atoms: C_6  and  C_33
    9  A    between atoms: C_6  and  C_44
   10  A    between atoms: C_8  and  N_24
   11  A    between atoms: C_9  and  C_33
   12  A    between atoms: C_12  and  C_21
   13  A    between atoms: C_17  and  C_19
   14  A    between atoms: C_17  and  O_36
   15  A    between atoms: C_18  and  C_37
   16  A    between atoms: C_19  and  C_37
   17  A    between atoms: C_21  and  N_39
   18  A    between atoms: C_22  and  C_25
   19  A    between atoms: C_22  and  N_43
   20  A    between atoms: C_23  and  O_36
   21  A    between atoms: C_23  and  C_42
   22  A    between atoms: N_24  and  C_27
   23  A    between atoms: C_25  and  O_46
   24  A    between atoms: C_32  and  C_40
   25  A    between atoms: O_34  and  C_44
   26  A    between atoms: N_39  and  C_40
   27  A    between atoms: C_44  and  C_49
   28  A    between atoms: O_46  and  C_49
                            x       y       z     vdW  Elec       q    Type
                         _______ _______ _______ _____ _____    ______ ____

>  <TORSDO>
F 28

$$$$
=
 OpenBabel11062420253D

 49 50  0  0  1  0  0  0  0  0999 V2000
  195.2240  176.6170  145.5440 C   0  0  0  0  0  2  0  0  0  0  0  0
  193.1880  175.6190  142.3100 S   0  0  0  0  0  0  0  0  0  0  0  0
  192.4450  175.8710  145.0760 C   0  0  2  0  0  3  0  0  0  0  0  0
  194.7450  176.2880  144.1620 C   0  0  0  0  0  0  0  0  0  0  0  0
  195.5270  176.2580  142.9980 C   0  0  0  0  0  0  0  0  0  0  0  0
  196.9930  176.5350  142.9810 C   0  0  0  0  0  1  0  0  0  0  0  0
  192.8750  176.6700  146.1620 O   0  0  0  0  0  0  0  0  0  0  0  0
  193.4120  176.0010  143.9350 C   0  0  0  0  0  0  0  0  0  0  0  0
  194.1480  176.2040  146.5680 C   0  0  0  0  0  2  0  0  0  0  0  0
  194.7900  175.9070  141.8670 C   0  0  0  0  0  0  0  0  0  0  0  0
  191.0540  176.3080  144.6420 C   0  0  0  0  0  2  0  0  0  0  0  0
  189.9770  175.6350  145.4790 C   0  0  2  0  0  3  0  0  0  0  0  0
  189.8640  174.2850  145.1360 O   0  0  0  0  0  1  0  0  0  0  0  0
  188.6360  176.3670  145.3160 C   0  0  2  0  0  3  0  0  0  0  0  0
  188.0290  176.8570  146.6360 C   0  0  0  0  0  2  0  0  0  0  0  0
  187.0260  177.8290  146.3710 O   0  0  0  0  0  0  0  0  0  0  0  0
  185.8660  177.9220  147.1410 C   0  0  0  0  0  0  0  0  0  0  0  0
  185.9260  178.0350  148.3940 O   0  0  0  0  0  0  0  0  0  0  0  0
  184.5390  177.8690  146.4650 C   0  0  0  0  0  2  0  0  0  0  0  0
  184.3670  178.5740  144.0410 C   0  0  0  0  0  0  0  0  0  0  0  0
  183.9680  179.7270  144.3610 O   0  0  0  0  0  0  0  0  0  0  0  0
  184.5020  178.2150  142.6030 C   0  0  0  0  0  1  0  0  0  0  0  0
  184.7120  177.6140  145.0430 N   0  0  0  0  0  2  0  0  0  0  0  0
  187.7110  175.7210  144.4600 O   0  0  0  0  0  0  0  0  0  0  0  0
  187.9030  176.1600  143.1350 C   0  0  1  0  0  3  0  0  0  0  0  0
  186.8620  175.7030  142.3260 O   0  0  0  0  0  1  0  0  0  0  0  0
  187.9800  177.6850  143.0810 C   0  0  0  0  0  2  0  0  0  0  0  0
  188.7030  178.1680  141.8360 C   0  0  0  0  0  1  0  0  0  0  0  0
  195.3260  175.7400  140.4860 C   0  0  0  0  0  2  0  0  0  0  0  0
  195.5490  174.3870  140.2310 O   0  0  0  0  0  0  0  0  0  0  0  0
  194.4830  174.0100  139.4150 C   0  0  0  0  0  2  0  0  0  0  0  0
  195.0070  173.3130  138.1710 C   0  0  2  0  0  3  0  0  0  0  0  0
  196.3050  173.7560  137.9030 O   0  0  0  0  0  0  0  0  0  0  0  0
  197.0860  172.5990  137.8710 C   0  0  0  0  0  2  0  0  0  0  0  0
  197.6710  172.4480  136.5510 N   0  0  0  0  0  2  0  0  0  0  0  0
  197.1090  171.2340  135.9800 C   0  0  0  0  0  2  0  0  0  0  0  0
  196.7000  171.4920  134.5420 C   0  0  0  0  0  1  0  0  0  0  0  0
  194.0980  173.6570  137.0020 C   0  0  0  0  0  2  0  0  0  0  0  0
  193.0400  174.6630  137.4240 C   0  0  0  0  0  2  0  0  0  0  0  0
  191.6640  174.2720  136.8930 C   0  0  0  0  0  2  0  0  0  0  0  0
  191.3070  172.8280  137.2580 C   0  0  2  0  0  3  0  0  0  0  0  0
  190.8490  172.1120  135.9900 C   0  0  0  0  0  1  0  0  0  0  0  0
  190.2480  172.8000  138.2780 N   0  0  0  0  0  0  0  0  0  0  0  0
  188.9510  172.9000  137.6090 C   0  0  0  0  0  2  0  0  0  0  0  0
  188.6510  174.4300  139.3980 O   0  0  0  0  0  1  0  0  0  0  0  0
  188.2000  174.1120  138.1210 C   0  0  0  0  0  2  0  0  0  0  0  0
  190.2500  171.4840  138.9070 C   0  0  0  0  0  2  0  0  0  0  0  0
  191.3400  171.4190  139.9580 C   0  0  0  0  0  2  0  0  0  0  0  0
  191.2590  172.6460  140.8380 C   0  0  0  0  0  1  0  0  0  0  0  0
  1  9  1  0  0  0  0
  2  8  1  0  0  0  0
  3 11  1  6  0  0  0
  3  7  1  0  0  0  0
  4  1  1  0  0  0  0
  5  4  1  0  0  0  0
  6  5  1  0  0  0  0
  7  9  1  0  0  0  0
  8  4  2  0  0  0  0
  8  3  1  0  0  0  0
 10  2  1  0  0  0  0
 10  5  2  0  0  0  0
 11 12  1  0  0  0  0
 12 13  1  6  0  0  0
 14 12  1  0  0  0  0
 14 15  1  1  0  0  0
 16 15  1  0  0  0  0
 16 17  1  0  0  0  0
 17 18  2  0  0  0  0
 19 17  1  0  0  0  0
 20 21  2  0  0  0  0
 20 23  1  0  0  0  0
 22 20  1  0  0  0  0
 23 19  1  0  0  0  0
 24 14  1  0  0  0  0
 25 26  1  6  0  0  0
 25 24  1  0  0  0  0
 27 25  1  0  0  0  0
 28 27  1  0  0  0  0
 29 10  1  0  0  0  0
 30 29  1  0  0  0  0
 31 30  1  0  0  0  0
 32 38  1  6  0  0  0
 32 31  1  0  0  0  0
 33 32  1  0  0  0  0
 34 33  1  0  0  0  0
 35 34  1  0  0  0  0
 36 35  1  0  0  0  0
 37 36  1  0  0  0  0
 38 39  1  0  0  0  0
 40 41  1  0  0  0  0
 40 39  1  0  0  0  0
 41 42  1  6  0  0  0
 41 43  1  0  0  0  0
 43 47  1  0  0  0  0
 44 46  1  0  0  0  0
 44 43  1  0  0  0  0
 46 45  1  0  0  0  0
 47 48  1  0  0  0  0
 48 49  1  0  0  0  0
M  END
>  <MODEL>
6

>  <REMARK>
 VINA RESULT:      -4.4      3.085      8.592
  Name = 
  28 active torsions:
  status: ('A' for Active; 'I' for Inactive)
    1  A    between atoms: O_1  and  C_19
    2  A    between atoms: O_1  and  C_27
    3  A    between atoms: C_3  and  C_5
    4  A    between atoms: C_3  and  N_39
    5  A    between atoms: C_4  and  O_34
    6  A    between atoms: C_4  and  C_47
    7  A    between atoms: C_5  and  C_18
    8  A    between atoms: C_6  and  C_33
    9  A    between atoms: C_6  and  C_44
   10  A    between atoms: C_8  and  N_24
   11  A    between atoms: C_9  and  C_33
   12  A    between atoms: C_12  and  C_21
   13  A    between atoms: C_17  and  C_19
   14  A    between atoms: C_17  and  O_36
   15  A    between atoms: C_18  and  C_37
   16  A    between atoms: C_19  and  C_37
   17  A    between atoms: C_21  and  N_39
   18  A    between atoms: C_22  and  C_25
   19  A    between atoms: C_22  and  N_43
   20  A    between atoms: C_23  and  O_36
   21  A    between atoms: C_23  and  C_42
   22  A    between atoms: N_24  and  C_27
   23  A    between atoms: C_25  and  O_46
   24  A    between atoms: C_32  and  C_40
   25  A    between atoms: O_34  and  C_44
   26  A    between atoms: N_39  and  C_40
   27  A    between atoms: C_44  and  C_49
   28  A    between atoms: O_46  and  C_49
                            x       y       z     vdW  Elec       q    Type
                         _______ _______ _______ _____ _____    ______ ____

>  <TORSDO>
F 28

$$$$
=
 OpenBabel11062420253D

 49 50  0  0  1  0  0  0  0  0999 V2000
  196.5310  175.4720  144.3030 C   0  0  0  0  0  2  0  0  0  0  0  0
  192.9950  176.1990  142.7020 S   0  0  0  0  0  0  0  0  0  0  0  0
  195.4260  175.0990  141.6320 C   0  0  2  0  0  3  0  0  0  0  0  0
  195.1130  175.8560  144.0050 C   0  0  0  0  0  0  0  0  0  0  0  0
  194.2060  176.4430  144.8990 C   0  0  0  0  0  0  0  0  0  0  0  0
  194.5470  176.7980  146.3070 C   0  0  0  0  0  1  0  0  0  0  0  0
  196.4990  174.3400  142.1550 O   0  0  0  0  0  0  0  0  0  0  0  0
  194.5730  175.6140  142.7550 C   0  0  0  0  0  0  0  0  0  0  0  0
  197.2720  175.1890  142.9820 C   0  0  0  0  0  2  0  0  0  0  0  0
  192.9620  176.6890  144.3160 C   0  0  0  0  0  0  0  0  0  0  0  0
  194.5980  174.2330  140.6940 C   0  0  0  0  0  2  0  0  0  0  0  0
  194.7110  172.7610  141.0580 C   0  0  2  0  0  3  0  0  0  0  0  0
  195.1460  172.0190  139.9560 O   0  0  0  0  0  1  0  0  0  0  0  0
  193.3690  172.2350  141.5890 C   0  0  2  0  0  3  0  0  0  0  0  0
  192.1820  172.5000  140.6550 C   0  0  0  0  0  2  0  0  0  0  0  0
  191.4010  171.3200  140.5260 O   0  0  0  0  0  0  0  0  0  0  0  0
  191.0590  170.7920  139.2800 C   0  0  0  0  0  0  0  0  0  0  0  0
  190.1160  169.9660  139.1620 O   0  0  0  0  0  0  0  0  0  0  0  0
  191.8360  171.2070  138.0780 C   0  0  0  0  0  2  0  0  0  0  0  0
  193.7130  170.2480  136.6770 C   0  0  0  0  0  0  0  0  0  0  0  0
  194.1170  171.3990  136.3570 O   0  0  0  0  0  0  0  0  0  0  0  0
  194.4060  169.0470  136.1380 C   0  0  0  0  0  1  0  0  0  0  0  0
  192.6070  170.0830  137.5680 N   0  0  0  0  0  2  0  0  0  0  0  0
  193.1120  172.5390  142.9490 O   0  0  0  0  0  0  0  0  0  0  0  0
  194.0850  171.9250  143.7640 C   0  0  1  0  0  3  0  0  0  0  0  0
  194.1490  172.5750  144.9980 O   0  0  0  0  0  1  0  0  0  0  0  0
  193.7610  170.4460  143.9640 C   0  0  0  0  0  2  0  0  0  0  0  0
  195.0180  169.6200  144.1810 C   0  0  0  0  0  1  0  0  0  0  0  0
  191.7960  177.3420  144.9760 C   0  0  0  0  0  2  0  0  0  0  0  0
  191.3040  176.5110  145.9830 O   0  0  0  0  0  0  0  0  0  0  0  0
  189.9190  176.6650  145.9110 C   0  0  0  0  0  2  0  0  0  0  0  0
  189.2360  175.5710  146.7130 C   0  0  2  0  0  3  0  0  0  0  0  0
  189.3220  174.3620  146.0170 O   0  0  0  0  0  0  0  0  0  0  0  0
  189.3490  174.7190  144.6670 C   0  0  0  0  0  2  0  0  0  0  0  0
  190.2150  173.8060  143.9440 N   0  0  0  0  0  2  0  0  0  0  0  0
  189.3940  173.1620  142.9310 C   0  0  0  0  0  2  0  0  0  0  0  0
  189.1970  171.7010  143.2890 C   0  0  0  0  0  1  0  0  0  0  0  0
  187.7760  175.9480  146.9040 C   0  0  0  0  0  2  0  0  0  0  0  0
  187.5410  177.3960  146.5090 C   0  0  0  0  0  2  0  0  0  0  0  0
  186.0640  177.6590  146.2300 C   0  0  0  0  0  2  0  0  0  0  0  0
  185.8700  178.5390  144.9910 C   0  0  2  0  0  3  0  0  0  0  0  0
  184.5290  179.2550  145.1170 C   0  0  0  0  0  1  0  0  0  0  0  0
  185.9080  177.7230  143.7680 N   0  0  0  0  0  0  0  0  0  0  0  0
  184.6120  177.8250  143.0980 C   0  0  0  0  0  2  0  0  0  0  0  0
  183.5740  178.3470  141.0290 O   0  0  0  0  0  1  0  0  0  0  0  0
  184.8140  178.1830  141.6390 C   0  0  0  0  0  2  0  0  0  0  0  0
  186.8620  178.3240  142.8430 C   0  0  0  0  0  2  0  0  0  0  0  0
  188.1830  177.5840  142.9150 C   0  0  0  0  0  2  0  0  0  0  0  0
  189.2180  178.3350  142.1070 C   0  0  0  0  0  1  0  0  0  0  0  0
  2  8  1  0  0  0  0
  2 10  1  0  0  0  0
  3 11  1  6  0  0  0
  3  7  1  0  0  0  0
  3  8  1  0  0  0  0
  4  1  1  0  0  0  0
  4  5  1  0  0  0  0
  5  6  1  0  0  0  0
  7  9  1  0  0  0  0
  8  4  2  0  0  0  0
  9  1  1  0  0  0  0
 10  5  2  0  0  0  0
 10 29  1  0  0  0  0
 11 12  1  0  0  0  0
 12 13  1  6  0  0  0
 12 14  1  0  0  0  0
 14 15  1  6  0  0  0
 14 24  1  0  0  0  0
 16 15  1  0  0  0  0
 17 16  1  0  0  0  0
 18 17  2  0  0  0  0
 19 17  1  0  0  0  0
 20 23  1  0  0  0  0
 21 20  2  0  0  0  0
 22 20  1  0  0  0  0
 23 19  1  0  0  0  0
 24 25  1  0  0  0  0
 25 27  1  0  0  0  0
 25 26  1  1  0  0  0
 27 28  1  0  0  0  0
 29 30  1  0  0  0  0
 31 30  1  0  0  0  0
 32 31  1  6  0  0  0
 32 38  1  0  0  0  0
 33 32  1  0  0  0  0
 34 33  1  0  0  0  0
 35 34  1  0  0  0  0
 36 37  1  0  0  0  0
 36 35  1  0  0  0  0
 39 38  1  0  0  0  0
 40 39  1  0  0  0  0
 41 42  1  1  0  0  0
 41 40  1  0  0  0  0
 43 41  1  0  0  0  0
 44 43  1  0  0  0  0
 45 46  1  0  0  0  0
 46 44  1  0  0  0  0
 47 48  1  0  0  0  0
 47 43  1  0  0  0  0
 49 48  1  0  0  0  0
M  END
>  <MODEL>
7

>  <REMARK>
 VINA RESULT:      -4.3      1.815      2.679
  Name = 
  28 active torsions:
  status: ('A' for Active; 'I' for Inactive)
    1  A    between atoms: O_1  and  C_19
    2  A    between atoms: O_1  and  C_27
    3  A    between atoms: C_3  and  C_5
    4  A    between atoms: C_3  and  N_39
    5  A    between atoms: C_4  and  O_34
    6  A    between atoms: C_4  and  C_47
    7  A    between atoms: C_5  and  C_18
    8  A    between atoms: C_6  and  C_33
    9  A    between atoms: C_6  and  C_44
   10  A    between atoms: C_8  and  N_24
   11  A    between atoms: C_9  and  C_33
   12  A    between atoms: C_12  and  C_21
   13  A    between atoms: C_17  and  C_19
   14  A    between atoms: C_17  and  O_36
   15  A    between atoms: C_18  and  C_37
   16  A    between atoms: C_19  and  C_37
   17  A    between atoms: C_21  and  N_39
   18  A    between atoms: C_22  and  C_25
   19  A    between atoms: C_22  and  N_43
   20  A    between atoms: C_23  and  O_36
   21  A    between atoms: C_23  and  C_42
   22  A    between atoms: N_24  and  C_27
   23  A    between atoms: C_25  and  O_46
   24  A    between atoms: C_32  and  C_40
   25  A    between atoms: O_34  and  C_44
   26  A    between atoms: N_39  and  C_40
   27  A    between atoms: C_44  and  C_49
   28  A    between atoms: O_46  and  C_49
                            x       y       z     vdW  Elec       q    Type
                         _______ _______ _______ _____ _____    ______ ____

>  <TORSDO>
F 28

$$$$
=
 OpenBabel11062420253D

 49 50  0  0  1  0  0  0  0  0999 V2000
  192.1310  176.6510  147.2190 C   0  0  0  0  0  2  0  0  0  0  0  0
  192.5140  176.1230  143.3240 S   0  0  0  0  0  0  0  0  0  0  0  0
  190.3250  177.0160  144.9600 C   0  0  2  0  0  3  0  0  0  0  0  0
  192.5890  176.3580  145.8220 C   0  0  0  0  0  0  0  0  0  0  0  0
  193.8470  175.8640  145.4480 C   0  0  0  0  0  0  0  0  0  0  0  0
  194.9260  175.5300  146.4210 C   0  0  0  0  0  1  0  0  0  0  0  0
  190.2080  177.7150  146.1850 O   0  0  0  0  0  0  0  0  0  0  0  0
  191.7520  176.5970  144.7480 C   0  0  0  0  0  0  0  0  0  0  0  0
  190.6010  176.8410  147.2250 C   0  0  0  0  0  2  0  0  0  0  0  0
  193.9640  175.6870  144.0690 C   0  0  0  0  0  0  0  0  0  0  0  0
  189.8620  177.9080  143.8180 C   0  0  0  0  0  2  0  0  0  0  0  0
  188.4810  177.5030  143.3270 C   0  0  2  0  0  3  0  0  0  0  0  0
  187.9670  176.4680  144.1120 O   0  0  0  0  0  1  0  0  0  0  0  0
  188.5350  177.1030  141.8440 C   0  0  2  0  0  3  0  0  0  0  0  0
  187.2570  177.4330  141.0620 C   0  0  0  0  0  2  0  0  0  0  0  0
  186.3360  178.1060  141.9100 O   0  0  0  0  0  0  0  0  0  0  0  0
  184.9860  178.2350  141.5800 C   0  0  0  0  0  0  0  0  0  0  0  0
  184.6240  178.3890  140.3840 O   0  0  0  0  0  0  0  0  0  0  0  0
  183.9670  178.2040  142.6660 C   0  0  0  0  0  2  0  0  0  0  0  0
  184.8160  178.4720  145.0350 C   0  0  0  0  0  0  0  0  0  0  0  0
  184.8950  177.2240  145.1920 O   0  0  0  0  0  0  0  0  0  0  0  0
  185.1760  179.3800  146.1580 C   0  0  0  0  0  1  0  0  0  0  0  0
  184.4020  179.0280  143.7840 N   0  0  0  0  0  2  0  0  0  0  0  0
  189.0400  175.8030  141.6010 O   0  0  0  0  0  0  0  0  0  0  0  0
  188.0180  174.9860  141.0780 C   0  0  1  0  0  3  0  0  0  0  0  0
  188.2910  174.6780  139.7440 O   0  0  0  0  0  1  0  0  0  0  0  0
  187.8830  173.7040  141.8970 C   0  0  0  0  0  2  0  0  0  0  0  0
  189.1050  173.4590  142.7650 C   0  0  0  0  0  1  0  0  0  0  0  0
  195.1490  175.1380  143.3510 C   0  0  0  0  0  2  0  0  0  0  0  0
  195.3660  173.8180  143.7470 O   0  0  0  0  0  0  0  0  0  0  0  0
  195.8280  173.1840  142.5950 C   0  0  0  0  0  2  0  0  0  0  0  0
  196.0560  171.7080  142.8750 C   0  0  2  0  0  3  0  0  0  0  0  0
  197.2790  171.3130  142.3250 O   0  0  0  0  0  0  0  0  0  0  0  0
  197.9400  170.6370  143.3520 C   0  0  0  0  0  2  0  0  0  0  0  0
  197.3990  171.0560  144.6320 N   0  0  0  0  0  2  0  0  0  0  0  0
  197.2800  169.8590  145.4500 C   0  0  0  0  0  2  0  0  0  0  0  0
  196.1780  170.0520  146.4740 C   0  0  0  0  0  1  0  0  0  0  0  0
  194.9280  170.9130  142.2380 C   0  0  0  0  0  2  0  0  0  0  0  0
  194.6560  171.4060  140.8270 C   0  0  0  0  0  2  0  0  0  0  0  0
  193.9870  170.3250  139.9830 C   0  0  0  0  0  2  0  0  0  0  0  0
  193.9030  170.7290  138.5080 C   0  0  2  0  0  3  0  0  0  0  0  0
  195.2550  171.3020  138.0910 C   0  0  0  0  0  1  0  0  0  0  0  0
  192.8360  171.7210  138.3040 N   0  0  0  0  0  0  0  0  0  0  0  0
  193.3950  172.8670  137.5890 C   0  0  0  0  0  2  0  0  0  0  0  0
  193.4830  174.4260  139.3760 O   0  0  0  0  0  1  0  0  0  0  0  0
  192.8450  174.1540  138.1690 C   0  0  0  0  0  2  0  0  0  0  0  0
  191.8470  171.1520  137.3960 C   0  0  0  0  0  2  0  0  0  0  0  0
  190.4820  171.1570  138.0540 C   0  0  0  0  0  2  0  0  0  0  0  0
  189.8190  169.8150  137.8370 C   0  0  0  0  0  1  0  0  0  0  0  0
  1  9  1  0  0  0  0
  2 10  1  0  0  0  0
  2  8  1  0  0  0  0
  3 11  1  6  0  0  0
  3  7  1  0  0  0  0
  4  1  1  0  0  0  0
  5  4  1  0  0  0  0
  5  6  1  0  0  0  0
  7  9  1  0  0  0  0
  8  3  1  0  0  0  0
  8  4  2  0  0  0  0
 10  5  2  0  0  0  0
 12 11  1  0  0  0  0
 12 13  1  1  0  0  0
 14 15  1  1  0  0  0
 14 12  1  0  0  0  0
 15 16  1  0  0  0  0
 17 16  1  0  0  0  0
 17 19  1  0  0  0  0
 18 17  2  0  0  0  0
 19 23  1  0  0  0  0
 20 21  2  0  0  0  0
 20 22  1  0  0  0  0
 23 20  1  0  0  0  0
 24 14  1  0  0  0  0
 25 26  1  6  0  0  0
 25 24  1  0  0  0  0
 25 27  1  0  0  0  0
 27 28  1  0  0  0  0
 29 30  1  0  0  0  0
 29 10  1  0  0  0  0
 31 32  1  0  0  0  0
 31 30  1  0  0  0  0
 32 38  1  6  0  0  0
 33 32  1  0  0  0  0
 33 34  1  0  0  0  0
 34 35  1  0  0  0  0
 35 36  1  0  0  0  0
 36 37  1  0  0  0  0
 39 38  1  0  0  0  0
 40 39  1  0  0  0  0
 41 42  1  1  0  0  0
 41 40  1  0  0  0  0
 43 41  1  0  0  0  0
 44 46  1  0  0  0  0
 44 43  1  0  0  0  0
 46 45  1  0  0  0  0
 47 48  1  0  0  0  0
 47 43  1  0  0  0  0
 49 48  1  0  0  0  0
M  END
>  <MODEL>
8

>  <REMARK>
 VINA RESULT:      -4.2      2.421      8.506
  Name = 
  28 active torsions:
  status: ('A' for Active; 'I' for Inactive)
    1  A    between atoms: O_1  and  C_19
    2  A    between atoms: O_1  and  C_27
    3  A    between atoms: C_3  and  C_5
    4  A    between atoms: C_3  and  N_39
    5  A    between atoms: C_4  and  O_34
    6  A    between atoms: C_4  and  C_47
    7  A    between atoms: C_5  and  C_18
    8  A    between atoms: C_6  and  C_33
    9  A    between atoms: C_6  and  C_44
   10  A    between atoms: C_8  and  N_24
   11  A    between atoms: C_9  and  C_33
   12  A    between atoms: C_12  and  C_21
   13  A    between atoms: C_17  and  C_19
   14  A    between atoms: C_17  and  O_36
   15  A    between atoms: C_18  and  C_37
   16  A    between atoms: C_19  and  C_37
   17  A    between atoms: C_21  and  N_39
   18  A    between atoms: C_22  and  C_25
   19  A    between atoms: C_22  and  N_43
   20  A    between atoms: C_23  and  O_36
   21  A    between atoms: C_23  and  C_42
   22  A    between atoms: N_24  and  C_27
   23  A    between atoms: C_25  and  O_46
   24  A    between atoms: C_32  and  C_40
   25  A    between atoms: O_34  and  C_44
   26  A    between atoms: N_39  and  C_40
   27  A    between atoms: C_44  and  C_49
   28  A    between atoms: O_46  and  C_49
                            x       y       z     vdW  Elec       q    Type
                         _______ _______ _______ _____ _____    ______ ____

>  <TORSDO>
F 28

$$$$
=
 OpenBabel11062420253D

 49 50  0  0  1  0  0  0  0  0999 V2000
  192.8550  176.6350  142.3890 C   0  0  0  0  0  2  0  0  0  0  0  0
  194.3910  175.6740  145.8980 S   0  0  0  0  0  0  0  0  0  0  0  0
  191.9790  177.0410  145.1390 C   0  0  2  0  0  3  0  0  0  0  0  0
  193.6830  176.1360  143.5340 C   0  0  0  0  0  0  0  0  0  0  0  0
  194.9240  175.4890  143.4410 C   0  0  0  0  0  0  0  0  0  0  0  0
  195.6210  175.2210  142.1500 C   0  0  0  0  0  1  0  0  0  0  0  0
  191.1010  176.9860  144.0310 O   0  0  0  0  0  0  0  0  0  0  0  0
  193.2310  176.2710  144.8340 C   0  0  0  0  0  0  0  0  0  0  0  0
  191.7570  177.5740  142.9250 C   0  0  0  0  0  2  0  0  0  0  0  0
  195.4490  175.1550  144.6900 C   0  0  0  0  0  0  0  0  0  0  0  0
  191.2900  176.4630  146.3660 C   0  0  0  0  0  2  0  0  0  0  0  0
  189.8730  176.9980  146.5070 C   0  0  2  0  0  3  0  0  0  0  0  0
  189.7770  177.8400  147.6190 O   0  0  0  0  0  1  0  0  0  0  0  0
  188.8690  175.8390  146.5980 C   0  0  2  0  0  3  0  0  0  0  0  0
  189.4910  174.4560  146.3740 C   0  0  0  0  0  2  0  0  0  0  0  0
  189.6230  174.2080  144.9810 O   0  0  0  0  0  0  0  0  0  0  0  0
  189.8660  172.9290  144.4780 C   0  0  0  0  0  0  0  0  0  0  0  0
  189.3930  171.9090  145.0440 O   0  0  0  0  0  0  0  0  0  0  0  0
  190.7120  172.7770  143.2610 C   0  0  0  0  0  2  0  0  0  0  0  0
  189.4260  173.2040  141.1240 C   0  0  0  0  0  0  0  0  0  0  0  0
  189.0180  172.0110  141.0830 O   0  0  0  0  0  0  0  0  0  0  0  0
  189.0420  174.1520  140.0430 C   0  0  0  0  0  1  0  0  0  0  0  0
  190.2390  173.6620  142.2080 N   0  0  0  0  0  2  0  0  0  0  0  0
  187.6590  176.0490  145.8900 O   0  0  0  0  0  0  0  0  0  0  0  0
  187.6500  177.3460  145.3400 C   0  0  1  0  0  3  0  0  0  0  0  0
  187.4670  177.2750  143.9580 O   0  0  0  0  0  1  0  0  0  0  0  0
  186.5470  178.1910  145.9740 C   0  0  0  0  0  2  0  0  0  0  0  0
  185.6920  178.8800  144.9250 C   0  0  0  0  0  1  0  0  0  0  0  0
  196.7650  174.5030  144.9440 C   0  0  0  0  0  2  0  0  0  0  0  0
  196.5650  173.2790  145.5840 O   0  0  0  0  0  0  0  0  0  0  0  0
  195.9070  172.4970  144.6350 C   0  0  0  0  0  2  0  0  0  0  0  0
  196.6730  171.2040  144.4130 C   0  0  2  0  0  3  0  0  0  0  0  0
  197.6090  171.0360  145.4370 O   0  0  0  0  0  0  0  0  0  0  0  0
  197.5090  169.6930  145.8060 C   0  0  0  0  0  2  0  0  0  0  0  0
  196.1100  169.3100  145.8600 N   0  0  0  0  0  2  0  0  0  0  0  0
  195.9910  168.3000  146.8990 C   0  0  0  0  0  2  0  0  0  0  0  0
  194.6570  168.4520  147.6040 C   0  0  0  0  0  1  0  0  0  0  0  0
  197.3880  171.2880  143.0740 C   0  0  0  0  0  2  0  0  0  0  0  0
  196.4960  171.9370  142.0300 C   0  0  0  0  0  2  0  0  0  0  0  0
  197.2950  172.3310  140.7900 C   0  0  0  0  0  2  0  0  0  0  0  0
  196.4550  172.2090  139.5150 C   0  0  2  0  0  3  0  0  0  0  0  0
  197.1340  171.2040  138.5890 C   0  0  0  0  0  1  0  0  0  0  0  0
  196.3260  173.5160  138.8540 N   0  0  0  0  0  0  0  0  0  0  0  0
  197.2270  173.5490  137.7030 C   0  0  0  0  0  2  0  0  0  0  0  0
  197.5450  175.0070  135.8580 O   0  0  0  0  0  1  0  0  0  0  0  0
  197.4260  174.9790  137.2440 C   0  0  0  0  0  2  0  0  0  0  0  0
  194.9850  173.6160  138.2890 C   0  0  0  0  0  2  0  0  0  0  0  0
  194.1650  174.6140  139.0830 C   0  0  0  0  0  2  0  0  0  0  0  0
  192.9110  173.9370  139.5890 C   0  0  0  0  0  1  0  0  0  0  0  0
  1  9  1  0  0  0  0
  1  4  1  0  0  0  0
  3 11  1  1  0  0  0
  4  8  2  0  0  0  0
  5  4  1  0  0  0  0
  5 10  2  0  0  0  0
  6  5  1  0  0  0  0
  7  3  1  0  0  0  0
  8  3  1  0  0  0  0
  8  2  1  0  0  0  0
  9  7  1  0  0  0  0
 10 29  1  0  0  0  0
 10  2  1  0  0  0  0
 11 12  1  0  0  0  0
 12 14  1  0  0  0  0
 12 13  1  1  0  0  0
 14 15  1  6  0  0  0
 16 15  1  0  0  0  0
 17 16  1  0  0  0  0
 17 18  2  0  0  0  0
 19 17  1  0  0  0  0
 20 23  1  0  0  0  0
 21 20  2  0  0  0  0
 22 20  1  0  0  0  0
 23 19  1  0  0  0  0
 24 14  1  0  0  0  0
 25 26  1  6  0  0  0
 25 24  1  0  0  0  0
 25 27  1  0  0  0  0
 28 27  1  0  0  0  0
 29 30  1  0  0  0  0
 31 30  1  0  0  0  0
 32 38  1  6  0  0  0
 32 31  1  0  0  0  0
 32 33  1  0  0  0  0
 33 34  1  0  0  0  0
 34 35  1  0  0  0  0
 35 36  1  0  0  0  0
 36 37  1  0  0  0  0
 39 38  1  0  0  0  0
 40 39  1  0  0  0  0
 41 42  1  6  0  0  0
 41 40  1  0  0  0  0
 43 41  1  0  0  0  0
 44 43  1  0  0  0  0
 45 46  1  0  0  0  0
 46 44  1  0  0  0  0
 47 43  1  0  0  0  0
 47 48  1  0  0  0  0
 48 49  1  0  0  0  0
M  END
>  <MODEL>
9

>  <REMARK>
 VINA RESULT:      -4.1      2.800      8.428
  Name = 
  28 active torsions:
  status: ('A' for Active; 'I' for Inactive)
    1  A    between atoms: O_1  and  C_19
    2  A    between atoms: O_1  and  C_27
    3  A    between atoms: C_3  and  C_5
    4  A    between atoms: C_3  and  N_39
    5  A    between atoms: C_4  and  O_34
    6  A    between atoms: C_4  and  C_47
    7  A    between atoms: C_5  and  C_18
    8  A    between atoms: C_6  and  C_33
    9  A    between atoms: C_6  and  C_44
   10  A    between atoms: C_8  and  N_24
   11  A    between atoms: C_9  and  C_33
   12  A    between atoms: C_12  and  C_21
   13  A    between atoms: C_17  and  C_19
   14  A    between atoms: C_17  and  O_36
   15  A    between atoms: C_18  and  C_37
   16  A    between atoms: C_19  and  C_37
   17  A    between atoms: C_21  and  N_39
   18  A    between atoms: C_22  and  C_25
   19  A    between atoms: C_22  and  N_43
   20  A    between atoms: C_23  and  O_36
   21  A    between atoms: C_23  and  C_42
   22  A    between atoms: N_24  and  C_27
   23  A    between atoms: C_25  and  O_46
   24  A    between atoms: C_32  and  C_40
   25  A    between atoms: O_34  and  C_44
   26  A    between atoms: N_39  and  C_40
   27  A    between atoms: C_44  and  C_49
   28  A    between atoms: O_46  and  C_49
                            x       y       z     vdW  Elec       q    Type
                         _______ _______ _______ _____ _____    ______ ____

>  <TORSDO>
F 28

$$$$
