=
 OpenBabel11062418573D

 33 36  0  0  1  0  0  0  0  0999 V2000
  188.5960  176.9580  146.1030 N   0  0  0  0  0  0  0  0  0  0  0  0
  184.9410  177.5810  144.0730 C   0  0  0  0  0  2  0  0  0  0  0  0
  188.3010  176.8560  141.5000 C   0  0  0  0  0  3  0  0  0  0  0  0
  194.1920  176.3720  143.8190 O   0  0  0  0  0  1  0  0  0  0  0  0
  187.3720  173.4210  142.2350 O   0  0  0  0  0  0  0  0  0  0  0  0
  190.7950  170.7440  140.2340 O   0  0  0  0  0  0  0  0  0  0  0  0
  191.1680  173.9900  143.6490 S   0  0  0  0  0  0  0  0  0  0  0  0
  192.1430  175.1620  144.3740 C   0  0  0  0  0  0  0  0  0  0  0  0
  187.5800  177.8940  145.8650 N   0  0  0  0  0  2  0  0  0  0  0  0
  193.1900  175.4590  143.5100 C   0  0  0  0  0  0  0  0  0  0  0  0
  191.8010  173.0110  141.1210 N   0  0  0  0  0  2  0  0  0  0  0  0
  190.5510  175.9790  146.0850 C   0  0  0  0  0  0  0  0  0  0  0  0
  186.5050  176.0280  142.8920 C   0  0  0  0  0  3  0  0  0  0  0  0
  192.0660  173.8800  142.2260 C   0  0  0  0  0  0  0  0  0  0  0  0
  189.8960  171.5920  142.3360 O   0  0  0  0  0  0  0  0  0  0  0  0
  194.1650  174.8960  141.2240 C   0  0  0  0  0  1  0  0  0  0  0  0
  186.1990  177.6470  146.2450 C   0  0  0  0  0  2  0  0  0  0  0  0
  189.8720  177.1230  145.7300 C   0  0  0  0  0  3  0  0  0  0  0  0
  186.8410  178.4120  142.6420 C   0  0  0  0  0  3  0  0  0  0  0  0
  187.9300  178.1690  141.8010 C   0  0  0  0  0  3  0  0  0  0  0  0
  185.2750  178.4100  145.3120 C   0  0  2  0  0  3  0  0  0  0  0  0
  193.1480  174.7470  142.3040 C   0  0  0  0  0  0  0  0  0  0  0  0
  188.8890  174.1550  140.6210 N   0  0  0  0  0  2  0  0  0  0  0  0
  189.6550  175.0890  146.6630 C   0  0  0  0  0  3  0  0  0  0  0  0
  189.1320  172.8320  140.0670 C   0  0  0  0  0  2  0  0  0  0  0  0
  191.9870  175.7060  145.7600 C   0  0  1  0  0  3  0  0  0  0  0  0
  186.1290  177.3410  143.1960 C   0  0  0  0  0  0  0  0  0  0  0  0
  187.9410  174.3930  141.6670 C   0  0  0  0  0  0  0  0  0  0  0  0
  190.4060  171.9890  140.9800 S   0  0  0  0  0  0  0  0  0  0  0  0
  192.5710  174.7880  146.7250 N   0  0  0  0  0  1  0  0  0  0  0  0
  187.5910  175.7750  142.0400 C   0  0  0  0  0  0  0  0  0  0  0  0
  183.9900  178.7330  146.0450 C   0  0  0  0  0  1  0  0  0  0  0  0
  188.4360  175.7440  146.6610 C   0  0  0  0  0  3  0  0  0  0  0  0
  1 33  1  0  0  0  0
  2 21  1  0  0  0  0
  3 20  2  0  0  0  0
  3 31  1  0  0  0  0
  6 29  2  0  0  0  0
  7  8  1  0  0  0  0
  8 26  1  0  0  0  0
  9  1  1  0  0  0  0
  9 17  1  0  0  0  0
 10  4  1  0  0  0  0
 10  8  2  0  0  0  0
 11 14  1  0  0  0  0
 12 24  1  0  0  0  0
 13 27  1  0  0  0  0
 14 22  2  0  0  0  0
 14  7  1  0  0  0  0
 16 22  1  0  0  0  0
 18 12  2  0  0  0  0
 18  1  1  0  0  0  0
 19 27  2  0  0  0  0
 20 19  1  0  0  0  0
 21 32  1  1  0  0  0
 21 17  1  0  0  0  0
 22 10  1  0  0  0  0
 23 28  1  0  0  0  0
 25 23  1  0  0  0  0
 25 29  1  0  0  0  0
 26 12  1  0  0  0  0
 26 30  1  1  0  0  0
 27  2  1  0  0  0  0
 28 31  1  0  0  0  0
 28  5  2  0  0  0  0
 29 11  1  0  0  0  0
 29 15  2  0  0  0  0
 31 13  2  0  0  0  0
 33 24  2  0  0  0  0
M  END
>  <MODEL>
1

>  <REMARK>
 VINA RESULT:      -9.7      0.000      0.000
  Name = 
  0 active torsions:
  status: ('A' for Active; 'I' for Inactive)
                            x       y       z     vdW  Elec       q    Type
                         _______ _______ _______ _____ _____    ______ ____

>  <TORSDO>
F 0

$$$$
=
 OpenBabel11062418573D

 33 36  0  0  1  0  0  0  0  0999 V2000
  186.9280  175.5240  142.3150 N   0  0  0  0  0  0  0  0  0  0  0  0
  186.3620  178.6510  145.1020 C   0  0  0  0  0  2  0  0  0  0  0  0
  189.4800  175.8880  146.1420 C   0  0  0  0  0  3  0  0  0  0  0  0
  190.5310  170.6520  142.7090 O   0  0  0  0  0  1  0  0  0  0  0  0
  191.3590  178.1010  143.9570 O   0  0  0  0  0  0  0  0  0  0  0  0
  195.6580  176.0510  143.5010 O   0  0  0  0  0  0  0  0  0  0  0  0
  191.4150  174.3760  142.2660 S   0  0  0  0  0  0  0  0  0  0  0  0
  190.4490  173.0070  142.0620 C   0  0  0  0  0  0  0  0  0  0  0  0
  186.0110  176.0860  143.2130 N   0  0  0  0  0  2  0  0  0  0  0  0
  191.0590  171.9380  142.7070 C   0  0  0  0  0  0  0  0  0  0  0  0
  193.7820  174.2150  143.7210 N   0  0  0  0  0  2  0  0  0  0  0  0
  188.3380  174.1210  141.4050 C   0  0  0  0  0  0  0  0  0  0  0  0
  188.7250  177.8490  144.9440 C   0  0  0  0  0  3  0  0  0  0  0  0
  192.5950  173.6130  143.1970 C   0  0  0  0  0  0  0  0  0  0  0  0
  193.5380  176.5130  142.3880 O   0  0  0  0  0  0  0  0  0  0  0  0
  193.0910  171.2940  144.1030 C   0  0  0  0  0  1  0  0  0  0  0  0
  185.5210  177.4460  143.0660 C   0  0  0  0  0  2  0  0  0  0  0  0
  187.4410  174.2920  142.4370 C   0  0  0  0  0  3  0  0  0  0  0  0
  187.1710  176.5940  146.3110 C   0  0  0  0  0  3  0  0  0  0  0  0
  188.1910  175.7020  146.6500 C   0  0  0  0  0  3  0  0  0  0  0  0
  185.1540  178.0000  144.4310 C   0  0  2  0  0  3  0  0  0  0  0  0
  192.2590  172.2740  143.3490 C   0  0  0  0  0  0  0  0  0  0  0  0
  192.2160  176.4360  145.3490 N   0  0  0  0  0  2  0  0  0  0  0  0
  188.3890  175.2910  140.6590 C   0  0  0  0  0  3  0  0  0  0  0  0
  193.6100  176.7470  145.0730 C   0  0  0  0  0  2  0  0  0  0  0  0
  189.2100  172.9170  141.2260 C   0  0  1  0  0  3  0  0  0  0  0  0
  187.4340  177.6670  145.4500 C   0  0  0  0  0  0  0  0  0  0  0  0
  191.1320  177.1980  144.8080 C   0  0  0  0  0  0  0  0  0  0  0  0
  194.1670  175.9030  143.6080 S   0  0  0  0  0  0  0  0  0  0  0  0
  189.5630  172.7360  139.8280 N   0  0  0  0  0  1  0  0  0  0  0  0
  189.7580  176.9640  145.2870 C   0  0  0  0  0  0  0  0  0  0  0  0
  184.0660  179.0410  144.2650 C   0  0  0  0  0  1  0  0  0  0  0  0
  187.4830  176.1470  141.2590 C   0  0  0  0  0  3  0  0  0  0  0  0
  1 18  1  0  0  0  0
  1  9  1  0  0  0  0
  2 27  1  0  0  0  0
  3 20  1  0  0  0  0
  5 28  2  0  0  0  0
  6 29  2  0  0  0  0
  7 14  1  0  0  0  0
  8  7  1  0  0  0  0
  8 10  2  0  0  0  0
 10  4  1  0  0  0  0
 10 22  1  0  0  0  0
 12 18  2  0  0  0  0
 13 31  1  0  0  0  0
 13 27  2  0  0  0  0
 14 22  2  0  0  0  0
 14 11  1  0  0  0  0
 15 29  2  0  0  0  0
 17  9  1  0  0  0  0
 17 21  1  0  0  0  0
 19 20  2  0  0  0  0
 21 32  1  6  0  0  0
 21  2  1  0  0  0  0
 22 16  1  0  0  0  0
 24 33  2  0  0  0  0
 24 12  1  0  0  0  0
 25 23  1  0  0  0  0
 26 30  1  6  0  0  0
 26 12  1  0  0  0  0
 26  8  1  0  0  0  0
 27 19  1  0  0  0  0
 28 31  1  0  0  0  0
 28 23  1  0  0  0  0
 29 11  1  0  0  0  0
 29 25  1  0  0  0  0
 31  3  2  0  0  0  0
 33  1  1  0  0  0  0
M  END
>  <MODEL>
2

>  <REMARK>
 VINA RESULT:      -9.6      1.958      4.939
  Name = 
  0 active torsions:
  status: ('A' for Active; 'I' for Inactive)
                            x       y       z     vdW  Elec       q    Type
                         _______ _______ _______ _____ _____    ______ ____

>  <TORSDO>
F 0

$$$$
=
 OpenBabel11062418573D

 33 36  0  0  1  0  0  0  0  0999 V2000
  191.8590  172.3560  143.1170 N   0  0  0  0  0  0  0  0  0  0  0  0
  195.1220  173.2980  145.6350 C   0  0  0  0  0  2  0  0  0  0  0  0
  192.6320  176.6480  144.6260 C   0  0  0  0  0  3  0  0  0  0  0  0
  187.8740  176.0880  140.4600 O   0  0  0  0  0  1  0  0  0  0  0  0
  190.7540  175.3490  147.4520 O   0  0  0  0  0  0  0  0  0  0  0  0
  186.7640  177.9840  147.6180 O   0  0  0  0  0  0  0  0  0  0  0  0
  188.3190  175.1500  144.1700 S   0  0  0  0  0  0  0  0  0  0  0  0
  188.3680  174.8530  142.5100 C   0  0  0  0  0  0  0  0  0  0  0  0
  193.2590  172.3800  143.1940 N   0  0  0  0  0  2  0  0  0  0  0  0
  187.9690  176.0060  141.8440 C   0  0  0  0  0  0  0  0  0  0  0  0
  187.5400  177.6460  145.1240 N   0  0  0  0  0  2  0  0  0  0  0  0
  189.8120  172.8420  142.5220 C   0  0  0  0  0  0  0  0  0  0  0  0
  193.1030  174.7240  146.0150 C   0  0  0  0  0  3  0  0  0  0  0  0
  187.8150  176.7540  144.0400 C   0  0  0  0  0  0  0  0  0  0  0  0
  187.6940  175.8040  147.0470 O   0  0  0  0  0  0  0  0  0  0  0  0
  187.2120  178.4110  142.2140 C   0  0  0  0  0  1  0  0  0  0  0  0
  193.9920  171.5960  144.1740 C   0  0  0  0  0  2  0  0  0  0  0  0
  191.1400  173.0960  142.2610 C   0  0  0  0  0  3  0  0  0  0  0  0
  194.5860  175.2880  144.1870 C   0  0  0  0  0  3  0  0  0  0  0  0
  193.7740  176.3800  143.8670 C   0  0  0  0  0  3  0  0  0  0  0  0
  195.3020  172.2930  144.4980 C   0  0  2  0  0  3  0  0  0  0  0  0
  187.6640  177.0740  142.6980 C   0  0  0  0  0  0  0  0  0  0  0  0
  190.4410  177.3940  146.3730 N   0  0  0  0  0  2  0  0  0  0  0  0
  189.7270  171.9480  143.5810 C   0  0  0  0  0  3  0  0  0  0  0  0
  189.4150  177.8650  147.2920 C   0  0  0  0  0  2  0  0  0  0  0  0
  188.6660  173.5390  141.8560 C   0  0  1  0  0  3  0  0  0  0  0  0
  194.2480  174.4520  145.2580 C   0  0  0  0  0  0  0  0  0  0  0  0
  191.1220  176.1480  146.5480 C   0  0  0  0  0  0  0  0  0  0  0  0
  187.8080  177.2810  146.7980 S   0  0  0  0  0  0  0  0  0  0  0  0
  187.4790  172.7000  141.8560 N   0  0  0  0  0  1  0  0  0  0  0  0
  192.2880  175.8240  145.7070 C   0  0  0  0  0  0  0  0  0  0  0  0
  196.3210  171.2560  144.9190 C   0  0  0  0  0  1  0  0  0  0  0  0
  191.0360  171.6620  143.9250 C   0  0  0  0  0  3  0  0  0  0  0  0
  1  9  1  0  0  0  0
  1 33  1  0  0  0  0
  3 31  1  0  0  0  0
  4 10  1  0  0  0  0
  8  7  1  0  0  0  0
  9 17  1  0  0  0  0
 10  8  2  0  0  0  0
 10 22  1  0  0  0  0
 11 29  1  0  0  0  0
 12 24  1  0  0  0  0
 14  7  1  0  0  0  0
 14 11  1  0  0  0  0
 16 22  1  0  0  0  0
 17 21  1  0  0  0  0
 18 12  2  0  0  0  0
 18  1  1  0  0  0  0
 19 27  2  0  0  0  0
 20 19  1  0  0  0  0
 20  3  2  0  0  0  0
 21 32  1  1  0  0  0
 21  2  1  0  0  0  0
 22 14  2  0  0  0  0
 23 28  1  0  0  0  0
 23 25  1  0  0  0  0
 24 33  2  0  0  0  0
 26 30  1  1  0  0  0
 26  8  1  0  0  0  0
 26 12  1  0  0  0  0
 27  2  1  0  0  0  0
 27 13  1  0  0  0  0
 28  5  2  0  0  0  0
 29 15  2  0  0  0  0
 29 25  1  0  0  0  0
 29  6  2  0  0  0  0
 31 13  2  0  0  0  0
 31 28  1  0  0  0  0
M  END
>  <MODEL>
3

>  <REMARK>
 VINA RESULT:      -8.3      3.027      7.618
  Name = 
  0 active torsions:
  status: ('A' for Active; 'I' for Inactive)
                            x       y       z     vdW  Elec       q    Type
                         _______ _______ _______ _____ _____    ______ ____

>  <TORSDO>
F 0

$$$$
=
 OpenBabel11062418573D

 33 36  0  0  1  0  0  0  0  0999 V2000
  189.6860  177.1920  145.0140 N   0  0  0  0  0  0  0  0  0  0  0  0
  185.5760  176.9290  144.0580 C   0  0  0  0  0  2  0  0  0  0  0  0
  188.2190  176.1410  140.7670 C   0  0  0  0  0  3  0  0  0  0  0  0
  194.5000  176.8800  141.3260 O   0  0  0  0  0  1  0  0  0  0  0  0
  188.1400  172.8310  142.2630 O   0  0  0  0  0  0  0  0  0  0  0  0
  191.3390  170.2670  139.7970 O   0  0  0  0  0  0  0  0  0  0  0  0
  192.0100  174.1470  142.4100 S   0  0  0  0  0  0  0  0  0  0  0  0
  192.9160  175.5540  142.6310 C   0  0  0  0  0  0  0  0  0  0  0  0
  188.4930  177.9240  144.9380 N   0  0  0  0  0  2  0  0  0  0  0  0
  193.6310  175.8040  141.4660 C   0  0  0  0  0  0  0  0  0  0  0  0
  192.1220  172.7740  139.9920 N   0  0  0  0  0  2  0  0  0  0  0  0
  191.7090  176.4850  144.5820 C   0  0  0  0  0  0  0  0  0  0  0  0
  187.0270  175.3840  142.7300 C   0  0  0  0  0  3  0  0  0  0  0  0
  192.5090  173.8720  140.8240 C   0  0  0  0  0  0  0  0  0  0  0  0
  190.8860  171.3940  141.9110 O   0  0  0  0  0  0  0  0  0  0  0  0
  194.0580  174.9280  139.1120 C   0  0  0  0  0  1  0  0  0  0  0  0
  187.3260  177.5840  145.7350 C   0  0  0  0  0  2  0  0  0  0  0  0
  190.7690  177.4400  144.2650 C   0  0  0  0  0  3  0  0  0  0  0  0
  186.8560  177.6940  142.0280 C   0  0  0  0  0  3  0  0  0  0  0  0
  187.7120  177.4290  140.9550 C   0  0  0  0  0  3  0  0  0  0  0  0
  186.0700  178.0230  145.0030 C   0  0  2  0  0  3  0  0  0  0  0  0
  193.4020  174.8680  140.4500 C   0  0  0  0  0  0  0  0  0  0  0  0
  189.0260  173.4160  140.1860 N   0  0  0  0  0  2  0  0  0  0  0  0
  191.1690  175.6210  145.5250 C   0  0  0  0  0  3  0  0  0  0  0  0
  189.3460  172.0510  139.7970 C   0  0  0  0  0  2  0  0  0  0  0  0
  193.0350  176.3370  143.9020 C   0  0  1  0  0  3  0  0  0  0  0  0
  186.5170  176.6720  142.9230 C   0  0  0  0  0  0  0  0  0  0  0  0
  188.3580  173.7340  141.4110 C   0  0  0  0  0  0  0  0  0  0  0  0
  190.9450  171.5750  140.4210 S   0  0  0  0  0  0  0  0  0  0  0  0
  194.0040  175.7110  144.7860 N   0  0  0  0  0  1  0  0  0  0  0  0
  187.8780  175.1070  141.6510 C   0  0  0  0  0  0  0  0  0  0  0  0
  184.9860  178.3190  146.0170 C   0  0  0  0  0  1  0  0  0  0  0  0
  189.8960  176.1020  145.7750 C   0  0  0  0  0  3  0  0  0  0  0  0
  1 33  1  0  0  0  0
  2 21  1  0  0  0  0
  3 20  2  0  0  0  0
  3 31  1  0  0  0  0
  4 10  1  0  0  0  0
  6 29  2  0  0  0  0
  7  8  1  0  0  0  0
  8 26  1  0  0  0  0
  9  1  1  0  0  0  0
  9 17  1  0  0  0  0
 10  8  2  0  0  0  0
 11 29  1  0  0  0  0
 11 14  1  0  0  0  0
 12 24  1  0  0  0  0
 13 27  1  0  0  0  0
 14  7  1  0  0  0  0
 16 22  1  0  0  0  0
 18 12  2  0  0  0  0
 18  1  1  0  0  0  0
 19 27  2  0  0  0  0
 20 19  1  0  0  0  0
 21 17  1  0  0  0  0
 21 32  1  1  0  0  0
 22 14  2  0  0  0  0
 22 10  1  0  0  0  0
 23 28  1  0  0  0  0
 24 33  2  0  0  0  0
 25 23  1  0  0  0  0
 25 29  1  0  0  0  0
 26 12  1  0  0  0  0
 26 30  1  1  0  0  0
 27  2  1  0  0  0  0
 28 31  1  0  0  0  0
 28  5  2  0  0  0  0
 29 15  2  0  0  0  0
 31 13  2  0  0  0  0
M  END
>  <MODEL>
4

>  <REMARK>
 VINA RESULT:      -7.9      1.259      1.495
  Name = 
  0 active torsions:
  status: ('A' for Active; 'I' for Inactive)
                            x       y       z     vdW  Elec       q    Type
                         _______ _______ _______ _____ _____    ______ ____

>  <TORSDO>
F 0

$$$$
=
 OpenBabel11062418573D

 33 36  0  0  1  0  0  0  0  0999 V2000
  189.6680  173.6540  144.2810 N   0  0  0  0  0  0  0  0  0  0  0  0
  189.3830  177.8110  144.9960 C   0  0  0  0  0  2  0  0  0  0  0  0
  193.2070  176.1030  145.9470 C   0  0  0  0  0  3  0  0  0  0  0  0
  194.1920  169.8380  145.6410 O   0  0  0  0  0  1  0  0  0  0  0  0
  193.6930  176.6900  142.3950 O   0  0  0  0  0  0  0  0  0  0  0  0
  197.9320  174.7230  141.3720 O   0  0  0  0  0  0  0  0  0  0  0  0
  194.0140  172.6610  143.0230 S   0  0  0  0  0  0  0  0  0  0  0  0
  193.3700  171.4190  143.9680 C   0  0  0  0  0  0  0  0  0  0  0  0
  189.0050  174.6290  145.0400 N   0  0  0  0  0  2  0  0  0  0  0  0
  194.3850  170.8970  144.7610 C   0  0  0  0  0  0  0  0  0  0  0  0
  196.7040  173.3380  143.2460 N   0  0  0  0  0  2  0  0  0  0  0  0
  190.9680  171.9770  143.7500 C   0  0  0  0  0  0  0  0  0  0  0  0
  191.6730  177.0500  144.3350 C   0  0  0  0  0  3  0  0  0  0  0  0
  195.5780  172.5500  143.6420 C   0  0  0  0  0  0  0  0  0  0  0  0
  195.5150  174.4850  141.1510 O   0  0  0  0  0  0  0  0  0  0  0  0
  196.8580  171.1450  145.3250 C   0  0  0  0  0  1  0  0  0  0  0  0
  188.2010  175.6710  144.4230 C   0  0  0  0  0  2  0  0  0  0  0  0
  190.4560  172.7030  144.8030 C   0  0  0  0  0  3  0  0  0  0  0  0
  190.9920  176.7910  146.6440 C   0  0  0  0  0  3  0  0  0  0  0  0
  192.2410  176.2410  146.9480 C   0  0  0  0  0  3  0  0  0  0  0  0
  188.2000  176.9000  145.3160 C   0  0  2  0  0  3  0  0  0  0  0  0
  195.6220  171.5320  144.5860 C   0  0  0  0  0  0  0  0  0  0  0  0
  195.3190  176.0970  143.9600 N   0  0  0  0  0  2  0  0  0  0  0  0
  190.5000  172.5220  142.5620 C   0  0  0  0  0  3  0  0  0  0  0  0
  196.4310  176.1920  143.0270 C   0  0  0  0  0  2  0  0  0  0  0  0
  191.9760  170.8780  143.8860 C   0  0  1  0  0  3  0  0  0  0  0  0
  190.7030  177.1910  145.3340 C   0  0  0  0  0  0  0  0  0  0  0  0
  193.9740  176.4260  143.5960 C   0  0  0  0  0  0  0  0  0  0  0  0
  196.6380  174.6670  142.1330 S   0  0  0  0  0  0  0  0  0  0  0  0
  191.8690  169.9390  142.7810 N   0  0  0  0  0  1  0  0  0  0  0  0
  192.9310  176.5080  144.6340 C   0  0  0  0  0  0  0  0  0  0  0  0
  186.9160  177.6710  145.0920 C   0  0  0  0  0  1  0  0  0  0  0  0
  189.6810  173.5720  142.9380 C   0  0  0  0  0  3  0  0  0  0  0  0
  1 18  1  0  0  0  0
  1  9  1  0  0  0  0
  2 21  1  0  0  0  0
  2 27  1  0  0  0  0
  3 20  1  0  0  0  0
  5 28  2  0  0  0  0
  6 29  2  0  0  0  0
  7 14  1  0  0  0  0
  7  8  1  0  0  0  0
  8 10  2  0  0  0  0
 10  4  1  0  0  0  0
 11 14  1  0  0  0  0
 12 26  1  0  0  0  0
 12 18  2  0  0  0  0
 13 31  1  0  0  0  0
 13 27  2  0  0  0  0
 14 22  2  0  0  0  0
 15 29  2  0  0  0  0
 17  9  1  0  0  0  0
 17 21  1  0  0  0  0
 19 20  2  0  0  0  0
 21 32  1  6  0  0  0
 22 10  1  0  0  0  0
 22 16  1  0  0  0  0
 24 33  2  0  0  0  0
 24 12  1  0  0  0  0
 25 23  1  0  0  0  0
 26 30  1  6  0  0  0
 26  8  1  0  0  0  0
 27 19  1  0  0  0  0
 28 23  1  0  0  0  0
 28 31  1  0  0  0  0
 29 25  1  0  0  0  0
 29 11  1  0  0  0  0
 31  3  2  0  0  0  0
 33  1  1  0  0  0  0
M  END
>  <MODEL>
5

>  <REMARK>
 VINA RESULT:      -7.7      3.325      5.605
  Name = 
  0 active torsions:
  status: ('A' for Active; 'I' for Inactive)
                            x       y       z     vdW  Elec       q    Type
                         _______ _______ _______ _____ _____    ______ ____

>  <TORSDO>
F 0

$$$$
=
 OpenBabel11062418573D

 33 36  0  0  1  0  0  0  0  0999 V2000
  190.5200  176.9870  145.9920 N   0  0  0  0  0  0  0  0  0  0  0  0
  186.4690  176.6890  144.8200 C   0  0  0  0  0  2  0  0  0  0  0  0
  189.2870  175.6550  141.7490 C   0  0  0  0  0  3  0  0  0  0  0  0
  195.5340  176.3850  142.6190 O   0  0  0  0  0  1  0  0  0  0  0  0
  189.0840  172.4570  143.4630 O   0  0  0  0  0  0  0  0  0  0  0  0
  192.3900  169.7050  141.3680 O   0  0  0  0  0  0  0  0  0  0  0  0
  192.9550  173.7520  143.7430 S   0  0  0  0  0  0  0  0  0  0  0  0
  193.8630  175.1640  143.9190 C   0  0  0  0  0  0  0  0  0  0  0  0
  189.3420  177.7210  145.7970 N   0  0  0  0  0  2  0  0  0  0  0  0
  194.6460  175.3270  142.7820 C   0  0  0  0  0  0  0  0  0  0  0  0
  193.1900  172.2140  141.4350 N   0  0  0  0  0  2  0  0  0  0  0  0
  192.5570  176.2370  145.7280 C   0  0  0  0  0  0  0  0  0  0  0  0
  187.9760  175.0450  143.6880 C   0  0  0  0  0  3  0  0  0  0  0  0
  193.5410  173.3640  142.2110 C   0  0  0  0  0  0  0  0  0  0  0  0
  191.8300  170.9800  143.3700 O   0  0  0  0  0  0  0  0  0  0  0  0
  195.1970  174.2870  140.5230 C   0  0  0  0  0  1  0  0  0  0  0  0
  188.1280  177.4460  146.5470 C   0  0  0  0  0  2  0  0  0  0  0  0
  191.6470  177.1750  145.2920 C   0  0  0  0  0  3  0  0  0  0  0  0
  187.8720  177.3020  142.8200 C   0  0  0  0  0  3  0  0  0  0  0  0
  188.7850  176.9570  141.8190 C   0  0  0  0  0  3  0  0  0  0  0  0
  186.9210  177.8420  145.7140 C   0  0  2  0  0  3  0  0  0  0  0  0
  194.4650  174.3250  141.8210 C   0  0  0  0  0  0  0  0  0  0  0  0
  190.0950  172.8910  141.4050 N   0  0  0  0  0  2  0  0  0  0  0  0
  191.9530  175.4440  146.6950 C   0  0  0  0  0  3  0  0  0  0  0  0
  190.4220  171.5000  141.1300 C   0  0  0  0  0  2  0  0  0  0  0  0
  193.9180  176.0330  145.1370 C   0  0  1  0  0  3  0  0  0  0  0  0
  187.4700  176.3470  143.7620 C   0  0  0  0  0  0  0  0  0  0  0  0
  189.3610  173.2980  142.5650 C   0  0  0  0  0  0  0  0  0  0  0  0
  191.9760  171.0560  141.8770 S   0  0  0  0  0  0  0  0  0  0  0  0
  194.8280  175.4620  146.1170 N   0  0  0  0  0  1  0  0  0  0  0  0
  188.8850  174.6880  142.6810 C   0  0  0  0  0  0  0  0  0  0  0  0
  185.7840  178.2160  146.6420 C   0  0  0  0  0  1  0  0  0  0  0  0
  190.6740  175.9510  146.8370 C   0  0  0  0  0  3  0  0  0  0  0  0
  1 33  1  0  0  0  0
  2 21  1  0  0  0  0
  3 20  2  0  0  0  0
  3 31  1  0  0  0  0
  4 10  1  0  0  0  0
  6 29  2  0  0  0  0
  7  8  1  0  0  0  0
  8 26  1  0  0  0  0
  9  1  1  0  0  0  0
  9 17  1  0  0  0  0
 10  8  2  0  0  0  0
 11 29  1  0  0  0  0
 11 14  1  0  0  0  0
 12 24  1  0  0  0  0
 13 27  1  0  0  0  0
 14  7  1  0  0  0  0
 16 22  1  0  0  0  0
 18 12  2  0  0  0  0
 18  1  1  0  0  0  0
 19 27  2  0  0  0  0
 20 19  1  0  0  0  0
 21 17  1  0  0  0  0
 21 32  1  1  0  0  0
 22 14  2  0  0  0  0
 22 10  1  0  0  0  0
 23 28  1  0  0  0  0
 24 33  2  0  0  0  0
 25 23  1  0  0  0  0
 25 29  1  0  0  0  0
 26 12  1  0  0  0  0
 26 30  1  1  0  0  0
 27  2  1  0  0  0  0
 28 31  1  0  0  0  0
 28  5  2  0  0  0  0
 29 15  2  0  0  0  0
 31 13  2  0  0  0  0
M  END
>  <MODEL>
6

>  <REMARK>
 VINA RESULT:      -7.5      1.630      1.908
  Name = 
  0 active torsions:
  status: ('A' for Active; 'I' for Inactive)
                            x       y       z     vdW  Elec       q    Type
                         _______ _______ _______ _____ _____    ______ ____

>  <TORSDO>
F 0

$$$$
=
 OpenBabel11062418573D

 33 36  0  0  1  0  0  0  0  0999 V2000
  193.3080  173.6430  142.6440 N   0  0  0  0  0  0  0  0  0  0  0  0
  191.2950  170.9890  140.0420 C   0  0  0  0  0  2  0  0  0  0  0  0
  188.7860  172.8060  143.0160 C   0  0  0  0  0  3  0  0  0  0  0  0
  191.2160  176.4750  147.5910 O   0  0  0  0  0  1  0  0  0  0  0  0
  188.7040  175.4240  140.4980 O   0  0  0  0  0  0  0  0  0  0  0  0
  186.3260  179.0420  142.5350 O   0  0  0  0  0  0  0  0  0  0  0  0
  190.3840  177.0210  143.8690 S   0  0  0  0  0  0  0  0  0  0  0  0
  191.3940  176.6120  145.1580 C   0  0  0  0  0  0  0  0  0  0  0  0
  193.2330  172.3070  142.2270 N   0  0  0  0  0  2  0  0  0  0  0  0
  190.6670  176.7190  146.3370 C   0  0  0  0  0  0  0  0  0  0  0  0
  187.7360  177.7370  144.3370 N   0  0  0  0  0  2  0  0  0  0  0  0
  193.1670  175.4300  143.8970 C   0  0  0  0  0  0  0  0  0  0  0  0
  189.8760  172.8800  140.8580 C   0  0  0  0  0  3  0  0  0  0  0  0
  189.0160  177.3090  144.8100 C   0  0  0  0  0  0  0  0  0  0  0  0
  188.5190  178.2360  141.8350 O   0  0  0  0  0  0  0  0  0  0  0  0
  188.3620  177.2870  147.2630 C   0  0  0  0  0  1  0  0  0  0  0  0
  193.4850  171.9130  140.8500 C   0  0  0  0  0  2  0  0  0  0  0  0
  193.0400  174.0580  143.8890 C   0  0  0  0  0  3  0  0  0  0  0  0
  190.1720  170.9560  142.2970 C   0  0  0  0  0  3  0  0  0  0  0  0
  189.3500  171.5500  143.2580 C   0  0  0  0  0  3  0  0  0  0  0  0
  192.7000  170.6510  140.5370 C   0  0  2  0  0  3  0  0  0  0  0  0
  189.3330  177.1040  146.1470 C   0  0  0  0  0  0  0  0  0  0  0  0
  187.3640  175.2570  142.4010 N   0  0  0  0  0  2  0  0  0  0  0  0
  193.4920  175.8560  142.6160 C   0  0  0  0  0  3  0  0  0  0  0  0
  186.5440  176.4160  142.0780 C   0  0  0  0  0  2  0  0  0  0  0  0
  192.8570  176.3060  145.0710 C   0  0  1  0  0  3  0  0  0  0  0  0
  190.4430  171.6230  141.0960 C   0  0  0  0  0  0  0  0  0  0  0  0
  188.3900  174.7700  141.5300 C   0  0  0  0  0  0  0  0  0  0  0  0
  187.3080  177.9130  142.6650 S   0  0  0  0  0  0  0  0  0  0  0  0
  193.6230  177.5410  145.0120 N   0  0  0  0  0  1  0  0  0  0  0  0
  189.0420  173.4790  141.8130 C   0  0  0  0  0  0  0  0  0  0  0  0
  193.4250  169.8750  139.4580 C   0  0  0  0  0  1  0  0  0  0  0  0
  193.5770  174.7020  141.8570 C   0  0  0  0  0  3  0  0  0  0  0  0
  1 18  1  0  0  0  0
  2 21  1  0  0  0  0
  2 27  1  0  0  0  0
  3 20  1  0  0  0  0
  5 28  2  0  0  0  0
  6 29  2  0  0  0  0
  7 14  1  0  0  0  0
  7  8  1  0  0  0  0
  8 10  2  0  0  0  0
  9  1  1  0  0  0  0
 10  4  1  0  0  0  0
 11 14  1  0  0  0  0
 12 26  1  0  0  0  0
 13 27  2  0  0  0  0
 13 31  1  0  0  0  0
 14 22  2  0  0  0  0
 15 29  2  0  0  0  0
 17  9  1  0  0  0  0
 18 12  2  0  0  0  0
 19 20  2  0  0  0  0
 21 32  1  6  0  0  0
 21 17  1  0  0  0  0
 22 10  1  0  0  0  0
 22 16  1  0  0  0  0
 24 12  1  0  0  0  0
 25 23  1  0  0  0  0
 25 29  1  0  0  0  0
 26 30  1  6  0  0  0
 26  8  1  0  0  0  0
 27 19  1  0  0  0  0
 28 31  1  0  0  0  0
 28 23  1  0  0  0  0
 29 11  1  0  0  0  0
 31  3  2  0  0  0  0
 33 24  2  0  0  0  0
 33  1  1  0  0  0  0
M  END
>  <MODEL>
7

>  <REMARK>
 VINA RESULT:      -7.2      2.820      6.754
  Name = 
  0 active torsions:
  status: ('A' for Active; 'I' for Inactive)
                            x       y       z     vdW  Elec       q    Type
                         _______ _______ _______ _____ _____    ______ ____

>  <TORSDO>
F 0

$$$$
=
 OpenBabel11062418573D

 33 36  0  0  1  0  0  0  0  0999 V2000
  191.3810  173.6360  143.1120 N   0  0  0  0  0  0  0  0  0  0  0  0
  193.6190  175.4200  146.2230 C   0  0  0  0  0  2  0  0  0  0  0  0
  190.7110  178.0110  144.4160 C   0  0  0  0  0  3  0  0  0  0  0  0
  187.3690  176.1870  139.3350 O   0  0  0  0  0  1  0  0  0  0  0  0
  188.5810  176.3330  146.8340 O   0  0  0  0  0  0  0  0  0  0  0  0
  184.1530  177.8760  145.8820 O   0  0  0  0  0  0  0  0  0  0  0  0
  187.1250  175.4630  143.1120 S   0  0  0  0  0  0  0  0  0  0  0  0
  187.6410  175.1560  141.5340 C   0  0  0  0  0  0  0  0  0  0  0  0
  192.6730  174.0150  143.5030 N   0  0  0  0  0  2  0  0  0  0  0  0
  187.1460  176.1580  140.7070 C   0  0  0  0  0  0  0  0  0  0  0  0
  185.5630  177.6990  143.6640 N   0  0  0  0  0  2  0  0  0  0  0  0
  189.4810  173.5760  142.0320 C   0  0  0  0  0  0  0  0  0  0  0  0
  191.2850  176.2960  146.0220 C   0  0  0  0  0  3  0  0  0  0  0  0
  186.2960  176.8840  142.7450 C   0  0  0  0  0  0  0  0  0  0  0  0
  185.6910  175.9920  145.7110 O   0  0  0  0  0  0  0  0  0  0  0  0
  185.7660  178.2990  140.7050 C   0  0  0  0  0  1  0  0  0  0  0  0
  193.3170  173.4610  144.6820 C   0  0  0  0  0  2  0  0  0  0  0  0
  190.7320  174.1530  142.0600 C   0  0  0  0  0  3  0  0  0  0  0  0
  192.9820  177.1820  144.5400 C   0  0  0  0  0  3  0  0  0  0  0  0
  192.0320  178.0270  143.9590 C   0  0  0  0  0  3  0  0  0  0  0  0
  194.3030  174.4720  145.2400 C   0  0  2  0  0  3  0  0  0  0  0  0
  186.3980  177.1300  141.3820 C   0  0  0  0  0  0  0  0  0  0  0  0
  188.0520  178.2120  145.5560 N   0  0  0  0  0  2  0  0  0  0  0  0
  189.3630  172.7110  143.1110 C   0  0  0  0  0  3  0  0  0  0  0  0
  186.7540  178.4260  146.1780 C   0  0  0  0  0  2  0  0  0  0  0  0
  188.3950  173.9480  141.0700 C   0  0  1  0  0  3  0  0  0  0  0  0
  192.6090  176.3080  145.5680 C   0  0  0  0  0  0  0  0  0  0  0  0
  188.9520  177.1820  145.9780 C   0  0  0  0  0  0  0  0  0  0  0  0
  185.5010  177.4450  145.3790 S   0  0  0  0  0  0  0  0  0  0  0  0
  187.4810  172.8360  140.8660 N   0  0  0  0  0  1  0  0  0  0  0  0
  190.3280  177.1480  145.4520 C   0  0  0  0  0  0  0  0  0  0  0  0
  195.4110  173.7340  145.9610 C   0  0  0  0  0  1  0  0  0  0  0  0
  190.5810  172.7720  143.7640 C   0  0  0  0  0  3  0  0  0  0  0  0
  1  9  1  0  0  0  0
  1 33  1  0  0  0  0
  3 31  1  0  0  0  0
  4 10  1  0  0  0  0
  8  7  1  0  0  0  0
  9 17  1  0  0  0  0
 10 22  1  0  0  0  0
 10  8  2  0  0  0  0
 11 29  1  0  0  0  0
 12 18  2  0  0  0  0
 12 24  1  0  0  0  0
 14  7  1  0  0  0  0
 14 11  1  0  0  0  0
 16 22  1  0  0  0  0
 17 21  1  0  0  0  0
 18  1  1  0  0  0  0
 19 27  2  0  0  0  0
 20  3  2  0  0  0  0
 20 19  1  0  0  0  0
 21 32  1  1  0  0  0
 21  2  1  0  0  0  0
 22 14  2  0  0  0  0
 23 28  1  0  0  0  0
 23 25  1  0  0  0  0
 24 33  2  0  0  0  0
 26 30  1  1  0  0  0
 26  8  1  0  0  0  0
 26 12  1  0  0  0  0
 27 13  1  0  0  0  0
 27  2  1  0  0  0  0
 28  5  2  0  0  0  0
 29 15  2  0  0  0  0
 29  6  2  0  0  0  0
 29 25  1  0  0  0  0
 31 28  1  0  0  0  0
 31 13  2  0  0  0  0
M  END
>  <MODEL>
8

>  <REMARK>
 VINA RESULT:      -7.2      2.906      7.133
  Name = 
  0 active torsions:
  status: ('A' for Active; 'I' for Inactive)
                            x       y       z     vdW  Elec       q    Type
                         _______ _______ _______ _____ _____    ______ ____

>  <TORSDO>
F 0

$$$$
=
 OpenBabel11062418573D

 33 36  0  0  1  0  0  0  0  0999 V2000
  190.7810  176.8220  144.3260 N   0  0  0  0  0  0  0  0  0  0  0  0
  187.6500  174.4840  142.7130 C   0  0  0  0  0  2  0  0  0  0  0  0
  191.5820  173.2890  141.4670 C   0  0  0  0  0  3  0  0  0  0  0  0
  196.7180  176.6670  143.0570 O   0  0  0  0  0  1  0  0  0  0  0  0
  191.3870  171.4810  144.6130 O   0  0  0  0  0  0  0  0  0  0  0  0
  195.7300  169.5680  145.2260 O   0  0  0  0  0  0  0  0  0  0  0  0
  194.4980  174.1200  144.9110 S   0  0  0  0  0  0  0  0  0  0  0  0
  194.9600  175.6720  144.4330 C   0  0  0  0  0  0  0  0  0  0  0  0
  189.6480  176.8620  143.5030 N   0  0  0  0  0  2  0  0  0  0  0  0
  196.0710  175.5640  143.6040 C   0  0  0  0  0  0  0  0  0  0  0  0
  195.9140  171.8990  144.0120 N   0  0  0  0  0  2  0  0  0  0  0  0
  192.8690  176.8790  144.9770 C   0  0  0  0  0  0  0  0  0  0  0  0
  189.7770  173.2190  143.0760 C   0  0  0  0  0  3  0  0  0  0  0  0
  195.6960  173.3120  144.0420 C   0  0  0  0  0  0  0  0  0  0  0  0
  194.1930  171.3120  145.9650 O   0  0  0  0  0  0  0  0  0  0  0  0
  197.6510  173.8810  142.5260 C   0  0  0  0  0  1  0  0  0  0  0  0
  188.3220  176.5340  143.9980 C   0  0  0  0  0  2  0  0  0  0  0  0
  192.0280  177.0710  143.9020 C   0  0  0  0  0  3  0  0  0  0  0  0
  189.5610  174.5620  141.0740 C   0  0  0  0  0  3  0  0  0  0  0  0
  190.8390  174.1650  140.6710 C   0  0  0  0  0  3  0  0  0  0  0  0
  187.4770  175.9950  142.8570 C   0  0  2  0  0  3  0  0  0  0  0  0
  196.4830  174.2450  143.3780 C   0  0  0  0  0  0  0  0  0  0  0  0
  193.0030  171.2390  142.9470 N   0  0  0  0  0  2  0  0  0  0  0  0
  192.1130  176.4760  146.0690 C   0  0  0  0  0  3  0  0  0  0  0  0
  193.6860  170.1290  143.5950 C   0  0  0  0  0  2  0  0  0  0  0  0
  194.3630  176.9580  144.9120 C   0  0  1  0  0  3  0  0  0  0  0  0
  189.0290  174.0950  142.2820 C   0  0  0  0  0  0  0  0  0  0  0  0
  191.8130  171.8300  143.4780 C   0  0  0  0  0  0  0  0  0  0  0  0
  194.8860  170.7240  144.7680 S   0  0  0  0  0  0  0  0  0  0  0  0
  194.9180  177.3150  146.2070 N   0  0  0  0  0  1  0  0  0  0  0  0
  191.0560  172.8070  142.6740 C   0  0  0  0  0  0  0  0  0  0  0  0
  186.0200  176.2950  143.1380 C   0  0  0  0  0  1  0  0  0  0  0  0
  190.8040  176.4560  145.6210 C   0  0  0  0  0  3  0  0  0  0  0  0
  1 33  1  0  0  0  0
  2 21  1  0  0  0  0
  3 31  1  0  0  0  0
  4 10  1  0  0  0  0
  8  7  1  0  0  0  0
  8 26  1  0  0  0  0
  9 17  1  0  0  0  0
  9  1  1  0  0  0  0
 10  8  2  0  0  0  0
 11 14  1  0  0  0  0
 11 29  1  0  0  0  0
 12 24  1  0  0  0  0
 14  7  1  0  0  0  0
 16 22  1  0  0  0  0
 18  1  1  0  0  0  0
 18 12  2  0  0  0  0
 19 27  2  0  0  0  0
 20 19  1  0  0  0  0
 20  3  2  0  0  0  0
 21 32  1  1  0  0  0
 21 17  1  0  0  0  0
 22 10  1  0  0  0  0
 22 14  2  0  0  0  0
 23 28  1  0  0  0  0
 23 25  1  0  0  0  0
 25 29  1  0  0  0  0
 26 12  1  0  0  0  0
 26 30  1  1  0  0  0
 27  2  1  0  0  0  0
 27 13  1  0  0  0  0
 28  5  2  0  0  0  0
 29  6  2  0  0  0  0
 29 15  2  0  0  0  0
 31 13  2  0  0  0  0
 31 28  1  0  0  0  0
 33 24  2  0  0  0  0
M  END
>  <MODEL>
9

>  <REMARK>
 VINA RESULT:      -7.0      3.037      4.318
  Name = 
  0 active torsions:
  status: ('A' for Active; 'I' for Inactive)
                            x       y       z     vdW  Elec       q    Type
                         _______ _______ _______ _____ _____    ______ ____

>  <TORSDO>
F 0

$$$$
