=
 OpenBabel11062420563D

 31 35  0  0  1  0  0  0  0  0999 V2000
  187.6590  177.3550  144.8280 C   0  0  1  0  0  3  0  0  0  0  0  0
  187.1920  176.4310  143.6980 C   0  0  2  0  0  3  0  0  0  0  0  0
  186.4340  177.7770  146.6260 C   0  0  0  0  0  0  0  0  0  0  0  0
  190.2650  175.7610  145.3220 O   0  0  0  0  0  0  0  0  0  0  0  0
  188.7710  174.7440  143.2080 O   0  0  0  0  0  0  0  0  0  0  0  0
  188.3040  174.9880  140.6450 C   0  0  0  0  0  0  0  0  0  0  0  0
  189.1250  172.0830  138.6480 C   0  0  0  0  0  3  0  0  0  0  0  0
  191.1580  172.4410  142.9690 O   0  0  0  0  0  0  0  0  0  0  0  0
  191.2760  175.4920  142.9170 O   0  0  0  0  0  0  0  0  0  0  0  0
  190.3190  174.8390  143.8900 P   0  0  1  0  0  0  0  0  0  0  0  0
  190.6730  170.8020  140.6030 C   0  0  0  0  0  3  0  0  0  0  0  0
  188.4110  176.0550  142.8870 C   0  0  1  0  0  3  0  0  0  0  0  0
  190.8570  173.1100  144.1740 C   0  0  0  0  0  2  0  0  0  0  0  0
  185.1880  177.5140  142.9780 O   0  0  0  0  0  0  0  0  0  0  0  0
  189.0880  175.3880  145.9800 C   0  0  2  0  0  3  0  0  0  0  0  0
  189.7950  170.8940  138.3440 C   0  0  0  0  0  3  0  0  0  0  0  0
  186.5580  178.1260  145.3900 N   0  0  0  0  0  0  0  0  0  0  0  0
  188.0930  176.5330  146.0160 C   0  0  0  0  0  0  0  0  0  0  0  0
  186.6690  176.7710  141.2790 C   0  0  0  0  0  2  0  0  0  0  0  0
  188.6470  173.9110  140.2280 C   0  0  0  0  0  0  0  0  0  0  0  0
  190.0540  172.5240  142.2060 O   0  0  0  0  0  0  0  0  0  0  0  0
  189.2160  172.6250  139.9320 C   0  0  0  0  0  0  0  0  0  0  0  0
  189.9870  171.9810  140.9200 C   0  0  0  0  0  0  0  0  0  0  0  0
  186.2570  177.0000  142.6870 C   0  0  0  0  0  0  0  0  0  0  0  0
  188.0870  176.2380  141.3880 C   0  0  2  0  0  3  0  0  0  0  0  0
  190.5730  170.2580  139.3180 C   0  0  0  0  0  3  0  0  0  0  0  0
  187.3560  176.7850  147.0470 N   0  0  0  0  0  0  0  0  0  0  0  0
  184.1860  178.4230  146.8990 O   0  0  0  0  0  1  0  0  0  0  0  0
  185.4270  178.3860  147.5350 C   0  0  0  0  0  2  0  0  0  0  0  0
  189.4380  174.8670  147.3690 C   0  0  0  0  0  2  0  0  0  0  0  0
  190.8180  175.3500  147.7770 C   0  0  0  0  0  1  0  0  0  0  0  0
  1 17  1  1  0  0  0
  1 18  1  0  0  0  0
  2 24  1  6  0  0  0
  2  1  1  0  0  0  0
  3 27  1  0  0  0  0
  3 29  1  0  0  0  0
  4 15  1  0  0  0  0
  5 10  1  0  0  0  0
  7 22  1  0  0  0  0
  8 13  1  0  0  0  0
 10  9  2  6  0  0  0
 10 13  1  0  0  0  0
 10  4  1  0  0  0  0
 11 23  1  0  0  0  0
 12  5  1  6  0  0  0
 12  2  1  0  0  0  0
 15 18  1  0  0  0  0
 15 30  1  1  0  0  0
 16  7  2  0  0  0  0
 16 26  1  0  0  0  0
 17  3  2  0  0  0  0
 18 27  2  0  0  0  0
 19 25  1  0  0  0  0
 19 24  1  0  0  0  0
 20  6  3  0  0  0  0
 21  8  1  0  0  0  0
 22 20  1  0  0  0  0
 22 23  2  0  0  0  0
 23 21  1  0  0  0  0
 24 14  2  0  0  0  0
 25  6  1  6  0  0  0
 25 12  1  0  0  0  0
 26 11  2  0  0  0  0
 28 29  1  0  0  0  0
 30 31  1  0  0  0  0
M  END
>  <MODEL>
1

>  <REMARK>
 VINA RESULT:      -8.4      0.000      0.000
  Name = 
  2 active torsions:
  status: ('A' for Active; 'I' for Inactive)
    1  A    between atoms: C_3  and  C_30
    2  A    between atoms: C_15  and  C_17
                            x       y       z     vdW  Elec       q    Type
                         _______ _______ _______ _____ _____    ______ ____

>  <TORSDO>
F 2

$$$$
=
 OpenBabel11062420563D

 31 35  0  0  1  0  0  0  0  0999 V2000
  192.1920  174.2380  143.2280 C   0  0  1  0  0  3  0  0  0  0  0  0
  191.4680  174.5490  144.5420 C   0  0  2  0  0  3  0  0  0  0  0  0
  193.0680  172.2550  142.7730 C   0  0  0  0  0  0  0  0  0  0  0  0
  189.7850  175.0770  141.4720 O   0  0  0  0  0  0  0  0  0  0  0  0
  189.3170  175.4580  144.1880 O   0  0  0  0  0  0  0  0  0  0  0  0
  189.6480  177.1320  146.1710 C   0  0  0  0  0  0  0  0  0  0  0  0
  186.5920  178.3760  147.6610 C   0  0  0  0  0  3  0  0  0  0  0  0
  186.3070  176.5230  143.2550 O   0  0  0  0  0  0  0  0  0  0  0  0
  189.1120  177.4180  142.4460 O   0  0  0  0  0  0  0  0  0  0  0  0
  188.8690  175.9360  142.6250 P   0  0  1  0  0  0  0  0  0  0  0  0
  184.8910  177.5560  145.5890 C   0  0  0  0  0  3  0  0  0  0  0  0
  190.6610  175.8100  144.3270 C   0  0  1  0  0  3  0  0  0  0  0  0
  187.0700  175.6140  142.4900 C   0  0  0  0  0  2  0  0  0  0  0  0
  193.1770  174.1210  146.1540 O   0  0  0  0  0  0  0  0  0  0  0  0
  189.8730  173.7640  141.9470 C   0  0  2  0  0  3  0  0  0  0  0  0
  185.2350  178.7110  147.6930 C   0  0  0  0  0  3  0  0  0  0  0  0
  193.3190  173.3370  143.4280 N   0  0  0  0  0  0  0  0  0  0  0  0
  191.2990  173.4160  142.3330 C   0  0  0  0  0  0  0  0  0  0  0  0
  191.9120  176.1070  146.4440 C   0  0  0  0  0  2  0  0  0  0  0  0
  188.5090  177.3770  146.4800 C   0  0  0  0  0  0  0  0  0  0  0  0
  186.7610  176.4250  144.5170 O   0  0  0  0  0  0  0  0  0  0  0  0
  187.0970  177.6190  146.6020 C   0  0  0  0  0  0  0  0  0  0  0  0
  186.2450  177.1990  145.5610 C   0  0  0  0  0  0  0  0  0  0  0  0
  192.3090  174.8660  145.7310 C   0  0  0  0  0  0  0  0  0  0  0  0
  190.9100  176.7680  145.5130 C   0  0  2  0  0  3  0  0  0  0  0  0
  184.3870  178.3060  146.6560 C   0  0  0  0  0  3  0  0  0  0  0  0
  191.8240  172.2580  142.0940 N   0  0  0  0  0  0  0  0  0  0  0  0
  194.6770  170.9910  143.9390 O   0  0  0  0  0  1  0  0  0  0  0  0
  194.0200  171.1130  142.7150 C   0  0  0  0  0  2  0  0  0  0  0  0
  189.2960  172.8170  140.9010 C   0  0  0  0  0  2  0  0  0  0  0  0
  189.2150  173.5110  139.5550 C   0  0  0  0  0  1  0  0  0  0  0  0
  1 18  1  6  0  0  0
  1 17  1  0  0  0  0
  1  2  1  0  0  0  0
  2 24  1  1  0  0  0
  3 17  2  0  0  0  0
  4 15  1  0  0  0  0
  4 10  1  0  0  0  0
  6 20  3  0  0  0  0
  7 16  1  0  0  0  0
  8 21  1  0  0  0  0
 10  9  2  6  0  0  0
 10  5  1  0  0  0  0
 11 26  1  0  0  0  0
 12  5  1  1  0  0  0
 12  2  1  0  0  0  0
 12 25  1  0  0  0  0
 13 10  1  0  0  0  0
 13  8  1  0  0  0  0
 15 30  1  6  0  0  0
 15 18  1  0  0  0  0
 20 22  1  0  0  0  0
 21 23  1  0  0  0  0
 22  7  2  0  0  0  0
 23 11  2  0  0  0  0
 23 22  1  0  0  0  0
 24 14  2  0  0  0  0
 24 19  1  0  0  0  0
 25  6  1  1  0  0  0
 25 19  1  0  0  0  0
 26 16  2  0  0  0  0
 27 18  2  0  0  0  0
 27  3  1  0  0  0  0
 29  3  1  0  0  0  0
 29 28  1  0  0  0  0
 31 30  1  0  0  0  0
M  END
>  <MODEL>
2

>  <REMARK>
 VINA RESULT:      -8.2      2.871      7.849
  Name = 
  2 active torsions:
  status: ('A' for Active; 'I' for Inactive)
    1  A    between atoms: C_3  and  C_30
    2  A    between atoms: C_15  and  C_17
                            x       y       z     vdW  Elec       q    Type
                         _______ _______ _______ _____ _____    ______ ____

>  <TORSDO>
F 2

$$$$
=
 OpenBabel11062420563D

 31 35  0  0  1  0  0  0  0  0999 V2000
  188.2000  176.5570  145.5190 C   0  0  1  0  0  3  0  0  0  0  0  0
  189.6670  176.8370  145.8640 C   0  0  2  0  0  3  0  0  0  0  0  0
  186.7600  178.1540  144.9850 C   0  0  0  0  0  0  0  0  0  0  0  0
  188.9050  174.5700  143.2530 O   0  0  0  0  0  0  0  0  0  0  0  0
  191.1560  175.5380  144.5710 O   0  0  0  0  0  0  0  0  0  0  0  0
  192.7080  175.1690  146.6440 C   0  0  0  0  0  0  0  0  0  0  0  0
  196.1510  174.3670  145.8660 C   0  0  0  0  0  3  0  0  0  0  0  0
  192.8900  173.6760  142.4290 O   0  0  0  0  0  0  0  0  0  0  0  0
  190.6490  172.9640  144.3760 O   0  0  0  0  0  0  0  0  0  0  0  0
  190.5410  174.2730  143.6250 P   0  0  1  0  0  0  0  0  0  0  0  0
  195.7130  173.7440  143.1680 C   0  0  0  0  0  3  0  0  0  0  0  0
  190.4160  175.5280  145.7540 C   0  0  1  0  0  3  0  0  0  0  0  0
  191.6070  174.1860  142.1370 C   0  0  0  0  0  2  0  0  0  0  0  0
  189.4570  178.2900  147.7480 O   0  0  0  0  0  0  0  0  0  0  0  0
  188.8130  175.9380  142.9730 C   0  0  2  0  0  3  0  0  0  0  0  0
  197.1990  173.8790  145.0790 C   0  0  0  0  0  3  0  0  0  0  0  0
  187.3160  177.6060  146.0110 N   0  0  0  0  0  0  0  0  0  0  0  0
  187.9950  176.6600  144.0290 C   0  0  0  0  0  0  0  0  0  0  0  0
  191.0550  176.5450  147.9210 C   0  0  0  0  0  2  0  0  0  0  0  0
  193.7670  174.9320  146.1200 C   0  0  0  0  0  0  0  0  0  0  0  0
  193.4000  174.4670  143.3880 O   0  0  0  0  0  0  0  0  0  0  0  0
  194.8880  174.5590  145.3020 C   0  0  0  0  0  0  0  0  0  0  0  0
  194.6640  174.2530  143.9450 C   0  0  0  0  0  0  0  0  0  0  0  0
  189.9700  177.3030  147.2460 C   0  0  0  0  0  0  0  0  0  0  0  0
  191.2960  175.3520  147.0110 C   0  0  2  0  0  3  0  0  0  0  0  0
  196.9780  173.5620  143.7350 C   0  0  0  0  0  3  0  0  0  0  0  0
  187.1640  177.6070  143.7400 N   0  0  0  0  0  0  0  0  0  0  0  0
  185.6660  179.9290  143.8900 O   0  0  0  0  0  1  0  0  0  0  0  0
  185.7600  179.2480  145.1030 C   0  0  0  0  0  2  0  0  0  0  0  0
  188.2550  176.1220  141.5670 C   0  0  0  0  0  2  0  0  0  0  0  0
  188.2210  174.7910  140.8390 C   0  0  0  0  0  1  0  0  0  0  0  0
  1 18  1  6  0  0  0
  1  2  1  0  0  0  0
  1 17  1  0  0  0  0
  2 24  1  1  0  0  0
  3 29  1  0  0  0  0
  3 17  2  0  0  0  0
  4 10  1  0  0  0  0
  8 21  1  0  0  0  0
 10  9  2  1  0  0  0
 10  5  1  0  0  0  0
 11 26  2  0  0  0  0
 11 23  1  0  0  0  0
 12  5  1  6  0  0  0
 12  2  1  0  0  0  0
 12 25  1  0  0  0  0
 13  8  1  0  0  0  0
 13 10  1  0  0  0  0
 15 30  1  6  0  0  0
 15  4  1  0  0  0  0
 15 18  1  0  0  0  0
 16  7  2  0  0  0  0
 20  6  3  0  0  0  0
 21 23  1  0  0  0  0
 22  7  1  0  0  0  0
 22 20  1  0  0  0  0
 23 22  2  0  0  0  0
 24 14  2  0  0  0  0
 24 19  1  0  0  0  0
 25  6  1  6  0  0  0
 25 19  1  0  0  0  0
 26 16  1  0  0  0  0
 27 18  2  0  0  0  0
 27  3  1  0  0  0  0
 28 29  1  0  0  0  0
 31 30  1  0  0  0  0
M  END
>  <MODEL>
3

>  <REMARK>
 VINA RESULT:      -8.1      2.859      5.527
  Name = 
  2 active torsions:
  status: ('A' for Active; 'I' for Inactive)
    1  A    between atoms: C_3  and  C_30
    2  A    between atoms: C_15  and  C_17
                            x       y       z     vdW  Elec       q    Type
                         _______ _______ _______ _____ _____    ______ ____

>  <TORSDO>
F 2

$$$$
=
 OpenBabel11062420563D

 31 35  0  0  1  0  0  0  0  0999 V2000
  192.1540  173.8060  142.7340 C   0  0  1  0  0  3  0  0  0  0  0  0
  190.9960  174.5290  142.0390 C   0  0  2  0  0  3  0  0  0  0  0  0
  194.2400  173.8730  141.9900 C   0  0  0  0  0  0  0  0  0  0  0  0
  191.6540  175.1990  145.4520 O   0  0  0  0  0  0  0  0  0  0  0  0
  189.7890  175.9190  143.5180 O   0  0  0  0  0  0  0  0  0  0  0  0
  187.5280  175.2180  142.4040 C   0  0  0  0  0  0  0  0  0  0  0  0
  184.8100  177.5730  142.8240 C   0  0  0  0  0  3  0  0  0  0  0  0
  188.4920  177.8800  145.8700 O   0  0  0  0  0  0  0  0  0  0  0  0
  189.0770  174.8840  145.8290 O   0  0  0  0  0  0  0  0  0  0  0  0
  190.0850  175.8080  145.1830 P   0  0  1  0  0  0  0  0  0  0  0  0
  186.0120  179.0570  144.8760 C   0  0  0  0  0  3  0  0  0  0  0  0
  189.8550  174.6130  143.0280 C   0  0  1  0  0  3  0  0  0  0  0  0
  189.8500  177.4970  145.8550 C   0  0  0  0  0  2  0  0  0  0  0  0
  191.0280  173.5290  139.8700 O   0  0  0  0  0  0  0  0  0  0  0  0
  192.4770  175.8100  144.5000 C   0  0  2  0  0  3  0  0  0  0  0  0
  184.1040  178.6060  143.4490 C   0  0  0  0  0  3  0  0  0  0  0  0
  193.1170  173.2750  141.7780 N   0  0  0  0  0  0  0  0  0  0  0  0
  192.9960  174.8000  143.4950 C   0  0  0  0  0  0  0  0  0  0  0  0
  188.9050  173.7680  140.9020 C   0  0  0  0  0  2  0  0  0  0  0  0
  186.8170  176.1520  142.6790 C   0  0  0  0  0  0  0  0  0  0  0  0
  188.0520  177.7570  144.6060 O   0  0  0  0  0  0  0  0  0  0  0  0
  186.1220  177.2910  143.2130 C   0  0  0  0  0  0  0  0  0  0  0  0
  186.7320  178.0380  144.2400 C   0  0  0  0  0  0  0  0  0  0  0  0
  190.3860  173.8650  140.8520 C   0  0  0  0  0  0  0  0  0  0  0  0
  188.5540  174.1690  142.3250 C   0  0  2  0  0  3  0  0  0  0  0  0
  184.7030  179.3420  144.4780 C   0  0  0  0  0  3  0  0  0  0  0  0
  194.2030  174.8320  143.0330 N   0  0  0  0  0  0  0  0  0  0  0  0
  196.2980  174.6830  141.1800 O   0  0  0  0  0  1  0  0  0  0  0  0
  195.4730  173.5590  141.2190 C   0  0  0  0  0  2  0  0  0  0  0  0
  193.5950  176.5600  145.2160 C   0  0  0  0  0  2  0  0  0  0  0  0
  193.9060  175.8920  146.5420 C   0  0  0  0  0  1  0  0  0  0  0  0
  1 17  1  6  0  0  0
  1 18  1  0  0  0  0
  2 24  1  6  0  0  0
  2  1  1  0  0  0  0
  2 12  1  0  0  0  0
  3 27  1  0  0  0  0
  5 10  1  0  0  0  0
  6 20  3  0  0  0  0
  7 22  2  0  0  0  0
  7 16  1  0  0  0  0
 10  4  1  0  0  0  0
 10  9  2  1  0  0  0
 10 13  1  0  0  0  0
 12  5  1  6  0  0  0
 13  8  1  0  0  0  0
 14 24  2  0  0  0  0
 15 30  1  1  0  0  0
 15  4  1  0  0  0  0
 16 26  2  0  0  0  0
 17  3  2  0  0  0  0
 18 15  1  0  0  0  0
 20 22  1  0  0  0  0
 21  8  1  0  0  0  0
 22 23  1  0  0  0  0
 23 21  1  0  0  0  0
 23 11  2  0  0  0  0
 24 19  1  0  0  0  0
 25 19  1  6  0  0  0
 25  6  1  0  0  0  0
 25 12  1  0  0  0  0
 26 11  1  0  0  0  0
 27 18  2  0  0  0  0
 28 29  1  0  0  0  0
 29  3  1  0  0  0  0
 30 31  1  0  0  0  0
M  END
>  <MODEL>
4

>  <REMARK>
 VINA RESULT:      -8.0      3.371      7.042
  Name = 
  2 active torsions:
  status: ('A' for Active; 'I' for Inactive)
    1  A    between atoms: C_3  and  C_30
    2  A    between atoms: C_15  and  C_17
                            x       y       z     vdW  Elec       q    Type
                         _______ _______ _______ _____ _____    ______ ____

>  <TORSDO>
F 2

$$$$
=
 OpenBabel11062420563D

 31 35  0  0  1  0  0  0  0  0999 V2000
  188.8190  177.4340  145.7490 C   0  0  1  0  0  3  0  0  0  0  0  0
  187.2880  177.4230  145.8220 C   0  0  2  0  0  3  0  0  0  0  0  0
  190.0840  175.8880  146.7090 C   0  0  0  0  0  0  0  0  0  0  0  0
  188.8700  177.4790  142.6550 O   0  0  0  0  0  0  0  0  0  0  0  0
  186.2880  177.5600  143.6870 O   0  0  0  0  0  0  0  0  0  0  0  0
  184.4340  179.1600  144.6080 C   0  0  0  0  0  0  0  0  0  0  0  0
  181.3640  179.2240  142.6890 C   0  0  0  0  0  3  0  0  0  0  0  0
  185.2980  177.5770  140.5120 O   0  0  0  0  0  0  0  0  0  0  0  0
  187.1970  179.4070  142.0500 O   0  0  0  0  0  0  0  0  0  0  0  0
  187.2550  177.9240  142.3440 P   0  0  1  0  0  0  0  0  0  0  0  0
  182.4070  177.9640  140.4120 C   0  0  0  0  0  3  0  0  0  0  0  0
  186.7760  178.3420  144.7350 C   0  0  1  0  0  3  0  0  0  0  0  0
  186.5240  177.0160  140.9290 C   0  0  0  0  0  2  0  0  0  0  0  0
  186.9110  177.5320  148.1780 O   0  0  0  0  0  0  0  0  0  0  0  0
  188.8120  176.2550  143.3310 C   0  0  2  0  0  3  0  0  0  0  0  0
  180.5730  179.0750  141.5460 C   0  0  0  0  0  3  0  0  0  0  0  0
  189.4260  176.9620  146.9870 N   0  0  0  0  0  0  0  0  0  0  0  0
  189.2930  176.3960  144.7630 C   0  0  0  0  0  0  0  0  0  0  0  0
  185.5850  178.9550  146.8190 C   0  0  0  0  0  2  0  0  0  0  0  0
  183.5440  178.9880  143.8140 C   0  0  0  0  0  0  0  0  0  0  0  0
  184.5000  177.5850  141.5940 O   0  0  0  0  0  0  0  0  0  0  0  0
  182.6710  178.7300  142.7010 C   0  0  0  0  0  0  0  0  0  0  0  0
  183.1970  178.0910  141.5610 C   0  0  0  0  0  0  0  0  0  0  0  0
  186.6560  177.9550  147.0620 C   0  0  0  0  0  0  0  0  0  0  0  0
  185.7040  179.2750  145.3380 C   0  0  2  0  0  3  0  0  0  0  0  0
  181.0960  178.4520  140.4070 C   0  0  0  0  0  3  0  0  0  0  0  0
  190.0150  175.4980  145.3480 N   0  0  0  0  0  0  0  0  0  0  0  0
  192.1980  175.0460  147.3170 O   0  0  0  0  0  1  0  0  0  0  0  0
  190.8690  175.1420  147.7290 C   0  0  0  0  0  2  0  0  0  0  0  0
  189.5990  175.2140  142.5430 C   0  0  0  0  0  2  0  0  0  0  0  0
  188.6860  174.0810  142.1140 C   0  0  0  0  0  1  0  0  0  0  0  0
  1 18  1  6  0  0  0
  1  2  1  0  0  0  0
  1 17  1  0  0  0  0
  2 24  1  1  0  0  0
  3 17  2  0  0  0  0
  3 29  1  0  0  0  0
  4 15  1  0  0  0  0
  7 22  1  0  0  0  0
  8 13  1  0  0  0  0
  8 21  1  0  0  0  0
 10  9  2  6  0  0  0
 10  4  1  0  0  0  0
 10  5  1  0  0  0  0
 11 23  1  0  0  0  0
 12  5  1  6  0  0  0
 12 25  1  0  0  0  0
 12  2  1  0  0  0  0
 13 10  1  0  0  0  0
 15 30  1  6  0  0  0
 15 18  1  0  0  0  0
 16  7  2  0  0  0  0
 18 27  2  0  0  0  0
 19 24  1  0  0  0  0
 20  6  3  0  0  0  0
 22 20  1  0  0  0  0
 23 21  1  0  0  0  0
 23 22  2  0  0  0  0
 24 14  2  0  0  0  0
 25  6  1  6  0  0  0
 25 19  1  0  0  0  0
 26 11  2  0  0  0  0
 26 16  1  0  0  0  0
 27  3  1  0  0  0  0
 28 29  1  0  0  0  0
 31 30  1  0  0  0  0
M  END
>  <MODEL>
5

>  <REMARK>
 VINA RESULT:      -7.8      2.969      6.877
  Name = 
  2 active torsions:
  status: ('A' for Active; 'I' for Inactive)
    1  A    between atoms: C_3  and  C_30
    2  A    between atoms: C_15  and  C_17
                            x       y       z     vdW  Elec       q    Type
                         _______ _______ _______ _____ _____    ______ ____

>  <TORSDO>
F 2

$$$$
=
 OpenBabel11062420563D

 31 35  0  0  1  0  0  0  0  0999 V2000
  188.0560  176.6820  146.2780 C   0  0  1  0  0  3  0  0  0  0  0  0
  189.5190  177.1340  146.3160 C   0  0  2  0  0  3  0  0  0  0  0  0
  186.3550  178.1020  146.2320 C   0  0  0  0  0  0  0  0  0  0  0  0
  188.4440  174.9700  143.7290 O   0  0  0  0  0  0  0  0  0  0  0  0
  190.8100  176.1410  144.6060 O   0  0  0  0  0  0  0  0  0  0  0  0
  192.8320  175.8450  146.2400 C   0  0  0  0  0  0  0  0  0  0  0  0
  196.0710  175.5720  144.6470 C   0  0  0  0  0  3  0  0  0  0  0  0
  192.2070  174.6830  141.9630 O   0  0  0  0  0  0  0  0  0  0  0  0
  190.5750  173.5420  144.2780 O   0  0  0  0  0  0  0  0  0  0  0  0
  190.1450  174.8720  143.7000 P   0  0  1  0  0  0  0  0  0  0  0  0
  195.0970  175.0820  142.0650 C   0  0  0  0  0  3  0  0  0  0  0  0
  190.3700  175.9490  145.9170 C   0  0  1  0  0  3  0  0  0  0  0  0
  190.8410  175.0330  142.0120 C   0  0  0  0  0  2  0  0  0  0  0  0
  189.5830  178.4130  148.3330 O   0  0  0  0  0  0  0  0  0  0  0  0
  188.1310  176.3280  143.6110 C   0  0  2  0  0  3  0  0  0  0  0  0
  196.9580  175.2860  143.6050 C   0  0  0  0  0  3  0  0  0  0  0  0
  187.1940  177.5650  147.0520 N   0  0  0  0  0  0  0  0  0  0  0  0
  187.5010  176.8580  144.8860 C   0  0  0  0  0  0  0  0  0  0  0  0
  191.3700  176.8920  147.9780 C   0  0  0  0  0  2  0  0  0  0  0  0
  193.7610  175.7900  145.4750 C   0  0  0  0  0  0  0  0  0  0  0  0
  192.8290  175.4680  142.8590 O   0  0  0  0  0  0  0  0  0  0  0  0
  194.6980  175.6290  144.3970 C   0  0  0  0  0  0  0  0  0  0  0  0
  194.2040  175.3890  143.0990 C   0  0  0  0  0  0  0  0  0  0  0  0
  190.0780  177.5410  147.6360 C   0  0  0  0  0  0  0  0  0  0  0  0
  191.5320  175.8090  146.9250 C   0  0  2  0  0  3  0  0  0  0  0  0
  196.4710  175.0350  142.3180 C   0  0  0  0  0  3  0  0  0  0  0  0
  186.5210  177.7010  144.8820 N   0  0  0  0  0  0  0  0  0  0  0  0
  184.0650  178.6450  146.1350 O   0  0  0  0  0  1  0  0  0  0  0  0
  185.2890  179.0400  146.6740 C   0  0  0  0  0  2  0  0  0  0  0  0
  187.2460  176.5310  142.3870 C   0  0  0  0  0  2  0  0  0  0  0  0
  187.8350  177.6000  141.4860 C   0  0  0  0  0  1  0  0  0  0  0  0
  1 18  1  6  0  0  0
  1  2  1  0  0  0  0
  1 17  1  0  0  0  0
  2 24  1  1  0  0  0
  3 29  1  0  0  0  0
  3 17  2  0  0  0  0
  8 13  1  0  0  0  0
  8 21  1  0  0  0  0
 10  4  1  0  0  0  0
 10  9  2  1  0  0  0
 10  5  1  0  0  0  0
 11 26  2  0  0  0  0
 11 23  1  0  0  0  0
 12  5  1  6  0  0  0
 12  2  1  0  0  0  0
 12 25  1  0  0  0  0
 13 10  1  0  0  0  0
 15 30  1  6  0  0  0
 15  4  1  0  0  0  0
 15 18  1  0  0  0  0
 16  7  2  0  0  0  0
 20  6  3  0  0  0  0
 21 23  1  0  0  0  0
 22  7  1  0  0  0  0
 22 20  1  0  0  0  0
 23 22  2  0  0  0  0
 24 19  1  0  0  0  0
 24 14  2  0  0  0  0
 25  6  1  6  0  0  0
 25 19  1  0  0  0  0
 26 16  1  0  0  0  0
 27 18  2  0  0  0  0
 27  3  1  0  0  0  0
 28 29  1  0  0  0  0
 31 30  1  0  0  0  0
M  END
>  <MODEL>
6

>  <REMARK>
 VINA RESULT:      -7.8      2.871      5.360
  Name = 
  2 active torsions:
  status: ('A' for Active; 'I' for Inactive)
    1  A    between atoms: C_3  and  C_30
    2  A    between atoms: C_15  and  C_17
                            x       y       z     vdW  Elec       q    Type
                         _______ _______ _______ _____ _____    ______ ____

>  <TORSDO>
F 2

$$$$
=
 OpenBabel11062420563D

 31 35  0  0  1  0  0  0  0  0999 V2000
  185.9460  176.7690  143.8850 C   0  0  1  0  0  3  0  0  0  0  0  0
  187.1380  177.3660  144.6400 C   0  0  2  0  0  3  0  0  0  0  0  0
  184.4730  178.0060  142.7830 C   0  0  0  0  0  0  0  0  0  0  0  0
  187.7180  174.9230  142.1450 O   0  0  0  0  0  0  0  0  0  0  0  0
  189.1880  176.3840  143.9990 O   0  0  0  0  0  0  0  0  0  0  0  0
  190.0280  176.4100  146.4770 C   0  0  0  0  0  0  0  0  0  0  0  0
  193.6250  176.3460  146.8840 C   0  0  0  0  0  3  0  0  0  0  0  0
  191.8490  174.8830  142.6850 O   0  0  0  0  0  0  0  0  0  0  0  0
  189.2830  173.7570  143.8980 O   0  0  0  0  0  0  0  0  0  0  0  0
  189.1710  174.9930  143.0320 P   0  0  1  0  0  0  0  0  0  0  0  0
  194.2110  175.5740  144.2540 C   0  0  0  0  0  3  0  0  0  0  0  0
  188.1230  176.2460  144.8910 C   0  0  1  0  0  3  0  0  0  0  0  0
  190.6560  175.0980  141.9630 C   0  0  0  0  0  2  0  0  0  0  0  0
  186.0520  178.7890  146.2220 O   0  0  0  0  0  0  0  0  0  0  0  0
  187.4560  176.2310  141.7240 C   0  0  2  0  0  3  0  0  0  0  0  0
  194.9440  176.0740  146.5110 C   0  0  0  0  0  3  0  0  0  0  0  0
  184.7640  177.6160  143.9780 N   0  0  0  0  0  0  0  0  0  0  0  0
  186.2170  176.7870  142.4020 C   0  0  0  0  0  0  0  0  0  0  0  0
  187.8160  177.4310  147.0440 C   0  0  0  0  0  2  0  0  0  0  0  0
  191.2240  176.3920  146.3320 C   0  0  0  0  0  0  0  0  0  0  0  0
  191.8570  175.7890  143.6770 O   0  0  0  0  0  0  0  0  0  0  0  0
  192.5990  176.2470  145.9400 C   0  0  0  0  0  0  0  0  0  0  0  0
  192.8900  175.8660  144.6160 C   0  0  0  0  0  0  0  0  0  0  0  0
  186.8820  177.9220  145.9990 C   0  0  0  0  0  0  0  0  0  0  0  0
  188.5660  176.2960  146.3690 C   0  0  2  0  0  3  0  0  0  0  0  0
  195.2360  175.6820  145.1990 C   0  0  0  0  0  3  0  0  0  0  0  0
  185.3560  177.5260  141.7830 N   0  0  0  0  0  0  0  0  0  0  0  0
  182.4150  178.1730  141.6510 O   0  0  0  0  0  1  0  0  0  0  0  0
  183.2960  178.8630  142.4830 C   0  0  0  0  0  2  0  0  0  0  0  0
  187.3580  176.2550  140.2030 C   0  0  0  0  0  2  0  0  0  0  0  0
  187.8140  174.9270  139.6280 C   0  0  0  0  0  1  0  0  0  0  0  0
  1 18  1  6  0  0  0
  1 17  1  0  0  0  0
  1  2  1  0  0  0  0
  2 12  1  0  0  0  0
  2 24  1  1  0  0  0
  3 17  2  0  0  0  0
  4 10  1  0  0  0  0
  8 21  1  0  0  0  0
 10  9  2  1  0  0  0
 10  5  1  0  0  0  0
 11 23  2  0  0  0  0
 11 26  1  0  0  0  0
 12  5  1  6  0  0  0
 12 25  1  0  0  0  0
 13  8  1  0  0  0  0
 13 10  1  0  0  0  0
 15 30  1  6  0  0  0
 15  4  1  0  0  0  0
 15 18  1  0  0  0  0
 16  7  1  0  0  0  0
 20  6  3  0  0  0  0
 21 23  1  0  0  0  0
 22 20  1  0  0  0  0
 22  7  2  0  0  0  0
 23 22  1  0  0  0  0
 24 14  2  0  0  0  0
 24 19  1  0  0  0  0
 25  6  1  6  0  0  0
 25 19  1  0  0  0  0
 26 16  2  0  0  0  0
 27 18  2  0  0  0  0
 27  3  1  0  0  0  0
 28 29  1  0  0  0  0
 29  3  1  0  0  0  0
 31 30  1  0  0  0  0
M  END
>  <MODEL>
7

>  <REMARK>
 VINA RESULT:      -7.7      2.465      5.662
  Name = 
  2 active torsions:
  status: ('A' for Active; 'I' for Inactive)
    1  A    between atoms: C_3  and  C_30
    2  A    between atoms: C_15  and  C_17
                            x       y       z     vdW  Elec       q    Type
                         _______ _______ _______ _____ _____    ______ ____

>  <TORSDO>
F 2

$$$$
=
 OpenBabel11062420563D

 31 35  0  0  1  0  0  0  0  0999 V2000
  192.8540  173.4630  143.8100 C   0  0  1  0  0  3  0  0  0  0  0  0
  191.8190  174.1880  142.9440 C   0  0  2  0  0  3  0  0  0  0  0  0
  195.0320  173.5410  143.4080 C   0  0  0  0  0  0  0  0  0  0  0  0
  191.9220  174.8340  146.4230 O   0  0  0  0  0  0  0  0  0  0  0  0
  190.3860  175.5630  144.2220 O   0  0  0  0  0  0  0  0  0  0  0  0
  188.3340  174.8650  142.7570 C   0  0  0  0  0  0  0  0  0  0  0  0
  185.5750  177.2090  142.7550 C   0  0  0  0  0  3  0  0  0  0  0  0
  188.7240  177.5040  146.3510 O   0  0  0  0  0  0  0  0  0  0  0  0
  189.3200  174.5090  146.3830 O   0  0  0  0  0  0  0  0  0  0  0  0
  190.4150  175.4410  145.9120 P   0  0  1  0  0  0  0  0  0  0  0  0
  186.4300  178.6810  144.9830 C   0  0  0  0  0  3  0  0  0  0  0  0
  190.5350  174.2620  143.7400 C   0  0  1  0  0  3  0  0  0  0  0  0
  190.0690  177.1240  146.5500 C   0  0  0  0  0  2  0  0  0  0  0  0
  192.2000  173.2040  140.8010 O   0  0  0  0  0  0  0  0  0  0  0  0
  192.8840  175.4550  145.6190 C   0  0  2  0  0  3  0  0  0  0  0  0
  184.7750  178.2350  143.2670 C   0  0  0  0  0  3  0  0  0  0  0  0
  193.9590  172.9420  143.0160 N   0  0  0  0  0  0  0  0  0  0  0  0
  193.5610  174.4530  144.7020 C   0  0  0  0  0  0  0  0  0  0  0  0
  189.9390  173.4300  141.4840 C   0  0  0  0  0  2  0  0  0  0  0  0
  187.5860  175.7950  142.9220 C   0  0  0  0  0  0  0  0  0  0  0  0
  188.4920  177.3890  145.0320 O   0  0  0  0  0  0  0  0  0  0  0  0
  186.8090  176.9280  143.3460 C   0  0  0  0  0  0  0  0  0  0  0  0
  187.2460  177.6690  144.4620 C   0  0  0  0  0  0  0  0  0  0  0  0
  191.4090  173.5310  141.6710 C   0  0  0  0  0  0  0  0  0  0  0  0
  189.3640  173.8190  142.8350 C   0  0  2  0  0  3  0  0  0  0  0  0
  185.1990  178.9660  144.3830 C   0  0  0  0  0  3  0  0  0  0  0  0
  194.8260  174.4920  144.4390 N   0  0  0  0  0  0  0  0  0  0  0  0
  197.2610  172.9410  143.8750 O   0  0  0  0  0  1  0  0  0  0  0  0
  196.3730  173.2360  142.8410 C   0  0  0  0  0  2  0  0  0  0  0  0
  193.8710  176.2020  146.5090 C   0  0  0  0  0  2  0  0  0  0  0  0
  194.2750  177.5110  145.8580 C   0  0  0  0  0  1  0  0  0  0  0  0
  1 17  1  6  0  0  0
  1 18  1  0  0  0  0
  2 24  1  6  0  0  0
  2 12  1  0  0  0  0
  2  1  1  0  0  0  0
  3 27  1  0  0  0  0
  5 10  1  0  0  0  0
  6 25  1  0  0  0  0
  6 20  3  0  0  0  0
  7 16  2  0  0  0  0
  7 22  1  0  0  0  0
  8 13  1  0  0  0  0
 10  9  2  1  0  0  0
 10  4  1  0  0  0  0
 10 13  1  0  0  0  0
 12  5  1  6  0  0  0
 14 24  2  0  0  0  0
 15  4  1  0  0  0  0
 15 30  1  1  0  0  0
 16 26  1  0  0  0  0
 17  3  2  0  0  0  0
 18 15  1  0  0  0  0
 19 24  1  0  0  0  0
 20 22  1  0  0  0  0
 21  8  1  0  0  0  0
 22 23  2  0  0  0  0
 23 11  1  0  0  0  0
 23 21  1  0  0  0  0
 25 19  1  6  0  0  0
 25 12  1  0  0  0  0
 26 11  2  0  0  0  0
 27 18  2  0  0  0  0
 29  3  1  0  0  0  0
 29 28  1  0  0  0  0
 31 30  1  0  0  0  0
M  END
>  <MODEL>
8

>  <REMARK>
 VINA RESULT:      -7.7      3.403      7.127
  Name = 
  2 active torsions:
  status: ('A' for Active; 'I' for Inactive)
    1  A    between atoms: C_3  and  C_30
    2  A    between atoms: C_15  and  C_17
                            x       y       z     vdW  Elec       q    Type
                         _______ _______ _______ _____ _____    ______ ____

>  <TORSDO>
F 2

$$$$
=
 OpenBabel11062420563D

 31 35  0  0  1  0  0  0  0  0999 V2000
  188.0250  177.6340  144.8990 C   0  0  1  0  0  3  0  0  0  0  0  0
  187.8760  176.3450  144.0840 C   0  0  2  0  0  3  0  0  0  0  0  0
  186.8560  178.0430  146.7360 C   0  0  0  0  0  0  0  0  0  0  0  0
  191.0710  177.2610  145.3010 O   0  0  0  0  0  0  0  0  0  0  0  0
  189.9460  175.2670  143.7220 O   0  0  0  0  0  0  0  0  0  0  0  0
  189.2510  174.6540  141.2750 C   0  0  0  0  0  0  0  0  0  0  0  0
  190.9920  171.8210  139.8450 C   0  0  0  0  0  3  0  0  0  0  0  0
  193.0140  173.9890  143.6050 O   0  0  0  0  0  0  0  0  0  0  0  0
  191.9440  176.7550  142.8800 O   0  0  0  0  0  0  0  0  0  0  0  0
  191.3800  176.0810  144.1110 P   0  0  1  0  0  0  0  0  0  0  0  0
  193.0400  171.7310  141.7560 C   0  0  0  0  0  3  0  0  0  0  0  0
  189.0890  176.2310  143.1880 C   0  0  1  0  0  3  0  0  0  0  0  0
  192.5600  174.7950  144.6710 C   0  0  0  0  0  2  0  0  0  0  0  0
  185.5660  176.4160  143.4780 O   0  0  0  0  0  0  0  0  0  0  0  0
  190.1750  176.6770  146.2040 C   0  0  2  0  0  3  0  0  0  0  0  0
  192.0460  170.9140  139.7000 C   0  0  0  0  0  3  0  0  0  0  0  0
  186.7520  178.0790  145.4510 N   0  0  0  0  0  0  0  0  0  0  0  0
  188.8210  177.3600  146.1510 C   0  0  0  0  0  0  0  0  0  0  0  0
  187.1010  175.8360  141.7640 C   0  0  0  0  0  2  0  0  0  0  0  0
  189.9530  173.7010  141.0510 C   0  0  0  0  0  0  0  0  0  0  0  0
  191.9140  173.4720  143.0290 O   0  0  0  0  0  0  0  0  0  0  0  0
  190.9520  172.6730  140.9510 C   0  0  0  0  0  0  0  0  0  0  0  0
  191.9760  172.6270  141.9170 C   0  0  0  0  0  0  0  0  0  0  0  0
  186.7280  176.2600  143.1370 C   0  0  0  0  0  0  0  0  0  0  0  0
  188.6190  175.8910  141.7570 C   0  0  2  0  0  3  0  0  0  0  0  0
  193.0710  170.8730  140.6510 C   0  0  0  0  0  3  0  0  0  0  0  0
  188.1140  177.5910  147.2080 N   0  0  0  0  0  0  0  0  0  0  0  0
  184.5290  178.3000  146.9970 O   0  0  0  0  0  1  0  0  0  0  0  0
  185.7550  178.4670  147.6420 C   0  0  0  0  0  2  0  0  0  0  0  0
  190.7910  176.6950  147.5980 C   0  0  0  0  0  2  0  0  0  0  0  0
  191.1880  175.2910  148.0130 C   0  0  0  0  0  1  0  0  0  0  0  0
  1 17  1  1  0  0  0
  1 18  1  0  0  0  0
  2 24  1  6  0  0  0
  2  1  1  0  0  0  0
  3 27  1  0  0  0  0
  3 29  1  0  0  0  0
  4 15  1  0  0  0  0
  5 10  1  0  0  0  0
  7 22  1  0  0  0  0
  8 13  1  0  0  0  0
 10  9  2  6  0  0  0
 10 13  1  0  0  0  0
 10  4  1  0  0  0  0
 11 23  1  0  0  0  0
 12  5  1  1  0  0  0
 12  2  1  0  0  0  0
 15 30  1  1  0  0  0
 16  7  2  0  0  0  0
 16 26  1  0  0  0  0
 17  3  2  0  0  0  0
 18 15  1  0  0  0  0
 18 27  2  0  0  0  0
 19 24  1  0  0  0  0
 20  6  3  0  0  0  0
 21  8  1  0  0  0  0
 22 20  1  0  0  0  0
 22 23  2  0  0  0  0
 23 21  1  0  0  0  0
 24 14  2  0  0  0  0
 25  6  1  1  0  0  0
 25 19  1  0  0  0  0
 25 12  1  0  0  0  0
 26 11  2  0  0  0  0
 28 29  1  0  0  0  0
 30 31  1  0  0  0  0
M  END
>  <MODEL>
9

>  <REMARK>
 VINA RESULT:      -7.3      1.447      1.660
  Name = 
  2 active torsions:
  status: ('A' for Active; 'I' for Inactive)
    1  A    between atoms: C_3  and  C_30
    2  A    between atoms: C_15  and  C_17
                            x       y       z     vdW  Elec       q    Type
                         _______ _______ _______ _____ _____    ______ ____

>  <TORSDO>
F 2

$$$$
