=
 OpenBabel11062418423D

 43 45  0  0  1  0  0  0  0  0999 V2000
  190.9740  173.6900  143.1720 C   0  0  2  0  0  3  0  0  0  0  0  0
  189.5280  174.2040  143.0700 C   0  0  1  0  0  3  0  0  0  0  0  0
  190.6630  175.1590  143.3820 C   0  0  1  0  0  3  0  0  0  0  0  0
  192.3290  172.1240  141.7910 C   0  0  0  0  0  1  0  0  0  0  0  0
  191.7010  173.5030  141.8360 C   0  0  2  0  0  3  0  0  0  0  0  0
  192.7040  174.4680  141.6770 O   0  0  0  0  0  0  0  0  0  0  0  0
  193.8210  173.7710  141.2030 C   0  0  0  0  0  2  0  0  0  0  0  0
  196.3850  174.2340  140.3920 O   0  0  0  0  0  1  0  0  0  0  0  0
  195.0360  174.9100  140.4750 P   0  0  1  0  0  0  0  0  0  0  0  0
  194.5380  175.3750  138.9250 O   0  0  0  0  0  0  0  0  0  0  0  0
  195.1450  176.3710  141.5430 C   0  0  0  0  0  2  0  0  0  0  0  0
  196.0770  176.0710  142.7000 C   0  0  0  0  0  2  0  0  0  0  0  0
  195.4750  176.4470  143.9010 O   0  0  0  0  0  0  0  0  0  0  0  0
  194.3530  174.6090  144.9250 C   0  0  2  0  0  3  0  0  0  0  0  0
  195.6650  175.3470  144.7450 C   0  0  2  0  0  3  0  0  0  0  0  0
  194.0450  176.7370  146.1580 C   0  0  0  0  0  1  0  0  0  0  0  0
  194.8820  175.4700  146.0560 C   0  0  1  0  0  3  0  0  0  0  0  0
  195.5820  172.5930  144.1800 C   0  0  0  0  0  1  0  0  0  0  0  0
  194.6340  173.1480  145.2220 C   0  0  2  0  0  3  0  0  0  0  0  0
  193.4430  172.4240  145.1920 O   0  0  0  0  0  1  0  0  0  0  0  0
  190.7030  175.4580  144.8730 C   0  0  0  0  0  2  0  0  0  0  0  0
  189.6770  176.5170  145.2900 C   0  0  2  0  0  3  0  0  0  0  0  0
  190.1100  177.8890  144.8030 C   0  0  0  0  0  1  0  0  0  0  0  0
  189.3980  176.5310  146.8000 C   0  0  1  0  0  3  0  0  0  0  0  0
  188.8250  175.3220  147.2000 O   0  0  0  0  0  1  0  0  0  0  0  0
  190.6590  176.7930  147.6170 C   0  0  0  0  0  2  0  0  0  0  0  0
  190.5490  177.9930  148.3220 O   0  0  0  0  0  0  0  0  0  0  0  0
  191.4740  177.8760  149.3570 C   0  0  0  0  0  1  0  0  0  0  0  0
  189.0270  174.4040  141.6320 C   0  0  1  0  0  3  0  0  0  0  0  0
  188.2940  172.8090  139.9990 O   0  0  0  0  0  0  0  0  0  0  0  0
  188.2000  173.2440  141.1780 C   0  0  0  0  0  0  0  0  0  0  0  0
  187.3270  172.6350  142.0690 O   0  0  0  0  0  1  0  0  0  0  0  0
  188.3020  175.7330  141.4260 C   0  0  0  0  0  2  0  0  0  0  0  0
  187.5070  178.3540  142.1420 O   0  0  0  0  0  0  0  0  0  0  0  0
  187.1280  177.4130  142.8930 C   0  0  0  0  0  0  0  0  0  0  0  0
  187.4700  176.0630  142.5740 N   0  0  0  0  0  2  0  0  0  0  0  0
  185.1350  179.2890  145.4970 C   0  0  0  0  0  3  0  0  0  0  0  0
  184.8370  178.2690  146.4030 C   0  0  0  0  0  0  0  0  0  0  0  0
  185.2890  176.9680  146.1620 C   0  0  0  0  0  3  0  0  0  0  0  0
  186.0390  176.6890  145.0170 C   0  0  0  0  0  3  0  0  0  0  0  0
  184.1080  178.5390  147.5110 F   0  0  0  0  0  0  0  0  0  0  0  0
  186.3430  177.7080  144.1040 C   0  0  0  0  0  0  0  0  0  0  0  0
  185.8840  179.0100  144.3520 C   0  0  0  0  0  3  0  0  0  0  0  0
  1  5  1  6  0  0  0
  1  3  1  0  0  0  0
  2 29  1  6  0  0  0
  2  1  1  0  0  0  0
  2  3  1  0  0  0  0
  3 21  1  1  0  0  0
  5  4  1  1  0  0  0
  6  5  1  0  0  0  0
  7  6  1  0  0  0  0
  8  9  1  0  0  0  0
  9 10  2  6  0  0  0
  9  7  1  0  0  0  0
  9 11  1  0  0  0  0
 11 12  1  0  0  0  0
 12 13  1  0  0  0  0
 14 19  1  1  0  0  0
 14 17  1  0  0  0  0
 15 13  1  6  0  0  0
 15 14  1  0  0  0  0
 15 17  1  0  0  0  0
 17 16  1  6  0  0  0
 19 18  1  6  0  0  0
 20 19  1  0  0  0  0
 21 22  1  0  0  0  0
 22 23  1  1  0  0  0
 22 24  1  0  0  0  0
 24 25  1  1  0  0  0
 24 26  1  0  0  0  0
 26 27  1  0  0  0  0
 27 28  1  0  0  0  0
 29 33  1  1  0  0  0
 30 31  2  0  0  0  0
 31 29  1  0  0  0  0
 31 32  1  0  0  0  0
 33 36  1  0  0  0  0
 34 35  2  0  0  0  0
 35 42  1  0  0  0  0
 36 35  1  0  0  0  0
 37 38  1  0  0  0  0
 38 41  1  0  0  0  0
 39 38  2  0  0  0  0
 40 39  1  0  0  0  0
 42 43  1  0  0  0  0
 42 40  2  0  0  0  0
 43 37  2  0  0  0  0
M  END
>  <MODEL>
1

>  <REMARK>
 VINA RESULT:      -6.3      0.000      0.000
  Name = 
  19 active torsions:
  status: ('A' for Active; 'I' for Inactive)
    1  A    between atoms: C_1  and  C_14
    2  A    between atoms: C_1  and  C_18
    3  A    between atoms: C_3  and  C_12
    4  A    between atoms: C_5  and  O_6
    5  A    between atoms: O_6  and  C_22
    6  A    between atoms: O_10  and  C_18
    7  A    between atoms: C_11  and  C_26
    8  A    between atoms: C_11  and  N_34
    9  A    between atoms: C_14  and  C_38
   10  A    between atoms: C_16  and  C_41
   11  A    between atoms: C_19  and  C_26
   12  A    between atoms: C_20  and  C_37
   13  A    between atoms: C_21  and  O_23
   14  A    between atoms: C_21  and  P_36
   15  A    between atoms: C_22  and  C_27
   16  A    between atoms: O_23  and  C_41
   17  A    between atoms: C_25  and  C_38
   18  A    between atoms: C_26  and  C_30
   19  A    between atoms: C_27  and  P_36
                            x       y       z     vdW  Elec       q    Type
                         _______ _______ _______ _____ _____    ______ ____

>  <TORSDO>
F 19

$$$$
=
 OpenBabel11062418423D

 43 45  0  0  1  0  0  0  0  0999 V2000
  195.3270  175.1000  145.8710 C   0  0  2  0  0  3  0  0  0  0  0  0
  195.9340  174.9180  144.4690 C   0  0  1  0  0  3  0  0  0  0  0  0
  195.0250  173.8570  145.0560 C   0  0  1  0  0  3  0  0  0  0  0  0
  194.3940  177.2390  146.7340 C   0  0  0  0  0  1  0  0  0  0  0  0
  194.0800  175.9880  145.9360 C   0  0  2  0  0  3  0  0  0  0  0  0
  193.0180  175.3100  146.5470 O   0  0  0  0  0  0  0  0  0  0  0  0
  191.8570  175.8290  145.9630 C   0  0  0  0  0  2  0  0  0  0  0  0
  189.9880  174.9460  147.7440 O   0  0  0  0  0  0  0  0  0  0  0  0
  190.6140  176.2220  147.2300 P   0  0  1  0  0  0  0  0  0  0  0  0
  191.3360  177.0570  148.5120 O   0  0  0  0  0  1  0  0  0  0  0  0
  189.3430  177.2640  146.4640 C   0  0  0  0  0  2  0  0  0  0  0  0
  188.1700  176.3960  146.0540 C   0  0  0  0  0  2  0  0  0  0  0  0
  187.0190  176.8100  146.7230 O   0  0  0  0  0  0  0  0  0  0  0  0
  185.8850  178.1570  145.1150 C   0  0  2  0  0  3  0  0  0  0  0  0
  186.0190  176.7840  145.7450 C   0  0  2  0  0  3  0  0  0  0  0  0
  184.9920  178.4350  147.4100 C   0  0  0  0  0  1  0  0  0  0  0  0
  184.8300  177.6850  146.0970 C   0  0  1  0  0  3  0  0  0  0  0  0
  186.2490  178.7990  142.7510 C   0  0  0  0  0  1  0  0  0  0  0  0
  185.3660  178.0120  143.6980 C   0  0  2  0  0  3  0  0  0  0  0  0
  184.0620  178.5010  143.6220 O   0  0  0  0  0  1  0  0  0  0  0  0
  195.8500  172.7010  145.6030 C   0  0  0  0  0  2  0  0  0  0  0  0
  196.0720  171.5930  144.5690 C   0  0  2  0  0  3  0  0  0  0  0  0
  194.8010  171.3540  143.7740 C   0  0  0  0  0  1  0  0  0  0  0  0
  196.5930  170.2860  145.1820 C   0  0  1  0  0  3  0  0  0  0  0  0
  196.5140  170.3360  146.5760 O   0  0  0  0  0  1  0  0  0  0  0  0
  195.8330  169.0660  144.6720 C   0  0  0  0  0  2  0  0  0  0  0  0
  195.4470  168.2460  145.7340 O   0  0  0  0  0  0  0  0  0  0  0  0
  194.0600  168.1670  145.6270 C   0  0  0  0  0  1  0  0  0  0  0  0
  195.2140  175.7000  143.3610 C   0  0  1  0  0  3  0  0  0  0  0  0
  195.9700  176.8470  141.3950 O   0  0  0  0  0  0  0  0  0  0  0  0
  196.1640  176.5800  142.6110 C   0  0  0  0  0  0  0  0  0  0  0  0
  197.2650  177.1140  143.2660 O   0  0  0  0  0  1  0  0  0  0  0  0
  194.4050  174.8080  142.4210 C   0  0  0  0  0  2  0  0  0  0  0  0
  192.3790  173.0500  141.5150 O   0  0  0  0  0  0  0  0  0  0  0  0
  192.0050  174.1210  142.0670 C   0  0  0  0  0  0  0  0  0  0  0  0
  192.9760  175.0400  142.5730 N   0  0  0  0  0  2  0  0  0  0  0  0
  188.2490  173.7150  142.1030 C   0  0  0  0  0  3  0  0  0  0  0  0
  187.8350  175.0140  142.4050 C   0  0  0  0  0  0  0  0  0  0  0  0
  188.7840  176.0230  142.5960 C   0  0  0  0  0  3  0  0  0  0  0  0
  190.1460  175.7320  142.4830 C   0  0  0  0  0  3  0  0  0  0  0  0
  186.5160  175.2960  142.5160 F   0  0  0  0  0  0  0  0  0  0  0  0
  190.5700  174.4300  142.1790 C   0  0  0  0  0  0  0  0  0  0  0  0
  189.6110  173.4240  141.9910 C   0  0  0  0  0  3  0  0  0  0  0  0
  1  5  1  6  0  0  0
  2 29  1  6  0  0  0
  2  3  1  0  0  0  0
  2  1  1  0  0  0  0
  3 21  1  1  0  0  0
  3  1  1  0  0  0  0
  5  6  1  0  0  0  0
  5  4  1  1  0  0  0
  7  6  1  0  0  0  0
  7  9  1  0  0  0  0
  9  8  2  1  0  0  0
  9 10  1  0  0  0  0
 11  9  1  0  0  0  0
 12 11  1  0  0  0  0
 12 13  1  0  0  0  0
 14 19  1  6  0  0  0
 14 15  1  0  0  0  0
 14 17  1  0  0  0  0
 15 17  1  0  0  0  0
 15 13  1  1  0  0  0
 17 16  1  1  0  0  0
 19 18  1  6  0  0  0
 20 19  1  0  0  0  0
 22 23  1  1  0  0  0
 22 24  1  0  0  0  0
 22 21  1  0  0  0  0
 24 25  1  1  0  0  0
 26 24  1  0  0  0  0
 26 27  1  0  0  0  0
 28 27  1  0  0  0  0
 29 33  1  6  0  0  0
 30 31  2  0  0  0  0
 31 32  1  0  0  0  0
 31 29  1  0  0  0  0
 33 36  1  0  0  0  0
 34 35  2  0  0  0  0
 35 42  1  0  0  0  0
 35 36  1  0  0  0  0
 37 38  1  0  0  0  0
 38 41  1  0  0  0  0
 38 39  2  0  0  0  0
 40 39  1  0  0  0  0
 42 40  2  0  0  0  0
 43 37  2  0  0  0  0
 43 42  1  0  0  0  0
M  END
>  <MODEL>
2

>  <REMARK>
 VINA RESULT:      -6.0      2.652      8.170
  Name = 
  19 active torsions:
  status: ('A' for Active; 'I' for Inactive)
    1  A    between atoms: C_1  and  C_14
    2  A    between atoms: C_1  and  C_18
    3  A    between atoms: C_3  and  C_12
    4  A    between atoms: C_5  and  O_6
    5  A    between atoms: O_6  and  C_22
    6  A    between atoms: O_10  and  C_18
    7  A    between atoms: C_11  and  C_26
    8  A    between atoms: C_11  and  N_34
    9  A    between atoms: C_14  and  C_38
   10  A    between atoms: C_16  and  C_41
   11  A    between atoms: C_19  and  C_26
   12  A    between atoms: C_20  and  C_37
   13  A    between atoms: C_21  and  O_23
   14  A    between atoms: C_21  and  P_36
   15  A    between atoms: C_22  and  C_27
   16  A    between atoms: O_23  and  C_41
   17  A    between atoms: C_25  and  C_38
   18  A    between atoms: C_26  and  C_30
   19  A    between atoms: C_27  and  P_36
                            x       y       z     vdW  Elec       q    Type
                         _______ _______ _______ _____ _____    ______ ____

>  <TORSDO>
F 19

$$$$
=
 OpenBabel11062418423D

 43 45  0  0  1  0  0  0  0  0999 V2000
  190.5390  172.8230  143.5000 C   0  0  2  0  0  3  0  0  0  0  0  0
  189.3370  173.7750  143.3730 C   0  0  1  0  0  3  0  0  0  0  0  0
  190.7080  174.3110  143.7370 C   0  0  1  0  0  3  0  0  0  0  0  0
  190.8820  170.9890  141.8530 C   0  0  0  0  0  1  0  0  0  0  0  0
  191.2090  172.4340  142.1780 C   0  0  2  0  0  3  0  0  0  0  0  0
  192.6000  172.5790  142.2640 O   0  0  0  0  0  0  0  0  0  0  0  0
  193.1210  171.2910  142.1020 C   0  0  0  0  0  2  0  0  0  0  0  0
  193.2600  170.2080  144.6030 O   0  0  0  0  0  1  0  0  0  0  0  0
  194.1370  170.8180  143.5330 P   0  0  1  0  0  0  0  0  0  0  0  0
  195.3180  169.7010  143.0630 O   0  0  0  0  0  0  0  0  0  0  0  0
  194.9360  172.3140  144.1740 C   0  0  0  0  0  2  0  0  0  0  0  0
  194.1370  172.8390  145.3500 C   0  0  0  0  0  2  0  0  0  0  0  0
  194.6410  174.0760  145.7500 O   0  0  0  0  0  0  0  0  0  0  0  0
  195.5510  175.9620  144.6080 C   0  0  2  0  0  3  0  0  0  0  0  0
  194.4670  174.9010  144.6330 C   0  0  2  0  0  3  0  0  0  0  0  0
  194.1030  176.5950  146.5170 C   0  0  0  0  0  1  0  0  0  0  0  0
  194.1420  176.3480  145.0170 C   0  0  1  0  0  3  0  0  0  0  0  0
  195.3530  175.2930  142.2320 C   0  0  0  0  0  1  0  0  0  0  0  0
  195.8020  176.3900  143.1750 C   0  0  2  0  0  3  0  0  0  0  0  0
  197.1620  176.6290  142.9870 O   0  0  0  0  0  1  0  0  0  0  0  0
  190.7940  174.5600  145.2360 C   0  0  0  0  0  2  0  0  0  0  0  0
  189.9960  175.7910  145.6770 C   0  0  2  0  0  3  0  0  0  0  0  0
  190.5140  177.0330  144.9730 C   0  0  0  0  0  1  0  0  0  0  0  0
  189.9750  175.9880  147.1990 C   0  0  1  0  0  3  0  0  0  0  0  0
  190.6680  174.9540  147.8330 O   0  0  0  0  0  1  0  0  0  0  0  0
  190.5690  177.3300  147.6150 C   0  0  0  0  0  2  0  0  0  0  0  0
  191.4700  177.1640  148.6690 O   0  0  0  0  0  0  0  0  0  0  0  0
  191.2350  178.2550  149.5040 C   0  0  0  0  0  1  0  0  0  0  0  0
  188.9720  174.1470  141.9290 C   0  0  1  0  0  3  0  0  0  0  0  0
  187.2050  172.5290  142.0280 O   0  0  0  0  0  1  0  0  0  0  0  0
  188.0560  173.1330  141.3210 C   0  0  0  0  0  0  0  0  0  0  0  0
  188.1380  172.8630  139.9620 O   0  0  0  0  0  0  0  0  0  0  0  0
  188.4210  175.5650  141.7920 C   0  0  0  0  0  2  0  0  0  0  0  0
  186.0050  177.0400  141.8610 O   0  0  0  0  0  0  0  0  0  0  0  0
  186.5350  176.7530  142.9700 C   0  0  0  0  0  0  0  0  0  0  0  0
  187.7390  175.9850  143.0080 N   0  0  0  0  0  2  0  0  0  0  0  0
  185.8010  177.1950  146.6490 C   0  0  0  0  0  3  0  0  0  0  0  0
  184.7490  178.1130  146.6120 C   0  0  0  0  0  0  0  0  0  0  0  0
  184.2800  178.5880  145.3830 C   0  0  0  0  0  3  0  0  0  0  0  0
  184.8620  178.1410  144.1940 C   0  0  0  0  0  3  0  0  0  0  0  0
  184.1880  178.5470  147.7640 F   0  0  0  0  0  0  0  0  0  0  0  0
  185.9170  177.2180  144.2230 C   0  0  0  0  0  0  0  0  0  0  0  0
  186.3820  176.7490  145.4600 C   0  0  0  0  0  3  0  0  0  0  0  0
  1  5  1  6  0  0  0
  1  3  1  0  0  0  0
  2 29  1  6  0  0  0
  2  1  1  0  0  0  0
  2  3  1  0  0  0  0
  3 21  1  1  0  0  0
  5  4  1  1  0  0  0
  5  6  1  0  0  0  0
  7  6  1  0  0  0  0
  7  9  1  0  0  0  0
  9 10  2  6  0  0  0
  9 11  1  0  0  0  0
  9  8  1  0  0  0  0
 11 12  1  0  0  0  0
 12 13  1  0  0  0  0
 14 19  1  6  0  0  0
 14 15  1  0  0  0  0
 14 17  1  0  0  0  0
 15 17  1  0  0  0  0
 15 13  1  1  0  0  0
 17 16  1  1  0  0  0
 19 18  1  6  0  0  0
 20 19  1  0  0  0  0
 21 22  1  0  0  0  0
 22 23  1  6  0  0  0
 22 24  1  0  0  0  0
 24 26  1  0  0  0  0
 24 25  1  1  0  0  0
 26 27  1  0  0  0  0
 27 28  1  0  0  0  0
 29 33  1  1  0  0  0
 31 29  1  0  0  0  0
 31 30  1  0  0  0  0
 32 31  2  0  0  0  0
 33 36  1  0  0  0  0
 34 35  2  0  0  0  0
 35 36  1  0  0  0  0
 35 42  1  0  0  0  0
 38 37  1  0  0  0  0
 38 41  1  0  0  0  0
 39 38  2  0  0  0  0
 40 42  2  0  0  0  0
 40 39  1  0  0  0  0
 42 43  1  0  0  0  0
 43 37  2  0  0  0  0
M  END
>  <MODEL>
3

>  <REMARK>
 VINA RESULT:      -5.9      1.605      2.693
  Name = 
  19 active torsions:
  status: ('A' for Active; 'I' for Inactive)
    1  A    between atoms: C_1  and  C_14
    2  A    between atoms: C_1  and  C_18
    3  A    between atoms: C_3  and  C_12
    4  A    between atoms: C_5  and  O_6
    5  A    between atoms: O_6  and  C_22
    6  A    between atoms: O_10  and  C_18
    7  A    between atoms: C_11  and  C_26
    8  A    between atoms: C_11  and  N_34
    9  A    between atoms: C_14  and  C_38
   10  A    between atoms: C_16  and  C_41
   11  A    between atoms: C_19  and  C_26
   12  A    between atoms: C_20  and  C_37
   13  A    between atoms: C_21  and  O_23
   14  A    between atoms: C_21  and  P_36
   15  A    between atoms: C_22  and  C_27
   16  A    between atoms: O_23  and  C_41
   17  A    between atoms: C_25  and  C_38
   18  A    between atoms: C_26  and  C_30
   19  A    between atoms: C_27  and  P_36
                            x       y       z     vdW  Elec       q    Type
                         _______ _______ _______ _____ _____    ______ ____

>  <TORSDO>
F 19

$$$$
=
 OpenBabel11062418423D

 43 45  0  0  1  0  0  0  0  0999 V2000
  190.2400  172.5360  143.8770 C   0  0  2  0  0  3  0  0  0  0  0  0
  189.1770  173.6100  143.5930 C   0  0  1  0  0  3  0  0  0  0  0  0
  190.4960  173.9870  144.2380 C   0  0  1  0  0  3  0  0  0  0  0  0
  190.7710  170.7300  142.2500 C   0  0  0  0  0  1  0  0  0  0  0  0
  191.1120  172.1430  142.6790 C   0  0  2  0  0  3  0  0  0  0  0  0
  192.4710  172.2050  143.0110 O   0  0  0  0  0  0  0  0  0  0  0  0
  192.9930  170.9480  142.6870 C   0  0  0  0  0  2  0  0  0  0  0  0
  194.6610  171.3200  144.8130 O   0  0  0  0  0  1  0  0  0  0  0  0
  194.6360  170.7170  143.4280 P   0  0  1  0  0  0  0  0  0  0  0  0
  195.0040  169.0670  143.5210 O   0  0  0  0  0  0  0  0  0  0  0  0
  195.8510  171.5520  142.3720 C   0  0  0  0  0  2  0  0  0  0  0  0
  196.2040  172.8920  142.9860 C   0  0  0  0  0  2  0  0  0  0  0  0
  195.3230  173.8710  142.5240 O   0  0  0  0  0  0  0  0  0  0  0  0
  194.1570  174.7450  144.4110 C   0  0  2  0  0  3  0  0  0  0  0  0
  195.3650  174.8690  143.5040 C   0  0  2  0  0  3  0  0  0  0  0  0
  193.2360  175.5420  142.2530 C   0  0  0  0  0  1  0  0  0  0  0  0
  194.2030  175.8590  143.3840 C   0  0  1  0  0  3  0  0  0  0  0  0
  194.5030  176.8130  145.7290 C   0  0  0  0  0  1  0  0  0  0  0  0
  194.4980  175.3000  145.7820 C   0  0  2  0  0  3  0  0  0  0  0  0
  195.7590  174.8500  146.1710 O   0  0  0  0  0  1  0  0  0  0  0  0
  190.3180  174.1550  145.7400 C   0  0  0  0  0  2  0  0  0  0  0  0
  190.7980  175.5200  146.2420 C   0  0  2  0  0  3  0  0  0  0  0  0
  191.3880  175.3900  147.6350 C   0  0  0  0  0  1  0  0  0  0  0  0
  189.7070  176.5990  146.2050 C   0  0  1  0  0  3  0  0  0  0  0  0
  189.5970  177.2240  147.4490 O   0  0  0  0  0  1  0  0  0  0  0  0
  189.9690  177.6480  145.1290 C   0  0  0  0  0  2  0  0  0  0  0  0
  191.1890  177.4080  144.4930 O   0  0  0  0  0  0  0  0  0  0  0  0
  191.2590  178.3780  143.4950 C   0  0  0  0  0  1  0  0  0  0  0  0
  189.1280  174.0850  142.1340 C   0  0  1  0  0  3  0  0  0  0  0  0
  188.3920  173.1020  140.0740 O   0  0  0  0  0  0  0  0  0  0  0  0
  188.2130  173.2320  141.3140 C   0  0  0  0  0  0  0  0  0  0  0  0
  187.1600  172.5680  141.9310 O   0  0  0  0  0  1  0  0  0  0  0  0
  188.7970  175.5700  141.9930 C   0  0  0  0  0  2  0  0  0  0  0  0
  186.2840  176.8430  141.7140 O   0  0  0  0  0  0  0  0  0  0  0  0
  186.7260  176.6950  142.8870 C   0  0  0  0  0  0  0  0  0  0  0  0
  187.9750  176.0340  143.1010 N   0  0  0  0  0  2  0  0  0  0  0  0
  185.3950  177.1370  146.3950 C   0  0  0  0  0  3  0  0  0  0  0  0
  184.5120  178.2060  146.2210 C   0  0  0  0  0  0  0  0  0  0  0  0
  184.3510  178.7800  144.9570 C   0  0  0  0  0  3  0  0  0  0  0  0
  185.0730  178.2850  143.8680 C   0  0  0  0  0  3  0  0  0  0  0  0
  183.8140  178.6860  147.2770 F   0  0  0  0  0  0  0  0  0  0  0  0
  185.9600  177.2120  144.0340 C   0  0  0  0  0  0  0  0  0  0  0  0
  186.1160  176.6430  145.3060 C   0  0  0  0  0  3  0  0  0  0  0  0
  1  5  1  6  0  0  0
  1  3  1  0  0  0  0
  2 29  1  6  0  0  0
  2  1  1  0  0  0  0
  2  3  1  0  0  0  0
  3 21  1  1  0  0  0
  5  4  1  1  0  0  0
  5  6  1  0  0  0  0
  7  6  1  0  0  0  0
  7  9  1  0  0  0  0
  9 10  2  1  0  0  0
  9  8  1  0  0  0  0
 11 12  1  0  0  0  0
 11  9  1  0  0  0  0
 13 12  1  0  0  0  0
 14 19  1  1  0  0  0
 15 13  1  6  0  0  0
 15 14  1  0  0  0  0
 17 16  1  6  0  0  0
 17 15  1  0  0  0  0
 17 14  1  0  0  0  0
 19 18  1  6  0  0  0
 19 20  1  0  0  0  0
 21 22  1  0  0  0  0
 22 23  1  1  0  0  0
 24 22  1  0  0  0  0
 24 25  1  1  0  0  0
 26 24  1  0  0  0  0
 27 26  1  0  0  0  0
 28 27  1  0  0  0  0
 29 33  1  1  0  0  0
 30 31  2  0  0  0  0
 31 32  1  0  0  0  0
 31 29  1  0  0  0  0
 33 36  1  0  0  0  0
 34 35  2  0  0  0  0
 35 36  1  0  0  0  0
 35 42  1  0  0  0  0
 38 37  1  0  0  0  0
 38 41  1  0  0  0  0
 39 38  2  0  0  0  0
 40 42  2  0  0  0  0
 40 39  1  0  0  0  0
 42 43  1  0  0  0  0
 43 37  2  0  0  0  0
M  END
>  <MODEL>
4

>  <REMARK>
 VINA RESULT:      -5.8      1.773      2.939
  Name = 
  19 active torsions:
  status: ('A' for Active; 'I' for Inactive)
    1  A    between atoms: C_1  and  C_14
    2  A    between atoms: C_1  and  C_18
    3  A    between atoms: C_3  and  C_12
    4  A    between atoms: C_5  and  O_6
    5  A    between atoms: O_6  and  C_22
    6  A    between atoms: O_10  and  C_18
    7  A    between atoms: C_11  and  C_26
    8  A    between atoms: C_11  and  N_34
    9  A    between atoms: C_14  and  C_38
   10  A    between atoms: C_16  and  C_41
   11  A    between atoms: C_19  and  C_26
   12  A    between atoms: C_20  and  C_37
   13  A    between atoms: C_21  and  O_23
   14  A    between atoms: C_21  and  P_36
   15  A    between atoms: C_22  and  C_27
   16  A    between atoms: O_23  and  C_41
   17  A    between atoms: C_25  and  C_38
   18  A    between atoms: C_26  and  C_30
   19  A    between atoms: C_27  and  P_36
                            x       y       z     vdW  Elec       q    Type
                         _______ _______ _______ _____ _____    ______ ____

>  <TORSDO>
F 19

$$$$
=
 OpenBabel11062418423D

 43 45  0  0  1  0  0  0  0  0999 V2000
  190.7440  174.4360  143.4260 C   0  0  2  0  0  3  0  0  0  0  0  0
  189.2470  174.6850  143.1770 C   0  0  1  0  0  3  0  0  0  0  0  0
  190.1820  175.8450  143.4550 C   0  0  1  0  0  3  0  0  0  0  0  0
  191.9960  172.7910  142.0410 C   0  0  0  0  0  1  0  0  0  0  0  0
  191.5970  174.2490  142.1670 C   0  0  2  0  0  3  0  0  0  0  0  0
  192.7540  175.0360  142.2280 O   0  0  0  0  0  0  0  0  0  0  0  0
  193.4960  174.6970  141.0910 C   0  0  0  0  0  2  0  0  0  0  0  0
  196.0290  174.7580  140.0790 O   0  0  0  0  0  0  0  0  0  0  0  0
  195.2700  174.9890  141.3640 P   0  0  1  0  0  0  0  0  0  0  0  0
  195.5220  176.5760  141.8950 O   0  0  0  0  0  1  0  0  0  0  0  0
  195.8410  173.8250  142.6320 C   0  0  0  0  0  2  0  0  0  0  0  0
  195.8400  172.4230  142.0550 C   0  0  0  0  0  2  0  0  0  0  0  0
  194.9730  171.6110  142.7870 O   0  0  0  0  0  0  0  0  0  0  0  0
  195.8220  170.3960  144.6550 C   0  0  2  0  0  3  0  0  0  0  0  0
  195.4010  171.7480  144.1120 C   0  0  2  0  0  3  0  0  0  0  0  0
  193.3570  170.2430  144.4420 C   0  0  0  0  0  1  0  0  0  0  0  0
  194.5030  170.9980  145.1000 C   0  0  1  0  0  3  0  0  0  0  0  0
  196.5870  169.6410  146.8860 C   0  0  0  0  0  1  0  0  0  0  0  0
  196.8640  170.5920  145.7390 C   0  0  2  0  0  3  0  0  0  0  0  0
  196.8140  171.9030  146.2090 O   0  0  0  0  0  1  0  0  0  0  0  0
  190.0520  176.2890  144.9050 C   0  0  0  0  0  2  0  0  0  0  0  0
  190.5160  175.2160  145.8950 C   0  0  2  0  0  3  0  0  0  0  0  0
  189.3280  174.6590  146.6600 C   0  0  0  0  0  1  0  0  0  0  0  0
  191.6080  175.7070  146.8550 C   0  0  1  0  0  3  0  0  0  0  0  0
  191.3400  175.2790  148.1570 O   0  0  0  0  0  1  0  0  0  0  0  0
  192.9970  175.2340  146.4390 C   0  0  0  0  0  2  0  0  0  0  0  0
  193.9170  176.2830  146.5100 O   0  0  0  0  0  0  0  0  0  0  0  0
  194.3390  176.4660  145.1950 C   0  0  0  0  0  1  0  0  0  0  0  0
  188.8380  174.6570  141.6980 C   0  0  1  0  0  3  0  0  0  0  0  0
  187.8630  172.5090  142.1320 O   0  0  0  0  0  1  0  0  0  0  0  0
  188.3680  173.2970  141.2890 C   0  0  0  0  0  0  0  0  0  0  0  0
  188.4820  172.9030  139.9620 O   0  0  0  0  0  0  0  0  0  0  0  0
  187.8250  175.7400  141.3320 C   0  0  0  0  0  2  0  0  0  0  0  0
  187.7520  178.3220  142.4920 O   0  0  0  0  0  0  0  0  0  0  0  0
  187.0430  177.4290  143.0330 C   0  0  0  0  0  0  0  0  0  0  0  0
  187.0110  176.1110  142.4810 N   0  0  0  0  0  2  0  0  0  0  0  0
  184.7030  179.1830  145.4250 C   0  0  0  0  0  3  0  0  0  0  0  0
  184.7520  178.3320  146.5320 C   0  0  0  0  0  0  0  0  0  0  0  0
  185.5520  177.1850  146.4960 C   0  0  0  0  0  3  0  0  0  0  0  0
  186.3010  176.8920  145.3540 C   0  0  0  0  0  3  0  0  0  0  0  0
  184.0240  178.6150  147.6370 F   0  0  0  0  0  0  0  0  0  0  0  0
  186.2580  177.7410  144.2390 C   0  0  0  0  0  0  0  0  0  0  0  0
  185.4520  178.8880  144.2840 C   0  0  0  0  0  3  0  0  0  0  0  0
  1  5  1  6  0  0  0
  1  3  1  0  0  0  0
  2 29  1  6  0  0  0
  2  1  1  0  0  0  0
  2  3  1  0  0  0  0
  3 21  1  1  0  0  0
  5  4  1  1  0  0  0
  5  6  1  0  0  0  0
  7  9  1  0  0  0  0
  7  6  1  0  0  0  0
  9  8  2  6  0  0  0
  9 10  1  0  0  0  0
  9 11  1  0  0  0  0
 12 11  1  0  0  0  0
 12 13  1  0  0  0  0
 14 17  1  0  0  0  0
 14 19  1  1  0  0  0
 15 13  1  6  0  0  0
 15 14  1  0  0  0  0
 15 17  1  0  0  0  0
 17 16  1  6  0  0  0
 19 20  1  0  0  0  0
 19 18  1  1  0  0  0
 21 22  1  0  0  0  0
 22 23  1  1  0  0  0
 22 24  1  0  0  0  0
 24 25  1  1  0  0  0
 26 27  1  0  0  0  0
 26 24  1  0  0  0  0
 28 27  1  0  0  0  0
 29 33  1  1  0  0  0
 31 29  1  0  0  0  0
 31 30  1  0  0  0  0
 32 31  2  0  0  0  0
 33 36  1  0  0  0  0
 34 35  2  0  0  0  0
 35 42  1  0  0  0  0
 36 35  1  0  0  0  0
 37 38  1  0  0  0  0
 38 41  1  0  0  0  0
 39 38  2  0  0  0  0
 40 39  1  0  0  0  0
 42 43  1  0  0  0  0
 42 40  2  0  0  0  0
 43 37  2  0  0  0  0
M  END
>  <MODEL>
5

>  <REMARK>
 VINA RESULT:      -5.7      1.648      2.657
  Name = 
  19 active torsions:
  status: ('A' for Active; 'I' for Inactive)
    1  A    between atoms: C_1  and  C_14
    2  A    between atoms: C_1  and  C_18
    3  A    between atoms: C_3  and  C_12
    4  A    between atoms: C_5  and  O_6
    5  A    between atoms: O_6  and  C_22
    6  A    between atoms: O_10  and  C_18
    7  A    between atoms: C_11  and  C_26
    8  A    between atoms: C_11  and  N_34
    9  A    between atoms: C_14  and  C_38
   10  A    between atoms: C_16  and  C_41
   11  A    between atoms: C_19  and  C_26
   12  A    between atoms: C_20  and  C_37
   13  A    between atoms: C_21  and  O_23
   14  A    between atoms: C_21  and  P_36
   15  A    between atoms: C_22  and  C_27
   16  A    between atoms: O_23  and  C_41
   17  A    between atoms: C_25  and  C_38
   18  A    between atoms: C_26  and  C_30
   19  A    between atoms: C_27  and  P_36
                            x       y       z     vdW  Elec       q    Type
                         _______ _______ _______ _____ _____    ______ ____

>  <TORSDO>
F 19

$$$$
=
 OpenBabel11062418423D

 43 45  0  0  1  0  0  0  0  0999 V2000
  195.4810  174.7950  145.8960 C   0  0  2  0  0  3  0  0  0  0  0  0
  196.2120  174.5220  144.5700 C   0  0  1  0  0  3  0  0  0  0  0  0
  195.3930  173.4330  145.2340 C   0  0  1  0  0  3  0  0  0  0  0  0
  194.1920  176.8250  146.5320 C   0  0  0  0  0  1  0  0  0  0  0  0
  194.1360  175.5180  145.7670 C   0  0  2  0  0  3  0  0  0  0  0  0
  193.0970  174.7310  146.2800 O   0  0  0  0  0  0  0  0  0  0  0  0
  191.9440  175.1500  145.6080 C   0  0  0  0  0  2  0  0  0  0  0  0
  189.4920  174.3940  146.5360 O   0  0  0  0  0  0  0  0  0  0  0  0
  190.5760  175.4200  146.7740 P   0  0  1  0  0  0  0  0  0  0  0  0
  191.1370  175.2940  148.3650 O   0  0  0  0  0  1  0  0  0  0  0  0
  189.9180  177.0860  146.4910 C   0  0  0  0  0  2  0  0  0  0  0  0
  190.0790  177.4410  145.0260 C   0  0  0  0  0  2  0  0  0  0  0  0
  188.9950  176.9490  144.2980 O   0  0  0  0  0  0  0  0  0  0  0  0
  186.6220  176.9630  144.5310 C   0  0  2  0  0  3  0  0  0  0  0  0
  187.9140  177.7370  144.7080 C   0  0  2  0  0  3  0  0  0  0  0  0
  187.3690  177.4660  142.2220 C   0  0  0  0  0  1  0  0  0  0  0  0
  186.9630  178.0740  143.5560 C   0  0  1  0  0  3  0  0  0  0  0  0
  185.9970  178.8340  146.0290 C   0  0  0  0  0  1  0  0  0  0  0  0
  185.5970  177.4600  145.5320 C   0  0  2  0  0  3  0  0  0  0  0  0
  185.5320  176.5820  146.6140 O   0  0  0  0  0  1  0  0  0  0  0  0
  196.3040  172.4680  145.9780 C   0  0  0  0  0  2  0  0  0  0  0  0
  196.1200  171.0160  145.5270 C   0  0  2  0  0  3  0  0  0  0  0  0
  196.4740  170.8730  144.0570 C   0  0  0  0  0  1  0  0  0  0  0  0
  194.7160  170.4640  145.8120 C   0  0  1  0  0  3  0  0  0  0  0  0
  193.9070  170.5860  144.6800 O   0  0  0  0  0  1  0  0  0  0  0  0
  194.7490  169.0070  146.2620 C   0  0  0  0  0  2  0  0  0  0  0  0
  194.8630  168.9230  147.6510 O   0  0  0  0  0  0  0  0  0  0  0  0
  196.0140  168.1660  147.8610 C   0  0  0  0  0  1  0  0  0  0  0  0
  195.4930  175.0640  143.3270 C   0  0  1  0  0  3  0  0  0  0  0  0
  196.7400  177.1000  143.5520 O   0  0  0  0  0  1  0  0  0  0  0  0
  196.1860  176.2720  142.7810 C   0  0  0  0  0  0  0  0  0  0  0  0
  196.2270  176.4760  141.4080 O   0  0  0  0  0  0  0  0  0  0  0  0
  195.2690  174.0030  142.2500 C   0  0  0  0  0  2  0  0  0  0  0  0
  192.9590  175.4760  141.5370 O   0  0  0  0  0  0  0  0  0  0  0  0
  192.7840  174.2950  141.9450 C   0  0  0  0  0  0  0  0  0  0  0  0
  193.9090  173.4860  142.2930 N   0  0  0  0  0  2  0  0  0  0  0  0
  189.0130  174.0800  142.0350 C   0  0  0  0  0  3  0  0  0  0  0  0
  188.8210  172.7210  142.3000 C   0  0  0  0  0  0  0  0  0  0  0  0
  189.9250  171.8770  142.4490 C   0  0  0  0  0  3  0  0  0  0  0  0
  191.2190  172.3910  142.3360 C   0  0  0  0  0  3  0  0  0  0  0  0
  187.5670  172.2230  142.4080 F   0  0  0  0  0  0  0  0  0  0  0  0
  191.4200  173.7540  142.0710 C   0  0  0  0  0  0  0  0  0  0  0  0
  190.3070  174.5930  141.9210 C   0  0  0  0  0  3  0  0  0  0  0  0
  1  5  1  6  0  0  0
  2 29  1  6  0  0  0
  2  3  1  0  0  0  0
  2  1  1  0  0  0  0
  3  1  1  0  0  0  0
  3 21  1  1  0  0  0
  5  6  1  0  0  0  0
  5  4  1  1  0  0  0
  7  6  1  0  0  0  0
  7  9  1  0  0  0  0
  9  8  2  6  0  0  0
  9 10  1  0  0  0  0
 11  9  1  0  0  0  0
 12 11  1  0  0  0  0
 13 12  1  0  0  0  0
 14 15  1  0  0  0  0
 14 19  1  1  0  0  0
 15 13  1  6  0  0  0
 17 16  1  6  0  0  0
 17 14  1  0  0  0  0
 17 15  1  0  0  0  0
 19 18  1  1  0  0  0
 19 20  1  0  0  0  0
 22 23  1  6  0  0  0
 22 24  1  0  0  0  0
 22 21  1  0  0  0  0
 24 25  1  6  0  0  0
 24 26  1  0  0  0  0
 26 27  1  0  0  0  0
 27 28  1  0  0  0  0
 29 33  1  6  0  0  0
 31 29  1  0  0  0  0
 31 30  1  0  0  0  0
 32 31  2  0  0  0  0
 33 36  1  0  0  0  0
 34 35  2  0  0  0  0
 35 42  1  0  0  0  0
 35 36  1  0  0  0  0
 37 38  1  0  0  0  0
 38 41  1  0  0  0  0
 38 39  2  0  0  0  0
 40 39  1  0  0  0  0
 42 40  2  0  0  0  0
 43 37  2  0  0  0  0
 43 42  1  0  0  0  0
M  END
>  <MODEL>
6

>  <REMARK>
 VINA RESULT:      -5.6      2.884      7.943
  Name = 
  19 active torsions:
  status: ('A' for Active; 'I' for Inactive)
    1  A    between atoms: C_1  and  C_14
    2  A    between atoms: C_1  and  C_18
    3  A    between atoms: C_3  and  C_12
    4  A    between atoms: C_5  and  O_6
    5  A    between atoms: O_6  and  C_22
    6  A    between atoms: O_10  and  C_18
    7  A    between atoms: C_11  and  C_26
    8  A    between atoms: C_11  and  N_34
    9  A    between atoms: C_14  and  C_38
   10  A    between atoms: C_16  and  C_41
   11  A    between atoms: C_19  and  C_26
   12  A    between atoms: C_20  and  C_37
   13  A    between atoms: C_21  and  O_23
   14  A    between atoms: C_21  and  P_36
   15  A    between atoms: C_22  and  C_27
   16  A    between atoms: O_23  and  C_41
   17  A    between atoms: C_25  and  C_38
   18  A    between atoms: C_26  and  C_30
   19  A    between atoms: C_27  and  P_36
                            x       y       z     vdW  Elec       q    Type
                         _______ _______ _______ _____ _____    ______ ____

>  <TORSDO>
F 19

$$$$
=
 OpenBabel11062418423D

 43 45  0  0  1  0  0  0  0  0999 V2000
  190.8360  174.2390  144.3670 C   0  0  2  0  0  3  0  0  0  0  0  0
  189.4650  174.4620  143.7060 C   0  0  1  0  0  3  0  0  0  0  0  0
  190.2490  175.6340  144.2640 C   0  0  1  0  0  3  0  0  0  0  0  0
  192.5780  172.7000  143.4790 C   0  0  0  0  0  1  0  0  0  0  0  0
  192.0170  174.1060  143.3990 C   0  0  2  0  0  3  0  0  0  0  0  0
  193.0280  175.0210  143.7200 O   0  0  0  0  0  0  0  0  0  0  0  0
  194.0620  174.7690  142.8120 C   0  0  0  0  0  2  0  0  0  0  0  0
  196.7740  174.9030  142.5430 O   0  0  0  0  0  0  0  0  0  0  0  0
  195.6840  175.0570  143.5790 P   0  0  1  0  0  0  0  0  0  0  0  0
  195.7460  176.6130  144.2400 O   0  0  0  0  0  1  0  0  0  0  0  0
  195.9090  173.8280  144.8940 C   0  0  0  0  0  2  0  0  0  0  0  0
  197.3600  173.3920  144.9230 C   0  0  0  0  0  2  0  0  0  0  0  0
  197.4450  172.0170  144.7070 O   0  0  0  0  0  0  0  0  0  0  0  0
  196.8160  169.9900  145.7940 C   0  0  2  0  0  3  0  0  0  0  0  0
  196.5230  171.4650  145.6040 C   0  0  2  0  0  3  0  0  0  0  0  0
  195.9390  170.1590  143.4820 C   0  0  0  0  0  1  0  0  0  0  0  0
  195.6270  170.4090  144.9500 C   0  0  1  0  0  3  0  0  0  0  0  0
  197.2230  168.4360  147.6790 C   0  0  0  0  0  1  0  0  0  0  0  0
  196.3390  169.5550  147.1670 C   0  0  2  0  0  3  0  0  0  0  0  0
  195.0230  169.1000  147.0860 O   0  0  0  0  0  1  0  0  0  0  0  0
  189.6980  176.0340  145.6250 C   0  0  0  0  0  2  0  0  0  0  0  0
  190.0990  175.0560  146.7340 C   0  0  2  0  0  3  0  0  0  0  0  0
  188.8710  174.6030  147.5040 C   0  0  0  0  0  1  0  0  0  0  0  0
  191.1680  175.6170  147.6820 C   0  0  1  0  0  3  0  0  0  0  0  0
  192.4470  175.3230  147.2030 O   0  0  0  0  0  1  0  0  0  0  0  0
  191.0310  177.1240  147.8780 C   0  0  0  0  0  2  0  0  0  0  0  0
  191.9620  177.5860  148.8120 O   0  0  0  0  0  0  0  0  0  0  0  0
  191.1930  178.2200  149.7850 C   0  0  0  0  0  1  0  0  0  0  0  0
  189.4950  174.4680  142.1710 C   0  0  1  0  0  3  0  0  0  0  0  0
  189.9440  172.3670  141.1060 O   0  0  0  0  0  0  0  0  0  0  0  0
  189.0890  173.1400  141.6140 C   0  0  0  0  0  0  0  0  0  0  0  0
  187.7570  172.7540  141.6660 O   0  0  0  0  0  1  0  0  0  0  0  0
  188.6890  175.6110  141.5560 C   0  0  0  0  0  2  0  0  0  0  0  0
  188.2360  178.3170  142.2550 O   0  0  0  0  0  0  0  0  0  0  0  0
  187.4920  177.4520  142.7950 C   0  0  0  0  0  0  0  0  0  0  0  0
  187.6480  176.0710  142.4650 N   0  0  0  0  0  2  0  0  0  0  0  0
  185.1700  177.4170  145.7750 C   0  0  0  0  0  3  0  0  0  0  0  0
  184.5380  178.6560  145.6450 C   0  0  0  0  0  0  0  0  0  0  0  0
  184.8700  179.5020  144.5820 C   0  0  0  0  0  3  0  0  0  0  0  0
  185.8330  179.1070  143.6510 C   0  0  0  0  0  3  0  0  0  0  0  0
  183.6060  179.0390  146.5500 F   0  0  0  0  0  0  0  0  0  0  0  0
  186.4720  177.8650  143.7740 C   0  0  0  0  0  0  0  0  0  0  0  0
  186.1330  177.0240  144.8440 C   0  0  0  0  0  3  0  0  0  0  0  0
  1  5  1  6  0  0  0
  2 29  1  6  0  0  0
  2  3  1  0  0  0  0
  2  1  1  0  0  0  0
  3  1  1  0  0  0  0
  3 21  1  1  0  0  0
  5  4  1  1  0  0  0
  5  6  1  0  0  0  0
  7  9  1  0  0  0  0
  7  6  1  0  0  0  0
  9  8  2  6  0  0  0
  9 10  1  0  0  0  0
  9 11  1  0  0  0  0
 11 12  1  0  0  0  0
 13 12  1  0  0  0  0
 14 19  1  1  0  0  0
 15 13  1  6  0  0  0
 15 14  1  0  0  0  0
 17 16  1  6  0  0  0
 17 15  1  0  0  0  0
 17 14  1  0  0  0  0
 19 18  1  6  0  0  0
 20 19  1  0  0  0  0
 21 22  1  0  0  0  0
 22 23  1  1  0  0  0
 22 24  1  0  0  0  0
 24 25  1  6  0  0  0
 24 26  1  0  0  0  0
 26 27  1  0  0  0  0
 27 28  1  0  0  0  0
 29 33  1  6  0  0  0
 30 31  2  0  0  0  0
 31 32  1  0  0  0  0
 31 29  1  0  0  0  0
 33 36  1  0  0  0  0
 34 35  2  0  0  0  0
 35 42  1  0  0  0  0
 36 35  1  0  0  0  0
 38 37  1  0  0  0  0
 38 41  1  0  0  0  0
 39 38  2  0  0  0  0
 40 42  2  0  0  0  0
 40 39  1  0  0  0  0
 42 43  1  0  0  0  0
 43 37  2  0  0  0  0
M  END
>  <MODEL>
7

>  <REMARK>
 VINA RESULT:      -5.6      2.072      3.036
  Name = 
  19 active torsions:
  status: ('A' for Active; 'I' for Inactive)
    1  A    between atoms: C_1  and  C_14
    2  A    between atoms: C_1  and  C_18
    3  A    between atoms: C_3  and  C_12
    4  A    between atoms: C_5  and  O_6
    5  A    between atoms: O_6  and  C_22
    6  A    between atoms: O_10  and  C_18
    7  A    between atoms: C_11  and  C_26
    8  A    between atoms: C_11  and  N_34
    9  A    between atoms: C_14  and  C_38
   10  A    between atoms: C_16  and  C_41
   11  A    between atoms: C_19  and  C_26
   12  A    between atoms: C_20  and  C_37
   13  A    between atoms: C_21  and  O_23
   14  A    between atoms: C_21  and  P_36
   15  A    between atoms: C_22  and  C_27
   16  A    between atoms: O_23  and  C_41
   17  A    between atoms: C_25  and  C_38
   18  A    between atoms: C_26  and  C_30
   19  A    between atoms: C_27  and  P_36
                            x       y       z     vdW  Elec       q    Type
                         _______ _______ _______ _____ _____    ______ ____

>  <TORSDO>
F 19

$$$$
=
 OpenBabel11062418423D

 43 45  0  0  1  0  0  0  0  0999 V2000
  190.7130  173.9230  143.1840 C   0  0  2  0  0  3  0  0  0  0  0  0
  189.2150  174.2300  143.0240 C   0  0  1  0  0  3  0  0  0  0  0  0
  190.1910  175.3340  143.3790 C   0  0  1  0  0  3  0  0  0  0  0  0
  191.9630  172.4180  141.6460 C   0  0  0  0  0  1  0  0  0  0  0  0
  191.5100  173.8460  141.8770 C   0  0  2  0  0  3  0  0  0  0  0  0
  192.6350  174.6800  141.9310 O   0  0  0  0  0  0  0  0  0  0  0  0
  193.1940  174.6360  140.6490 C   0  0  0  0  0  2  0  0  0  0  0  0
  195.5810  173.3140  140.6400 O   0  0  0  0  0  1  0  0  0  0  0  0
  195.0090  174.7090  140.7310 P   0  0  1  0  0  0  0  0  0  0  0  0
  195.6090  175.6520  139.4600 O   0  0  0  0  0  0  0  0  0  0  0  0
  195.4690  175.4610  142.3150 C   0  0  0  0  0  2  0  0  0  0  0  0
  196.8150  174.9150  142.7510 C   0  0  0  0  0  2  0  0  0  0  0  0
  196.7790  174.5970  144.1080 O   0  0  0  0  0  0  0  0  0  0  0  0
  195.4600  172.8180  144.9920 C   0  0  2  0  0  3  0  0  0  0  0  0
  196.6520  173.2040  144.1370 C   0  0  2  0  0  3  0  0  0  0  0  0
  197.1350  173.6720  146.6070 C   0  0  0  0  0  1  0  0  0  0  0  0
  196.8610  172.6240  145.5390 C   0  0  1  0  0  3  0  0  0  0  0  0
  193.4610  171.3580  144.9380 C   0  0  0  0  0  1  0  0  0  0  0  0
  194.9100  171.4870  144.5150 C   0  0  2  0  0  3  0  0  0  0  0  0
  195.6460  170.4450  145.0760 O   0  0  0  0  0  1  0  0  0  0  0  0
  190.1300  175.6300  144.8710 C   0  0  0  0  0  2  0  0  0  0  0  0
  191.1480  176.6900  145.3040 C   0  0  2  0  0  3  0  0  0  0  0  0
  191.7550  177.3630  144.0860 C   0  0  0  0  0  1  0  0  0  0  0  0
  192.2390  176.1400  146.2320 C   0  0  1  0  0  3  0  0  0  0  0  0
  191.8260  174.9370  146.8110 O   0  0  0  0  0  1  0  0  0  0  0  0
  193.5630  175.9260  145.5040 C   0  0  0  0  0  2  0  0  0  0  0  0
  194.6330  176.3530  146.2920 O   0  0  0  0  0  0  0  0  0  0  0  0
  194.9850  177.5930  145.7620 C   0  0  0  0  0  1  0  0  0  0  0  0
  188.7470  174.3630  141.5680 C   0  0  1  0  0  3  0  0  0  0  0  0
  187.3230  172.4610  141.8900 O   0  0  0  0  0  1  0  0  0  0  0  0
  188.0510  173.1230  141.1040 C   0  0  0  0  0  0  0  0  0  0  0  0
  188.2030  172.7040  139.7890 O   0  0  0  0  0  0  0  0  0  0  0  0
  187.9050  175.6130  141.3170 C   0  0  0  0  0  2  0  0  0  0  0  0
  187.5350  178.2850  142.1790 O   0  0  0  0  0  0  0  0  0  0  0  0
  187.0490  177.3740  142.9050 C   0  0  0  0  0  0  0  0  0  0  0  0
  187.1740  176.0060  142.5140 N   0  0  0  0  0  2  0  0  0  0  0  0
  185.6690  177.1350  146.4140 C   0  0  0  0  0  3  0  0  0  0  0  0
  185.0650  178.3870  146.5580 C   0  0  0  0  0  0  0  0  0  0  0  0
  185.1090  179.3080  145.5070 C   0  0  0  0  0  3  0  0  0  0  0  0
  185.7540  178.9760  144.3140 C   0  0  0  0  0  3  0  0  0  0  0  0
  184.4410  178.7080  147.7150 F   0  0  0  0  0  0  0  0  0  0  0  0
  186.3620  177.7210  144.1610 C   0  0  0  0  0  0  0  0  0  0  0  0
  186.3140  176.8040  145.2210 C   0  0  0  0  0  3  0  0  0  0  0  0
  1  5  1  6  0  0  0
  1  3  1  0  0  0  0
  2 29  1  6  0  0  0
  2  1  1  0  0  0  0
  2  3  1  0  0  0  0
  3 21  1  1  0  0  0
  5  4  1  1  0  0  0
  5  6  1  0  0  0  0
  7  9  1  0  0  0  0
  7  6  1  0  0  0  0
  8  9  1  0  0  0  0
  9 10  2  6  0  0  0
  9 11  1  0  0  0  0
 11 12  1  0  0  0  0
 12 13  1  0  0  0  0
 14 19  1  6  0  0  0
 14 17  1  0  0  0  0
 15 13  1  1  0  0  0
 15 14  1  0  0  0  0
 15 17  1  0  0  0  0
 17 16  1  1  0  0  0
 19 18  1  1  0  0  0
 19 20  1  0  0  0  0
 21 22  1  0  0  0  0
 22 23  1  6  0  0  0
 22 24  1  0  0  0  0
 24 25  1  6  0  0  0
 26 24  1  0  0  0  0
 26 27  1  0  0  0  0
 28 27  1  0  0  0  0
 29 33  1  1  0  0  0
 31 29  1  0  0  0  0
 31 30  1  0  0  0  0
 32 31  2  0  0  0  0
 33 36  1  0  0  0  0
 34 35  2  0  0  0  0
 35 42  1  0  0  0  0
 36 35  1  0  0  0  0
 37 38  1  0  0  0  0
 38 41  1  0  0  0  0
 39 38  2  0  0  0  0
 40 39  1  0  0  0  0
 42 40  2  0  0  0  0
 42 43  1  0  0  0  0
 43 37  2  0  0  0  0
M  END
>  <MODEL>
8

>  <REMARK>
 VINA RESULT:      -5.6      1.418      2.133
  Name = 
  19 active torsions:
  status: ('A' for Active; 'I' for Inactive)
    1  A    between atoms: C_1  and  C_14
    2  A    between atoms: C_1  and  C_18
    3  A    between atoms: C_3  and  C_12
    4  A    between atoms: C_5  and  O_6
    5  A    between atoms: O_6  and  C_22
    6  A    between atoms: O_10  and  C_18
    7  A    between atoms: C_11  and  C_26
    8  A    between atoms: C_11  and  N_34
    9  A    between atoms: C_14  and  C_38
   10  A    between atoms: C_16  and  C_41
   11  A    between atoms: C_19  and  C_26
   12  A    between atoms: C_20  and  C_37
   13  A    between atoms: C_21  and  O_23
   14  A    between atoms: C_21  and  P_36
   15  A    between atoms: C_22  and  C_27
   16  A    between atoms: O_23  and  C_41
   17  A    between atoms: C_25  and  C_38
   18  A    between atoms: C_26  and  C_30
   19  A    between atoms: C_27  and  P_36
                            x       y       z     vdW  Elec       q    Type
                         _______ _______ _______ _____ _____    ______ ____

>  <TORSDO>
F 19

$$$$
=
 OpenBabel11062418423D

 43 45  0  0  1  0  0  0  0  0999 V2000
  190.5760  173.9100  143.6250 C   0  0  2  0  0  3  0  0  0  0  0  0
  189.1710  174.2300  143.0880 C   0  0  1  0  0  3  0  0  0  0  0  0
  189.8590  175.1760  144.0520 C   0  0  1  0  0  3  0  0  0  0  0  0
  192.6340  173.0580  142.5160 C   0  0  0  0  0  1  0  0  0  0  0  0
  191.7340  174.2660  142.6860 C   0  0  2  0  0  3  0  0  0  0  0  0
  192.4860  175.3280  143.2050 O   0  0  0  0  0  0  0  0  0  0  0  0
  193.7790  174.8220  143.3740 C   0  0  0  0  0  2  0  0  0  0  0  0
  195.8740  176.5530  143.6230 O   0  0  0  0  0  0  0  0  0  0  0  0
  194.7700  175.9160  144.4350 P   0  0  1  0  0  0  0  0  0  0  0  0
  193.7880  177.1220  145.1020 O   0  0  0  0  0  1  0  0  0  0  0  0
  195.4860  174.9110  145.7630 C   0  0  0  0  0  2  0  0  0  0  0  0
  195.3810  173.4460  145.3890 C   0  0  0  0  0  2  0  0  0  0  0  0
  196.2960  172.7010  146.1320 O   0  0  0  0  0  0  0  0  0  0  0  0
  196.3120  171.1380  144.3310 C   0  0  2  0  0  3  0  0  0  0  0  0
  197.1220  172.1050  145.1720 C   0  0  2  0  0  3  0  0  0  0  0  0
  196.4660  170.0520  146.5530 C   0  0  0  0  0  1  0  0  0  0  0  0
  197.2650  170.5940  145.3770 C   0  0  1  0  0  3  0  0  0  0  0  0
  196.2340  171.9500  141.9930 C   0  0  0  0  0  1  0  0  0  0  0  0
  196.9410  171.0190  142.9560 C   0  0  2  0  0  3  0  0  0  0  0  0
  196.8220  169.7080  142.4960 O   0  0  0  0  0  1  0  0  0  0  0  0
  189.3160  174.9800  145.4590 C   0  0  0  0  0  2  0  0  0  0  0  0
  189.7280  176.1050  146.4130 C   0  0  2  0  0  3  0  0  0  0  0  0
  190.0280  177.3730  145.6320 C   0  0  0  0  0  1  0  0  0  0  0  0
  190.9030  175.7290  147.3260 C   0  0  1  0  0  3  0  0  0  0  0  0
  191.8120  174.9200  146.6400 O   0  0  0  0  0  1  0  0  0  0  0  0
  191.6250  176.9560  147.8730 C   0  0  0  0  0  2  0  0  0  0  0  0
  191.5670  176.9810  149.2680 O   0  0  0  0  0  0  0  0  0  0  0  0
  191.2060  178.2900  149.5790 C   0  0  0  0  0  1  0  0  0  0  0  0
  189.1530  174.8160  141.6680 C   0  0  1  0  0  3  0  0  0  0  0  0
  188.9990  172.5510  140.8950 O   0  0  0  0  0  1  0  0  0  0  0  0
  188.8060  173.7720  140.6540 C   0  0  0  0  0  0  0  0  0  0  0  0
  188.2560  174.1550  139.4380 O   0  0  0  0  0  0  0  0  0  0  0  0
  188.2640  176.0520  141.5370 C   0  0  0  0  0  2  0  0  0  0  0  0
  187.1480  178.5520  142.2560 O   0  0  0  0  0  0  0  0  0  0  0  0
  187.0220  177.6080  143.0830 C   0  0  0  0  0  0  0  0  0  0  0  0
  187.5370  176.3120  142.7710 N   0  0  0  0  0  2  0  0  0  0  0  0
  185.2930  179.3570  145.9510 C   0  0  0  0  0  3  0  0  0  0  0  0
  185.0720  178.2930  146.8290 C   0  0  0  0  0  0  0  0  0  0  0  0
  185.4880  177.0040  146.4830 C   0  0  0  0  0  3  0  0  0  0  0  0
  186.1270  176.7810  145.2610 C   0  0  0  0  0  3  0  0  0  0  0  0
  184.4510  178.5090  148.0120 F   0  0  0  0  0  0  0  0  0  0  0  0
  186.3540  177.8440  144.3750 C   0  0  0  0  0  0  0  0  0  0  0  0
  185.9320  179.1330  144.7300 C   0  0  0  0  0  3  0  0  0  0  0  0
  1  5  1  6  0  0  0
  1  3  1  0  0  0  0
  2 29  1  6  0  0  0
  2  1  1  0  0  0  0
  2  3  1  0  0  0  0
  3 21  1  1  0  0  0
  5  4  1  1  0  0  0
  5  6  1  0  0  0  0
  6  7  1  0  0  0  0
  7  9  1  0  0  0  0
  9  8  2  6  0  0  0
  9 10  1  0  0  0  0
  9 11  1  0  0  0  0
 12 11  1  0  0  0  0
 12 13  1  0  0  0  0
 14 19  1  6  0  0  0
 14 15  1  0  0  0  0
 14 17  1  0  0  0  0
 15 17  1  0  0  0  0
 15 13  1  1  0  0  0
 17 16  1  1  0  0  0
 19 18  1  6  0  0  0
 20 19  1  0  0  0  0
 21 22  1  0  0  0  0
 22 23  1  6  0  0  0
 22 24  1  0  0  0  0
 24 25  1  6  0  0  0
 24 26  1  0  0  0  0
 26 27  1  0  0  0  0
 27 28  1  0  0  0  0
 29 33  1  1  0  0  0
 31 30  1  0  0  0  0
 31 29  1  0  0  0  0
 32 31  2  0  0  0  0
 33 36  1  0  0  0  0
 34 35  2  0  0  0  0
 35 42  1  0  0  0  0
 36 35  1  0  0  0  0
 37 38  1  0  0  0  0
 38 41  1  0  0  0  0
 39 38  2  0  0  0  0
 40 39  1  0  0  0  0
 42 43  1  0  0  0  0
 42 40  2  0  0  0  0
 43 37  2  0  0  0  0
M  END
>  <MODEL>
9

>  <REMARK>
 VINA RESULT:      -5.6      1.750      2.790
  Name = 
  19 active torsions:
  status: ('A' for Active; 'I' for Inactive)
    1  A    between atoms: C_1  and  C_14
    2  A    between atoms: C_1  and  C_18
    3  A    between atoms: C_3  and  C_12
    4  A    between atoms: C_5  and  O_6
    5  A    between atoms: O_6  and  C_22
    6  A    between atoms: O_10  and  C_18
    7  A    between atoms: C_11  and  C_26
    8  A    between atoms: C_11  and  N_34
    9  A    between atoms: C_14  and  C_38
   10  A    between atoms: C_16  and  C_41
   11  A    between atoms: C_19  and  C_26
   12  A    between atoms: C_20  and  C_37
   13  A    between atoms: C_21  and  O_23
   14  A    between atoms: C_21  and  P_36
   15  A    between atoms: C_22  and  C_27
   16  A    between atoms: O_23  and  C_41
   17  A    between atoms: C_25  and  C_38
   18  A    between atoms: C_26  and  C_30
   19  A    between atoms: C_27  and  P_36
                            x       y       z     vdW  Elec       q    Type
                         _______ _______ _______ _____ _____    ______ ____

>  <TORSDO>
F 19

$$$$
