=
 OpenBabel11072408333D

 26 30  0  0  1  0  0  0  0  0999 V2000
  190.5450  177.0080  147.5630 N   0  0  0  0  0  1  0  0  0  0  0  0
  188.2800  177.7660  147.4120 N   0  0  0  0  0  0  0  0  0  0  0  0
  189.1510  176.4640  145.5890 C   0  0  0  0  0  0  0  0  0  0  0  0
  187.7780  176.1660  143.5710 N   0  0  0  0  0  2  0  0  0  0  0  0
  186.8620  177.2830  145.5600 C   0  0  0  0  0  0  0  0  0  0  0  0
  187.9130  176.5970  144.9330 C   0  0  0  0  0  0  0  0  0  0  0  0
  187.0820  176.7520  141.2980 C   0  0  0  0  0  0  0  0  0  0  0  0
  184.3840  178.9120  140.0980 F   0  0  0  0  0  0  0  0  0  0  0  0
  184.8920  178.1740  142.3050 C   0  0  0  0  0  3  0  0  0  0  0  0
  185.1760  178.2040  140.9370 C   0  0  0  0  0  0  0  0  0  0  0  0
  186.8230  176.7490  142.6750 C   0  0  0  0  0  0  0  0  0  0  0  0
  185.2030  177.2400  144.8810 S   0  0  0  0  0  0  0  0  0  0  0  0
  188.1580  176.0940  140.8010 F   0  0  0  0  0  0  0  0  0  0  0  0
  189.3110  177.0770  146.8560 C   0  0  0  0  0  0  0  0  0  0  0  0
  185.7080  177.4450  143.1750 C   0  0  0  0  0  0  0  0  0  0  0  0
  187.0710  177.8700  146.8040 C   0  0  0  0  0  3  0  0  0  0  0  0
  186.2610  177.4830  140.4330 C   0  0  0  0  0  3  0  0  0  0  0  0
  190.8280  174.5620  145.6640 C   0  0  0  0  0  2  0  0  0  0  0  0
  191.8120  176.6670  144.8000 S   0  0  0  0  0  0  0  0  0  0  0  0
  192.2330  175.1340  145.6930 C   0  0  2  0  0  3  0  0  0  0  0  0
  190.2610  175.7230  144.8740 C   0  0  2  0  0  3  0  0  0  0  0  0
  194.5830  174.4670  145.1890 C   0  0  0  0  0  0  0  0  0  0  0  0
  193.1570  174.2800  144.8380 C   0  0  1  0  0  3  0  0  0  0  0  0
  193.8520  173.3660  145.6640 O   0  0  0  0  0  0  0  0  0  0  0  0
  194.9700  175.3170  146.2290 O   0  0  0  0  0  1  0  0  0  0  0  0
  195.5610  174.0770  144.2760 O   0  0  0  0  0  1  0  0  0  0  0  0
  3 14  2  0  0  0  0
  4  6  1  0  0  0  0
  5 16  1  0  0  0  0
  6  5  2  0  0  0  0
  6  3  1  0  0  0  0
  7 11  1  0  0  0  0
  8 10  1  0  0  0  0
  9 15  1  0  0  0  0
 10  9  2  0  0  0  0
 11 15  2  0  0  0  0
 11  4  1  0  0  0  0
 12  5  1  0  0  0  0
 13  7  1  0  0  0  0
 14  2  1  0  0  0  0
 14  1  1  0  0  0  0
 15 12  1  0  0  0  0
 16  2  2  0  0  0  0
 17 10  1  0  0  0  0
 17  7  2  0  0  0  0
 19 21  1  0  0  0  0
 19 20  1  0  0  0  0
 20 18  1  6  0  0  0
 21  3  1  1  0  0  0
 21 18  1  0  0  0  0
 22 24  1  0  0  0  0
 22 25  1  0  0  0  0
 23 22  1  0  0  0  0
 23 24  1  1  0  0  0
 23 20  1  0  0  0  0
 26 22  1  0  0  0  0
M  END
>  <MODEL>
1

>  <REMARK>
 VINA RESULT:      -7.2      0.000      0.000
  Name = 
  2 active torsions:
  status: ('A' for Active; 'I' for Inactive)
    1  A    between atoms: C_4  and  C_26
    2  A    between atoms: C_16  and  C_21
                            x       y       z     vdW  Elec       q    Type
                         _______ _______ _______ _____ _____    ______ ____

>  <TORSDO>
F 2

$$$$
=
 OpenBabel11072408333D

 26 30  0  0  1  0  0  0  0  0999 V2000
  190.6990  174.1150  141.7880 N   0  0  0  0  0  1  0  0  0  0  0  0
  188.6780  175.1360  141.0110 N   0  0  0  0  0  0  0  0  0  0  0  0
  189.6100  175.9250  143.0810 C   0  0  0  0  0  0  0  0  0  0  0  0
  188.3450  177.5610  144.4130 N   0  0  0  0  0  2  0  0  0  0  0  0
  187.5670  176.8890  142.1810 C   0  0  0  0  0  0  0  0  0  0  0  0
  188.5330  176.8250  143.1960 C   0  0  0  0  0  0  0  0  0  0  0  0
  186.8030  178.1890  146.2080 C   0  0  0  0  0  0  0  0  0  0  0  0
  183.1930  178.7820  146.1700 F   0  0  0  0  0  0  0  0  0  0  0  0
  184.7050  178.4030  144.3690 C   0  0  0  0  0  3  0  0  0  0  0  0
  184.4520  178.5370  145.7360 C   0  0  0  0  0  0  0  0  0  0  0  0
  187.0560  178.0170  144.8400 C   0  0  0  0  0  0  0  0  0  0  0  0
  186.3420  178.1990  142.1590 S   0  0  0  0  0  0  0  0  0  0  0  0
  187.8040  178.0560  147.1130 F   0  0  0  0  0  0  0  0  0  0  0  0
  189.6550  175.0700  141.9540 C   0  0  0  0  0  0  0  0  0  0  0  0
  186.0030  178.1480  143.9170 C   0  0  0  0  0  0  0  0  0  0  0  0
  187.6550  176.0240  141.0940 C   0  0  0  0  0  3  0  0  0  0  0  0
  185.5020  178.4440  146.6530 C   0  0  0  0  0  3  0  0  0  0  0  0
  191.8490  176.7410  143.9510 C   0  0  0  0  0  2  0  0  0  0  0  0
  191.5250  174.3070  144.2870 S   0  0  0  0  0  0  0  0  0  0  0  0
  192.8120  175.5720  144.0270 C   0  0  2  0  0  3  0  0  0  0  0  0
  190.6260  175.8840  144.2020 C   0  0  2  0  0  3  0  0  0  0  0  0
  195.0010  175.0590  145.1090 C   0  0  0  0  0  0  0  0  0  0  0  0
  193.6720  175.6910  145.2770 C   0  0  1  0  0  3  0  0  0  0  0  0
  194.8310  176.4470  144.9800 O   0  0  0  0  0  0  0  0  0  0  0  0
  195.3770  174.4710  143.8990 O   0  0  0  0  0  1  0  0  0  0  0  0
  195.7440  174.7370  146.2430 O   0  0  0  0  0  1  0  0  0  0  0  0
  1 14  1  0  0  0  0
  2 16  2  0  0  0  0
  2 14  1  0  0  0  0
  3  6  1  0  0  0  0
  4 11  1  0  0  0  0
  5  6  2  0  0  0  0
  6  4  1  0  0  0  0
  7 17  1  0  0  0  0
  7 13  1  0  0  0  0
  9 10  1  0  0  0  0
 10  8  1  0  0  0  0
 10 17  2  0  0  0  0
 11  7  2  0  0  0  0
 12  5  1  0  0  0  0
 12 15  1  0  0  0  0
 14  3  2  0  0  0  0
 15  9  2  0  0  0  0
 15 11  1  0  0  0  0
 16  5  1  0  0  0  0
 18 21  1  0  0  0  0
 20 18  1  1  0  0  0
 20 19  1  0  0  0  0
 20 23  1  0  0  0  0
 21  3  1  6  0  0  0
 21 19  1  0  0  0  0
 22 23  1  0  0  0  0
 22 26  1  0  0  0  0
 23 24  1  6  0  0  0
 24 22  1  0  0  0  0
 25 22  1  0  0  0  0
M  END
>  <MODEL>
2

>  <REMARK>
 VINA RESULT:      -7.1      2.623      4.002
  Name = 
  2 active torsions:
  status: ('A' for Active; 'I' for Inactive)
    1  A    between atoms: C_4  and  C_26
    2  A    between atoms: C_16  and  C_21
                            x       y       z     vdW  Elec       q    Type
                         _______ _______ _______ _____ _____    ______ ____

>  <TORSDO>
F 2

$$$$
=
 OpenBabel11072408333D

 26 30  0  0  1  0  0  0  0  0999 V2000
  189.9240  173.6010  141.1520 N   0  0  0  0  0  1  0  0  0  0  0  0
  188.2690  175.2300  140.5740 N   0  0  0  0  0  0  0  0  0  0  0  0
  189.1710  175.2890  142.8000 C   0  0  0  0  0  0  0  0  0  0  0  0
  188.2040  176.8480  144.4390 N   0  0  0  0  0  2  0  0  0  0  0  0
  187.4920  176.8970  142.0870 C   0  0  0  0  0  0  0  0  0  0  0  0
  188.3250  176.3760  143.0890 C   0  0  0  0  0  0  0  0  0  0  0  0
  186.6950  177.4210  146.2800 C   0  0  0  0  0  0  0  0  0  0  0  0
  183.3370  178.8710  146.2660 F   0  0  0  0  0  0  0  0  0  0  0  0
  184.8740  178.5410  144.4760 C   0  0  0  0  0  3  0  0  0  0  0  0
  184.5390  178.4280  145.8280 C   0  0  0  0  0  0  0  0  0  0  0  0
  187.0220  177.4990  144.9200 C   0  0  0  0  0  0  0  0  0  0  0  0
  186.6090  178.4380  142.3350 S   0  0  0  0  0  0  0  0  0  0  0  0
  187.5560  176.8500  147.1600 F   0  0  0  0  0  0  0  0  0  0  0  0
  189.1180  174.7200  141.5050 C   0  0  0  0  0  0  0  0  0  0  0  0
  186.1130  178.0840  144.0190 C   0  0  0  0  0  0  0  0  0  0  0  0
  187.4750  176.2990  140.8300 C   0  0  0  0  0  3  0  0  0  0  0  0
  185.4540  177.8810  146.7310 C   0  0  0  0  0  3  0  0  0  0  0  0
  191.5200  175.0610  143.7330 C   0  0  0  0  0  2  0  0  0  0  0  0
  190.2330  172.9470  143.8620 S   0  0  0  0  0  0  0  0  0  0  0  0
  191.9280  173.6000  143.7090 C   0  0  2  0  0  3  0  0  0  0  0  0
  190.0480  174.7540  143.9120 C   0  0  2  0  0  3  0  0  0  0  0  0
  193.6860  172.1630  144.7410 C   0  0  0  0  0  0  0  0  0  0  0  0
  192.7220  173.2640  144.9620 C   0  0  1  0  0  3  0  0  0  0  0  0
  194.0960  173.5060  144.7280 O   0  0  0  0  0  0  0  0  0  0  0  0
  193.8310  171.5670  143.4850 O   0  0  0  0  0  1  0  0  0  0  0  0
  194.1980  171.4810  145.8430 O   0  0  0  0  0  1  0  0  0  0  0  0
  1 14  1  0  0  0  0
  2 16  2  0  0  0  0
  2 14  1  0  0  0  0
  3  6  1  0  0  0  0
  4 11  1  0  0  0  0
  5 12  1  0  0  0  0
  5  6  2  0  0  0  0
  6  4  1  0  0  0  0
  7 17  1  0  0  0  0
  7 13  1  0  0  0  0
  9 10  1  0  0  0  0
 10  8  1  0  0  0  0
 10 17  2  0  0  0  0
 11  7  2  0  0  0  0
 12 15  1  0  0  0  0
 14  3  2  0  0  0  0
 15  9  2  0  0  0  0
 15 11  1  0  0  0  0
 16  5  1  0  0  0  0
 18 21  1  0  0  0  0
 19 21  1  0  0  0  0
 20 18  1  1  0  0  0
 20 19  1  0  0  0  0
 20 23  1  0  0  0  0
 21  3  1  6  0  0  0
 22 23  1  0  0  0  0
 22 26  1  0  0  0  0
 23 24  1  6  0  0  0
 24 22  1  0  0  0  0
 25 22  1  0  0  0  0
M  END
>  <MODEL>
3

>  <REMARK>
 VINA RESULT:      -6.9      2.750      4.254
  Name = 
  2 active torsions:
  status: ('A' for Active; 'I' for Inactive)
    1  A    between atoms: C_4  and  C_26
    2  A    between atoms: C_16  and  C_21
                            x       y       z     vdW  Elec       q    Type
                         _______ _______ _______ _____ _____    ______ ____

>  <TORSDO>
F 2

$$$$
=
 OpenBabel11072408333D

 26 30  0  0  1  0  0  0  0  0999 V2000
  188.2720  175.0730  141.2400 N   0  0  0  0  0  1  0  0  0  0  0  0
  189.9090  173.3410  141.4670 N   0  0  0  0  0  0  0  0  0  0  0  0
  189.7630  174.9840  143.2160 C   0  0  0  0  0  0  0  0  0  0  0  0
  191.4300  174.9530  145.0240 N   0  0  0  0  0  2  0  0  0  0  0  0
  191.3770  173.1680  143.3350 C   0  0  0  0  0  0  0  0  0  0  0  0
  190.8220  174.3370  143.8800 C   0  0  0  0  0  0  0  0  0  0  0  0
  193.5070  175.6900  146.0910 C   0  0  0  0  0  0  0  0  0  0  0  0
  196.8850  174.2900  145.9870 F   0  0  0  0  0  0  0  0  0  0  0  0
  194.8370  173.4230  145.1320 C   0  0  0  0  0  3  0  0  0  0  0  0
  195.5510  174.4230  145.7970 C   0  0  0  0  0  0  0  0  0  0  0  0
  192.7930  174.7070  145.3930 C   0  0  0  0  0  0  0  0  0  0  0  0
  192.5320  172.1730  144.2790 S   0  0  0  0  0  0  0  0  0  0  0  0
  192.8810  176.8090  146.5330 F   0  0  0  0  0  0  0  0  0  0  0  0
  189.3190  174.4540  141.9800 C   0  0  0  0  0  0  0  0  0  0  0  0
  193.4600  173.5580  144.9320 C   0  0  0  0  0  0  0  0  0  0  0  0
  190.9070  172.6900  142.1160 C   0  0  0  0  0  3  0  0  0  0  0  0
  194.8840  175.5490  146.2870 C   0  0  0  0  0  3  0  0  0  0  0  0
  187.8080  176.0760  144.4090 C   0  0  0  0  0  2  0  0  0  0  0  0
  188.7330  177.4940  142.5990 S   0  0  0  0  0  0  0  0  0  0  0  0
  187.1940  177.1270  143.5040 C   0  0  2  0  0  3  0  0  0  0  0  0
  189.1990  176.2450  143.8340 C   0  0  2  0  0  3  0  0  0  0  0  0
  185.7280  179.1400  143.6610 C   0  0  0  0  0  0  0  0  0  0  0  0
  186.7820  178.3390  144.3260 C   0  0  1  0  0  3  0  0  0  0  0  0
  185.4170  178.2250  144.6800 O   0  0  0  0  0  0  0  0  0  0  0  0
  185.1860  178.7490  142.4330 O   0  0  0  0  0  1  0  0  0  0  0  0
  185.5190  180.4550  144.0700 O   0  0  0  0  0  1  0  0  0  0  0  0
  1 14  1  0  0  0  0
  2 14  2  0  0  0  0
  2 16  1  0  0  0  0
  3  6  2  0  0  0  0
  4 11  1  0  0  0  0
  5  6  1  0  0  0  0
  5 12  1  0  0  0  0
  6  4  1  0  0  0  0
  7 17  1  0  0  0  0
  7 13  1  0  0  0  0
  9 10  1  0  0  0  0
 10  8  1  0  0  0  0
 10 17  2  0  0  0  0
 11  7  2  0  0  0  0
 12 15  1  0  0  0  0
 14  3  1  0  0  0  0
 15  9  2  0  0  0  0
 15 11  1  0  0  0  0
 16  5  2  0  0  0  0
 19 20  1  0  0  0  0
 19 21  1  0  0  0  0
 20 23  1  0  0  0  0
 20 18  1  1  0  0  0
 21  3  1  6  0  0  0
 21 18  1  0  0  0  0
 22 26  1  0  0  0  0
 22 23  1  0  0  0  0
 22 24  1  0  0  0  0
 23 24  1  1  0  0  0
 25 22  1  0  0  0  0
M  END
>  <MODEL>
4

>  <REMARK>
 VINA RESULT:      -6.7      4.913      8.303
  Name = 
  2 active torsions:
  status: ('A' for Active; 'I' for Inactive)
    1  A    between atoms: C_4  and  C_26
    2  A    between atoms: C_16  and  C_21
                            x       y       z     vdW  Elec       q    Type
                         _______ _______ _______ _____ _____    ______ ____

>  <TORSDO>
F 2

$$$$
=
 OpenBabel11072408333D

 26 30  0  0  1  0  0  0  0  0999 V2000
  187.6360  175.6120  142.8750 N   0  0  0  0  0  1  0  0  0  0  0  0
  189.2450  173.9210  142.3470 N   0  0  0  0  0  0  0  0  0  0  0  0
  189.5660  175.1830  144.3670 C   0  0  0  0  0  0  0  0  0  0  0  0
  191.6270  174.8500  145.6670 N   0  0  0  0  0  2  0  0  0  0  0  0
  191.1260  173.4310  143.7240 C   0  0  0  0  0  0  0  0  0  0  0  0
  190.7450  174.4520  144.6090 C   0  0  0  0  0  0  0  0  0  0  0  0
  193.9160  175.4280  146.3160 C   0  0  0  0  0  0  0  0  0  0  0  0
  197.1380  174.1820  145.1100 F   0  0  0  0  0  0  0  0  0  0  0  0
  194.9270  173.4370  144.6300 C   0  0  0  0  0  3  0  0  0  0  0  0
  195.8010  174.3090  145.2840 C   0  0  0  0  0  0  0  0  0  0  0  0
  193.0340  174.5790  145.6340 C   0  0  0  0  0  0  0  0  0  0  0  0
  192.4590  172.3060  144.1390 S   0  0  0  0  0  0  0  0  0  0  0  0
  193.4390  176.4180  147.1100 F   0  0  0  0  0  0  0  0  0  0  0  0
  188.8210  174.8920  143.1980 C   0  0  0  0  0  0  0  0  0  0  0  0
  193.5460  173.5650  144.8060 C   0  0  0  0  0  0  0  0  0  0  0  0
  190.3600  173.1870  142.5880 C   0  0  0  0  0  3  0  0  0  0  0  0
  195.2970  175.2940  146.1360 C   0  0  0  0  0  3  0  0  0  0  0  0
  188.2770  175.8230  146.4560 C   0  0  0  0  0  2  0  0  0  0  0  0
  188.0390  177.4930  144.6390 S   0  0  0  0  0  0  0  0  0  0  0  0
  187.1730  176.7960  146.0840 C   0  0  2  0  0  3  0  0  0  0  0  0
  189.1960  176.2800  145.3420 C   0  0  2  0  0  3  0  0  0  0  0  0
  185.7330  178.5580  147.1050 C   0  0  0  0  0  0  0  0  0  0  0  0
  187.0370  177.8600  147.1630 C   0  0  1  0  0  3  0  0  0  0  0  0
  185.9670  177.5230  148.0250 O   0  0  0  0  0  0  0  0  0  0  0  0
  184.7610  178.2040  146.1650 O   0  0  0  0  0  1  0  0  0  0  0  0
  185.5960  179.7900  147.7420 O   0  0  0  0  0  1  0  0  0  0  0  0
  1 14  1  0  0  0  0
  2 16  2  0  0  0  0
  2 14  1  0  0  0  0
  3  6  1  0  0  0  0
  5 12  1  0  0  0  0
  5  6  2  0  0  0  0
  6  4  1  0  0  0  0
  7 13  1  0  0  0  0
  8 10  1  0  0  0  0
  9 15  2  0  0  0  0
  9 10  1  0  0  0  0
 10 17  2  0  0  0  0
 11  4  1  0  0  0  0
 11  7  2  0  0  0  0
 12 15  1  0  0  0  0
 14  3  2  0  0  0  0
 15 11  1  0  0  0  0
 16  5  1  0  0  0  0
 17  7  1  0  0  0  0
 19 21  1  0  0  0  0
 19 20  1  0  0  0  0
 20 18  1  1  0  0  0
 20 23  1  0  0  0  0
 21  3  1  6  0  0  0
 21 18  1  0  0  0  0
 22 23  1  0  0  0  0
 22 26  1  0  0  0  0
 22 24  1  0  0  0  0
 23 24  1  1  0  0  0
 25 22  1  0  0  0  0
M  END
>  <MODEL>
5

>  <REMARK>
 VINA RESULT:      -6.7      5.056      8.135
  Name = 
  2 active torsions:
  status: ('A' for Active; 'I' for Inactive)
    1  A    between atoms: C_4  and  C_26
    2  A    between atoms: C_16  and  C_21
                            x       y       z     vdW  Elec       q    Type
                         _______ _______ _______ _____ _____    ______ ____

>  <TORSDO>
F 2

$$$$
=
 OpenBabel11072408333D

 26 30  0  0  1  0  0  0  0  0999 V2000
  193.4910  175.7160  146.2490 N   0  0  0  0  0  1  0  0  0  0  0  0
  191.5800  176.4440  147.4920 N   0  0  0  0  0  0  0  0  0  0  0  0
  191.2680  175.9020  145.1720 C   0  0  0  0  0  0  0  0  0  0  0  0
  189.0830  176.3330  144.1280 N   0  0  0  0  0  2  0  0  0  0  0  0
  189.4040  176.6430  146.5460 C   0  0  0  0  0  0  0  0  0  0  0  0
  189.9090  176.2450  145.2980 C   0  0  0  0  0  0  0  0  0  0  0  0
  187.5160  177.6910  142.8270 C   0  0  0  0  0  0  0  0  0  0  0  0
  184.9740  180.0990  143.8880 F   0  0  0  0  0  0  0  0  0  0  0  0
  186.3230  178.6210  145.1810 C   0  0  0  0  0  3  0  0  0  0  0  0
  185.9350  179.1470  143.9460 C   0  0  0  0  0  0  0  0  0  0  0  0
  187.9340  177.1860  144.0660 C   0  0  0  0  0  0  0  0  0  0  0  0
  187.6390  176.8240  146.8070 S   0  0  0  0  0  0  0  0  0  0  0  0
  188.1080  177.2730  141.6810 F   0  0  0  0  0  0  0  0  0  0  0  0
  192.1010  176.0180  146.3120 C   0  0  0  0  0  0  0  0  0  0  0  0
  187.3160  177.6390  145.2450 C   0  0  0  0  0  0  0  0  0  0  0  0
  190.2650  176.7430  147.6340 C   0  0  0  0  0  3  0  0  0  0  0  0
  186.5220  178.6730  142.7700 C   0  0  0  0  0  3  0  0  0  0  0  0
  193.0530  174.6760  143.8490 C   0  0  0  0  0  2  0  0  0  0  0  0
  192.4670  176.8690  142.8540 S   0  0  0  0  0  0  0  0  0  0  0  0
  193.8350  175.6750  143.0180 C   0  0  2  0  0  3  0  0  0  0  0  0
  191.7740  175.4850  143.8070 C   0  0  2  0  0  3  0  0  0  0  0  0
  195.2990  175.7510  141.0000 C   0  0  0  0  0  0  0  0  0  0  0  0
  194.1570  175.0760  141.6570 C   0  0  1  0  0  3  0  0  0  0  0  0
  195.4640  174.5330  141.6800 O   0  0  0  0  0  0  0  0  0  0  0  0
  195.9880  176.7910  141.6300 O   0  0  0  0  0  1  0  0  0  0  0  0
  195.4750  175.5990  139.6260 O   0  0  0  0  0  1  0  0  0  0  0  0
  1 14  1  0  0  0  0
  2 16  1  0  0  0  0
  3  6  2  0  0  0  0
  3 14  1  0  0  0  0
  4  6  1  0  0  0  0
  5 12  1  0  0  0  0
  5 16  2  0  0  0  0
  6  5  1  0  0  0  0
  7 11  1  0  0  0  0
  8 10  1  0  0  0  0
  9 15  1  0  0  0  0
 10  9  2  0  0  0  0
 11  4  1  0  0  0  0
 11 15  2  0  0  0  0
 13  7  1  0  0  0  0
 14  2  2  0  0  0  0
 15 12  1  0  0  0  0
 17  7  2  0  0  0  0
 17 10  1  0  0  0  0
 19 20  1  0  0  0  0
 19 21  1  0  0  0  0
 20 18  1  1  0  0  0
 21 18  1  0  0  0  0
 21  3  1  1  0  0  0
 22 25  1  0  0  0  0
 22 23  1  0  0  0  0
 22 24  1  0  0  0  0
 23 24  1  1  0  0  0
 23 20  1  0  0  0  0
 26 22  1  0  0  0  0
M  END
>  <MODEL>
6

>  <REMARK>
 VINA RESULT:      -6.6      2.410      3.166
  Name = 
  2 active torsions:
  status: ('A' for Active; 'I' for Inactive)
    1  A    between atoms: C_4  and  C_26
    2  A    between atoms: C_16  and  C_21
                            x       y       z     vdW  Elec       q    Type
                         _______ _______ _______ _____ _____    ______ ____

>  <TORSDO>
F 2

$$$$
=
 OpenBabel11072408333D

 26 30  0  0  1  0  0  0  0  0999 V2000
  190.5830  172.9810  141.2870 N   0  0  0  0  0  1  0  0  0  0  0  0
  188.7990  174.0360  140.0900 N   0  0  0  0  0  0  0  0  0  0  0  0
  189.5740  175.0900  142.1060 C   0  0  0  0  0  0  0  0  0  0  0  0
  188.3670  177.0520  142.9680 N   0  0  0  0  0  2  0  0  0  0  0  0
  187.7750  176.0680  140.7940 C   0  0  0  0  0  0  0  0  0  0  0  0
  188.6050  176.0950  141.9260 C   0  0  0  0  0  0  0  0  0  0  0  0
  186.7150  178.1380  144.4120 C   0  0  0  0  0  0  0  0  0  0  0  0
  183.2280  179.0590  143.7960 F   0  0  0  0  0  0  0  0  0  0  0  0
  184.8810  178.2180  142.3000 C   0  0  0  0  0  3  0  0  0  0  0  0
  184.4910  178.6200  143.5800 C   0  0  0  0  0  0  0  0  0  0  0  0
  187.1000  177.6990  143.1380 C   0  0  0  0  0  0  0  0  0  0  0  0
  186.7240  177.4650  140.3920 S   0  0  0  0  0  0  0  0  0  0  0  0
  187.5840  178.0730  145.4510 F   0  0  0  0  0  0  0  0  0  0  0  0
  189.6470  174.0460  141.1520 C   0  0  0  0  0  0  0  0  0  0  0  0
  186.1830  177.7630  142.0740 C   0  0  0  0  0  0  0  0  0  0  0  0
  187.8850  175.0180  139.8880 C   0  0  0  0  0  3  0  0  0  0  0  0
  185.4110  178.5920  144.6310 C   0  0  0  0  0  3  0  0  0  0  0  0
  189.7400  174.7100  144.6090 C   0  0  0  0  0  2  0  0  0  0  0  0
  190.7640  176.8540  143.9000 S   0  0  0  0  0  0  0  0  0  0  0  0
  189.9320  176.0440  145.3050 C   0  0  2  0  0  3  0  0  0  0  0  0
  190.4440  175.1530  143.3430 C   0  0  2  0  0  3  0  0  0  0  0  0
  190.6560  176.8580  147.5500 C   0  0  0  0  0  0  0  0  0  0  0  0
  190.9110  175.8890  146.4600 C   0  0  1  0  0  3  0  0  0  0  0  0
  190.2040  175.5310  147.6320 O   0  0  0  0  0  0  0  0  0  0  0  0
  189.5930  177.7620  147.4830 O   0  0  0  0  0  1  0  0  0  0  0  0
  191.6650  177.1140  148.4760 O   0  0  0  0  0  1  0  0  0  0  0  0
  2 14  1  0  0  0  0
  4 11  1  0  0  0  0
  5  6  2  0  0  0  0
  6  3  1  0  0  0  0
  6  4  1  0  0  0  0
  7 17  1  0  0  0  0
  7 13  1  0  0  0  0
  9 10  1  0  0  0  0
 10  8  1  0  0  0  0
 10 17  2  0  0  0  0
 11  7  2  0  0  0  0
 12  5  1  0  0  0  0
 12 15  1  0  0  0  0
 14  1  1  0  0  0  0
 14  3  2  0  0  0  0
 15  9  2  0  0  0  0
 15 11  1  0  0  0  0
 16  2  2  0  0  0  0
 16  5  1  0  0  0  0
 19 20  1  0  0  0  0
 20 18  1  6  0  0  0
 20 23  1  0  0  0  0
 21  3  1  6  0  0  0
 21 19  1  0  0  0  0
 21 18  1  0  0  0  0
 22 24  1  0  0  0  0
 22 26  1  0  0  0  0
 23 22  1  0  0  0  0
 23 24  1  1  0  0  0
 25 22  1  0  0  0  0
M  END
>  <MODEL>
7

>  <REMARK>
 VINA RESULT:      -6.6      3.120      4.507
  Name = 
  2 active torsions:
  status: ('A' for Active; 'I' for Inactive)
    1  A    between atoms: C_4  and  C_26
    2  A    between atoms: C_16  and  C_21
                            x       y       z     vdW  Elec       q    Type
                         _______ _______ _______ _____ _____    ______ ____

>  <TORSDO>
F 2

$$$$
=
 OpenBabel11072408333D

 26 30  0  0  1  0  0  0  0  0999 V2000
  188.5350  175.7320  146.0840 N   0  0  0  0  0  1  0  0  0  0  0  0
  190.6050  175.2870  147.2000 N   0  0  0  0  0  0  0  0  0  0  0  0
  190.7000  176.3010  145.0230 C   0  0  0  0  0  0  0  0  0  0  0  0
  192.8890  176.6220  143.9500 N   0  0  0  0  0  2  0  0  0  0  0  0
  192.7320  175.8090  146.2640 C   0  0  0  0  0  0  0  0  0  0  0  0
  192.1050  176.2890  145.1040 C   0  0  0  0  0  0  0  0  0  0  0  0
  194.7010  175.9550  142.4430 C   0  0  0  0  0  0  0  0  0  0  0  0
  197.7890  174.0990  143.0800 F   0  0  0  0  0  0  0  0  0  0  0  0
  196.1600  174.9370  144.6030 C   0  0  0  0  0  3  0  0  0  0  0  0
  196.6250  174.7570  143.2980 C   0  0  0  0  0  0  0  0  0  0  0  0
  194.2110  176.1060  143.7480 C   0  0  0  0  0  0  0  0  0  0  0  0
  194.4950  176.0260  146.5130 S   0  0  0  0  0  0  0  0  0  0  0  0
  193.9870  176.4140  141.3850 F   0  0  0  0  0  0  0  0  0  0  0  0
  189.9580  175.7780  146.1100 C   0  0  0  0  0  0  0  0  0  0  0  0
  194.9590  175.6140  144.8320 C   0  0  0  0  0  0  0  0  0  0  0  0
  191.9580  175.3020  147.3030 C   0  0  0  0  0  3  0  0  0  0  0  0
  195.9030  175.2760  142.2210 C   0  0  0  0  0  3  0  0  0  0  0  0
  189.0920  177.9610  143.9740 C   0  0  0  0  0  2  0  0  0  0  0  0
  188.8410  175.6740  143.0500 S   0  0  0  0  0  0  0  0  0  0  0  0
  187.9150  177.2100  143.3810 C   0  0  2  0  0  3  0  0  0  0  0  0
  190.0640  176.8210  143.7510 C   0  0  2  0  0  3  0  0  0  0  0  0
  186.0450  177.7570  141.8240 C   0  0  0  0  0  0  0  0  0  0  0  0
  187.5020  177.8530  142.0650 C   0  0  1  0  0  3  0  0  0  0  0  0
  186.6260  178.9340  142.3240 O   0  0  0  0  0  0  0  0  0  0  0  0
  185.1910  177.1660  142.7590 O   0  0  0  0  0  1  0  0  0  0  0  0
  185.5600  177.9350  140.5290 O   0  0  0  0  0  1  0  0  0  0  0  0
  1 14  1  0  0  0  0
  2 16  1  0  0  0  0
  3  6  2  0  0  0  0
  3 14  1  0  0  0  0
  4  6  1  0  0  0  0
  5 12  1  0  0  0  0
  5 16  2  0  0  0  0
  6  5  1  0  0  0  0
  7 11  1  0  0  0  0
  8 10  1  0  0  0  0
  9 15  1  0  0  0  0
 10  9  2  0  0  0  0
 11  4  1  0  0  0  0
 11 15  2  0  0  0  0
 13  7  1  0  0  0  0
 14  2  2  0  0  0  0
 15 12  1  0  0  0  0
 17  7  2  0  0  0  0
 17 10  1  0  0  0  0
 19 20  1  0  0  0  0
 19 21  1  0  0  0  0
 20 18  1  6  0  0  0
 21 18  1  0  0  0  0
 21  3  1  1  0  0  0
 22 23  1  0  0  0  0
 22 24  1  0  0  0  0
 22 25  1  0  0  0  0
 23 24  1  1  0  0  0
 23 20  1  0  0  0  0
 26 22  1  0  0  0  0
M  END
>  <MODEL>
8

>  <REMARK>
 VINA RESULT:      -6.6      4.615      7.885
  Name = 
  2 active torsions:
  status: ('A' for Active; 'I' for Inactive)
    1  A    between atoms: C_4  and  C_26
    2  A    between atoms: C_16  and  C_21
                            x       y       z     vdW  Elec       q    Type
                         _______ _______ _______ _____ _____    ______ ____

>  <TORSDO>
F 2

$$$$
=
 OpenBabel11072408333D

 26 30  0  0  1  0  0  0  0  0999 V2000
  187.8400  175.4240  140.1790 N   0  0  0  0  0  1  0  0  0  0  0  0
  189.5150  173.8140  140.7530 N   0  0  0  0  0  0  0  0  0  0  0  0
  188.8710  175.4100  142.4310 C   0  0  0  0  0  0  0  0  0  0  0  0
  190.1060  175.4710  144.5570 N   0  0  0  0  0  2  0  0  0  0  0  0
  190.5540  173.7170  142.8940 C   0  0  0  0  0  0  0  0  0  0  0  0
  189.8080  174.8320  143.3080 C   0  0  0  0  0  0  0  0  0  0  0  0
  191.8420  176.3400  146.0490 C   0  0  0  0  0  0  0  0  0  0  0  0
  195.2590  175.1950  146.6770 F   0  0  0  0  0  0  0  0  0  0  0  0
  193.5160  174.1950  145.3980 C   0  0  0  0  0  3  0  0  0  0  0  0
  193.9910  175.2330  146.2030 C   0  0  0  0  0  0  0  0  0  0  0  0
  191.3720  175.3200  145.2120 C   0  0  0  0  0  0  0  0  0  0  0  0
  191.5500  172.7930  144.0650 S   0  0  0  0  0  0  0  0  0  0  0  0
  191.0520  177.4020  146.3460 F   0  0  0  0  0  0  0  0  0  0  0  0
  188.7460  174.8710  141.1270 C   0  0  0  0  0  0  0  0  0  0  0  0
  192.2080  174.2320  144.9050 C   0  0  0  0  0  0  0  0  0  0  0  0
  190.3960  173.2270  141.6020 C   0  0  0  0  0  3  0  0  0  0  0  0
  193.1510  176.2980  146.5390 C   0  0  0  0  0  3  0  0  0  0  0  0
  188.3380  176.9590  144.3680 C   0  0  0  0  0  2  0  0  0  0  0  0
  186.3160  176.2830  143.1030 S   0  0  0  0  0  0  0  0  0  0  0  0
  186.8830  176.7850  144.7620 C   0  0  2  0  0  3  0  0  0  0  0  0
  188.0930  176.6150  142.9140 C   0  0  2  0  0  3  0  0  0  0  0  0
  185.1270  178.0100  146.0420 C   0  0  0  0  0  0  0  0  0  0  0  0
  186.2800  178.1350  145.1220 C   0  0  1  0  0  3  0  0  0  0  0  0
  186.4050  178.3490  146.5160 O   0  0  0  0  0  0  0  0  0  0  0  0
  184.7130  176.7640  146.5220 O   0  0  0  0  0  1  0  0  0  0  0  0
  184.2370  179.0750  146.1600 O   0  0  0  0  0  1  0  0  0  0  0  0
  1 14  1  0  0  0  0
  2 14  2  0  0  0  0
  2 16  1  0  0  0  0
  3  6  2  0  0  0  0
  4 11  1  0  0  0  0
  5  6  1  0  0  0  0
  5 12  1  0  0  0  0
  6  4  1  0  0  0  0
  7 13  1  0  0  0  0
  7 17  1  0  0  0  0
  9 10  1  0  0  0  0
 10 17  2  0  0  0  0
 10  8  1  0  0  0  0
 11  7  2  0  0  0  0
 12 15  1  0  0  0  0
 14  3  1  0  0  0  0
 15 11  1  0  0  0  0
 15  9  2  0  0  0  0
 16  5  2  0  0  0  0
 19 20  1  0  0  0  0
 20 18  1  6  0  0  0
 20 23  1  0  0  0  0
 21  3  1  1  0  0  0
 21 19  1  0  0  0  0
 21 18  1  0  0  0  0
 22 26  1  0  0  0  0
 22 24  1  0  0  0  0
 22 25  1  0  0  0  0
 23 22  1  0  0  0  0
 23 24  1  1  0  0  0
M  END
>  <MODEL>
9

>  <REMARK>
 VINA RESULT:      -6.5      4.570      7.820
  Name = 
  2 active torsions:
  status: ('A' for Active; 'I' for Inactive)
    1  A    between atoms: C_4  and  C_26
    2  A    between atoms: C_16  and  C_21
                            x       y       z     vdW  Elec       q    Type
                         _______ _______ _______ _____ _____    ______ ____

>  <TORSDO>
F 2

$$$$
