=
 OpenBabel11062422173D

 41 45  0  0  1  0  0  0  0  0999 V2000
  184.9480  178.6360  142.0530 C   0  0  2  0  0  3  0  0  0  0  0  0
  186.7080  177.5780  143.3010 C   0  0  0  0  0  0  0  0  0  0  0  0
  185.8660  177.3690  145.6100 C   0  0  0  0  0  0  0  0  0  0  0  0
  189.8290  177.4970  144.9230 C   0  0  1  0  0  3  0  0  0  0  0  0
  186.9150  177.2720  146.5890 N   0  0  0  0  0  0  0  0  0  0  0  0
  191.3290  175.7160  143.1640 C   0  0  0  0  0  2  0  0  0  0  0  0
  186.0300  177.5760  141.9870 C   0  0  0  0  0  2  0  0  0  0  0  0
  189.1060  176.9950  146.0870 N   0  0  0  0  0  2  0  0  0  0  0  0
  184.8350  176.6490  145.7260 O   0  0  0  0  0  0  0  0  0  0  0  0
  184.4030  178.8420  143.7830 S   0  0  0  0  0  0  0  0  0  0  0  0
  186.7200  176.4780  147.7980 C   0  0  0  0  0  1  0  0  0  0  0  0
  191.5710  175.7810  144.6070 N   0  0  0  0  0  0  0  0  0  0  0  0
  191.3140  177.1540  145.0410 C   0  0  0  0  0  2  0  0  0  0  0  0
  188.1310  177.9540  146.4090 N   0  0  0  0  0  2  0  0  0  0  0  0
  186.0140  178.2730  144.4150 C   0  0  2  0  0  3  0  0  0  0  0  0
  187.9660  177.2630  143.4170 C   0  0  0  0  0  0  0  0  0  0  0  0
  189.2140  176.9690  143.6470 C   0  0  0  0  0  0  0  0  0  0  0  0
  189.8370  175.8420  142.8750 C   0  0  0  0  0  2  0  0  0  0  0  0
  182.4680  178.2920  141.6590 N   0  0  0  0  0  2  0  0  0  0  0  0
  183.8080  178.2790  141.1590 C   0  0  0  0  0  0  0  0  0  0  0  0
  184.0400  177.9330  139.9710 O   0  0  0  0  0  0  0  0  0  0  0  0
  181.3110  177.9720  140.8360 C   0  0  0  0  0  2  0  0  0  0  0  0
  180.3790  179.4100  142.5080 O   0  0  0  0  0  1  0  0  0  0  0  0
  180.0500  178.5700  141.4360 C   0  0  0  0  0  3  0  0  0  0  0  0
  179.2270  177.5420  141.8900 O   0  0  0  0  0  1  0  0  0  0  0  0
  192.9670  175.4330  144.9150 C   0  0  2  0  0  3  0  0  0  0  0  0
  194.3410  174.0370  143.1990 C   0  0  2  0  0  3  0  0  0  0  0  0
  194.8620  172.5880  143.1870 C   0  0  1  0  0  3  0  0  0  0  0  0
  196.6870  174.8430  142.4180 C   0  0  2  0  0  3  0  0  0  0  0  0
  196.2680  172.3900  142.6220 C   0  0  0  0  0  2  0  0  0  0  0  0
  195.4760  175.0830  143.3320 C   0  0  1  0  0  3  0  0  0  0  0  0
  194.9830  176.3620  143.0790 O   0  0  0  0  0  1  0  0  0  0  0  0
  193.3880  174.0330  144.3920 C   0  0  1  0  0  3  0  0  0  0  0  0
  194.7840  172.0660  144.6150 C   0  0  0  0  0  2  0  0  0  0  0  0
  193.9940  173.0850  145.4180 C   0  0  0  0  0  2  0  0  0  0  0  0
  196.6170  173.5130  141.6550 C   0  0  2  0  0  3  0  0  0  0  0  0
  197.8540  174.9290  143.1830 O   0  0  0  0  0  1  0  0  0  0  0  0
  197.9160  173.2180  140.9130 C   0  0  0  0  0  2  0  0  0  0  0  0
  197.9410  173.9050  139.7010 O   0  0  0  0  0  1  0  0  0  0  0  0
  194.4520  176.6290  146.5210 C   0  0  0  0  0  1  0  0  0  0  0  0
  193.2760  175.6830  146.3880 C   0  0  0  0  0  2  0  0  0  0  0  0
  1 20  1  6  0  0  0
  1 10  1  0  0  0  0
  2 16  2  0  0  0  0
  3  9  2  0  0  0  0
  3  5  1  0  0  0  0
  4 13  1  1  0  0  0
  4  8  1  0  0  0  0
  5 11  1  0  0  0  0
  6 12  1  0  0  0  0
  7  1  1  0  0  0  0
  7  2  1  0  0  0  0
  8 14  1  0  0  0  0
 10 15  1  0  0  0  0
 12 26  1  0  0  0  0
 12 13  1  0  0  0  0
 14  5  1  0  0  0  0
 15  2  1  6  0  0  0
 15  3  1  0  0  0  0
 16 17  2  0  0  0  0
 17  4  1  0  0  0  0
 18  6  1  0  0  0  0
 18 17  1  0  0  0  0
 20 19  1  0  0  0  0
 21 20  2  0  0  0  0
 22 24  1  0  0  0  0
 22 19  1  0  0  0  0
 24 25  1  0  0  0  0
 24 23  1  0  0  0  0
 26 41  1  1  0  0  0
 27 31  1  0  0  0  0
 27 33  1  0  0  0  0
 28 27  1  0  0  0  0
 28 34  1  0  0  0  0
 29 37  1  0  0  0  0
 29 31  1  0  0  0  0
 30 28  1  0  0  0  0
 32 31  1  0  0  0  0
 33 26  1  0  0  0  0
 33 35  1  0  0  0  0
 34 35  1  0  0  0  0
 36 29  1  0  0  0  0
 36 30  1  0  0  0  0
 38 36  1  0  0  0  0
 39 38  1  0  0  0  0
 41 40  1  0  0  0  0
M  END
>  <MODEL>
1

>  <REMARK>
 VINA RESULT:      -7.8      0.000      0.000
  Name = 
  7 active torsions:
  status: ('A' for Active; 'I' for Inactive)
    1  A    between atoms: C_5  and  C_24
    2  A    between atoms: N_9  and  C_12
    3  A    between atoms: C_12  and  C_21
    4  A    between atoms: C_14  and  C_23
    5  A    between atoms: C_23  and  N_32
    6  A    between atoms: C_23  and  C_37
    7  A    between atoms: C_29  and  C_30
                            x       y       z     vdW  Elec       q    Type
                         _______ _______ _______ _____ _____    ______ ____

>  <TORSDO>
F 7

$$$$
=
 OpenBabel11062422173D

 41 45  0  0  1  0  0  0  0  0999 V2000
  185.1130  178.4290  142.3070 C   0  0  2  0  0  3  0  0  0  0  0  0
  186.9800  177.0690  142.9660 C   0  0  0  0  0  0  0  0  0  0  0  0
  187.5990  177.8250  145.2320 C   0  0  0  0  0  0  0  0  0  0  0  0
  190.3510  176.0670  142.8810 C   0  0  1  0  0  3  0  0  0  0  0  0
  188.9660  177.5360  145.5710 N   0  0  0  0  0  0  0  0  0  0  0  0
  190.1230  173.4390  141.6340 C   0  0  0  0  0  2  0  0  0  0  0  0
  185.6900  177.0290  142.2460 C   0  0  0  0  0  2  0  0  0  0  0  0
  190.3400  176.2310  144.3310 N   0  0  0  0  0  2  0  0  0  0  0  0
  186.6940  177.6700  146.0990 O   0  0  0  0  0  0  0  0  0  0  0  0
  185.7240  179.2750  143.8050 S   0  0  0  0  0  0  0  0  0  0  0  0
  189.3310  177.2320  146.9510 C   0  0  0  0  0  1  0  0  0  0  0  0
  191.1590  173.7520  142.6220 N   0  0  0  0  0  0  0  0  0  0  0  0
  191.5120  175.1620  142.4650 C   0  0  0  0  0  2  0  0  0  0  0  0
  189.9720  177.5620  144.5900 N   0  0  0  0  0  2  0  0  0  0  0  0
  187.2300  178.2480  143.8350 C   0  0  2  0  0  3  0  0  0  0  0  0
  187.9670  176.2850  142.6380 C   0  0  0  0  0  0  0  0  0  0  0  0
  189.0160  175.5530  142.3940 C   0  0  0  0  0  0  0  0  0  0  0  0
  188.8110  174.1140  142.0150 C   0  0  0  0  0  2  0  0  0  0  0  0
  182.9330  178.1250  141.0490 N   0  0  0  0  0  2  0  0  0  0  0  0
  183.6210  178.3850  142.2760 C   0  0  0  0  0  0  0  0  0  0  0  0
  182.9750  178.6150  143.3310 O   0  0  0  0  0  0  0  0  0  0  0  0
  181.4830  178.0510  140.9540 C   0  0  0  0  0  2  0  0  0  0  0  0
  179.8390  179.1510  142.3020 O   0  0  0  0  0  1  0  0  0  0  0  0
  180.8550  179.3720  141.3650 C   0  0  0  0  0  3  0  0  0  0  0  0
  180.3190  179.9940  140.2400 O   0  0  0  0  0  1  0  0  0  0  0  0
  192.3560  172.9280  142.3960 C   0  0  2  0  0  3  0  0  0  0  0  0
  193.5960  172.0680  144.5190 C   0  0  2  0  0  3  0  0  0  0  0  0
  194.9790  172.3590  145.1280 C   0  0  1  0  0  3  0  0  0  0  0  0
  194.0290  169.5260  144.8560 C   0  0  2  0  0  3  0  0  0  0  0  0
  195.7210  171.1540  145.7040 C   0  0  0  0  0  2  0  0  0  0  0  0
  193.4830  170.6340  143.9430 C   0  0  1  0  0  3  0  0  0  0  0  0
  192.1540  170.3400  143.6440 O   0  0  0  0  0  1  0  0  0  0  0  0
  193.4730  173.1530  143.4510 C   0  0  1  0  0  3  0  0  0  0  0  0
  195.8170  173.0350  144.0520 C   0  0  0  0  0  2  0  0  0  0  0  0
  194.8770  173.3770  142.9080 C   0  0  0  0  0  2  0  0  0  0  0  0
  194.7370  170.0630  146.1070 C   0  0  2  0  0  3  0  0  0  0  0  0
  194.8750  168.7010  144.1070 O   0  0  0  0  0  1  0  0  0  0  0  0
  195.4330  168.9520  146.8840 C   0  0  0  0  0  2  0  0  0  0  0  0
  196.6520  169.4090  147.3830 O   0  0  0  0  0  1  0  0  0  0  0  0
  192.9770  171.6460  140.3510 C   0  0  0  0  0  1  0  0  0  0  0  0
  192.8200  173.0300  140.9460 C   0  0  0  0  0  2  0  0  0  0  0  0
  1 20  1  1  0  0  0
  1 10  1  0  0  0  0
  3  5  1  0  0  0  0
  3  9  2  0  0  0  0
  4 13  1  1  0  0  0
  4  8  1  0  0  0  0
  5 11  1  0  0  0  0
  6 18  1  0  0  0  0
  6 12  1  0  0  0  0
  7  1  1  0  0  0  0
  7  2  1  0  0  0  0
  8 14  1  0  0  0  0
 10 15  1  0  0  0  0
 13 12  1  0  0  0  0
 14  5  1  0  0  0  0
 15  2  1  6  0  0  0
 15  3  1  0  0  0  0
 16  2  2  0  0  0  0
 17 16  2  0  0  0  0
 17  4  1  0  0  0  0
 18 17  1  0  0  0  0
 19 20  1  0  0  0  0
 20 21  2  0  0  0  0
 22 19  1  0  0  0  0
 22 24  1  0  0  0  0
 24 23  1  0  0  0  0
 25 24  1  0  0  0  0
 26 41  1  6  0  0  0
 26 12  1  0  0  0  0
 26 33  1  0  0  0  0
 27 28  1  0  0  0  0
 28 30  1  0  0  0  0
 29 36  1  0  0  0  0
 30 36  1  0  0  0  0
 31 27  1  0  0  0  0
 31 29  1  0  0  0  0
 32 31  1  0  0  0  0
 33 27  1  0  0  0  0
 34 28  1  0  0  0  0
 35 33  1  0  0  0  0
 35 34  1  0  0  0  0
 36 38  1  0  0  0  0
 37 29  1  0  0  0  0
 38 39  1  0  0  0  0
 40 41  1  0  0  0  0
M  END
>  <MODEL>
2

>  <REMARK>
 VINA RESULT:      -7.4      2.673      3.797
  Name = 
  7 active torsions:
  status: ('A' for Active; 'I' for Inactive)
    1  A    between atoms: C_5  and  C_24
    2  A    between atoms: N_9  and  C_12
    3  A    between atoms: C_12  and  C_21
    4  A    between atoms: C_14  and  C_23
    5  A    between atoms: C_23  and  N_32
    6  A    between atoms: C_23  and  C_37
    7  A    between atoms: C_29  and  C_30
                            x       y       z     vdW  Elec       q    Type
                         _______ _______ _______ _____ _____    ______ ____

>  <TORSDO>
F 7

$$$$
=
 OpenBabel11062422173D

 41 45  0  0  1  0  0  0  0  0999 V2000
  185.0520  178.5180  141.9860 C   0  0  2  0  0  3  0  0  0  0  0  0
  186.8580  177.2830  142.9790 C   0  0  0  0  0  0  0  0  0  0  0  0
  186.3370  177.1440  145.3870 C   0  0  0  0  0  0  0  0  0  0  0  0
  190.1540  176.8810  144.1410 C   0  0  1  0  0  3  0  0  0  0  0  0
  187.5000  176.9370  146.2070 N   0  0  0  0  0  0  0  0  0  0  0  0
  191.2040  174.9710  142.2000 C   0  0  0  0  0  2  0  0  0  0  0  0
  186.0030  177.3570  141.7760 C   0  0  0  0  0  2  0  0  0  0  0  0
  189.5590  176.4470  145.4000 N   0  0  0  0  0  2  0  0  0  0  0  0
  185.2670  176.5300  145.6540 O   0  0  0  0  0  0  0  0  0  0  0  0
  184.7820  178.7670  143.7740 S   0  0  0  0  0  0  0  0  0  0  0  0
  187.4010  176.1590  147.4370 C   0  0  0  0  0  1  0  0  0  0  0  0
  191.6550  175.0030  143.5940 N   0  0  0  0  0  0  0  0  0  0  0  0
  191.6000  176.3920  144.0490 C   0  0  0  0  0  2  0  0  0  0  0  0
  188.7400  177.4960  145.8500 N   0  0  0  0  0  2  0  0  0  0  0  0
  186.4030  178.0370  144.1750 C   0  0  2  0  0  3  0  0  0  0  0  0
  188.0820  176.8430  142.9170 C   0  0  0  0  0  0  0  0  0  0  0  0
  189.3150  176.4250  142.9700 C   0  0  0  0  0  0  0  0  0  0  0  0
  189.7060  175.2470  142.1260 C   0  0  0  0  0  2  0  0  0  0  0  0
  182.5200  178.3980  141.9600 N   0  0  0  0  0  2  0  0  0  0  0  0
  183.7660  178.2830  141.2670 C   0  0  0  0  0  0  0  0  0  0  0  0
  183.7910  177.9460  140.0540 O   0  0  0  0  0  0  0  0  0  0  0  0
  181.2320  178.1990  141.3130 C   0  0  0  0  0  2  0  0  0  0  0  0
  179.0010  178.9390  141.7650 O   0  0  0  0  0  1  0  0  0  0  0  0
  180.3160  179.3820  141.5770 C   0  0  0  0  0  3  0  0  0  0  0  0
  180.3610  180.2480  140.4870 O   0  0  0  0  0  1  0  0  0  0  0  0
  193.0380  174.5150  143.7030 C   0  0  2  0  0  3  0  0  0  0  0  0
  193.4800  171.9630  143.4380 C   0  0  2  0  0  3  0  0  0  0  0  0
  193.9130  170.8560  144.4170 C   0  0  1  0  0  3  0  0  0  0  0  0
  195.2530  171.0980  141.7430 C   0  0  2  0  0  3  0  0  0  0  0  0
  194.9180  169.8410  143.8740 C   0  0  0  0  0  2  0  0  0  0  0  0
  194.5780  172.3100  142.4020 C   0  0  1  0  0  3  0  0  0  0  0  0
  194.0510  173.1180  141.3960 O   0  0  0  0  0  1  0  0  0  0  0  0
  193.1560  173.1220  144.3770 C   0  0  1  0  0  3  0  0  0  0  0  0
  194.4650  171.5380  145.6600 C   0  0  0  0  0  2  0  0  0  0  0  0
  194.1340  173.0160  145.5390 C   0  0  0  0  0  2  0  0  0  0  0  0
  194.8260  169.7580  142.3560 C   0  0  2  0  0  3  0  0  0  0  0  0
  196.6400  171.2660  141.8040 O   0  0  0  0  0  1  0  0  0  0  0  0
  195.6550  168.5980  141.8160 C   0  0  0  0  0  2  0  0  0  0  0  0
  195.4680  168.4780  140.4400 O   0  0  0  0  0  1  0  0  0  0  0  0
  195.1210  175.8450  143.3720 C   0  0  0  0  0  1  0  0  0  0  0  0
  193.9470  175.5890  144.2950 C   0  0  0  0  0  2  0  0  0  0  0  0
  1 20  1  6  0  0  0
  1 10  1  0  0  0  0
  3  9  2  0  0  0  0
  3  5  1  0  0  0  0
  4 13  1  6  0  0  0
  4  8  1  0  0  0  0
  5 11  1  0  0  0  0
  6 12  1  0  0  0  0
  7  1  1  0  0  0  0
  7  2  1  0  0  0  0
  8 14  1  0  0  0  0
 10 15  1  0  0  0  0
 12 26  1  0  0  0  0
 12 13  1  0  0  0  0
 14  5  1  0  0  0  0
 15  2  1  6  0  0  0
 15  3  1  0  0  0  0
 16 17  2  0  0  0  0
 16  2  2  0  0  0  0
 17  4  1  0  0  0  0
 18  6  1  0  0  0  0
 18 17  1  0  0  0  0
 20 19  1  0  0  0  0
 21 20  2  0  0  0  0
 22 24  1  0  0  0  0
 22 19  1  0  0  0  0
 24 23  1  0  0  0  0
 25 24  1  0  0  0  0
 26 41  1  1  0  0  0
 26 33  1  0  0  0  0
 27 33  1  0  0  0  0
 27 28  1  0  0  0  0
 28 34  1  0  0  0  0
 29 37  1  0  0  0  0
 29 36  1  0  0  0  0
 29 31  1  0  0  0  0
 30 28  1  0  0  0  0
 31 27  1  0  0  0  0
 32 31  1  0  0  0  0
 33 35  1  0  0  0  0
 35 34  1  0  0  0  0
 36 30  1  0  0  0  0
 38 36  1  0  0  0  0
 39 38  1  0  0  0  0
 40 41  1  0  0  0  0
M  END
>  <MODEL>
3

>  <REMARK>
 VINA RESULT:      -7.2      1.758      2.241
  Name = 
  7 active torsions:
  status: ('A' for Active; 'I' for Inactive)
    1  A    between atoms: C_5  and  C_24
    2  A    between atoms: N_9  and  C_12
    3  A    between atoms: C_12  and  C_21
    4  A    between atoms: C_14  and  C_23
    5  A    between atoms: C_23  and  N_32
    6  A    between atoms: C_23  and  C_37
    7  A    between atoms: C_29  and  C_30
                            x       y       z     vdW  Elec       q    Type
                         _______ _______ _______ _____ _____    ______ ____

>  <TORSDO>
F 7

$$$$
=
 OpenBabel11062422173D

 41 45  0  0  1  0  0  0  0  0999 V2000
  183.8450  178.7800  142.3310 C   0  0  2  0  0  3  0  0  0  0  0  0
  185.6910  177.4910  143.1700 C   0  0  0  0  0  0  0  0  0  0  0  0
  185.4820  177.5370  145.6280 C   0  0  0  0  0  0  0  0  0  0  0  0
  189.0810  176.9430  143.9300 C   0  0  1  0  0  3  0  0  0  0  0  0
  186.7290  177.3040  146.3070 N   0  0  0  0  0  0  0  0  0  0  0  0
  189.7540  174.8510  142.0110 C   0  0  0  0  0  2  0  0  0  0  0  0
  184.6900  177.5470  142.0830 C   0  0  0  0  0  2  0  0  0  0  0  0
  188.6320  176.6280  145.2810 N   0  0  0  0  0  2  0  0  0  0  0  0
  184.4230  177.0130  146.0720 O   0  0  0  0  0  0  0  0  0  0  0  0
  183.8260  179.1570  144.1160 S   0  0  0  0  0  0  0  0  0  0  0  0
  186.7470  176.6120  147.5910 C   0  0  0  0  0  1  0  0  0  0  0  0
  190.3850  174.9390  143.3300 N   0  0  0  0  0  0  0  0  0  0  0  0
  190.4720  176.3540  143.6890 C   0  0  0  0  0  2  0  0  0  0  0  0
  187.9410  177.7560  145.7580 N   0  0  0  0  0  2  0  0  0  0  0  0
  185.4400  178.3460  144.3590 C   0  0  2  0  0  3  0  0  0  0  0  0
  186.8680  176.9680  142.9840 C   0  0  0  0  0  0  0  0  0  0  0  0
  188.0710  176.4730  142.9100 C   0  0  0  0  0  0  0  0  0  0  0  0
  188.2790  175.2200  142.1080 C   0  0  0  0  0  2  0  0  0  0  0  0
  181.3540  179.2440  142.4160 N   0  0  0  0  0  2  0  0  0  0  0  0
  182.4640  178.5870  141.7990 C   0  0  0  0  0  0  0  0  0  0  0  0
  182.2820  177.8120  140.8230 O   0  0  0  0  0  0  0  0  0  0  0  0
  179.9870  179.1110  141.9370 C   0  0  0  0  0  2  0  0  0  0  0  0
  178.7140  177.1690  141.3530 O   0  0  0  0  0  1  0  0  0  0  0  0
  179.3820  177.8000  142.4100 C   0  0  0  0  0  3  0  0  0  0  0  0
  178.4800  178.0580  143.4400 O   0  0  0  0  0  1  0  0  0  0  0  0
  191.7410  174.3670  143.2960 C   0  0  2  0  0  3  0  0  0  0  0  0
  193.4970  174.9090  141.4510 C   0  0  2  0  0  3  0  0  0  0  0  0
  193.9880  174.1550  140.2020 C   0  0  1  0  0  3  0  0  0  0  0  0
  195.9740  175.3830  142.0860 C   0  0  2  0  0  3  0  0  0  0  0  0
  195.4900  174.2230  139.9290 C   0  0  0  0  0  2  0  0  0  0  0  0
  194.5710  174.9860  142.5660 C   0  0  1  0  0  3  0  0  0  0  0  0
  194.1740  175.8870  143.5540 O   0  0  0  0  0  1  0  0  0  0  0  0
  192.2680  174.1010  141.8600 C   0  0  1  0  0  3  0  0  0  0  0  0
  193.5360  172.7080  140.3380 C   0  0  0  0  0  2  0  0  0  0  0  0
  192.5760  172.6510  141.5140 C   0  0  0  0  0  2  0  0  0  0  0  0
  196.0910  175.4720  140.5580 C   0  0  2  0  0  3  0  0  0  0  0  0
  196.9040  174.4820  142.6150 O   0  0  0  0  0  1  0  0  0  0  0  0
  197.5340  175.6750  140.1120 C   0  0  0  0  0  2  0  0  0  0  0  0
  197.9210  174.6400  139.2620 O   0  0  0  0  0  1  0  0  0  0  0  0
  190.4720  172.6930  144.6390 C   0  0  0  0  0  1  0  0  0  0  0  0
  191.8520  173.1790  144.2470 C   0  0  0  0  0  2  0  0  0  0  0  0
  1 20  1  1  0  0  0
  1 10  1  0  0  0  0
  3  9  2  0  0  0  0
  3  5  1  0  0  0  0
  4 13  1  6  0  0  0
  4  8  1  0  0  0  0
  5 11  1  0  0  0  0
  6 18  1  0  0  0  0
  6 12  1  0  0  0  0
  7  1  1  0  0  0  0
  7  2  1  0  0  0  0
  8 14  1  0  0  0  0
 10 15  1  0  0  0  0
 12 13  1  0  0  0  0
 14  5  1  0  0  0  0
 15  2  1  6  0  0  0
 15  3  1  0  0  0  0
 16  2  2  0  0  0  0
 17 16  2  0  0  0  0
 17  4  1  0  0  0  0
 18 17  1  0  0  0  0
 20 19  1  0  0  0  0
 21 20  2  0  0  0  0
 22 24  1  0  0  0  0
 22 19  1  0  0  0  0
 23 24  1  0  0  0  0
 24 25  1  0  0  0  0
 26 12  1  0  0  0  0
 26 41  1  1  0  0  0
 27 33  1  0  0  0  0
 27 31  1  0  0  0  0
 28 34  1  0  0  0  0
 28 27  1  0  0  0  0
 29 31  1  0  0  0  0
 29 37  1  0  0  0  0
 30 28  1  0  0  0  0
 30 36  1  0  0  0  0
 31 32  1  0  0  0  0
 33 26  1  0  0  0  0
 34 35  1  0  0  0  0
 35 33  1  0  0  0  0
 36 29  1  0  0  0  0
 38 36  1  0  0  0  0
 39 38  1  0  0  0  0
 41 40  1  0  0  0  0
M  END
>  <MODEL>
4

>  <REMARK>
 VINA RESULT:      -6.8      1.755      2.204
  Name = 
  7 active torsions:
  status: ('A' for Active; 'I' for Inactive)
    1  A    between atoms: C_5  and  C_24
    2  A    between atoms: N_9  and  C_12
    3  A    between atoms: C_12  and  C_21
    4  A    between atoms: C_14  and  C_23
    5  A    between atoms: C_23  and  N_32
    6  A    between atoms: C_23  and  C_37
    7  A    between atoms: C_29  and  C_30
                            x       y       z     vdW  Elec       q    Type
                         _______ _______ _______ _____ _____    ______ ____

>  <TORSDO>
F 7

$$$$
=
 OpenBabel11062422173D

 41 45  0  0  1  0  0  0  0  0999 V2000
  184.9840  178.6610  142.6270 C   0  0  2  0  0  3  0  0  0  0  0  0
  186.8960  177.2800  143.0850 C   0  0  0  0  0  0  0  0  0  0  0  0
  187.3870  177.5820  145.4840 C   0  0  0  0  0  0  0  0  0  0  0  0
  190.3170  176.4700  142.9610 C   0  0  1  0  0  3  0  0  0  0  0  0
  188.7530  177.2910  145.8240 N   0  0  0  0  0  0  0  0  0  0  0  0
  190.2800  174.1470  141.1960 C   0  0  0  0  0  2  0  0  0  0  0  0
  185.6390  177.3310  142.3100 C   0  0  0  0  0  2  0  0  0  0  0  0
  190.2420  176.3330  144.4120 N   0  0  0  0  0  2  0  0  0  0  0  0
  186.4590  177.2110  146.2570 O   0  0  0  0  0  0  0  0  0  0  0  0
  185.4920  179.2070  144.2930 S   0  0  0  0  0  0  0  0  0  0  0  0
  189.0810  176.7270  147.1290 C   0  0  0  0  0  1  0  0  0  0  0  0
  191.2590  174.2970  142.2760 N   0  0  0  0  0  0  0  0  0  0  0  0
  191.5400  175.7240  142.4270 C   0  0  0  0  0  2  0  0  0  0  0  0
  189.7930  177.5640  144.9180 N   0  0  0  0  0  2  0  0  0  0  0  0
  187.0480  178.2660  144.1860 C   0  0  2  0  0  3  0  0  0  0  0  0
  187.9360  176.6260  142.6520 C   0  0  0  0  0  0  0  0  0  0  0  0
  189.0320  176.0080  142.3160 C   0  0  0  0  0  0  0  0  0  0  0  0
  188.9200  174.6700  141.6430 C   0  0  0  0  0  2  0  0  0  0  0  0
  182.8890  178.2850  141.2500 N   0  0  0  0  0  2  0  0  0  0  0  0
  183.5000  178.5570  142.5140 C   0  0  0  0  0  0  0  0  0  0  0  0
  182.7890  178.7460  143.5360 O   0  0  0  0  0  0  0  0  0  0  0  0
  181.4500  178.1540  141.0760 C   0  0  0  0  0  2  0  0  0  0  0  0
  179.6390  179.0640  142.3500 O   0  0  0  0  0  1  0  0  0  0  0  0
  180.7400  179.4090  141.5570 C   0  0  0  0  0  3  0  0  0  0  0  0
  180.3050  180.1390  140.4540 O   0  0  0  0  0  1  0  0  0  0  0  0
  192.5070  173.5930  141.9460 C   0  0  2  0  0  3  0  0  0  0  0  0
  193.7590  174.2520  139.7600 C   0  0  2  0  0  3  0  0  0  0  0  0
  194.0000  173.5350  138.4190 C   0  0  1  0  0  3  0  0  0  0  0  0
  196.2810  174.8870  139.8230 C   0  0  2  0  0  3  0  0  0  0  0  0
  195.3920  173.7010  137.8140 C   0  0  0  0  0  2  0  0  0  0  0  0
  195.0520  174.3970  140.6030 C   0  0  1  0  0  3  0  0  0  0  0  0
  194.8340  175.2680  141.6700 O   0  0  0  0  0  1  0  0  0  0  0  0
  192.7090  173.3640  140.4240 C   0  0  1  0  0  3  0  0  0  0  0  0
  193.6830  172.0600  138.6290 C   0  0  0  0  0  2  0  0  0  0  0  0
  193.0220  171.9390  139.9920 C   0  0  0  0  0  2  0  0  0  0  0  0
  196.0400  174.9860  138.3110 C   0  0  2  0  0  3  0  0  0  0  0  0
  197.3610  174.0470  140.1120 O   0  0  0  0  0  1  0  0  0  0  0  0
  197.3280  175.2840  137.5520 C   0  0  0  0  0  2  0  0  0  0  0  0
  197.0550  176.0780  136.4400 O   0  0  0  0  0  1  0  0  0  0  0  0
  193.7510  172.5550  143.8410 C   0  0  0  0  0  1  0  0  0  0  0  0
  192.6670  172.3410  142.8050 C   0  0  0  0  0  2  0  0  0  0  0  0
  1 20  1  1  0  0  0
  1 10  1  0  0  0  0
  3  5  1  0  0  0  0
  3  9  2  0  0  0  0
  4 13  1  6  0  0  0
  4  8  1  0  0  0  0
  5 11  1  0  0  0  0
  6 18  1  0  0  0  0
  6 12  1  0  0  0  0
  7  1  1  0  0  0  0
  7  2  1  0  0  0  0
  8 14  1  0  0  0  0
 12 13  1  0  0  0  0
 14  5  1  0  0  0  0
 15  2  1  6  0  0  0
 15 10  1  0  0  0  0
 15  3  1  0  0  0  0
 16  2  2  0  0  0  0
 17 16  2  0  0  0  0
 17  4  1  0  0  0  0
 18 17  1  0  0  0  0
 19 20  1  0  0  0  0
 20 21  2  0  0  0  0
 22 19  1  0  0  0  0
 22 24  1  0  0  0  0
 24 23  1  0  0  0  0
 25 24  1  0  0  0  0
 26 12  1  0  0  0  0
 26 41  1  1  0  0  0
 27 33  1  0  0  0  0
 27 31  1  0  0  0  0
 28 34  1  0  0  0  0
 28 27  1  0  0  0  0
 29 37  1  0  0  0  0
 29 31  1  0  0  0  0
 30 36  1  0  0  0  0
 30 28  1  0  0  0  0
 31 32  1  0  0  0  0
 33 26  1  0  0  0  0
 34 35  1  0  0  0  0
 35 33  1  0  0  0  0
 36 29  1  0  0  0  0
 38 36  1  0  0  0  0
 39 38  1  0  0  0  0
 41 40  1  0  0  0  0
M  END
>  <MODEL>
5

>  <REMARK>
 VINA RESULT:      -6.7      2.305      3.036
  Name = 
  7 active torsions:
  status: ('A' for Active; 'I' for Inactive)
    1  A    between atoms: C_5  and  C_24
    2  A    between atoms: N_9  and  C_12
    3  A    between atoms: C_12  and  C_21
    4  A    between atoms: C_14  and  C_23
    5  A    between atoms: C_23  and  N_32
    6  A    between atoms: C_23  and  C_37
    7  A    between atoms: C_29  and  C_30
                            x       y       z     vdW  Elec       q    Type
                         _______ _______ _______ _____ _____    ______ ____

>  <TORSDO>
F 7

$$$$
=
 OpenBabel11062422173D

 41 45  0  0  1  0  0  0  0  0999 V2000
  185.3850  178.3480  143.2200 C   0  0  2  0  0  3  0  0  0  0  0  0
  186.8930  176.4800  143.3110 C   0  0  0  0  0  0  0  0  0  0  0  0
  187.8800  176.5210  145.5720 C   0  0  0  0  0  0  0  0  0  0  0  0
  189.8760  174.7810  142.5430 C   0  0  1  0  0  3  0  0  0  0  0  0
  189.1530  175.8550  145.6470 N   0  0  0  0  0  0  0  0  0  0  0  0
  188.8760  172.6430  140.8260 C   0  0  0  0  0  2  0  0  0  0  0  0
  185.5780  176.9080  142.7890 C   0  0  0  0  0  2  0  0  0  0  0  0
  190.0340  174.5990  143.9810 N   0  0  0  0  0  2  0  0  0  0  0  0
  187.0450  176.3790  146.5090 O   0  0  0  0  0  0  0  0  0  0  0  0
  186.3200  178.6550  144.7570 S   0  0  0  0  0  0  0  0  0  0  0  0
  189.5470  175.1610  146.8680 C   0  0  0  0  0  1  0  0  0  0  0  0
  190.0400  172.4700  141.7000 N   0  0  0  0  0  0  0  0  0  0  0  0
  190.7260  173.7580  141.7880 C   0  0  0  0  0  2  0  0  0  0  0  0
  190.0420  175.8800  144.5590 N   0  0  0  0  0  2  0  0  0  0  0  0
  187.5100  177.3330  144.3590 C   0  0  2  0  0  3  0  0  0  0  0  0
  187.6140  175.5910  142.6920 C   0  0  0  0  0  0  0  0  0  0  0  0
  188.4170  174.7160  142.1550 C   0  0  0  0  0  0  0  0  0  0  0  0
  187.8190  173.4930  141.5220 C   0  0  0  0  0  2  0  0  0  0  0  0
  183.0320  178.5210  142.2900 N   0  0  0  0  0  2  0  0  0  0  0  0
  183.9350  178.6550  143.3920 C   0  0  0  0  0  0  0  0  0  0  0  0
  183.5200  179.0680  144.5070 O   0  0  0  0  0  0  0  0  0  0  0  0
  181.6060  178.7870  142.3970 C   0  0  0  0  0  2  0  0  0  0  0  0
  181.7780  177.9240  140.1710 O   0  0  0  0  0  1  0  0  0  0  0  0
  180.9310  178.6150  141.0460 C   0  0  0  0  0  3  0  0  0  0  0  0
  180.6420  179.8700  140.5160 O   0  0  0  0  0  1  0  0  0  0  0  0
  190.9640  171.4700  141.1410 C   0  0  2  0  0  3  0  0  0  0  0  0
  191.8720  171.7940  138.7220 C   0  0  2  0  0  3  0  0  0  0  0  0
  191.6160  171.0690  137.3890 C   0  0  1  0  0  3  0  0  0  0  0  0
  194.4260  171.6780  138.2450 C   0  0  2  0  0  3  0  0  0  0  0  0
  192.8420  170.8430  136.5050 C   0  0  0  0  0  2  0  0  0  0  0  0
  193.2970  171.5430  139.2770 C   0  0  1  0  0  3  0  0  0  0  0  0
  193.5620  172.4150  140.3330 O   0  0  0  0  0  1  0  0  0  0  0  0
  190.7730  171.2290  139.6200 C   0  0  1  0  0  3  0  0  0  0  0  0
  190.9430  169.7430  137.7140 C   0  0  0  0  0  2  0  0  0  0  0  0
  190.5700  169.7840  139.1870 C   0  0  0  0  0  2  0  0  0  0  0  0
  193.9170  171.8770  136.8110 C   0  0  2  0  0  3  0  0  0  0  0  0
  195.2580  170.5580  138.3380 O   0  0  0  0  0  1  0  0  0  0  0  0
  195.0510  171.8110  135.7940 C   0  0  0  0  0  2  0  0  0  0  0  0
  195.4230  173.0970  135.4090 O   0  0  0  0  0  1  0  0  0  0  0  0
  192.3150  170.0370  142.6690 C   0  0  0  0  0  1  0  0  0  0  0  0
  190.9700  170.2030  141.9920 C   0  0  0  0  0  2  0  0  0  0  0  0
  1 20  1  1  0  0  0
  1 10  1  0  0  0  0
  3  5  1  0  0  0  0
  3  9  2  0  0  0  0
  4 13  1  6  0  0  0
  4  8  1  0  0  0  0
  5 11  1  0  0  0  0
  6 18  1  0  0  0  0
  6 12  1  0  0  0  0
  7  1  1  0  0  0  0
  7  2  1  0  0  0  0
  8 14  1  0  0  0  0
 12 13  1  0  0  0  0
 14  5  1  0  0  0  0
 15  2  1  6  0  0  0
 15 10  1  0  0  0  0
 15  3  1  0  0  0  0
 16  2  2  0  0  0  0
 17  4  1  0  0  0  0
 17 16  2  0  0  0  0
 18 17  1  0  0  0  0
 19 22  1  0  0  0  0
 19 20  1  0  0  0  0
 20 21  2  0  0  0  0
 23 24  1  0  0  0  0
 24 22  1  0  0  0  0
 25 24  1  0  0  0  0
 26 12  1  0  0  0  0
 26 41  1  1  0  0  0
 27 31  1  0  0  0  0
 27 33  1  0  0  0  0
 28 34  1  0  0  0  0
 28 27  1  0  0  0  0
 29 37  1  0  0  0  0
 29 31  1  0  0  0  0
 30 36  1  0  0  0  0
 30 28  1  0  0  0  0
 31 32  1  0  0  0  0
 33 26  1  0  0  0  0
 34 35  1  0  0  0  0
 35 33  1  0  0  0  0
 36 29  1  0  0  0  0
 38 36  1  0  0  0  0
 39 38  1  0  0  0  0
 41 40  1  0  0  0  0
M  END
>  <MODEL>
6

>  <REMARK>
 VINA RESULT:      -6.7      3.856      4.682
  Name = 
  7 active torsions:
  status: ('A' for Active; 'I' for Inactive)
    1  A    between atoms: C_5  and  C_24
    2  A    between atoms: N_9  and  C_12
    3  A    between atoms: C_12  and  C_21
    4  A    between atoms: C_14  and  C_23
    5  A    between atoms: C_23  and  N_32
    6  A    between atoms: C_23  and  C_37
    7  A    between atoms: C_29  and  C_30
                            x       y       z     vdW  Elec       q    Type
                         _______ _______ _______ _____ _____    ______ ____

>  <TORSDO>
F 7

$$$$
=
 OpenBabel11062422173D

 41 45  0  0  1  0  0  0  0  0999 V2000
  196.7960  173.3580  138.2870 C   0  0  2  0  0  3  0  0  0  0  0  0
  195.3160  174.0900  140.0320 C   0  0  0  0  0  0  0  0  0  0  0  0
  196.6910  175.4690  141.5480 C   0  0  0  0  0  0  0  0  0  0  0  0
  193.3860  173.6430  142.9390 C   0  0  1  0  0  3  0  0  0  0  0  0
  196.1590  175.5450  142.8820 N   0  0  0  0  0  0  0  0  0  0  0  0
  190.6860  173.9210  141.8660 C   0  0  0  0  0  2  0  0  0  0  0  0
  195.3870  173.8330  138.5780 C   0  0  0  0  0  2  0  0  0  0  0  0
  194.1140  174.7820  143.4860 N   0  0  0  0  0  2  0  0  0  0  0  0
  197.1830  176.5010  141.0130 O   0  0  0  0  0  0  0  0  0  0  0  0
  197.9410  174.0510  139.5280 S   0  0  0  0  0  0  0  0  0  0  0  0
  196.3410  176.7550  143.6770 C   0  0  0  0  0  1  0  0  0  0  0  0
  191.0370  174.3340  143.2270 N   0  0  0  0  0  0  0  0  0  0  0  0
  192.0830  173.4340  143.7110 C   0  0  0  0  0  2  0  0  0  0  0  0
  195.4800  174.4520  143.4480 N   0  0  0  0  0  2  0  0  0  0  0  0
  196.6070  174.1870  140.7620 C   0  0  2  0  0  3  0  0  0  0  0  0
  194.2060  173.9410  140.6960 C   0  0  0  0  0  0  0  0  0  0  0  0
  193.1550  173.8220  141.4560 C   0  0  0  0  0  0  0  0  0  0  0  0
  191.8240  174.2490  140.9070 C   0  0  0  0  0  2  0  0  0  0  0  0
  196.8840  175.0260  136.3800 N   0  0  0  0  0  2  0  0  0  0  0  0
  197.2020  173.7320  136.9000 C   0  0  0  0  0  0  0  0  0  0  0  0
  197.7950  172.8860  136.1820 O   0  0  0  0  0  0  0  0  0  0  0  0
  197.2650  175.4590  135.0440 C   0  0  0  0  0  2  0  0  0  0  0  0
  196.4390  177.7020  135.1770 O   0  0  0  0  0  1  0  0  0  0  0  0
  196.2730  176.4800  134.5130 C   0  0  0  0  0  3  0  0  0  0  0  0
  194.9780  176.0120  134.7230 O   0  0  0  0  0  1  0  0  0  0  0  0
  189.8690  174.2370  144.1160 C   0  0  2  0  0  3  0  0  0  0  0  0
  188.8080  176.6090  144.2840 C   0  0  2  0  0  3  0  0  0  0  0  0
  188.4140  177.5120  145.4670 C   0  0  1  0  0  3  0  0  0  0  0  0
  186.4980  177.1020  143.1950 C   0  0  2  0  0  3  0  0  0  0  0  0
  187.0980  178.2740  145.3160 C   0  0  0  0  0  2  0  0  0  0  0  0
  187.5800  176.0600  143.5140 C   0  0  1  0  0  3  0  0  0  0  0  0
  187.9880  175.4710  142.3180 O   0  0  0  0  0  1  0  0  0  0  0  0
  189.6250  175.5140  144.9650 C   0  0  1  0  0  3  0  0  0  0  0  0
  188.3840  176.6400  146.7140 C   0  0  0  0  0  2  0  0  0  0  0  0
  188.9960  175.3020  146.3350 C   0  0  0  0  0  2  0  0  0  0  0  0
  186.7600  178.4680  143.8440 C   0  0  2  0  0  3  0  0  0  0  0  0
  185.2530  176.5900  143.5730 O   0  0  0  0  0  1  0  0  0  0  0  0
  185.5770  179.4130  143.6700 C   0  0  0  0  0  2  0  0  0  0  0  0
  184.7670  179.3790  144.8040 O   0  0  0  0  0  1  0  0  0  0  0  0
  189.3110  171.8070  144.0970 C   0  0  0  0  0  1  0  0  0  0  0  0
  189.9020  172.9370  144.9150 C   0  0  0  0  0  2  0  0  0  0  0  0
  1 20  1  6  0  0  0
  1  7  1  0  0  0  0
  1 10  1  0  0  0  0
  2 16  2  0  0  0  0
  2 15  1  0  0  0  0
  3  5  1  0  0  0  0
  4  8  1  0  0  0  0
  4 13  1  1  0  0  0
  5 14  1  0  0  0  0
  5 11  1  0  0  0  0
  6 12  1  0  0  0  0
  7  2  1  0  0  0  0
  9  3  2  0  0  0  0
 12 13  1  0  0  0  0
 12 26  1  0  0  0  0
 14  8  1  0  0  0  0
 15 10  1  6  0  0  0
 15  3  1  0  0  0  0
 16 17  2  0  0  0  0
 17  4  1  0  0  0  0
 18 17  1  0  0  0  0
 18  6  1  0  0  0  0
 19 20  1  0  0  0  0
 21 20  2  0  0  0  0
 22 19  1  0  0  0  0
 24 25  1  0  0  0  0
 24 22  1  0  0  0  0
 24 23  1  0  0  0  0
 26 41  1  1  0  0  0
 26 33  1  0  0  0  0
 27 33  1  0  0  0  0
 27 28  1  0  0  0  0
 28 34  1  0  0  0  0
 29 31  1  0  0  0  0
 29 37  1  0  0  0  0
 29 36  1  0  0  0  0
 30 28  1  0  0  0  0
 31 27  1  0  0  0  0
 32 31  1  0  0  0  0
 33 35  1  0  0  0  0
 35 34  1  0  0  0  0
 36 30  1  0  0  0  0
 38 36  1  0  0  0  0
 38 39  1  0  0  0  0
 40 41  1  0  0  0  0
M  END
>  <MODEL>
7

>  <REMARK>
 VINA RESULT:      -6.4      4.240     10.872
  Name = 
  7 active torsions:
  status: ('A' for Active; 'I' for Inactive)
    1  A    between atoms: C_5  and  C_24
    2  A    between atoms: N_9  and  C_12
    3  A    between atoms: C_12  and  C_21
    4  A    between atoms: C_14  and  C_23
    5  A    between atoms: C_23  and  N_32
    6  A    between atoms: C_23  and  C_37
    7  A    between atoms: C_29  and  C_30
                            x       y       z     vdW  Elec       q    Type
                         _______ _______ _______ _____ _____    ______ ____

>  <TORSDO>
F 7

$$$$
=
 OpenBabel11062422173D

 41 45  0  0  1  0  0  0  0  0999 V2000
  187.3740  177.7630  142.5070 C   0  0  2  0  0  3  0  0  0  0  0  0
  188.6180  175.7240  142.2510 C   0  0  0  0  0  0  0  0  0  0  0  0
  190.0410  175.5450  144.2590 C   0  0  0  0  0  0  0  0  0  0  0  0
  191.1410  173.7110  140.8510 C   0  0  1  0  0  3  0  0  0  0  0  0
  191.2060  174.7260  144.0560 N   0  0  0  0  0  0  0  0  0  0  0  0
  189.5490  171.7880  139.3400 C   0  0  0  0  0  2  0  0  0  0  0  0
  187.2900  176.3300  142.0200 C   0  0  0  0  0  2  0  0  0  0  0  0
  191.5630  173.4480  142.2220 N   0  0  0  0  0  2  0  0  0  0  0  0
  189.4020  175.4640  145.3450 O   0  0  0  0  0  0  0  0  0  0  0  0
  188.6340  177.8860  143.8230 S   0  0  0  0  0  0  0  0  0  0  0  0
  191.7480  173.9360  145.1570 C   0  0  0  0  0  1  0  0  0  0  0  0
  190.8340  171.4370  139.9500 N   0  0  0  0  0  0  0  0  0  0  0  0
  191.6830  172.6270  139.9180 C   0  0  0  0  0  2  0  0  0  0  0  0
  191.8520  174.6920  142.8080 N   0  0  0  0  0  2  0  0  0  0  0  0
  189.5390  176.4480  143.1640 C   0  0  2  0  0  3  0  0  0  0  0  0
  189.0790  174.7820  141.4790 C   0  0  0  0  0  0  0  0  0  0  0  0
  189.6370  173.8410  140.7730 C   0  0  0  0  0  0  0  0  0  0  0  0
  188.7720  172.7280  140.2540 C   0  0  0  0  0  2  0  0  0  0  0  0
  185.8340  178.5470  144.3630 N   0  0  0  0  0  2  0  0  0  0  0  0
  186.0400  178.2360  142.9820 C   0  0  0  0  0  0  0  0  0  0  0  0
  185.0900  178.3240  142.1610 O   0  0  0  0  0  0  0  0  0  0  0  0
  184.5650  179.0290  144.8860 C   0  0  0  0  0  2  0  0  0  0  0  0
  185.5140  179.2300  147.0740 O   0  0  0  0  0  1  0  0  0  0  0  0
  184.4360  178.6910  146.3620 C   0  0  0  0  0  3  0  0  0  0  0  0
  184.4270  177.3060  146.5150 O   0  0  0  0  0  1  0  0  0  0  0  0
  191.4890  170.3580  139.1940 C   0  0  2  0  0  3  0  0  0  0  0  0
  192.9180  170.8110  137.0650 C   0  0  2  0  0  3  0  0  0  0  0  0
  192.6610  170.6290  135.5580 C   0  0  1  0  0  3  0  0  0  0  0  0
  195.2370  169.6730  136.7640 C   0  0  2  0  0  3  0  0  0  0  0  0
  193.8360  170.0950  134.7410 C   0  0  0  0  0  2  0  0  0  0  0  0
  193.9690  169.8170  137.6190 C   0  0  1  0  0  3  0  0  0  0  0  0
  194.3500  170.1900  138.9070 O   0  0  0  0  0  1  0  0  0  0  0  0
  191.5280  170.6060  137.6620 C   0  0  1  0  0  3  0  0  0  0  0  0
  191.4520  169.7160  135.4110 C   0  0  0  0  0  2  0  0  0  0  0  0
  190.8400  169.5620  136.7930 C   0  0  0  0  0  2  0  0  0  0  0  0
  195.1560  170.4220  135.4270 C   0  0  2  0  0  3  0  0  0  0  0  0
  195.4970  168.3130  136.5700 O   0  0  0  0  0  1  0  0  0  0  0  0
  196.3410  170.0990  134.5250 C   0  0  0  0  0  2  0  0  0  0  0  0
  197.5210  170.5630  135.1030 O   0  0  0  0  0  1  0  0  0  0  0  0
  190.8010  168.9220  141.1130 C   0  0  0  0  0  1  0  0  0  0  0  0
  190.9380  168.9960  139.6060 C   0  0  0  0  0  2  0  0  0  0  0  0
  1 20  1  1  0  0  0
  1 10  1  0  0  0  0
  3  9  2  0  0  0  0
  4 13  1  6  0  0  0
  4  8  1  0  0  0  0
  5  3  1  0  0  0  0
  5 11  1  0  0  0  0
  6 12  1  0  0  0  0
  6 18  1  0  0  0  0
  7  2  1  0  0  0  0
  7  1  1  0  0  0  0
  8 14  1  0  0  0  0
 13 12  1  0  0  0  0
 14  5  1  0  0  0  0
 15  2  1  6  0  0  0
 15 10  1  0  0  0  0
 15  3  1  0  0  0  0
 16  2  2  0  0  0  0
 17  4  1  0  0  0  0
 17 16  2  0  0  0  0
 18 17  1  0  0  0  0
 19 22  1  0  0  0  0
 20 19  1  0  0  0  0
 21 20  2  0  0  0  0
 22 24  1  0  0  0  0
 24 25  1  0  0  0  0
 24 23  1  0  0  0  0
 26 41  1  6  0  0  0
 26 12  1  0  0  0  0
 27 31  1  0  0  0  0
 27 33  1  0  0  0  0
 28 27  1  0  0  0  0
 29 31  1  0  0  0  0
 30 36  1  0  0  0  0
 30 28  1  0  0  0  0
 31 32  1  0  0  0  0
 33 26  1  0  0  0  0
 34 28  1  0  0  0  0
 34 35  1  0  0  0  0
 35 33  1  0  0  0  0
 36 29  1  0  0  0  0
 37 29  1  0  0  0  0
 38 39  1  0  0  0  0
 38 36  1  0  0  0  0
 41 40  1  0  0  0  0
M  END
>  <MODEL>
8

>  <REMARK>
 VINA RESULT:      -6.2      4.885      6.548
  Name = 
  7 active torsions:
  status: ('A' for Active; 'I' for Inactive)
    1  A    between atoms: C_5  and  C_24
    2  A    between atoms: N_9  and  C_12
    3  A    between atoms: C_12  and  C_21
    4  A    between atoms: C_14  and  C_23
    5  A    between atoms: C_23  and  N_32
    6  A    between atoms: C_23  and  C_37
    7  A    between atoms: C_29  and  C_30
                            x       y       z     vdW  Elec       q    Type
                         _______ _______ _______ _____ _____    ______ ____

>  <TORSDO>
F 7

$$$$
=
 OpenBabel11062422173D

 41 45  0  0  1  0  0  0  0  0999 V2000
  194.5300  169.1050  139.9510 C   0  0  2  0  0  3  0  0  0  0  0  0
  194.1010  170.8210  141.5760 C   0  0  0  0  0  0  0  0  0  0  0  0
  195.7190  170.4430  143.4000 C   0  0  0  0  0  0  0  0  0  0  0  0
  192.2570  172.3500  144.1520 C   0  0  1  0  0  3  0  0  0  0  0  0
  195.2920  170.9920  144.6590 N   0  0  0  0  0  0  0  0  0  0  0  0
  191.2800  174.7430  142.7980 C   0  0  0  0  0  2  0  0  0  0  0  0
  194.1590  170.5640  140.1210 C   0  0  0  0  0  2  0  0  0  0  0  0
  193.5000  172.3530  144.9140 N   0  0  0  0  0  2  0  0  0  0  0  0
  196.9290  170.5450  143.0530 O   0  0  0  0  0  0  0  0  0  0  0  0
  195.4980  168.5500  141.3950 S   0  0  0  0  0  0  0  0  0  0  0  0
  196.2740  171.5080  145.6060 C   0  0  0  0  0  1  0  0  0  0  0  0
  191.5850  174.7210  144.2310 N   0  0  0  0  0  0  0  0  0  0  0  0
  191.2850  173.3800  144.7300 C   0  0  0  0  0  2  0  0  0  0  0  0
  193.9300  171.0190  145.0050 N   0  0  0  0  0  2  0  0  0  0  0  0
  194.7250  169.8070  142.4640 C   0  0  2  0  0  3  0  0  0  0  0  0
  193.2960  171.7140  142.0770 C   0  0  0  0  0  0  0  0  0  0  0  0
  192.5320  172.5770  142.6840 C   0  0  0  0  0  0  0  0  0  0  0  0
  192.2980  173.9080  142.0300 C   0  0  0  0  0  2  0  0  0  0  0  0
  196.6670  169.2400  138.5930 N   0  0  0  0  0  2  0  0  0  0  0  0
  195.2810  168.8980  138.6780 C   0  0  0  0  0  0  0  0  0  0  0  0
  194.6730  168.4530  137.6690 O   0  0  0  0  0  0  0  0  0  0  0  0
  197.4600  169.0480  137.3880 C   0  0  0  0  0  2  0  0  0  0  0  0
  197.5650  171.4320  137.5730 O   0  0  0  0  0  1  0  0  0  0  0  0
  197.6580  170.3700  136.6660 C   0  0  0  0  0  3  0  0  0  0  0  0
  196.6740  170.5090  135.6890 O   0  0  0  0  0  1  0  0  0  0  0  0
  190.7580  175.7000  144.9530 C   0  0  2  0  0  3  0  0  0  0  0  0
  188.1910  176.1230  144.8330 C   0  0  2  0  0  3  0  0  0  0  0  0
  187.3090  177.0420  143.9680 C   0  0  1  0  0  3  0  0  0  0  0  0
  186.8840  176.9180  146.9360 C   0  0  2  0  0  3  0  0  0  0  0  0
  186.1500  177.7270  144.6910 C   0  0  0  0  0  2  0  0  0  0  0  0
  188.2450  176.5660  146.3170 C   0  0  1  0  0  3  0  0  0  0  0  0
  188.8350  175.5700  147.0940 O   0  0  0  0  0  1  0  0  0  0  0  0
  189.5450  176.2150  144.1320 C   0  0  1  0  0  3  0  0  0  0  0  0
  188.2220  178.0780  143.3270 C   0  0  0  0  0  2  0  0  0  0  0  0
  189.6510  177.6340  143.5930 C   0  0  0  0  0  2  0  0  0  0  0  0
  185.7370  176.9240  145.9170 C   0  0  2  0  0  3  0  0  0  0  0  0
  186.9920  178.1510  147.5880 O   0  0  0  0  0  1  0  0  0  0  0  0
  184.4460  177.4650  146.5220 C   0  0  0  0  0  2  0  0  0  0  0  0
  184.0700  178.6390  145.8720 O   0  0  0  0  0  1  0  0  0  0  0  0
  192.3070  176.2830  146.8180 C   0  0  0  0  0  1  0  0  0  0  0  0
  191.6250  176.7960  145.5660 C   0  0  0  0  0  2  0  0  0  0  0  0
  1 20  1  6  0  0  0
  1  7  1  0  0  0  0
  1 10  1  0  0  0  0
  2 16  2  0  0  0  0
  2 15  1  0  0  0  0
  3  5  1  0  0  0  0
  4 13  1  1  0  0  0
  4  8  1  0  0  0  0
  5 14  1  0  0  0  0
  5 11  1  0  0  0  0
  6 12  1  0  0  0  0
  7  2  1  0  0  0  0
  8 14  1  0  0  0  0
  9  3  2  0  0  0  0
 12 13  1  0  0  0  0
 12 26  1  0  0  0  0
 15 10  1  6  0  0  0
 15  3  1  0  0  0  0
 16 17  2  0  0  0  0
 17  4  1  0  0  0  0
 18 17  1  0  0  0  0
 18  6  1  0  0  0  0
 19 20  1  0  0  0  0
 21 20  2  0  0  0  0
 22 19  1  0  0  0  0
 24 22  1  0  0  0  0
 24 23  1  0  0  0  0
 25 24  1  0  0  0  0
 26 41  1  6  0  0  0
 27 31  1  0  0  0  0
 28 30  1  0  0  0  0
 28 27  1  0  0  0  0
 29 37  1  0  0  0  0
 30 36  1  0  0  0  0
 31 29  1  0  0  0  0
 31 32  1  0  0  0  0
 33 27  1  0  0  0  0
 33 26  1  0  0  0  0
 34 35  1  0  0  0  0
 34 28  1  0  0  0  0
 35 33  1  0  0  0  0
 36 38  1  0  0  0  0
 36 29  1  0  0  0  0
 39 38  1  0  0  0  0
 41 40  1  0  0  0  0
M  END
>  <MODEL>
9

>  <REMARK>
 VINA RESULT:      -6.2      4.471     11.409
  Name = 
  7 active torsions:
  status: ('A' for Active; 'I' for Inactive)
    1  A    between atoms: C_5  and  C_24
    2  A    between atoms: N_9  and  C_12
    3  A    between atoms: C_12  and  C_21
    4  A    between atoms: C_14  and  C_23
    5  A    between atoms: C_23  and  N_32
    6  A    between atoms: C_23  and  C_37
    7  A    between atoms: C_29  and  C_30
                            x       y       z     vdW  Elec       q    Type
                         _______ _______ _______ _____ _____    ______ ____

>  <TORSDO>
F 7

$$$$
