=
 OpenBabel11062422243D

 36 39  0  0  1  0  0  0  0  0999 V2000
  189.7980  176.6310  146.4260 C   0  0  2  0  0  3  0  0  0  0  0  0
  191.8440  177.1700  143.3830 C   0  0  0  0  0  2  0  0  0  0  0  0
  190.6080  177.3210  144.1940 C   0  0  0  0  0  2  0  0  0  0  0  0
  190.6550  176.4740  145.2020 C   0  0  1  0  0  3  0  0  0  0  0  0
  191.9920  176.8730  147.4240 O   0  0  0  0  0  0  0  0  0  0  0  0
  192.6140  175.8890  146.6250 C   0  0  0  0  0  2  0  0  0  0  0  0
  192.7750  176.3730  144.1910 N   0  0  0  0  0  0  0  0  0  0  0  0
  191.9570  175.7570  145.2360 C   0  0  2  0  0  3  0  0  0  0  0  0
  190.6770  176.4230  147.6660 C   0  0  0  0  0  2  0  0  0  0  0  0
  188.6510  175.6260  146.4610 C   0  0  0  0  0  2  0  0  0  0  0  0
  187.3520  176.1980  145.9080 C   0  0  0  0  0  2  0  0  0  0  0  0
  187.3930  177.7200  145.9280 C   0  0  0  0  0  2  0  0  0  0  0  0
  184.9160  178.2250  140.7750 C   0  0  0  0  0  1  0  0  0  0  0  0
  184.7020  178.2570  143.2300 C   0  0  0  0  0  0  0  0  0  0  0  0
  185.4750  178.0650  142.1510 C   0  0  0  0  0  0  0  0  0  0  0  0
  185.2540  178.0120  144.6210 C   0  0  1  0  0  3  0  0  0  0  0  0
  186.7650  178.2860  144.6630 C   0  0  2  0  0  3  0  0  0  0  0  0
  187.4490  177.7390  143.4910 N   0  0  0  0  0  0  0  0  0  0  0  0
  186.8890  177.6720  142.3170 C   0  0  0  0  0  0  0  0  0  0  0  0
  183.3650  178.6190  143.0680 O   0  0  0  0  0  1  0  0  0  0  0  0
  184.5610  178.8940  145.6570 C   0  0  0  0  0  2  0  0  0  0  0  0
  183.9560  178.1110  146.6390 O   0  0  0  0  0  1  0  0  0  0  0  0
  187.9550  175.8480  141.0410 C   0  0  0  0  0  1  0  0  0  0  0  0
  187.6120  177.2160  141.2120 O   0  0  0  0  0  0  0  0  0  0  0  0
  193.3620  175.3200  143.3570 C   0  0  0  0  0  2  0  0  0  0  0  0
  192.6070  174.1070  143.4180 O   0  0  0  0  0  0  0  0  0  0  0  0
  190.0960  172.7600  140.3070 C   0  0  0  0  0  0  0  0  0  0  0  0
  189.7360  172.6010  141.6540 C   0  0  0  0  0  3  0  0  0  0  0  0
  191.3290  173.3780  140.0010 C   0  0  0  0  0  0  0  0  0  0  0  0
  191.7900  173.6610  142.3730 C   0  0  0  0  0  0  0  0  0  0  0  0
  192.1630  173.8210  141.0310 C   0  0  0  0  0  3  0  0  0  0  0  0
  190.5750  173.0460  142.6770 C   0  0  0  0  0  3  0  0  0  0  0  0
  191.7390  173.5620  138.6850 O   0  0  0  0  0  1  0  0  0  0  0  0
  188.0100  172.9740  138.9440 O   0  0  0  0  0  1  0  0  0  0  0  0
  189.1700  172.2750  139.2580 C   0  0  0  0  0  0  0  0  0  0  0  0
  189.4260  171.2110  138.6330 O   0  0  0  0  0  0  0  0  0  0  0  0
  1 10  1  6  0  0  0
  1  9  1  0  0  0  0
  2  7  1  0  0  0  0
  2  3  1  0  0  0  0
  4  3  1  1  0  0  0
  4  8  1  0  0  0  0
  4  1  1  0  0  0  0
  5  9  1  0  0  0  0
  6  5  1  0  0  0  0
  7  8  1  0  0  0  0
  8  6  1  1  0  0  0
 11 12  1  0  0  0  0
 11 10  1  0  0  0  0
 13 15  1  0  0  0  0
 14 16  1  0  0  0  0
 15 19  1  0  0  0  0
 15 14  2  0  0  0  0
 16 17  1  0  0  0  0
 16 21  1  1  0  0  0
 17 12  1  1  0  0  0
 18 17  1  0  0  0  0
 19 18  2  0  0  0  0
 20 14  1  0  0  0  0
 21 22  1  0  0  0  0
 23 24  1  0  0  0  0
 24 19  1  0  0  0  0
 25 26  1  0  0  0  0
 25  7  1  0  0  0  0
 27 28  1  0  0  0  0
 28 32  2  0  0  0  0
 29 27  2  0  0  0  0
 29 31  1  0  0  0  0
 30 32  1  0  0  0  0
 30 26  1  0  0  0  0
 31 30  2  0  0  0  0
 33 29  1  0  0  0  0
 34 35  1  0  0  0  0
 35 27  1  0  0  0  0
 36 35  2  0  0  0  0
M  END
>  <MODEL>
1

>  <REMARK>
 VINA RESULT:      -6.9      0.000      0.000
  Name = 
  10 active torsions:
  status: ('A' for Active; 'I' for Inactive)
    1  A    between atoms: C_1  and  C_12
    2  A    between atoms: C_3  and  C_14
    3  A    between atoms: C_6  and  C_17
    4  A    between atoms: C_12  and  C_28
    5  A    between atoms: C_16  and  O_18
    6  A    between atoms: O_18  and  C_30
    7  A    between atoms: O_21  and  C_29
    8  A    between atoms: N_23  and  C_30
    9  A    between atoms: C_24  and  C_33
   10  A    between atoms: C_28  and  C_33
                            x       y       z     vdW  Elec       q    Type
                         _______ _______ _______ _____ _____    ______ ____

>  <TORSDO>
F 10

$$$$
=
 OpenBabel11062422243D

 36 39  0  0  1  0  0  0  0  0999 V2000
  188.3070  174.1010  140.9750 C   0  0  2  0  0  3  0  0  0  0  0  0
  190.0400  171.3610  142.7710 C   0  0  0  0  0  2  0  0  0  0  0  0
  188.9170  172.3140  142.5700 C   0  0  0  0  0  2  0  0  0  0  0  0
  189.2920  173.2400  141.7110 C   0  0  1  0  0  3  0  0  0  0  0  0
  189.3120  172.9350  139.1060 O   0  0  0  0  0  0  0  0  0  0  0  0
  190.6240  172.9480  139.6270 C   0  0  0  0  0  2  0  0  0  0  0  0
  191.0080  171.6330  141.7020 N   0  0  0  0  0  0  0  0  0  0  0  0
  190.6450  172.9460  141.1690 C   0  0  2  0  0  3  0  0  0  0  0  0
  188.7110  174.1490  139.4960 C   0  0  0  0  0  2  0  0  0  0  0  0
  188.2640  175.5250  141.5210 C   0  0  0  0  0  2  0  0  0  0  0  0
  188.1550  175.5690  143.0400 C   0  0  0  0  0  2  0  0  0  0  0  0
  188.7540  176.8610  143.5770 C   0  0  0  0  0  2  0  0  0  0  0  0
  184.0880  178.2230  146.6310 C   0  0  0  0  0  1  0  0  0  0  0  0
  186.2850  177.1120  146.5190 C   0  0  0  0  0  0  0  0  0  0  0  0
  185.3130  177.7910  145.8930 C   0  0  0  0  0  0  0  0  0  0  0  0
  187.4870  176.6050  145.7450 C   0  0  1  0  0  3  0  0  0  0  0  0
  187.7960  177.5260  144.5550 C   0  0  2  0  0  3  0  0  0  0  0  0
  186.5780  177.9280  143.8490 N   0  0  0  0  0  0  0  0  0  0  0  0
  185.4390  178.1010  144.4540 C   0  0  0  0  0  0  0  0  0  0  0  0
  186.1580  176.8140  147.8750 O   0  0  0  0  0  1  0  0  0  0  0  0
  188.7230  176.5130  146.6350 C   0  0  0  0  0  2  0  0  0  0  0  0
  188.9950  175.1840  146.9590 O   0  0  0  0  0  1  0  0  0  0  0  0
  184.0720  178.1930  142.4010 C   0  0  0  0  0  1  0  0  0  0  0  0
  184.3250  178.5640  143.7490 O   0  0  0  0  0  0  0  0  0  0  0  0
  192.3560  171.7040  142.2750 C   0  0  0  0  0  2  0  0  0  0  0  0
  192.3260  171.9410  143.6840 O   0  0  0  0  0  0  0  0  0  0  0  0
  193.7020  175.5110  145.4610 C   0  0  0  0  0  0  0  0  0  0  0  0
  192.4340  175.4370  144.8630 C   0  0  0  0  0  3  0  0  0  0  0  0
  194.5260  174.3640  145.4540 C   0  0  0  0  0  0  0  0  0  0  0  0
  192.8020  173.1180  144.2730 C   0  0  0  0  0  0  0  0  0  0  0  0
  194.0730  173.1820  144.8620 C   0  0  0  0  0  3  0  0  0  0  0  0
  191.9890  174.2520  144.2740 C   0  0  0  0  0  3  0  0  0  0  0  0
  195.7920  174.3790  146.0300 O   0  0  0  0  0  1  0  0  0  0  0  0
  194.9430  177.6830  145.3910 O   0  0  0  0  0  0  0  0  0  0  0  0
  194.1270  176.7890  146.0770 C   0  0  0  0  0  0  0  0  0  0  0  0
  193.7500  177.0840  147.2430 O   0  0  0  0  0  1  0  0  0  0  0  0
  1 10  1  1  0  0  0
  1  4  1  0  0  0  0
  3  2  1  0  0  0  0
  4  3  1  6  0  0  0
  5  9  1  0  0  0  0
  5  6  1  0  0  0  0
  7 25  1  0  0  0  0
  7  2  1  0  0  0  0
  8  6  1  6  0  0  0
  8  7  1  0  0  0  0
  8  4  1  0  0  0  0
  9  1  1  0  0  0  0
 10 11  1  0  0  0  0
 11 12  1  0  0  0  0
 14 20  1  0  0  0  0
 15 14  2  0  0  0  0
 15 13  1  0  0  0  0
 16 14  1  0  0  0  0
 16 21  1  1  0  0  0
 17 12  1  6  0  0  0
 17 16  1  0  0  0  0
 18 19  2  0  0  0  0
 18 17  1  0  0  0  0
 19 15  1  0  0  0  0
 21 22  1  0  0  0  0
 23 24  1  0  0  0  0
 24 19  1  0  0  0  0
 25 26  1  0  0  0  0
 26 30  1  0  0  0  0
 27 35  1  0  0  0  0
 28 27  2  0  0  0  0
 29 27  1  0  0  0  0
 29 33  1  0  0  0  0
 30 32  2  0  0  0  0
 30 31  1  0  0  0  0
 31 29  2  0  0  0  0
 32 28  1  0  0  0  0
 34 35  2  0  0  0  0
 35 36  1  0  0  0  0
M  END
>  <MODEL>
2

>  <REMARK>
 VINA RESULT:      -6.9      2.101      5.869
  Name = 
  10 active torsions:
  status: ('A' for Active; 'I' for Inactive)
    1  A    between atoms: C_1  and  C_12
    2  A    between atoms: C_3  and  C_14
    3  A    between atoms: C_6  and  C_17
    4  A    between atoms: C_12  and  C_28
    5  A    between atoms: C_16  and  O_18
    6  A    between atoms: O_18  and  C_30
    7  A    between atoms: O_21  and  C_29
    8  A    between atoms: N_23  and  C_30
    9  A    between atoms: C_24  and  C_33
   10  A    between atoms: C_28  and  C_33
                            x       y       z     vdW  Elec       q    Type
                         _______ _______ _______ _____ _____    ______ ____

>  <TORSDO>
F 10

$$$$
=
 OpenBabel11062422243D

 36 39  0  0  1  0  0  0  0  0999 V2000
  188.2810  173.6400  140.9280 C   0  0  2  0  0  3  0  0  0  0  0  0
  190.4630  171.4710  142.9930 C   0  0  0  0  0  2  0  0  0  0  0  0
  189.2520  172.3010  142.7650 C   0  0  0  0  0  2  0  0  0  0  0  0
  189.4270  173.0170  141.6720 C   0  0  1  0  0  3  0  0  0  0  0  0
  189.0960  172.1150  139.2310 O   0  0  0  0  0  0  0  0  0  0  0  0
  190.4640  172.3060  139.5220 C   0  0  0  0  0  2  0  0  0  0  0  0
  191.2440  171.5280  141.7510 N   0  0  0  0  0  0  0  0  0  0  0  0
  190.7060  172.6640  141.0030 C   0  0  2  0  0  3  0  0  0  0  0  0
  188.4640  173.3600  139.4300 C   0  0  0  0  0  2  0  0  0  0  0  0
  188.2060  175.1490  141.1420 C   0  0  0  0  0  2  0  0  0  0  0  0
  187.5990  175.5210  142.4890 C   0  0  0  0  0  2  0  0  0  0  0  0
  188.4630  176.5620  143.1880 C   0  0  0  0  0  2  0  0  0  0  0  0
  184.1740  178.4170  146.5220 C   0  0  0  0  0  1  0  0  0  0  0  0
  186.2480  177.1070  146.2880 C   0  0  0  0  0  0  0  0  0  0  0  0
  185.2980  177.8580  145.7120 C   0  0  0  0  0  0  0  0  0  0  0  0
  187.3390  176.4740  145.4460 C   0  0  1  0  0  3  0  0  0  0  0  0
  187.6420  177.3350  144.2110 C   0  0  2  0  0  3  0  0  0  0  0  0
  186.4170  177.8300  143.5810 N   0  0  0  0  0  0  0  0  0  0  0  0
  185.3450  178.1200  144.2590 C   0  0  0  0  0  0  0  0  0  0  0  0
  186.1940  176.8540  147.6580 O   0  0  0  0  0  1  0  0  0  0  0  0
  188.6250  176.2900  146.2500 C   0  0  0  0  0  2  0  0  0  0  0  0
  189.1670  177.5280  146.5940 O   0  0  0  0  0  1  0  0  0  0  0  0
  183.7550  178.1810  142.3730 C   0  0  0  0  0  1  0  0  0  0  0  0
  184.2280  178.6660  143.6210 O   0  0  0  0  0  0  0  0  0  0  0  0
  192.6510  171.7880  142.0740 C   0  0  0  0  0  2  0  0  0  0  0  0
  192.9590  173.1840  142.0330 O   0  0  0  0  0  0  0  0  0  0  0  0
  193.0330  175.6080  145.4850 C   0  0  0  0  0  0  0  0  0  0  0  0
  193.6380  174.3420  145.4710 C   0  0  0  0  0  3  0  0  0  0  0  0
  192.3840  176.0650  144.3160 C   0  0  0  0  0  0  0  0  0  0  0  0
  192.9670  173.9990  143.1700 C   0  0  0  0  0  0  0  0  0  0  0  0
  192.3550  175.2610  143.1730 C   0  0  0  0  0  3  0  0  0  0  0  0
  193.6050  173.5450  144.3250 C   0  0  0  0  0  3  0  0  0  0  0  0
  191.7670  177.3100  144.2700 O   0  0  0  0  0  1  0  0  0  0  0  0
  192.0440  176.4360  147.6280 O   0  0  0  0  0  1  0  0  0  0  0  0
  193.0990  176.4180  146.7230 C   0  0  0  0  0  0  0  0  0  0  0  0
  194.1240  177.1080  146.9710 O   0  0  0  0  0  0  0  0  0  0  0  0
  1 10  1  6  0  0  0
  1  4  1  0  0  0  0
  3  2  1  0  0  0  0
  4  3  1  6  0  0  0
  5  9  1  0  0  0  0
  5  6  1  0  0  0  0
  7 25  1  0  0  0  0
  7  2  1  0  0  0  0
  8  6  1  6  0  0  0
  8  4  1  0  0  0  0
  8  7  1  0  0  0  0
  9  1  1  0  0  0  0
 10 11  1  0  0  0  0
 11 12  1  0  0  0  0
 14 20  1  0  0  0  0
 15 14  2  0  0  0  0
 15 13  1  0  0  0  0
 16 21  1  1  0  0  0
 16 14  1  0  0  0  0
 17 12  1  6  0  0  0
 17 16  1  0  0  0  0
 18 17  1  0  0  0  0
 18 19  2  0  0  0  0
 19 15  1  0  0  0  0
 21 22  1  0  0  0  0
 23 24  1  0  0  0  0
 24 19  1  0  0  0  0
 26 25  1  0  0  0  0
 26 30  1  0  0  0  0
 27 35  1  0  0  0  0
 28 27  1  0  0  0  0
 29 27  2  0  0  0  0
 30 31  2  0  0  0  0
 30 32  1  0  0  0  0
 31 29  1  0  0  0  0
 32 28  2  0  0  0  0
 33 29  1  0  0  0  0
 35 36  2  0  0  0  0
 35 34  1  0  0  0  0
M  END
>  <MODEL>
3

>  <REMARK>
 VINA RESULT:      -6.9      1.899      5.774
  Name = 
  10 active torsions:
  status: ('A' for Active; 'I' for Inactive)
    1  A    between atoms: C_1  and  C_12
    2  A    between atoms: C_3  and  C_14
    3  A    between atoms: C_6  and  C_17
    4  A    between atoms: C_12  and  C_28
    5  A    between atoms: C_16  and  O_18
    6  A    between atoms: O_18  and  C_30
    7  A    between atoms: O_21  and  C_29
    8  A    between atoms: N_23  and  C_30
    9  A    between atoms: C_24  and  C_33
   10  A    between atoms: C_28  and  C_33
                            x       y       z     vdW  Elec       q    Type
                         _______ _______ _______ _____ _____    ______ ____

>  <TORSDO>
F 10

$$$$
=
 OpenBabel11062422243D

 36 39  0  0  1  0  0  0  0  0999 V2000
  192.6160  176.9220  144.5930 C   0  0  2  0  0  3  0  0  0  0  0  0
  194.8980  174.2020  143.5290 C   0  0  0  0  0  2  0  0  0  0  0  0
  194.3380  175.5750  143.4370 C   0  0  0  0  0  2  0  0  0  0  0  0
  193.2190  175.6260  144.1320 C   0  0  1  0  0  3  0  0  0  0  0  0
  193.0940  175.9030  146.7370 O   0  0  0  0  0  0  0  0  0  0  0  0
  192.7410  174.5930  146.3470 C   0  0  0  0  0  2  0  0  0  0  0  0
  194.1680  173.5290  144.6110 N   0  0  0  0  0  0  0  0  0  0  0  0
  192.9750  174.3440  144.8430 C   0  0  2  0  0  3  0  0  0  0  0  0
  192.2120  176.7750  146.0650 C   0  0  0  0  0  2  0  0  0  0  0  0
  191.3840  177.3070  143.7790 C   0  0  0  0  0  2  0  0  0  0  0  0
  190.7500  176.1150  143.0740 C   0  0  0  0  0  2  0  0  0  0  0  0
  189.4040  175.7840  143.7020 C   0  0  0  0  0  2  0  0  0  0  0  0
  185.2080  179.6590  144.2710 C   0  0  0  0  0  1  0  0  0  0  0  0
  186.7060  178.0050  145.3150 C   0  0  0  0  0  0  0  0  0  0  0  0
  186.2650  178.6060  144.2000 C   0  0  0  0  0  0  0  0  0  0  0  0
  187.7190  176.8800  145.2290 C   0  0  1  0  0  3  0  0  0  0  0  0
  188.6290  177.0590  144.0040 C   0  0  2  0  0  3  0  0  0  0  0  0
  187.8710  177.4630  142.8190 N   0  0  0  0  0  0  0  0  0  0  0  0
  186.8090  178.2120  142.8850 C   0  0  0  0  0  0  0  0  0  0  0  0
  186.1830  178.3740  146.5540 O   0  0  0  0  0  1  0  0  0  0  0  0
  188.5850  176.8130  146.4850 C   0  0  0  0  0  2  0  0  0  0  0  0
  188.4040  175.5960  147.1390 O   0  0  0  0  0  1  0  0  0  0  0  0
  186.1690  177.8640  140.5270 C   0  0  0  0  0  1  0  0  0  0  0  0
  186.1680  178.6370  141.7190 O   0  0  0  0  0  0  0  0  0  0  0  0
  193.7570  172.1940  144.1620 C   0  0  0  0  0  2  0  0  0  0  0  0
  193.5440  172.1480  142.7490 O   0  0  0  0  0  0  0  0  0  0  0  0
  189.9280  173.2490  140.8760 C   0  0  0  0  0  0  0  0  0  0  0  0
  191.1680  173.6350  140.3470 C   0  0  0  0  0  3  0  0  0  0  0  0
  189.9020  172.4840  142.0640 C   0  0  0  0  0  0  0  0  0  0  0  0
  192.3340  172.5090  142.1460 C   0  0  0  0  0  0  0  0  0  0  0  0
  191.1000  172.1220  142.6870 C   0  0  0  0  0  3  0  0  0  0  0  0
  192.3600  173.2690  140.9760 C   0  0  0  0  0  3  0  0  0  0  0  0
  188.7030  172.0730  142.6350 O   0  0  0  0  0  1  0  0  0  0  0  0
  188.1650  174.9360  140.3210 O   0  0  0  0  0  1  0  0  0  0  0  0
  188.6910  173.6570  140.1700 C   0  0  0  0  0  0  0  0  0  0  0  0
  188.0960  172.8410  139.4170 O   0  0  0  0  0  0  0  0  0  0  0  0
  1 10  1  6  0  0  0
  1  9  1  0  0  0  0
  2  7  1  0  0  0  0
  3  2  1  0  0  0  0
  4  3  1  1  0  0  0
  4  1  1  0  0  0  0
  4  8  1  0  0  0  0
  6  5  1  0  0  0  0
  7  8  1  0  0  0  0
  8  6  1  1  0  0  0
  9  5  1  0  0  0  0
 11 12  1  0  0  0  0
 11 10  1  0  0  0  0
 14 20  1  0  0  0  0
 15 13  1  0  0  0  0
 15 14  2  0  0  0  0
 16 14  1  0  0  0  0
 16 21  1  1  0  0  0
 17 12  1  6  0  0  0
 17 16  1  0  0  0  0
 18 19  2  0  0  0  0
 18 17  1  0  0  0  0
 19 15  1  0  0  0  0
 21 22  1  0  0  0  0
 23 24  1  0  0  0  0
 24 19  1  0  0  0  0
 25  7  1  0  0  0  0
 26 25  1  0  0  0  0
 27 29  1  0  0  0  0
 28 27  2  0  0  0  0
 28 32  1  0  0  0  0
 29 33  1  0  0  0  0
 29 31  2  0  0  0  0
 30 31  1  0  0  0  0
 30 26  1  0  0  0  0
 32 30  2  0  0  0  0
 35 34  1  0  0  0  0
 35 27  1  0  0  0  0
 36 35  2  0  0  0  0
M  END
>  <MODEL>
4

>  <REMARK>
 VINA RESULT:      -6.8      1.773      3.045
  Name = 
  10 active torsions:
  status: ('A' for Active; 'I' for Inactive)
    1  A    between atoms: C_1  and  C_12
    2  A    between atoms: C_3  and  C_14
    3  A    between atoms: C_6  and  C_17
    4  A    between atoms: C_12  and  C_28
    5  A    between atoms: C_16  and  O_18
    6  A    between atoms: O_18  and  C_30
    7  A    between atoms: O_21  and  C_29
    8  A    between atoms: N_23  and  C_30
    9  A    between atoms: C_24  and  C_33
   10  A    between atoms: C_28  and  C_33
                            x       y       z     vdW  Elec       q    Type
                         _______ _______ _______ _____ _____    ______ ____

>  <TORSDO>
F 10

$$$$
=
 OpenBabel11062422243D

 36 39  0  0  1  0  0  0  0  0999 V2000
  191.5630  176.0840  145.6250 C   0  0  2  0  0  3  0  0  0  0  0  0
  191.6610  172.6350  144.2700 C   0  0  0  0  0  2  0  0  0  0  0  0
  192.2490  173.9750  144.5320 C   0  0  0  0  0  2  0  0  0  0  0  0
  191.2870  174.7970  144.9010 C   0  0  1  0  0  3  0  0  0  0  0  0
  190.2830  174.9220  147.3210 O   0  0  0  0  0  0  0  0  0  0  0  0
  189.3700  174.3300  146.4220 C   0  0  0  0  0  2  0  0  0  0  0  0
  190.3050  172.6620  144.8300 N   0  0  0  0  0  0  0  0  0  0  0  0
  189.9930  174.0780  145.0330 C   0  0  2  0  0  3  0  0  0  0  0  0
  190.5880  176.1980  146.8040 C   0  0  0  0  0  2  0  0  0  0  0  0
  191.3900  177.3020  144.7220 C   0  0  0  0  0  2  0  0  0  0  0  0
  190.0060  177.9270  144.8380 C   0  0  0  0  0  2  0  0  0  0  0  0
  189.1220  177.4740  143.6850 C   0  0  0  0  0  2  0  0  0  0  0  0
  184.0670  178.6500  146.1370 C   0  0  0  0  0  1  0  0  0  0  0  0
  185.4900  178.6690  144.1250 C   0  0  0  0  0  0  0  0  0  0  0  0
  185.3650  178.4140  145.4360 C   0  0  0  0  0  0  0  0  0  0  0  0
  186.8320  178.5060  143.4380 C   0  0  1  0  0  3  0  0  0  0  0  0
  187.6650  177.4120  144.1220 C   0  0  2  0  0  3  0  0  0  0  0  0
  187.5890  177.5030  145.5810 N   0  0  0  0  0  0  0  0  0  0  0  0
  186.5240  177.9170  146.2050 C   0  0  0  0  0  0  0  0  0  0  0  0
  184.3960  179.1470  143.4050 O   0  0  0  0  0  1  0  0  0  0  0  0
  186.6620  178.1510  141.9630 C   0  0  0  0  0  2  0  0  0  0  0  0
  186.3250  176.8060  141.8200 O   0  0  0  0  0  1  0  0  0  0  0  0
  186.8710  179.0270  148.3820 C   0  0  0  0  0  1  0  0  0  0  0  0
  186.4720  177.9090  147.6010 O   0  0  0  0  0  0  0  0  0  0  0  0
  189.3650  172.0990  143.8550 C   0  0  0  0  0  2  0  0  0  0  0  0
  188.9180  173.0800  142.9160 O   0  0  0  0  0  0  0  0  0  0  0  0
  189.7700  172.8040  138.7930 C   0  0  0  0  0  0  0  0  0  0  0  0
  190.4870  172.0520  139.7360 C   0  0  0  0  0  3  0  0  0  0  0  0
  188.7510  173.6720  139.2460 C   0  0  0  0  0  0  0  0  0  0  0  0
  189.1910  173.0070  141.5450 C   0  0  0  0  0  0  0  0  0  0  0  0
  188.4720  173.7670  140.6120 C   0  0  0  0  0  3  0  0  0  0  0  0
  190.2000  172.1530  141.0990 C   0  0  0  0  0  3  0  0  0  0  0  0
  188.0090  174.4420  138.3580 O   0  0  0  0  0  1  0  0  0  0  0  0
  189.3190  171.8930  136.5080 O   0  0  0  0  0  0  0  0  0  0  0  0
  190.1080  172.6590  137.3580 C   0  0  0  0  0  0  0  0  0  0  0  0
  191.1260  173.2350  136.8890 O   0  0  0  0  0  1  0  0  0  0  0  0
  1 10  1  6  0  0  0
  1  9  1  0  0  0  0
  2  3  1  0  0  0  0
  2  7  1  0  0  0  0
  4  3  1  1  0  0  0
  4  8  1  0  0  0  0
  4  1  1  0  0  0  0
  6  5  1  0  0  0  0
  7  8  1  0  0  0  0
  8  6  1  1  0  0  0
  9  5  1  0  0  0  0
 10 11  1  0  0  0  0
 12 11  1  0  0  0  0
 14 15  2  0  0  0  0
 15 13  1  0  0  0  0
 15 19  1  0  0  0  0
 16 21  1  6  0  0  0
 16 17  1  0  0  0  0
 16 14  1  0  0  0  0
 17 12  1  1  0  0  0
 17 18  1  0  0  0  0
 18 19  2  0  0  0  0
 19 24  1  0  0  0  0
 20 14  1  0  0  0  0
 22 21  1  0  0  0  0
 24 23  1  0  0  0  0
 25  7  1  0  0  0  0
 26 25  1  0  0  0  0
 27 29  2  0  0  0  0
 27 28  1  0  0  0  0
 28 32  2  0  0  0  0
 29 31  1  0  0  0  0
 30 26  1  0  0  0  0
 31 30  2  0  0  0  0
 32 30  1  0  0  0  0
 33 29  1  0  0  0  0
 34 35  2  0  0  0  0
 35 27  1  0  0  0  0
 36 35  1  0  0  0  0
M  END
>  <MODEL>
5

>  <REMARK>
 VINA RESULT:      -6.7      1.855      3.607
  Name = 
  10 active torsions:
  status: ('A' for Active; 'I' for Inactive)
    1  A    between atoms: C_1  and  C_12
    2  A    between atoms: C_3  and  C_14
    3  A    between atoms: C_6  and  C_17
    4  A    between atoms: C_12  and  C_28
    5  A    between atoms: C_16  and  O_18
    6  A    between atoms: O_18  and  C_30
    7  A    between atoms: O_21  and  C_29
    8  A    between atoms: N_23  and  C_30
    9  A    between atoms: C_24  and  C_33
   10  A    between atoms: C_28  and  C_33
                            x       y       z     vdW  Elec       q    Type
                         _______ _______ _______ _____ _____    ______ ____

>  <TORSDO>
F 10

$$$$
=
 OpenBabel11062422243D

 36 39  0  0  1  0  0  0  0  0999 V2000
  191.0700  176.2650  146.3540 C   0  0  2  0  0  3  0  0  0  0  0  0
  191.9420  177.3880  142.9310 C   0  0  0  0  0  2  0  0  0  0  0  0
  191.0190  177.2520  144.0880 C   0  0  0  0  0  2  0  0  0  0  0  0
  191.5090  176.3550  144.9200 C   0  0  1  0  0  3  0  0  0  0  0  0
  193.4050  176.8280  146.6710 O   0  0  0  0  0  0  0  0  0  0  0  0
  193.8820  176.0340  145.6050 C   0  0  0  0  0  2  0  0  0  0  0  0
  193.1890  176.7160  143.3160 N   0  0  0  0  0  0  0  0  0  0  0  0
  192.8460  175.8870  144.4720 C   0  0  2  0  0  3  0  0  0  0  0  0
  192.3170  176.1300  147.2370 C   0  0  0  0  0  2  0  0  0  0  0  0
  190.1580  175.0680  146.6040 C   0  0  0  0  0  2  0  0  0  0  0  0
  188.6910  175.3820  146.3360 C   0  0  0  0  0  2  0  0  0  0  0  0
  188.2860  176.6650  147.0480 C   0  0  0  0  0  2  0  0  0  0  0  0
  184.4950  178.3510  143.0810 C   0  0  0  0  0  1  0  0  0  0  0  0
  185.0180  177.9240  145.4510 C   0  0  0  0  0  0  0  0  0  0  0  0
  185.4080  177.8850  144.1680 C   0  0  0  0  0  0  0  0  0  0  0  0
  185.9170  177.3720  146.5410 C   0  0  1  0  0  3  0  0  0  0  0  0
  187.3960  177.5130  146.1510 C   0  0  2  0  0  3  0  0  0  0  0  0
  187.6250  177.1510  144.7520 N   0  0  0  0  0  0  0  0  0  0  0  0
  186.7420  177.3570  143.8180 C   0  0  0  0  0  0  0  0  0  0  0  0
  183.7540  178.4140  145.7770 O   0  0  0  0  0  1  0  0  0  0  0  0
  185.6840  178.0890  147.8690 C   0  0  0  0  0  2  0  0  0  0  0  0
  186.0870  179.4210  147.7830 O   0  0  0  0  0  1  0  0  0  0  0  0
  187.9360  177.8600  141.7170 C   0  0  0  0  0  1  0  0  0  0  0  0
  187.0400  177.0680  142.4840 O   0  0  0  0  0  0  0  0  0  0  0  0
  193.6340  175.8510  142.2190 C   0  0  0  0  0  2  0  0  0  0  0  0
  193.0920  174.5320  142.3260 O   0  0  0  0  0  0  0  0  0  0  0  0
  190.2290  172.9970  139.6340 C   0  0  0  0  0  0  0  0  0  0  0  0
  191.5230  173.3320  139.2080 C   0  0  0  0  0  3  0  0  0  0  0  0
  189.8890  173.1890  140.9920 C   0  0  0  0  0  0  0  0  0  0  0  0
  192.1270  174.0280  141.4470 C   0  0  0  0  0  0  0  0  0  0  0  0
  190.8350  173.7010  141.8830 C   0  0  0  0  0  3  0  0  0  0  0  0
  192.4620  173.8430  140.1050 C   0  0  0  0  0  3  0  0  0  0  0  0
  188.6220  172.8760  141.4720 O   0  0  0  0  0  1  0  0  0  0  0  0
  188.3070  173.2650  138.0550 O   0  0  0  0  0  0  0  0  0  0  0  0
  189.2690  172.4530  138.6460 C   0  0  0  0  0  0  0  0  0  0  0  0
  189.3140  171.2350  138.3270 O   0  0  0  0  0  1  0  0  0  0  0  0
  1 10  1  6  0  0  0
  1  9  1  0  0  0  0
  2  7  1  0  0  0  0
  2  3  1  0  0  0  0
  4  3  1  1  0  0  0
  4  1  1  0  0  0  0
  5  9  1  0  0  0  0
  6  5  1  0  0  0  0
  7  8  1  0  0  0  0
  8  4  1  0  0  0  0
  8  6  1  1  0  0  0
 11 10  1  0  0  0  0
 11 12  1  0  0  0  0
 13 15  1  0  0  0  0
 14 20  1  0  0  0  0
 14 16  1  0  0  0  0
 15 14  2  0  0  0  0
 16 21  1  1  0  0  0
 17 16  1  0  0  0  0
 17 12  1  1  0  0  0
 18 17  1  0  0  0  0
 19 15  1  0  0  0  0
 19 18  2  0  0  0  0
 22 21  1  0  0  0  0
 23 24  1  0  0  0  0
 24 19  1  0  0  0  0
 25 26  1  0  0  0  0
 25  7  1  0  0  0  0
 27 29  1  0  0  0  0
 28 27  2  0  0  0  0
 28 32  1  0  0  0  0
 29 33  1  0  0  0  0
 29 31  2  0  0  0  0
 30 31  1  0  0  0  0
 30 26  1  0  0  0  0
 32 30  2  0  0  0  0
 34 35  2  0  0  0  0
 35 27  1  0  0  0  0
 36 35  1  0  0  0  0
M  END
>  <MODEL>
6

>  <REMARK>
 VINA RESULT:      -6.6      1.303      1.884
  Name = 
  10 active torsions:
  status: ('A' for Active; 'I' for Inactive)
    1  A    between atoms: C_1  and  C_12
    2  A    between atoms: C_3  and  C_14
    3  A    between atoms: C_6  and  C_17
    4  A    between atoms: C_12  and  C_28
    5  A    between atoms: C_16  and  O_18
    6  A    between atoms: O_18  and  C_30
    7  A    between atoms: O_21  and  C_29
    8  A    between atoms: N_23  and  C_30
    9  A    between atoms: C_24  and  C_33
   10  A    between atoms: C_28  and  C_33
                            x       y       z     vdW  Elec       q    Type
                         _______ _______ _______ _____ _____    ______ ____

>  <TORSDO>
F 10

$$$$
=
 OpenBabel11062422243D

 36 39  0  0  1  0  0  0  0  0999 V2000
  190.3250  176.1830  146.5910 C   0  0  2  0  0  3  0  0  0  0  0  0
  194.0230  176.3190  146.8050 C   0  0  0  0  0  2  0  0  0  0  0  0
  192.6530  176.5730  147.3240 C   0  0  0  0  0  2  0  0  0  0  0  0
  191.7890  176.4090  146.3430 C   0  0  1  0  0  3  0  0  0  0  0  0
  190.8920  174.0850  145.5210 O   0  0  0  0  0  0  0  0  0  0  0  0
  191.7840  174.6470  144.5820 C   0  0  0  0  0  2  0  0  0  0  0  0
  193.8550  175.6760  145.4960 N   0  0  0  0  0  0  0  0  0  0  0  0
  192.4660  175.9250  145.1120 C   0  0  2  0  0  3  0  0  0  0  0  0
  189.8540  175.0230  145.7040 C   0  0  0  0  0  2  0  0  0  0  0  0
  189.4880  177.4180  146.2720 C   0  0  0  0  0  2  0  0  0  0  0  0
  188.4530  177.1610  145.1840 C   0  0  0  0  0  2  0  0  0  0  0  0
  187.1170  177.7810  145.5670 C   0  0  0  0  0  2  0  0  0  0  0  0
  184.3140  178.2320  140.5780 C   0  0  0  0  0  1  0  0  0  0  0  0
  184.2610  178.3060  143.0400 C   0  0  0  0  0  0  0  0  0  0  0  0
  184.9610  178.0880  141.9170 C   0  0  0  0  0  0  0  0  0  0  0  0
  184.9010  178.0780  144.3970 C   0  0  1  0  0  3  0  0  0  0  0  0
  186.4140  178.3340  144.3360 C   0  0  2  0  0  3  0  0  0  0  0  0
  187.0140  177.7600  143.1310 N   0  0  0  0  0  0  0  0  0  0  0  0
  186.3780  177.6800  141.9980 C   0  0  0  0  0  0  0  0  0  0  0  0
  182.9210  178.6820  142.9600 O   0  0  0  0  0  1  0  0  0  0  0  0
  184.2870  178.9860  145.4600 C   0  0  0  0  0  2  0  0  0  0  0  0
  184.0660  178.2760  146.6400 O   0  0  0  0  0  1  0  0  0  0  0  0
  187.8200  176.0220  140.8740 C   0  0  0  0  0  1  0  0  0  0  0  0
  187.0220  177.1970  140.8560 O   0  0  0  0  0  0  0  0  0  0  0  0
  194.7450  176.3160  144.5230 C   0  0  0  0  0  2  0  0  0  0  0  0
  195.8280  175.4630  144.1460 O   0  0  0  0  0  0  0  0  0  0  0  0
  196.1720  171.4720  145.4700 C   0  0  0  0  0  0  0  0  0  0  0  0
  196.8280  172.5180  146.1360 C   0  0  0  0  0  3  0  0  0  0  0  0
  195.3910  171.7720  144.3320 C   0  0  0  0  0  0  0  0  0  0  0  0
  195.9360  174.1320  144.5670 C   0  0  0  0  0  0  0  0  0  0  0  0
  195.2800  173.0930  143.8900 C   0  0  0  0  0  3  0  0  0  0  0  0
  196.7110  173.8360  145.6880 C   0  0  0  0  0  3  0  0  0  0  0  0
  194.7190  170.7770  143.6310 O   0  0  0  0  0  1  0  0  0  0  0  0
  195.2130  169.3270  146.3290 O   0  0  0  0  0  1  0  0  0  0  0  0
  196.3220  170.0920  145.9860 C   0  0  0  0  0  0  0  0  0  0  0  0
  197.4700  169.5910  146.1230 O   0  0  0  0  0  0  0  0  0  0  0  0
  1 10  1  6  0  0  0
  2  3  1  0  0  0  0
  4  1  1  0  0  0  0
  4  3  1  1  0  0  0
  5  9  1  0  0  0  0
  6  5  1  0  0  0  0
  7  2  1  0  0  0  0
  8  6  1  1  0  0  0
  8  7  1  0  0  0  0
  8  4  1  0  0  0  0
  9  1  1  0  0  0  0
 11 12  1  0  0  0  0
 11 10  1  0  0  0  0
 13 15  1  0  0  0  0
 14 16  1  0  0  0  0
 15 19  1  0  0  0  0
 15 14  2  0  0  0  0
 16 21  1  1  0  0  0
 17 16  1  0  0  0  0
 17 12  1  1  0  0  0
 18 17  1  0  0  0  0
 19 18  2  0  0  0  0
 20 14  1  0  0  0  0
 21 22  1  0  0  0  0
 24 23  1  0  0  0  0
 24 19  1  0  0  0  0
 25  7  1  0  0  0  0
 26 25  1  0  0  0  0
 26 30  1  0  0  0  0
 27 35  1  0  0  0  0
 27 28  1  0  0  0  0
 29 27  2  0  0  0  0
 30 32  1  0  0  0  0
 31 29  1  0  0  0  0
 31 30  2  0  0  0  0
 32 28  2  0  0  0  0
 33 29  1  0  0  0  0
 35 36  2  0  0  0  0
 35 34  1  0  0  0  0
M  END
>  <MODEL>
7

>  <REMARK>
 VINA RESULT:      -6.6      2.889      4.527
  Name = 
  10 active torsions:
  status: ('A' for Active; 'I' for Inactive)
    1  A    between atoms: C_1  and  C_12
    2  A    between atoms: C_3  and  C_14
    3  A    between atoms: C_6  and  C_17
    4  A    between atoms: C_12  and  C_28
    5  A    between atoms: C_16  and  O_18
    6  A    between atoms: O_18  and  C_30
    7  A    between atoms: O_21  and  C_29
    8  A    between atoms: N_23  and  C_30
    9  A    between atoms: C_24  and  C_33
   10  A    between atoms: C_28  and  C_33
                            x       y       z     vdW  Elec       q    Type
                         _______ _______ _______ _____ _____    ______ ____

>  <TORSDO>
F 10

$$$$
=
 OpenBabel11062422243D

 36 39  0  0  1  0  0  0  0  0999 V2000
  193.1360  176.0170  144.9270 C   0  0  2  0  0  3  0  0  0  0  0  0
  190.9400  176.8680  147.7880 C   0  0  0  0  0  2  0  0  0  0  0  0
  192.2250  176.4250  147.1890 C   0  0  0  0  0  2  0  0  0  0  0  0
  192.0190  176.1070  145.9270 C   0  0  1  0  0  3  0  0  0  0  0  0
  191.8630  177.8380  143.9610 O   0  0  0  0  0  0  0  0  0  0  0  0
  190.5960  177.2920  144.2600 C   0  0  0  0  0  2  0  0  0  0  0  0
  190.0150  177.0870  146.6690 N   0  0  0  0  0  0  0  0  0  0  0  0
  190.6200  176.4070  145.5230 C   0  0  2  0  0  3  0  0  0  0  0  0
  192.7070  176.7520  143.6500 C   0  0  0  0  0  2  0  0  0  0  0  0
  193.4790  174.5730  144.5730 C   0  0  0  0  0  2  0  0  0  0  0  0
  193.4040  174.3020  143.0760 C   0  0  0  0  0  2  0  0  0  0  0  0
  192.5660  173.0600  142.8050 C   0  0  0  0  0  2  0  0  0  0  0  0
  188.1930  172.8130  139.0940 C   0  0  0  0  0  1  0  0  0  0  0  0
  188.9860  172.7480  141.4270 C   0  0  0  0  0  0  0  0  0  0  0  0
  189.2790  172.8240  140.1200 C   0  0  0  0  0  0  0  0  0  0  0  0
  190.0960  172.6760  142.4580 C   0  0  1  0  0  3  0  0  0  0  0  0
  191.3490  173.4130  141.9620 C   0  0  2  0  0  3  0  0  0  0  0  0
  191.6280  173.1240  140.5550 N   0  0  0  0  0  0  0  0  0  0  0  0
  190.6880  172.8970  139.6840 C   0  0  0  0  0  0  0  0  0  0  0  0
  187.6550  172.6700  141.8340 O   0  0  0  0  0  1  0  0  0  0  0  0
  189.6580  173.2810  143.7890 C   0  0  0  0  0  2  0  0  0  0  0  0
  189.6390  172.3070  144.7870 O   0  0  0  0  0  1  0  0  0  0  0  0
  191.2720  173.7890  137.4570 C   0  0  0  0  0  1  0  0  0  0  0  0
  191.0030  172.7050  138.3360 O   0  0  0  0  0  0  0  0  0  0  0  0
  188.7260  176.4590  146.9750 C   0  0  0  0  0  2  0  0  0  0  0  0
  187.6440  177.3900  146.8890 O   0  0  0  0  0  0  0  0  0  0  0  0
  185.3540  178.0210  143.4030 C   0  0  0  0  0  0  0  0  0  0  0  0
  185.2440  178.8750  144.5110 C   0  0  0  0  0  3  0  0  0  0  0  0
  186.2470  176.9290  143.4710 C   0  0  0  0  0  0  0  0  0  0  0  0
  186.8880  177.5800  145.7270 C   0  0  0  0  0  0  0  0  0  0  0  0
  187.0030  176.7170  144.6280 C   0  0  0  0  0  3  0  0  0  0  0  0
  186.0030  178.6560  145.6620 C   0  0  0  0  0  3  0  0  0  0  0  0
  186.3980  176.0490  142.4050 O   0  0  0  0  0  1  0  0  0  0  0  0
  185.1210  178.5740  140.9740 O   0  0  0  0  0  0  0  0  0  0  0  0
  184.5310  178.2980  142.2030 C   0  0  0  0  0  0  0  0  0  0  0  0
  183.2740  178.2870  142.2840 O   0  0  0  0  0  1  0  0  0  0  0  0
  1 10  1  6  0  0  0
  1  4  1  0  0  0  0
  3  2  1  0  0  0  0
  4  3  1  1  0  0  0
  5  6  1  0  0  0  0
  7 25  1  0  0  0  0
  7  2  1  0  0  0  0
  8  6  1  6  0  0  0
  8  4  1  0  0  0  0
  8  7  1  0  0  0  0
  9  5  1  0  0  0  0
  9  1  1  0  0  0  0
 11 10  1  0  0  0  0
 12 11  1  0  0  0  0
 13 15  1  0  0  0  0
 14 20  1  0  0  0  0
 14 16  1  0  0  0  0
 15 14  2  0  0  0  0
 16 21  1  1  0  0  0
 17 16  1  0  0  0  0
 17 12  1  1  0  0  0
 18 17  1  0  0  0  0
 19 15  1  0  0  0  0
 19 18  2  0  0  0  0
 21 22  1  0  0  0  0
 23 24  1  0  0  0  0
 24 19  1  0  0  0  0
 26 25  1  0  0  0  0
 27 29  2  0  0  0  0
 27 28  1  0  0  0  0
 28 32  2  0  0  0  0
 29 31  1  0  0  0  0
 30 26  1  0  0  0  0
 31 30  2  0  0  0  0
 32 30  1  0  0  0  0
 33 29  1  0  0  0  0
 34 35  2  0  0  0  0
 35 36  1  0  0  0  0
 35 27  1  0  0  0  0
M  END
>  <MODEL>
8

>  <REMARK>
 VINA RESULT:      -6.6      1.929      6.500
  Name = 
  10 active torsions:
  status: ('A' for Active; 'I' for Inactive)
    1  A    between atoms: C_1  and  C_12
    2  A    between atoms: C_3  and  C_14
    3  A    between atoms: C_6  and  C_17
    4  A    between atoms: C_12  and  C_28
    5  A    between atoms: C_16  and  O_18
    6  A    between atoms: O_18  and  C_30
    7  A    between atoms: O_21  and  C_29
    8  A    between atoms: N_23  and  C_30
    9  A    between atoms: C_24  and  C_33
   10  A    between atoms: C_28  and  C_33
                            x       y       z     vdW  Elec       q    Type
                         _______ _______ _______ _____ _____    ______ ____

>  <TORSDO>
F 10

$$$$
=
 OpenBabel11062422243D

 36 39  0  0  1  0  0  0  0  0999 V2000
  190.0640  174.6090  146.6730 C   0  0  2  0  0  3  0  0  0  0  0  0
  193.4590  176.0570  147.0110 C   0  0  0  0  0  2  0  0  0  0  0  0
  192.1550  175.5940  147.5520 C   0  0  0  0  0  2  0  0  0  0  0  0
  191.3100  175.4380  146.5520 C   0  0  1  0  0  3  0  0  0  0  0  0
  191.2390  173.3430  144.9740 O   0  0  0  0  0  0  0  0  0  0  0  0
  191.7600  174.4700  144.3010 C   0  0  0  0  0  2  0  0  0  0  0  0
  193.4000  175.8530  145.5580 N   0  0  0  0  0  0  0  0  0  0  0  0
  191.9820  175.6680  145.2460 C   0  0  2  0  0  3  0  0  0  0  0  0
  189.9570  173.7070  145.4370 C   0  0  0  0  0  2  0  0  0  0  0  0
  188.8070  175.4670  146.7680 C   0  0  0  0  0  2  0  0  0  0  0  0
  188.3790  176.0330  145.4200 C   0  0  0  0  0  2  0  0  0  0  0  0
  188.5970  177.5390  145.3850 C   0  0  0  0  0  2  0  0  0  0  0  0
  183.6080  178.6250  142.7620 C   0  0  0  0  0  1  0  0  0  0  0  0
  184.8610  178.2960  144.8590 C   0  0  0  0  0  0  0  0  0  0  0  0
  184.8560  178.3040  143.5180 C   0  0  0  0  0  0  0  0  0  0  0  0
  186.1090  177.8900  145.6180 C   0  0  1  0  0  3  0  0  0  0  0  0
  187.3720  178.2420  144.8180 C   0  0  2  0  0  3  0  0  0  0  0  0
  187.2280  177.9060  143.4010 N   0  0  0  0  0  0  0  0  0  0  0  0
  186.0890  177.9740  142.7740 C   0  0  0  0  0  0  0  0  0  0  0  0
  183.6930  178.6000  145.5570 O   0  0  0  0  0  1  0  0  0  0  0  0
  186.1780  178.5750  146.9810 C   0  0  0  0  0  2  0  0  0  0  0  0
  185.9780  177.6500  148.0040 O   0  0  0  0  0  1  0  0  0  0  0  0
  186.9940  176.9430  140.7220 C   0  0  0  0  0  1  0  0  0  0  0  0
  186.0190  177.7210  141.4020 O   0  0  0  0  0  0  0  0  0  0  0  0
  193.8880  177.0580  144.8790 C   0  0  0  0  0  2  0  0  0  0  0  0
  195.2940  176.9990  144.6300 O   0  0  0  0  0  0  0  0  0  0  0  0
  196.9930  175.4150  141.1080 C   0  0  0  0  0  0  0  0  0  0  0  0
  197.7660  175.6200  142.2610 C   0  0  0  0  0  3  0  0  0  0  0  0
  195.6220  175.7570  141.1380 C   0  0  0  0  0  0  0  0  0  0  0  0
  195.8410  176.4810  143.4510 C   0  0  0  0  0  0  0  0  0  0  0  0
  195.0600  176.2850  142.3030 C   0  0  0  0  0  3  0  0  0  0  0  0
  197.1960  176.1490  143.4210 C   0  0  0  0  0  3  0  0  0  0  0  0
  194.8070  175.5770  140.0270 O   0  0  0  0  0  1  0  0  0  0  0  0
  197.9350  173.4910  139.8160 O   0  0  0  0  0  1  0  0  0  0  0  0
  197.6420  174.8480  139.9040 C   0  0  0  0  0  0  0  0  0  0  0  0
  197.9400  175.5970  138.9360 O   0  0  0  0  0  0  0  0  0  0  0  0
  1 10  1  6  0  0  0
  2  3  1  0  0  0  0
  4  1  1  0  0  0  0
  4  3  1  1  0  0  0
  5  9  1  0  0  0  0
  6  5  1  0  0  0  0
  7  2  1  0  0  0  0
  8  6  1  6  0  0  0
  8  7  1  0  0  0  0
  8  4  1  0  0  0  0
  9  1  1  0  0  0  0
 11 10  1  0  0  0  0
 12 11  1  0  0  0  0
 13 15  1  0  0  0  0
 14 20  1  0  0  0  0
 14 16  1  0  0  0  0
 15 14  2  0  0  0  0
 16 21  1  1  0  0  0
 17 12  1  1  0  0  0
 17 16  1  0  0  0  0
 18 17  1  0  0  0  0
 19 18  2  0  0  0  0
 19 15  1  0  0  0  0
 21 22  1  0  0  0  0
 23 24  1  0  0  0  0
 24 19  1  0  0  0  0
 25  7  1  0  0  0  0
 26 25  1  0  0  0  0
 27 29  2  0  0  0  0
 27 28  1  0  0  0  0
 28 32  2  0  0  0  0
 29 31  1  0  0  0  0
 30 26  1  0  0  0  0
 31 30  2  0  0  0  0
 32 30  1  0  0  0  0
 33 29  1  0  0  0  0
 34 35  1  0  0  0  0
 35 27  1  0  0  0  0
 36 35  2  0  0  0  0
M  END
>  <MODEL>
9

>  <REMARK>
 VINA RESULT:      -6.6      2.775      4.350
  Name = 
  10 active torsions:
  status: ('A' for Active; 'I' for Inactive)
    1  A    between atoms: C_1  and  C_12
    2  A    between atoms: C_3  and  C_14
    3  A    between atoms: C_6  and  C_17
    4  A    between atoms: C_12  and  C_28
    5  A    between atoms: C_16  and  O_18
    6  A    between atoms: O_18  and  C_30
    7  A    between atoms: O_21  and  C_29
    8  A    between atoms: N_23  and  C_30
    9  A    between atoms: C_24  and  C_33
   10  A    between atoms: C_28  and  C_33
                            x       y       z     vdW  Elec       q    Type
                         _______ _______ _______ _____ _____    ______ ____

>  <TORSDO>
F 10

$$$$
