=
 OpenBabel11062422413D

 44 50  0  0  1  0  0  0  0  0999 V2000
  192.7450  174.3240  140.9680 C   0  0  0  0  0  2  0  0  0  0  0  0
  193.6820  174.2950  142.0820 N   0  0  0  0  0  2  0  0  0  0  0  0
  193.8190  172.9040  142.5000 C   0  0  1  0  0  3  0  0  0  0  0  0
  193.7120  170.3560  144.2590 C   0  0  1  0  0  3  0  0  0  0  0  0
  194.9650  170.9220  142.1250 C   0  0  0  0  0  2  0  0  0  0  0  0
  192.8850  169.4020  143.4080 C   0  0  0  0  0  1  0  0  0  0  0  0
  195.0750  170.7450  143.6640 C   0  0  1  0  0  3  0  0  0  0  0  0
  195.3590  172.0710  144.2210 N   0  0  1  0  0  0  0  0  0  0  0  0
  194.8480  172.2840  141.7460 O   0  0  0  0  0  0  0  0  0  0  0  0
  193.0040  171.6820  144.4720 C   0  0  0  0  0  2  0  0  0  0  0  0
  194.0440  172.7260  144.0450 C   0  0  2  0  0  0  0  0  0  0  0  0
  192.8780  175.3240  146.6110 C   0  0  0  0  0  0  0  0  0  0  0  0
  193.9220  174.0360  144.8210 C   0  0  0  0  0  0  0  0  0  0  0  0
  194.6830  176.2950  145.3100 C   0  0  0  0  0  3  0  0  0  0  0  0
  192.9830  174.1490  145.8600 C   0  0  0  0  0  3  0  0  0  0  0  0
  193.7350  176.4000  146.3290 C   0  0  0  0  0  3  0  0  0  0  0  0
  194.7800  175.1180  144.5640 C   0  0  0  0  0  3  0  0  0  0  0  0
  191.3390  176.5000  148.0250 C   0  0  0  0  0  2  0  0  0  0  0  0
  191.8980  175.3940  147.6530 N   0  0  0  0  0  0  0  0  0  0  0  0
  195.7420  171.9240  145.6360 C   0  0  0  0  0  3  0  0  0  0  0  0
  196.9900  172.7420  145.9150 C   0  0  0  0  0  2  0  0  0  0  0  0
  197.0990  171.2460  145.7450 C   0  0  0  0  0  2  0  0  0  0  0  0
  191.7150  173.2150  141.1140 C   0  0  0  0  0  2  0  0  0  0  0  0
  190.4700  173.5430  140.3070 C   0  0  0  0  0  2  0  0  0  0  0  0
  189.3120  173.8510  141.2360 C   0  0  0  0  0  2  0  0  0  0  0  0
  189.3200  175.2060  141.5770 O   0  0  0  0  0  0  0  0  0  0  0  0
  185.8790  177.7070  146.0230 C   0  0  0  0  0  0  0  0  0  0  0  0
  184.4360  178.8280  144.5240 C   0  0  1  0  0  3  0  0  0  0  0  0
  183.6080  177.9110  146.5690 F   0  0  0  0  0  0  0  0  0  0  0  0
  188.7750  175.2560  142.8660 C   0  0  1  0  0  3  0  0  0  0  0  0
  189.8720  175.1980  143.9460 C   0  0  2  0  0  0  0  0  0  0  0  0
  190.8130  176.3910  143.8670 C   0  0  0  0  0  1  0  0  0  0  0  0
  188.3990  177.7410  142.4610 C   0  0  0  0  0  1  0  0  0  0  0  0
  187.3790  176.6510  144.4490 C   0  0  0  0  0  0  0  0  0  0  0  0
  190.6220  174.0360  143.7650 O   0  0  0  0  0  1  0  0  0  0  0  0
  185.4470  178.0900  143.8370 O   0  0  0  0  0  0  0  0  0  0  0  0
  186.2700  177.4530  144.7410 C   0  0  0  0  0  0  0  0  0  0  0  0
  186.5690  177.1780  147.1120 C   0  0  0  0  0  3  0  0  0  0  0  0
  187.6820  176.3630  146.8590 C   0  0  0  0  0  3  0  0  0  0  0  0
  189.2350  175.1360  145.3350 C   0  0  0  0  0  2  0  0  0  0  0  0
  184.6840  178.5900  146.0290 C   0  0  1  0  0  3  0  0  0  0  0  0
  188.1000  176.1020  145.5390 C   0  0  0  0  0  0  0  0  0  0  0  0
  187.8140  176.4510  143.0230 C   0  0  2  0  0  3  0  0  0  0  0  0
  184.5760  180.1860  144.2380 O   0  0  0  0  0  1  0  0  0  0  0  0
  1 23  1  0  0  0  0
  1  2  1  0  0  0  0
  3  2  1  1  0  0  0
  3 11  1  0  0  0  0
  4  6  1  6  0  0  0
  4 10  1  0  0  0  0
  7  5  1  6  0  0  0
  7  8  1  0  0  0  0
  7  4  1  0  0  0  0
  8 20  1  1  0  0  0
  9  5  1  0  0  0  0
  9  3  1  0  0  0  0
 11  8  1  0  0  0  0
 11 10  1  0  0  0  0
 11 13  1  1  0  0  0
 12 19  1  0  0  0  0
 13 15  1  0  0  0  0
 14 16  2  0  0  0  0
 15 12  2  0  0  0  0
 16 12  1  0  0  0  0
 17 13  2  0  0  0  0
 17 14  1  0  0  0  0
 19 18  2  0  0  0  0
 20 22  1  0  0  0  0
 20 21  1  0  0  0  0
 22 21  1  0  0  0  0
 24 23  1  0  0  0  0
 24 25  1  0  0  0  0
 25 26  1  0  0  0  0
 27 41  1  0  0  0  0
 27 38  1  0  0  0  0
 28 44  1  1  0  0  0
 28 41  1  0  0  0  0
 30 26  1  6  0  0  0
 30 43  1  0  0  0  0
 30 31  1  0  0  0  0
 31 32  1  6  0  0  0
 31 40  1  0  0  0  0
 34 37  1  0  0  0  0
 34 42  2  0  0  0  0
 35 31  1  0  0  0  0
 36 28  1  0  0  0  0
 36 37  1  0  0  0  0
 37 27  2  0  0  0  0
 39 38  2  0  0  0  0
 40 42  1  0  0  0  0
 41 29  1  6  0  0  0
 42 39  1  0  0  0  0
 43 33  1  1  0  0  0
 43 34  1  0  0  0  0
M  END
>  <MODEL>
1

>  <REMARK>
 VINA RESULT:      -7.9      0.000      0.000
  Name = 
  10 active torsions:
  status: ('A' for Active; 'I' for Inactive)
    1  A    between atoms: C_1  and  N_18
    2  A    between atoms: C_2  and  N_22
    3  A    between atoms: C_2  and  C_30
    4  A    between atoms: C_3  and  N_21
    5  A    between atoms: C_4  and  O_19
    6  A    between atoms: C_4  and  C_37
    7  A    between atoms: C_5  and  N_22
    8  A    between atoms: C_13  and  O_19
    9  A    between atoms: C_16  and  C_43
   10  A    between atoms: C_30  and  C_37
                            x       y       z     vdW  Elec       q    Type
                         _______ _______ _______ _____ _____    ______ ____

>  <TORSDO>
F 10

$$$$
=
 OpenBabel11062422413D

 44 50  0  0  1  0  0  0  0  0999 V2000
  192.8130  173.0030  140.6300 C   0  0  0  0  0  2  0  0  0  0  0  0
  193.7580  172.6530  141.6810 N   0  0  0  0  0  2  0  0  0  0  0  0
  194.4330  173.8800  142.0860 C   0  0  1  0  0  3  0  0  0  0  0  0
  196.3650  175.8050  143.5560 C   0  0  1  0  0  3  0  0  0  0  0  0
  194.2410  176.1890  142.2210 C   0  0  0  0  0  2  0  0  0  0  0  0
  197.0970  176.4800  142.4060 C   0  0  0  0  0  1  0  0  0  0  0  0
  194.8610  176.1130  143.6420 C   0  0  1  0  0  3  0  0  0  0  0  0
  194.2770  174.9380  144.2960 N   0  0  1  0  0  0  0  0  0  0  0  0
  193.5770  174.9870  141.8580 O   0  0  0  0  0  0  0  0  0  0  0  0
  196.4310  174.2920  143.4590 C   0  0  0  0  0  2  0  0  0  0  0  0
  194.9650  173.8520  143.5640 C   0  0  2  0  0  0  0  0  0  0  0  0
  195.7760  170.6390  145.4910 C   0  0  0  0  0  0  0  0  0  0  0  0
  194.8020  172.4880  144.2320 C   0  0  0  0  0  0  0  0  0  0  0  0
  193.4060  170.6330  144.9620 C   0  0  0  0  0  3  0  0  0  0  0  0
  195.9070  171.8690  144.8390 C   0  0  0  0  0  3  0  0  0  0  0  0
  194.5160  170.0210  145.5480 C   0  0  0  0  0  3  0  0  0  0  0  0
  193.5470  171.8610  144.3120 C   0  0  0  0  0  3  0  0  0  0  0  0
  196.8710  169.1730  147.0420 C   0  0  0  0  0  2  0  0  0  0  0  0
  196.9350  170.0430  146.0870 N   0  0  0  0  0  0  0  0  0  0  0  0
  194.6160  174.9700  145.7290 C   0  0  0  0  0  3  0  0  0  0  0  0
  193.3580  174.7760  146.5550 C   0  0  0  0  0  2  0  0  0  0  0  0
  193.9450  176.1580  146.4010 C   0  0  0  0  0  2  0  0  0  0  0  0
  191.4060  172.5810  141.0210 C   0  0  0  0  0  2  0  0  0  0  0  0
  190.3780  173.4080  140.2660 C   0  0  0  0  0  2  0  0  0  0  0  0
  189.3290  173.9370  141.2240 C   0  0  0  0  0  2  0  0  0  0  0  0
  189.7530  175.1480  141.7760 O   0  0  0  0  0  0  0  0  0  0  0  0
  186.0170  177.4800  146.0730 C   0  0  0  0  0  0  0  0  0  0  0  0
  184.5340  178.4540  144.5110 C   0  0  1  0  0  3  0  0  0  0  0  0
  183.7230  177.5230  146.5570 F   0  0  0  0  0  0  0  0  0  0  0  0
  189.1720  175.1860  143.0500 C   0  0  1  0  0  3  0  0  0  0  0  0
  190.2410  175.2360  144.1580 C   0  0  2  0  0  0  0  0  0  0  0  0
  191.0920  176.4940  144.0730 C   0  0  0  0  0  1  0  0  0  0  0  0
  188.6200  177.6250  142.5740 C   0  0  0  0  0  1  0  0  0  0  0  0
  187.6330  176.5060  144.5630 C   0  0  0  0  0  0  0  0  0  0  0  0
  191.0820  174.1300  144.0240 O   0  0  0  0  0  1  0  0  0  0  0  0
  185.6150  177.7800  143.8680 O   0  0  0  0  0  0  0  0  0  0  0  0
  186.4590  177.2280  144.8070 C   0  0  0  0  0  0  0  0  0  0  0  0
  186.7150  177.0300  147.1910 C   0  0  0  0  0  3  0  0  0  0  0  0
  187.8930  176.2960  146.9860 C   0  0  0  0  0  3  0  0  0  0  0  0
  189.5740  175.1570  145.5320 C   0  0  0  0  0  2  0  0  0  0  0  0
  184.7590  178.2690  146.0270 C   0  0  1  0  0  3  0  0  0  0  0  0
  188.3650  176.0380  145.6840 C   0  0  0  0  0  0  0  0  0  0  0  0
  188.1190  176.3070  143.1530 C   0  0  2  0  0  3  0  0  0  0  0  0
  184.5780  179.8110  144.1960 O   0  0  0  0  0  1  0  0  0  0  0  0
  1 23  1  0  0  0  0
  1  2  1  0  0  0  0
  3  2  1  1  0  0  0
  3 11  1  0  0  0  0
  4  6  1  6  0  0  0
  4  7  1  0  0  0  0
  7  5  1  6  0  0  0
  7  8  1  0  0  0  0
  8 20  1  1  0  0  0
  9  3  1  0  0  0  0
  9  5  1  0  0  0  0
 10  4  1  0  0  0  0
 10 11  1  0  0  0  0
 11 13  1  1  0  0  0
 11  8  1  0  0  0  0
 12 16  1  0  0  0  0
 12 19  1  0  0  0  0
 13 17  2  0  0  0  0
 13 15  1  0  0  0  0
 14 16  2  0  0  0  0
 15 12  2  0  0  0  0
 17 14  1  0  0  0  0
 19 18  2  0  0  0  0
 20 22  1  0  0  0  0
 20 21  1  0  0  0  0
 22 21  1  0  0  0  0
 24 23  1  0  0  0  0
 24 25  1  0  0  0  0
 25 26  1  0  0  0  0
 27 38  1  0  0  0  0
 28 44  1  1  0  0  0
 28 41  1  0  0  0  0
 30 26  1  6  0  0  0
 30 43  1  0  0  0  0
 30 31  1  0  0  0  0
 31 32  1  6  0  0  0
 31 40  1  0  0  0  0
 34 37  1  0  0  0  0
 34 42  2  0  0  0  0
 35 31  1  0  0  0  0
 36 28  1  0  0  0  0
 36 37  1  0  0  0  0
 37 27  2  0  0  0  0
 39 38  2  0  0  0  0
 40 42  1  0  0  0  0
 41 27  1  0  0  0  0
 41 29  1  6  0  0  0
 42 39  1  0  0  0  0
 43 33  1  1  0  0  0
 43 34  1  0  0  0  0
M  END
>  <MODEL>
2

>  <REMARK>
 VINA RESULT:      -7.8      1.374      3.552
  Name = 
  10 active torsions:
  status: ('A' for Active; 'I' for Inactive)
    1  A    between atoms: C_1  and  N_18
    2  A    between atoms: C_2  and  N_22
    3  A    between atoms: C_2  and  C_30
    4  A    between atoms: C_3  and  N_21
    5  A    between atoms: C_4  and  O_19
    6  A    between atoms: C_4  and  C_37
    7  A    between atoms: C_5  and  N_22
    8  A    between atoms: C_13  and  O_19
    9  A    between atoms: C_16  and  C_43
   10  A    between atoms: C_30  and  C_37
                            x       y       z     vdW  Elec       q    Type
                         _______ _______ _______ _____ _____    ______ ____

>  <TORSDO>
F 10

$$$$
=
 OpenBabel11062422413D

 44 50  0  0  1  0  0  0  0  0999 V2000
  191.7560  173.3770  141.8270 C   0  0  0  0  0  2  0  0  0  0  0  0
  193.1500  173.4810  142.2330 N   0  0  0  0  0  2  0  0  0  0  0  0
  193.5470  172.1840  142.7670 C   0  0  1  0  0  3  0  0  0  0  0  0
  194.3250  169.9680  144.7880 C   0  0  1  0  0  3  0  0  0  0  0  0
  194.6130  170.1830  142.2750 C   0  0  0  0  0  2  0  0  0  0  0  0
  193.3130  168.8730  144.4830 C   0  0  0  0  0  1  0  0  0  0  0  0
  195.3190  170.2710  143.6550 C   0  0  1  0  0  3  0  0  0  0  0  0
  195.6900  171.6760  143.8510 N   0  0  1  0  0  0  0  0  0  0  0  0
  194.2520  171.4600  141.7720 O   0  0  0  0  0  0  0  0  0  0  0  0
  193.6510  171.3010  145.0600 C   0  0  0  0  0  2  0  0  0  0  0  0
  194.3610  172.2720  144.1080 C   0  0  2  0  0  0  0  0  0  0  0  0
  195.3100  175.9670  144.4870 C   0  0  0  0  0  0  0  0  0  0  0  0
  194.4430  173.6930  144.6640 C   0  0  0  0  0  0  0  0  0  0  0  0
  193.7320  175.4020  146.2440 C   0  0  0  0  0  3  0  0  0  0  0  0
  195.2470  174.6500  144.0210 C   0  0  0  0  0  3  0  0  0  0  0  0
  194.5470  176.3390  145.6060 C   0  0  0  0  0  3  0  0  0  0  0  0
  193.6770  174.0880  145.7730 C   0  0  0  0  0  3  0  0  0  0  0  0
  196.7550  176.6340  142.6930 C   0  0  0  0  0  2  0  0  0  0  0  0
  196.1510  176.9040  143.8040 N   0  0  0  0  0  0  0  0  0  0  0  0
  196.5970  171.7750  145.0080 C   0  0  0  0  0  3  0  0  0  0  0  0
  197.8580  172.5190  144.6050 C   0  0  0  0  0  2  0  0  0  0  0  0
  197.8850  171.0140  144.7310 C   0  0  0  0  0  2  0  0  0  0  0  0
  191.0630  172.2630  142.5940 C   0  0  0  0  0  2  0  0  0  0  0  0
  189.7350  172.7520  143.1490 C   0  0  0  0  0  2  0  0  0  0  0  0
  189.8820  173.1080  144.6160 C   0  0  0  0  0  2  0  0  0  0  0  0
  190.3260  174.4260  144.7450 O   0  0  0  0  0  0  0  0  0  0  0  0
  185.5310  178.1550  143.7630 C   0  0  0  0  0  0  0  0  0  0  0  0
  185.3300  177.5890  141.4770 C   0  0  1  0  0  3  0  0  0  0  0  0
  183.3950  178.0380  142.8050 F   0  0  0  0  0  0  0  0  0  0  0  0
  189.1960  175.1500  145.1420 C   0  0  1  0  0  3  0  0  0  0  0  0
  189.5160  176.1060  146.3070 C   0  0  2  0  0  0  0  0  0  0  0  0
  190.5420  177.1590  145.9130 C   0  0  0  0  0  1  0  0  0  0  0  0
  189.5260  176.5530  143.0440 C   0  0  0  0  0  1  0  0  0  0  0  0
  187.4330  176.7900  144.3650 C   0  0  0  0  0  0  0  0  0  0  0  0
  190.0350  175.3660  147.3690 O   0  0  0  0  0  1  0  0  0  0  0  0
  186.4070  176.8930  142.1030 O   0  0  0  0  0  0  0  0  0  0  0  0
  186.4960  177.2490  143.4320 C   0  0  0  0  0  0  0  0  0  0  0  0
  185.4300  178.6710  145.0520 C   0  0  0  0  0  3  0  0  0  0  0  0
  186.3470  178.2290  146.0180 C   0  0  0  0  0  3  0  0  0  0  0  0
  188.2370  176.7900  146.7890 C   0  0  0  0  0  2  0  0  0  0  0  0
  184.6900  178.4620  142.5770 C   0  0  1  0  0  3  0  0  0  0  0  0
  187.3540  177.3010  145.6850 C   0  0  0  0  0  0  0  0  0  0  0  0
  188.5200  175.8410  143.9410 C   0  0  2  0  0  3  0  0  0  0  0  0
  185.8310  178.4070  140.4650 O   0  0  0  0  0  1  0  0  0  0  0  0
  1  2  1  0  0  0  0
  1 23  1  0  0  0  0
  3  2  1  6  0  0  0
  3 11  1  0  0  0  0
  4  6  1  6  0  0  0
  4 10  1  0  0  0  0
  7  5  1  6  0  0  0
  7  8  1  0  0  0  0
  7  4  1  0  0  0  0
  8 11  1  0  0  0  0
  8 20  1  1  0  0  0
  9  5  1  0  0  0  0
  9  3  1  0  0  0  0
 11 13  1  1  0  0  0
 11 10  1  0  0  0  0
 12 16  1  0  0  0  0
 13 17  2  0  0  0  0
 15 12  2  0  0  0  0
 15 13  1  0  0  0  0
 16 14  2  0  0  0  0
 17 14  1  0  0  0  0
 18 19  2  0  0  0  0
 19 12  1  0  0  0  0
 21 22  1  0  0  0  0
 21 20  1  0  0  0  0
 22 20  1  0  0  0  0
 23 24  1  0  0  0  0
 24 25  1  0  0  0  0
 25 26  1  0  0  0  0
 27 38  1  0  0  0  0
 28 44  1  6  0  0  0
 28 36  1  0  0  0  0
 28 41  1  0  0  0  0
 30 26  1  6  0  0  0
 30 31  1  0  0  0  0
 31 32  1  6  0  0  0
 31 40  1  0  0  0  0
 31 35  1  0  0  0  0
 34 42  2  0  0  0  0
 36 37  1  0  0  0  0
 37 27  2  0  0  0  0
 37 34  1  0  0  0  0
 38 39  2  0  0  0  0
 41 29  1  1  0  0  0
 41 27  1  0  0  0  0
 42 39  1  0  0  0  0
 42 40  1  0  0  0  0
 43 33  1  1  0  0  0
 43 34  1  0  0  0  0
 43 30  1  0  0  0  0
M  END
>  <MODEL>
3

>  <REMARK>
 VINA RESULT:      -7.8      1.781      2.613
  Name = 
  10 active torsions:
  status: ('A' for Active; 'I' for Inactive)
    1  A    between atoms: C_1  and  N_18
    2  A    between atoms: C_2  and  N_22
    3  A    between atoms: C_2  and  C_30
    4  A    between atoms: C_3  and  N_21
    5  A    between atoms: C_4  and  O_19
    6  A    between atoms: C_4  and  C_37
    7  A    between atoms: C_5  and  N_22
    8  A    between atoms: C_13  and  O_19
    9  A    between atoms: C_16  and  C_43
   10  A    between atoms: C_30  and  C_37
                            x       y       z     vdW  Elec       q    Type
                         _______ _______ _______ _____ _____    ______ ____

>  <TORSDO>
F 10

$$$$
=
 OpenBabel11062422413D

 44 50  0  0  1  0  0  0  0  0999 V2000
  193.3710  171.3620  144.5270 C   0  0  0  0  0  2  0  0  0  0  0  0
  194.2840  171.9330  143.5480 N   0  0  0  0  0  2  0  0  0  0  0  0
  194.5880  173.2930  143.9750 C   0  0  1  0  0  3  0  0  0  0  0  0
  194.4180  176.3730  144.2670 C   0  0  1  0  0  3  0  0  0  0  0  0
  196.2540  174.6960  144.7760 C   0  0  0  0  0  2  0  0  0  0  0  0
  194.2980  176.5560  145.7730 C   0  0  0  0  0  1  0  0  0  0  0  0
  195.7530  175.7830  143.7860 C   0  0  1  0  0  3  0  0  0  0  0  0
  195.4270  175.0950  142.5340 N   0  0  1  0  0  0  0  0  0  0  0  0
  195.9590  173.3820  144.3280 O   0  0  0  0  0  0  0  0  0  0  0  0
  193.3700  175.4150  143.7290 C   0  0  0  0  0  2  0  0  0  0  0  0
  194.1850  174.3920  142.9270 C   0  0  2  0  0  0  0  0  0  0  0  0
  191.3440  173.6660  140.4600 C   0  0  0  0  0  0  0  0  0  0  0  0
  193.4180  173.8260  141.7340 C   0  0  0  0  0  0  0  0  0  0  0  0
  193.3530  172.5710  139.6500 C   0  0  0  0  0  3  0  0  0  0  0  0
  192.0590  174.1400  141.5640 C   0  0  0  0  0  3  0  0  0  0  0  0
  191.9990  172.8770  139.5010 C   0  0  0  0  0  3  0  0  0  0  0  0
  194.0590  173.0470  140.7570 C   0  0  0  0  0  3  0  0  0  0  0  0
  189.0840  173.2220  139.7880 C   0  0  0  0  0  2  0  0  0  0  0  0
  189.9570  174.0050  140.3350 N   0  0  0  0  0  0  0  0  0  0  0  0
  195.2080  176.0990  141.4790 C   0  0  0  0  0  3  0  0  0  0  0  0
  196.0530  175.7570  140.2650 C   0  0  0  0  0  2  0  0  0  0  0  0
  196.4980  176.8560  141.1990 C   0  0  0  0  0  2  0  0  0  0  0  0
  192.2650  172.3510  144.8590 C   0  0  0  0  0  2  0  0  0  0  0  0
  190.9670  171.9350  144.1890 C   0  0  0  0  0  2  0  0  0  0  0  0
  189.8390  172.8520  144.6200 C   0  0  0  0  0  2  0  0  0  0  0  0
  190.3320  174.1390  144.8500 O   0  0  0  0  0  0  0  0  0  0  0  0
  185.6750  178.0190  143.7900 C   0  0  0  0  0  0  0  0  0  0  0  0
  185.5190  177.4890  141.4920 C   0  0  1  0  0  3  0  0  0  0  0  0
  183.5630  177.9780  142.7740 F   0  0  0  0  0  0  0  0  0  0  0  0
  189.2120  174.8910  145.2270 C   0  0  1  0  0  3  0  0  0  0  0  0
  189.5290  175.8220  146.4120 C   0  0  2  0  0  0  0  0  0  0  0  0
  190.5950  176.8490  146.0600 C   0  0  0  0  0  1  0  0  0  0  0  0
  189.6400  176.3100  143.1570 C   0  0  0  0  0  1  0  0  0  0  0  0
  187.5190  176.5910  144.4240 C   0  0  0  0  0  0  0  0  0  0  0  0
  189.9970  175.0540  147.4780 O   0  0  0  0  0  1  0  0  0  0  0  0
  186.5580  176.7530  142.1380 O   0  0  0  0  0  0  0  0  0  0  0  0
  186.6220  177.0890  143.4730 C   0  0  0  0  0  0  0  0  0  0  0  0
  185.5540  178.5220  145.0840 C   0  0  0  0  0  3  0  0  0  0  0  0
  186.4320  178.0410  146.0670 C   0  0  0  0  0  3  0  0  0  0  0  0
  188.2570  176.5380  146.8700 C   0  0  0  0  0  2  0  0  0  0  0  0
  184.8760  178.3660  142.5870 C   0  0  1  0  0  3  0  0  0  0  0  0
  187.4190  177.0880  145.7490 C   0  0  0  0  0  0  0  0  0  0  0  0
  188.5900  175.6160  144.0170 C   0  0  2  0  0  3  0  0  0  0  0  0
  186.0710  178.3050  140.5050 O   0  0  0  0  0  1  0  0  0  0  0  0
  1 23  1  0  0  0  0
  2  1  1  0  0  0  0
  3  2  1  6  0  0  0
  3  9  1  0  0  0  0
  4  6  1  1  0  0  0
  7  4  1  0  0  0  0
  7  5  1  1  0  0  0
  8 20  1  6  0  0  0
  8 11  1  0  0  0  0
  8  7  1  0  0  0  0
  9  5  1  0  0  0  0
 10  4  1  0  0  0  0
 11 13  1  6  0  0  0
 11 10  1  0  0  0  0
 11  3  1  0  0  0  0
 12 15  1  0  0  0  0
 14 17  2  0  0  0  0
 15 13  2  0  0  0  0
 16 14  1  0  0  0  0
 16 12  2  0  0  0  0
 17 13  1  0  0  0  0
 18 19  2  0  0  0  0
 19 12  1  0  0  0  0
 21 22  1  0  0  0  0
 21 20  1  0  0  0  0
 22 20  1  0  0  0  0
 24 25  1  0  0  0  0
 24 23  1  0  0  0  0
 25 26  1  0  0  0  0
 27 38  1  0  0  0  0
 28 44  1  6  0  0  0
 28 36  1  0  0  0  0
 28 41  1  0  0  0  0
 30 26  1  6  0  0  0
 30 31  1  0  0  0  0
 31 32  1  6  0  0  0
 31 40  1  0  0  0  0
 31 35  1  0  0  0  0
 34 42  2  0  0  0  0
 36 37  1  0  0  0  0
 37 27  2  0  0  0  0
 37 34  1  0  0  0  0
 38 39  2  0  0  0  0
 41 29  1  1  0  0  0
 41 27  1  0  0  0  0
 42 39  1  0  0  0  0
 42 40  1  0  0  0  0
 43 33  1  1  0  0  0
 43 34  1  0  0  0  0
 43 30  1  0  0  0  0
M  END
>  <MODEL>
4

>  <REMARK>
 VINA RESULT:      -7.7      2.077      4.467
  Name = 
  10 active torsions:
  status: ('A' for Active; 'I' for Inactive)
    1  A    between atoms: C_1  and  N_18
    2  A    between atoms: C_2  and  N_22
    3  A    between atoms: C_2  and  C_30
    4  A    between atoms: C_3  and  N_21
    5  A    between atoms: C_4  and  O_19
    6  A    between atoms: C_4  and  C_37
    7  A    between atoms: C_5  and  N_22
    8  A    between atoms: C_13  and  O_19
    9  A    between atoms: C_16  and  C_43
   10  A    between atoms: C_30  and  C_37
                            x       y       z     vdW  Elec       q    Type
                         _______ _______ _______ _____ _____    ______ ____

>  <TORSDO>
F 10

$$$$
=
 OpenBabel11062422413D

 44 50  0  0  1  0  0  0  0  0999 V2000
  188.7650  172.8830  142.0990 C   0  0  0  0  0  2  0  0  0  0  0  0
  189.6900  173.7030  141.3300 N   0  0  0  0  0  2  0  0  0  0  0  0
  189.8200  173.0950  140.0110 C   0  0  1  0  0  3  0  0  0  0  0  0
  190.9590  171.4340  137.6570 C   0  0  1  0  0  3  0  0  0  0  0  0
  189.2160  173.2750  137.7780 C   0  0  0  0  0  2  0  0  0  0  0  0
  189.8080  170.4950  137.3270 C   0  0  0  0  0  1  0  0  0  0  0  0
  190.6800  172.9240  137.4000 C   0  0  1  0  0  3  0  0  0  0  0  0
  191.5440  173.6340  138.3480 N   0  0  1  0  0  0  0  0  0  0  0  0
  189.1210  173.8790  139.0590 O   0  0  0  0  0  0  0  0  0  0  0  0
  191.3350  171.3730  139.1270 C   0  0  0  0  0  2  0  0  0  0  0  0
  191.3070  172.8400  139.5750 C   0  0  2  0  0  0  0  0  0  0  0  0
  193.2770  174.7260  142.2680 C   0  0  0  0  0  0  0  0  0  0  0  0
  192.3150  173.1410  140.6830 C   0  0  0  0  0  0  0  0  0  0  0  0
  194.0170  172.4130  142.2620 C   0  0  0  0  0  3  0  0  0  0  0  0
  192.3900  174.4340  141.2270 C   0  0  0  0  0  3  0  0  0  0  0  0
  194.0940  173.7060  142.7840 C   0  0  0  0  0  3  0  0  0  0  0  0
  193.1300  172.1310  141.2210 C   0  0  0  0  0  3  0  0  0  0  0  0
  193.0580  176.3550  144.0160 C   0  0  0  0  0  2  0  0  0  0  0  0
  193.3250  176.0620  142.7840 N   0  0  0  0  0  0  0  0  0  0  0  0
  192.9370  173.5590  137.8760 C   0  0  0  0  0  3  0  0  0  0  0  0
  193.5770  174.9330  137.9560 C   0  0  0  0  0  2  0  0  0  0  0  0
  193.1110  174.4010  136.6220 C   0  0  0  0  0  2  0  0  0  0  0  0
  189.5260  171.8660  142.9330 C   0  0  0  0  0  2  0  0  0  0  0  0
  190.5280  172.5680  143.8350 C   0  0  0  0  0  2  0  0  0  0  0  0
  189.8100  173.2490  144.9820 C   0  0  0  0  0  2  0  0  0  0  0  0
  190.1760  174.5960  145.0430 O   0  0  0  0  0  0  0  0  0  0  0  0
  185.3400  178.1300  143.6300 C   0  0  0  0  0  0  0  0  0  0  0  0
  185.3500  177.5390  141.3410 C   0  0  1  0  0  3  0  0  0  0  0  0
  183.2960  177.9230  142.5000 F   0  0  0  0  0  0  0  0  0  0  0  0
  188.9890  175.2790  145.3380 C   0  0  1  0  0  3  0  0  0  0  0  0
  189.1760  176.2560  146.5150 C   0  0  2  0  0  0  0  0  0  0  0  0
  190.1910  177.3440  146.1960 C   0  0  0  0  0  1  0  0  0  0  0  0
  189.4390  176.6780  143.2590 C   0  0  0  0  0  1  0  0  0  0  0  0
  187.2360  176.8430  144.4010 C   0  0  0  0  0  0  0  0  0  0  0  0
  189.6330  175.5440  147.6240 O   0  0  0  0  0  1  0  0  0  0  0  0
  186.3970  176.8890  142.0610 O   0  0  0  0  0  0  0  0  0  0  0  0
  186.3630  177.2590  143.3890 C   0  0  0  0  0  0  0  0  0  0  0  0
  185.1140  178.6520  144.9010 C   0  0  0  0  0  3  0  0  0  0  0  0
  185.9640  178.2530  145.9430 C   0  0  0  0  0  3  0  0  0  0  0  0
  187.8360  176.8940  146.8830 C   0  0  0  0  0  2  0  0  0  0  0  0
  184.5890  178.3950  142.3760 C   0  0  1  0  0  3  0  0  0  0  0  0
  187.0290  177.3620  145.7040 C   0  0  0  0  0  0  0  0  0  0  0  0
  188.3900  175.9340  144.0780 C   0  0  2  0  0  3  0  0  0  0  0  0
  185.9010  178.3680  140.3650 O   0  0  0  0  0  1  0  0  0  0  0  0
  1 23  1  0  0  0  0
  2  1  1  0  0  0  0
  3  2  1  1  0  0  0
  4  6  1  1  0  0  0
  4 10  1  0  0  0  0
  5  9  1  0  0  0  0
  7  4  1  0  0  0  0
  7  5  1  1  0  0  0
  7  8  1  0  0  0  0
  8 20  1  6  0  0  0
  8 11  1  0  0  0  0
  9  3  1  0  0  0  0
 10 11  1  0  0  0  0
 11  3  1  0  0  0  0
 11 13  1  1  0  0  0
 12 19  1  0  0  0  0
 12 16  1  0  0  0  0
 13 17  2  0  0  0  0
 13 15  1  0  0  0  0
 14 16  2  0  0  0  0
 15 12  2  0  0  0  0
 17 14  1  0  0  0  0
 19 18  2  0  0  0  0
 20 21  1  0  0  0  0
 22 20  1  0  0  0  0
 22 21  1  0  0  0  0
 23 24  1  0  0  0  0
 24 25  1  0  0  0  0
 25 26  1  0  0  0  0
 27 38  1  0  0  0  0
 28 44  1  6  0  0  0
 28 36  1  0  0  0  0
 28 41  1  0  0  0  0
 30 26  1  6  0  0  0
 30 31  1  0  0  0  0
 31 32  1  6  0  0  0
 31 40  1  0  0  0  0
 31 35  1  0  0  0  0
 34 42  2  0  0  0  0
 36 37  1  0  0  0  0
 37 27  2  0  0  0  0
 37 34  1  0  0  0  0
 38 39  2  0  0  0  0
 41 29  1  1  0  0  0
 41 27  1  0  0  0  0
 42 39  1  0  0  0  0
 42 40  1  0  0  0  0
 43 33  1  1  0  0  0
 43 34  1  0  0  0  0
 43 30  1  0  0  0  0
M  END
>  <MODEL>
5

>  <REMARK>
 VINA RESULT:      -7.6      2.608      4.918
  Name = 
  10 active torsions:
  status: ('A' for Active; 'I' for Inactive)
    1  A    between atoms: C_1  and  N_18
    2  A    between atoms: C_2  and  N_22
    3  A    between atoms: C_2  and  C_30
    4  A    between atoms: C_3  and  N_21
    5  A    between atoms: C_4  and  O_19
    6  A    between atoms: C_4  and  C_37
    7  A    between atoms: C_5  and  N_22
    8  A    between atoms: C_13  and  O_19
    9  A    between atoms: C_16  and  C_43
   10  A    between atoms: C_30  and  C_37
                            x       y       z     vdW  Elec       q    Type
                         _______ _______ _______ _____ _____    ______ ____

>  <TORSDO>
F 10

$$$$
=
 OpenBabel11062422413D

 44 50  0  0  1  0  0  0  0  0999 V2000
  190.7620  171.4370  143.1730 C   0  0  0  0  0  2  0  0  0  0  0  0
  192.1410  171.8330  142.9290 N   0  0  0  0  0  2  0  0  0  0  0  0
  192.9970  170.8990  143.6510 C   0  0  1  0  0  3  0  0  0  0  0  0
  195.0030  169.7790  145.7300 C   0  0  1  0  0  3  0  0  0  0  0  0
  194.1800  168.9090  143.4920 C   0  0  0  0  0  2  0  0  0  0  0  0
  194.2230  168.6320  146.3560 C   0  0  0  0  0  1  0  0  0  0  0  0
  195.3510  169.5960  144.2440 C   0  0  1  0  0  3  0  0  0  0  0  0
  195.4510  170.9590  143.7140 N   0  0  1  0  0  0  0  0  0  0  0  0
  193.3720  169.8390  142.7870 O   0  0  0  0  0  0  0  0  0  0  0  0
  194.2240  171.0820  145.7740 C   0  0  0  0  0  2  0  0  0  0  0  0
  194.2480  171.5730  144.3200 C   0  0  2  0  0  0  0  0  0  0  0  0
  194.4310  175.2790  145.2810 C   0  0  0  0  0  0  0  0  0  0  0  0
  194.2370  173.0970  144.2090 C   0  0  0  0  0  0  0  0  0  0  0  0
  194.1670  175.1290  142.8720 C   0  0  0  0  0  3  0  0  0  0  0  0
  194.3990  173.8840  145.3610 C   0  0  0  0  0  3  0  0  0  0  0  0
  194.3130  175.9000  144.0270 C   0  0  0  0  0  3  0  0  0  0  0  0
  194.1340  173.7360  142.9620 C   0  0  0  0  0  3  0  0  0  0  0  0
  194.5640  177.3320  146.5150 C   0  0  0  0  0  2  0  0  0  0  0  0
  194.5890  176.0390  146.4860 N   0  0  0  0  0  0  0  0  0  0  0  0
  196.7060  171.5670  144.1880 C   0  0  0  0  0  3  0  0  0  0  0  0
  197.3280  172.3880  143.0730 C   0  0  0  0  0  2  0  0  0  0  0  0
  197.8840  171.0220  143.3950 C   0  0  0  0  0  2  0  0  0  0  0  0
  189.8250  172.1720  142.2270 C   0  0  0  0  0  2  0  0  0  0  0  0
  190.4990  173.4180  141.6800 C   0  0  0  0  0  2  0  0  0  0  0  0
  189.7180  174.6530  142.0820 C   0  0  0  0  0  2  0  0  0  0  0  0
  190.3620  175.3050  143.1360 O   0  0  0  0  0  0  0  0  0  0  0  0
  185.8010  178.0380  146.2320 C   0  0  0  0  0  0  0  0  0  0  0  0
  185.0850  179.3350  144.3890 C   0  0  1  0  0  3  0  0  0  0  0  0
  183.5110  178.4600  145.9580 F   0  0  0  0  0  0  0  0  0  0  0  0
  189.4030  175.3810  144.1530 C   0  0  1  0  0  3  0  0  0  0  0  0
  190.0360  175.1860  145.5440 C   0  0  2  0  0  0  0  0  0  0  0  0
  191.0450  176.2790  145.8690 C   0  0  0  0  0  1  0  0  0  0  0  0
  189.4120  177.9000  143.7860 C   0  0  0  0  0  1  0  0  0  0  0  0
  187.6630  176.8730  145.2240 C   0  0  0  0  0  0  0  0  0  0  0  0
  190.6990  173.9590  145.5710 O   0  0  0  0  0  1  0  0  0  0  0  0
  186.2060  178.5140  144.0580 O   0  0  0  0  0  0  0  0  0  0  0  0
  186.5970  177.7760  145.1550 C   0  0  0  0  0  0  0  0  0  0  0  0
  186.0110  177.4170  147.4600 C   0  0  0  0  0  3  0  0  0  0  0  0
  187.0670  176.4990  147.5670 C   0  0  0  0  0  3  0  0  0  0  0  0
  188.9460  175.1570  146.6160 C   0  0  0  0  0  2  0  0  0  0  0  0
  184.7630  179.0370  145.8690 C   0  0  1  0  0  3  0  0  0  0  0  0
  187.9010  176.2280  146.4650 C   0  0  0  0  0  0  0  0  0  0  0  0
  188.5560  176.6630  144.0320 C   0  0  2  0  0  3  0  0  0  0  0  0
  185.4350  180.6770  144.2490 O   0  0  0  0  0  1  0  0  0  0  0  0
  2  1  1  0  0  0  0
  3  2  1  6  0  0  0
  3 11  1  0  0  0  0
  4 10  1  0  0  0  0
  4  6  1  6  0  0  0
  7  5  1  6  0  0  0
  7  4  1  0  0  0  0
  8 20  1  1  0  0  0
  8  7  1  0  0  0  0
  8 11  1  0  0  0  0
  9  5  1  0  0  0  0
  9  3  1  0  0  0  0
 11 13  1  6  0  0  0
 11 10  1  0  0  0  0
 12 15  1  0  0  0  0
 12 19  1  0  0  0  0
 13 15  2  0  0  0  0
 14 17  2  0  0  0  0
 14 16  1  0  0  0  0
 16 12  2  0  0  0  0
 17 13  1  0  0  0  0
 19 18  2  0  0  0  0
 21 22  1  0  0  0  0
 21 20  1  0  0  0  0
 22 20  1  0  0  0  0
 23  1  1  0  0  0  0
 24 25  1  0  0  0  0
 24 23  1  0  0  0  0
 25 26  1  0  0  0  0
 27 38  1  0  0  0  0
 28 44  1  1  0  0  0
 28 41  1  0  0  0  0
 30 26  1  6  0  0  0
 30 31  1  0  0  0  0
 31 35  1  0  0  0  0
 31 32  1  1  0  0  0
 31 40  1  0  0  0  0
 34 42  2  0  0  0  0
 36 28  1  0  0  0  0
 36 37  1  0  0  0  0
 37 34  1  0  0  0  0
 37 27  2  0  0  0  0
 38 39  2  0  0  0  0
 41 29  1  6  0  0  0
 41 27  1  0  0  0  0
 42 40  1  0  0  0  0
 42 39  1  0  0  0  0
 43 33  1  1  0  0  0
 43 30  1  0  0  0  0
 43 34  1  0  0  0  0
M  END
>  <MODEL>
6

>  <REMARK>
 VINA RESULT:      -7.6      1.598      1.999
  Name = 
  10 active torsions:
  status: ('A' for Active; 'I' for Inactive)
    1  A    between atoms: C_1  and  N_18
    2  A    between atoms: C_2  and  N_22
    3  A    between atoms: C_2  and  C_30
    4  A    between atoms: C_3  and  N_21
    5  A    between atoms: C_4  and  O_19
    6  A    between atoms: C_4  and  C_37
    7  A    between atoms: C_5  and  N_22
    8  A    between atoms: C_13  and  O_19
    9  A    between atoms: C_16  and  C_43
   10  A    between atoms: C_30  and  C_37
                            x       y       z     vdW  Elec       q    Type
                         _______ _______ _______ _____ _____    ______ ____

>  <TORSDO>
F 10

$$$$
=
 OpenBabel11062422413D

 44 50  0  0  1  0  0  0  0  0999 V2000
  189.4790  174.6720  147.1200 C   0  0  0  0  0  2  0  0  0  0  0  0
  188.4900  174.8870  146.0740 N   0  0  0  0  0  2  0  0  0  0  0  0
  189.1520  175.6020  144.9890 C   0  0  1  0  0  3  0  0  0  0  0  0
  190.0510  177.9130  143.1300 C   0  0  1  0  0  3  0  0  0  0  0  0
  190.0880  175.3870  142.8760 C   0  0  0  0  0  2  0  0  0  0  0  0
  191.5680  177.8320  143.2130 C   0  0  0  0  0  1  0  0  0  0  0  0
  189.3680  176.7030  142.4720 C   0  0  1  0  0  3  0  0  0  0  0  0
  188.0320  176.6550  143.0740 N   0  0  1  0  0  0  0  0  0  0  0  0
  189.4150  174.7040  143.9230 O   0  0  0  0  0  0  0  0  0  0  0  0
  189.4130  177.9990  144.5060 C   0  0  0  0  0  2  0  0  0  0  0  0
  188.3710  176.8740  144.4980 C   0  0  2  0  0  0  0  0  0  0  0  0
  186.0700  178.6060  147.0280 C   0  0  0  0  0  0  0  0  0  0  0  0
  187.1490  177.1920  145.3580 C   0  0  0  0  0  0  0  0  0  0  0  0
  184.8310  176.7980  145.9860 C   0  0  0  0  0  3  0  0  0  0  0  0
  187.1880  178.2700  146.2580 C   0  0  0  0  0  3  0  0  0  0  0  0
  184.8880  177.8620  146.8880 C   0  0  0  0  0  3  0  0  0  0  0  0
  185.9530  176.4680  145.2220 C   0  0  0  0  0  3  0  0  0  0  0  0
  187.0660  179.7900  148.8620 C   0  0  0  0  0  2  0  0  0  0  0  0
  186.1630  179.7090  147.9390 N   0  0  0  0  0  0  0  0  0  0  0  0
  187.2120  177.7390  142.5060 C   0  0  0  0  0  3  0  0  0  0  0  0
  185.9160  177.1670  141.9630 C   0  0  0  0  0  2  0  0  0  0  0  0
  187.0300  177.5300  141.0110 C   0  0  0  0  0  2  0  0  0  0  0  0
  190.2920  175.9370  147.3480 C   0  0  0  0  0  2  0  0  0  0  0  0
  191.7300  175.5850  147.6900 C   0  0  0  0  0  2  0  0  0  0  0  0
  192.6830  176.3850  146.8230 C   0  0  0  0  0  2  0  0  0  0  0  0
  193.7840  175.6000  146.4720 O   0  0  0  0  0  0  0  0  0  0  0  0
  192.6940  172.6480  141.1840 C   0  0  0  0  0  0  0  0  0  0  0  0
  191.1360  171.1460  142.1340 C   0  0  1  0  0  3  0  0  0  0  0  0
  190.8470  171.9690  139.9100 F   0  0  0  0  0  0  0  0  0  0  0  0
  193.7260  175.5020  145.0760 C   0  0  1  0  0  3  0  0  0  0  0  0
  195.0740  175.8680  144.4270 C   0  0  2  0  0  0  0  0  0  0  0  0
  196.1850  174.9150  144.8450 C   0  0  0  0  0  1  0  0  0  0  0  0
  193.8220  172.9770  145.3860 C   0  0  0  0  0  1  0  0  0  0  0  0
  193.2970  173.9220  143.1470 C   0  0  0  0  0  0  0  0  0  0  0  0
  195.4320  177.1560  144.8240 O   0  0  0  0  0  1  0  0  0  0  0  0
  191.6610  172.0520  143.1050 O   0  0  0  0  0  0  0  0  0  0  0  0
  192.5660  172.9090  142.5170 C   0  0  0  0  0  0  0  0  0  0  0  0
  193.5640  173.3800  140.3790 C   0  0  0  0  0  3  0  0  0  0  0  0
  194.3100  174.4090  140.9740 C   0  0  0  0  0  3  0  0  0  0  0  0
  194.9390  175.8640  142.9040 C   0  0  0  0  0  2  0  0  0  0  0  0
  191.8070  171.5210  140.7960 C   0  0  1  0  0  3  0  0  0  0  0  0
  194.1930  174.6820  142.3510 C   0  0  0  0  0  0  0  0  0  0  0  0
  193.1750  174.1320  144.6320 C   0  0  2  0  0  3  0  0  0  0  0  0
  191.4830  169.8410  142.4810 O   0  0  0  0  0  1  0  0  0  0  0  0
  1 23  1  0  0  0  0
  2  1  1  0  0  0  0
  3  2  1  1  0  0  0
  4  6  1  1  0  0  0
  4 10  1  0  0  0  0
  5  9  1  0  0  0  0
  7  5  1  1  0  0  0
  7  8  1  0  0  0  0
  7  4  1  0  0  0  0
  8 20  1  6  0  0  0
  8 11  1  0  0  0  0
  9  3  1  0  0  0  0
 11 10  1  0  0  0  0
 11  3  1  0  0  0  0
 11 13  1  1  0  0  0
 12 19  1  0  0  0  0
 13 15  1  0  0  0  0
 14 16  2  0  0  0  0
 15 12  2  0  0  0  0
 16 12  1  0  0  0  0
 17 13  2  0  0  0  0
 17 14  1  0  0  0  0
 19 18  2  0  0  0  0
 21 20  1  0  0  0  0
 22 21  1  0  0  0  0
 22 20  1  0  0  0  0
 23 24  1  0  0  0  0
 25 24  1  0  0  0  0
 26 25  1  0  0  0  0
 27 37  1  0  0  0  0
 28 44  1  1  0  0  0
 28 36  1  0  0  0  0
 30 26  1  1  0  0  0
 31 35  1  0  0  0  0
 31 32  1  1  0  0  0
 31 30  1  0  0  0  0
 34 43  1  0  0  0  0
 37 36  1  0  0  0  0
 37 34  2  0  0  0  0
 38 39  1  0  0  0  0
 38 27  2  0  0  0  0
 39 42  2  0  0  0  0
 40 31  1  0  0  0  0
 41 29  1  6  0  0  0
 41 27  1  0  0  0  0
 41 28  1  0  0  0  0
 42 40  1  0  0  0  0
 42 34  1  0  0  0  0
 43 30  1  0  0  0  0
 43 33  1  1  0  0  0
M  END
>  <MODEL>
7

>  <REMARK>
 VINA RESULT:      -7.4      3.238      8.333
  Name = 
  10 active torsions:
  status: ('A' for Active; 'I' for Inactive)
    1  A    between atoms: C_1  and  N_18
    2  A    between atoms: C_2  and  N_22
    3  A    between atoms: C_2  and  C_30
    4  A    between atoms: C_3  and  N_21
    5  A    between atoms: C_4  and  O_19
    6  A    between atoms: C_4  and  C_37
    7  A    between atoms: C_5  and  N_22
    8  A    between atoms: C_13  and  O_19
    9  A    between atoms: C_16  and  C_43
   10  A    between atoms: C_30  and  C_37
                            x       y       z     vdW  Elec       q    Type
                         _______ _______ _______ _____ _____    ______ ____

>  <TORSDO>
F 10

$$$$
=
 OpenBabel11062422413D

 44 50  0  0  1  0  0  0  0  0999 V2000
  195.3720  175.7320  144.8040 C   0  0  0  0  0  2  0  0  0  0  0  0
  196.5680  174.9820  144.4490 N   0  0  0  0  0  2  0  0  0  0  0  0
  196.5910  174.8610  142.9960 C   0  0  1  0  0  3  0  0  0  0  0  0
  195.8490  173.9620  140.1250 C   0  0  1  0  0  3  0  0  0  0  0  0
  197.9170  175.0630  141.1030 C   0  0  0  0  0  2  0  0  0  0  0  0
  195.5930  175.2860  139.4210 C   0  0  0  0  0  1  0  0  0  0  0  0
  197.3000  173.7370  140.5820 C   0  0  1  0  0  3  0  0  0  0  0  0
  197.1910  172.8400  141.7370 N   0  0  1  0  0  0  0  0  0  0  0  0
  197.8960  175.1480  142.5190 O   0  0  0  0  0  0  0  0  0  0  0  0
  195.0320  173.8310  141.3980 C   0  0  0  0  0  2  0  0  0  0  0  0
  196.0720  173.4750  142.4680 C   0  0  2  0  0  0  0  0  0  0  0  0
  195.8750  171.1950  145.5430 C   0  0  0  0  0  0  0  0  0  0  0  0
  195.5050  172.5880  143.5750 C   0  0  0  0  0  0  0  0  0  0  0  0
  193.6140  171.6370  144.7770 C   0  0  0  0  0  3  0  0  0  0  0  0
  196.3720  171.9800  144.4980 C   0  0  0  0  0  3  0  0  0  0  0  0
  194.4880  171.0250  145.6780 C   0  0  0  0  0  3  0  0  0  0  0  0
  194.1190  172.4180  143.7350 C   0  0  0  0  0  3  0  0  0  0  0  0
  196.6160  169.4160  146.9720 C   0  0  0  0  0  2  0  0  0  0  0  0
  196.8000  170.5870  146.4530 N   0  0  0  0  0  0  0  0  0  0  0  0
  196.8690  171.4830  141.2610 C   0  0  0  0  0  3  0  0  0  0  0  0
  197.9400  170.5130  141.7270 C   0  0  0  0  0  2  0  0  0  0  0  0
  197.9410  170.9980  140.2970 C   0  0  0  0  0  2  0  0  0  0  0  0
  194.9150  175.3660  146.2080 C   0  0  0  0  0  2  0  0  0  0  0  0
  193.4570  175.7440  146.4020 C   0  0  0  0  0  2  0  0  0  0  0  0
  192.7530  175.8160  145.0620 C   0  0  0  0  0  2  0  0  0  0  0  0
  191.8730  174.7390  144.9260 O   0  0  0  0  0  0  0  0  0  0  0  0
  186.2740  177.2850  144.7420 C   0  0  0  0  0  0  0  0  0  0  0  0
  186.4440  178.2490  146.8940 C   0  0  1  0  0  3  0  0  0  0  0  0
  185.2920  179.3780  145.1320 F   0  0  0  0  0  0  0  0  0  0  0  0
  190.7540  175.2680  144.2710 C   0  0  1  0  0  3  0  0  0  0  0  0
  190.1790  174.2770  143.2420 C   0  0  2  0  0  0  0  0  0  0  0  0
  189.6840  172.9970  143.9000 C   0  0  0  0  0  1  0  0  0  0  0  0
  189.4540  174.8060  146.4110 C   0  0  0  0  0  1  0  0  0  0  0  0
  188.4160  176.1730  144.6120 C   0  0  0  0  0  0  0  0  0  0  0  0
  191.1800  173.9400  142.3310 O   0  0  0  0  0  1  0  0  0  0  0  0
  187.6190  177.5170  146.5450 O   0  0  0  0  0  0  0  0  0  0  0  0
  187.4830  176.9670  145.2880 C   0  0  0  0  0  0  0  0  0  0  0  0
  185.9040  176.8310  143.4780 C   0  0  0  0  0  3  0  0  0  0  0  0
  186.8160  176.0370  142.7660 C   0  0  0  0  0  3  0  0  0  0  0  0
  189.0350  174.9320  142.4670 C   0  0  0  0  0  2  0  0  0  0  0  0
  185.4930  178.1280  145.6840 C   0  0  1  0  0  3  0  0  0  0  0  0
  188.0640  175.6950  143.3230 C   0  0  0  0  0  0  0  0  0  0  0  0
  189.7100  175.7930  145.2770 C   0  0  2  0  0  3  0  0  0  0  0  0
  185.8500  177.6680  148.0140 O   0  0  0  0  0  1  0  0  0  0  0  0
  1 23  1  0  0  0  0
  2  1  1  0  0  0  0
  3  2  1  1  0  0  0
  4  6  1  1  0  0  0
  4  7  1  0  0  0  0
  4 10  1  0  0  0  0
  5  9  1  0  0  0  0
  7  5  1  1  0  0  0
  7  8  1  0  0  0  0
  8 20  1  6  0  0  0
  8 11  1  0  0  0  0
  9  3  1  0  0  0  0
 10 11  1  0  0  0  0
 11  3  1  0  0  0  0
 11 13  1  1  0  0  0
 12 16  1  0  0  0  0
 12 19  1  0  0  0  0
 13 17  2  0  0  0  0
 13 15  1  0  0  0  0
 14 16  2  0  0  0  0
 15 12  2  0  0  0  0
 17 14  1  0  0  0  0
 19 18  2  0  0  0  0
 20 21  1  0  0  0  0
 22 20  1  0  0  0  0
 22 21  1  0  0  0  0
 23 24  1  0  0  0  0
 25 24  1  0  0  0  0
 26 25  1  0  0  0  0
 27 37  1  0  0  0  0
 27 41  1  0  0  0  0
 28 44  1  1  0  0  0
 30 26  1  1  0  0  0
 30 43  1  0  0  0  0
 31 32  1  1  0  0  0
 31 30  1  0  0  0  0
 34 43  1  0  0  0  0
 34 37  2  0  0  0  0
 35 31  1  0  0  0  0
 36 28  1  0  0  0  0
 37 36  1  0  0  0  0
 38 27  2  0  0  0  0
 39 42  2  0  0  0  0
 39 38  1  0  0  0  0
 40 31  1  0  0  0  0
 40 42  1  0  0  0  0
 41 29  1  6  0  0  0
 41 28  1  0  0  0  0
 42 34  1  0  0  0  0
 43 33  1  1  0  0  0
M  END
>  <MODEL>
8

>  <REMARK>
 VINA RESULT:      -7.4      2.268      4.423
  Name = 
  10 active torsions:
  status: ('A' for Active; 'I' for Inactive)
    1  A    between atoms: C_1  and  N_18
    2  A    between atoms: C_2  and  N_22
    3  A    between atoms: C_2  and  C_30
    4  A    between atoms: C_3  and  N_21
    5  A    between atoms: C_4  and  O_19
    6  A    between atoms: C_4  and  C_37
    7  A    between atoms: C_5  and  N_22
    8  A    between atoms: C_13  and  O_19
    9  A    between atoms: C_16  and  C_43
   10  A    between atoms: C_30  and  C_37
                            x       y       z     vdW  Elec       q    Type
                         _______ _______ _______ _____ _____    ______ ____

>  <TORSDO>
F 10

$$$$
=
 OpenBabel11062422413D

 44 50  0  0  1  0  0  0  0  0999 V2000
  194.0210  174.0490  140.8690 C   0  0  0  0  0  2  0  0  0  0  0  0
  194.9530  173.5580  141.8740 N   0  0  0  0  0  2  0  0  0  0  0  0
  194.5440  172.2030  142.2240 C   0  0  1  0  0  3  0  0  0  0  0  0
  193.2270  169.8470  143.7470 C   0  0  1  0  0  3  0  0  0  0  0  0
  195.0620  169.9530  141.9970 C   0  0  0  0  0  2  0  0  0  0  0  0
  192.3690  169.1980  142.6720 C   0  0  0  0  0  1  0  0  0  0  0  0
  194.7430  169.7720  143.5050 C   0  0  1  0  0  3  0  0  0  0  0  0
  195.2900  170.9440  144.1950 N   0  0  1  0  0  0  0  0  0  0  0  0
  195.4730  171.2760  141.6870 O   0  0  0  0  0  0  0  0  0  0  0  0
  192.9430  171.3330  143.8760 C   0  0  0  0  0  2  0  0  0  0  0  0
  194.3280  171.9830  143.7650 C   0  0  2  0  0  0  0  0  0  0  0  0
  193.4580  174.8630  146.1400 C   0  0  0  0  0  0  0  0  0  0  0  0
  194.4450  173.2740  144.5740 C   0  0  0  0  0  0  0  0  0  0  0  0
  195.7440  175.1660  145.3810 C   0  0  0  0  0  3  0  0  0  0  0  0
  193.3640  173.7070  145.3600 C   0  0  0  0  0  3  0  0  0  0  0  0
  194.6570  175.5940  146.1450 C   0  0  0  0  0  3  0  0  0  0  0  0
  195.6400  174.0100  144.6040 C   0  0  0  0  0  3  0  0  0  0  0  0
  191.8810  176.4850  146.9390 C   0  0  0  0  0  2  0  0  0  0  0  0
  192.3250  175.2700  146.9170 N   0  0  0  0  0  0  0  0  0  0  0  0
  195.2600  170.7010  145.6480 C   0  0  0  0  0  3  0  0  0  0  0  0
  196.6110  171.0420  146.2500 C   0  0  0  0  0  2  0  0  0  0  0  0
  196.2400  169.5980  146.0150 C   0  0  0  0  0  2  0  0  0  0  0  0
  192.7770  174.6160  141.5340 C   0  0  0  0  0  2  0  0  0  0  0  0
  193.1400  175.8080  142.4040 C   0  0  0  0  0  2  0  0  0  0  0  0
  191.9090  176.3250  143.1200 C   0  0  0  0  0  2  0  0  0  0  0  0
  190.9630  175.3040  143.2440 O   0  0  0  0  0  0  0  0  0  0  0  0
  185.5830  177.7940  144.8910 C   0  0  0  0  0  0  0  0  0  0  0  0
  186.3230  178.4080  147.0500 C   0  0  1  0  0  3  0  0  0  0  0  0
  184.7980  179.7900  145.8370 F   0  0  0  0  0  0  0  0  0  0  0  0
  189.7320  175.9190  142.9870 C   0  0  1  0  0  3  0  0  0  0  0  0
  188.8850  175.0960  141.9980 C   0  0  2  0  0  0  0  0  0  0  0  0
  188.5330  173.7240  142.5540 C   0  0  0  0  0  1  0  0  0  0  0  0
  189.0030  175.1140  145.2890 C   0  0  0  0  0  1  0  0  0  0  0  0
  187.5860  176.7370  144.0480 C   0  0  0  0  0  0  0  0  0  0  0  0
  189.6110  174.9170  140.8200 O   0  0  0  0  0  1  0  0  0  0  0  0
  187.3480  177.7520  146.3040 O   0  0  0  0  0  0  0  0  0  0  0  0
  186.8810  177.4060  145.0550 C   0  0  0  0  0  0  0  0  0  0  0  0
  184.8910  177.5410  143.7090 C   0  0  0  0  0  3  0  0  0  0  0  0
  185.5670  176.8780  142.6740 C   0  0  0  0  0  3  0  0  0  0  0  0
  187.6030  175.8550  141.6510 C   0  0  0  0  0  2  0  0  0  0  0  0
  185.0930  178.4700  146.1200 C   0  0  1  0  0  3  0  0  0  0  0  0
  186.9040  176.4650  142.8350 C   0  0  0  0  0  0  0  0  0  0  0  0
  188.9940  176.2690  144.2940 C   0  0  2  0  0  3  0  0  0  0  0  0
  186.0140  177.6530  148.1810 O   0  0  0  0  0  1  0  0  0  0  0  0
  1 23  1  0  0  0  0
  1  2  1  0  0  0  0
  3  2  1  1  0  0  0
  3 11  1  0  0  0  0
  4  6  1  6  0  0  0
  4 10  1  0  0  0  0
  7  5  1  6  0  0  0
  7  4  1  0  0  0  0
  7  8  1  0  0  0  0
  8 20  1  1  0  0  0
  9  5  1  0  0  0  0
  9  3  1  0  0  0  0
 11 10  1  0  0  0  0
 11  8  1  0  0  0  0
 11 13  1  1  0  0  0
 12 16  1  0  0  0  0
 12 19  1  0  0  0  0
 13 17  2  0  0  0  0
 13 15  1  0  0  0  0
 14 16  2  0  0  0  0
 15 12  2  0  0  0  0
 17 14  1  0  0  0  0
 19 18  2  0  0  0  0
 20 22  1  0  0  0  0
 20 21  1  0  0  0  0
 22 21  1  0  0  0  0
 23 24  1  0  0  0  0
 24 25  1  0  0  0  0
 25 26  1  0  0  0  0
 27 37  1  0  0  0  0
 27 41  1  0  0  0  0
 28 44  1  1  0  0  0
 30 26  1  1  0  0  0
 30 43  1  0  0  0  0
 31 32  1  1  0  0  0
 31 30  1  0  0  0  0
 34 43  1  0  0  0  0
 34 37  2  0  0  0  0
 35 31  1  0  0  0  0
 36 28  1  0  0  0  0
 37 36  1  0  0  0  0
 38 27  2  0  0  0  0
 39 42  2  0  0  0  0
 39 38  1  0  0  0  0
 40 31  1  0  0  0  0
 40 42  1  0  0  0  0
 41 29  1  6  0  0  0
 41 28  1  0  0  0  0
 42 34  1  0  0  0  0
 43 33  1  1  0  0  0
M  END
>  <MODEL>
9

>  <REMARK>
 VINA RESULT:      -7.3      1.478      2.317
  Name = 
  10 active torsions:
  status: ('A' for Active; 'I' for Inactive)
    1  A    between atoms: C_1  and  N_18
    2  A    between atoms: C_2  and  N_22
    3  A    between atoms: C_2  and  C_30
    4  A    between atoms: C_3  and  N_21
    5  A    between atoms: C_4  and  O_19
    6  A    between atoms: C_4  and  C_37
    7  A    between atoms: C_5  and  N_22
    8  A    between atoms: C_13  and  O_19
    9  A    between atoms: C_16  and  C_43
   10  A    between atoms: C_30  and  C_37
                            x       y       z     vdW  Elec       q    Type
                         _______ _______ _______ _____ _____    ______ ____

>  <TORSDO>
F 10

$$$$
