=
 OpenBabel11072408343D

 26 27  0  0  1  0  0  0  0  0999 V2000
  189.1450  176.2400  145.7230 C   0  0  0  0  0  0  0  0  0  0  0  0
  186.9990  176.4840  146.8140 C   0  0  0  0  0  3  0  0  0  0  0  0
  187.1650  176.8270  144.4110 C   0  0  0  0  0  0  0  0  0  0  0  0
  186.3870  176.7860  145.5900 C   0  0  0  0  0  0  0  0  0  0  0  0
  188.5380  176.5460  144.4970 C   0  0  0  0  0  3  0  0  0  0  0  0
  188.3650  176.2160  146.8800 C   0  0  0  0  0  3  0  0  0  0  0  0
  186.5820  177.1500  143.0850 C   0  0  0  0  0  0  0  0  0  0  0  0
  185.7720  179.4180  143.1650 N   0  0  0  0  0  1  0  0  0  0  0  0
  185.3410  177.9190  141.3280 C   0  0  0  0  0  0  0  0  0  0  0  0
  185.4190  178.0510  142.8160 C   0  0  1  0  0  3  0  0  0  0  0  0
  187.0380  176.6710  141.9330 C   0  0  0  0  0  3  0  0  0  0  0  0
  186.2580  177.1510  140.8470 N   0  0  0  0  0  0  0  0  0  0  0  0
  184.3230  178.5690  140.4440 C   0  0  0  0  0  2  0  0  0  0  0  0
  182.9870  178.0690  140.7240 N   0  0  0  0  0  1  0  0  0  0  0  0
  190.5470  175.9580  145.8270 N   0  0  0  0  0  2  0  0  0  0  0  0
  191.1880  174.7000  145.5830 C   0  0  0  0  0  0  0  0  0  0  0  0
  190.5220  173.6770  145.2650 O   0  0  0  0  0  0  0  0  0  0  0  0
  192.6700  174.6030  145.7010 C   0  0  0  0  0  2  0  0  0  0  0  0
  193.3460  175.8830  145.2160 C   0  0  0  0  0  2  0  0  0  0  0  0
  194.9760  177.5300  145.6910 F   0  0  0  0  0  0  0  0  0  0  0  0
  193.5410  176.9770  147.3320 F   0  0  0  0  0  0  0  0  0  0  0  0
  195.1700  175.5360  146.7170 F   0  0  0  0  0  0  0  0  0  0  0  0
  194.2730  176.4890  146.2650 C   0  0  0  0  0  0  0  0  0  0  0  0
  185.0100  177.0330  145.5450 O   0  0  0  0  0  0  0  0  0  0  0  0
  184.3550  177.5950  146.5720 O   0  0  0  0  0  0  0  0  0  0  0  0
  184.0160  178.8320  146.1340 N   0  0  0  0  0  1  0  0  0  0  0  0
  1 15  1  0  0  0  0
  1  6  1  0  0  0  0
  2  6  2  0  0  0  0
  3  5  1  0  0  0  0
  3  4  2  0  0  0  0
  4  2  1  0  0  0  0
  5  1  2  0  0  0  0
  7  3  1  0  0  0  0
  9 10  1  0  0  0  0
 10  7  1  0  0  0  0
 10  8  1  6  0  0  0
 11  7  2  0  0  0  0
 12  9  2  0  0  0  0
 12 11  1  0  0  0  0
 13 14  1  0  0  0  0
 13  9  1  0  0  0  0
 16 18  1  0  0  0  0
 16 15  1  0  0  0  0
 17 16  2  0  0  0  0
 19 18  1  0  0  0  0
 19 23  1  0  0  0  0
 20 23  1  0  0  0  0
 23 22  1  0  0  0  0
 23 21  1  0  0  0  0
 24  4  1  0  0  0  0
 24 25  1  0  0  0  0
 26 25  1  0  0  0  0
M  END
>  <MODEL>
1

>  <REMARK>
 VINA RESULT:      -6.8      0.000      0.000
  Name = 
  8 active torsions:
  status: ('A' for Active; 'I' for Inactive)
    1  A    between atoms: C_1  and  C_7
    2  A    between atoms: C_2  and  C_15
    3  A    between atoms: C_5  and  N_10
    4  A    between atoms: O_8  and  C_16
    5  A    between atoms: O_8  and  O_22
    6  A    between atoms: C_9  and  C_11
    7  A    between atoms: C_9  and  C_25
    8  A    between atoms: C_11  and  C_13
                            x       y       z     vdW  Elec       q    Type
                         _______ _______ _______ _____ _____    ______ ____

>  <TORSDO>
F 8

$$$$
=
 OpenBabel11072408343D

 26 27  0  0  1  0  0  0  0  0999 V2000
  190.4470  177.0330  145.2930 C   0  0  0  0  0  0  0  0  0  0  0  0
  188.7430  176.5640  146.9470 C   0  0  0  0  0  3  0  0  0  0  0  0
  188.0900  177.4250  144.7670 C   0  0  0  0  0  0  0  0  0  0  0  0
  187.7380  176.9690  146.0570 C   0  0  0  0  0  0  0  0  0  0  0  0
  189.4460  177.4430  144.4020 C   0  0  0  0  0  3  0  0  0  0  0  0
  190.0840  176.5980  146.5680 C   0  0  0  0  0  3  0  0  0  0  0  0
  187.0770  177.8780  143.7800 C   0  0  0  0  0  0  0  0  0  0  0  0
  186.4730  175.9840  142.4180 N   0  0  0  0  0  1  0  0  0  0  0  0
  185.7650  178.2390  141.9460 C   0  0  0  0  0  0  0  0  0  0  0  0
  186.9030  177.3720  142.3830 C   0  0  1  0  0  3  0  0  0  0  0  0
  186.1650  178.8120  144.0230 C   0  0  0  0  0  3  0  0  0  0  0  0
  185.3560  179.0330  142.8770 N   0  0  0  0  0  0  0  0  0  0  0  0
  185.1380  178.2400  140.5870 C   0  0  0  0  0  2  0  0  0  0  0  0
  183.6890  178.3210  140.6760 N   0  0  0  0  0  1  0  0  0  0  0  0
  191.8350  177.0530  144.9380 N   0  0  0  0  0  2  0  0  0  0  0  0
  192.5300  176.0840  144.1420 C   0  0  0  0  0  0  0  0  0  0  0  0
  191.9410  175.0640  143.6910 O   0  0  0  0  0  0  0  0  0  0  0  0
  193.9740  176.2920  143.8390 C   0  0  0  0  0  2  0  0  0  0  0  0
  194.8290  175.1760  144.4320 C   0  0  0  0  0  2  0  0  0  0  0  0
  196.0360  174.6110  146.3860 F   0  0  0  0  0  0  0  0  0  0  0  0
  194.8600  176.5260  146.4030 F   0  0  0  0  0  0  0  0  0  0  0  0
  193.7890  174.5380  146.4840 F   0  0  0  0  0  0  0  0  0  0  0  0
  194.8730  175.2180  145.9560 C   0  0  0  0  0  0  0  0  0  0  0  0
  186.3970  176.9090  146.4520 O   0  0  0  0  0  0  0  0  0  0  0  0
  186.0070  177.2310  147.6950 O   0  0  0  0  0  0  0  0  0  0  0  0
  185.5840  178.5150  147.6060 N   0  0  0  0  0  1  0  0  0  0  0  0
  1  6  1  0  0  0  0
  3  4  2  0  0  0  0
  4 24  1  0  0  0  0
  4  2  1  0  0  0  0
  5  3  1  0  0  0  0
  5  1  2  0  0  0  0
  6  2  2  0  0  0  0
  7 11  2  0  0  0  0
  7  3  1  0  0  0  0
  9 10  1  0  0  0  0
  9 12  2  0  0  0  0
 10  8  1  1  0  0  0
 10  7  1  0  0  0  0
 12 11  1  0  0  0  0
 13 14  1  0  0  0  0
 13  9  1  0  0  0  0
 15  1  1  0  0  0  0
 16 15  1  0  0  0  0
 17 16  2  0  0  0  0
 18 16  1  0  0  0  0
 18 19  1  0  0  0  0
 19 23  1  0  0  0  0
 23 20  1  0  0  0  0
 23 21  1  0  0  0  0
 23 22  1  0  0  0  0
 24 25  1  0  0  0  0
 26 25  1  0  0  0  0
M  END
>  <MODEL>
2

>  <REMARK>
 VINA RESULT:      -6.5      1.493      2.036
  Name = 
  8 active torsions:
  status: ('A' for Active; 'I' for Inactive)
    1  A    between atoms: C_1  and  C_7
    2  A    between atoms: C_2  and  C_15
    3  A    between atoms: C_5  and  N_10
    4  A    between atoms: O_8  and  C_16
    5  A    between atoms: O_8  and  O_22
    6  A    between atoms: C_9  and  C_11
    7  A    between atoms: C_9  and  C_25
    8  A    between atoms: C_11  and  C_13
                            x       y       z     vdW  Elec       q    Type
                         _______ _______ _______ _____ _____    ______ ____

>  <TORSDO>
F 8

$$$$
=
 OpenBabel11072408343D

 26 27  0  0  1  0  0  0  0  0999 V2000
  188.6940  177.0650  146.2910 C   0  0  0  0  0  0  0  0  0  0  0  0
  190.8910  176.4490  147.0970 C   0  0  0  0  0  3  0  0  0  0  0  0
  189.8470  175.1270  145.3420 C   0  0  0  0  0  0  0  0  0  0  0  0
  190.9410  175.3720  146.2010 C   0  0  0  0  0  0  0  0  0  0  0  0
  188.7380  175.9870  145.3970 C   0  0  0  0  0  3  0  0  0  0  0  0
  189.7770  177.2860  147.1430 C   0  0  0  0  0  3  0  0  0  0  0  0
  189.8310  173.9990  144.3770 C   0  0  0  0  0  0  0  0  0  0  0  0
  191.1330  174.6490  142.4560 N   0  0  0  0  0  1  0  0  0  0  0  0
  189.7960  172.6460  142.5380 C   0  0  0  0  0  0  0  0  0  0  0  0
  189.8570  174.1000  142.8850 C   0  0  1  0  0  3  0  0  0  0  0  0
  189.7980  172.7180  144.7280 C   0  0  0  0  0  3  0  0  0  0  0  0
  189.7730  171.8840  143.5790 N   0  0  0  0  0  0  0  0  0  0  0  0
  189.7480  172.0780  141.1530 C   0  0  0  0  0  2  0  0  0  0  0  0
  188.7470  172.7510  140.3430 N   0  0  0  0  0  1  0  0  0  0  0  0
  187.5660  177.9460  146.3640 N   0  0  0  0  0  2  0  0  0  0  0  0
  186.3680  177.7420  147.1240 C   0  0  0  0  0  0  0  0  0  0  0  0
  186.1950  176.6950  147.8040 O   0  0  0  0  0  0  0  0  0  0  0  0
  185.3120  178.7930  147.1130 C   0  0  0  0  0  2  0  0  0  0  0  0
  184.1750  178.4230  146.1650 C   0  0  0  0  0  2  0  0  0  0  0  0
  185.4010  179.7810  144.6660 F   0  0  0  0  0  0  0  0  0  0  0  0
  185.0680  177.6320  144.0950 F   0  0  0  0  0  0  0  0  0  0  0  0
  183.3530  179.1010  144.0290 F   0  0  0  0  0  0  0  0  0  0  0  0
  184.5020  178.7340  144.7090 C   0  0  0  0  0  0  0  0  0  0  0  0
  192.0780  174.5570  146.1600 O   0  0  0  0  0  0  0  0  0  0  0  0
  193.3190  175.0670  146.1770 O   0  0  0  0  0  0  0  0  0  0  0  0
  193.5870  175.3770  144.8850 N   0  0  0  0  0  1  0  0  0  0  0  0
  1 15  1  0  0  0  0
  1  6  1  0  0  0  0
  2  6  2  0  0  0  0
  3  5  1  0  0  0  0
  3  4  2  0  0  0  0
  4  2  1  0  0  0  0
  5  1  2  0  0  0  0
  7 11  2  0  0  0  0
  7  3  1  0  0  0  0
  9 10  1  0  0  0  0
  9 12  2  0  0  0  0
 10  8  1  1  0  0  0
 10  7  1  0  0  0  0
 12 11  1  0  0  0  0
 13  9  1  0  0  0  0
 14 13  1  0  0  0  0
 15 16  1  0  0  0  0
 16 17  2  0  0  0  0
 18 16  1  0  0  0  0
 19 18  1  0  0  0  0
 20 23  1  0  0  0  0
 21 23  1  0  0  0  0
 22 23  1  0  0  0  0
 23 19  1  0  0  0  0
 24 25  1  0  0  0  0
 24  4  1  0  0  0  0
 26 25  1  0  0  0  0
M  END
>  <MODEL>
3

>  <REMARK>
 VINA RESULT:      -6.4      4.487      7.245
  Name = 
  8 active torsions:
  status: ('A' for Active; 'I' for Inactive)
    1  A    between atoms: C_1  and  C_7
    2  A    between atoms: C_2  and  C_15
    3  A    between atoms: C_5  and  N_10
    4  A    between atoms: O_8  and  C_16
    5  A    between atoms: O_8  and  O_22
    6  A    between atoms: C_9  and  C_11
    7  A    between atoms: C_9  and  C_25
    8  A    between atoms: C_11  and  C_13
                            x       y       z     vdW  Elec       q    Type
                         _______ _______ _______ _____ _____    ______ ____

>  <TORSDO>
F 8

$$$$
=
 OpenBabel11072408343D

 26 27  0  0  1  0  0  0  0  0999 V2000
  187.7450  176.0990  143.6010 C   0  0  0  0  0  0  0  0  0  0  0  0
  188.1190  174.4150  141.9040 C   0  0  0  0  0  3  0  0  0  0  0  0
  189.8890  174.9250  143.4940 C   0  0  0  0  0  0  0  0  0  0  0  0
  189.4130  174.1810  142.3910 C   0  0  0  0  0  0  0  0  0  0  0  0
  189.0390  175.8730  144.0880 C   0  0  0  0  0  3  0  0  0  0  0  0
  187.2940  175.3660  142.5020 C   0  0  0  0  0  3  0  0  0  0  0  0
  191.2510  174.7360  144.0520 C   0  0  0  0  0  0  0  0  0  0  0  0
  192.5270  176.7250  143.5810 N   0  0  0  0  0  1  0  0  0  0  0  0
  193.4930  174.7110  144.4860 C   0  0  0  0  0  0  0  0  0  0  0  0
  192.5280  175.2740  143.4900 C   0  0  1  0  0  3  0  0  0  0  0  0
  191.5150  174.0490  145.1580 C   0  0  0  0  0  3  0  0  0  0  0  0
  192.9110  174.0360  145.4180 N   0  0  0  0  0  0  0  0  0  0  0  0
  194.9820  174.8670  144.4470 C   0  0  0  0  0  2  0  0  0  0  0  0
  195.5450  174.8660  145.7870 N   0  0  0  0  0  1  0  0  0  0  0  0
  186.8690  177.0680  144.1910 N   0  0  0  0  0  2  0  0  0  0  0  0
  186.4870  178.3310  143.6310 C   0  0  0  0  0  0  0  0  0  0  0  0
  186.9430  178.7190  142.5220 O   0  0  0  0  0  0  0  0  0  0  0  0
  185.5270  179.1950  144.3740 C   0  0  0  0  0  2  0  0  0  0  0  0
  185.6830  179.0230  145.8820 C   0  0  0  0  0  2  0  0  0  0  0  0
  184.4760  178.6320  147.8790 F   0  0  0  0  0  0  0  0  0  0  0  0
  183.3010  178.8540  145.9750 F   0  0  0  0  0  0  0  0  0  0  0  0
  184.5220  176.9890  146.3420 F   0  0  0  0  0  0  0  0  0  0  0  0
  184.4690  178.3600  146.5250 C   0  0  0  0  0  0  0  0  0  0  0  0
  190.2160  173.2080  141.7860 O   0  0  0  0  0  0  0  0  0  0  0  0
  189.7530  171.9800  141.5020 O   0  0  0  0  0  0  0  0  0  0  0  0
  190.1440  171.2110  142.5470 N   0  0  0  0  0  1  0  0  0  0  0  0
  1  5  1  0  0  0  0
  1 15  1  0  0  0  0
  2  4  2  0  0  0  0
  2  6  1  0  0  0  0
  3  7  1  0  0  0  0
  3  5  2  0  0  0  0
  4  3  1  0  0  0  0
  6  1  2  0  0  0  0
  7 11  2  0  0  0  0
  9 12  2  0  0  0  0
 10  8  1  1  0  0  0
 10  7  1  0  0  0  0
 10  9  1  0  0  0  0
 11 12  1  0  0  0  0
 13  9  1  0  0  0  0
 13 14  1  0  0  0  0
 16 15  1  0  0  0  0
 16 18  1  0  0  0  0
 17 16  2  0  0  0  0
 18 19  1  0  0  0  0
 19 23  1  0  0  0  0
 21 23  1  0  0  0  0
 22 23  1  0  0  0  0
 23 20  1  0  0  0  0
 24  4  1  0  0  0  0
 25 24  1  0  0  0  0
 25 26  1  0  0  0  0
M  END
>  <MODEL>
4

>  <REMARK>
 VINA RESULT:      -6.3      4.381      8.110
  Name = 
  8 active torsions:
  status: ('A' for Active; 'I' for Inactive)
    1  A    between atoms: C_1  and  C_7
    2  A    between atoms: C_2  and  C_15
    3  A    between atoms: C_5  and  N_10
    4  A    between atoms: O_8  and  C_16
    5  A    between atoms: O_8  and  O_22
    6  A    between atoms: C_9  and  C_11
    7  A    between atoms: C_9  and  C_25
    8  A    between atoms: C_11  and  C_13
                            x       y       z     vdW  Elec       q    Type
                         _______ _______ _______ _____ _____    ______ ____

>  <TORSDO>
F 8

$$$$
=
 OpenBabel11072408343D

 26 27  0  0  1  0  0  0  0  0999 V2000
  189.4250  176.3320  145.4010 C   0  0  0  0  0  0  0  0  0  0  0  0
  190.0640  174.0000  145.4990 C   0  0  0  0  0  3  0  0  0  0  0  0
  191.7660  175.6910  145.0940 C   0  0  0  0  0  0  0  0  0  0  0  0
  191.4060  174.3360  145.2720 C   0  0  0  0  0  0  0  0  0  0  0  0
  190.7640  176.6720  145.1690 C   0  0  0  0  0  3  0  0  0  0  0  0
  189.0830  174.9880  145.5610 C   0  0  0  0  0  3  0  0  0  0  0  0
  193.1660  176.1150  144.8400 C   0  0  0  0  0  0  0  0  0  0  0  0
  193.4620  176.2970  142.4560 N   0  0  0  0  0  1  0  0  0  0  0  0
  195.2760  176.4520  144.0340 C   0  0  0  0  0  0  0  0  0  0  0  0
  194.0170  175.7290  143.6730 C   0  0  1  0  0  3  0  0  0  0  0  0
  193.8580  176.9210  145.6370 C   0  0  0  0  0  3  0  0  0  0  0  0
  195.1690  177.1220  145.1310 N   0  0  0  0  0  0  0  0  0  0  0  0
  196.5550  176.4250  143.2560 C   0  0  0  0  0  2  0  0  0  0  0  0
  197.1560  175.1020  143.2790 N   0  0  0  0  0  1  0  0  0  0  0  0
  188.3900  177.3210  145.4720 N   0  0  0  0  0  2  0  0  0  0  0  0
  187.4110  177.6100  144.4660 C   0  0  0  0  0  0  0  0  0  0  0  0
  187.4050  176.9970  143.3640 O   0  0  0  0  0  0  0  0  0  0  0  0
  186.3790  178.6510  144.7330 C   0  0  0  0  0  2  0  0  0  0  0  0
  185.9920  178.6780  146.2090 C   0  0  0  0  0  2  0  0  0  0  0  0
  184.1770  178.4800  147.7120 F   0  0  0  0  0  0  0  0  0  0  0  0
  183.7110  178.5250  145.5140 F   0  0  0  0  0  0  0  0  0  0  0  0
  184.6760  176.6990  146.4310 F   0  0  0  0  0  0  0  0  0  0  0  0
  184.6120  178.0820  146.4640 C   0  0  0  0  0  0  0  0  0  0  0  0
  192.3770  173.3290  145.2330 O   0  0  0  0  0  0  0  0  0  0  0  0
  192.1670  172.1640  144.6010 O   0  0  0  0  0  0  0  0  0  0  0  0
  193.3630  171.5270  144.6360 N   0  0  0  0  0  1  0  0  0  0  0  0
  1 15  1  0  0  0  0
  1  6  1  0  0  0  0
  2  6  2  0  0  0  0
  3  5  1  0  0  0  0
  3  4  2  0  0  0  0
  4  2  1  0  0  0  0
  5  1  2  0  0  0  0
  7  3  1  0  0  0  0
  7 11  2  0  0  0  0
  9 12  2  0  0  0  0
 10  8  1  6  0  0  0
 10  9  1  0  0  0  0
 10  7  1  0  0  0  0
 12 11  1  0  0  0  0
 13 14  1  0  0  0  0
 13  9  1  0  0  0  0
 16 18  1  0  0  0  0
 16 15  1  0  0  0  0
 17 16  2  0  0  0  0
 18 19  1  0  0  0  0
 19 23  1  0  0  0  0
 21 23  1  0  0  0  0
 22 23  1  0  0  0  0
 23 20  1  0  0  0  0
 24  4  1  0  0  0  0
 25 26  1  0  0  0  0
 25 24  1  0  0  0  0
M  END
>  <MODEL>
5

>  <REMARK>
 VINA RESULT:      -6.3      4.493      8.399
  Name = 
  8 active torsions:
  status: ('A' for Active; 'I' for Inactive)
    1  A    between atoms: C_1  and  C_7
    2  A    between atoms: C_2  and  C_15
    3  A    between atoms: C_5  and  N_10
    4  A    between atoms: O_8  and  C_16
    5  A    between atoms: O_8  and  O_22
    6  A    between atoms: C_9  and  C_11
    7  A    between atoms: C_9  and  C_25
    8  A    between atoms: C_11  and  C_13
                            x       y       z     vdW  Elec       q    Type
                         _______ _______ _______ _____ _____    ______ ____

>  <TORSDO>
F 8

$$$$
=
 OpenBabel11072408343D

 26 27  0  0  1  0  0  0  0  0999 V2000
  188.9270  177.2410  144.2400 C   0  0  0  0  0  0  0  0  0  0  0  0
  191.3440  177.3580  144.2180 C   0  0  0  0  0  3  0  0  0  0  0  0
  190.2310  175.4100  143.2770 C   0  0  0  0  0  0  0  0  0  0  0  0
  191.4190  176.1110  143.5810 C   0  0  0  0  0  0  0  0  0  0  0  0
  188.9970  175.9930  143.6080 C   0  0  0  0  0  3  0  0  0  0  0  0
  190.1090  177.9160  144.5460 C   0  0  0  0  0  3  0  0  0  0  0  0
  190.2400  174.0820  142.6130 C   0  0  0  0  0  0  0  0  0  0  0  0
  189.6300  172.4290  144.2570 N   0  0  0  0  0  1  0  0  0  0  0  0
  190.4360  171.8760  142.0540 C   0  0  0  0  0  0  0  0  0  0  0  0
  190.6080  172.7740  143.2390 C   0  0  1  0  0  3  0  0  0  0  0  0
  189.9050  173.8800  141.3440 C   0  0  0  0  0  3  0  0  0  0  0  0
  190.0330  172.5070  141.0040 N   0  0  0  0  0  0  0  0  0  0  0  0
  190.7010  170.4030  142.0270 C   0  0  0  0  0  2  0  0  0  0  0  0
  190.8090  169.9130  140.6630 N   0  0  0  0  0  1  0  0  0  0  0  0
  187.6750  177.8460  144.5920 N   0  0  0  0  0  2  0  0  0  0  0  0
  186.7490  178.4780  143.6990 C   0  0  0  0  0  0  0  0  0  0  0  0
  186.9950  178.5810  142.4670 O   0  0  0  0  0  0  0  0  0  0  0  0
  185.4700  179.0180  144.2410 C   0  0  0  0  0  2  0  0  0  0  0  0
  185.5350  179.1730  145.7570 C   0  0  0  0  0  2  0  0  0  0  0  0
  183.2070  178.8450  146.0240 F   0  0  0  0  0  0  0  0  0  0  0  0
  184.5430  177.0450  146.2040 F   0  0  0  0  0  0  0  0  0  0  0  0
  184.5150  178.6040  147.8390 F   0  0  0  0  0  0  0  0  0  0  0  0
  184.4340  178.3970  146.4730 C   0  0  0  0  0  0  0  0  0  0  0  0
  192.6690  175.5790  143.2430 O   0  0  0  0  0  0  0  0  0  0  0  0
  193.5840  175.2700  144.1740 O   0  0  0  0  0  0  0  0  0  0  0  0
  194.6770  176.0010  143.8460 N   0  0  0  0  0  1  0  0  0  0  0  0
  1  6  1  0  0  0  0
  1 15  1  0  0  0  0
  2  6  2  0  0  0  0
  3  4  2  0  0  0  0
  3  5  1  0  0  0  0
  4  2  1  0  0  0  0
  5  1  2  0  0  0  0
  7 10  1  0  0  0  0
  7  3  1  0  0  0  0
  9 10  1  0  0  0  0
 10  8  1  1  0  0  0
 11  7  2  0  0  0  0
 12 11  1  0  0  0  0
 12  9  2  0  0  0  0
 13  9  1  0  0  0  0
 14 13  1  0  0  0  0
 16 18  1  0  0  0  0
 16 15  1  0  0  0  0
 17 16  2  0  0  0  0
 18 19  1  0  0  0  0
 19 23  1  0  0  0  0
 20 23  1  0  0  0  0
 21 23  1  0  0  0  0
 23 22  1  0  0  0  0
 24  4  1  0  0  0  0
 24 25  1  0  0  0  0
 26 25  1  0  0  0  0
M  END
>  <MODEL>
6

>  <REMARK>
 VINA RESULT:      -6.2      4.787      7.741
  Name = 
  8 active torsions:
  status: ('A' for Active; 'I' for Inactive)
    1  A    between atoms: C_1  and  C_7
    2  A    between atoms: C_2  and  C_15
    3  A    between atoms: C_5  and  N_10
    4  A    between atoms: O_8  and  C_16
    5  A    between atoms: O_8  and  O_22
    6  A    between atoms: C_9  and  C_11
    7  A    between atoms: C_9  and  C_25
    8  A    between atoms: C_11  and  C_13
                            x       y       z     vdW  Elec       q    Type
                         _______ _______ _______ _____ _____    ______ ____

>  <TORSDO>
F 8

$$$$
=
 OpenBabel11072408343D

 26 27  0  0  1  0  0  0  0  0999 V2000
  187.6990  175.5880  142.9440 C   0  0  0  0  0  0  0  0  0  0  0  0
  188.9380  173.7240  142.0250 C   0  0  0  0  0  3  0  0  0  0  0  0
  189.8620  174.9660  143.9020 C   0  0  0  0  0  0  0  0  0  0  0  0
  189.9620  173.9150  142.9640 C   0  0  0  0  0  0  0  0  0  0  0  0
  188.7220  175.7860  143.8810 C   0  0  0  0  0  3  0  0  0  0  0  0
  187.8180  174.5540  142.0150 C   0  0  0  0  0  3  0  0  0  0  0  0
  190.9150  175.2300  144.9150 C   0  0  0  0  0  0  0  0  0  0  0  0
  192.0580  177.2550  144.2840 N   0  0  0  0  0  1  0  0  0  0  0  0
  192.8050  175.8080  146.0610 C   0  0  0  0  0  0  0  0  0  0  0  0
  192.2460  175.8670  144.6740 C   0  0  1  0  0  3  0  0  0  0  0  0
  190.8010  174.9310  146.2040 C   0  0  0  0  0  3  0  0  0  0  0  0
  191.9820  175.2900  146.9080 N   0  0  0  0  0  0  0  0  0  0  0  0
  194.1670  176.2680  146.4760 C   0  0  0  0  0  2  0  0  0  0  0  0
  195.1620  175.9410  145.4690 N   0  0  0  0  0  1  0  0  0  0  0  0
  186.5330  176.4210  142.9050 N   0  0  0  0  0  2  0  0  0  0  0  0
  186.4360  177.7300  142.3280 C   0  0  0  0  0  0  0  0  0  0  0  0
  187.4360  178.2920  141.8060 O   0  0  0  0  0  0  0  0  0  0  0  0
  185.1230  178.4350  142.3430 C   0  0  0  0  0  2  0  0  0  0  0  0
  184.4380  178.2980  143.7000 C   0  0  0  0  0  2  0  0  0  0  0  0
  184.1100  179.4160  145.7580 F   0  0  0  0  0  0  0  0  0  0  0  0
  186.1750  178.6540  145.3010 F   0  0  0  0  0  0  0  0  0  0  0  0
  185.3570  180.4450  144.1930 F   0  0  0  0  0  0  0  0  0  0  0  0
  185.0380  179.2210  144.7550 C   0  0  0  0  0  0  0  0  0  0  0  0
  191.0680  173.0570  142.9670 O   0  0  0  0  0  0  0  0  0  0  0  0
  191.1140  171.9590  143.7390 O   0  0  0  0  0  0  0  0  0  0  0  0
  192.3540  171.9680  144.2840 N   0  0  0  0  0  1  0  0  0  0  0  0
  1  5  1  0  0  0  0
  2  4  2  0  0  0  0
  3  7  1  0  0  0  0
  4 24  1  0  0  0  0
  4  3  1  0  0  0  0
  5  3  2  0  0  0  0
  6  2  1  0  0  0  0
  6  1  2  0  0  0  0
  7 11  2  0  0  0  0
  9 13  1  0  0  0  0
  9 12  2  0  0  0  0
 10  8  1  1  0  0  0
 10  7  1  0  0  0  0
 10  9  1  0  0  0  0
 11 12  1  0  0  0  0
 14 13  1  0  0  0  0
 15  1  1  0  0  0  0
 16 18  1  0  0  0  0
 16 15  1  0  0  0  0
 17 16  2  0  0  0  0
 18 19  1  0  0  0  0
 19 23  1  0  0  0  0
 22 23  1  0  0  0  0
 23 21  1  0  0  0  0
 23 20  1  0  0  0  0
 24 25  1  0  0  0  0
 25 26  1  0  0  0  0
M  END
>  <MODEL>
7

>  <REMARK>
 VINA RESULT:      -6.2      3.934      8.067
  Name = 
  8 active torsions:
  status: ('A' for Active; 'I' for Inactive)
    1  A    between atoms: C_1  and  C_7
    2  A    between atoms: C_2  and  C_15
    3  A    between atoms: C_5  and  N_10
    4  A    between atoms: O_8  and  C_16
    5  A    between atoms: O_8  and  O_22
    6  A    between atoms: C_9  and  C_11
    7  A    between atoms: C_9  and  C_25
    8  A    between atoms: C_11  and  C_13
                            x       y       z     vdW  Elec       q    Type
                         _______ _______ _______ _____ _____    ______ ____

>  <TORSDO>
F 8

$$$$
=
 OpenBabel11072408343D

 26 27  0  0  1  0  0  0  0  0999 V2000
  189.7850  175.2100  146.8240 C   0  0  0  0  0  0  0  0  0  0  0  0
  192.1590  175.3470  147.2730 C   0  0  0  0  0  3  0  0  0  0  0  0
  191.3820  174.1690  145.2900 C   0  0  0  0  0  0  0  0  0  0  0  0
  192.4430  174.6200  146.1080 C   0  0  0  0  0  0  0  0  0  0  0  0
  190.0630  174.4800  145.6620 C   0  0  0  0  0  3  0  0  0  0  0  0
  190.8430  175.6370  147.6280 C   0  0  0  0  0  3  0  0  0  0  0  0
  191.6120  173.3870  144.0500 C   0  0  0  0  0  0  0  0  0  0  0  0
  192.7780  174.8030  142.4880 N   0  0  0  0  0  1  0  0  0  0  0  0
  191.8800  172.6430  141.9070 C   0  0  0  0  0  0  0  0  0  0  0  0
  191.6370  173.9180  142.6520 C   0  0  1  0  0  3  0  0  0  0  0  0
  191.8380  172.0780  144.0240 C   0  0  0  0  0  3  0  0  0  0  0  0
  192.0000  171.6240  142.6890 N   0  0  0  0  0  0  0  0  0  0  0  0
  191.9700  172.5020  140.4200 C   0  0  0  0  0  2  0  0  0  0  0  0
  190.9010  173.2310  139.7580 N   0  0  0  0  0  1  0  0  0  0  0  0
  188.4450  175.5270  147.2200 N   0  0  0  0  0  2  0  0  0  0  0  0
  187.6620  176.6430  146.7750 C   0  0  0  0  0  0  0  0  0  0  0  0
  188.1330  177.4950  145.9750 O   0  0  0  0  0  0  0  0  0  0  0  0
  186.2620  176.7900  147.2650 C   0  0  0  0  0  2  0  0  0  0  0  0
  185.3400  177.2930  146.1580 C   0  0  0  0  0  2  0  0  0  0  0  0
  185.3020  179.1760  147.5890 F   0  0  0  0  0  0  0  0  0  0  0  0
  185.7530  179.5260  145.4150 F   0  0  0  0  0  0  0  0  0  0  0  0
  183.6580  178.9830  146.0650 F   0  0  0  0  0  0  0  0  0  0  0  0
  185.0050  178.7730  146.3020 C   0  0  0  0  0  0  0  0  0  0  0  0
  193.7730  174.3570  145.7610 O   0  0  0  0  0  0  0  0  0  0  0  0
  194.7790  175.1590  146.1430 O   0  0  0  0  0  0  0  0  0  0  0  0
  195.1150  175.8520  145.0270 N   0  0  0  0  0  1  0  0  0  0  0  0
  1 15  1  0  0  0  0
  1  6  1  0  0  0  0
  2  6  2  0  0  0  0
  3  5  1  0  0  0  0
  3  4  2  0  0  0  0
  4  2  1  0  0  0  0
  5  1  2  0  0  0  0
  7  3  1  0  0  0  0
  9 10  1  0  0  0  0
  9 12  2  0  0  0  0
 10  8  1  1  0  0  0
 10  7  1  0  0  0  0
 11  7  2  0  0  0  0
 12 11  1  0  0  0  0
 13  9  1  0  0  0  0
 14 13  1  0  0  0  0
 16 15  1  0  0  0  0
 16 18  1  0  0  0  0
 17 16  2  0  0  0  0
 19 23  1  0  0  0  0
 19 18  1  0  0  0  0
 21 23  1  0  0  0  0
 22 23  1  0  0  0  0
 23 20  1  0  0  0  0
 24  4  1  0  0  0  0
 24 25  1  0  0  0  0
 26 25  1  0  0  0  0
M  END
>  <MODEL>
8

>  <REMARK>
 VINA RESULT:      -6.2      4.908      7.715
  Name = 
  8 active torsions:
  status: ('A' for Active; 'I' for Inactive)
    1  A    between atoms: C_1  and  C_7
    2  A    between atoms: C_2  and  C_15
    3  A    between atoms: C_5  and  N_10
    4  A    between atoms: O_8  and  C_16
    5  A    between atoms: O_8  and  O_22
    6  A    between atoms: C_9  and  C_11
    7  A    between atoms: C_9  and  C_25
    8  A    between atoms: C_11  and  C_13
                            x       y       z     vdW  Elec       q    Type
                         _______ _______ _______ _____ _____    ______ ____

>  <TORSDO>
F 8

$$$$
=
 OpenBabel11072408343D

 26 27  0  0  1  0  0  0  0  0999 V2000
  188.9110  176.7780  144.9410 C   0  0  0  0  0  0  0  0  0  0  0  0
  191.2120  176.3650  145.5690 C   0  0  0  0  0  3  0  0  0  0  0  0
  190.1100  174.8630  144.0030 C   0  0  0  0  0  0  0  0  0  0  0  0
  191.2580  175.2360  144.7380 C   0  0  0  0  0  0  0  0  0  0  0  0
  188.9510  175.6490  144.1130 C   0  0  0  0  0  3  0  0  0  0  0  0
  190.0490  177.1260  145.6710 C   0  0  0  0  0  3  0  0  0  0  0  0
  190.0880  173.6750  143.1130 C   0  0  0  0  0  0  0  0  0  0  0  0
  191.6240  174.0790  141.3010 N   0  0  0  0  0  1  0  0  0  0  0  0
  190.1120  172.2030  141.3670 C   0  0  0  0  0  0  0  0  0  0  0  0
  190.2680  173.6680  141.6290 C   0  0  1  0  0  3  0  0  0  0  0  0
  189.9060  172.4290  143.5370 C   0  0  0  0  0  3  0  0  0  0  0  0
  189.9190  171.5210  142.4450 N   0  0  0  0  0  0  0  0  0  0  0  0
  190.1500  171.5460  140.0220 C   0  0  0  0  0  2  0  0  0  0  0  0
  189.0870  172.0420  139.1650 N   0  0  0  0  0  1  0  0  0  0  0  0
  187.7330  177.5850  145.0700 N   0  0  0  0  0  2  0  0  0  0  0  0
  187.0580  178.2880  144.0190 C   0  0  0  0  0  0  0  0  0  0  0  0
  187.4930  178.2720  142.8360 O   0  0  0  0  0  0  0  0  0  0  0  0
  185.8160  179.0480  144.3340 C   0  0  0  0  0  2  0  0  0  0  0  0
  185.6470  179.2290  145.8400 C   0  0  0  0  0  2  0  0  0  0  0  0
  183.3140  178.8470  145.7620 F   0  0  0  0  0  0  0  0  0  0  0  0
  184.6480  177.0840  146.1710 F   0  0  0  0  0  0  0  0  0  0  0  0
  184.3410  178.6650  147.7560 F   0  0  0  0  0  0  0  0  0  0  0  0
  184.4700  178.4370  146.3970 C   0  0  0  0  0  0  0  0  0  0  0  0
  192.4420  174.4980  144.6360 O   0  0  0  0  0  0  0  0  0  0  0  0
  192.9870  173.8790  145.6950 O   0  0  0  0  0  0  0  0  0  0  0  0
  194.2260  173.5130  145.2860 N   0  0  0  0  0  1  0  0  0  0  0  0
  1 15  1  0  0  0  0
  1  6  1  0  0  0  0
  2  6  2  0  0  0  0
  3  5  1  0  0  0  0
  3  4  2  0  0  0  0
  4  2  1  0  0  0  0
  5  1  2  0  0  0  0
  7 11  2  0  0  0  0
  7  3  1  0  0  0  0
  9 10  1  0  0  0  0
  9 12  2  0  0  0  0
 10  8  1  1  0  0  0
 10  7  1  0  0  0  0
 12 11  1  0  0  0  0
 13  9  1  0  0  0  0
 14 13  1  0  0  0  0
 16 18  1  0  0  0  0
 16 15  1  0  0  0  0
 17 16  2  0  0  0  0
 18 19  1  0  0  0  0
 19 23  1  0  0  0  0
 20 23  1  0  0  0  0
 21 23  1  0  0  0  0
 23 22  1  0  0  0  0
 24  4  1  0  0  0  0
 24 25  1  0  0  0  0
 26 25  1  0  0  0  0
M  END
>  <MODEL>
9

>  <REMARK>
 VINA RESULT:      -6.1      4.644      7.448
  Name = 
  8 active torsions:
  status: ('A' for Active; 'I' for Inactive)
    1  A    between atoms: C_1  and  C_7
    2  A    between atoms: C_2  and  C_15
    3  A    between atoms: C_5  and  N_10
    4  A    between atoms: O_8  and  C_16
    5  A    between atoms: O_8  and  O_22
    6  A    between atoms: C_9  and  C_11
    7  A    between atoms: C_9  and  C_25
    8  A    between atoms: C_11  and  C_13
                            x       y       z     vdW  Elec       q    Type
                         _______ _______ _______ _____ _____    ______ ____

>  <TORSDO>
F 8

$$$$
