=
 OpenBabel11062419303D

 40 44  0  0  1  0  0  0  0  0999 V2000
  187.5570  177.0000  146.1600 C   0  0  2  0  0  3  0  0  0  0  0  0
  187.5180  176.9740  141.0410 C   0  0  0  0  0  2  0  0  0  0  0  0
  189.4230  173.6360  142.7890 S   0  0  0  0  0  0  0  0  0  0  0  0
  194.4610  173.8620  143.5610 O   0  0  0  0  0  0  0  0  0  0  0  0
  187.7650  178.0810  141.8040 O   0  0  0  0  0  0  0  0  0  0  0  0
  192.6630  173.6410  145.1230 C   0  0  0  0  0  2  0  0  0  0  0  0
  190.5630  176.2090  146.3520 C   0  0  2  0  0  3  0  0  0  0  0  0
  186.8550  176.8770  144.8210 C   0  0  0  0  0  2  0  0  0  0  0  0
  191.8400  171.5060  142.6850 C   0  0  1  0  0  3  0  0  0  0  0  0
  193.1430  173.4510  143.6960 C   0  0  2  0  0  3  0  0  0  0  0  0
  193.1450  171.9990  143.3420 C   0  0  2  0  0  3  0  0  0  0  0  0
  187.0500  177.0460  142.4790 C   0  0  2  0  0  0  0  0  0  0  0  0
  191.6820  175.2980  146.6710 C   0  0  2  0  0  3  0  0  0  0  0  0
  191.6960  176.6510  147.0560 O   0  0  0  0  0  0  0  0  0  0  0  0
  189.1570  175.4120  142.5490 C   0  0  0  0  0  2  0  0  0  0  0  0
  194.2630  171.7840  142.5380 O   0  0  0  0  0  0  0  0  0  0  0  0
  191.3860  172.2250  141.3860 C   0  0  1  0  0  0  0  0  0  0  0  0
  187.7260  175.7740  142.9750 C   0  0  1  0  0  3  0  0  0  0  0  0
  189.4700  175.9850  147.2830 N   0  0  0  0  0  2  0  0  0  0  0  0
  191.9000  169.9940  142.5190 C   0  0  0  0  0  1  0  0  0  0  0  0
  190.3240  171.5110  140.8120 O   0  0  0  0  0  1  0  0  0  0  0  0
  188.2890  175.7060  146.4810 C   0  0  0  0  0  2  0  0  0  0  0  0
  194.9990  172.9830  142.6060 C   0  0  0  0  0  2  0  0  0  0  0  0
  192.5300  175.1200  145.4310 C   0  0  0  0  0  2  0  0  0  0  0  0
  187.8280  176.9790  143.7460 N   0  0  2  0  0  0  0  0  0  0  0  0
  190.8960  173.6440  141.7130 C   0  0  0  0  0  2  0  0  0  0  0  0
  186.3310  177.3450  147.4560 S   0  0  0  0  0  0  0  0  0  0  0  0
  184.1030  178.4380  146.4610 N   0  0  0  0  0  2  0  0  0  0  0  0
  185.0110  177.5570  146.2640 C   0  0  0  0  0  3  0  0  0  0  0  0
  192.5050  172.2840  140.4370 N   0  0  0  0  0  2  0  0  0  0  0  0
  193.6130  174.1860  139.3250 C   0  0  0  0  0  1  0  0  0  0  0  0
  192.3290  173.3790  139.4770 C   0  0  1  0  0  3  0  0  0  0  0  0
  191.8140  172.9280  138.2390 O   0  0  0  0  0  0  0  0  0  0  0  0
  190.9240  173.8890  137.7220 C   0  0  2  0  0  3  0  0  0  0  0  0
  189.0210  172.4770  137.4760 O   0  0  0  0  0  0  0  0  0  0  0  0
  189.5180  173.4940  138.0260 C   0  0  0  0  0  0  0  0  0  0  0  0
  188.7590  174.2320  138.9270 O   0  0  0  0  0  1  0  0  0  0  0  0
  191.1010  174.0010  136.2170 C   0  0  0  0  0  2  0  0  0  0  0  0
  191.0610  175.3400  135.8290 O   0  0  0  0  0  0  0  0  0  0  0  0
  192.3600  175.8010  136.0280 C   0  0  0  0  0  1  0  0  0  0  0  0
  1 22  1  0  0  0  0
  1 27  1  1  0  0  0
  2  5  1  0  0  0  0
  4 10  1  0  0  0  0
  5 12  1  0  0  0  0
  6 24  1  0  0  0  0
  7 13  1  0  0  0  0
  7 14  1  1  0  0  0
  7 19  1  0  0  0  0
  8  1  1  0  0  0  0
  9 20  1  6  0  0  0
  9 11  1  0  0  0  0
 10  6  1  1  0  0  0
 11 16  1  6  0  0  0
 11 10  1  0  0  0  0
 12  2  1  1  0  0  0
 12 18  1  0  0  0  0
 12 25  1  0  0  0  0
 13 24  1  6  0  0  0
 13 14  1  0  0  0  0
 15  3  1  0  0  0  0
 16 23  1  0  0  0  0
 17 21  1  6  0  0  0
 17 26  1  0  0  0  0
 17  9  1  0  0  0  0
 18 15  1  6  0  0  0
 18 25  1  0  0  0  0
 22 19  1  0  0  0  0
 23  4  1  0  0  0  0
 25  8  1  1  0  0  0
 26  3  1  0  0  0  0
 29 28  2  0  0  0  0
 29 27  1  0  0  0  0
 30 17  1  0  0  0  0
 32 31  1  6  0  0  0
 32 30  1  0  0  0  0
 33 32  1  0  0  0  0
 34 38  1  6  0  0  0
 34 36  1  0  0  0  0
 34 33  1  0  0  0  0
 35 36  2  0  0  0  0
 36 37  1  0  0  0  0
 39 40  1  0  0  0  0
 39 38  1  0  0  0  0
M  END
>  <MODEL>
1

>  <REMARK>
 VINA RESULT:      -6.1      0.000      0.000
  Name = 
  9 active torsions:
  status: ('A' for Active; 'I' for Inactive)
    1  A    between atoms: C_1  and  S_5
    2  A    between atoms: O_2  and  C_17
    3  A    between atoms: S_5  and  C_35
    4  A    between atoms: C_6  and  C_17
    5  A    between atoms: C_6  and  C_21
    6  A    between atoms: C_6  and  O_27
    7  A    between atoms: C_19  and  O_27
    8  A    between atoms: C_19  and  N_32
    9  A    between atoms: C_28  and  N_32
                            x       y       z     vdW  Elec       q    Type
                         _______ _______ _______ _____ _____    ______ ____

>  <TORSDO>
F 9

$$$$
=
 OpenBabel11062419303D

 40 44  0  0  1  0  0  0  0  0999 V2000
  195.4330  171.3780  141.2520 C   0  0  2  0  0  3  0  0  0  0  0  0
  190.4770  171.1910  139.9800 C   0  0  0  0  0  2  0  0  0  0  0  0
  191.6420  174.7410  141.9450 S   0  0  0  0  0  0  0  0  0  0  0  0
  191.1680  174.9580  147.0200 O   0  0  0  0  0  0  0  0  0  0  0  0
  191.1800  170.1390  140.5010 O   0  0  0  0  0  0  0  0  0  0  0  0
  193.1160  175.0960  145.6400 C   0  0  0  0  0  2  0  0  0  0  0  0
  194.8710  172.4180  144.1340 C   0  0  2  0  0  3  0  0  0  0  0  0
  194.3030  171.3890  140.2410 C   0  0  0  0  0  2  0  0  0  0  0  0
  190.9100  177.0550  144.0660 C   0  0  1  0  0  3  0  0  0  0  0  0
  191.6120  175.2650  145.7420 C   0  0  2  0  0  3  0  0  0  0  0  0
  191.2380  176.6970  145.5300 C   0  0  2  0  0  3  0  0  0  0  0  0
  191.9870  171.1400  139.8800 C   0  0  2  0  0  0  0  0  0  0  0  0
  194.8890  173.4290  145.2110 C   0  0  2  0  0  3  0  0  0  0  0  0
  195.2870  172.1000  145.4380 O   0  0  0  0  0  0  0  0  0  0  0  0
  191.5100  172.9410  141.7880 C   0  0  0  0  0  2  0  0  0  0  0  0
  190.1820  176.9690  146.3970 O   0  0  0  0  0  0  0  0  0  0  0  0
  189.7750  176.2490  143.3790 C   0  0  1  0  0  0  0  0  0  0  0  0
  192.2780  172.4820  140.5400 C   0  0  1  0  0  3  0  0  0  0  0  0
  196.0350  172.5900  143.2810 N   0  0  0  0  0  2  0  0  0  0  0  0
  190.7030  178.5590  143.9500 C   0  0  0  0  0  1  0  0  0  0  0  0
  189.4620  176.8500  142.1510 O   0  0  0  0  0  1  0  0  0  0  0  0
  195.5400  172.7390  141.9220 C   0  0  0  0  0  2  0  0  0  0  0  0
  190.0930  175.8380  147.2320 C   0  0  0  0  0  2  0  0  0  0  0  0
  193.4770  173.6250  145.7160 C   0  0  0  0  0  2  0  0  0  0  0  0
  193.0250  171.3220  140.9310 N   0  0  2  0  0  0  0  0  0  0  0  0
  190.2400  174.8100  143.1100 C   0  0  0  0  0  2  0  0  0  0  0  0
  196.9940  170.9880  140.4110 S   0  0  0  0  0  0  0  0  0  0  0  0
  197.2860  172.8680  138.5320 N   0  0  0  0  0  2  0  0  0  0  0  0
  197.1710  172.6590  139.7900 C   0  0  0  0  0  3  0  0  0  0  0  0
  188.5830  176.2420  144.2370 N   0  0  0  0  0  2  0  0  0  0  0  0
  186.4150  176.0250  143.0840 C   0  0  0  0  0  1  0  0  0  0  0  0
  187.4780  176.9780  143.6160 C   0  0  1  0  0  3  0  0  0  0  0  0
  186.9480  177.9710  144.4730 O   0  0  0  0  0  0  0  0  0  0  0  0
  185.7080  177.5390  144.9830 C   0  0  2  0  0  3  0  0  0  0  0  0
  184.7060  179.3640  143.8270 O   0  0  0  0  0  0  0  0  0  0  0  0
  184.6960  178.6260  144.8460 C   0  0  0  0  0  0  0  0  0  0  0  0
  183.7310  178.8180  145.8280 O   0  0  0  0  0  1  0  0  0  0  0  0
  185.8520  177.1680  146.4500 C   0  0  0  0  0  2  0  0  0  0  0  0
  187.0040  177.7490  146.9800 O   0  0  0  0  0  0  0  0  0  0  0  0
  186.5430  178.5640  148.0110 C   0  0  0  0  0  1  0  0  0  0  0  0
  1 27  1  6  0  0  0
  1 22  1  0  0  0  0
  2  5  1  0  0  0  0
  3 26  1  0  0  0  0
  4 23  1  0  0  0  0
  6 24  1  0  0  0  0
  7 19  1  6  0  0  0
  7 13  1  0  0  0  0
  7 14  1  0  0  0  0
  8  1  1  0  0  0  0
  9 20  1  1  0  0  0
  9 11  1  0  0  0  0
 10  6  1  1  0  0  0
 10  4  1  0  0  0  0
 11 10  1  0  0  0  0
 11 16  1  1  0  0  0
 12  2  1  6  0  0  0
 12  5  1  0  0  0  0
 12 18  1  0  0  0  0
 12 25  1  0  0  0  0
 13 14  1  0  0  0  0
 13 24  1  1  0  0  0
 15  3  1  0  0  0  0
 16 23  1  0  0  0  0
 17 21  1  6  0  0  0
 17  9  1  0  0  0  0
 17 30  1  0  0  0  0
 18 25  1  0  0  0  0
 18 15  1  1  0  0  0
 22 19  1  0  0  0  0
 25  8  1  6  0  0  0
 26 17  1  0  0  0  0
 28 29  2  0  0  0  0
 29 27  1  0  0  0  0
 32 31  1  1  0  0  0
 32 30  1  0  0  0  0
 32 33  1  0  0  0  0
 33 34  1  0  0  0  0
 34 38  1  1  0  0  0
 35 36  2  0  0  0  0
 36 34  1  0  0  0  0
 36 37  1  0  0  0  0
 38 39  1  0  0  0  0
 39 40  1  0  0  0  0
M  END
>  <MODEL>
2

>  <REMARK>
 VINA RESULT:      -6.0      3.027      8.561
  Name = 
  9 active torsions:
  status: ('A' for Active; 'I' for Inactive)
    1  A    between atoms: C_1  and  S_5
    2  A    between atoms: O_2  and  C_17
    3  A    between atoms: S_5  and  C_35
    4  A    between atoms: C_6  and  C_17
    5  A    between atoms: C_6  and  C_21
    6  A    between atoms: C_6  and  O_27
    7  A    between atoms: C_19  and  O_27
    8  A    between atoms: C_19  and  N_32
    9  A    between atoms: C_28  and  N_32
                            x       y       z     vdW  Elec       q    Type
                         _______ _______ _______ _____ _____    ______ ____

>  <TORSDO>
F 9

$$$$
=
 OpenBabel11062419303D

 40 44  0  0  1  0  0  0  0  0999 V2000
  187.7730  177.1810  144.7340 C   0  0  2  0  0  3  0  0  0  0  0  0
  192.0080  175.7400  147.2230 C   0  0  0  0  0  2  0  0  0  0  0  0
  192.4190  175.8950  143.0250 S   0  0  0  0  0  0  0  0  0  0  0  0
  191.5580  171.6320  140.3570 O   0  0  0  0  0  0  0  0  0  0  0  0
  190.7480  175.3120  147.5350 O   0  0  0  0  0  0  0  0  0  0  0  0
  190.4300  173.7410  140.3130 C   0  0  0  0  0  2  0  0  0  0  0  0
  188.0040  174.9230  142.6010 C   0  0  2  0  0  3  0  0  0  0  0  0
  188.9600  177.4530  145.6380 C   0  0  0  0  0  2  0  0  0  0  0  0
  193.6630  174.5920  140.3520 C   0  0  1  0  0  3  0  0  0  0  0  0
  191.7040  172.9840  140.6350 C   0  0  2  0  0  3  0  0  0  0  0  0
  192.8180  173.4490  139.7540 C   0  0  2  0  0  3  0  0  0  0  0  0
  190.7910  176.5370  146.8050 C   0  0  2  0  0  0  0  0  0  0  0  0
  188.2360  174.3960  141.2400 C   0  0  2  0  0  3  0  0  0  0  0  0
  187.1520  173.9650  142.0260 O   0  0  0  0  0  0  0  0  0  0  0  0
  191.6170  175.3600  144.5580 C   0  0  0  0  0  2  0  0  0  0  0  0
  193.5810  172.3250  139.4440 O   0  0  0  0  0  0  0  0  0  0  0  0
  194.3360  174.3290  141.7270 C   0  0  1  0  0  0  0  0  0  0  0  0
  191.0890  176.5900  145.3120 C   0  0  1  0  0  3  0  0  0  0  0  0
  187.3850  176.2350  142.5190 N   0  0  0  0  0  2  0  0  0  0  0  0
  194.6550  175.0840  139.3070 C   0  0  0  0  0  1  0  0  0  0  0  0
  195.2340  175.3700  142.0060 O   0  0  0  0  0  1  0  0  0  0  0  0
  188.2260  177.1420  143.2830 C   0  0  0  0  0  2  0  0  0  0  0  0
  192.8320  171.2310  139.9210 C   0  0  0  0  0  2  0  0  0  0  0  0
  189.3410  173.3670  141.3010 C   0  0  0  0  0  2  0  0  0  0  0  0
  189.7700  176.2530  145.7610 N   0  0  2  0  0  0  0  0  0  0  0  0
  193.2730  174.2940  142.8350 C   0  0  0  0  0  2  0  0  0  0  0  0
  186.5330  178.4900  144.9510 S   0  0  0  0  0  0  0  0  0  0  0  0
  185.2180  176.6250  146.3460 N   0  0  0  0  0  2  0  0  0  0  0  0
  185.8670  177.7270  146.4280 C   0  0  0  0  0  3  0  0  0  0  0  0
  195.0630  173.0540  141.6850 N   0  0  0  0  0  2  0  0  0  0  0  0
  194.7120  170.9210  142.8720 C   0  0  0  0  0  1  0  0  0  0  0  0
  195.0610  172.3990  142.9970 C   0  0  1  0  0  3  0  0  0  0  0  0
  196.2630  172.6220  143.7090 O   0  0  0  0  0  0  0  0  0  0  0  0
  195.9650  172.9470  145.0460 C   0  0  2  0  0  3  0  0  0  0  0  0
  197.1230  174.9970  144.6820 O   0  0  0  0  0  0  0  0  0  0  0  0
  196.1830  174.4050  145.2750 C   0  0  0  0  0  0  0  0  0  0  0  0
  195.3460  175.1170  146.1250 O   0  0  0  0  0  1  0  0  0  0  0  0
  196.8570  172.1510  145.9840 C   0  0  0  0  0  2  0  0  0  0  0  0
  197.5390  171.1640  145.2730 O   0  0  0  0  0  0  0  0  0  0  0  0
  197.1640  169.9700  145.8850 C   0  0  0  0  0  1  0  0  0  0  0  0
  1 27  1  6  0  0  0
  1  8  1  0  0  0  0
  2  5  1  0  0  0  0
  3 15  1  0  0  0  0
  4 10  1  0  0  0  0
  6 24  1  0  0  0  0
  7 14  1  1  0  0  0
  9 20  1  6  0  0  0
  9 17  1  0  0  0  0
 10  6  1  6  0  0  0
 11 16  1  1  0  0  0
 11  9  1  0  0  0  0
 11 10  1  0  0  0  0
 12  2  1  1  0  0  0
 12  5  1  0  0  0  0
 13 24  1  1  0  0  0
 13 14  1  0  0  0  0
 13  7  1  0  0  0  0
 16 23  1  0  0  0  0
 17 21  1  1  0  0  0
 17 26  1  0  0  0  0
 18 15  1  1  0  0  0
 18 25  1  0  0  0  0
 18 12  1  0  0  0  0
 19  7  1  0  0  0  0
 19 22  1  0  0  0  0
 22  1  1  0  0  0  0
 23  4  1  0  0  0  0
 25  8  1  6  0  0  0
 25 12  1  0  0  0  0
 26  3  1  0  0  0  0
 27 29  1  0  0  0  0
 28 29  2  0  0  0  0
 30 17  1  0  0  0  0
 30 32  1  0  0  0  0
 32 31  1  6  0  0  0
 32 33  1  0  0  0  0
 33 34  1  0  0  0  0
 34 36  1  0  0  0  0
 34 38  1  1  0  0  0
 35 36  2  0  0  0  0
 36 37  1  0  0  0  0
 39 40  1  0  0  0  0
 39 38  1  0  0  0  0
M  END
>  <MODEL>
3

>  <REMARK>
 VINA RESULT:      -5.9      2.400      6.252
  Name = 
  9 active torsions:
  status: ('A' for Active; 'I' for Inactive)
    1  A    between atoms: C_1  and  S_5
    2  A    between atoms: O_2  and  C_17
    3  A    between atoms: S_5  and  C_35
    4  A    between atoms: C_6  and  C_17
    5  A    between atoms: C_6  and  C_21
    6  A    between atoms: C_6  and  O_27
    7  A    between atoms: C_19  and  O_27
    8  A    between atoms: C_19  and  N_32
    9  A    between atoms: C_28  and  N_32
                            x       y       z     vdW  Elec       q    Type
                         _______ _______ _______ _____ _____    ______ ____

>  <TORSDO>
F 9

$$$$
=
 OpenBabel11062419303D

 40 44  0  0  1  0  0  0  0  0999 V2000
  196.8710  170.3720  144.6600 C   0  0  2  0  0  3  0  0  0  0  0  0
  197.1190  175.4300  143.9070 C   0  0  0  0  0  2  0  0  0  0  0  0
  193.3740  174.0520  145.2850 S   0  0  0  0  0  0  0  0  0  0  0  0
  189.8070  172.8920  141.8260 O   0  0  0  0  0  0  0  0  0  0  0  0
  197.6570  174.4970  143.0630 O   0  0  0  0  0  0  0  0  0  0  0  0
  190.8990  171.5130  143.4480 C   0  0  0  0  0  2  0  0  0  0  0  0
  194.1250  170.0790  143.2190 C   0  0  2  0  0  3  0  0  0  0  0  0
  197.3620  171.7620  145.0160 C   0  0  0  0  0  2  0  0  0  0  0  0
  190.1620  174.2890  145.1600 C   0  0  1  0  0  3  0  0  0  0  0  0
  190.4860  172.9140  143.0370 C   0  0  2  0  0  3  0  0  0  0  0  0
  189.5120  173.4750  144.0230 C   0  0  2  0  0  3  0  0  0  0  0  0
  197.4440  174.0340  144.3960 C   0  0  2  0  0  0  0  0  0  0  0  0
  192.6720  169.8160  143.1640 C   0  0  2  0  0  3  0  0  0  0  0  0
  193.5640  169.2380  142.2430 O   0  0  0  0  0  0  0  0  0  0  0  0
  194.7880  174.0500  144.1520 C   0  0  0  0  0  2  0  0  0  0  0  0
  188.5860  174.2180  143.2940 O   0  0  0  0  0  0  0  0  0  0  0  0
  191.0440  175.5000  144.7490 C   0  0  1  0  0  0  0  0  0  0  0  0
  196.0610  173.6810  144.9290 C   0  0  1  0  0  3  0  0  0  0  0  0
  194.7290  169.2730  144.2670 N   0  0  0  0  0  2  0  0  0  0  0  0
  189.0960  174.6690  146.1790 C   0  0  0  0  0  1  0  0  0  0  0  0
  191.3610  176.2470  145.8930 O   0  0  0  0  0  1  0  0  0  0  0  0
  195.4400  170.1900  145.1420 C   0  0  0  0  0  2  0  0  0  0  0  0
  188.8600  173.9230  141.9440 C   0  0  0  0  0  2  0  0  0  0  0  0
  191.9890  171.0040  142.5240 C   0  0  0  0  0  2  0  0  0  0  0  0
  196.7710  172.7380  144.1150 N   0  0  2  0  0  0  0  0  0  0  0  0
  192.3520  175.0050  144.1130 C   0  0  0  0  0  2  0  0  0  0  0  0
  197.9410  169.1320  145.4450 S   0  0  0  0  0  0  0  0  0  0  0  0
  197.2650  168.5580  147.9680 N   0  0  0  0  0  2  0  0  0  0  0  0
  196.8170  168.9150  146.8220 C   0  0  0  0  0  3  0  0  0  0  0  0
  190.3090  176.3460  143.7990 N   0  0  0  0  0  2  0  0  0  0  0  0
  191.2770  178.6010  143.5650 C   0  0  0  0  0  1  0  0  0  0  0  0
  190.2410  177.7330  144.2690 C   0  0  1  0  0  3  0  0  0  0  0  0
  188.9320  178.2630  144.1850 O   0  0  0  0  0  0  0  0  0  0  0  0
  188.0600  177.2820  143.6740 C   0  0  2  0  0  3  0  0  0  0  0  0
  188.3700  178.2410  141.5150 O   0  0  0  0  0  0  0  0  0  0  0  0
  187.5770  177.6880  142.3210 C   0  0  0  0  0  0  0  0  0  0  0  0
  186.2630  177.4440  141.9400 O   0  0  0  0  0  1  0  0  0  0  0  0
  186.8690  177.1130  144.6030 C   0  0  0  0  0  2  0  0  0  0  0  0
  186.8130  178.1740  145.5060 O   0  0  0  0  0  0  0  0  0  0  0  0
  185.6380  178.8480  145.1800 C   0  0  0  0  0  1  0  0  0  0  0  0
  1  8  1  0  0  0  0
  1 22  1  0  0  0  0
  1 27  1  1  0  0  0
  4 23  1  0  0  0  0
  4 10  1  0  0  0  0
  5  2  1  0  0  0  0
  5 12  1  0  0  0  0
  7 14  1  6  0  0  0
  7 19  1  0  0  0  0
  9 20  1  1  0  0  0
 10  6  1  1  0  0  0
 10 11  1  0  0  0  0
 11 16  1  6  0  0  0
 11  9  1  0  0  0  0
 12  2  1  1  0  0  0
 12 18  1  0  0  0  0
 13 24  1  6  0  0  0
 13  7  1  0  0  0  0
 14 13  1  0  0  0  0
 15  3  1  0  0  0  0
 17  9  1  0  0  0  0
 17 21  1  1  0  0  0
 18 15  1  6  0  0  0
 19 22  1  0  0  0  0
 23 16  1  0  0  0  0
 24  6  1  0  0  0  0
 25 12  1  0  0  0  0
 25 18  1  0  0  0  0
 25  8  1  1  0  0  0
 26 17  1  0  0  0  0
 26  3  1  0  0  0  0
 27 29  1  0  0  0  0
 29 28  2  0  0  0  0
 30 32  1  0  0  0  0
 30 17  1  0  0  0  0
 32 31  1  6  0  0  0
 33 32  1  0  0  0  0
 34 33  1  0  0  0  0
 34 38  1  1  0  0  0
 35 36  2  0  0  0  0
 36 34  1  0  0  0  0
 37 36  1  0  0  0  0
 38 39  1  0  0  0  0
 40 39  1  0  0  0  0
M  END
>  <MODEL>
4

>  <REMARK>
 VINA RESULT:      -5.7      3.575      8.526
  Name = 
  9 active torsions:
  status: ('A' for Active; 'I' for Inactive)
    1  A    between atoms: C_1  and  S_5
    2  A    between atoms: O_2  and  C_17
    3  A    between atoms: S_5  and  C_35
    4  A    between atoms: C_6  and  C_17
    5  A    between atoms: C_6  and  C_21
    6  A    between atoms: C_6  and  O_27
    7  A    between atoms: C_19  and  O_27
    8  A    between atoms: C_19  and  N_32
    9  A    between atoms: C_28  and  N_32
                            x       y       z     vdW  Elec       q    Type
                         _______ _______ _______ _____ _____    ______ ____

>  <TORSDO>
F 9

$$$$
=
 OpenBabel11062419303D

 40 44  0  0  1  0  0  0  0  0999 V2000
  196.3320  172.4360  144.0920 C   0  0  2  0  0  3  0  0  0  0  0  0
  194.1490  176.9620  145.0690 C   0  0  0  0  0  2  0  0  0  0  0  0
  191.4650  173.9750  143.7690 S   0  0  0  0  0  0  0  0  0  0  0  0
  190.4510  173.6460  138.7800 O   0  0  0  0  0  0  0  0  0  0  0  0
  195.3420  176.8060  144.4200 O   0  0  0  0  0  0  0  0  0  0  0  0
  191.4720  172.0690  140.2600 C   0  0  0  0  0  2  0  0  0  0  0  0
  194.8240  172.0520  141.3940 C   0  0  2  0  0  3  0  0  0  0  0  0
  195.8720  173.5320  145.0340 C   0  0  0  0  0  2  0  0  0  0  0  0
  188.8680  173.2090  142.0190 C   0  0  1  0  0  3  0  0  0  0  0  0
  190.5590  173.2710  140.1110 C   0  0  2  0  0  3  0  0  0  0  0  0
  189.1690  172.9190  140.5350 C   0  0  2  0  0  3  0  0  0  0  0  0
  194.9630  175.6970  145.2340 C   0  0  2  0  0  0  0  0  0  0  0  0
  193.8410  171.4080  140.4990 C   0  0  2  0  0  3  0  0  0  0  0  0
  195.1540  171.6870  140.0780 O   0  0  0  0  0  0  0  0  0  0  0  0
  192.9580  174.9890  143.6240 C   0  0  0  0  0  2  0  0  0  0  0  0
  188.3050  173.5890  139.6720 O   0  0  0  0  0  0  0  0  0  0  0  0
  189.0680  174.6690  142.5090 C   0  0  1  0  0  0  0  0  0  0  0  0
  193.8830  174.7070  144.8170 C   0  0  1  0  0  3  0  0  0  0  0  0
  195.3600  171.0700  142.3200 N   0  0  0  0  0  2  0  0  0  0  0  0
  187.4890  172.6660  142.3680 C   0  0  0  0  0  1  0  0  0  0  0  0
  188.5380  174.7980  143.8020 O   0  0  0  0  0  1  0  0  0  0  0  0
  195.1420  171.5940  143.6590 C   0  0  0  0  0  2  0  0  0  0  0  0
  189.1320  174.1160  138.6610 C   0  0  0  0  0  2  0  0  0  0  0  0
  192.9050  172.4680  139.9620 C   0  0  0  0  0  2  0  0  0  0  0  0
  195.2070  174.5810  144.2800 N   0  0  2  0  0  0  0  0  0  0  0  0
  190.5660  175.0060  142.5620 C   0  0  0  0  0  2  0  0  0  0  0  0
  197.5490  171.3840  144.9350 S   0  0  0  0  0  0  0  0  0  0  0  0
  196.6080  169.6240  146.7150 N   0  0  0  0  0  2  0  0  0  0  0  0
  196.2880  170.5720  145.9160 C   0  0  0  0  0  3  0  0  0  0  0  0
  188.3750  175.5940  141.6030 N   0  0  0  0  0  2  0  0  0  0  0  0
  188.5070  178.0560  141.6400 C   0  0  0  0  0  1  0  0  0  0  0  0
  187.9460  176.8060  142.3080 C   0  0  1  0  0  3  0  0  0  0  0  0
  186.5430  176.8570  142.4800 O   0  0  0  0  0  0  0  0  0  0  0  0
  186.1820  178.1020  143.0300 C   0  0  2  0  0  3  0  0  0  0  0  0
  185.5680  176.8070  144.9340 O   0  0  0  0  0  0  0  0  0  0  0  0
  185.8650  177.9420  144.4800 C   0  0  0  0  0  0  0  0  0  0  0  0
  185.9120  179.0370  145.3350 O   0  0  0  0  0  1  0  0  0  0  0  0
  184.9640  178.6550  142.3070 C   0  0  0  0  0  2  0  0  0  0  0  0
  184.7630  177.9630  141.1130 O   0  0  0  0  0  0  0  0  0  0  0  0
  183.4630  178.2910  140.7340 C   0  0  0  0  0  1  0  0  0  0  0  0
  1 27  1  1  0  0  0
  1  8  1  0  0  0  0
  4 10  1  0  0  0  0
  5  2  1  0  0  0  0
  5 12  1  0  0  0  0
  7 14  1  6  0  0  0
  7 19  1  0  0  0  0
  9 20  1  6  0  0  0
  9 17  1  0  0  0  0
 10  6  1  6  0  0  0
 10 11  1  0  0  0  0
 11 16  1  6  0  0  0
 11  9  1  0  0  0  0
 12  2  1  1  0  0  0
 13 24  1  6  0  0  0
 13  7  1  0  0  0  0
 14 13  1  0  0  0  0
 15  3  1  0  0  0  0
 17 26  1  0  0  0  0
 17 21  1  1  0  0  0
 18 15  1  6  0  0  0
 18 12  1  0  0  0  0
 19 22  1  0  0  0  0
 22  1  1  0  0  0  0
 23  4  1  0  0  0  0
 23 16  1  0  0  0  0
 24  6  1  0  0  0  0
 25 18  1  0  0  0  0
 25  8  1  1  0  0  0
 25 12  1  0  0  0  0
 26  3  1  0  0  0  0
 27 29  1  0  0  0  0
 29 28  2  0  0  0  0
 30 32  1  0  0  0  0
 30 17  1  0  0  0  0
 32 31  1  6  0  0  0
 32 33  1  0  0  0  0
 33 34  1  0  0  0  0
 34 38  1  6  0  0  0
 34 36  1  0  0  0  0
 36 35  2  0  0  0  0
 36 37  1  0  0  0  0
 39 38  1  0  0  0  0
 40 39  1  0  0  0  0
M  END
>  <MODEL>
5

>  <REMARK>
 VINA RESULT:      -5.5      3.139      7.956
  Name = 
  9 active torsions:
  status: ('A' for Active; 'I' for Inactive)
    1  A    between atoms: C_1  and  S_5
    2  A    between atoms: O_2  and  C_17
    3  A    between atoms: S_5  and  C_35
    4  A    between atoms: C_6  and  C_17
    5  A    between atoms: C_6  and  C_21
    6  A    between atoms: C_6  and  O_27
    7  A    between atoms: C_19  and  O_27
    8  A    between atoms: C_19  and  N_32
    9  A    between atoms: C_28  and  N_32
                            x       y       z     vdW  Elec       q    Type
                         _______ _______ _______ _____ _____    ______ ____

>  <TORSDO>
F 9

$$$$
=
 OpenBabel11062419303D

 40 44  0  0  1  0  0  0  0  0999 V2000
  187.4860  177.1760  146.2430 C   0  0  2  0  0  3  0  0  0  0  0  0
  187.4390  177.3250  141.1250 C   0  0  0  0  0  2  0  0  0  0  0  0
  189.2640  173.8840  142.7550 S   0  0  0  0  0  0  0  0  0  0  0  0
  194.3070  173.9610  143.5210 O   0  0  0  0  0  0  0  0  0  0  0  0
  187.7140  178.3990  141.9250 O   0  0  0  0  0  0  0  0  0  0  0  0
  192.5070  173.7310  145.0800 C   0  0  0  0  0  2  0  0  0  0  0  0
  190.4720  176.3060  146.4010 C   0  0  2  0  0  3  0  0  0  0  0  0
  186.7790  177.1150  144.9020 C   0  0  0  0  0  2  0  0  0  0  0  0
  191.6280  171.7000  142.5730 C   0  0  1  0  0  3  0  0  0  0  0  0
  192.9790  173.5780  143.6460 C   0  0  2  0  0  3  0  0  0  0  0  0
  192.9460  172.1390  143.2420 C   0  0  2  0  0  3  0  0  0  0  0  0
  186.9750  177.3600  142.5660 C   0  0  2  0  0  0  0  0  0  0  0  0
  191.5690  175.3580  146.6850 C   0  0  2  0  0  3  0  0  0  0  0  0
  191.6170  176.6960  147.1160 O   0  0  0  0  0  0  0  0  0  0  0  0
  189.0410  175.6730  142.5760 C   0  0  0  0  0  2  0  0  0  0  0  0
  194.0560  171.9240  142.4290 O   0  0  0  0  0  0  0  0  0  0  0  0
  191.1890  172.4740  141.3000 C   0  0  1  0  0  0  0  0  0  0  0  0
  187.6200  176.0560  143.0170 C   0  0  1  0  0  3  0  0  0  0  0  0
  189.3750  176.0770  147.3260 N   0  0  0  0  0  2  0  0  0  0  0  0
  191.6510  170.1940  142.3550 C   0  0  0  0  0  1  0  0  0  0  0  0
  190.1090  171.8060  140.7040 O   0  0  0  0  0  1  0  0  0  0  0  0
  188.1870  175.8550  146.5180 C   0  0  0  0  0  2  0  0  0  0  0  0
  194.8220  173.1010  142.5360 C   0  0  0  0  0  2  0  0  0  0  0  0
  192.4100  175.2010  145.4380 C   0  0  0  0  0  2  0  0  0  0  0  0
  187.7520  177.2310  143.8280 N   0  0  2  0  0  0  0  0  0  0  0  0
  190.7350  173.8920  141.6770 C   0  0  0  0  0  2  0  0  0  0  0  0
  186.2720  177.5070  147.5520 S   0  0  0  0  0  0  0  0  0  0  0  0
  184.1230  178.6940  146.4920 N   0  0  0  0  0  2  0  0  0  0  0  0
  185.4020  178.7130  146.5540 C   0  0  0  0  0  3  0  0  0  0  0  0
  192.3080  172.5380  140.3510 N   0  0  0  0  0  2  0  0  0  0  0  0
  193.6000  174.4650  139.5160 C   0  0  0  0  0  1  0  0  0  0  0  0
  192.2490  173.7600  139.5430 C   0  0  1  0  0  3  0  0  0  0  0  0
  191.7270  173.5230  138.2500 O   0  0  0  0  0  0  0  0  0  0  0  0
  192.1840  172.2770  137.7800 C   0  0  2  0  0  3  0  0  0  0  0  0
  193.8720  171.5400  136.2690 O   0  0  0  0  0  1  0  0  0  0  0  0
  193.1180  172.4790  136.6330 C   0  0  0  0  0  0  0  0  0  0  0  0
  193.1470  173.6910  135.9550 O   0  0  0  0  0  0  0  0  0  0  0  0
  191.0070  171.4300  137.3260 C   0  0  0  0  0  2  0  0  0  0  0  0
  191.0650  170.1710  137.9230 O   0  0  0  0  0  0  0  0  0  0  0  0
  189.7520  169.7050  137.8870 C   0  0  0  0  0  1  0  0  0  0  0  0
  1 22  1  0  0  0  0
  1 27  1  1  0  0  0
  2  5  1  0  0  0  0
  4 10  1  0  0  0  0
  5 12  1  0  0  0  0
  6 24  1  0  0  0  0
  7 13  1  0  0  0  0
  7 14  1  1  0  0  0
  7 19  1  0  0  0  0
  8  1  1  0  0  0  0
  9 20  1  6  0  0  0
  9 11  1  0  0  0  0
 10  6  1  1  0  0  0
 11 16  1  6  0  0  0
 11 10  1  0  0  0  0
 12  2  1  1  0  0  0
 12 18  1  0  0  0  0
 12 25  1  0  0  0  0
 13 24  1  6  0  0  0
 13 14  1  0  0  0  0
 15  3  1  0  0  0  0
 16 23  1  0  0  0  0
 17 21  1  6  0  0  0
 17 26  1  0  0  0  0
 17  9  1  0  0  0  0
 18 15  1  6  0  0  0
 18 25  1  0  0  0  0
 22 19  1  0  0  0  0
 23  4  1  0  0  0  0
 25  8  1  1  0  0  0
 26  3  1  0  0  0  0
 28 29  2  0  0  0  0
 29 27  1  0  0  0  0
 30 17  1  0  0  0  0
 32 31  1  6  0  0  0
 32 30  1  0  0  0  0
 33 32  1  0  0  0  0
 34 38  1  6  0  0  0
 34 33  1  0  0  0  0
 35 36  1  0  0  0  0
 36 34  1  0  0  0  0
 37 36  2  0  0  0  0
 38 39  1  0  0  0  0
 40 39  1  0  0  0  0
M  END
>  <MODEL>
6

>  <REMARK>
 VINA RESULT:      -5.5      1.234      2.031
  Name = 
  9 active torsions:
  status: ('A' for Active; 'I' for Inactive)
    1  A    between atoms: C_1  and  S_5
    2  A    between atoms: O_2  and  C_17
    3  A    between atoms: S_5  and  C_35
    4  A    between atoms: C_6  and  C_17
    5  A    between atoms: C_6  and  C_21
    6  A    between atoms: C_6  and  O_27
    7  A    between atoms: C_19  and  O_27
    8  A    between atoms: C_19  and  N_32
    9  A    between atoms: C_28  and  N_32
                            x       y       z     vdW  Elec       q    Type
                         _______ _______ _______ _____ _____    ______ ____

>  <TORSDO>
F 9

$$$$
=
 OpenBabel11062419303D

 40 44  0  0  1  0  0  0  0  0999 V2000
  186.3100  177.3670  145.5240 C   0  0  2  0  0  3  0  0  0  0  0  0
  187.3070  176.7010  140.5460 C   0  0  0  0  0  2  0  0  0  0  0  0
  189.3330  174.0230  143.1060 S   0  0  0  0  0  0  0  0  0  0  0  0
  194.0090  175.2870  144.7080 O   0  0  0  0  0  0  0  0  0  0  0  0
  187.2130  177.9210  141.1570 O   0  0  0  0  0  0  0  0  0  0  0  0
  191.9930  174.9260  145.9440 C   0  0  0  0  0  2  0  0  0  0  0  0
  189.3030  177.1850  146.3640 C   0  0  2  0  0  3  0  0  0  0  0  0
  185.9210  176.9490  144.1180 C   0  0  0  0  0  2  0  0  0  0  0  0
  192.0320  172.3890  143.7660 C   0  0  1  0  0  3  0  0  0  0  0  0
  192.7740  174.6550  144.6720 C   0  0  2  0  0  3  0  0  0  0  0  0
  193.0820  173.1970  144.5560 C   0  0  2  0  0  3  0  0  0  0  0  0
  186.5540  176.8610  141.8500 C   0  0  2  0  0  0  0  0  0  0  0  0
  190.4670  176.5470  147.0140 C   0  0  2  0  0  3  0  0  0  0  0  0
  190.1850  177.9160  147.1780 O   0  0  0  0  0  0  0  0  0  0  0  0
  188.8380  175.6740  142.5460 C   0  0  0  0  0  2  0  0  0  0  0  0
  194.3580  173.0980  144.0050 O   0  0  0  0  0  0  0  0  0  0  0  0
  191.7390  172.8440  142.3100 C   0  0  1  0  0  0  0  0  0  0  0  0
  187.3120  175.8100  142.6510 C   0  0  1  0  0  3  0  0  0  0  0  0
  188.0950  176.8760  147.1110 N   0  0  0  0  0  2  0  0  0  0  0  0
  192.3680  170.9070  143.8530 C   0  0  0  0  0  1  0  0  0  0  0  0
  190.9440  171.8770  141.6770 O   0  0  0  0  0  1  0  0  0  0  0  0
  187.1610  176.2830  146.1680 C   0  0  0  0  0  2  0  0  0  0  0  0
  194.8630  174.4130  144.0130 C   0  0  0  0  0  2  0  0  0  0  0  0
  191.5640  176.3800  145.9870 C   0  0  0  0  0  2  0  0  0  0  0  0
  187.0610  177.0990  143.2280 N   0  0  2  0  0  0  0  0  0  0  0  0
  190.9710  174.1750  142.3190 C   0  0  0  0  0  2  0  0  0  0  0  0
  184.8100  177.6320  146.5120 S   0  0  0  0  0  0  0  0  0  0  0  0
  183.5280  179.0960  144.6770 N   0  0  0  0  0  2  0  0  0  0  0  0
  184.3910  179.1300  145.6230 C   0  0  0  0  0  3  0  0  0  0  0  0
  193.0020  172.9950  141.5760 N   0  0  0  0  0  2  0  0  0  0  0  0
  194.3340  174.6650  140.3440 C   0  0  0  0  0  1  0  0  0  0  0  0
  192.9410  174.1240  140.6420 C   0  0  1  0  0  3  0  0  0  0  0  0
  192.2110  173.8110  139.4710 O   0  0  0  0  0  0  0  0  0  0  0  0
  193.1000  173.6490  138.3920 C   0  0  2  0  0  3  0  0  0  0  0  0
  193.4490  175.5650  137.0200 O   0  0  0  0  0  1  0  0  0  0  0  0
  192.7230  174.5710  137.2810 C   0  0  0  0  0  0  0  0  0  0  0  0
  191.5850  174.3290  136.5210 O   0  0  0  0  0  0  0  0  0  0  0  0
  193.0530  172.2140  137.8920 C   0  0  0  0  0  2  0  0  0  0  0  0
  191.9650  171.5470  138.4540 O   0  0  0  0  0  0  0  0  0  0  0  0
  191.4430  170.7870  137.4090 C   0  0  0  0  0  1  0  0  0  0  0  0
  1 22  1  0  0  0  0
  1 27  1  1  0  0  0
  2  5  1  0  0  0  0
  5 12  1  0  0  0  0
  6 24  1  0  0  0  0
  7 13  1  0  0  0  0
  7 19  1  1  0  0  0
  7 14  1  0  0  0  0
  8  1  1  0  0  0  0
  9 20  1  6  0  0  0
  9 11  1  0  0  0  0
 10  4  1  0  0  0  0
 10  6  1  1  0  0  0
 11 16  1  6  0  0  0
 11 10  1  0  0  0  0
 12  2  1  6  0  0  0
 12 18  1  0  0  0  0
 12 25  1  0  0  0  0
 13 24  1  6  0  0  0
 13 14  1  0  0  0  0
 15  3  1  0  0  0  0
 16 23  1  0  0  0  0
 17 21  1  6  0  0  0
 17 26  1  0  0  0  0
 17  9  1  0  0  0  0
 18 15  1  6  0  0  0
 18 25  1  0  0  0  0
 22 19  1  0  0  0  0
 23  4  1  0  0  0  0
 25  8  1  1  0  0  0
 26  3  1  0  0  0  0
 28 29  2  0  0  0  0
 29 27  1  0  0  0  0
 30 17  1  0  0  0  0
 32 31  1  6  0  0  0
 32 30  1  0  0  0  0
 33 32  1  0  0  0  0
 34 38  1  6  0  0  0
 34 33  1  0  0  0  0
 35 36  1  0  0  0  0
 36 34  1  0  0  0  0
 37 36  2  0  0  0  0
 38 39  1  0  0  0  0
 40 39  1  0  0  0  0
M  END
>  <MODEL>
7

>  <REMARK>
 VINA RESULT:      -5.5      1.575      2.184
  Name = 
  9 active torsions:
  status: ('A' for Active; 'I' for Inactive)
    1  A    between atoms: C_1  and  S_5
    2  A    between atoms: O_2  and  C_17
    3  A    between atoms: S_5  and  C_35
    4  A    between atoms: C_6  and  C_17
    5  A    between atoms: C_6  and  C_21
    6  A    between atoms: C_6  and  O_27
    7  A    between atoms: C_19  and  O_27
    8  A    between atoms: C_19  and  N_32
    9  A    between atoms: C_28  and  N_32
                            x       y       z     vdW  Elec       q    Type
                         _______ _______ _______ _____ _____    ______ ____

>  <TORSDO>
F 9

$$$$
=
 OpenBabel11062419303D

 40 44  0  0  1  0  0  0  0  0999 V2000
  192.1500  174.4450  143.7570 C   0  0  2  0  0  3  0  0  0  0  0  0
  188.4560  173.5990  140.3140 C   0  0  0  0  0  2  0  0  0  0  0  0
  187.9590  177.1290  142.5740 S   0  0  0  0  0  0  0  0  0  0  0  0
  185.1640  176.8930  146.8360 O   0  0  0  0  0  0  0  0  0  0  0  0
  189.0060  172.6310  141.1090 O   0  0  0  0  0  0  0  0  0  0  0  0
  187.4740  177.4290  146.5270 C   0  0  0  0  0  2  0  0  0  0  0  0
  190.1520  175.1700  146.0340 C   0  0  2  0  0  3  0  0  0  0  0  0
  191.6320  174.3590  142.3340 C   0  0  0  0  0  2  0  0  0  0  0  0
  185.9480  179.1400  144.0930 C   0  0  1  0  0  3  0  0  0  0  0  0
  186.0890  177.3590  145.9130 C   0  0  2  0  0  3  0  0  0  0  0  0
  185.6190  178.7280  145.5420 C   0  0  2  0  0  3  0  0  0  0  0  0
  189.8250  173.7860  140.9330 C   0  0  2  0  0  0  0  0  0  0  0  0
  189.4980  176.0900  146.9880 C   0  0  2  0  0  3  0  0  0  0  0  0
  189.9660  174.8230  147.3830 O   0  0  0  0  0  0  0  0  0  0  0  0
  188.2220  175.3470  142.3850 C   0  0  0  0  0  2  0  0  0  0  0  0
  184.2520  178.7710  145.8130 O   0  0  0  0  0  0  0  0  0  0  0  0
  185.4150  178.2230  142.9590 C   0  0  1  0  0  0  0  0  0  0  0  0
  189.5460  175.1040  141.6440 C   0  0  1  0  0  3  0  0  0  0  0  0
  191.5300  175.5820  145.8250 N   0  0  0  0  0  2  0  0  0  0  0  0
  185.5670  180.5990  143.8850 C   0  0  0  0  0  1  0  0  0  0  0  0
  185.6090  178.8590  141.7240 O   0  0  0  0  0  1  0  0  0  0  0  0
  191.7020  175.7530  144.3910 C   0  0  0  0  0  2  0  0  0  0  0  0
  183.9810  177.5800  146.5150 C   0  0  0  0  0  2  0  0  0  0  0  0
  188.0030  176.0290  146.7730 C   0  0  0  0  0  2  0  0  0  0  0  0
  190.2120  174.0460  142.3460 N   0  0  2  0  0  0  0  0  0  0  0  0
  186.1890  176.8960  142.9480 C   0  0  0  0  0  2  0  0  0  0  0  0
  193.9640  174.3620  143.7470 S   0  0  0  0  0  0  0  0  0  0  0  0
  194.8320  172.2670  145.1640 N   0  0  0  0  0  2  0  0  0  0  0  0
  193.9700  172.6590  144.3010 C   0  0  0  0  0  3  0  0  0  0  0  0
  183.9830  177.9700  143.1590 N   0  0  0  0  0  2  0  0  0  0  0  0
  183.9390  178.2000  140.7050 C   0  0  0  0  0  1  0  0  0  0  0  0
  183.1960  178.4380  142.0140 C   0  0  1  0  0  3  0  0  0  0  0  0
  181.8870  177.9020  142.0090 O   0  0  0  0  0  0  0  0  0  0  0  0
  180.9490  178.9500  142.0820 C   0  0  2  0  0  3  0  0  0  0  0  0
  179.1640  179.0440  143.6560 O   0  0  0  0  0  1  0  0  0  0  0  0
  179.6730  178.4480  142.6720 C   0  0  0  0  0  0  0  0  0  0  0  0
  179.0350  177.3390  142.1290 O   0  0  0  0  0  0  0  0  0  0  0  0
  180.6780  179.5010  140.6920 C   0  0  0  0  0  2  0  0  0  0  0  0
  179.4080  180.0750  140.6440 O   0  0  0  0  0  0  0  0  0  0  0  0
  179.5960  181.2860  139.9810 C   0  0  0  0  0  1  0  0  0  0  0  0
  1 27  1  6  0  0  0
  1 22  1  0  0  0  0
  2  5  1  0  0  0  0
  3 26  1  0  0  0  0
  6 24  1  0  0  0  0
  7 19  1  1  0  0  0
  7 13  1  0  0  0  0
  7 14  1  0  0  0  0
  8  1  1  0  0  0  0
  9 20  1  6  0  0  0
  9 11  1  0  0  0  0
 10  6  1  1  0  0  0
 10  4  1  0  0  0  0
 11 16  1  6  0  0  0
 11 10  1  0  0  0  0
 12  2  1  6  0  0  0
 12  5  1  0  0  0  0
 12 18  1  0  0  0  0
 12 25  1  0  0  0  0
 13 24  1  6  0  0  0
 13 14  1  0  0  0  0
 15  3  1  0  0  0  0
 16 23  1  0  0  0  0
 17 21  1  6  0  0  0
 17 30  1  0  0  0  0
 17  9  1  0  0  0  0
 18 25  1  0  0  0  0
 18 15  1  1  0  0  0
 22 19  1  0  0  0  0
 23  4  1  0  0  0  0
 25  8  1  6  0  0  0
 26 17  1  0  0  0  0
 27 29  1  0  0  0  0
 29 28  2  0  0  0  0
 32 31  1  6  0  0  0
 32 30  1  0  0  0  0
 33 32  1  0  0  0  0
 33 34  1  0  0  0  0
 34 38  1  6  0  0  0
 34 36  1  0  0  0  0
 36 35  1  0  0  0  0
 37 36  2  0  0  0  0
 39 38  1  0  0  0  0
 40 39  1  0  0  0  0
M  END
>  <MODEL>
8

>  <REMARK>
 VINA RESULT:      -5.4      4.264      9.026
  Name = 
  9 active torsions:
  status: ('A' for Active; 'I' for Inactive)
    1  A    between atoms: C_1  and  S_5
    2  A    between atoms: O_2  and  C_17
    3  A    between atoms: S_5  and  C_35
    4  A    between atoms: C_6  and  C_17
    5  A    between atoms: C_6  and  C_21
    6  A    between atoms: C_6  and  O_27
    7  A    between atoms: C_19  and  O_27
    8  A    between atoms: C_19  and  N_32
    9  A    between atoms: C_28  and  N_32
                            x       y       z     vdW  Elec       q    Type
                         _______ _______ _______ _____ _____    ______ ____

>  <TORSDO>
F 9

$$$$
=
 OpenBabel11062419303D

 40 44  0  0  1  0  0  0  0  0999 V2000
  187.3740  177.3530  145.7390 C   0  0  2  0  0  3  0  0  0  0  0  0
  185.8530  177.5950  140.8570 C   0  0  0  0  0  2  0  0  0  0  0  0
  188.1670  174.1910  141.7980 S   0  0  0  0  0  0  0  0  0  0  0  0
  193.2130  174.4320  141.0870 O   0  0  0  0  0  0  0  0  0  0  0  0
  186.3160  178.6640  141.5740 O   0  0  0  0  0  0  0  0  0  0  0  0
  191.9450  174.1090  143.0890 C   0  0  0  0  0  2  0  0  0  0  0  0
  190.3030  176.5860  145.0100 C   0  0  2  0  0  3  0  0  0  0  0  0
  186.3140  177.2920  144.6560 C   0  0  0  0  0  2  0  0  0  0  0  0
  190.4400  172.0960  140.8840 C   0  0  1  0  0  3  0  0  0  0  0  0
  191.9890  174.0000  141.5770 C   0  0  2  0  0  3  0  0  0  0  0  0
  191.8820  172.5680  141.1600 C   0  0  2  0  0  3  0  0  0  0  0  0
  185.8230  177.5870  142.3700 C   0  0  2  0  0  0  0  0  0  0  0  0
  191.4620  175.6720  144.9410 C   0  0  2  0  0  3  0  0  0  0  0  0
  191.5940  177.0030  145.3780 O   0  0  0  0  0  0  0  0  0  0  0  0
  187.8510  175.9750  141.7400 C   0  0  0  0  0  2  0  0  0  0  0  0
  192.7170  172.4080  140.0560 O   0  0  0  0  0  0  0  0  0  0  0  0
  189.6320  172.8770  139.8120 C   0  0  1  0  0  0  0  0  0  0  0  0
  186.6070  176.2980  142.5810 C   0  0  1  0  0  3  0  0  0  0  0  0
  189.5260  176.3020  146.2040 N   0  0  0  0  0  2  0  0  0  0  0  0
  190.4430  170.5950  140.6270 C   0  0  0  0  0  1  0  0  0  0  0  0
  188.4460  172.1830  139.5330 O   0  0  0  0  0  1  0  0  0  0  0  0
  188.1620  176.0530  145.7650 C   0  0  0  0  0  2  0  0  0  0  0  0
  193.4480  173.6100  139.9720 C   0  0  0  0  0  2  0  0  0  0  0  0
  191.9130  175.5690  143.5020 C   0  0  0  0  0  2  0  0  0  0  0  0
  186.9330  177.4620  143.3520 N   0  0  2  0  0  0  0  0  0  0  0  0
  189.2650  174.2710  140.3430 C   0  0  0  0  0  2  0  0  0  0  0  0
  186.5790  177.6160  147.3510 S   0  0  0  0  0  0  0  0  0  0  0  0
  184.0620  178.4090  146.9180 N   0  0  0  0  0  2  0  0  0  0  0  0
  184.9350  177.5110  146.6470 C   0  0  0  0  0  3  0  0  0  0  0  0
  190.4290  172.9990  138.5850 N   0  0  0  0  0  2  0  0  0  0  0  0
  189.4530  174.0480  136.5780 C   0  0  0  0  0  1  0  0  0  0  0  0
  189.6050  172.7700  137.3930 C   0  0  1  0  0  3  0  0  0  0  0  0
  190.0700  171.6780  136.6230 O   0  0  0  0  0  0  0  0  0  0  0  0
  191.4200  171.4250  136.9330 C   0  0  2  0  0  3  0  0  0  0  0  0
  193.2970  172.6420  136.1140 O   0  0  0  0  0  1  0  0  0  0  0  0
  192.2960  171.9310  135.8370 C   0  0  0  0  0  0  0  0  0  0  0  0
  192.0250  171.6070  134.5130 O   0  0  0  0  0  0  0  0  0  0  0  0
  191.6410  169.9310  137.1050 C   0  0  0  0  0  2  0  0  0  0  0  0
  192.9940  169.6280  136.9570 O   0  0  0  0  0  0  0  0  0  0  0  0
  193.4010  169.2130  138.2240 C   0  0  0  0  0  1  0  0  0  0  0  0
  1 22  1  0  0  0  0
  1 27  1  1  0  0  0
  2  5  1  0  0  0  0
  4 10  1  0  0  0  0
  5 12  1  0  0  0  0
  6 24  1  0  0  0  0
  7 14  1  1  0  0  0
  7 19  1  0  0  0  0
  8  1  1  0  0  0  0
  9 20  1  6  0  0  0
  9 11  1  0  0  0  0
 10  6  1  1  0  0  0
 11 16  1  6  0  0  0
 11 10  1  0  0  0  0
 12  2  1  1  0  0  0
 12 18  1  0  0  0  0
 12 25  1  0  0  0  0
 13 24  1  6  0  0  0
 13  7  1  0  0  0  0
 13 14  1  0  0  0  0
 15  3  1  0  0  0  0
 17 21  1  6  0  0  0
 17 26  1  0  0  0  0
 17  9  1  0  0  0  0
 18 15  1  6  0  0  0
 18 25  1  0  0  0  0
 22 19  1  0  0  0  0
 23 16  1  0  0  0  0
 23  4  1  0  0  0  0
 25  8  1  1  0  0  0
 26  3  1  0  0  0  0
 29 28  2  0  0  0  0
 29 27  1  0  0  0  0
 30 17  1  0  0  0  0
 32 31  1  6  0  0  0
 32 30  1  0  0  0  0
 33 34  1  0  0  0  0
 33 32  1  0  0  0  0
 34 38  1  6  0  0  0
 36 35  1  0  0  0  0
 36 34  1  0  0  0  0
 37 36  2  0  0  0  0
 39 38  1  0  0  0  0
 39 40  1  0  0  0  0
M  END
>  <MODEL>
9

>  <REMARK>
 VINA RESULT:      -5.4      2.022      2.917
  Name = 
  9 active torsions:
  status: ('A' for Active; 'I' for Inactive)
    1  A    between atoms: C_1  and  S_5
    2  A    between atoms: O_2  and  C_17
    3  A    between atoms: S_5  and  C_35
    4  A    between atoms: C_6  and  C_17
    5  A    between atoms: C_6  and  C_21
    6  A    between atoms: C_6  and  O_27
    7  A    between atoms: C_19  and  O_27
    8  A    between atoms: C_19  and  N_32
    9  A    between atoms: C_28  and  N_32
                            x       y       z     vdW  Elec       q    Type
                         _______ _______ _______ _____ _____    ______ ____

>  <TORSDO>
F 9

$$$$
