=
 OpenBabel11062421593D

 35 39  0  0  1  0  0  0  0  0999 V2000
  189.4550  175.4350  144.4020 O   0  0  0  0  0  1  0  0  0  0  0  0
  189.7320  175.6120  143.0450 C   0  0  2  0  0  0  0  0  0  0  0  0
  187.2610  175.9890  141.3540 C   0  0  1  0  0  3  0  0  0  0  0  0
  187.2710  178.3170  141.8230 C   0  0  2  0  0  3  0  0  0  0  0  0
  188.3470  174.9780  140.9840 C   0  0  0  0  0  2  0  0  0  0  0  0
  186.4700  178.0210  140.6430 N   0  0  0  0  0  2  0  0  0  0  0  0
  187.6930  176.9950  142.4110 C   0  0  2  0  0  3  0  0  0  0  0  0
  189.2060  176.9960  142.6380 C   0  0  0  0  0  2  0  0  0  0  0  0
  186.8710  176.7530  140.1810 N   0  0  0  0  0  2  0  0  0  0  0  0
  189.0410  174.4790  142.2480 C   0  0  0  0  0  2  0  0  0  0  0  0
  193.5320  175.0570  143.9630 C   0  0  1  0  0  3  0  0  0  0  0  0
  191.2630  175.6510  142.8280 C   0  0  2  0  0  3  0  0  0  0  0  0
  193.8840  175.7250  146.3930 C   0  0  0  0  0  1  0  0  0  0  0  0
  193.8520  176.4110  143.8000 O   0  0  0  0  0  1  0  0  0  0  0  0
  193.7220  174.5670  145.4080 C   0  0  1  0  0  0  0  0  0  0  0  0
  191.7940  174.3950  142.4480 O   0  0  0  0  0  0  0  0  0  0  0  0
  191.5840  173.8850  144.8410 C   0  0  2  0  0  3  0  0  0  0  0  0
  192.0840  174.8180  143.7590 C   0  0  1  0  0  0  0  0  0  0  0  0
  192.6020  173.7900  145.8160 O   0  0  0  0  0  0  0  0  0  0  0  0
  189.9730  172.1500  144.0920 F   0  0  0  0  0  0  0  0  0  0  0  0
  191.2600  172.5040  144.3500 C   0  0  0  0  0  0  0  0  0  0  0  0
  192.1600  171.7050  144.1460 O   0  0  0  0  0  0  0  0  0  0  0  0
  194.9780  173.7010  145.4420 C   0  0  0  0  0  2  0  0  0  0  0  0
  196.1580  174.4970  145.7410 N   0  0  0  0  0  1  0  0  0  0  0  0
  186.4360  179.1000  142.8200 C   0  0  0  0  0  2  0  0  0  0  0  0
  185.3290  178.2240  143.3830 C   0  0  0  0  0  2  0  0  0  0  0  0
  184.7750  178.8340  144.6610 C   0  0  0  0  0  2  0  0  0  0  0  0
  186.8930  177.8360  147.4000 C   0  0  1  0  0  3  0  0  0  0  0  0
  184.4920  178.3930  147.0030 C   0  0  0  0  0  2  0  0  0  0  0  0
  185.5760  176.7540  145.5780 C   0  0  0  0  0  2  0  0  0  0  0  0
  185.8510  178.9440  147.4480 C   0  0  0  0  0  2  0  0  0  0  0  0
  186.9580  177.2710  145.9890 C   0  0  0  0  0  2  0  0  0  0  0  0
  184.5390  177.7940  145.6610 N   0  0  0  0  0  0  0  0  0  0  0  0
  189.0640  177.5560  147.0760 C   0  0  0  0  0  1  0  0  0  0  0  0
  188.1410  178.3510  147.7570 O   0  0  0  0  0  0  0  0  0  0  0  0
  2  1  1  1  0  0  0
  3  5  1  6  0  0  0
  3  7  1  0  0  0  0
  4  7  1  0  0  0  0
  4 25  1  1  0  0  0
  5 10  1  0  0  0  0
  6  4  1  0  0  0  0
  7  8  1  6  0  0  0
  8  2  1  0  0  0  0
  9  6  1  0  0  0  0
  9  3  1  0  0  0  0
 10  2  1  0  0  0  0
 11 14  1  1  0  0  0
 11 15  1  0  0  0  0
 12 16  1  6  0  0  0
 12  2  1  0  0  0  0
 12 18  1  0  0  0  0
 15 23  1  0  0  0  0
 15 19  1  0  0  0  0
 15 13  1  1  0  0  0
 17 21  1  6  0  0  0
 17 19  1  0  0  0  0
 18 16  1  6  0  0  0
 18 11  1  0  0  0  0
 18 17  1  0  0  0  0
 20 21  1  0  0  0  0
 22 21  2  0  0  0  0
 23 24  1  0  0  0  0
 25 26  1  0  0  0  0
 26 27  1  0  0  0  0
 27 33  1  0  0  0  0
 28 31  1  0  0  0  0
 28 35  1  6  0  0  0
 29 31  1  0  0  0  0
 30 33  1  0  0  0  0
 30 32  1  0  0  0  0
 32 28  1  0  0  0  0
 33 29  1  0  0  0  0
 34 35  1  0  0  0  0
M  END
>  <MODEL>
1

>  <REMARK>
 VINA RESULT:      -7.1      0.000      0.000
  Name = 
  8 active torsions:
  status: ('A' for Active; 'I' for Inactive)
    1  A    between atoms: C_2  and  O_29
    2  A    between atoms: C_3  and  C_14
    3  A    between atoms: C_9  and  C_19
    4  A    between atoms: C_11  and  C_23
    5  A    between atoms: C_11  and  C_31
    6  A    between atoms: C_13  and  C_23
    7  A    between atoms: C_17  and  C_27
    8  A    between atoms: N_30  and  C_31
                            x       y       z     vdW  Elec       q    Type
                         _______ _______ _______ _____ _____    ______ ____

>  <TORSDO>
F 8

$$$$
=
 OpenBabel11062421593D

 35 39  0  0  1  0  0  0  0  0999 V2000
  189.7260  177.6750  144.8080 O   0  0  0  0  0  1  0  0  0  0  0  0
  189.4960  176.2980  144.8230 C   0  0  2  0  0  0  0  0  0  0  0  0
  191.8130  174.6830  143.7590 C   0  0  1  0  0  3  0  0  0  0  0  0
  192.8340  174.6970  145.9020 C   0  0  2  0  0  3  0  0  0  0  0  0
  190.3810  174.4630  143.2680 C   0  0  0  0  0  2  0  0  0  0  0  0
  193.3780  173.6340  145.0670 N   0  0  0  0  0  2  0  0  0  0  0  0
  191.9060  175.5060  145.0350 C   0  0  2  0  0  3  0  0  0  0  0  0
  190.5540  175.6590  145.7360 C   0  0  0  0  0  2  0  0  0  0  0  0
  192.4460  173.4040  144.0360 N   0  0  0  0  0  2  0  0  0  0  0  0
  189.5930  175.7660  143.3730 C   0  0  0  0  0  2  0  0  0  0  0  0
  185.8560  177.1160  146.1160 C   0  0  1  0  0  3  0  0  0  0  0  0
  188.1270  176.0070  145.4800 C   0  0  2  0  0  3  0  0  0  0  0  0
  185.8940  179.3880  147.2600 C   0  0  0  0  0  1  0  0  0  0  0  0
  186.1470  176.7220  147.4280 O   0  0  0  0  0  1  0  0  0  0  0  0
  185.5140  178.6100  146.0000 C   0  0  1  0  0  0  0  0  0  0  0  0
  187.0960  175.8080  144.5300 O   0  0  0  0  0  0  0  0  0  0  0  0
  187.1320  178.2590  144.3820 C   0  0  2  0  0  3  0  0  0  0  0  0
  187.0530  177.0200  145.2470 C   0  0  1  0  0  0  0  0  0  0  0  0
  186.2000  179.1890  144.8960 O   0  0  0  0  0  0  0  0  0  0  0  0
  185.6600  177.3850  142.5840 F   0  0  0  0  0  0  0  0  0  0  0  0
  186.8140  178.0120  142.9360 C   0  0  0  0  0  0  0  0  0  0  0  0
  187.5760  178.4080  142.0700 O   0  0  0  0  0  0  0  0  0  0  0  0
  184.0080  178.7240  145.7760 C   0  0  0  0  0  2  0  0  0  0  0  0
  183.7070  179.0810  144.3980 N   0  0  0  0  0  1  0  0  0  0  0  0
  193.9680  175.5640  146.4210 C   0  0  0  0  0  2  0  0  0  0  0  0
  195.2820  175.1530  145.7780 C   0  0  0  0  0  2  0  0  0  0  0  0
  195.6080  176.0740  144.6130 C   0  0  0  0  0  2  0  0  0  0  0  0
  195.8580  175.4510  141.0730 C   0  0  1  0  0  3  0  0  0  0  0  0
  197.1890  176.5570  142.8730 C   0  0  0  0  0  2  0  0  0  0  0  0
  196.4040  174.2840  143.2100 C   0  0  0  0  0  2  0  0  0  0  0  0
  196.1600  176.7750  141.7600 C   0  0  0  0  0  2  0  0  0  0  0  0
  195.3560  174.4540  142.1070 C   0  0  0  0  0  2  0  0  0  0  0  0
  196.7500  175.5580  143.8590 N   0  0  0  0  0  0  0  0  0  0  0  0
  193.8100  174.8460  140.4950 C   0  0  0  0  0  1  0  0  0  0  0  0
  194.8830  175.6420  140.0930 O   0  0  0  0  0  0  0  0  0  0  0  0
  2  1  1  6  0  0  0
  2 12  1  0  0  0  0
  2  8  1  0  0  0  0
  3  5  1  1  0  0  0
  3  9  1  0  0  0  0
  3  7  1  0  0  0  0
  4 25  1  6  0  0  0
  5 10  1  0  0  0  0
  6  4  1  0  0  0  0
  7  8  1  1  0  0  0
  7  4  1  0  0  0  0
  9  6  1  0  0  0  0
 10  2  1  0  0  0  0
 11 14  1  1  0  0  0
 12 16  1  6  0  0  0
 15 11  1  0  0  0  0
 15 13  1  1  0  0  0
 17 21  1  6  0  0  0
 17 19  1  0  0  0  0
 17 18  1  0  0  0  0
 18 16  1  6  0  0  0
 18 12  1  0  0  0  0
 18 11  1  0  0  0  0
 19 15  1  0  0  0  0
 20 21  1  0  0  0  0
 22 21  2  0  0  0  0
 23 15  1  0  0  0  0
 24 23  1  0  0  0  0
 26 25  1  0  0  0  0
 27 26  1  0  0  0  0
 28 35  1  6  0  0  0
 28 31  1  0  0  0  0
 28 32  1  0  0  0  0
 29 33  1  0  0  0  0
 30 33  1  0  0  0  0
 31 29  1  0  0  0  0
 32 30  1  0  0  0  0
 33 27  1  0  0  0  0
 35 34  1  0  0  0  0
M  END
>  <MODEL>
2

>  <REMARK>
 VINA RESULT:      -7.1      2.821      8.645
  Name = 
  8 active torsions:
  status: ('A' for Active; 'I' for Inactive)
    1  A    between atoms: C_2  and  O_29
    2  A    between atoms: C_3  and  C_14
    3  A    between atoms: C_9  and  C_19
    4  A    between atoms: C_11  and  C_23
    5  A    between atoms: C_11  and  C_31
    6  A    between atoms: C_13  and  C_23
    7  A    between atoms: C_17  and  C_27
    8  A    between atoms: N_30  and  C_31
                            x       y       z     vdW  Elec       q    Type
                         _______ _______ _______ _____ _____    ______ ____

>  <TORSDO>
F 8

$$$$
=
 OpenBabel11062421593D

 35 39  0  0  1  0  0  0  0  0999 V2000
  189.2820  174.1040  145.5280 O   0  0  0  0  0  1  0  0  0  0  0  0
  190.0490  173.5460  144.5030 C   0  0  2  0  0  0  0  0  0  0  0  0
  188.4500  172.8980  142.0260 C   0  0  1  0  0  3  0  0  0  0  0  0
  188.7280  175.1210  141.2400 C   0  0  2  0  0  3  0  0  0  0  0  0
  189.3880  171.8770  142.6730 C   0  0  0  0  0  2  0  0  0  0  0  0
  188.3540  174.2230  140.1570 N   0  0  0  0  0  2  0  0  0  0  0  0
  188.6600  174.3230  142.5160 C   0  0  2  0  0  3  0  0  0  0  0  0
  189.9680  174.4900  143.2940 C   0  0  0  0  0  2  0  0  0  0  0  0
  188.6490  172.9150  140.5870 N   0  0  0  0  0  2  0  0  0  0  0  0
  189.4850  172.1430  144.1730 C   0  0  0  0  0  2  0  0  0  0  0  0
  193.7130  174.9440  144.9600 C   0  0  1  0  0  3  0  0  0  0  0  0
  191.5360  173.5120  144.9250 C   0  0  2  0  0  3  0  0  0  0  0  0
  194.3650  176.2100  142.8520 C   0  0  0  0  0  1  0  0  0  0  0  0
  194.2880  173.9040  144.2200 O   0  0  0  0  0  1  0  0  0  0  0  0
  193.9020  176.3220  144.3040 C   0  0  1  0  0  0  0  0  0  0  0  0
  191.7730  174.1830  146.1490 O   0  0  0  0  0  0  0  0  0  0  0  0
  191.6350  176.2020  144.7580 C   0  0  2  0  0  3  0  0  0  0  0  0
  192.2350  174.8320  144.9890 C   0  0  1  0  0  0  0  0  0  0  0  0
  192.6800  177.0490  144.3270 O   0  0  0  0  0  0  0  0  0  0  0  0
  191.6800  176.8280  147.1590 F   0  0  0  0  0  0  0  0  0  0  0  0
  191.0040  176.8020  145.9800 C   0  0  0  0  0  0  0  0  0  0  0  0
  189.8930  177.3020  145.9070 O   0  0  0  0  0  0  0  0  0  0  0  0
  194.9550  177.0770  145.1100 C   0  0  0  0  0  2  0  0  0  0  0  0
  194.5730  177.1790  146.5100 N   0  0  0  0  0  1  0  0  0  0  0  0
  187.7560  176.2870  141.2910 C   0  0  0  0  0  2  0  0  0  0  0  0
  188.4070  177.4870  141.9590 C   0  0  0  0  0  2  0  0  0  0  0  0
  187.6750  177.8330  143.2460 C   0  0  0  0  0  2  0  0  0  0  0  0
  185.0480  178.4810  145.6240 C   0  0  1  0  0  3  0  0  0  0  0  0
  185.5840  179.0090  143.2440 C   0  0  0  0  0  2  0  0  0  0  0  0
  185.6820  176.7030  143.9940 C   0  0  0  0  0  2  0  0  0  0  0  0
  185.6660  179.5110  144.6890 C   0  0  0  0  0  2  0  0  0  0  0  0
  185.7700  177.1530  145.4550 C   0  0  0  0  0  2  0  0  0  0  0  0
  186.2310  177.7020  143.0630 N   0  0  0  0  0  0  0  0  0  0  0  0
  186.3790  178.3830  147.3890 C   0  0  0  0  0  1  0  0  0  0  0  0
  185.1680  178.9160  146.9450 O   0  0  0  0  0  0  0  0  0  0  0  0
  2 12  1  0  0  0  0
  2  1  1  1  0  0  0
  3  7  1  0  0  0  0
  3  5  1  1  0  0  0
  4 25  1  1  0  0  0
  4  7  1  0  0  0  0
  5 10  1  0  0  0  0
  6  9  1  0  0  0  0
  6  4  1  0  0  0  0
  7  8  1  6  0  0  0
  8  2  1  0  0  0  0
  9  3  1  0  0  0  0
 10  2  1  0  0  0  0
 11 14  1  6  0  0  0
 11 18  1  0  0  0  0
 12 18  1  0  0  0  0
 12 16  1  1  0  0  0
 15 13  1  6  0  0  0
 15 19  1  0  0  0  0
 15 11  1  0  0  0  0
 15 23  1  0  0  0  0
 17 18  1  0  0  0  0
 17 21  1  1  0  0  0
 18 16  1  1  0  0  0
 19 17  1  0  0  0  0
 21 20  1  0  0  0  0
 22 21  2  0  0  0  0
 23 24  1  0  0  0  0
 25 26  1  0  0  0  0
 26 27  1  0  0  0  0
 28 35  1  1  0  0  0
 29 31  1  0  0  0  0
 30 32  1  0  0  0  0
 31 28  1  0  0  0  0
 32 28  1  0  0  0  0
 33 29  1  0  0  0  0
 33 27  1  0  0  0  0
 33 30  1  0  0  0  0
 35 34  1  0  0  0  0
M  END
>  <MODEL>
3

>  <REMARK>
 VINA RESULT:      -7.0      2.077      3.339
  Name = 
  8 active torsions:
  status: ('A' for Active; 'I' for Inactive)
    1  A    between atoms: C_2  and  O_29
    2  A    between atoms: C_3  and  C_14
    3  A    between atoms: C_9  and  C_19
    4  A    between atoms: C_11  and  C_23
    5  A    between atoms: C_11  and  C_31
    6  A    between atoms: C_13  and  C_23
    7  A    between atoms: C_17  and  C_27
    8  A    between atoms: N_30  and  C_31
                            x       y       z     vdW  Elec       q    Type
                         _______ _______ _______ _____ _____    ______ ____

>  <TORSDO>
F 8

$$$$
=
 OpenBabel11062421593D

 35 39  0  0  1  0  0  0  0  0999 V2000
  190.8080  174.4910  146.0600 O   0  0  0  0  0  1  0  0  0  0  0  0
  190.9610  173.9090  144.8000 C   0  0  2  0  0  0  0  0  0  0  0  0
  188.5300  174.2110  143.0360 C   0  0  1  0  0  3  0  0  0  0  0  0
  189.2890  176.3430  142.3200 C   0  0  2  0  0  3  0  0  0  0  0  0
  189.2130  172.8580  143.2470 C   0  0  0  0  0  2  0  0  0  0  0  0
  188.3000  175.8000  141.3990 N   0  0  0  0  0  2  0  0  0  0  0  0
  189.3660  175.3990  143.4910 C   0  0  2  0  0  3  0  0  0  0  0  0
  190.8260  175.0240  143.7520 C   0  0  0  0  0  2  0  0  0  0  0  0
  188.2470  174.4110  141.6250 N   0  0  0  0  0  2  0  0  0  0  0  0
  189.8730  172.8220  144.6230 C   0  0  0  0  0  2  0  0  0  0  0  0
  194.8180  174.0220  143.9640 C   0  0  1  0  0  3  0  0  0  0  0  0
  192.3960  173.3520  144.6540 C   0  0  2  0  0  3  0  0  0  0  0  0
  195.1440  175.3530  141.8210 C   0  0  0  0  0  1  0  0  0  0  0  0
  194.7260  172.9910  143.0210 O   0  0  0  0  0  1  0  0  0  0  0  0
  195.2460  175.3630  143.3460 C   0  0  1  0  0  0  0  0  0  0  0  0
  193.2340  173.7090  145.7390 O   0  0  0  0  0  0  0  0  0  0  0  0
  193.3560  175.8710  144.5810 C   0  0  2  0  0  3  0  0  0  0  0  0
  193.4880  174.3650  144.5190 C   0  0  1  0  0  0  0  0  0  0  0  0
  194.4280  176.4160  143.8400 O   0  0  0  0  0  0  0  0  0  0  0  0
  192.2550  176.7480  146.6270 F   0  0  0  0  0  0  0  0  0  0  0  0
  193.4040  176.4290  145.9740 C   0  0  0  0  0  0  0  0  0  0  0  0
  194.4780  176.5620  146.5380 O   0  0  0  0  0  0  0  0  0  0  0  0
  196.6960  175.6170  143.7500 C   0  0  0  0  0  2  0  0  0  0  0  0
  197.1810  176.8760  143.2060 N   0  0  0  0  0  1  0  0  0  0  0  0
  188.8510  177.7230  142.7780 C   0  0  0  0  0  2  0  0  0  0  0  0
  187.5760  178.1360  142.0620 C   0  0  0  0  0  2  0  0  0  0  0  0
  186.5610  178.6660  143.0610 C   0  0  0  0  0  2  0  0  0  0  0  0
  184.6350  177.9000  146.0090 C   0  0  1  0  0  3  0  0  0  0  0  0
  184.2340  178.4550  143.6080 C   0  0  0  0  0  2  0  0  0  0  0  0
  185.7820  176.6710  144.1650 C   0  0  0  0  0  2  0  0  0  0  0  0
  184.3370  179.0240  145.0270 C   0  0  0  0  0  2  0  0  0  0  0  0
  185.9210  177.2020  145.5950 C   0  0  0  0  0  2  0  0  0  0  0  0
  185.4460  177.7300  143.2010 N   0  0  0  0  0  0  0  0  0  0  0  0
  185.9500  177.8500  147.7880 C   0  0  0  0  0  1  0  0  0  0  0  0
  184.7790  178.4260  147.2940 O   0  0  0  0  0  0  0  0  0  0  0  0
  2  1  1  1  0  0  0
  3  5  1  6  0  0  0
  3  7  1  0  0  0  0
  4 25  1  1  0  0  0
  4  7  1  0  0  0  0
  5 10  1  0  0  0  0
  6  9  1  0  0  0  0
  6  4  1  0  0  0  0
  7  8  1  6  0  0  0
  8  2  1  0  0  0  0
  9  3  1  0  0  0  0
 10  2  1  0  0  0  0
 11 14  1  6  0  0  0
 11 18  1  0  0  0  0
 12  2  1  0  0  0  0
 12 16  1  1  0  0  0
 15 13  1  6  0  0  0
 15 23  1  0  0  0  0
 15 19  1  0  0  0  0
 15 11  1  0  0  0  0
 17 21  1  1  0  0  0
 18 17  1  0  0  0  0
 18 12  1  0  0  0  0
 18 16  1  1  0  0  0
 19 17  1  0  0  0  0
 21 22  2  0  0  0  0
 21 20  1  0  0  0  0
 24 23  1  0  0  0  0
 26 25  1  0  0  0  0
 26 27  1  0  0  0  0
 27 33  1  0  0  0  0
 28 35  1  1  0  0  0
 29 31  1  0  0  0  0
 30 32  1  0  0  0  0
 31 28  1  0  0  0  0
 32 28  1  0  0  0  0
 33 29  1  0  0  0  0
 33 30  1  0  0  0  0
 35 34  1  0  0  0  0
M  END
>  <MODEL>
4

>  <REMARK>
 VINA RESULT:      -7.0      2.023      3.232
  Name = 
  8 active torsions:
  status: ('A' for Active; 'I' for Inactive)
    1  A    between atoms: C_2  and  O_29
    2  A    between atoms: C_3  and  C_14
    3  A    between atoms: C_9  and  C_19
    4  A    between atoms: C_11  and  C_23
    5  A    between atoms: C_11  and  C_31
    6  A    between atoms: C_13  and  C_23
    7  A    between atoms: C_17  and  C_27
    8  A    between atoms: N_30  and  C_31
                            x       y       z     vdW  Elec       q    Type
                         _______ _______ _______ _____ _____    ______ ____

>  <TORSDO>
F 8

$$$$
=
 OpenBabel11062421593D

 35 39  0  0  1  0  0  0  0  0999 V2000
  193.0660  176.5440  143.1290 O   0  0  0  0  0  1  0  0  0  0  0  0
  193.3390  175.5490  144.0700 C   0  0  2  0  0  0  0  0  0  0  0  0
  192.1010  176.0810  146.7710 C   0  0  1  0  0  3  0  0  0  0  0  0
  190.0710  175.0760  146.0610 C   0  0  2  0  0  3  0  0  0  0  0  0
  193.5770  175.7120  146.6170 C   0  0  0  0  0  2  0  0  0  0  0  0
  190.1470  175.1390  147.5140 N   0  0  0  0  0  2  0  0  0  0  0  0
  191.2680  175.8170  145.5250 C   0  0  2  0  0  3  0  0  0  0  0  0
  191.9980  174.9390  144.5060 C   0  0  0  0  0  2  0  0  0  0  0  0
  191.5050  175.3100  147.8480 N   0  0  0  0  0  2  0  0  0  0  0  0
  194.0910  176.1900  145.2610 C   0  0  0  0  0  2  0  0  0  0  0  0
  195.7780  173.8920  141.4440 C   0  0  1  0  0  3  0  0  0  0  0  0
  194.1360  174.4050  143.4020 C   0  0  2  0  0  3  0  0  0  0  0  0
  195.2520  174.8380  139.1410 C   0  0  0  0  0  1  0  0  0  0  0  0
  194.8180  172.9680  141.0150 O   0  0  0  0  0  1  0  0  0  0  0  0
  196.2030  174.8720  140.3380 C   0  0  1  0  0  0  0  0  0  0  0  0
  195.5030  174.4010  143.7730 O   0  0  0  0  0  0  0  0  0  0  0  0
  195.6720  176.2260  142.1390 C   0  0  2  0  0  3  0  0  0  0  0  0
  195.2200  174.8180  142.4580 C   0  0  1  0  0  0  0  0  0  0  0  0
  196.2350  176.2020  140.8430 O   0  0  0  0  0  0  0  0  0  0  0  0
  196.3190  177.5940  144.1070 F   0  0  0  0  0  0  0  0  0  0  0  0
  196.6950  176.7680  143.0950 C   0  0  0  0  0  0  0  0  0  0  0  0
  197.8640  176.4360  142.9860 O   0  0  0  0  0  0  0  0  0  0  0  0
  197.6020  174.4720  139.8780 C   0  0  0  0  0  2  0  0  0  0  0  0
  197.5570  173.7760  138.6010 N   0  0  0  0  0  1  0  0  0  0  0  0
  188.7850  175.7340  145.5910 C   0  0  0  0  0  2  0  0  0  0  0  0
  187.9030  176.0750  146.7800 C   0  0  0  0  0  2  0  0  0  0  0  0
  187.4570  177.5270  146.7050 C   0  0  0  0  0  2  0  0  0  0  0  0
  184.8180  178.5980  144.4980 C   0  0  1  0  0  3  0  0  0  0  0  0
  185.2740  176.7360  146.0980 C   0  0  0  0  0  2  0  0  0  0  0  0
  185.5780  179.0290  146.8350 C   0  0  0  0  0  2  0  0  0  0  0  0
  185.3340  177.1720  144.6310 C   0  0  0  0  0  2  0  0  0  0  0  0
  185.6470  179.5150  145.3840 C   0  0  0  0  0  2  0  0  0  0  0  0
  186.0270  177.6360  146.9850 N   0  0  0  0  0  0  0  0  0  0  0  0
  184.0710  178.1590  142.4620 C   0  0  0  0  0  1  0  0  0  0  0  0
  184.9200  179.0110  143.1690 O   0  0  0  0  0  0  0  0  0  0  0  0
  2  1  1  6  0  0  0
  2  8  1  0  0  0  0
  2 10  1  0  0  0  0
  3  5  1  6  0  0  0
  3  9  1  0  0  0  0
  4 25  1  6  0  0  0
  4  6  1  0  0  0  0
  6  9  1  0  0  0  0
  7  8  1  6  0  0  0
  7  4  1  0  0  0  0
  7  3  1  0  0  0  0
 10  5  1  0  0  0  0
 11 14  1  6  0  0  0
 11 18  1  0  0  0  0
 12 16  1  1  0  0  0
 12  2  1  0  0  0  0
 15 13  1  6  0  0  0
 15 19  1  0  0  0  0
 15 11  1  0  0  0  0
 17 18  1  0  0  0  0
 17 21  1  1  0  0  0
 18 12  1  0  0  0  0
 18 16  1  1  0  0  0
 19 17  1  0  0  0  0
 21 20  1  0  0  0  0
 22 21  2  0  0  0  0
 23 15  1  0  0  0  0
 24 23  1  0  0  0  0
 25 26  1  0  0  0  0
 27 26  1  0  0  0  0
 27 33  1  0  0  0  0
 28 35  1  6  0  0  0
 28 31  1  0  0  0  0
 28 32  1  0  0  0  0
 29 33  1  0  0  0  0
 30 33  1  0  0  0  0
 31 29  1  0  0  0  0
 32 30  1  0  0  0  0
 34 35  1  0  0  0  0
M  END
>  <MODEL>
5

>  <REMARK>
 VINA RESULT:      -7.0      3.510      5.583
  Name = 
  8 active torsions:
  status: ('A' for Active; 'I' for Inactive)
    1  A    between atoms: C_2  and  O_29
    2  A    between atoms: C_3  and  C_14
    3  A    between atoms: C_9  and  C_19
    4  A    between atoms: C_11  and  C_23
    5  A    between atoms: C_11  and  C_31
    6  A    between atoms: C_13  and  C_23
    7  A    between atoms: C_17  and  C_27
    8  A    between atoms: N_30  and  C_31
                            x       y       z     vdW  Elec       q    Type
                         _______ _______ _______ _____ _____    ______ ____

>  <TORSDO>
F 8

$$$$
=
 OpenBabel11062421593D

 35 39  0  0  1  0  0  0  0  0999 V2000
  189.0950  177.0790  142.2210 O   0  0  0  0  0  1  0  0  0  0  0  0
  188.6390  175.7620  142.2980 C   0  0  2  0  0  0  0  0  0  0  0  0
  190.1910  173.8500  140.5520 C   0  0  1  0  0  3  0  0  0  0  0  0
  191.8060  173.5610  142.2680 C   0  0  2  0  0  3  0  0  0  0  0  0
  188.6620  173.9030  140.5330 C   0  0  0  0  0  2  0  0  0  0  0  0
  191.8680  172.4760  141.2990 N   0  0  0  0  0  2  0  0  0  0  0  0
  190.8160  174.5670  141.7400 C   0  0  2  0  0  3  0  0  0  0  0  0
  189.7940  174.8990  142.8300 C   0  0  0  0  0  2  0  0  0  0  0  0
  190.6400  172.4700  140.6090 N   0  0  0  0  0  2  0  0  0  0  0  0
  188.1890  175.3110  140.8880 C   0  0  0  0  0  2  0  0  0  0  0  0
  185.7070  177.0770  144.5920 C   0  0  1  0  0  3  0  0  0  0  0  0
  187.5090  175.6630  143.3490 C   0  0  2  0  0  3  0  0  0  0  0  0
  186.3930  179.3210  145.5760 C   0  0  0  0  0  1  0  0  0  0  0  0
  186.3280  176.6470  145.7710 O   0  0  0  0  0  1  0  0  0  0  0  0
  185.5480  178.6050  144.5230 C   0  0  1  0  0  0  0  0  0  0  0  0
  186.2200  175.6110  142.7630 O   0  0  0  0  0  0  0  0  0  0  0  0
  186.5350  178.0340  142.5080 C   0  0  2  0  0  3  0  0  0  0  0  0
  186.5590  176.8160  143.4080 C   0  0  1  0  0  0  0  0  0  0  0  0
  185.9360  179.0830  143.2400 O   0  0  0  0  0  0  0  0  0  0  0  0
  184.4230  177.6040  141.2760 F   0  0  0  0  0  0  0  0  0  0  0  0
  185.7620  177.8340  141.2370 C   0  0  0  0  0  0  0  0  0  0  0  0
  186.3320  177.9150  140.1610 O   0  0  0  0  0  0  0  0  0  0  0  0
  184.0750  178.9280  144.7580 C   0  0  0  0  0  2  0  0  0  0  0  0
  183.6930  178.6660  146.1370 N   0  0  0  0  0  1  0  0  0  0  0  0
  193.1790  174.1930  142.4120 C   0  0  0  0  0  2  0  0  0  0  0  0
  193.7130  173.9810  143.8190 C   0  0  0  0  0  2  0  0  0  0  0  0
  192.6950  174.4550  144.8440 C   0  0  0  0  0  2  0  0  0  0  0  0
  190.7620  176.7380  146.8510 C   0  0  1  0  0  3  0  0  0  0  0  0
  193.0180  175.6700  146.8880 C   0  0  0  0  0  2  0  0  0  0  0  0
  192.2920  176.8300  144.8830 C   0  0  0  0  0  2  0  0  0  0  0  0
  191.5720  175.5640  147.3820 C   0  0  0  0  0  2  0  0  0  0  0  0
  190.8310  176.7470  145.3320 C   0  0  0  0  0  2  0  0  0  0  0  0
  193.1100  175.7320  145.4220 N   0  0  0  0  0  0  0  0  0  0  0  0
  189.1410  175.2560  147.1230 C   0  0  0  0  0  1  0  0  0  0  0  0
  189.4330  176.6140  147.2610 O   0  0  0  0  0  0  0  0  0  0  0  0
  2  1  1  6  0  0  0
  2  8  1  0  0  0  0
  2 12  1  0  0  0  0
  3  5  1  1  0  0  0
  3  9  1  0  0  0  0
  3  7  1  0  0  0  0
  4 25  1  6  0  0  0
  5 10  1  0  0  0  0
  6  4  1  0  0  0  0
  7  4  1  0  0  0  0
  7  8  1  1  0  0  0
  9  6  1  0  0  0  0
 10  2  1  0  0  0  0
 11 14  1  1  0  0  0
 12 16  1  6  0  0  0
 12 18  1  0  0  0  0
 15 11  1  0  0  0  0
 15 23  1  0  0  0  0
 15 13  1  1  0  0  0
 17 21  1  6  0  0  0
 17 19  1  0  0  0  0
 17 18  1  0  0  0  0
 18 16  1  6  0  0  0
 18 11  1  0  0  0  0
 19 15  1  0  0  0  0
 21 20  1  0  0  0  0
 22 21  2  0  0  0  0
 23 24  1  0  0  0  0
 25 26  1  0  0  0  0
 26 27  1  0  0  0  0
 27 33  1  0  0  0  0
 28 35  1  6  0  0  0
 28 31  1  0  0  0  0
 29 31  1  0  0  0  0
 30 32  1  0  0  0  0
 30 33  1  0  0  0  0
 32 28  1  0  0  0  0
 33 29  1  0  0  0  0
 34 35  1  0  0  0  0
M  END
>  <MODEL>
6

>  <REMARK>
 VINA RESULT:      -6.8      3.028      7.069
  Name = 
  8 active torsions:
  status: ('A' for Active; 'I' for Inactive)
    1  A    between atoms: C_2  and  O_29
    2  A    between atoms: C_3  and  C_14
    3  A    between atoms: C_9  and  C_19
    4  A    between atoms: C_11  and  C_23
    5  A    between atoms: C_11  and  C_31
    6  A    between atoms: C_13  and  C_23
    7  A    between atoms: C_17  and  C_27
    8  A    between atoms: N_30  and  C_31
                            x       y       z     vdW  Elec       q    Type
                         _______ _______ _______ _____ _____    ______ ____

>  <TORSDO>
F 8

$$$$
=
 OpenBabel11062421593D

 35 39  0  0  1  0  0  0  0  0999 V2000
  189.3280  174.9380  145.1010 O   0  0  0  0  0  1  0  0  0  0  0  0
  190.2890  175.9490  145.1770 C   0  0  2  0  0  0  0  0  0  0  0  0
  192.8350  175.0830  146.5480 C   0  0  1  0  0  3  0  0  0  0  0  0
  193.6700  174.2230  144.4990 C   0  0  2  0  0  3  0  0  0  0  0  0
  192.1030  176.3690  146.9380 C   0  0  0  0  0  2  0  0  0  0  0  0
  194.7460  174.4400  145.4560 N   0  0  0  0  0  2  0  0  0  0  0  0
  192.3760  174.4940  145.2220 C   0  0  2  0  0  3  0  0  0  0  0  0
  191.5280  175.4720  144.4050 C   0  0  0  0  0  2  0  0  0  0  0  0
  194.2600  175.3400  146.4240 N   0  0  0  0  0  2  0  0  0  0  0  0
  190.6090  176.2150  146.6680 C   0  0  0  0  0  2  0  0  0  0  0  0
  187.6580  178.2470  143.3360 C   0  0  1  0  0  3  0  0  0  0  0  0
  189.7790  177.2080  144.4370 C   0  0  2  0  0  3  0  0  0  0  0  0
  186.2690  176.7970  141.7730 C   0  0  0  0  0  1  0  0  0  0  0  0
  188.4310  178.3350  142.1710 O   0  0  0  0  0  1  0  0  0  0  0  0
  186.3130  177.5360  143.1100 C   0  0  1  0  0  0  0  0  0  0  0  0
  189.0520  178.0810  145.2820 O   0  0  0  0  0  0  0  0  0  0  0  0
  187.2370  176.4620  144.9420 C   0  0  2  0  0  3  0  0  0  0  0  0
  188.2950  177.3610  144.3390 C   0  0  1  0  0  0  0  0  0  0  0  0
  186.0750  176.5930  144.1480 O   0  0  0  0  0  0  0  0  0  0  0  0
  187.4380  176.1050  147.3900 F   0  0  0  0  0  0  0  0  0  0  0  0
  186.8880  176.8030  146.3610 C   0  0  0  0  0  0  0  0  0  0  0  0
  186.1350  177.7340  146.5950 O   0  0  0  0  0  0  0  0  0  0  0  0
  185.2190  178.5990  143.1320 C   0  0  0  0  0  2  0  0  0  0  0  0
  185.6280  179.7600  143.9070 N   0  0  0  0  0  1  0  0  0  0  0  0
  193.7120  172.7870  144.0050 C   0  0  0  0  0  2  0  0  0  0  0  0
  192.3060  172.2180  143.9200 C   0  0  0  0  0  2  0  0  0  0  0  0
  191.8150  172.2430  142.4810 C   0  0  0  0  0  2  0  0  0  0  0  0
  188.7660  172.9060  140.6800 C   0  0  1  0  0  3  0  0  0  0  0  0
  190.4390  171.0670  140.9050 C   0  0  0  0  0  2  0  0  0  0  0  0
  189.4530  172.0210  142.9090 C   0  0  0  0  0  2  0  0  0  0  0  0
  190.0270  172.2940  140.0860 C   0  0  0  0  0  2  0  0  0  0  0  0
  189.0230  173.2700  142.1340 C   0  0  0  0  0  2  0  0  0  0  0  0
  190.6440  171.3810  142.3270 N   0  0  0  0  0  0  0  0  0  0  0  0
  188.6870  173.7370  138.6300 C   0  0  0  0  0  1  0  0  0  0  0  0
  188.4200  174.0530  139.9630 O   0  0  0  0  0  0  0  0  0  0  0  0
  2  1  1  6  0  0  0
  2 10  1  0  0  0  0
  3  5  1  6  0  0  0
  4 25  1  1  0  0  0
  4  7  1  0  0  0  0
  4  6  1  0  0  0  0
  6  9  1  0  0  0  0
  7  8  1  6  0  0  0
  7  3  1  0  0  0  0
  8  2  1  0  0  0  0
  9  3  1  0  0  0  0
 10  5  1  0  0  0  0
 11 14  1  6  0  0  0
 11 18  1  0  0  0  0
 12  2  1  0  0  0  0
 12 16  1  1  0  0  0
 15 13  1  6  0  0  0
 15 23  1  0  0  0  0
 15 11  1  0  0  0  0
 15 19  1  0  0  0  0
 17 21  1  1  0  0  0
 18 12  1  0  0  0  0
 18 17  1  0  0  0  0
 18 16  1  1  0  0  0
 19 17  1  0  0  0  0
 21 22  2  0  0  0  0
 21 20  1  0  0  0  0
 23 24  1  0  0  0  0
 26 25  1  0  0  0  0
 27 26  1  0  0  0  0
 28 35  1  6  0  0  0
 28 32  1  0  0  0  0
 29 33  1  0  0  0  0
 31 28  1  0  0  0  0
 31 29  1  0  0  0  0
 32 30  1  0  0  0  0
 33 27  1  0  0  0  0
 33 30  1  0  0  0  0
 34 35  1  0  0  0  0
M  END
>  <MODEL>
7

>  <REMARK>
 VINA RESULT:      -6.8      2.626      7.866
  Name = 
  8 active torsions:
  status: ('A' for Active; 'I' for Inactive)
    1  A    between atoms: C_2  and  O_29
    2  A    between atoms: C_3  and  C_14
    3  A    between atoms: C_9  and  C_19
    4  A    between atoms: C_11  and  C_23
    5  A    between atoms: C_11  and  C_31
    6  A    between atoms: C_13  and  C_23
    7  A    between atoms: C_17  and  C_27
    8  A    between atoms: N_30  and  C_31
                            x       y       z     vdW  Elec       q    Type
                         _______ _______ _______ _____ _____    ______ ____

>  <TORSDO>
F 8

$$$$
=
 OpenBabel11062421593D

 35 39  0  0  1  0  0  0  0  0999 V2000
  189.9120  174.9110  144.7040 O   0  0  0  0  0  1  0  0  0  0  0  0
  190.7750  175.9920  144.8960 C   0  0  2  0  0  0  0  0  0  0  0  0
  193.2400  175.2910  146.4900 C   0  0  1  0  0  3  0  0  0  0  0  0
  194.3350  174.5620  144.5140 C   0  0  2  0  0  3  0  0  0  0  0  0
  192.3710  176.5010  146.8360 C   0  0  0  0  0  2  0  0  0  0  0  0
  195.2930  174.8350  145.5770 N   0  0  0  0  0  2  0  0  0  0  0  0
  192.9610  174.7070  145.1130 C   0  0  2  0  0  3  0  0  0  0  0  0
  192.1180  175.6390  144.2400 C   0  0  0  0  0  2  0  0  0  0  0  0
  194.6440  175.6630  146.5130 N   0  0  0  0  0  2  0  0  0  0  0  0
  190.9270  176.2380  146.4170 C   0  0  0  0  0  2  0  0  0  0  0  0
  188.0870  178.2140  143.0450 C   0  0  1  0  0  3  0  0  0  0  0  0
  190.2370  177.2290  144.1390 C   0  0  2  0  0  3  0  0  0  0  0  0
  186.7000  176.7130  141.5300 C   0  0  0  0  0  1  0  0  0  0  0  0
  188.8430  178.2900  141.8690 O   0  0  0  0  0  1  0  0  0  0  0  0
  186.7500  177.4790  142.8510 C   0  0  1  0  0  0  0  0  0  0  0  0
  189.5070  178.1080  144.9760 O   0  0  0  0  0  0  0  0  0  0  0  0
  187.7130  176.4560  144.6910 C   0  0  2  0  0  3  0  0  0  0  0  0
  188.7500  177.3580  144.0570 C   0  0  1  0  0  0  0  0  0  0  0  0
  186.5390  176.5530  143.9110 O   0  0  0  0  0  0  0  0  0  0  0  0
  186.7540  177.9960  146.3870 F   0  0  0  0  0  0  0  0  0  0  0  0
  187.3770  176.8200  146.1080 C   0  0  0  0  0  0  0  0  0  0  0  0
  187.6320  176.0410  147.0120 O   0  0  0  0  0  0  0  0  0  0  0  0
  185.6400  178.5260  142.8660 C   0  0  0  0  0  2  0  0  0  0  0  0
  185.9360  179.5940  143.8080 N   0  0  0  0  0  1  0  0  0  0  0  0
  194.5420  173.1490  143.9950 C   0  0  0  0  0  2  0  0  0  0  0  0
  194.3300  173.1040  142.4910 C   0  0  0  0  0  2  0  0  0  0  0  0
  193.0640  172.3300  142.1620 C   0  0  0  0  0  2  0  0  0  0  0  0
  189.7530  172.7460  140.8030 C   0  0  1  0  0  3  0  0  0  0  0  0
  191.9860  173.8520  140.6510 C   0  0  0  0  0  2  0  0  0  0  0  0
  191.8260  171.4570  140.2880 C   0  0  0  0  0  2  0  0  0  0  0  0
  190.6270  173.8630  141.3570 C   0  0  0  0  0  2  0  0  0  0  0  0
  190.4650  171.4150  140.9880 C   0  0  0  0  0  2  0  0  0  0  0  0
  192.6740  172.5580  140.7720 N   0  0  0  0  0  0  0  0  0  0  0  0
  188.8450  172.2730  142.7640 C   0  0  0  0  0  1  0  0  0  0  0  0
  188.5330  172.7250  141.4810 O   0  0  0  0  0  0  0  0  0  0  0  0
  2  1  1  6  0  0  0
  2 10  1  0  0  0  0
  3  9  1  0  0  0  0
  3  5  1  6  0  0  0
  4 25  1  1  0  0  0
  4  7  1  0  0  0  0
  4  6  1  0  0  0  0
  6  9  1  0  0  0  0
  7  8  1  6  0  0  0
  7  3  1  0  0  0  0
  8  2  1  0  0  0  0
 10  5  1  0  0  0  0
 11 14  1  6  0  0  0
 11 18  1  0  0  0  0
 12  2  1  0  0  0  0
 12 16  1  1  0  0  0
 15 13  1  6  0  0  0
 15 23  1  0  0  0  0
 15 11  1  0  0  0  0
 15 19  1  0  0  0  0
 17 21  1  1  0  0  0
 18 12  1  0  0  0  0
 18 17  1  0  0  0  0
 18 16  1  1  0  0  0
 19 17  1  0  0  0  0
 21 20  1  0  0  0  0
 21 22  2  0  0  0  0
 23 24  1  0  0  0  0
 26 25  1  0  0  0  0
 27 26  1  0  0  0  0
 28 32  1  0  0  0  0
 28 31  1  0  0  0  0
 28 35  1  1  0  0  0
 29 33  1  0  0  0  0
 29 31  1  0  0  0  0
 30 33  1  0  0  0  0
 30 32  1  0  0  0  0
 33 27  1  0  0  0  0
 35 34  1  0  0  0  0
M  END
>  <MODEL>
8

>  <REMARK>
 VINA RESULT:      -6.7      2.720      7.945
  Name = 
  8 active torsions:
  status: ('A' for Active; 'I' for Inactive)
    1  A    between atoms: C_2  and  O_29
    2  A    between atoms: C_3  and  C_14
    3  A    between atoms: C_9  and  C_19
    4  A    between atoms: C_11  and  C_23
    5  A    between atoms: C_11  and  C_31
    6  A    between atoms: C_13  and  C_23
    7  A    between atoms: C_17  and  C_27
    8  A    between atoms: N_30  and  C_31
                            x       y       z     vdW  Elec       q    Type
                         _______ _______ _______ _____ _____    ______ ____

>  <TORSDO>
F 8

$$$$
=
 OpenBabel11062421593D

 35 39  0  0  1  0  0  0  0  0999 V2000
  190.7210  174.9090  143.7100 O   0  0  0  0  0  1  0  0  0  0  0  0
  191.4020  176.0800  144.0490 C   0  0  2  0  0  0  0  0  0  0  0  0
  194.0720  175.5770  145.3640 C   0  0  1  0  0  3  0  0  0  0  0  0
  195.1100  175.3980  143.2370 C   0  0  2  0  0  3  0  0  0  0  0  0
  193.0430  176.5360  145.9650 C   0  0  0  0  0  2  0  0  0  0  0  0
  196.0920  175.6580  144.2810 N   0  0  0  0  0  2  0  0  0  0  0  0
  193.7840  175.1910  143.9210 C   0  0  2  0  0  3  0  0  0  0  0  0
  192.7280  176.0890  143.2720 C   0  0  0  0  0  2  0  0  0  0  0  0
  195.3910  176.1870  145.3820 N   0  0  0  0  0  2  0  0  0  0  0  0
  191.6350  176.0910  145.5790 C   0  0  0  0  0  2  0  0  0  0  0  0
  188.2490  178.0480  142.7170 C   0  0  1  0  0  3  0  0  0  0  0  0
  190.6040  177.3080  143.5530 C   0  0  2  0  0  3  0  0  0  0  0  0
  187.0740  176.6120  140.9770 C   0  0  0  0  0  1  0  0  0  0  0  0
  188.9080  178.4810  141.5600 O   0  0  0  0  0  1  0  0  0  0  0  0
  187.0610  177.1200  142.4190 C   0  0  1  0  0  0  0  0  0  0  0  0
  189.7770  177.8640  144.5590 O   0  0  0  0  0  0  0  0  0  0  0  0
  188.3010  175.9810  144.0070 C   0  0  2  0  0  3  0  0  0  0  0  0
  189.1160  177.1640  143.5320 C   0  0  1  0  0  0  0  0  0  0  0  0
  187.0850  175.9940  143.2870 O   0  0  0  0  0  0  0  0  0  0  0  0
  188.6430  175.1820  146.3330 F   0  0  0  0  0  0  0  0  0  0  0  0
  187.9880  176.0090  145.4750 C   0  0  0  0  0  0  0  0  0  0  0  0
  187.1690  176.8030  145.9070 O   0  0  0  0  0  0  0  0  0  0  0  0
  185.7800  177.9160  142.6580 C   0  0  0  0  0  2  0  0  0  0  0  0
  186.0620  179.1750  143.3290 N   0  0  0  0  0  1  0  0  0  0  0  0
  195.5090  174.1540  142.4630 C   0  0  0  0  0  2  0  0  0  0  0  0
  196.9000  173.7010  142.8740 C   0  0  0  0  0  2  0  0  0  0  0  0
  196.8790  172.2330  143.2690 C   0  0  0  0  0  2  0  0  0  0  0  0
  195.7570  170.2450  146.0570 C   0  0  1  0  0  3  0  0  0  0  0  0
  197.8570  170.6270  144.7610 C   0  0  0  0  0  2  0  0  0  0  0  0
  196.6520  172.5380  145.6490 C   0  0  0  0  0  2  0  0  0  0  0  0
  196.6130  169.7440  144.9030 C   0  0  0  0  0  2  0  0  0  0  0  0
  195.3820  171.6980  145.8070 C   0  0  0  0  0  2  0  0  0  0  0  0
  197.5220  172.0460  144.5690 N   0  0  0  0  0  0  0  0  0  0  0  0
  194.7690  168.7190  147.3170 C   0  0  0  0  0  1  0  0  0  0  0  0
  194.6000  169.4710  146.1530 O   0  0  0  0  0  0  0  0  0  0  0  0
  2  1  1  6  0  0  0
  2 10  1  0  0  0  0
  3  9  1  0  0  0  0
  3  5  1  6  0  0  0
  4 25  1  1  0  0  0
  4  7  1  0  0  0  0
  4  6  1  0  0  0  0
  6  9  1  0  0  0  0
  7  8  1  6  0  0  0
  7  3  1  0  0  0  0
  8  2  1  0  0  0  0
 10  5  1  0  0  0  0
 11 14  1  6  0  0  0
 11 18  1  0  0  0  0
 12  2  1  0  0  0  0
 12 16  1  1  0  0  0
 15 13  1  6  0  0  0
 15 23  1  0  0  0  0
 15 11  1  0  0  0  0
 15 19  1  0  0  0  0
 17 21  1  1  0  0  0
 18 12  1  0  0  0  0
 18 17  1  0  0  0  0
 18 16  1  1  0  0  0
 19 17  1  0  0  0  0
 21 22  2  0  0  0  0
 21 20  1  0  0  0  0
 23 24  1  0  0  0  0
 25 26  1  0  0  0  0
 26 27  1  0  0  0  0
 27 33  1  0  0  0  0
 28 35  1  6  0  0  0
 29 31  1  0  0  0  0
 30 32  1  0  0  0  0
 31 28  1  0  0  0  0
 32 28  1  0  0  0  0
 33 29  1  0  0  0  0
 33 30  1  0  0  0  0
 35 34  1  0  0  0  0
M  END
>  <MODEL>
9

>  <REMARK>
 VINA RESULT:      -6.3      2.609      9.006
  Name = 
  8 active torsions:
  status: ('A' for Active; 'I' for Inactive)
    1  A    between atoms: C_2  and  O_29
    2  A    between atoms: C_3  and  C_14
    3  A    between atoms: C_9  and  C_19
    4  A    between atoms: C_11  and  C_23
    5  A    between atoms: C_11  and  C_31
    6  A    between atoms: C_13  and  C_23
    7  A    between atoms: C_17  and  C_27
    8  A    between atoms: N_30  and  C_31
                            x       y       z     vdW  Elec       q    Type
                         _______ _______ _______ _____ _____    ______ ____

>  <TORSDO>
F 8

$$$$
