=
 OpenBabel11072409453D

 59 64  0  0  1  0  0  0  0  0999 V2000
  193.4820  170.8780  143.3010 C   0  0  1  0  0  3  0  0  0  0  0  0
  194.5490  171.1070  145.5900 C   0  0  0  0  0  2  0  0  0  0  0  0
  194.6490  169.0260  144.5060 C   0  0  0  0  0  2  0  0  0  0  0  0
  196.9500  171.5700  145.1830 C   0  0  0  0  0  1  0  0  0  0  0  0
  193.7410  170.2250  144.6730 C   0  0  2  0  0  3  0  0  0  0  0  0
  195.9380  170.5090  145.5740 C   0  0  2  0  0  3  0  0  0  0  0  0
  195.9800  169.4530  144.6490 O   0  0  0  0  0  0  0  0  0  0  0  0
  192.0170  171.0850  143.0880 C   0  0  0  0  0  3  0  0  0  0  0  0
  191.2730  171.7040  143.9620 C   0  0  0  0  0  0  0  0  0  0  0  0
  190.5110  172.3340  144.8180 C   0  0  0  0  0  3  0  0  0  0  0  0
  191.4350  175.9960  144.6430 C   0  0  0  0  0  0  0  0  0  0  0  0
  189.1360  175.8060  145.2720 C   0  0  0  0  0  0  0  0  0  0  0  0
  190.4370  173.8010  144.8770 C   0  0  0  0  0  0  0  0  0  0  0  0
  189.2330  174.4080  145.2270 C   0  0  0  0  0  3  0  0  0  0  0  0
  190.2360  176.5590  144.9800 N   0  0  0  0  0  0  0  0  0  0  0  0
  191.5390  174.6040  144.5740 C   0  0  0  0  0  3  0  0  0  0  0  0
  187.3870  176.5340  146.8360 C   0  0  0  0  0  3  0  0  0  0  0  0
  185.7820  177.3050  146.9950 S   0  0  0  0  0  0  0  0  0  0  0  0
  186.9490  177.0190  144.6240 N   0  0  0  0  0  0  0  0  0  0  0  0
  187.8270  176.4400  145.5910 C   0  0  0  0  0  0  0  0  0  0  0  0
  185.7760  177.6630  145.2030 C   0  0  2  0  0  3  0  0  0  0  0  0
  187.1030  176.8880  143.1810 C   0  0  0  0  0  2  0  0  0  0  0  0
  186.5820  175.6640  142.7590 O   0  0  0  0  0  1  0  0  0  0  0  0
  184.9620  179.7890  144.2480 C   0  0  0  0  0  2  0  0  0  0  0  0
  185.8430  179.1480  145.0170 C   0  0  0  0  0  3  0  0  0  0  0  0
  192.6170  176.8190  144.2870 C   0  0  0  0  0  0  0  0  0  0  0  0
  193.6380  177.1750  145.2270 N   0  0  0  0  0  2  0  0  0  0  0  0
  192.7340  177.2350  143.1030 O   0  0  0  0  0  0  0  0  0  0  0  0
  193.8010  176.6100  146.5560 C   0  0  0  0  0  2  0  0  0  0  0  0
  194.6030  175.4710  146.4880 O   0  0  0  0  0  1  0  0  0  0  0  0
  194.1540  172.2420  143.1630 C   0  0  0  0  0  2  0  0  0  0  0  0
  195.2110  172.2400  142.0600 C   0  0  2  0  0  3  0  0  0  0  0  0
  195.4920  174.5560  142.5740 O   0  0  0  0  0  1  0  0  0  0  0  0
  197.1030  173.6720  141.2120 O   0  0  0  0  0  0  0  0  0  0  0  0
  195.9330  173.5520  141.9590 C   0  0  0  0  0  0  0  0  0  0  0  0
  194.6640  171.8040  140.7300 C   0  0  0  0  0  0  0  0  0  0  0  0
  194.8890  170.6260  140.3360 O   0  0  0  0  0  0  0  0  0  0  0  0
  193.9130  172.7030  139.8910 N   0  0  0  0  0  0  0  0  0  0  0  0
  192.4740  172.6620  139.9320 C   0  0  0  0  0  0  0  0  0  0  0  0
  190.2830  173.7250  140.5180 C   0  0  0  0  0  0  0  0  0  0  0  0
  191.7660  171.5060  139.2910 C   0  0  0  0  0  2  0  0  0  0  0  0
  189.9880  172.8280  138.1760 C   0  0  0  0  0  0  0  0  0  0  0  0
  192.4460  174.6070  141.2780 O   0  0  0  0  0  1  0  0  0  0  0  0
  189.6430  174.2530  141.6320 O   0  0  0  0  0  1  0  0  0  0  0  0
  191.0010  171.9630  138.0930 C   0  0  0  0  0  3  0  0  0  0  0  0
  189.5250  173.4080  139.4540 C   0  0  0  0  0  3  0  0  0  0  0  0
  191.7690  173.6360  140.5480 C   0  0  0  0  0  0  0  0  0  0  0  0
  189.2960  173.1250  137.0490 F   0  0  0  0  0  0  0  0  0  0  0  0
  193.7150  174.5290  138.2330 C   0  0  0  0  0  2  0  0  0  0  0  0
  195.4370  173.4090  136.1710 C   0  0  1  0  0  3  0  0  0  0  0  0
  195.5250  172.6870  134.8360 C   0  0  0  0  0  1  0  0  0  0  0  0
  194.4420  174.5850  136.1070 C   0  0  1  0  0  3  0  0  0  0  0  0
  194.5630  173.3710  138.7550 C   0  0  2  0  0  3  0  0  0  0  0  0
  194.9010  172.1790  137.4140 S   0  0  0  0  0  0  0  0  0  0  0  0
  194.4630  175.2900  137.3260 O   0  0  0  0  0  0  0  0  0  0  0  0
  195.7920  176.6000  135.2530 C   0  0  0  0  0  0  0  0  0  0  0  0
  194.2840  176.8380  135.1920 C   0  0  0  0  0  2  0  0  0  0  0  0
  194.7590  175.5130  134.9190 C   0  0  2  0  0  3  0  0  0  0  0  0
  196.9380  176.9760  135.4400 O   0  0  0  0  0  0  0  0  0  0  0  0
  1  8  1  1  0  0  0
  3  7  1  0  0  0  0
  3  5  1  0  0  0  0
  5  1  1  6  0  0  0
  5  2  1  0  0  0  0
  6  4  1  6  0  0  0
  6  2  1  0  0  0  0
  7  6  1  0  0  0  0
  8  9  2  0  0  0  0
  9 10  2  0  0  0  0
 10 13  1  0  0  0  0
 11 15  1  0  0  0  0
 12 20  1  0  0  0  0
 13 14  2  0  0  0  0
 14 12  1  0  0  0  0
 15 12  2  0  0  0  0
 16 11  2  0  0  0  0
 16 13  1  0  0  0  0
 17 18  1  0  0  0  0
 19 21  1  0  0  0  0
 19 20  1  0  0  0  0
 20 17  2  0  0  0  0
 21 25  1  1  0  0  0
 21 18  1  0  0  0  0
 22 19  1  0  0  0  0
 23 22  1  0  0  0  0
 24 25  2  0  0  0  0
 26 11  1  0  0  0  0
 26 27  1  0  0  0  0
 27 29  1  0  0  0  0
 28 26  2  0  0  0  0
 30 29  1  0  0  0  0
 31  1  1  0  0  0  0
 32 31  1  1  0  0  0
 34 35  2  0  0  0  0
 35 32  1  0  0  0  0
 35 33  1  0  0  0  0
 36 32  1  0  0  0  0
 37 36  2  0  0  0  0
 38 39  1  0  0  0  0
 38 36  1  0  0  0  0
 39 47  2  0  0  0  0
 40 47  1  0  0  0  0
 40 44  1  0  0  0  0
 41 39  1  0  0  0  0
 42 46  1  0  0  0  0
 45 42  2  0  0  0  0
 45 41  1  0  0  0  0
 46 40  2  0  0  0  0
 47 43  1  0  0  0  0
 48 42  1  0  0  0  0
 49 53  1  0  0  0  0
 50 51  1  6  0  0  0
 50 54  1  0  0  0  0
 52 50  1  0  0  0  0
 52 55  1  1  0  0  0
 53 38  1  1  0  0  0
 54 53  1  0  0  0  0
 55 49  1  0  0  0  0
 56 59  2  0  0  0  0
 57 56  1  0  0  0  0
 58 57  1  1  0  0  0
 58 56  1  0  0  0  0
 58 52  1  0  0  0  0
M  END
>  <MODEL>
1

>  <REMARK>
 VINA RESULT:      -6.6      0.000      0.000
  Name = 
  15 active torsions:
  status: ('A' for Active; 'I' for Inactive)
    1  A    between atoms: C_2  and  N_29
    2  A    between atoms: C_3  and  C_4
    3  A    between atoms: C_4  and  C_15
    4  A    between atoms: C_4  and  C_38
    5  A    between atoms: C_5  and  C_6
    6  A    between atoms: C_7  and  N_49
    7  A    between atoms: C_14  and  C_33
    8  A    between atoms: C_15  and  C_52
    9  A    between atoms: C_18  and  C_50
   10  A    between atoms: C_19  and  C_52
   11  A    between atoms: C_20  and  C_25
   12  A    between atoms: N_31  and  C_43
   13  A    between atoms: C_36  and  N_49
   14  A    between atoms: C_37  and  C_41
   15  A    between atoms: C_52  and  C_59
                            x       y       z     vdW  Elec       q    Type
                         _______ _______ _______ _____ _____    ______ ____

>  <TORSDO>
F 15

$$$$
=
 OpenBabel11072409453D

 59 64  0  0  1  0  0  0  0  0999 V2000
  191.2460  172.4730  140.8430 C   0  0  1  0  0  3  0  0  0  0  0  0
  192.4860  172.7820  143.0340 C   0  0  0  0  0  2  0  0  0  0  0  0
  190.7960  171.1550  142.9180 C   0  0  0  0  0  2  0  0  0  0  0  0
  194.2890  171.0810  143.0450 C   0  0  0  0  0  1  0  0  0  0  0  0
  191.1520  172.5240  142.3810 C   0  0  2  0  0  3  0  0  0  0  0  0
  192.9140  171.4370  143.5790 C   0  0  2  0  0  3  0  0  0  0  0  0
  191.9860  170.4580  143.1850 O   0  0  0  0  0  0  0  0  0  0  0  0
  190.3630  173.5110  140.2300 C   0  0  0  0  0  3  0  0  0  0  0  0
  189.2480  173.8890  140.7900 C   0  0  0  0  0  0  0  0  0  0  0  0
  188.1330  174.2930  141.3420 C   0  0  0  0  0  3  0  0  0  0  0  0
  187.0800  177.1630  143.5670 C   0  0  0  0  0  0  0  0  0  0  0  0
  189.1040  176.2200  144.4240 C   0  0  0  0  0  0  0  0  0  0  0  0
  188.1050  175.2900  142.4220 C   0  0  0  0  0  0  0  0  0  0  0  0
  189.1200  175.2890  143.3760 C   0  0  0  0  0  3  0  0  0  0  0  0
  188.0860  177.1280  144.4900 N   0  0  0  0  0  0  0  0  0  0  0  0
  187.0750  176.2280  142.5290 C   0  0  0  0  0  3  0  0  0  0  0  0
  189.9590  175.5840  146.6370 C   0  0  0  0  0  3  0  0  0  0  0  0
  191.3530  175.6580  147.7540 S   0  0  0  0  0  0  0  0  0  0  0  0
  191.4800  176.7020  145.3130 N   0  0  0  0  0  0  0  0  0  0  0  0
  190.1650  176.1690  145.4680 C   0  0  0  0  0  0  0  0  0  0  0  0
  192.3620  176.4360  146.4430 C   0  0  2  0  0  3  0  0  0  0  0  0
  191.9060  177.5500  144.2070 C   0  0  0  0  0  2  0  0  0  0  0  0
  192.3210  176.7580  143.1350 O   0  0  0  0  0  1  0  0  0  0  0  0
  193.2730  174.1620  146.1360 C   0  0  0  0  0  2  0  0  0  0  0  0
  193.4490  175.4810  146.0530 C   0  0  0  0  0  3  0  0  0  0  0  0
  185.9560  178.1270  143.6650 C   0  0  0  0  0  0  0  0  0  0  0  0
  184.9810  178.0920  144.7150 N   0  0  0  0  0  2  0  0  0  0  0  0
  185.8420  179.0190  142.7830 O   0  0  0  0  0  0  0  0  0  0  0  0
  185.0720  177.3000  145.9300 C   0  0  0  0  0  2  0  0  0  0  0  0
  185.0020  178.1380  147.0430 O   0  0  0  0  0  1  0  0  0  0  0  0
  192.6620  172.7280  140.3320 C   0  0  0  0  0  2  0  0  0  0  0  0
  192.9570  171.9250  139.0650 C   0  0  2  0  0  3  0  0  0  0  0  0
  191.8230  169.9140  138.4540 O   0  0  0  0  0  0  0  0  0  0  0  0
  193.2680  169.7060  140.2150 O   0  0  0  0  0  1  0  0  0  0  0  0
  192.6440  170.4660  139.2290 C   0  0  0  0  0  0  0  0  0  0  0  0
  194.3520  172.1410  138.5510 C   0  0  0  0  0  0  0  0  0  0  0  0
  195.0360  171.1370  138.2080 O   0  0  0  0  0  0  0  0  0  0  0  0
  194.9300  173.4580  138.4680 N   0  0  0  0  0  0  0  0  0  0  0  0
  194.8970  174.1580  137.2090 C   0  0  0  0  0  0  0  0  0  0  0  0
  193.7910  175.7720  135.6460 C   0  0  0  0  0  0  0  0  0  0  0  0
  196.0580  174.0130  136.2710 C   0  0  0  0  0  2  0  0  0  0  0  0
  196.2350  176.4060  135.6430 C   0  0  0  0  0  0  0  0  0  0  0  0
  192.7030  174.9100  137.6720 O   0  0  0  0  0  1  0  0  0  0  0  0
  192.5610  175.9490  135.0250 O   0  0  0  0  0  1  0  0  0  0  0  0
  196.7960  175.3060  136.1500 C   0  0  0  0  0  3  0  0  0  0  0  0
  194.8430  176.4490  135.1520 C   0  0  0  0  0  3  0  0  0  0  0  0
  193.8370  174.9220  136.8670 C   0  0  0  0  0  0  0  0  0  0  0  0
  197.0020  177.5140  135.4940 F   0  0  0  0  0  0  0  0  0  0  0  0
  196.1380  172.8340  140.5360 C   0  0  0  0  0  2  0  0  0  0  0  0
  196.4710  175.5040  141.6460 C   0  0  1  0  0  3  0  0  0  0  0  0
  195.9950  176.5320  142.6590 C   0  0  0  0  0  1  0  0  0  0  0  0
  196.6650  174.1220  142.3010 C   0  0  1  0  0  3  0  0  0  0  0  0
  195.8590  173.9260  139.5050 C   0  0  2  0  0  3  0  0  0  0  0  0
  195.2050  175.4190  140.3280 S   0  0  0  0  0  0  0  0  0  0  0  0
  197.2020  173.2230  141.3580 O   0  0  0  0  0  0  0  0  0  0  0  0
  197.5710  172.9420  144.3980 C   0  0  0  0  0  0  0  0  0  0  0  0
  196.7550  174.1890  144.7350 C   0  0  0  0  0  2  0  0  0  0  0  0
  197.5600  174.2220  143.5500 C   0  0  2  0  0  3  0  0  0  0  0  0
  197.9370  171.7990  144.6200 O   0  0  0  0  0  0  0  0  0  0  0  0
  1  8  1  6  0  0  0
  2  6  1  0  0  0  0
  3  7  1  0  0  0  0
  5  1  1  6  0  0  0
  5  3  1  0  0  0  0
  5  2  1  0  0  0  0
  6  4  1  6  0  0  0
  7  6  1  0  0  0  0
  8  9  2  0  0  0  0
  9 10  2  0  0  0  0
 10 13  1  0  0  0  0
 11 26  1  0  0  0  0
 11 15  1  0  0  0  0
 12 15  2  0  0  0  0
 12 20  1  0  0  0  0
 13 16  1  0  0  0  0
 13 14  2  0  0  0  0
 14 12  1  0  0  0  0
 16 11  2  0  0  0  0
 17 18  1  0  0  0  0
 19 20  1  0  0  0  0
 19 21  1  0  0  0  0
 20 17  2  0  0  0  0
 21 25  1  6  0  0  0
 21 18  1  0  0  0  0
 22 19  1  0  0  0  0
 23 22  1  0  0  0  0
 25 24  2  0  0  0  0
 26 27  1  0  0  0  0
 27 29  1  0  0  0  0
 28 26  2  0  0  0  0
 29 30  1  0  0  0  0
 31  1  1  0  0  0  0
 32 35  1  0  0  0  0
 32 31  1  1  0  0  0
 33 35  2  0  0  0  0
 35 34  1  0  0  0  0
 36 32  1  0  0  0  0
 37 36  2  0  0  0  0
 38 36  1  0  0  0  0
 39 38  1  0  0  0  0
 40 47  1  0  0  0  0
 41 39  1  0  0  0  0
 42 45  2  0  0  0  0
 44 40  1  0  0  0  0
 45 41  1  0  0  0  0
 46 42  1  0  0  0  0
 46 40  2  0  0  0  0
 47 39  2  0  0  0  0
 47 43  1  0  0  0  0
 48 42  1  0  0  0  0
 49 55  1  0  0  0  0
 50 52  1  0  0  0  0
 50 51  1  1  0  0  0
 52 55  1  6  0  0  0
 52 58  1  0  0  0  0
 53 38  1  6  0  0  0
 53 54  1  0  0  0  0
 53 49  1  0  0  0  0
 54 50  1  0  0  0  0
 56 59  2  0  0  0  0
 56 57  1  0  0  0  0
 58 56  1  0  0  0  0
 58 57  1  1  0  0  0
M  END
>  <MODEL>
2

>  <REMARK>
 VINA RESULT:      -6.5      2.450      6.010
  Name = 
  15 active torsions:
  status: ('A' for Active; 'I' for Inactive)
    1  A    between atoms: C_2  and  N_29
    2  A    between atoms: C_3  and  C_4
    3  A    between atoms: C_4  and  C_15
    4  A    between atoms: C_4  and  C_38
    5  A    between atoms: C_5  and  C_6
    6  A    between atoms: C_7  and  N_49
    7  A    between atoms: C_14  and  C_33
    8  A    between atoms: C_15  and  C_52
    9  A    between atoms: C_18  and  C_50
   10  A    between atoms: C_19  and  C_52
   11  A    between atoms: C_20  and  C_25
   12  A    between atoms: N_31  and  C_43
   13  A    between atoms: C_36  and  N_49
   14  A    between atoms: C_37  and  C_41
   15  A    between atoms: C_52  and  C_59
                            x       y       z     vdW  Elec       q    Type
                         _______ _______ _______ _____ _____    ______ ____

>  <TORSDO>
F 15

$$$$
=
 OpenBabel11072409453D

 59 64  0  0  1  0  0  0  0  0999 V2000
  192.4250  170.2310  141.3930 C   0  0  1  0  0  3  0  0  0  0  0  0
  193.9820  169.2900  139.6260 C   0  0  0  0  0  2  0  0  0  0  0  0
  191.9620  168.1710  140.0580 C   0  0  0  0  0  2  0  0  0  0  0  0
  193.1690  170.1730  137.4570 C   0  0  0  0  0  1  0  0  0  0  0  0
  193.0400  168.9690  140.7590 C   0  0  2  0  0  3  0  0  0  0  0  0
  193.2020  168.9630  138.3730 C   0  0  2  0  0  3  0  0  0  0  0  0
  191.8900  168.5990  138.7220 O   0  0  0  0  0  0  0  0  0  0  0  0
  190.9520  170.0590  141.5790 C   0  0  0  0  0  3  0  0  0  0  0  0
  190.2150  170.9730  142.1460 C   0  0  0  0  0  0  0  0  0  0  0  0
  189.4550  171.8830  142.6990 C   0  0  0  0  0  3  0  0  0  0  0  0
  188.4860  174.2160  139.8850 C   0  0  0  0  0  0  0  0  0  0  0  0
  187.9320  175.2460  141.9720 C   0  0  0  0  0  0  0  0  0  0  0  0
  188.9540  173.0480  141.9550 C   0  0  0  0  0  0  0  0  0  0  0  0
  188.4320  174.1310  142.6600 C   0  0  0  0  0  3  0  0  0  0  0  0
  187.9730  175.2570  140.6070 N   0  0  0  0  0  0  0  0  0  0  0  0
  188.9690  173.0910  140.5600 C   0  0  0  0  0  3  0  0  0  0  0  0
  186.0280  176.6210  142.6870 C   0  0  0  0  0  3  0  0  0  0  0  0
  185.5110  178.0300  143.6580 S   0  0  0  0  0  0  0  0  0  0  0  0
  188.0510  177.2480  143.5980 N   0  0  0  0  0  0  0  0  0  0  0  0
  187.3260  176.3700  142.7370 C   0  0  0  0  0  0  0  0  0  0  0  0
  187.2100  178.2040  144.3100 C   0  0  2  0  0  3  0  0  0  0  0  0
  189.5040  177.3070  143.6890 C   0  0  0  0  0  2  0  0  0  0  0  0
  190.0180  178.0080  142.5970 O   0  0  0  0  0  1  0  0  0  0  0  0
  186.8150  176.7030  146.2300 C   0  0  0  0  0  2  0  0  0  0  0  0
  187.1890  177.9010  145.7760 C   0  0  0  0  0  3  0  0  0  0  0  0
  188.4920  174.2160  138.4020 C   0  0  0  0  0  0  0  0  0  0  0  0
  189.4470  173.4890  137.6190 N   0  0  0  0  0  2  0  0  0  0  0  0
  187.6210  174.8920  137.7910 O   0  0  0  0  0  0  0  0  0  0  0  0
  190.3670  172.4850  138.1250 C   0  0  0  0  0  2  0  0  0  0  0  0
  189.8530  171.2110  137.8820 O   0  0  0  0  0  1  0  0  0  0  0  0
  193.0170  170.5480  142.7650 C   0  0  0  0  0  2  0  0  0  0  0  0
  194.5400  170.4310  142.7610 C   0  0  2  0  0  3  0  0  0  0  0  0
  194.6010  169.1730  144.7900 O   0  0  0  0  0  1  0  0  0  0  0  0
  195.9310  168.3610  143.1160 O   0  0  0  0  0  0  0  0  0  0  0  0
  195.0280  169.2970  143.6140 C   0  0  0  0  0  0  0  0  0  0  0  0
  195.2240  171.7230  143.1100 C   0  0  0  0  0  0  0  0  0  0  0  0
  196.4680  171.7150  143.3240 O   0  0  0  0  0  0  0  0  0  0  0  0
  194.4890  172.9570  143.2290 N   0  0  0  0  0  0  0  0  0  0  0  0
  194.4520  173.8610  142.1080 C   0  0  0  0  0  0  0  0  0  0  0  0
  195.6350  175.3040  140.4380 C   0  0  0  0  0  0  0  0  0  0  0  0
  193.1350  174.1380  141.4470 C   0  0  0  0  0  2  0  0  0  0  0  0
  193.9400  173.9880  139.1060 C   0  0  0  0  0  0  0  0  0  0  0  0
  196.7540  174.3250  142.3920 O   0  0  0  0  0  1  0  0  0  0  0  0
  196.5270  176.3680  140.4230 O   0  0  0  0  0  1  0  0  0  0  0  0
  193.1150  173.5680  140.0670 C   0  0  0  0  0  3  0  0  0  0  0  0
  194.9430  175.0540  139.3120 C   0  0  0  0  0  3  0  0  0  0  0  0
  195.5770  174.4630  141.6640 C   0  0  0  0  0  0  0  0  0  0  0  0
  193.7990  173.4740  137.8600 F   0  0  0  0  0  0  0  0  0  0  0  0
  192.5940  173.4670  144.7370 C   0  0  0  0  0  2  0  0  0  0  0  0
  193.8980  175.4840  146.3800 C   0  0  1  0  0  3  0  0  0  0  0  0
  194.0750  176.9630  146.6840 C   0  0  0  0  0  1  0  0  0  0  0  0
  192.4080  175.1110  146.2580 C   0  0  1  0  0  3  0  0  0  0  0  0
  194.1100  173.4680  144.5540 C   0  0  2  0  0  3  0  0  0  0  0  0
  194.7770  175.1480  144.8110 S   0  0  0  0  0  0  0  0  0  0  0  0
  192.2810  173.7200  146.0780 O   0  0  0  0  0  0  0  0  0  0  0  0
  190.1130  175.2760  147.4070 C   0  0  0  0  0  0  0  0  0  0  0  0
  190.7220  176.6470  147.1160 C   0  0  0  0  0  2  0  0  0  0  0  0
  191.6150  175.5900  147.4880 C   0  0  2  0  0  3  0  0  0  0  0  0
  189.1660  174.5120  147.4920 O   0  0  0  0  0  0  0  0  0  0  0  0
  1  8  1  1  0  0  0
  1 31  1  0  0  0  0
  2  5  1  0  0  0  0
  3  5  1  0  0  0  0
  5  1  1  6  0  0  0
  6  4  1  6  0  0  0
  6  7  1  0  0  0  0
  6  2  1  0  0  0  0
  7  3  1  0  0  0  0
  8  9  2  0  0  0  0
  9 10  2  0  0  0  0
 11 16  2  0  0  0  0
 11 15  1  0  0  0  0
 12 14  1  0  0  0  0
 12 20  1  0  0  0  0
 13 14  2  0  0  0  0
 13 10  1  0  0  0  0
 15 12  2  0  0  0  0
 16 13  1  0  0  0  0
 17 20  2  0  0  0  0
 17 18  1  0  0  0  0
 18 21  1  0  0  0  0
 19 22  1  0  0  0  0
 19 21  1  0  0  0  0
 20 19  1  0  0  0  0
 21 25  1  1  0  0  0
 23 22  1  0  0  0  0
 25 24  2  0  0  0  0
 26 11  1  0  0  0  0
 27 29  1  0  0  0  0
 27 26  1  0  0  0  0
 28 26  2  0  0  0  0
 30 29  1  0  0  0  0
 32 31  1  1  0  0  0
 32 36  1  0  0  0  0
 32 35  1  0  0  0  0
 34 35  2  0  0  0  0
 35 33  1  0  0  0  0
 36 38  1  0  0  0  0
 36 37  2  0  0  0  0
 39 38  1  0  0  0  0
 40 47  1  0  0  0  0
 41 39  1  0  0  0  0
 42 46  1  0  0  0  0
 42 45  2  0  0  0  0
 44 40  1  0  0  0  0
 45 41  1  0  0  0  0
 46 40  2  0  0  0  0
 47 39  2  0  0  0  0
 47 43  1  0  0  0  0
 48 42  1  0  0  0  0
 49 55  1  0  0  0  0
 50 51  1  6  0  0  0
 52 55  1  1  0  0  0
 52 50  1  0  0  0  0
 52 58  1  0  0  0  0
 53 38  1  6  0  0  0
 53 49  1  0  0  0  0
 53 54  1  0  0  0  0
 54 50  1  0  0  0  0
 56 58  1  0  0  0  0
 56 59  2  0  0  0  0
 57 56  1  0  0  0  0
 58 57  1  6  0  0  0
M  END
>  <MODEL>
3

>  <REMARK>
 VINA RESULT:      -6.4      2.833      6.636
  Name = 
  15 active torsions:
  status: ('A' for Active; 'I' for Inactive)
    1  A    between atoms: C_2  and  N_29
    2  A    between atoms: C_3  and  C_4
    3  A    between atoms: C_4  and  C_15
    4  A    between atoms: C_4  and  C_38
    5  A    between atoms: C_5  and  C_6
    6  A    between atoms: C_7  and  N_49
    7  A    between atoms: C_14  and  C_33
    8  A    between atoms: C_15  and  C_52
    9  A    between atoms: C_18  and  C_50
   10  A    between atoms: C_19  and  C_52
   11  A    between atoms: C_20  and  C_25
   12  A    between atoms: N_31  and  C_43
   13  A    between atoms: C_36  and  N_49
   14  A    between atoms: C_37  and  C_41
   15  A    between atoms: C_52  and  C_59
                            x       y       z     vdW  Elec       q    Type
                         _______ _______ _______ _____ _____    ______ ____

>  <TORSDO>
F 15

$$$$
=
 OpenBabel11072409453D

 59 64  0  0  1  0  0  0  0  0999 V2000
  195.0140  174.2620  142.9560 C   0  0  1  0  0  3  0  0  0  0  0  0
  196.9990  172.8470  143.6590 C   0  0  0  0  0  2  0  0  0  0  0  0
  196.7970  175.0180  144.5350 C   0  0  0  0  0  2  0  0  0  0  0  0
  196.3580  171.7910  145.8080 C   0  0  0  0  0  1  0  0  0  0  0  0
  196.5220  174.2250  143.2760 C   0  0  2  0  0  3  0  0  0  0  0  0
  197.1650  172.9020  145.1620 C   0  0  2  0  0  3  0  0  0  0  0  0
  196.7170  174.1470  145.6350 O   0  0  0  0  0  0  0  0  0  0  0  0
  194.3320  175.3130  143.7690 C   0  0  0  0  0  3  0  0  0  0  0  0
  193.3700  176.0470  143.2830 C   0  0  0  0  0  0  0  0  0  0  0  0
  192.3930  176.7840  142.8210 C   0  0  0  0  0  3  0  0  0  0  0  0
  189.3570  174.5910  142.3000 C   0  0  0  0  0  0  0  0  0  0  0  0
  188.6440  176.7180  143.1290 C   0  0  0  0  0  0  0  0  0  0  0  0
  191.0040  176.3060  142.7640 C   0  0  0  0  0  0  0  0  0  0  0  0
  189.9750  177.1590  143.1580 C   0  0  0  0  0  3  0  0  0  0  0  0
  188.3730  175.4500  142.7020 N   0  0  0  0  0  0  0  0  0  0  0  0
  190.6890  175.0120  142.3430 C   0  0  0  0  0  3  0  0  0  0  0  0
  186.7970  178.2950  142.7630 C   0  0  0  0  0  3  0  0  0  0  0  0
  185.5770  179.3410  143.5460 S   0  0  0  0  0  0  0  0  0  0  0  0
  187.2270  177.8290  144.9800 N   0  0  0  0  0  0  0  0  0  0  0  0
  187.5610  177.6210  143.6080 C   0  0  0  0  0  0  0  0  0  0  0  0
  186.0630  178.6860  145.1810 C   0  0  2  0  0  3  0  0  0  0  0  0
  188.0210  177.3590  146.1080 C   0  0  0  0  0  2  0  0  0  0  0  0
  187.6930  176.0340  146.3980 O   0  0  0  0  0  1  0  0  0  0  0  0
  184.3660  178.2090  146.9090 C   0  0  0  0  0  2  0  0  0  0  0  0
  184.9160  177.8970  145.7350 C   0  0  0  0  0  3  0  0  0  0  0  0
  189.0610  173.2010  141.8740 C   0  0  0  0  0  0  0  0  0  0  0  0
  188.8960  172.8170  140.5040 N   0  0  0  0  0  2  0  0  0  0  0  0
  188.9410  172.3080  142.7560 O   0  0  0  0  0  0  0  0  0  0  0  0
  189.2200  173.6370  139.3490 C   0  0  0  0  0  2  0  0  0  0  0  0
  188.1640  174.5080  139.0790 O   0  0  0  0  0  1  0  0  0  0  0  0
  194.7330  174.5750  141.4880 C   0  0  0  0  0  2  0  0  0  0  0  0
  195.8810  174.1260  140.5860 C   0  0  2  0  0  3  0  0  0  0  0  0
  197.1660  175.6050  139.2190 O   0  0  0  0  0  1  0  0  0  0  0  0
  195.0340  175.2230  138.4820 O   0  0  0  0  0  0  0  0  0  0  0  0
  196.0630  175.0290  139.4010 C   0  0  0  0  0  0  0  0  0  0  0  0
  195.7670  172.6850  140.1740 C   0  0  0  0  0  0  0  0  0  0  0  0
  196.8230  172.0310  139.9490 O   0  0  0  0  0  0  0  0  0  0  0  0
  194.4860  172.0460  140.0100 N   0  0  0  0  0  0  0  0  0  0  0  0
  193.9520  171.2580  141.0910 C   0  0  0  0  0  0  0  0  0  0  0  0
  194.2420  169.4990  142.8500 C   0  0  0  0  0  0  0  0  0  0  0  0
  192.5650  171.5480  141.5790 C   0  0  0  0  0  2  0  0  0  0  0  0
  193.0680  171.4140  144.0040 C   0  0  0  0  0  0  0  0  0  0  0  0
  195.8910  169.9030  141.0760 O   0  0  0  0  0  1  0  0  0  0  0  0
  194.6230  168.1670  142.9430 O   0  0  0  0  0  1  0  0  0  0  0  0
  192.6050  172.1090  142.9630 C   0  0  0  0  0  3  0  0  0  0  0  0
  193.5760  170.0310  143.8910 C   0  0  0  0  0  3  0  0  0  0  0  0
  194.6770  170.2650  141.6510 C   0  0  0  0  0  0  0  0  0  0  0  0
  192.9920  171.9690  145.2380 F   0  0  0  0  0  0  0  0  0  0  0  0
  192.6560  172.7270  138.4890 C   0  0  0  0  0  2  0  0  0  0  0  0
  192.6460  170.3780  136.7700 C   0  0  1  0  0  3  0  0  0  0  0  0
  191.9740  169.0620  136.4120 C   0  0  0  0  0  1  0  0  0  0  0  0
  191.6140  171.5140  136.9100 C   0  0  1  0  0  3  0  0  0  0  0  0
  193.9110  171.8750  138.6680 C   0  0  2  0  0  3  0  0  0  0  0  0
  193.5340  170.1180  138.3490 S   0  0  0  0  0  0  0  0  0  0  0  0
  192.2800  172.7330  137.1400 O   0  0  0  0  0  0  0  0  0  0  0  0
  189.6490  172.7030  135.7530 C   0  0  0  0  0  0  0  0  0  0  0  0
  189.3700  171.2220  136.0040 C   0  0  0  0  0  2  0  0  0  0  0  0
  190.7120  171.5970  135.6640 C   0  0  2  0  0  3  0  0  0  0  0  0
  189.3020  173.8710  135.6890 O   0  0  0  0  0  0  0  0  0  0  0  0
  1 31  1  6  0  0  0
  1  8  1  0  0  0  0
  2  6  1  0  0  0  0
  3  7  1  0  0  0  0
  5  1  1  1  0  0  0
  5  2  1  0  0  0  0
  5  3  1  0  0  0  0
  6  7  1  0  0  0  0
  6  4  1  1  0  0  0
  9  8  2  0  0  0  0
 10  9  2  0  0  0  0
 11 16  2  0  0  0  0
 11 15  1  0  0  0  0
 12 14  1  0  0  0  0
 12 20  1  0  0  0  0
 13 10  1  0  0  0  0
 13 14  2  0  0  0  0
 15 12  2  0  0  0  0
 16 13  1  0  0  0  0
 17 18  1  0  0  0  0
 17 20  2  0  0  0  0
 18 21  1  0  0  0  0
 19 21  1  0  0  0  0
 19 22  1  0  0  0  0
 20 19  1  0  0  0  0
 21 25  1  6  0  0  0
 22 23  1  0  0  0  0
 25 24  2  0  0  0  0
 26 11  1  0  0  0  0
 26 28  2  0  0  0  0
 27 26  1  0  0  0  0
 29 27  1  0  0  0  0
 30 29  1  0  0  0  0
 32 31  1  6  0  0  0
 33 35  1  0  0  0  0
 34 35  2  0  0  0  0
 35 32  1  0  0  0  0
 36 32  1  0  0  0  0
 37 36  2  0  0  0  0
 38 36  1  0  0  0  0
 38 39  1  0  0  0  0
 39 41  1  0  0  0  0
 39 47  2  0  0  0  0
 40 44  1  0  0  0  0
 40 46  2  0  0  0  0
 41 45  1  0  0  0  0
 42 48  1  0  0  0  0
 43 47  1  0  0  0  0
 45 42  2  0  0  0  0
 46 42  1  0  0  0  0
 47 40  1  0  0  0  0
 49 53  1  0  0  0  0
 50 51  1  1  0  0  0
 50 52  1  0  0  0  0
 50 54  1  0  0  0  0
 52 55  1  6  0  0  0
 53 38  1  1  0  0  0
 54 53  1  0  0  0  0
 55 49  1  0  0  0  0
 56 57  1  0  0  0  0
 58 56  1  0  0  0  0
 58 57  1  1  0  0  0
 58 52  1  0  0  0  0
 59 56  2  0  0  0  0
M  END
>  <MODEL>
4

>  <REMARK>
 VINA RESULT:      -6.3      2.860      4.838
  Name = 
  15 active torsions:
  status: ('A' for Active; 'I' for Inactive)
    1  A    between atoms: C_2  and  N_29
    2  A    between atoms: C_3  and  C_4
    3  A    between atoms: C_4  and  C_15
    4  A    between atoms: C_4  and  C_38
    5  A    between atoms: C_5  and  C_6
    6  A    between atoms: C_7  and  N_49
    7  A    between atoms: C_14  and  C_33
    8  A    between atoms: C_15  and  C_52
    9  A    between atoms: C_18  and  C_50
   10  A    between atoms: C_19  and  C_52
   11  A    between atoms: C_20  and  C_25
   12  A    between atoms: N_31  and  C_43
   13  A    between atoms: C_36  and  N_49
   14  A    between atoms: C_37  and  C_41
   15  A    between atoms: C_52  and  C_59
                            x       y       z     vdW  Elec       q    Type
                         _______ _______ _______ _____ _____    ______ ____

>  <TORSDO>
F 15

$$$$
=
 OpenBabel11072409453D

 59 64  0  0  1  0  0  0  0  0999 V2000
  190.8530  172.6150  138.1920 C   0  0  1  0  0  3  0  0  0  0  0  0
  191.5800  172.4470  135.7670 C   0  0  0  0  0  2  0  0  0  0  0  0
  189.7310  171.1840  136.4770 C   0  0  0  0  0  2  0  0  0  0  0  0
  190.1590  174.0460  134.5150 C   0  0  0  0  0  1  0  0  0  0  0  0
  191.0660  171.6980  136.9710 C   0  0  2  0  0  3  0  0  0  0  0  0
  190.3800  172.5840  134.8580 C   0  0  2  0  0  3  0  0  0  0  0  0
  189.2420  172.0750  135.5070 O   0  0  0  0  0  0  0  0  0  0  0  0
  189.5330  172.3340  138.8330 C   0  0  0  0  0  3  0  0  0  0  0  0
  189.3590  172.4200  140.1220 C   0  0  0  0  0  0  0  0  0  0  0  0
  189.1580  172.5140  141.4110 C   0  0  0  0  0  3  0  0  0  0  0  0
  187.7330  175.9120  142.2610 C   0  0  0  0  0  0  0  0  0  0  0  0
  189.3920  175.3390  143.8850 C   0  0  0  0  0  0  0  0  0  0  0  0
  188.9050  173.8000  142.0770 C   0  0  0  0  0  0  0  0  0  0  0  0
  189.6290  174.1250  143.2230 C   0  0  0  0  0  3  0  0  0  0  0  0
  188.4530  176.1950  143.3860 N   0  0  0  0  0  0  0  0  0  0  0  0
  187.9450  174.6970  141.6040 C   0  0  0  0  0  3  0  0  0  0  0  0
  189.8280  175.0580  146.2850 C   0  0  0  0  0  3  0  0  0  0  0  0
  190.8200  175.5890  147.6740 S   0  0  0  0  0  0  0  0  0  0  0  0
  191.2280  176.5570  145.2320 N   0  0  0  0  0  0  0  0  0  0  0  0
  190.1320  175.6460  145.1400 C   0  0  0  0  0  0  0  0  0  0  0  0
  191.8450  176.6060  146.5530 C   0  0  2  0  0  3  0  0  0  0  0  0
  191.6430  177.4660  144.1710 C   0  0  0  0  0  2  0  0  0  0  0  0
  192.4420  176.7860  143.2510 O   0  0  0  0  0  1  0  0  0  0  0  0
  194.3050  176.8080  146.5090 C   0  0  0  0  0  2  0  0  0  0  0  0
  193.2250  176.0260  146.5140 C   0  0  0  0  0  3  0  0  0  0  0  0
  186.6860  176.8280  141.7460 C   0  0  0  0  0  0  0  0  0  0  0  0
  185.5790  177.2790  142.5350 N   0  0  0  0  0  2  0  0  0  0  0  0
  186.7630  177.2300  140.5530 O   0  0  0  0  0  0  0  0  0  0  0  0
  185.4420  177.1180  143.9730 C   0  0  0  0  0  2  0  0  0  0  0  0
  184.6980  178.1760  144.4960 O   0  0  0  0  0  1  0  0  0  0  0  0
  191.9230  172.4240  139.2640 C   0  0  0  0  0  2  0  0  0  0  0  0
  192.8450  171.2490  138.9360 C   0  0  2  0  0  3  0  0  0  0  0  0
  193.0580  168.9370  139.4980 O   0  0  0  0  0  0  0  0  0  0  0  0
  191.8410  170.1790  140.9840 O   0  0  0  0  0  1  0  0  0  0  0  0
  192.5840  170.0580  139.8120 C   0  0  0  0  0  0  0  0  0  0  0  0
  194.2980  171.6330  138.9370 C   0  0  0  0  0  0  0  0  0  0  0  0
  195.1390  170.8310  138.4440 O   0  0  0  0  0  0  0  0  0  0  0  0
  194.7500  172.8760  139.5070 N   0  0  0  0  0  0  0  0  0  0  0  0
  194.9690  174.0050  138.6400 C   0  0  0  0  0  0  0  0  0  0  0  0
  196.3470  175.1880  136.9150 C   0  0  0  0  0  0  0  0  0  0  0  0
  193.9130  175.0670  138.5550 C   0  0  0  0  0  2  0  0  0  0  0  0
  193.9660  175.3420  136.0910 C   0  0  0  0  0  0  0  0  0  0  0  0
  197.1430  173.2160  138.1430 O   0  0  0  0  0  1  0  0  0  0  0  0
  197.6470  175.6490  136.7530 O   0  0  0  0  0  1  0  0  0  0  0  0
  193.2810  175.0650  137.2020 C   0  0  0  0  0  3  0  0  0  0  0  0
  195.4040  175.6780  136.0910 C   0  0  0  0  0  3  0  0  0  0  0  0
  196.1090  174.1200  137.9240 C   0  0  0  0  0  0  0  0  0  0  0  0
  193.2950  175.3980  134.9140 F   0  0  0  0  0  0  0  0  0  0  0  0
  194.3740  172.3280  141.8910 C   0  0  0  0  0  2  0  0  0  0  0  0
  196.2330  174.2400  143.0570 C   0  0  1  0  0  3  0  0  0  0  0  0
  196.4160  175.5750  143.7610 C   0  0  0  0  0  1  0  0  0  0  0  0
  195.1170  173.4070  143.7180 C   0  0  1  0  0  3  0  0  0  0  0  0
  195.3360  172.9030  140.8540 C   0  0  2  0  0  3  0  0  0  0  0  0
  195.8190  174.6030  141.3130 S   0  0  0  0  0  0  0  0  0  0  0  0
  195.0460  172.1400  143.1050 O   0  0  0  0  0  0  0  0  0  0  0  0
  196.0990  172.0040  145.6360 C   0  0  0  0  0  0  0  0  0  0  0  0
  194.5870  172.1820  145.7570 C   0  0  0  0  0  2  0  0  0  0  0  0
  195.3450  173.2810  145.2350 C   0  0  2  0  0  3  0  0  0  0  0  0
  197.1220  171.3470  145.7500 O   0  0  0  0  0  0  0  0  0  0  0  0
  1  8  1  1  0  0  0
  1 31  1  0  0  0  0
  2  5  1  0  0  0  0
  3  5  1  0  0  0  0
  5  1  1  1  0  0  0
  6  4  1  1  0  0  0
  6  7  1  0  0  0  0
  6  2  1  0  0  0  0
  7  3  1  0  0  0  0
  8  9  2  0  0  0  0
  9 10  2  0  0  0  0
 10 13  1  0  0  0  0
 11 15  1  0  0  0  0
 12 20  1  0  0  0  0
 13 14  2  0  0  0  0
 14 12  1  0  0  0  0
 15 12  2  0  0  0  0
 16 13  1  0  0  0  0
 16 11  2  0  0  0  0
 17 18  1  0  0  0  0
 19 21  1  0  0  0  0
 20 19  1  0  0  0  0
 20 17  2  0  0  0  0
 21 25  1  6  0  0  0
 21 18  1  0  0  0  0
 22 19  1  0  0  0  0
 23 22  1  0  0  0  0
 24 25  2  0  0  0  0
 26 11  1  0  0  0  0
 26 27  1  0  0  0  0
 27 29  1  0  0  0  0
 28 26  2  0  0  0  0
 29 30  1  0  0  0  0
 32 36  1  0  0  0  0
 32 31  1  1  0  0  0
 32 35  1  0  0  0  0
 33 35  2  0  0  0  0
 35 34  1  0  0  0  0
 36 38  1  0  0  0  0
 37 36  2  0  0  0  0
 39 38  1  0  0  0  0
 40 47  1  0  0  0  0
 41 39  1  0  0  0  0
 42 46  1  0  0  0  0
 42 45  2  0  0  0  0
 44 40  1  0  0  0  0
 45 41  1  0  0  0  0
 46 40  2  0  0  0  0
 47 43  1  0  0  0  0
 47 39  2  0  0  0  0
 48 42  1  0  0  0  0
 49 55  1  0  0  0  0
 50 52  1  0  0  0  0
 50 51  1  1  0  0  0
 52 55  1  6  0  0  0
 52 58  1  0  0  0  0
 53 38  1  6  0  0  0
 53 54  1  0  0  0  0
 53 49  1  0  0  0  0
 54 50  1  0  0  0  0
 56 59  2  0  0  0  0
 56 57  1  0  0  0  0
 58 56  1  0  0  0  0
 58 57  1  1  0  0  0
M  END
>  <MODEL>
5

>  <REMARK>
 VINA RESULT:      -6.0      2.323      6.956
  Name = 
  15 active torsions:
  status: ('A' for Active; 'I' for Inactive)
    1  A    between atoms: C_2  and  N_29
    2  A    between atoms: C_3  and  C_4
    3  A    between atoms: C_4  and  C_15
    4  A    between atoms: C_4  and  C_38
    5  A    between atoms: C_5  and  C_6
    6  A    between atoms: C_7  and  N_49
    7  A    between atoms: C_14  and  C_33
    8  A    between atoms: C_15  and  C_52
    9  A    between atoms: C_18  and  C_50
   10  A    between atoms: C_19  and  C_52
   11  A    between atoms: C_20  and  C_25
   12  A    between atoms: N_31  and  C_43
   13  A    between atoms: C_36  and  N_49
   14  A    between atoms: C_37  and  C_41
   15  A    between atoms: C_52  and  C_59
                            x       y       z     vdW  Elec       q    Type
                         _______ _______ _______ _____ _____    ______ ____

>  <TORSDO>
F 15

$$$$
=
 OpenBabel11072409453D

 59 64  0  0  1  0  0  0  0  0999 V2000
  193.1740  175.7420  144.0280 C   0  0  1  0  0  3  0  0  0  0  0  0
  192.8970  174.5600  146.2550 C   0  0  0  0  0  2  0  0  0  0  0  0
  194.3090  176.4350  146.1450 C   0  0  0  0  0  2  0  0  0  0  0  0
  191.1380  175.8060  147.4770 C   0  0  0  0  0  1  0  0  0  0  0  0
  193.8570  175.2490  145.3190 C   0  0  2  0  0  3  0  0  0  0  0  0
  192.6310  175.5720  147.3470 C   0  0  2  0  0  3  0  0  0  0  0  0
  193.2730  176.7810  147.0290 O   0  0  0  0  0  0  0  0  0  0  0  0
  192.6950  177.1480  144.1950 C   0  0  0  0  0  3  0  0  0  0  0  0
  191.6310  177.5920  143.5850 C   0  0  0  0  0  0  0  0  0  0  0  0
  190.5600  178.0540  142.9940 C   0  0  0  0  0  3  0  0  0  0  0  0
  187.6900  177.1680  145.2910 C   0  0  0  0  0  0  0  0  0  0  0  0
  186.8080  177.8280  143.1690 C   0  0  0  0  0  0  0  0  0  0  0  0
  189.2060  177.8140  143.5160 C   0  0  0  0  0  0  0  0  0  0  0  0
  188.1090  178.0340  142.6860 C   0  0  0  0  0  3  0  0  0  0  0  0
  186.6360  177.4030  144.4540 N   0  0  0  0  0  0  0  0  0  0  0  0
  188.9900  177.3890  144.8280 C   0  0  0  0  0  3  0  0  0  0  0  0
  185.6490  177.8050  141.0040 C   0  0  0  0  0  3  0  0  0  0  0  0
  184.1650  178.2710  140.1230 S   0  0  0  0  0  0  0  0  0  0  0  0
  184.4300  178.7340  142.7270 N   0  0  0  0  0  0  0  0  0  0  0  0
  185.6440  178.1230  142.2880 C   0  0  0  0  0  0  0  0  0  0  0  0
  183.4070  178.8230  141.6910 C   0  0  2  0  0  3  0  0  0  0  0  0
  184.2350  179.3440  144.0350 C   0  0  0  0  0  2  0  0  0  0  0  0
  185.1660  180.3660  144.2250 O   0  0  0  0  0  1  0  0  0  0  0  0
  181.1150  177.9840  141.3210 C   0  0  0  0  0  2  0  0  0  0  0  0
  182.2560  177.9170  142.0060 C   0  0  0  0  0  3  0  0  0  0  0  0
  187.4960  176.7430  146.7000 C   0  0  0  0  0  0  0  0  0  0  0  0
  186.7890  177.5290  147.6670 N   0  0  0  0  0  2  0  0  0  0  0  0
  187.9790  175.6410  147.0740 O   0  0  0  0  0  0  0  0  0  0  0  0
  185.9750  178.6970  147.3780 C   0  0  0  0  0  2  0  0  0  0  0  0
  186.3350  179.7440  148.2280 O   0  0  0  0  0  1  0  0  0  0  0  0
  194.1130  175.7270  142.8240 C   0  0  0  0  0  2  0  0  0  0  0  0
  195.2430  174.7150  143.0040 C   0  0  2  0  0  3  0  0  0  0  0  0
  196.7430  175.7710  141.4740 O   0  0  0  0  0  0  0  0  0  0  0  0
  197.6430  175.2840  143.5200 O   0  0  0  0  0  1  0  0  0  0  0  0
  196.5800  175.2770  142.6190 C   0  0  0  0  0  0  0  0  0  0  0  0
  194.9690  173.4090  142.3130 C   0  0  0  0  0  0  0  0  0  0  0  0
  195.5320  172.3630  142.7410 O   0  0  0  0  0  0  0  0  0  0  0  0
  194.1030  173.3310  141.1640 N   0  0  0  0  0  0  0  0  0  0  0  0
  192.7270  172.9460  141.3500 C   0  0  0  0  0  0  0  0  0  0  0  0
  191.0170  171.3100  142.1710 C   0  0  0  0  0  0  0  0  0  0  0  0
  191.6480  173.9200  140.9820 C   0  0  0  0  0  2  0  0  0  0  0  0
  190.2300  173.5660  142.9850 C   0  0  0  0  0  0  0  0  0  0  0  0
  193.4110  170.7800  142.0100 O   0  0  0  0  0  1  0  0  0  0  0  0
  190.6790  169.9750  141.9920 O   0  0  0  0  0  1  0  0  0  0  0  0
  190.9310  174.3910  142.2040 C   0  0  0  0  0  3  0  0  0  0  0  0
  190.0930  172.1200  142.7150 C   0  0  0  0  0  3  0  0  0  0  0  0
  192.4060  171.7260  141.8330 C   0  0  0  0  0  0  0  0  0  0  0  0
  189.5430  174.0910  144.0290 F   0  0  0  0  0  0  0  0  0  0  0  0
  194.7600  174.6550  139.1790 C   0  0  0  0  0  2  0  0  0  0  0  0
  194.5400  172.5480  137.1820 C   0  0  1  0  0  3  0  0  0  0  0  0
  193.7180  171.9350  136.0590 C   0  0  0  0  0  1  0  0  0  0  0  0
  194.6740  174.0740  137.0090 C   0  0  1  0  0  3  0  0  0  0  0  0
  194.6710  173.2670  139.8110 C   0  0  2  0  0  3  0  0  0  0  0  0
  193.6890  172.1500  138.7520 S   0  0  0  0  0  0  0  0  0  0  0  0
  195.5230  174.5900  138.0070 O   0  0  0  0  0  0  0  0  0  0  0  0
  195.6270  175.8930  135.4620 C   0  0  0  0  0  0  0  0  0  0  0  0
  194.2880  175.3480  134.9680 C   0  0  0  0  0  2  0  0  0  0  0  0
  195.1870  174.4280  135.6010 C   0  0  2  0  0  3  0  0  0  0  0  0
  196.4270  176.7990  135.6330 O   0  0  0  0  0  0  0  0  0  0  0  0
  1 31  1  6  0  0  0
  1  8  1  0  0  0  0
  2  6  1  0  0  0  0
  3  7  1  0  0  0  0
  5  1  1  6  0  0  0
  5  3  1  0  0  0  0
  5  2  1  0  0  0  0
  6  4  1  6  0  0  0
  7  6  1  0  0  0  0
  9  8  2  0  0  0  0
 10 13  1  0  0  0  0
 10  9  2  0  0  0  0
 11 26  1  0  0  0  0
 12 15  1  0  0  0  0
 13 16  2  0  0  0  0
 14 12  2  0  0  0  0
 14 13  1  0  0  0  0
 15 11  2  0  0  0  0
 16 11  1  0  0  0  0
 17 20  2  0  0  0  0
 18 17  1  0  0  0  0
 18 21  1  0  0  0  0
 19 22  1  0  0  0  0
 20 19  1  0  0  0  0
 20 12  1  0  0  0  0
 21 25  1  1  0  0  0
 21 19  1  0  0  0  0
 22 23  1  0  0  0  0
 24 25  2  0  0  0  0
 26 28  2  0  0  0  0
 26 27  1  0  0  0  0
 29 27  1  0  0  0  0
 29 30  1  0  0  0  0
 32 31  1  6  0  0  0
 33 35  2  0  0  0  0
 35 32  1  0  0  0  0
 35 34  1  0  0  0  0
 36 37  2  0  0  0  0
 36 32  1  0  0  0  0
 38 39  1  0  0  0  0
 38 36  1  0  0  0  0
 39 47  2  0  0  0  0
 40 46  2  0  0  0  0
 41 39  1  0  0  0  0
 41 45  1  0  0  0  0
 42 48  1  0  0  0  0
 44 40  1  0  0  0  0
 45 42  2  0  0  0  0
 46 42  1  0  0  0  0
 47 43  1  0  0  0  0
 47 40  1  0  0  0  0
 49 53  1  0  0  0  0
 50 51  1  6  0  0  0
 50 54  1  0  0  0  0
 52 50  1  0  0  0  0
 52 55  1  1  0  0  0
 53 38  1  1  0  0  0
 54 53  1  0  0  0  0
 55 49  1  0  0  0  0
 56 58  1  0  0  0  0
 56 59  2  0  0  0  0
 57 56  1  0  0  0  0
 58 57  1  6  0  0  0
 58 52  1  0  0  0  0
M  END
>  <MODEL>
6

>  <REMARK>
 VINA RESULT:      -6.0      2.747      4.606
  Name = 
  15 active torsions:
  status: ('A' for Active; 'I' for Inactive)
    1  A    between atoms: C_2  and  N_29
    2  A    between atoms: C_3  and  C_4
    3  A    between atoms: C_4  and  C_15
    4  A    between atoms: C_4  and  C_38
    5  A    between atoms: C_5  and  C_6
    6  A    between atoms: C_7  and  N_49
    7  A    between atoms: C_14  and  C_33
    8  A    between atoms: C_15  and  C_52
    9  A    between atoms: C_18  and  C_50
   10  A    between atoms: C_19  and  C_52
   11  A    between atoms: C_20  and  C_25
   12  A    between atoms: N_31  and  C_43
   13  A    between atoms: C_36  and  N_49
   14  A    between atoms: C_37  and  C_41
   15  A    between atoms: C_52  and  C_59
                            x       y       z     vdW  Elec       q    Type
                         _______ _______ _______ _____ _____    ______ ____

>  <TORSDO>
F 15

$$$$
=
 OpenBabel11072409453D

 59 64  0  0  1  0  0  0  0  0999 V2000
  189.9420  172.4400  141.0220 C   0  0  1  0  0  3  0  0  0  0  0  0
  190.9630  171.4620  143.1280 C   0  0  0  0  0  2  0  0  0  0  0  0
  191.6910  173.5730  142.4000 C   0  0  0  0  0  2  0  0  0  0  0  0
  189.6810  172.4230  145.0190 C   0  0  0  0  0  1  0  0  0  0  0  0
  191.2180  172.2400  141.8620 C   0  0  2  0  0  3  0  0  0  0  0  0
  190.9730  172.5010  144.2270 C   0  0  2  0  0  3  0  0  0  0  0  0
  191.1010  173.7790  143.6580 O   0  0  0  0  0  0  0  0  0  0  0  0
  189.7320  173.8890  140.7250 C   0  0  0  0  0  3  0  0  0  0  0  0
  188.7000  174.5450  141.1770 C   0  0  0  0  0  0  0  0  0  0  0  0
  187.6790  175.2250  141.6300 C   0  0  0  0  0  3  0  0  0  0  0  0
  186.4680  176.8070  144.8440 C   0  0  0  0  0  0  0  0  0  0  0  0
  188.7860  176.2650  145.0730 C   0  0  0  0  0  0  0  0  0  0  0  0
  187.6420  175.7740  142.9940 C   0  0  0  0  0  0  0  0  0  0  0  0
  188.8030  175.7630  143.7630 C   0  0  0  0  0  3  0  0  0  0  0  0
  187.6220  176.7710  145.5750 N   0  0  0  0  0  0  0  0  0  0  0  0
  186.4670  176.2910  143.5460 C   0  0  0  0  0  3  0  0  0  0  0  0
  190.0240  175.6070  147.0880 C   0  0  0  0  0  3  0  0  0  0  0  0
  191.6020  175.6540  147.9290 S   0  0  0  0  0  0  0  0  0  0  0  0
  191.2930  176.7060  145.5080 N   0  0  0  0  0  0  0  0  0  0  0  0
  190.0200  176.1930  145.9020 C   0  0  0  0  0  0  0  0  0  0  0  0
  192.3640  176.4210  146.4560 C   0  0  2  0  0  3  0  0  0  0  0  0
  191.5210  177.5520  144.3430 C   0  0  0  0  0  2  0  0  0  0  0  0
  192.2790  176.8600  143.3970 O   0  0  0  0  0  1  0  0  0  0  0  0
  194.6520  175.5610  146.1080 C   0  0  0  0  0  2  0  0  0  0  0  0
  193.3440  175.4510  145.8700 C   0  0  0  0  0  3  0  0  0  0  0  0
  185.1960  177.3220  145.4090 C   0  0  0  0  0  0  0  0  0  0  0  0
  184.4630  178.4080  144.8310 N   0  0  0  0  0  2  0  0  0  0  0  0
  184.7330  176.7860  146.4520 O   0  0  0  0  0  0  0  0  0  0  0  0
  184.7040  178.9930  143.5220 C   0  0  0  0  0  2  0  0  0  0  0  0
  185.7720  179.8870  143.5970 O   0  0  0  0  0  1  0  0  0  0  0  0
  190.0000  171.7100  139.6820 C   0  0  0  0  0  2  0  0  0  0  0  0
  190.8650  172.4600  138.6700 C   0  0  2  0  0  3  0  0  0  0  0  0
  190.1220  172.1290  136.4240 O   0  0  0  0  0  0  0  0  0  0  0  0
  189.3250  174.0220  137.4310 O   0  0  0  0  0  1  0  0  0  0  0  0
  190.0940  172.8600  137.4460 C   0  0  0  0  0  0  0  0  0  0  0  0
  192.1230  171.7180  138.3160 C   0  0  0  0  0  0  0  0  0  0  0  0
  192.0450  170.4930  138.0240 O   0  0  0  0  0  0  0  0  0  0  0  0
  193.4100  172.3660  138.3280 N   0  0  0  0  0  0  0  0  0  0  0  0
  193.9540  172.8660  137.0910 C   0  0  0  0  0  0  0  0  0  0  0  0
  194.3330  174.7490  135.4850 C   0  0  0  0  0  0  0  0  0  0  0  0
  194.7980  171.9530  136.2530 C   0  0  0  0  0  2  0  0  0  0  0  0
  196.5700  173.6010  135.7090 C   0  0  0  0  0  0  0  0  0  0  0  0
  192.7840  174.9000  137.3850 O   0  0  0  0  0  1  0  0  0  0  0  0
  193.5870  175.6740  134.7650 O   0  0  0  0  0  1  0  0  0  0  0  0
  196.2140  172.4250  136.2320 C   0  0  0  0  0  3  0  0  0  0  0  0
  195.6040  174.5390  135.1010 C   0  0  0  0  0  3  0  0  0  0  0  0
  193.7020  174.1270  136.6810 C   0  0  0  0  0  0  0  0  0  0  0  0
  197.8880  173.9150  135.6580 F   0  0  0  0  0  0  0  0  0  0  0  0
  193.7510  171.1930  140.4810 C   0  0  0  0  0  2  0  0  0  0  0  0
  195.5440  173.1200  141.7250 C   0  0  1  0  0  3  0  0  0  0  0  0
  195.7030  174.2530  142.7260 C   0  0  0  0  0  1  0  0  0  0  0  0
  194.7750  171.9340  142.3400 C   0  0  1  0  0  3  0  0  0  0  0  0
  194.3160  172.1930  139.4720 C   0  0  2  0  0  3  0  0  0  0  0  0
  194.6420  173.7950  140.2840 S   0  0  0  0  0  0  0  0  0  0  0  0
  194.7360  170.8670  141.4210 O   0  0  0  0  0  0  0  0  0  0  0  0
  194.5500  170.4860  144.4540 C   0  0  0  0  0  0  0  0  0  0  0  0
  194.6160  171.9790  144.7720 C   0  0  0  0  0  2  0  0  0  0  0  0
  195.4050  171.4980  143.6760 C   0  0  2  0  0  3  0  0  0  0  0  0
  194.1290  169.3580  144.6510 O   0  0  0  0  0  0  0  0  0  0  0  0
  1 31  1  6  0  0  0
  2  6  1  0  0  0  0
  3  7  1  0  0  0  0
  5  1  1  1  0  0  0
  5  3  1  0  0  0  0
  5  2  1  0  0  0  0
  6  4  1  6  0  0  0
  7  6  1  0  0  0  0
  8  1  1  0  0  0  0
  8  9  2  0  0  0  0
  9 10  2  0  0  0  0
 10 13  1  0  0  0  0
 11 26  1  0  0  0  0
 11 15  1  0  0  0  0
 12 15  2  0  0  0  0
 12 20  1  0  0  0  0
 13 16  1  0  0  0  0
 13 14  2  0  0  0  0
 14 12  1  0  0  0  0
 16 11  2  0  0  0  0
 17 18  1  0  0  0  0
 19 20  1  0  0  0  0
 19 21  1  0  0  0  0
 20 17  2  0  0  0  0
 21 25  1  6  0  0  0
 21 18  1  0  0  0  0
 22 19  1  0  0  0  0
 23 22  1  0  0  0  0
 25 24  2  0  0  0  0
 26 28  2  0  0  0  0
 27 26  1  0  0  0  0
 29 30  1  0  0  0  0
 29 27  1  0  0  0  0
 32 31  1  1  0  0  0
 33 35  2  0  0  0  0
 34 35  1  0  0  0  0
 35 32  1  0  0  0  0
 36 38  1  0  0  0  0
 36 32  1  0  0  0  0
 37 36  2  0  0  0  0
 39 38  1  0  0  0  0
 40 47  1  0  0  0  0
 41 39  1  0  0  0  0
 42 45  2  0  0  0  0
 44 40  1  0  0  0  0
 45 41  1  0  0  0  0
 46 40  2  0  0  0  0
 46 42  1  0  0  0  0
 47 39  2  0  0  0  0
 47 43  1  0  0  0  0
 48 42  1  0  0  0  0
 49 55  1  0  0  0  0
 50 52  1  0  0  0  0
 50 51  1  1  0  0  0
 52 55  1  6  0  0  0
 52 58  1  0  0  0  0
 53 38  1  6  0  0  0
 53 54  1  0  0  0  0
 53 49  1  0  0  0  0
 54 50  1  0  0  0  0
 56 59  2  0  0  0  0
 56 57  1  0  0  0  0
 58 56  1  0  0  0  0
 58 57  1  1  0  0  0
M  END
>  <MODEL>
7

>  <REMARK>
 VINA RESULT:      -6.0      2.360      6.528
  Name = 
  15 active torsions:
  status: ('A' for Active; 'I' for Inactive)
    1  A    between atoms: C_2  and  N_29
    2  A    between atoms: C_3  and  C_4
    3  A    between atoms: C_4  and  C_15
    4  A    between atoms: C_4  and  C_38
    5  A    between atoms: C_5  and  C_6
    6  A    between atoms: C_7  and  N_49
    7  A    between atoms: C_14  and  C_33
    8  A    between atoms: C_15  and  C_52
    9  A    between atoms: C_18  and  C_50
   10  A    between atoms: C_19  and  C_52
   11  A    between atoms: C_20  and  C_25
   12  A    between atoms: N_31  and  C_43
   13  A    between atoms: C_36  and  N_49
   14  A    between atoms: C_37  and  C_41
   15  A    between atoms: C_52  and  C_59
                            x       y       z     vdW  Elec       q    Type
                         _______ _______ _______ _____ _____    ______ ____

>  <TORSDO>
F 15

$$$$
=
 OpenBabel11072409453D

 59 64  0  0  1  0  0  0  0  0999 V2000
  194.9400  173.9540  143.0700 C   0  0  1  0  0  3  0  0  0  0  0  0
  196.6850  172.2800  143.8350 C   0  0  0  0  0  2  0  0  0  0  0  0
  196.5620  174.3560  144.9280 C   0  0  0  0  0  2  0  0  0  0  0  0
  195.6810  171.0750  145.7550 C   0  0  0  0  0  1  0  0  0  0  0  0
  196.3840  173.7320  143.5610 C   0  0  2  0  0  3  0  0  0  0  0  0
  196.6590  172.1600  145.3430 C   0  0  2  0  0  3  0  0  0  0  0  0
  196.2640  173.3870  145.9020 O   0  0  0  0  0  0  0  0  0  0  0  0
  194.3010  175.0790  143.8190 C   0  0  0  0  0  3  0  0  0  0  0  0
  193.3630  175.8150  143.2910 C   0  0  0  0  0  0  0  0  0  0  0  0
  192.4120  176.5580  142.7870 C   0  0  0  0  0  3  0  0  0  0  0  0
  189.2860  174.4880  142.2950 C   0  0  0  0  0  0  0  0  0  0  0  0
  188.6760  176.6030  143.2310 C   0  0  0  0  0  0  0  0  0  0  0  0
  191.0060  176.1280  142.7630 C   0  0  0  0  0  0  0  0  0  0  0  0
  190.0220  176.9980  143.2270 C   0  0  0  0  0  3  0  0  0  0  0  0
  188.3470  175.3620  142.7660 N   0  0  0  0  0  0  0  0  0  0  0  0
  190.6320  174.8630  142.3050 C   0  0  0  0  0  3  0  0  0  0  0  0
  186.8540  178.2330  142.9930 C   0  0  0  0  0  3  0  0  0  0  0  0
  185.7030  179.2910  143.8590 S   0  0  0  0  0  0  0  0  0  0  0  0
  187.3840  177.7080  145.1750 N   0  0  0  0  0  0  0  0  0  0  0  0
  187.6430  177.5220  143.7830 C   0  0  0  0  0  0  0  0  0  0  0  0
  186.2540  178.5880  145.4530 C   0  0  2  0  0  3  0  0  0  0  0  0
  188.2220  177.1930  146.2500 C   0  0  0  0  0  2  0  0  0  0  0  0
  187.8230  175.8980  146.5820 O   0  0  0  0  0  1  0  0  0  0  0  0
  184.2700  178.3840  146.9080 C   0  0  0  0  0  2  0  0  0  0  0  0
  185.1170  177.8160  146.0490 C   0  0  0  0  0  3  0  0  0  0  0  0
  188.9270  173.1260  141.8280 C   0  0  0  0  0  0  0  0  0  0  0  0
  188.4870  172.8440  140.4940 N   0  0  0  0  0  2  0  0  0  0  0  0
  189.0050  172.1660  142.6400 O   0  0  0  0  0  0  0  0  0  0  0  0
  188.5520  173.7590  139.3680 C   0  0  0  0  0  2  0  0  0  0  0  0
  188.2930  173.0680  138.1840 O   0  0  0  0  0  1  0  0  0  0  0  0
  194.8720  174.3060  141.5860 C   0  0  0  0  0  2  0  0  0  0  0  0
  196.1260  173.8520  140.8420 C   0  0  2  0  0  3  0  0  0  0  0  0
  197.9400  174.7910  139.6030 O   0  0  0  0  0  0  0  0  0  0  0  0
  196.5490  176.3220  140.5800 O   0  0  0  0  0  1  0  0  0  0  0  0
  196.9260  175.0070  140.3140 C   0  0  0  0  0  0  0  0  0  0  0  0
  195.8320  172.8430  139.7680 C   0  0  0  0  0  0  0  0  0  0  0  0
  196.7250  172.0070  139.4560 O   0  0  0  0  0  0  0  0  0  0  0  0
  194.5690  172.8260  139.0740 N   0  0  0  0  0  0  0  0  0  0  0  0
  193.5420  171.9150  139.5120 C   0  0  0  0  0  0  0  0  0  0  0  0
  192.5970  169.5990  139.6380 C   0  0  0  0  0  0  0  0  0  0  0  0
  192.4480  172.4320  140.3980 C   0  0  0  0  0  2  0  0  0  0  0  0
  192.4210  170.5240  141.9810 C   0  0  0  0  0  0  0  0  0  0  0  0
  194.4720  170.2040  138.1710 O   0  0  0  0  0  1  0  0  0  0  0  0
  192.2140  168.5800  138.7770 O   0  0  0  0  0  1  0  0  0  0  0  0
  192.5550  171.8330  141.7620 C   0  0  0  0  0  3  0  0  0  0  0  0
  192.1500  169.5480  140.9050 C   0  0  0  0  0  3  0  0  0  0  0  0
  193.5490  170.6220  139.1240 C   0  0  0  0  0  0  0  0  0  0  0  0
  192.4510  170.0750  143.2600 F   0  0  0  0  0  0  0  0  0  0  0  0
  194.8960  174.8880  137.7440 C   0  0  0  0  0  2  0  0  0  0  0  0
  192.9650  174.3350  135.6370 C   0  0  1  0  0  3  0  0  0  0  0  0
  191.5830  174.6130  135.0690 C   0  0  0  0  0  1  0  0  0  0  0  0
  193.6950  175.6430  136.0010 C   0  0  1  0  0  3  0  0  0  0  0  0
  194.4500  173.4260  137.7390 C   0  0  2  0  0  3  0  0  0  0  0  0
  192.7370  173.2910  137.1220 S   0  0  0  0  0  0  0  0  0  0  0  0
  195.0050  175.3510  136.4280 O   0  0  0  0  0  0  0  0  0  0  0  0
  194.7530  177.7340  134.9410 C   0  0  0  0  0  0  0  0  0  0  0  0
  193.2670  177.9200  135.2450 C   0  0  0  0  0  2  0  0  0  0  0  0
  193.6990  176.6230  134.8130 C   0  0  2  0  0  3  0  0  0  0  0  0
  195.9000  178.1440  134.8710 O   0  0  0  0  0  0  0  0  0  0  0  0
  1 31  1  6  0  0  0
  1  8  1  0  0  0  0
  2  6  1  0  0  0  0
  3  7  1  0  0  0  0
  5  1  1  1  0  0  0
  5  2  1  0  0  0  0
  5  3  1  0  0  0  0
  6  4  1  6  0  0  0
  6  7  1  0  0  0  0
  9  8  2  0  0  0  0
 10  9  2  0  0  0  0
 11 16  2  0  0  0  0
 11 15  1  0  0  0  0
 12 20  1  0  0  0  0
 13 10  1  0  0  0  0
 13 14  2  0  0  0  0
 14 12  1  0  0  0  0
 15 12  2  0  0  0  0
 16 13  1  0  0  0  0
 17 20  2  0  0  0  0
 17 18  1  0  0  0  0
 18 21  1  0  0  0  0
 19 21  1  0  0  0  0
 19 22  1  0  0  0  0
 20 19  1  0  0  0  0
 21 25  1  6  0  0  0
 22 23  1  0  0  0  0
 25 24  2  0  0  0  0
 26 11  1  0  0  0  0
 26 28  2  0  0  0  0
 27 26  1  0  0  0  0
 29 27  1  0  0  0  0
 30 29  1  0  0  0  0
 32 31  1  6  0  0  0
 33 35  2  0  0  0  0
 35 34  1  0  0  0  0
 35 32  1  0  0  0  0
 36 32  1  0  0  0  0
 37 36  2  0  0  0  0
 38 39  1  0  0  0  0
 38 36  1  0  0  0  0
 39 41  1  0  0  0  0
 40 46  2  0  0  0  0
 41 45  1  0  0  0  0
 42 48  1  0  0  0  0
 43 47  1  0  0  0  0
 44 40  1  0  0  0  0
 45 42  2  0  0  0  0
 46 42  1  0  0  0  0
 47 39  2  0  0  0  0
 47 40  1  0  0  0  0
 50 51  1  1  0  0  0
 50 52  1  0  0  0  0
 50 54  1  0  0  0  0
 52 55  1  6  0  0  0
 53 49  1  0  0  0  0
 53 38  1  1  0  0  0
 54 53  1  0  0  0  0
 55 49  1  0  0  0  0
 56 57  1  0  0  0  0
 58 56  1  0  0  0  0
 58 57  1  1  0  0  0
 58 52  1  0  0  0  0
 59 56  2  0  0  0  0
M  END
>  <MODEL>
8

>  <REMARK>
 VINA RESULT:      -6.0      2.548      4.086
  Name = 
  15 active torsions:
  status: ('A' for Active; 'I' for Inactive)
    1  A    between atoms: C_2  and  N_29
    2  A    between atoms: C_3  and  C_4
    3  A    between atoms: C_4  and  C_15
    4  A    between atoms: C_4  and  C_38
    5  A    between atoms: C_5  and  C_6
    6  A    between atoms: C_7  and  N_49
    7  A    between atoms: C_14  and  C_33
    8  A    between atoms: C_15  and  C_52
    9  A    between atoms: C_18  and  C_50
   10  A    between atoms: C_19  and  C_52
   11  A    between atoms: C_20  and  C_25
   12  A    between atoms: N_31  and  C_43
   13  A    between atoms: C_36  and  N_49
   14  A    between atoms: C_37  and  C_41
   15  A    between atoms: C_52  and  C_59
                            x       y       z     vdW  Elec       q    Type
                         _______ _______ _______ _____ _____    ______ ____

>  <TORSDO>
F 15

$$$$
=
 OpenBabel11072409453D

 59 64  0  0  1  0  0  0  0  0999 V2000
  191.9810  170.6950  141.9370 C   0  0  1  0  0  3  0  0  0  0  0  0
  192.3250  170.1480  139.4850 C   0  0  0  0  0  2  0  0  0  0  0  0
  191.8530  168.3930  140.9730 C   0  0  0  0  0  2  0  0  0  0  0  0
  190.0610  170.0630  138.4780 C   0  0  0  0  0  1  0  0  0  0  0  0
  192.5810  169.7180  140.9070 C   0  0  2  0  0  3  0  0  0  0  0  0
  191.2210  169.2340  139.0000 C   0  0  2  0  0  3  0  0  0  0  0  0
  190.7830  168.4270  140.0630 O   0  0  0  0  0  0  0  0  0  0  0  0
  190.4950  170.5420  142.0000 C   0  0  0  0  0  3  0  0  0  0  0  0
  189.7180  171.5060  142.4080 C   0  0  0  0  0  0  0  0  0  0  0  0
  188.9180  172.4640  142.8000 C   0  0  0  0  0  3  0  0  0  0  0  0
  188.2720  174.5420  139.7080 C   0  0  0  0  0  0  0  0  0  0  0  0
  187.4660  175.7280  141.6220 C   0  0  0  0  0  0  0  0  0  0  0  0
  188.5000  173.5560  141.9090 C   0  0  0  0  0  0  0  0  0  0  0  0
  187.8900  174.6830  142.4550 C   0  0  0  0  0  3  0  0  0  0  0  0
  187.6690  175.6280  140.2750 N   0  0  0  0  0  0  0  0  0  0  0  0
  188.6800  173.4850  140.5260 C   0  0  0  0  0  3  0  0  0  0  0  0
  185.4910  177.1490  141.9550 C   0  0  0  0  0  3  0  0  0  0  0  0
  184.8510  178.6190  142.7460 S   0  0  0  0  0  0  0  0  0  0  0  0
  187.3630  177.8330  143.1160 N   0  0  0  0  0  0  0  0  0  0  0  0
  186.7650  176.9000  142.2140 C   0  0  0  0  0  0  0  0  0  0  0  0
  186.4350  178.8340  143.6300 C   0  0  2  0  0  3  0  0  0  0  0  0
  188.7870  177.8970  143.4180 C   0  0  0  0  0  2  0  0  0  0  0  0
  189.4950  178.2910  142.2820 O   0  0  0  0  0  1  0  0  0  0  0  0
  185.5700  179.5480  145.8300 C   0  0  0  0  0  2  0  0  0  0  0  0
  186.1930  178.6260  145.0940 C   0  0  0  0  0  3  0  0  0  0  0  0
  188.4540  174.4210  138.2400 C   0  0  0  0  0  0  0  0  0  0  0  0
  189.7080  174.0950  137.6280 N   0  0  0  0  0  2  0  0  0  0  0  0
  187.4630  174.6190  137.4870 O   0  0  0  0  0  0  0  0  0  0  0  0
  190.8890  173.6110  138.3220 C   0  0  0  0  0  2  0  0  0  0  0  0
  192.0320  174.1790  137.7580 O   0  0  0  0  0  1  0  0  0  0  0  0
  192.5160  170.4630  143.3480 C   0  0  0  0  0  2  0  0  0  0  0  0
  194.0390  170.3350  143.3580 C   0  0  2  0  0  3  0  0  0  0  0  0
  195.4170  168.3950  143.1460 O   0  0  0  0  0  0  0  0  0  0  0  0
  193.9230  168.3290  144.8770 O   0  0  0  0  0  1  0  0  0  0  0  0
  194.4930  168.9680  143.7790 C   0  0  0  0  0  0  0  0  0  0  0  0
  194.7080  171.4150  144.1610 C   0  0  0  0  0  0  0  0  0  0  0  0
  195.6260  171.0950  144.9660 O   0  0  0  0  0  0  0  0  0  0  0  0
  194.3090  172.7950  144.0490 N   0  0  0  0  0  0  0  0  0  0  0  0
  195.0560  173.6720  143.1830 C   0  0  0  0  0  0  0  0  0  0  0  0
  195.1340  175.3200  141.3000 C   0  0  0  0  0  0  0  0  0  0  0  0
  196.5220  173.8590  143.4360 C   0  0  0  0  0  2  0  0  0  0  0  0
  196.5660  176.3190  143.1230 C   0  0  0  0  0  0  0  0  0  0  0  0
  193.1400  173.9890  141.8340 O   0  0  0  0  0  1  0  0  0  0  0  0
  194.7600  175.3990  139.9640 O   0  0  0  0  0  1  0  0  0  0  0  0
  196.7980  175.2530  143.8930 C   0  0  0  0  0  3  0  0  0  0  0  0
  196.0230  176.2220  141.7530 C   0  0  0  0  0  3  0  0  0  0  0  0
  194.4570  174.3050  142.1520 C   0  0  0  0  0  0  0  0  0  0  0  0
  196.9230  177.5420  143.5860 F   0  0  0  0  0  0  0  0  0  0  0  0
  192.0390  173.6800  144.4810 C   0  0  0  0  0  2  0  0  0  0  0  0
  192.6960  175.4500  146.6970 C   0  0  1  0  0  3  0  0  0  0  0  0
  192.9530  176.8750  147.1580 C   0  0  0  0  0  1  0  0  0  0  0  0
  191.4180  175.3600  145.8390 C   0  0  1  0  0  3  0  0  0  0  0  0
  193.4240  173.3940  145.0570 C   0  0  2  0  0  3  0  0  0  0  0  0
  194.1580  174.9240  145.7310 S   0  0  0  0  0  0  0  0  0  0  0  0
  191.1580  174.0140  145.5170 O   0  0  0  0  0  0  0  0  0  0  0  0
  189.2430  174.9770  147.1560 C   0  0  0  0  0  0  0  0  0  0  0  0
  189.0090  175.7290  145.8460 C   0  0  0  0  0  2  0  0  0  0  0  0
  190.2200  176.0030  146.5620 C   0  0  2  0  0  3  0  0  0  0  0  0
  188.9160  174.1690  148.0100 O   0  0  0  0  0  0  0  0  0  0  0  0
  1  8  1  1  0  0  0
  1 31  1  0  0  0  0
  2  5  1  0  0  0  0
  5  3  1  0  0  0  0
  5  1  1  1  0  0  0
  6  4  1  1  0  0  0
  6  2  1  0  0  0  0
  6  7  1  0  0  0  0
  7  3  1  0  0  0  0
  8  9  2  0  0  0  0
  9 10  2  0  0  0  0
 11 15  2  0  0  0  0
 11 16  1  0  0  0  0
 12 20  1  0  0  0  0
 12 14  2  0  0  0  0
 13 14  1  0  0  0  0
 13 10  1  0  0  0  0
 15 12  1  0  0  0  0
 16 13  2  0  0  0  0
 17 20  2  0  0  0  0
 17 18  1  0  0  0  0
 18 21  1  0  0  0  0
 19 22  1  0  0  0  0
 19 21  1  0  0  0  0
 20 19  1  0  0  0  0
 21 25  1  1  0  0  0
 23 22  1  0  0  0  0
 25 24  2  0  0  0  0
 26 11  1  0  0  0  0
 27 26  1  0  0  0  0
 27 29  1  0  0  0  0
 28 26  2  0  0  0  0
 30 29  1  0  0  0  0
 32 31  1  1  0  0  0
 32 35  1  0  0  0  0
 32 36  1  0  0  0  0
 33 35  2  0  0  0  0
 35 34  1  0  0  0  0
 36 37  2  0  0  0  0
 38 36  1  0  0  0  0
 39 41  1  0  0  0  0
 39 38  1  0  0  0  0
 40 46  2  0  0  0  0
 40 47  1  0  0  0  0
 41 45  1  0  0  0  0
 42 48  1  0  0  0  0
 42 45  2  0  0  0  0
 43 47  1  0  0  0  0
 44 40  1  0  0  0  0
 46 42  1  0  0  0  0
 47 39  2  0  0  0  0
 49 53  1  0  0  0  0
 49 55  1  0  0  0  0
 50 51  1  6  0  0  0
 52 55  1  1  0  0  0
 52 58  1  0  0  0  0
 52 50  1  0  0  0  0
 53 38  1  6  0  0  0
 53 54  1  0  0  0  0
 54 50  1  0  0  0  0
 56 59  2  0  0  0  0
 57 56  1  0  0  0  0
 58 57  1  6  0  0  0
 58 56  1  0  0  0  0
M  END
>  <MODEL>
9

>  <REMARK>
 VINA RESULT:      -5.9      3.407      7.031
  Name = 
  15 active torsions:
  status: ('A' for Active; 'I' for Inactive)
    1  A    between atoms: C_2  and  N_29
    2  A    between atoms: C_3  and  C_4
    3  A    between atoms: C_4  and  C_15
    4  A    between atoms: C_4  and  C_38
    5  A    between atoms: C_5  and  C_6
    6  A    between atoms: C_7  and  N_49
    7  A    between atoms: C_14  and  C_33
    8  A    between atoms: C_15  and  C_52
    9  A    between atoms: C_18  and  C_50
   10  A    between atoms: C_19  and  C_52
   11  A    between atoms: C_20  and  C_25
   12  A    between atoms: N_31  and  C_43
   13  A    between atoms: C_36  and  N_49
   14  A    between atoms: C_37  and  C_41
   15  A    between atoms: C_52  and  C_59
                            x       y       z     vdW  Elec       q    Type
                         _______ _______ _______ _____ _____    ______ ____

>  <TORSDO>
F 15

$$$$
