=
 OpenBabel11062423113D

 28 31  0  0  1  0  0  0  0  0999 V2000
  191.5000  175.6160  145.1720 C   0  0  0  0  0  0  0  0  0  0  0  0
  191.1930  174.4080  144.4890 N   0  0  0  0  0  0  0  0  0  0  0  0
  188.5630  175.2020  146.5160 C   0  0  0  0  0  2  0  0  0  0  0  0
  189.9430  174.5740  146.5550 C   0  0  1  0  0  3  0  0  0  0  0  0
  188.6500  176.6140  147.1170 C   0  0  1  0  0  3  0  0  0  0  0  0
  190.3870  177.2220  147.1440 S   0  0  0  0  0  0  0  0  0  0  0  0
  190.2260  173.7910  145.3240 C   0  0  0  0  0  0  0  0  0  0  0  0
  189.6850  172.6890  145.0440 O   0  0  0  0  0  0  0  0  0  0  0  0
  190.8510  175.7150  146.3360 C   0  0  2  0  0  3  0  0  0  0  0  0
  186.2300  177.3560  146.8030 C   0  0  0  0  0  2  0  0  0  0  0  0
  187.9390  177.5380  144.8880 C   0  0  0  0  0  2  0  0  0  0  0  0
  187.7030  177.5740  146.4000 C   0  0  2  0  0  3  0  0  0  0  0  0
  185.6500  178.2310  142.1280 C   0  0  0  0  0  2  0  0  0  0  0  0
  185.3160  177.0860  145.6070 C   0  0  0  0  0  2  0  0  0  0  0  0
  184.8880  179.3550  144.9800 O   0  0  0  0  0  1  0  0  0  0  0  0
  187.0640  178.2270  142.6660 C   0  0  0  0  0  2  0  0  0  0  0  0
  184.7890  177.7200  143.2620 C   0  0  0  0  0  2  0  0  0  0  0  0
  185.4760  178.1690  144.5360 C   0  0  2  0  0  0  0  0  0  0  0  0
  186.9430  178.4420  144.1610 C   0  0  1  0  0  3  0  0  0  0  0  0
  192.3240  176.6910  144.5240 C   0  0  2  0  0  3  0  0  0  0  0  0
  191.5110  178.8140  143.7590 O   0  0  0  0  0  1  0  0  0  0  0  0
  191.4950  177.5600  143.6320 C   0  0  0  0  0  0  0  0  0  0  0  0
  190.7290  176.9800  142.6300 O   0  0  0  0  0  0  0  0  0  0  0  0
  193.4130  176.1490  143.8300 O   0  0  0  0  0  0  0  0  0  0  0  0
  194.7700  176.4270  144.8140 P   0  0  2  0  0  0  0  0  0  0  0  0
  196.1240  176.7800  143.8630 O   0  0  0  0  0  0  0  0  0  0  0  0
  195.1090  174.9370  145.7890 C   0  0  0  0  0  1  0  0  0  0  0  0
  194.4940  177.5810  145.7510 O   0  0  0  0  0  1  0  0  0  0  0  0
  2  1  2  0  0  0  0
  2  7  1  0  0  0  0
  4  3  1  6  0  0  0
  5  3  1  6  0  0  0
  5  6  1  0  0  0  0
  7  4  1  0  0  0  0
  8  7  2  0  0  0  0
  9  1  1  6  0  0  0
  9  4  1  0  0  0  0
  9  6  1  0  0  0  0
 12 11  1  6  0  0  0
 12 10  1  0  0  0  0
 12  5  1  0  0  0  0
 13 16  1  0  0  0  0
 13 17  1  0  0  0  0
 14 10  1  0  0  0  0
 17 18  1  0  0  0  0
 18 15  1  1  0  0  0
 18 14  1  0  0  0  0
 19 16  1  6  0  0  0
 19 18  1  0  0  0  0
 19 11  1  0  0  0  0
 20 22  1  6  0  0  0
 20  1  1  0  0  0  0
 22 21  1  0  0  0  0
 23 22  2  0  0  0  0
 24 20  1  0  0  0  0
 24 25  1  0  0  0  0
 25 28  1  0  0  0  0
 25 27  1  1  0  0  0
 26 25  2  0  0  0  0
M  END
>  <MODEL>
1

>  <REMARK>
 VINA RESULT:      -7.4      0.000      0.000
  Name = 
  5 active torsions:
  status: ('A' for Active; 'I' for Inactive)
    1  A    between atoms: C_1  and  C_16
    2  A    between atoms: C_4  and  C_20
    3  A    between atoms: P_6  and  O_17
    4  A    between atoms: C_16  and  O_17
    5  A    between atoms: C_16  and  C_27
                            x       y       z     vdW  Elec       q    Type
                         _______ _______ _______ _____ _____    ______ ____

>  <TORSDO>
F 5

$$$$
=
 OpenBabel11062423113D

 28 31  0  0  1  0  0  0  0  0999 V2000
  190.5680  175.7080  144.1370 C   0  0  0  0  0  0  0  0  0  0  0  0
  191.4120  176.7930  144.4980 N   0  0  0  0  0  0  0  0  0  0  0  0
  188.6970  178.0380  142.8440 C   0  0  0  0  0  2  0  0  0  0  0  0
  190.0340  177.3670  142.5920 C   0  0  1  0  0  3  0  0  0  0  0  0
  187.5810  177.0060  142.6220 C   0  0  1  0  0  3  0  0  0  0  0  0
  188.2380  175.2880  142.6870 S   0  0  0  0  0  0  0  0  0  0  0  0
  191.0640  177.8080  143.5690 C   0  0  0  0  0  0  0  0  0  0  0  0
  191.5910  178.9510  143.5770 O   0  0  0  0  0  0  0  0  0  0  0  0
  189.8230  175.9860  143.0630 C   0  0  2  0  0  3  0  0  0  0  0  0
  185.8440  178.6550  143.5000 C   0  0  0  0  0  2  0  0  0  0  0  0
  186.8320  176.8260  145.0170 C   0  0  0  0  0  2  0  0  0  0  0  0
  186.4260  177.2290  143.5970 C   0  0  2  0  0  3  0  0  0  0  0  0
  185.6240  178.0320  148.2450 C   0  0  0  0  0  2  0  0  0  0  0  0
  185.8480  179.3950  144.8370 C   0  0  0  0  0  2  0  0  0  0  0  0
  183.7970  178.5350  145.7170 O   0  0  0  0  0  1  0  0  0  0  0  0
  186.2070  176.9060  147.4220 C   0  0  0  0  0  2  0  0  0  0  0  0
  185.4580  179.1880  147.2830 C   0  0  0  0  0  2  0  0  0  0  0  0
  185.1770  178.5620  145.9320 C   0  0  2  0  0  0  0  0  0  0  0  0
  185.7050  177.1180  146.0080 C   0  0  1  0  0  3  0  0  0  0  0  0
  190.4470  174.4910  145.0080 C   0  0  2  0  0  3  0  0  0  0  0  0
  188.9310  174.8130  146.8380 O   0  0  0  0  0  0  0  0  0  0  0  0
  190.1200  174.8540  146.4210 C   0  0  0  0  0  0  0  0  0  0  0  0
  191.1410  175.2040  147.2930 O   0  0  0  0  0  1  0  0  0  0  0  0
  191.6020  173.7020  144.9430 O   0  0  0  0  0  0  0  0  0  0  0  0
  191.2220  172.4110  143.9070 P   0  0  2  0  0  0  0  0  0  0  0  0
  191.4750  172.8560  142.2940 O   0  0  0  0  0  0  0  0  0  0  0  0
  189.4780  171.9690  144.1280 C   0  0  0  0  0  1  0  0  0  0  0  0
  192.0830  171.2150  144.2430 O   0  0  0  0  0  1  0  0  0  0  0  0
  1  2  2  0  0  0  0
  1 20  1  0  0  0  0
  4  3  1  1  0  0  0
  4  9  1  0  0  0  0
  4  7  1  0  0  0  0
  5  6  1  0  0  0  0
  5  3  1  1  0  0  0
  5 12  1  0  0  0  0
  7  8  2  0  0  0  0
  7  2  1  0  0  0  0
  9  6  1  1  0  0  0
  9  1  1  0  0  0  0
 10 14  1  0  0  0  0
 12 10  1  1  0  0  0
 12 11  1  0  0  0  0
 14 18  1  0  0  0  0
 16 13  1  0  0  0  0
 17 13  1  0  0  0  0
 18 15  1  6  0  0  0
 18 19  1  0  0  0  0
 18 17  1  0  0  0  0
 19 11  1  6  0  0  0
 19 16  1  0  0  0  0
 20 24  1  1  0  0  0
 20 22  1  0  0  0  0
 22 21  2  0  0  0  0
 22 23  1  0  0  0  0
 25 27  1  1  0  0  0
 25 28  1  0  0  0  0
 25 24  1  0  0  0  0
 26 25  2  0  0  0  0
M  END
>  <MODEL>
2

>  <REMARK>
 VINA RESULT:      -7.3      2.541      4.458
  Name = 
  5 active torsions:
  status: ('A' for Active; 'I' for Inactive)
    1  A    between atoms: C_1  and  C_16
    2  A    between atoms: C_4  and  C_20
    3  A    between atoms: P_6  and  O_17
    4  A    between atoms: C_16  and  O_17
    5  A    between atoms: C_16  and  C_27
                            x       y       z     vdW  Elec       q    Type
                         _______ _______ _______ _____ _____    ______ ____

>  <TORSDO>
F 5

$$$$
=
 OpenBabel11062423113D

 28 31  0  0  1  0  0  0  0  0999 V2000
  188.5000  176.1770  144.2640 C   0  0  0  0  0  0  0  0  0  0  0  0
  187.7450  177.2120  144.8790 N   0  0  0  0  0  0  0  0  0  0  0  0
  189.9020  175.9260  147.1910 C   0  0  0  0  0  2  0  0  0  0  0  0
  188.5680  175.6440  146.5290 C   0  0  1  0  0  3  0  0  0  0  0  0
  190.9550  174.9780  146.5950 C   0  0  1  0  0  3  0  0  0  0  0  0
  190.3890  174.2760  144.9900 S   0  0  0  0  0  0  0  0  0  0  0  0
  187.8110  176.8950  146.2610 C   0  0  0  0  0  0  0  0  0  0  0  0
  187.2700  177.6020  147.1500 O   0  0  0  0  0  0  0  0  0  0  0  0
  188.9340  175.2760  145.1500 C   0  0  2  0  0  3  0  0  0  0  0  0
  192.3110  176.8130  145.4550 C   0  0  0  0  0  2  0  0  0  0  0  0
  193.4250  174.6370  146.2610 C   0  0  0  0  0  2  0  0  0  0  0  0
  192.3150  175.6660  146.4880 C   0  0  2  0  0  3  0  0  0  0  0  0
  196.6570  174.9850  144.5970 C   0  0  0  0  0  2  0  0  0  0  0  0
  193.3850  176.6510  144.3790 C   0  0  0  0  0  2  0  0  0  0  0  0
  195.2180  177.6240  145.5690 O   0  0  0  0  0  1  0  0  0  0  0  0
  195.8120  174.3070  145.6520 C   0  0  0  0  0  2  0  0  0  0  0  0
  195.7380  175.9860  143.9310 C   0  0  0  0  0  2  0  0  0  0  0  0
  194.7650  176.4300  145.0050 C   0  0  2  0  0  0  0  0  0  0  0  0
  194.7760  175.3280  146.0790 C   0  0  1  0  0  3  0  0  0  0  0  0
  188.8780  176.2450  142.8120 C   0  0  2  0  0  3  0  0  0  0  0  0
  188.4990  178.2790  141.6000 O   0  0  0  0  0  0  0  0  0  0  0  0
  189.2330  177.6380  142.3990 C   0  0  0  0  0  0  0  0  0  0  0  0
  190.3640  178.2430  142.9300 O   0  0  0  0  0  1  0  0  0  0  0  0
  187.8680  175.7180  141.9980 O   0  0  0  0  0  0  0  0  0  0  0  0
  188.5730  174.4080  141.1780 P   0  0  2  0  0  0  0  0  0  0  0  0
  188.2410  174.5020  139.5210 O   0  0  0  0  0  0  0  0  0  0  0  0
  187.8850  172.8630  141.8290 C   0  0  0  0  0  1  0  0  0  0  0  0
  190.0700  174.4150  141.3960 O   0  0  0  0  0  1  0  0  0  0  0  0
  1  2  2  0  0  0  0
  2  7  1  0  0  0  0
  4  3  1  1  0  0  0
  5  3  1  6  0  0  0
  6  9  1  0  0  0  0
  6  5  1  0  0  0  0
  7  4  1  0  0  0  0
  7  8  2  0  0  0  0
  9  1  1  6  0  0  0
  9  4  1  0  0  0  0
 11 12  1  0  0  0  0
 12 10  1  6  0  0  0
 12  5  1  0  0  0  0
 13 16  1  0  0  0  0
 14 18  1  0  0  0  0
 14 10  1  0  0  0  0
 17 13  1  0  0  0  0
 17 18  1  0  0  0  0
 18 15  1  1  0  0  0
 18 19  1  0  0  0  0
 19 16  1  6  0  0  0
 19 11  1  0  0  0  0
 20 24  1  6  0  0  0
 20  1  1  0  0  0  0
 21 22  2  0  0  0  0
 22 20  1  0  0  0  0
 22 23  1  0  0  0  0
 25 28  1  0  0  0  0
 25 27  1  1  0  0  0
 25 24  1  0  0  0  0
 26 25  2  0  0  0  0
M  END
>  <MODEL>
3

>  <REMARK>
 VINA RESULT:      -6.9      2.783      6.696
  Name = 
  5 active torsions:
  status: ('A' for Active; 'I' for Inactive)
    1  A    between atoms: C_1  and  C_16
    2  A    between atoms: C_4  and  C_20
    3  A    between atoms: P_6  and  O_17
    4  A    between atoms: C_16  and  O_17
    5  A    between atoms: C_16  and  C_27
                            x       y       z     vdW  Elec       q    Type
                         _______ _______ _______ _____ _____    ______ ____

>  <TORSDO>
F 5

$$$$
=
 OpenBabel11062423113D

 28 31  0  0  1  0  0  0  0  0999 V2000
  191.0320  174.6890  144.2100 C   0  0  0  0  0  0  0  0  0  0  0  0
  191.3430  174.6590  145.5970 N   0  0  0  0  0  0  0  0  0  0  0  0
  189.8160  177.6310  144.8960 C   0  0  0  0  0  2  0  0  0  0  0  0
  191.1610  176.9380  144.8010 C   0  0  1  0  0  3  0  0  0  0  0  0
  189.1970  177.6920  143.4910 C   0  0  1  0  0  3  0  0  0  0  0  0
  189.9890  176.4760  142.3590 S   0  0  0  0  0  0  0  0  0  0  0  0
  191.3960  176.0310  145.9560 C   0  0  0  0  0  0  0  0  0  0  0  0
  191.6310  176.4220  147.1290 O   0  0  0  0  0  0  0  0  0  0  0  0
  190.9640  175.9370  143.7380 C   0  0  2  0  0  3  0  0  0  0  0  0
  186.9370  178.7030  142.8750 C   0  0  0  0  0  2  0  0  0  0  0  0
  187.2220  177.2650  144.9900 C   0  0  0  0  0  2  0  0  0  0  0  0
  187.6780  177.5320  143.5540 C   0  0  2  0  0  3  0  0  0  0  0  0
  184.0430  178.0020  146.6290 C   0  0  0  0  0  2  0  0  0  0  0  0
  185.9380  179.3960  143.8020 C   0  0  0  0  0  2  0  0  0  0  0  0
  184.0800  177.9270  143.4710 O   0  0  0  0  0  1  0  0  0  0  0  0
  185.2690  177.1230  146.5210 C   0  0  0  0  0  2  0  0  0  0  0  0
  184.2090  179.0550  145.5550 C   0  0  0  0  0  2  0  0  0  0  0  0
  184.9800  178.3840  144.4350 C   0  0  2  0  0  0  0  0  0  0  0  0
  185.6980  177.1790  145.0690 C   0  0  1  0  0  3  0  0  0  0  0  0
  190.6600  173.4390  143.4670 C   0  0  2  0  0  3  0  0  0  0  0  0
  189.5650  171.9800  145.0240 O   0  0  0  0  0  1  0  0  0  0  0  0
  190.6100  172.2510  144.3750 C   0  0  0  0  0  0  0  0  0  0  0  0
  191.7160  171.4180  144.4740 O   0  0  0  0  0  0  0  0  0  0  0  0
  191.5220  173.2130  142.3870 O   0  0  0  0  0  0  0  0  0  0  0  0
  190.5390  172.6470  141.1230 P   0  0  2  0  0  0  0  0  0  0  0  0
  190.5890  170.9570  141.0500 O   0  0  0  0  0  0  0  0  0  0  0  0
  191.1440  173.3220  139.5540 C   0  0  0  0  0  1  0  0  0  0  0  0
  189.1130  173.1020  141.3420 O   0  0  0  0  0  1  0  0  0  0  0  0
  1  2  2  0  0  0  0
  2  7  1  0  0  0  0
  4  3  1  1  0  0  0
  4  7  1  0  0  0  0
  5 12  1  0  0  0  0
  5  3  1  1  0  0  0
  6  5  1  0  0  0  0
  7  8  2  0  0  0  0
  9  6  1  1  0  0  0
  9  1  1  0  0  0  0
  9  4  1  0  0  0  0
 10 14  1  0  0  0  0
 12 10  1  1  0  0  0
 12 11  1  0  0  0  0
 14 18  1  0  0  0  0
 16 13  1  0  0  0  0
 17 13  1  0  0  0  0
 18 15  1  6  0  0  0
 18 19  1  0  0  0  0
 18 17  1  0  0  0  0
 19 11  1  1  0  0  0
 19 16  1  0  0  0  0
 20 24  1  6  0  0  0
 20  1  1  0  0  0  0
 20 22  1  0  0  0  0
 22 23  2  0  0  0  0
 22 21  1  0  0  0  0
 25 27  1  6  0  0  0
 25 28  1  0  0  0  0
 25 24  1  0  0  0  0
 26 25  2  0  0  0  0
M  END
>  <MODEL>
4

>  <REMARK>
 VINA RESULT:      -6.9      2.791      4.556
  Name = 
  5 active torsions:
  status: ('A' for Active; 'I' for Inactive)
    1  A    between atoms: C_1  and  C_16
    2  A    between atoms: C_4  and  C_20
    3  A    between atoms: P_6  and  O_17
    4  A    between atoms: C_16  and  O_17
    5  A    between atoms: C_16  and  C_27
                            x       y       z     vdW  Elec       q    Type
                         _______ _______ _______ _____ _____    ______ ____

>  <TORSDO>
F 5

$$$$
=
 OpenBabel11062423113D

 28 31  0  0  1  0  0  0  0  0999 V2000
  191.4220  174.5940  144.6680 C   0  0  0  0  0  0  0  0  0  0  0  0
  191.6190  174.5500  146.0750 N   0  0  0  0  0  0  0  0  0  0  0  0
  190.0450  177.4770  145.2970 C   0  0  0  0  0  2  0  0  0  0  0  0
  191.4180  176.8350  145.3030 C   0  0  1  0  0  3  0  0  0  0  0  0
  189.5400  177.5420  143.8470 C   0  0  1  0  0  3  0  0  0  0  0  0
  190.4670  176.3760  142.7650 S   0  0  0  0  0  0  0  0  0  0  0  0
  191.5910  175.9160  146.4580 C   0  0  0  0  0  0  0  0  0  0  0  0
  191.7150  176.2920  147.6530 O   0  0  0  0  0  0  0  0  0  0  0  0
  191.3450  175.8480  144.2110 C   0  0  2  0  0  3  0  0  0  0  0  0
  187.3360  178.3220  142.8290 C   0  0  0  0  0  2  0  0  0  0  0  0
  187.4260  177.3010  145.1890 C   0  0  0  0  0  2  0  0  0  0  0  0
  188.0290  177.3270  143.7830 C   0  0  2  0  0  3  0  0  0  0  0  0
  184.0690  178.1720  146.3320 C   0  0  0  0  0  2  0  0  0  0  0  0
  186.2230  179.1230  143.5070 C   0  0  0  0  0  2  0  0  0  0  0  0
  184.4520  177.5350  143.2610 O   0  0  0  0  0  1  0  0  0  0  0  0
  185.3220  177.3450  146.5130 C   0  0  0  0  0  2  0  0  0  0  0  0
  184.3230  179.0220  145.1070 C   0  0  0  0  0  2  0  0  0  0  0  0
  185.2290  178.1980  144.2130 C   0  0  2  0  0  0  0  0  0  0  0  0
  185.9050  177.1600  145.1260 C   0  0  1  0  0  3  0  0  0  0  0  0
  191.1580  173.3450  143.8770 C   0  0  2  0  0  3  0  0  0  0  0  0
  188.8870  173.1780  143.1270 O   0  0  0  0  0  0  0  0  0  0  0  0
  189.7380  172.8950  144.0120 C   0  0  0  0  0  0  0  0  0  0  0  0
  189.3640  172.1270  145.1050 O   0  0  0  0  0  1  0  0  0  0  0  0
  192.0480  172.3230  144.2300 O   0  0  0  0  0  0  0  0  0  0  0  0
  192.5880  171.6560  142.7640 P   0  0  2  0  0  0  0  0  0  0  0  0
  194.2200  171.2230  142.8790 O   0  0  0  0  0  1  0  0  0  0  0  0
  192.3970  172.8860  141.4480 C   0  0  0  0  0  1  0  0  0  0  0  0
  191.7630  170.4340  142.4250 O   0  0  0  0  0  0  0  0  0  0  0  0
  1  2  2  0  0  0  0
  2  7  1  0  0  0  0
  4  3  1  1  0  0  0
  4  7  1  0  0  0  0
  5  3  1  1  0  0  0
  6  5  1  0  0  0  0
  7  8  2  0  0  0  0
  9  6  1  1  0  0  0
  9  1  1  0  0  0  0
  9  4  1  0  0  0  0
 10 14  1  0  0  0  0
 12 10  1  6  0  0  0
 12  5  1  0  0  0  0
 12 11  1  0  0  0  0
 13 16  1  0  0  0  0
 14 18  1  0  0  0  0
 17 13  1  0  0  0  0
 18 15  1  6  0  0  0
 18 17  1  0  0  0  0
 18 19  1  0  0  0  0
 19 11  1  1  0  0  0
 19 16  1  0  0  0  0
 20 22  1  1  0  0  0
 20 24  1  0  0  0  0
 20  1  1  0  0  0  0
 21 22  2  0  0  0  0
 22 23  1  0  0  0  0
 25 27  1  6  0  0  0
 25 26  1  0  0  0  0
 25 24  1  0  0  0  0
 28 25  2  0  0  0  0
M  END
>  <MODEL>
5

>  <REMARK>
 VINA RESULT:      -6.7      2.767      4.105
  Name = 
  5 active torsions:
  status: ('A' for Active; 'I' for Inactive)
    1  A    between atoms: C_1  and  C_16
    2  A    between atoms: C_4  and  C_20
    3  A    between atoms: P_6  and  O_17
    4  A    between atoms: C_16  and  O_17
    5  A    between atoms: C_16  and  C_27
                            x       y       z     vdW  Elec       q    Type
                         _______ _______ _______ _____ _____    ______ ____

>  <TORSDO>
F 5

$$$$
=
 OpenBabel11062423113D

 28 31  0  0  1  0  0  0  0  0999 V2000
  191.7460  174.5970  144.2860 C   0  0  0  0  0  0  0  0  0  0  0  0
  191.9270  174.0840  145.5990 N   0  0  0  0  0  0  0  0  0  0  0  0
  190.2230  177.0340  145.8180 C   0  0  0  0  0  2  0  0  0  0  0  0
  191.6250  176.4850  145.6440 C   0  0  1  0  0  3  0  0  0  0  0  0
  189.7340  177.5680  144.4620 C   0  0  1  0  0  3  0  0  0  0  0  0
  190.7300  176.8800  143.0760 S   0  0  0  0  0  0  0  0  0  0  0  0
  191.8280  175.2350  146.4220 C   0  0  0  0  0  0  0  0  0  0  0  0
  191.9180  175.1860  147.6770 O   0  0  0  0  0  0  0  0  0  0  0  0
  191.6150  175.9270  144.2800 C   0  0  2  0  0  3  0  0  0  0  0  0
  187.6090  178.2710  143.2400 C   0  0  0  0  0  2  0  0  0  0  0  0
  187.5220  177.3440  145.6390 C   0  0  0  0  0  2  0  0  0  0  0  0
  188.2360  177.3250  144.2850 C   0  0  2  0  0  3  0  0  0  0  0  0
  184.0720  178.2040  146.4710 C   0  0  0  0  0  2  0  0  0  0  0  0
  186.4350  179.0800  143.7930 C   0  0  0  0  0  2  0  0  0  0  0  0
  184.7110  177.4540  143.4700 O   0  0  0  0  0  1  0  0  0  0  0  0
  185.3170  177.4060  146.7850 C   0  0  0  0  0  2  0  0  0  0  0  0
  184.4130  179.0100  145.2380 C   0  0  0  0  0  2  0  0  0  0  0  0
  185.3990  178.1670  144.4530 C   0  0  2  0  0  0  0  0  0  0  0  0
  186.0130  177.1760  145.4590 C   0  0  1  0  0  3  0  0  0  0  0  0
  191.5540  173.6830  143.1100 C   0  0  2  0  0  3  0  0  0  0  0  0
  193.8130  173.8050  142.3170 O   0  0  0  0  0  1  0  0  0  0  0  0
  192.5860  173.9170  142.0540 C   0  0  0  0  0  0  0  0  0  0  0  0
  192.1860  174.2250  140.7610 O   0  0  0  0  0  0  0  0  0  0  0  0
  190.2600  173.7940  142.5860 O   0  0  0  0  0  0  0  0  0  0  0  0
  189.5100  172.3010  142.8910 P   0  0  2  0  0  0  0  0  0  0  0  0
  189.4750  171.9870  144.5540 O   0  0  0  0  0  1  0  0  0  0  0  0
  190.4470  170.9880  142.0650 C   0  0  0  0  0  1  0  0  0  0  0  0
  188.0980  172.3180  142.3500 O   0  0  0  0  0  0  0  0  0  0  0  0
  1  2  2  0  0  0  0
  2  7  1  0  0  0  0
  4  3  1  1  0  0  0
  4  7  1  0  0  0  0
  5  3  1  1  0  0  0
  6  5  1  0  0  0  0
  7  8  2  0  0  0  0
  9  6  1  1  0  0  0
  9  1  1  0  0  0  0
  9  4  1  0  0  0  0
 10 14  1  0  0  0  0
 12 10  1  6  0  0  0
 12  5  1  0  0  0  0
 12 11  1  0  0  0  0
 13 16  1  0  0  0  0
 14 18  1  0  0  0  0
 17 13  1  0  0  0  0
 18 15  1  6  0  0  0
 18 17  1  0  0  0  0
 18 19  1  0  0  0  0
 19 11  1  1  0  0  0
 19 16  1  0  0  0  0
 20 22  1  6  0  0  0
 20  1  1  0  0  0  0
 22 21  1  0  0  0  0
 23 22  2  0  0  0  0
 24 25  1  0  0  0  0
 24 20  1  0  0  0  0
 25 27  1  6  0  0  0
 25 26  1  0  0  0  0
 28 25  2  0  0  0  0
M  END
>  <MODEL>
6

>  <REMARK>
 VINA RESULT:      -6.6      2.666      4.220
  Name = 
  5 active torsions:
  status: ('A' for Active; 'I' for Inactive)
    1  A    between atoms: C_1  and  C_16
    2  A    between atoms: C_4  and  C_20
    3  A    between atoms: P_6  and  O_17
    4  A    between atoms: C_16  and  O_17
    5  A    between atoms: C_16  and  C_27
                            x       y       z     vdW  Elec       q    Type
                         _______ _______ _______ _____ _____    ______ ____

>  <TORSDO>
F 5

$$$$
=
 OpenBabel11062423113D

 28 31  0  0  1  0  0  0  0  0999 V2000
  191.5710  175.4150  143.3340 C   0  0  0  0  0  0  0  0  0  0  0  0
  192.3650  175.4530  142.1560 N   0  0  0  0  0  0  0  0  0  0  0  0
  189.3220  174.1190  141.3680 C   0  0  0  0  0  2  0  0  0  0  0  0
  190.6540  173.7480  141.9920 C   0  0  1  0  0  3  0  0  0  0  0  0
  188.2780  174.2570  142.4870 C   0  0  1  0  0  3  0  0  0  0  0  0
  189.0830  174.4720  144.1280 S   0  0  0  0  0  0  0  0  0  0  0  0
  191.7850  174.4520  141.3330 C   0  0  0  0  0  0  0  0  0  0  0  0
  192.2060  174.1920  140.1760 O   0  0  0  0  0  0  0  0  0  0  0  0
  190.6420  174.4560  143.2840 C   0  0  2  0  0  3  0  0  0  0  0  0
  187.8960  176.4770  141.2920 C   0  0  0  0  0  2  0  0  0  0  0  0
  186.6320  175.8930  143.4560 C   0  0  0  0  0  2  0  0  0  0  0  0
  187.2800  175.3700  142.1720 C   0  0  2  0  0  3  0  0  0  0  0  0
  185.2330  179.1790  144.2190 C   0  0  0  0  0  2  0  0  0  0  0  0
  187.7830  177.8690  141.9160 C   0  0  0  0  0  2  0  0  0  0  0  0
  185.5720  178.4030  141.1760 O   0  0  0  0  0  1  0  0  0  0  0  0
  185.2250  177.6840  144.4510 C   0  0  0  0  0  2  0  0  0  0  0  0
  186.3140  179.4180  143.1890 C   0  0  0  0  0  2  0  0  0  0  0  0
  186.3390  178.1770  142.3200 C   0  0  2  0  0  0  0  0  0  0  0  0
  185.6880  177.0570  143.1520 C   0  0  1  0  0  3  0  0  0  0  0  0
  191.6970  176.4730  144.3940 C   0  0  2  0  0  3  0  0  0  0  0  0
  191.1190  178.4220  143.1220 O   0  0  0  0  0  0  0  0  0  0  0  0
  190.8440  177.6630  144.0900 C   0  0  0  0  0  0  0  0  0  0  0  0
  189.7170  177.9130  144.8600 O   0  0  0  0  0  1  0  0  0  0  0  0
  193.0330  176.8440  144.5850 O   0  0  0  0  0  0  0  0  0  0  0  0
  193.4930  176.1600  146.0700 P   0  0  2  0  0  0  0  0  0  0  0  0
  194.4750  174.8050  145.8170 O   0  0  0  0  0  0  0  0  0  0  0  0
  192.0060  175.6480  146.9710 C   0  0  0  0  0  1  0  0  0  0  0  0
  194.2440  177.1830  146.8930 O   0  0  0  0  0  1  0  0  0  0  0  0
  1 20  1  0  0  0  0
  2  1  2  0  0  0  0
  4  3  1  6  0  0  0
  4  9  1  0  0  0  0
  5  3  1  6  0  0  0
  5  6  1  0  0  0  0
  7  4  1  0  0  0  0
  7  2  1  0  0  0  0
  8  7  2  0  0  0  0
  9  1  1  6  0  0  0
  9  6  1  0  0  0  0
 10 14  1  0  0  0  0
 12 10  1  1  0  0  0
 12  5  1  0  0  0  0
 12 11  1  0  0  0  0
 13 16  1  0  0  0  0
 14 18  1  0  0  0  0
 17 13  1  0  0  0  0
 18 15  1  6  0  0  0
 18 19  1  0  0  0  0
 18 17  1  0  0  0  0
 19 11  1  1  0  0  0
 19 16  1  0  0  0  0
 20 22  1  6  0  0  0
 20 24  1  0  0  0  0
 21 22  2  0  0  0  0
 22 23  1  0  0  0  0
 24 25  1  0  0  0  0
 25 28  1  0  0  0  0
 25 27  1  1  0  0  0
 26 25  2  0  0  0  0
M  END
>  <MODEL>
7

>  <REMARK>
 VINA RESULT:      -6.4      2.464      3.448
  Name = 
  5 active torsions:
  status: ('A' for Active; 'I' for Inactive)
    1  A    between atoms: C_1  and  C_16
    2  A    between atoms: C_4  and  C_20
    3  A    between atoms: P_6  and  O_17
    4  A    between atoms: C_16  and  O_17
    5  A    between atoms: C_16  and  C_27
                            x       y       z     vdW  Elec       q    Type
                         _______ _______ _______ _____ _____    ______ ____

>  <TORSDO>
F 5

$$$$
=
 OpenBabel11062423113D

 28 31  0  0  1  0  0  0  0  0999 V2000
  186.7270  176.8150  143.0520 C   0  0  0  0  0  0  0  0  0  0  0  0
  186.4310  175.4250  143.0470 N   0  0  0  0  0  0  0  0  0  0  0  0
  189.7320  175.8300  142.2750 C   0  0  0  0  0  2  0  0  0  0  0  0
  188.3510  175.9050  141.6530 C   0  0  1  0  0  3  0  0  0  0  0  0
  190.2470  177.2600  142.4960 C   0  0  1  0  0  3  0  0  0  0  0  0
  188.8690  178.4800  142.4620 S   0  0  0  0  0  0  0  0  0  0  0  0
  187.4380  174.8740  142.2130 C   0  0  0  0  0  0  0  0  0  0  0  0
  187.5270  173.6410  141.9730 O   0  0  0  0  0  0  0  0  0  0  0  0
  187.7610  177.1120  142.2590 C   0  0  2  0  0  3  0  0  0  0  0  0
  192.4740  176.7090  143.6110 C   0  0  0  0  0  2  0  0  0  0  0  0
  190.2920  176.8190  144.9720 C   0  0  0  0  0  2  0  0  0  0  0  0
  191.0810  177.3520  143.7730 C   0  0  2  0  0  3  0  0  0  0  0  0
  191.4670  175.3060  148.0810 C   0  0  0  0  0  2  0  0  0  0  0  0
  192.7560  175.6240  144.6510 C   0  0  0  0  0  2  0  0  0  0  0  0
  193.5270  177.0340  146.4230 O   0  0  0  0  0  1  0  0  0  0  0  0
  190.4190  176.1190  147.3530 C   0  0  0  0  0  2  0  0  0  0  0  0
  192.5140  174.9780  147.0400 C   0  0  0  0  0  2  0  0  0  0  0  0
  192.5120  176.1430  146.0710 C   0  0  2  0  0  0  0  0  0  0  0  0
  191.1490  176.8390  146.2380 C   0  0  1  0  0  3  0  0  0  0  0  0
  186.0370  177.7560  143.9970 C   0  0  2  0  0  3  0  0  0  0  0  0
  184.8030  178.7780  142.2130 O   0  0  0  0  0  0  0  0  0  0  0  0
  185.4560  178.9330  143.2790 C   0  0  0  0  0  0  0  0  0  0  0  0
  185.6070  180.2040  143.8130 O   0  0  0  0  0  1  0  0  0  0  0  0
  186.8950  178.1650  145.0250 O   0  0  0  0  0  0  0  0  0  0  0  0
  186.1020  177.7660  146.4730 P   0  0  2  0  0  0  0  0  0  0  0  0
  186.1640  179.0640  147.5570 O   0  0  0  0  0  1  0  0  0  0  0  0
  186.9240  176.3350  147.2230 C   0  0  0  0  0  1  0  0  0  0  0  0
  184.6590  177.4150  146.1860 O   0  0  0  0  0  0  0  0  0  0  0  0
  1 20  1  0  0  0  0
  2  1  2  0  0  0  0
  4  7  1  0  0  0  0
  4  9  1  0  0  0  0
  4  3  1  1  0  0  0
  5  3  1  1  0  0  0
  5 12  1  0  0  0  0
  6  5  1  0  0  0  0
  7  2  1  0  0  0  0
  8  7  2  0  0  0  0
  9  6  1  1  0  0  0
  9  1  1  0  0  0  0
 10 14  1  0  0  0  0
 12 10  1  6  0  0  0
 12 11  1  0  0  0  0
 14 18  1  0  0  0  0
 16 13  1  0  0  0  0
 17 13  1  0  0  0  0
 18 19  1  0  0  0  0
 18 15  1  1  0  0  0
 18 17  1  0  0  0  0
 19 11  1  6  0  0  0
 19 16  1  0  0  0  0
 20 22  1  6  0  0  0
 20 24  1  0  0  0  0
 21 22  2  0  0  0  0
 22 23  1  0  0  0  0
 24 25  1  0  0  0  0
 25 27  1  1  0  0  0
 25 26  1  0  0  0  0
 28 25  2  0  0  0  0
M  END
>  <MODEL>
8

>  <REMARK>
 VINA RESULT:      -6.3      3.045      6.774
  Name = 
  5 active torsions:
  status: ('A' for Active; 'I' for Inactive)
    1  A    between atoms: C_1  and  C_16
    2  A    between atoms: C_4  and  C_20
    3  A    between atoms: P_6  and  O_17
    4  A    between atoms: C_16  and  O_17
    5  A    between atoms: C_16  and  C_27
                            x       y       z     vdW  Elec       q    Type
                         _______ _______ _______ _____ _____    ______ ____

>  <TORSDO>
F 5

$$$$
=
 OpenBabel11062423113D

 28 31  0  0  1  0  0  0  0  0999 V2000
  189.5600  176.2670  144.8860 C   0  0  0  0  0  0  0  0  0  0  0  0
  189.0780  177.4190  145.5650 N   0  0  0  0  0  0  0  0  0  0  0  0
  191.7730  176.2050  147.2730 C   0  0  0  0  0  2  0  0  0  0  0  0
  190.2880  175.9670  147.0770 C   0  0  1  0  0  3  0  0  0  0  0  0
  192.5480  175.1180  146.5140 C   0  0  1  0  0  3  0  0  0  0  0  0
  191.4880  174.3030  145.2480 S   0  0  0  0  0  0  0  0  0  0  0  0
  189.5460  177.2420  146.8930 C   0  0  0  0  0  0  0  0  0  0  0  0
  189.3350  178.0790  147.8080 O   0  0  0  0  0  0  0  0  0  0  0  0
  190.2000  175.4300  145.7070 C   0  0  2  0  0  3  0  0  0  0  0  0
  193.5920  176.5200  144.6560 C   0  0  0  0  0  2  0  0  0  0  0  0
  194.8720  174.5620  145.7290 C   0  0  0  0  0  2  0  0  0  0  0  0
  193.8420  175.6770  145.9240 C   0  0  2  0  0  3  0  0  0  0  0  0
  197.6240  174.2880  143.3430 C   0  0  0  0  0  2  0  0  0  0  0  0
  194.3850  176.0270  143.4450 C   0  0  0  0  0  2  0  0  0  0  0  0
  196.4400  177.1660  143.8890 O   0  0  0  0  0  1  0  0  0  0  0  0
  197.0530  173.9520  144.7020 C   0  0  0  0  0  2  0  0  0  0  0  0
  196.5700  175.1370  142.6650 C   0  0  0  0  0  2  0  0  0  0  0  0
  195.8730  175.8950  143.7760 C   0  0  2  0  0  0  0  0  0  0  0  0
  196.1410  175.1050  145.0700 C   0  0  1  0  0  3  0  0  0  0  0  0
  189.4820  176.1540  143.3900 C   0  0  2  0  0  3  0  0  0  0  0  0
  190.9820  177.9160  142.7630 O   0  0  0  0  0  1  0  0  0  0  0  0
  189.8130  177.4490  142.7200 C   0  0  0  0  0  0  0  0  0  0  0  0
  188.8290  178.1250  142.0120 O   0  0  0  0  0  0  0  0  0  0  0  0
  188.2300  175.6780  142.9810 O   0  0  0  0  0  0  0  0  0  0  0  0
  188.5450  174.5450  141.7560 P   0  0  2  0  0  0  0  0  0  0  0  0
  187.6460  173.1340  142.0120 O   0  0  0  0  0  1  0  0  0  0  0  0
  190.3090  174.1280  141.7750 C   0  0  0  0  0  1  0  0  0  0  0  0
  188.1890  175.1350  140.4100 O   0  0  0  0  0  0  0  0  0  0  0  0
  1  2  2  0  0  0  0
  2  7  1  0  0  0  0
  4  3  1  6  0  0  0
  5  3  1  6  0  0  0
  6  9  1  0  0  0  0
  6  5  1  0  0  0  0
  7  4  1  0  0  0  0
  7  8  2  0  0  0  0
  9  1  1  6  0  0  0
  9  4  1  0  0  0  0
 11 12  1  0  0  0  0
 12 10  1  6  0  0  0
 12  5  1  0  0  0  0
 13 16  1  0  0  0  0
 14 18  1  0  0  0  0
 14 10  1  0  0  0  0
 17 13  1  0  0  0  0
 17 18  1  0  0  0  0
 18 15  1  1  0  0  0
 18 19  1  0  0  0  0
 19 16  1  6  0  0  0
 19 11  1  0  0  0  0
 20 22  1  6  0  0  0
 20  1  1  0  0  0  0
 22 21  1  0  0  0  0
 23 22  2  0  0  0  0
 24 20  1  0  0  0  0
 25 27  1  1  0  0  0
 25 26  1  0  0  0  0
 25 24  1  0  0  0  0
 28 25  2  0  0  0  0
M  END
>  <MODEL>
9

>  <REMARK>
 VINA RESULT:      -6.2      3.152      7.183
  Name = 
  5 active torsions:
  status: ('A' for Active; 'I' for Inactive)
    1  A    between atoms: C_1  and  C_16
    2  A    between atoms: C_4  and  C_20
    3  A    between atoms: P_6  and  O_17
    4  A    between atoms: C_16  and  O_17
    5  A    between atoms: C_16  and  C_27
                            x       y       z     vdW  Elec       q    Type
                         _______ _______ _______ _____ _____    ______ ____

>  <TORSDO>
F 5

$$$$
