=
 OpenBabel11062421213D

 51 58  0  0  1  0  0  0  0  0999 V2000
  194.1660  169.2020  144.3550 C   0  0  0  0  0  2  0  0  0  0  0  0
  195.1060  168.2090  143.6820 C   0  0  0  0  0  2  0  0  0  0  0  0
  186.5550  177.9340  142.9850 N   0  0  0  0  0  0  0  0  0  0  0  0
  195.7240  169.9550  141.9620 C   0  0  1  0  0  3  0  0  0  0  0  0
  193.0590  172.4360  144.4130 C   0  0  0  0  0  0  0  0  0  0  0  0
  189.1360  176.8100  145.4890 C   0  0  2  0  0  3  0  0  0  0  0  0
  195.1920  169.2420  140.7300 C   0  0  0  0  0  1  0  0  0  0  0  0
  185.8000  177.3930  141.8430 C   0  0  2  0  0  3  0  0  0  0  0  0
  187.5440  175.6280  141.5940 C   0  0  1  0  0  3  0  0  0  0  0  0
  187.7610  177.2840  143.4440 C   0  0  0  0  0  0  0  0  0  0  0  0
  193.9380  175.0290  145.2600 O   0  0  0  0  0  0  0  0  0  0  0  0
  195.2520  171.9820  143.4110 C   0  0  0  0  0  0  0  0  0  0  0  0
  192.7690  176.4120  147.4050 C   0  0  0  0  0  2  0  0  0  0  0  0
  189.9500  174.3170  142.8850 O   0  0  0  0  0  0  0  0  0  0  0  0
  196.4680  172.3030  143.3020 O   0  0  0  0  0  0  0  0  0  0  0  0
  194.6610  170.9010  142.5470 C   0  0  2  0  0  3  0  0  0  0  0  0
  189.8470  171.5910  141.7270 O   0  0  0  0  0  1  0  0  0  0  0  0
  186.7390  176.6970  140.8740 C   0  0  0  0  0  2  0  0  0  0  0  0
  189.7380  175.7660  144.6680 N   0  0  0  0  0  0  0  0  0  0  0  0
  189.3360  175.4160  143.4920 C   0  0  0  0  0  0  0  0  0  0  0  0
  191.2540  170.9250  143.3800 O   0  0  0  0  0  0  0  0  0  0  0  0
  193.5680  170.1340  143.3060 C   0  0  2  0  0  3  0  0  0  0  0  0
  190.3590  176.5690  147.4520 C   0  0  1  0  0  3  0  0  0  0  0  0
  191.6150  177.0960  148.1290 C   0  0  0  0  0  2  0  0  0  0  0  0
  188.5390  177.8910  144.5900 C   0  0  0  0  0  2  0  0  0  0  0  0
  188.5240  175.0510  140.5850 C   0  0  0  0  0  1  0  0  0  0  0  0
  194.4280  172.7040  144.2760 O   0  0  0  0  0  0  0  0  0  0  0  0
  191.8570  172.6160  141.8850 O   0  0  0  0  0  1  0  0  0  0  0  0
  190.8180  172.0380  142.6250 C   0  0  0  0  0  0  0  0  0  0  0  0
  190.1410  177.3740  146.3010 O   0  0  0  0  0  0  0  0  0  0  0  0
  192.5420  171.0660  143.9570 C   0  0  1  0  0  3  0  0  0  0  0  0
  188.2460  176.1820  142.8200 C   0  0  0  0  0  0  0  0  0  0  0  0
  192.1880  175.2350  146.7760 N   0  0  0  0  0  0  0  0  0  0  0  0
  190.7680  173.1480  144.9680 C   0  0  0  0  0  2  0  0  0  0  0  0
  190.1590  173.0670  143.5500 C   0  0  1  0  0  3  0  0  0  0  0  0
  196.2450  168.9510  142.9920 C   0  0  0  0  0  2  0  0  0  0  0  0
  192.2550  173.3600  144.9850 C   0  0  0  0  0  0  0  0  0  0  0  0
  190.7780  175.1390  147.0980 C   0  0  0  0  0  2  0  0  0  0  0  0
  192.8270  174.5810  145.6530 C   0  0  0  0  0  0  0  0  0  0  0  0
  185.8810  178.8530  143.9010 C   0  0  0  0  0  2  0  0  0  0  0  0
  184.7650  178.1320  144.6310 C   0  0  0  0  0  2  0  0  0  0  0  0
  185.3180  177.0780  145.4680 N   0  0  0  0  0  2  0  0  0  0  0  0
  184.8540  177.3280  146.8190 C   0  0  2  0  0  3  0  0  0  0  0  0
  184.3350  178.5890  146.9030 O   0  0  0  0  0  0  0  0  0  0  0  0
  186.7760  178.5540  147.9750 O   0  0  0  0  0  0  0  0  0  0  0  0
  185.6900  178.2370  147.4210 C   0  0  0  0  0  0  0  0  0  0  0  0
  185.0540  178.4950  141.1060 C   0  0  0  0  0  2  0  0  0  0  0  0
  183.9040  177.9020  140.3120 C   0  0  0  0  0  2  0  0  0  0  0  0
  181.4930  178.3080  140.1950 O   0  0  0  0  0  0  0  0  0  0  0  0
  182.6380  178.2360  140.9460 N   0  0  0  0  0  0  0  0  0  0  0  0
  182.5910  178.4420  142.1750 O   0  0  0  0  0  0  0  0  0  0  0  0
  2  1  1  0  0  0  0
  3 10  1  0  0  0  0
  3 40  1  0  0  0  0
  4  7  1  6  0  0  0
  4 16  1  0  0  0  0
  4 36  1  0  0  0  0
  5 37  2  0  0  0  0
  6 25  1  6  0  0  0
  6 30  1  0  0  0  0
  8 47  1  6  0  0  0
  8  3  1  0  0  0  0
  9 26  1  6  0  0  0
  9 32  1  0  0  0  0
 10 25  1  0  0  0  0
 11 39  2  0  0  0  0
 12 27  1  0  0  0  0
 13 24  1  0  0  0  0
 14 20  1  0  0  0  0
 14 35  1  0  0  0  0
 15 12  2  0  0  0  0
 16 22  1  0  0  0  0
 16 12  1  1  0  0  0
 17 29  1  0  0  0  0
 18  9  1  0  0  0  0
 18  8  1  0  0  0  0
 19  6  1  0  0  0  0
 20 19  2  0  0  0  0
 22 31  1  0  0  0  0
 22  1  1  1  0  0  0
 23 38  1  6  0  0  0
 23 24  1  0  0  0  0
 27  5  1  0  0  0  0
 28 29  1  0  0  0  0
 29 21  1  0  0  0  0
 29 35  1  0  0  0  0
 30 23  1  0  0  0  0
 31 21  1  6  0  0  0
 31  5  1  0  0  0  0
 32 10  2  0  0  0  0
 32 20  1  0  0  0  0
 33 38  1  0  0  0  0
 33 13  1  0  0  0  0
 34 37  1  0  0  0  0
 35 34  1  1  0  0  0
 36  2  1  0  0  0  0
 37 39  1  0  0  0  0
 39 33  1  0  0  0  0
 40 41  1  0  0  0  0
 41 42  1  0  0  0  0
 43 42  1  6  0  0  0
 43 44  1  0  0  0  0
 43 46  1  0  0  0  0
 44 46  1  0  0  0  0
 46 45  2  0  0  0  0
 48 50  1  0  0  0  0
 48 47  1  0  0  0  0
 49 50  2  0  0  0  0
 50 51  2  0  0  0  0
M  END
>  <MODEL>
1

>  <REMARK>
 VINA RESULT:      -8.8      0.000      0.000
  Name = 
  7 active torsions:
  status: ('A' for Active; 'I' for Inactive)
    1  A    between atoms: N_3  and  C_23
    2  A    between atoms: C_4  and  N_37
    3  A    between atoms: C_9  and  N_35
    4  A    between atoms: C_9  and  C_38
    5  A    between atoms: C_10  and  C_38
    6  A    between atoms: C_23  and  C_25
    7  A    between atoms: C_25  and  N_37
                            x       y       z     vdW  Elec       q    Type
                         _______ _______ _______ _____ _____    ______ ____

>  <TORSDO>
F 7

$$$$
=
 OpenBabel11062421213D

 51 58  0  0  1  0  0  0  0  0999 V2000
  196.5430  170.1280  139.9810 C   0  0  0  0  0  2  0  0  0  0  0  0
  197.1510  169.3950  138.7910 C   0  0  0  0  0  2  0  0  0  0  0  0
  187.8620  176.8410  143.9360 N   0  0  0  0  0  0  0  0  0  0  0  0
  196.4140  171.2660  137.2580 C   0  0  1  0  0  3  0  0  0  0  0  0
  195.0410  173.0080  141.0460 C   0  0  0  0  0  0  0  0  0  0  0  0
  191.5380  176.3160  144.5760 C   0  0  2  0  0  3  0  0  0  0  0  0
  195.4560  170.4670  136.3890 C   0  0  0  0  0  1  0  0  0  0  0  0
  186.7360  176.1550  143.2810 C   0  0  2  0  0  3  0  0  0  0  0  0
  188.3810  174.8550  141.9300 C   0  0  1  0  0  3  0  0  0  0  0  0
  189.2260  176.4860  143.6160 C   0  0  2  0  0  3  0  0  0  0  0  0
  195.7200  175.7210  141.6720 O   0  0  0  0  0  0  0  0  0  0  0  0
  196.4060  173.1000  139.0090 C   0  0  0  0  0  0  0  0  0  0  0  0
  195.6310  176.7540  144.2800 C   0  0  0  0  0  2  0  0  0  0  0  0
  191.3030  174.1270  141.6070 O   0  0  0  0  0  0  0  0  0  0  0  0
  197.2900  173.7010  138.3370 O   0  0  0  0  0  0  0  0  0  0  0  0
  195.6660  171.9240  138.4310 C   0  0  2  0  0  3  0  0  0  0  0  0
  191.1250  171.4740  140.3020 O   0  0  0  0  0  1  0  0  0  0  0  0
  187.1290  175.7160  141.8810 C   0  0  0  0  0  2  0  0  0  0  0  0
  191.7990  175.4570  143.4280 N   0  0  0  0  0  0  0  0  0  0  0  0
  190.9090  175.0410  142.5900 C   0  0  0  0  0  0  0  0  0  0  0  0
  193.2920  171.1310  140.8880 O   0  0  0  0  0  0  0  0  0  0  0  0
  195.3140  170.9090  139.5280 C   0  0  2  0  0  3  0  0  0  0  0  0
  193.6360  176.3380  145.5780 C   0  0  1  0  0  3  0  0  0  0  0  0
  194.9320  177.1350  145.5800 C   0  0  0  0  0  2  0  0  0  0  0  0
  190.3610  177.2400  144.2710 C   0  0  0  0  0  2  0  0  0  0  0  0
  188.7640  174.5420  140.4930 C   0  0  0  0  0  1  0  0  0  0  0  0
  196.0470  173.5930  140.2650 O   0  0  0  0  0  0  0  0  0  0  0  0
  192.6720  172.9400  139.5460 O   0  0  0  0  0  1  0  0  0  0  0  0
  192.3180  172.1220  140.6260 C   0  0  0  0  0  0  0  0  0  0  0  0
  192.6910  177.0880  144.8270 O   0  0  0  0  0  0  0  0  0  0  0  0
  194.6340  171.5620  140.7350 C   0  0  1  0  0  3  0  0  0  0  0  0
  189.5050  175.5390  142.6850 C   0  0  1  0  0  3  0  0  0  0  0  0
  195.0420  175.4840  143.8820 N   0  0  0  0  0  0  0  0  0  0  0  0
  193.3080  173.1510  142.7900 C   0  0  0  0  0  2  0  0  0  0  0  0
  192.0690  172.9510  141.8910 C   0  0  1  0  0  3  0  0  0  0  0  0
  197.5830  170.3950  137.7250 C   0  0  0  0  0  2  0  0  0  0  0  0
  194.5050  173.7070  142.0710 C   0  0  0  0  0  0  0  0  0  0  0  0
  194.0680  175.0530  144.8650 C   0  0  0  0  0  2  0  0  0  0  0  0
  195.0980  175.0170  142.5130 C   0  0  0  0  0  0  0  0  0  0  0  0
  187.6170  177.5590  145.1850 C   0  0  0  0  0  2  0  0  0  0  0  0
  187.3050  176.5760  146.2960 C   0  0  0  0  0  2  0  0  0  0  0  0
  185.9910  176.8560  146.8540 N   0  0  0  0  0  2  0  0  0  0  0  0
  185.8450  178.2980  146.8830 C   0  0  2  0  0  3  0  0  0  0  0  0
  185.0360  178.6600  147.9230 O   0  0  0  0  0  0  0  0  0  0  0  0
  183.6620  178.7790  145.6410 O   0  0  0  0  0  0  0  0  0  0  0  0
  184.5650  178.6280  146.5060 C   0  0  0  0  0  0  0  0  0  0  0  0
  185.5180  177.0620  143.1920 C   0  0  0  0  0  2  0  0  0  0  0  0
  185.5240  177.8120  141.8710 C   0  0  0  0  0  2  0  0  0  0  0  0
  183.8430  178.3130  140.1640 O   0  0  0  0  0  0  0  0  0  0  0  0
  184.1630  178.1530  141.4880 N   0  0  0  0  0  0  0  0  0  0  0  0
  183.2830  178.2830  142.3620 O   0  0  0  0  0  0  0  0  0  0  0  0
  2  1  1  0  0  0  0
  3 40  1  0  0  0  0
  4  7  1  1  0  0  0
  4 36  1  0  0  0  0
  4 16  1  0  0  0  0
  5 37  2  0  0  0  0
  6 25  1  6  0  0  0
  6 30  1  0  0  0  0
  8 47  1  6  0  0  0
  8  3  1  0  0  0  0
  9 26  1  6  0  0  0
  9 32  1  0  0  0  0
 10  3  1  0  0  0  0
 10 25  1  6  0  0  0
 11 39  2  0  0  0  0
 12 27  1  0  0  0  0
 13 24  1  0  0  0  0
 14 35  1  0  0  0  0
 14 20  1  0  0  0  0
 15 12  2  0  0  0  0
 16 12  1  1  0  0  0
 16 22  1  0  0  0  0
 17 29  1  0  0  0  0
 18  9  1  0  0  0  0
 18  8  1  0  0  0  0
 19  6  1  0  0  0  0
 20 19  2  0  0  0  0
 22  1  1  1  0  0  0
 22 31  1  0  0  0  0
 23 38  1  6  0  0  0
 23 24  1  0  0  0  0
 27  5  1  0  0  0  0
 28 29  1  0  0  0  0
 29 21  1  0  0  0  0
 29 35  1  0  0  0  0
 30 23  1  0  0  0  0
 31 21  1  6  0  0  0
 31  5  1  0  0  0  0
 32 20  1  1  0  0  0
 32 10  1  0  0  0  0
 33 13  1  0  0  0  0
 33 38  1  0  0  0  0
 35 34  1  6  0  0  0
 36  2  1  0  0  0  0
 37 39  1  0  0  0  0
 37 34  1  0  0  0  0
 39 33  1  0  0  0  0
 40 41  1  0  0  0  0
 41 42  1  0  0  0  0
 43 42  1  1  0  0  0
 43 44  1  0  0  0  0
 45 46  2  0  0  0  0
 46 43  1  0  0  0  0
 46 44  1  0  0  0  0
 48 47  1  0  0  0  0
 49 50  2  0  0  0  0
 50 48  1  0  0  0  0
 50 51  2  0  0  0  0
M  END
>  <MODEL>
2

>  <REMARK>
 VINA RESULT:      -8.4      2.484      3.285
  Name = 
  7 active torsions:
  status: ('A' for Active; 'I' for Inactive)
    1  A    between atoms: N_3  and  C_23
    2  A    between atoms: C_4  and  N_37
    3  A    between atoms: C_9  and  N_35
    4  A    between atoms: C_9  and  C_38
    5  A    between atoms: C_10  and  C_38
    6  A    between atoms: C_23  and  C_25
    7  A    between atoms: C_25  and  N_37
                            x       y       z     vdW  Elec       q    Type
                         _______ _______ _______ _____ _____    ______ ____

>  <TORSDO>
F 7

$$$$
=
 OpenBabel11062421213D

 51 58  0  0  1  0  0  0  0  0999 V2000
  184.9450  176.6960  146.2990 C   0  0  0  0  0  2  0  0  0  0  0  0
  184.1450  177.6870  147.1340 C   0  0  0  0  0  2  0  0  0  0  0  0
  195.3640  173.7200  141.9800 N   0  0  0  0  0  0  0  0  0  0  0  0
  185.5540  179.5850  146.2380 C   0  0  1  0  0  3  0  0  0  0  0  0
  187.3640  176.3350  143.9100 C   0  0  0  0  0  0  0  0  0  0  0  0
  191.7340  173.4880  140.9980 C   0  0  2  0  0  3  0  0  0  0  0  0
  186.1780  180.0290  147.5510 C   0  0  0  0  0  1  0  0  0  0  0  0
  196.1810  173.9700  143.1790 C   0  0  2  0  0  3  0  0  0  0  0  0
  194.2130  175.0930  144.2210 C   0  0  1  0  0  3  0  0  0  0  0  0
  193.9740  174.1120  141.9420 C   0  0  0  0  0  0  0  0  0  0  0  0
  187.7020  176.6530  141.0810 O   0  0  0  0  0  0  0  0  0  0  0  0
  186.1810  178.4810  144.0440 C   0  0  0  0  0  0  0  0  0  0  0  0
  188.0910  174.4880  139.3370 C   0  0  0  0  0  2  0  0  0  0  0  0
  191.2360  175.6010  143.9900 O   0  0  0  0  0  0  0  0  0  0  0  0
  185.5950  179.4220  143.4400 O   0  0  0  0  0  0  0  0  0  0  0  0
  186.4580  178.5690  145.5210 C   0  0  2  0  0  3  0  0  0  0  0  0
  190.4710  176.0150  146.8220 O   0  0  0  0  0  1  0  0  0  0  0  0
  195.6930  175.2160  143.8970 C   0  0  0  0  0  2  0  0  0  0  0  0
  191.2090  174.3530  142.0490 N   0  0  0  0  0  0  0  0  0  0  0  0
  191.9100  174.8910  142.9910 C   0  0  0  0  0  0  0  0  0  0  0  0
  188.3130  175.6710  146.2040 O   0  0  0  0  0  0  0  0  0  0  0  0
  186.3860  177.1790  146.1710 C   0  0  2  0  0  3  0  0  0  0  0  0
  189.7620  172.8520  139.9450 C   0  0  1  0  0  3  0  0  0  0  0  0
  188.8450  173.2750  138.8060 C   0  0  0  0  0  2  0  0  0  0  0  0
  193.1750  173.8820  140.6790 C   0  0  0  0  0  2  0  0  0  0  0  0
  193.7810  176.4110  144.8440 C   0  0  0  0  0  1  0  0  0  0  0  0
  186.6610  177.3920  143.3140 O   0  0  0  0  0  0  0  0  0  0  0  0
  189.5850  177.3880  145.2590 O   0  0  0  0  0  1  0  0  0  0  0  0
  189.5870  176.0740  145.7430 C   0  0  0  0  0  0  0  0  0  0  0  0
  190.9350  173.6480  139.8480 O   0  0  0  0  0  0  0  0  0  0  0  0
  187.2240  176.1380  145.4240 C   0  0  1  0  0  3  0  0  0  0  0  0
  193.3950  174.7470  142.9910 C   0  0  0  0  0  0  0  0  0  0  0  0
  188.1880  174.3990  140.7870 N   0  0  0  0  0  0  0  0  0  0  0  0
  188.9820  174.4830  143.7870 C   0  0  0  0  0  2  0  0  0  0  0  0
  190.0880  175.0930  144.6770 C   0  0  1  0  0  3  0  0  0  0  0  0
  184.1360  179.0540  146.4600 C   0  0  0  0  0  2  0  0  0  0  0  0
  188.0900  175.4990  143.1330 C   0  0  0  0  0  0  0  0  0  0  0  0
  188.9120  173.2030  141.1690 C   0  0  0  0  0  2  0  0  0  0  0  0
  188.0030  175.5590  141.6330 C   0  0  0  0  0  0  0  0  0  0  0  0
  195.8210  172.7210  141.0160 C   0  0  0  0  0  2  0  0  0  0  0  0
  195.7490  171.3360  141.6290 C   0  0  0  0  0  2  0  0  0  0  0  0
  194.6040  170.6140  141.0950 N   0  0  0  0  0  2  0  0  0  0  0  0
  194.1240  169.7450  142.1510 C   0  0  2  0  0  3  0  0  0  0  0  0
  192.7580  169.7020  142.1300 O   0  0  0  0  0  0  0  0  0  0  0  0
  193.5710  171.3000  144.1040 O   0  0  0  0  0  0  0  0  0  0  0  0
  193.5260  170.5080  143.1250 C   0  0  0  0  0  0  0  0  0  0  0  0
  197.6470  174.1490  142.8170 C   0  0  0  0  0  2  0  0  0  0  0  0
  197.9160  175.5950  142.4380 C   0  0  0  0  0  2  0  0  0  0  0  0
  197.9410  175.1540  140.0310 O   0  0  0  0  0  0  0  0  0  0  0  0
  197.4280  175.8550  141.0930 N   0  0  0  0  0  0  0  0  0  0  0  0
  196.5320  176.7020  140.9060 O   0  0  0  0  0  0  0  0  0  0  0  0
  1  2  1  0  0  0  0
  3  8  1  0  0  0  0
  4 36  1  0  0  0  0
  4  7  1  1  0  0  0
  6 25  1  6  0  0  0
  6 19  1  0  0  0  0
  8 47  1  6  0  0  0
  8 18  1  0  0  0  0
  9 26  1  6  0  0  0
 10  3  1  0  0  0  0
 10 32  2  0  0  0  0
 11 39  2  0  0  0  0
 13 33  1  0  0  0  0
 14 35  1  0  0  0  0
 15 12  2  0  0  0  0
 16 12  1  6  0  0  0
 16 22  1  0  0  0  0
 16  4  1  0  0  0  0
 18  9  1  0  0  0  0
 19 20  2  0  0  0  0
 20 32  1  0  0  0  0
 20 14  1  0  0  0  0
 22  1  1  6  0  0  0
 23 24  1  6  0  0  0
 23 38  1  0  0  0  0
 24 13  1  0  0  0  0
 25 10  1  0  0  0  0
 27  5  1  0  0  0  0
 27 12  1  0  0  0  0
 28 29  1  0  0  0  0
 29 21  1  0  0  0  0
 29 17  1  0  0  0  0
 30 23  1  0  0  0  0
 30  6  1  0  0  0  0
 31  5  1  6  0  0  0
 31 22  1  0  0  0  0
 31 21  1  0  0  0  0
 32  9  1  0  0  0  0
 33 38  1  0  0  0  0
 33 39  1  0  0  0  0
 35 34  1  6  0  0  0
 35 29  1  0  0  0  0
 36  2  1  0  0  0  0
 37 34  1  0  0  0  0
 37  5  2  0  0  0  0
 39 37  1  0  0  0  0
 40 41  1  0  0  0  0
 40  3  1  0  0  0  0
 42 41  1  0  0  0  0
 43 42  1  6  0  0  0
 43 46  1  0  0  0  0
 44 43  1  0  0  0  0
 44 46  1  0  0  0  0
 46 45  2  0  0  0  0
 48 47  1  0  0  0  0
 49 50  2  0  0  0  0
 50 48  1  0  0  0  0
 51 50  2  0  0  0  0
M  END
>  <MODEL>
3

>  <REMARK>
 VINA RESULT:      -8.4      3.000     10.168
  Name = 
  7 active torsions:
  status: ('A' for Active; 'I' for Inactive)
    1  A    between atoms: N_3  and  C_23
    2  A    between atoms: C_4  and  N_37
    3  A    between atoms: C_9  and  N_35
    4  A    between atoms: C_9  and  C_38
    5  A    between atoms: C_10  and  C_38
    6  A    between atoms: C_23  and  C_25
    7  A    between atoms: C_25  and  N_37
                            x       y       z     vdW  Elec       q    Type
                         _______ _______ _______ _____ _____    ______ ____

>  <TORSDO>
F 7

$$$$
=
 OpenBabel11062421213D

 51 58  0  0  1  0  0  0  0  0999 V2000
  196.7060  170.7760  143.2170 C   0  0  0  0  0  2  0  0  0  0  0  0
  197.7310  169.9880  144.0230 C   0  0  0  0  0  2  0  0  0  0  0  0
  187.1380  177.4450  143.4160 N   0  0  0  0  0  0  0  0  0  0  0  0
  195.9190  169.2740  145.6340 C   0  0  1  0  0  3  0  0  0  0  0  0
  193.3910  171.5180  142.8340 C   0  0  0  0  0  0  0  0  0  0  0  0
  188.7370  174.8740  141.1740 C   0  0  2  0  0  3  0  0  0  0  0  0
  196.4640  169.9460  146.8840 C   0  0  0  0  0  1  0  0  0  0  0  0
  187.4980  178.3150  144.5480 C   0  0  2  0  0  3  0  0  0  0  0  0
  189.4090  176.7910  145.0440 C   0  0  1  0  0  3  0  0  0  0  0  0
  187.9490  176.2950  143.0850 C   0  0  2  0  0  3  0  0  0  0  0  0
  190.9860  170.3160  141.8400 O   0  0  0  0  0  0  0  0  0  0  0  0
  193.9850  169.4440  144.0020 C   0  0  0  0  0  0  0  0  0  0  0  0
  189.6780  171.2100  139.5230 C   0  0  0  0  0  2  0  0  0  0  0  0
  191.0710  174.4780  144.0130 O   0  0  0  0  0  0  0  0  0  0  0  0
  193.7850  168.2070  144.1610 O   0  0  0  0  0  0  0  0  0  0  0  0
  194.9210  170.1940  144.9110 C   0  0  2  0  0  3  0  0  0  0  0  0
  193.6610  174.9400  145.3740 O   0  0  0  0  0  1  0  0  0  0  0  0
  188.2030  177.5100  145.6260 C   0  0  0  0  0  2  0  0  0  0  0  0
  189.7650  174.4340  142.1100 N   0  0  0  0  0  0  0  0  0  0  0  0
  189.9680  174.9350  143.2830 C   0  0  0  0  0  0  0  0  0  0  0  0
  194.6110  173.5300  143.8690 O   0  0  0  0  0  0  0  0  0  0  0  0
  195.6310  171.3230  144.1490 C   0  0  2  0  0  3  0  0  0  0  0  0
  189.2730  173.5830  139.3160 C   0  0  1  0  0  3  0  0  0  0  0  0
  188.9410  172.2420  138.6780 C   0  0  0  0  0  2  0  0  0  0  0  0
  187.5270  175.3960  141.9450 C   0  0  0  0  0  2  0  0  0  0  0  0
  189.9960  175.9350  146.1540 C   0  0  0  0  0  1  0  0  0  0  0  0
  193.2570  170.1370  143.0330 O   0  0  0  0  0  0  0  0  0  0  0  0
  192.8700  172.8250  145.2600 O   0  0  0  0  0  1  0  0  0  0  0  0
  193.3970  173.8800  144.5060 C   0  0  0  0  0  0  0  0  0  0  0  0
  188.3540  173.7720  140.3830 O   0  0  0  0  0  0  0  0  0  0  0  0
  194.6550  172.2050  143.3650 C   0  0  1  0  0  3  0  0  0  0  0  0
  189.0380  175.9680  143.8240 C   0  0  1  0  0  3  0  0  0  0  0  0
  190.7290  171.9500  140.2070 N   0  0  0  0  0  0  0  0  0  0  0  0
  192.4920  173.6840  142.0840 C   0  0  0  0  0  2  0  0  0  0  0  0
  192.3880  174.3720  143.4630 C   0  0  1  0  0  3  0  0  0  0  0  0
  197.0570  168.8130  144.7210 C   0  0  0  0  0  2  0  0  0  0  0  0
  192.4400  172.1840  142.1410 C   0  0  0  0  0  0  0  0  0  0  0  0
  190.7030  173.3420  139.8070 C   0  0  0  0  0  2  0  0  0  0  0  0
  191.3480  171.4470  141.4150 C   0  0  0  0  0  0  0  0  0  0  0  0
  186.2360  177.9650  142.3900 C   0  0  0  0  0  2  0  0  0  0  0  0
  184.8100  177.5510  142.6950 C   0  0  0  0  0  2  0  0  0  0  0  0
  183.8870  178.5880  142.2590 N   0  0  0  0  0  2  0  0  0  0  0  0
  182.7680  177.9170  141.6270 C   0  0  2  0  0  3  0  0  0  0  0  0
  182.5190  178.4820  140.4080 O   0  0  0  0  0  0  0  0  0  0  0  0
  180.7240  179.3490  142.1790 O   0  0  0  0  0  0  0  0  0  0  0  0
  181.6850  178.7620  141.6150 C   0  0  0  0  0  0  0  0  0  0  0  0
  186.2650  178.9730  145.1470 C   0  0  0  0  0  2  0  0  0  0  0  0
  186.0630  178.4950  146.5750 C   0  0  0  0  0  2  0  0  0  0  0  0
  184.8110  176.3920  146.5210 O   0  0  0  0  0  0  0  0  0  0  0  0
  184.8150  177.7550  146.6780 N   0  0  0  0  0  0  0  0  0  0  0  0
  183.7510  178.3560  146.9230 O   0  0  0  0  0  0  0  0  0  0  0  0
  1  2  1  0  0  0  0
  2 36  1  0  0  0  0
  3  8  1  0  0  0  0
  4  7  1  1  0  0  0
  5 27  1  0  0  0  0
  6 25  1  1  0  0  0
  6 19  1  0  0  0  0
  8 47  1  1  0  0  0
  8 18  1  0  0  0  0
  9 18  1  0  0  0  0
  9 26  1  1  0  0  0
 10 25  1  1  0  0  0
 10  3  1  0  0  0  0
 10 32  1  0  0  0  0
 12 15  2  0  0  0  0
 13 33  1  0  0  0  0
 16 12  1  6  0  0  0
 16  4  1  0  0  0  0
 19 20  2  0  0  0  0
 20 14  1  0  0  0  0
 21 29  1  0  0  0  0
 22  1  1  6  0  0  0
 22 16  1  0  0  0  0
 23 24  1  1  0  0  0
 23 38  1  0  0  0  0
 23 30  1  0  0  0  0
 24 13  1  0  0  0  0
 27 12  1  0  0  0  0
 29 28  1  0  0  0  0
 29 17  1  0  0  0  0
 30  6  1  0  0  0  0
 31  5  1  1  0  0  0
 31 21  1  0  0  0  0
 31 22  1  0  0  0  0
 32 20  1  6  0  0  0
 32  9  1  0  0  0  0
 33 39  1  0  0  0  0
 34 37  1  0  0  0  0
 35 34  1  6  0  0  0
 35 14  1  0  0  0  0
 35 29  1  0  0  0  0
 36  4  1  0  0  0  0
 37  5  2  0  0  0  0
 38 33  1  0  0  0  0
 39 11  2  0  0  0  0
 39 37  1  0  0  0  0
 40 41  1  0  0  0  0
 40  3  1  0  0  0  0
 42 41  1  0  0  0  0
 43 42  1  1  0  0  0
 44 46  1  0  0  0  0
 44 43  1  0  0  0  0
 46 43  1  0  0  0  0
 46 45  2  0  0  0  0
 47 48  1  0  0  0  0
 48 50  1  0  0  0  0
 49 50  2  0  0  0  0
 50 51  2  0  0  0  0
M  END
>  <MODEL>
4

>  <REMARK>
 VINA RESULT:      -8.1      2.014      5.093
  Name = 
  7 active torsions:
  status: ('A' for Active; 'I' for Inactive)
    1  A    between atoms: N_3  and  C_23
    2  A    between atoms: C_4  and  N_37
    3  A    between atoms: C_9  and  N_35
    4  A    between atoms: C_9  and  C_38
    5  A    between atoms: C_10  and  C_38
    6  A    between atoms: C_23  and  C_25
    7  A    between atoms: C_25  and  N_37
                            x       y       z     vdW  Elec       q    Type
                         _______ _______ _______ _____ _____    ______ ____

>  <TORSDO>
F 7

$$$$
=
 OpenBabel11062421213D

 51 58  0  0  1  0  0  0  0  0999 V2000
  195.0160  169.3570  146.3180 C   0  0  0  0  0  2  0  0  0  0  0  0
  196.2110  168.4180  146.2070 C   0  0  0  0  0  2  0  0  0  0  0  0
  187.5270  176.3520  140.7460 N   0  0  0  0  0  0  0  0  0  0  0  0
  197.2030  169.8880  144.4050 C   0  0  1  0  0  3  0  0  0  0  0  0
  193.6630  172.3250  145.2970 C   0  0  0  0  0  0  0  0  0  0  0  0
  189.2260  176.1420  144.1030 C   0  0  2  0  0  3  0  0  0  0  0  0
  197.1750  168.8820  143.2660 C   0  0  0  0  0  1  0  0  0  0  0  0
  187.2450  175.4930  139.5840 C   0  0  2  0  0  3  0  0  0  0  0  0
  189.1250  174.0140  140.2860 C   0  0  1  0  0  3  0  0  0  0  0  0
  188.5670  176.0000  141.6860 C   0  0  2  0  0  3  0  0  0  0  0  0
  193.9730  175.1380  145.7550 O   0  0  0  0  0  0  0  0  0  0  0  0
  196.0960  172.0480  145.1400 C   0  0  0  0  0  0  0  0  0  0  0  0
  192.0400  176.6920  147.0700 C   0  0  0  0  0  2  0  0  0  0  0  0
  191.0770  173.3670  142.5100 O   0  0  0  0  0  0  0  0  0  0  0  0
  197.2450  172.5330  145.3350 O   0  0  0  0  0  0  0  0  0  0  0  0
  195.9250  170.7440  144.4080 C   0  0  2  0  0  3  0  0  0  0  0  0
  191.6120  170.4930  142.0300 O   0  0  0  0  0  1  0  0  0  0  0  0
  188.5110  174.7880  139.1310 C   0  0  0  0  0  2  0  0  0  0  0  0
  190.1570  175.0720  143.7650 N   0  0  0  0  0  0  0  0  0  0  0  0
  190.2000  174.4490  142.6340 C   0  0  0  0  0  0  0  0  0  0  0  0
  192.4460  170.3800  144.1380 O   0  0  0  0  0  0  0  0  0  0  0  0
  194.7160  169.9680  144.9530 C   0  0  2  0  0  3  0  0  0  0  0  0
  189.7460  176.4690  146.3450 C   0  0  1  0  0  3  0  0  0  0  0  0
  190.6550  177.3060  147.2330 C   0  0  0  0  0  2  0  0  0  0  0  0
  188.8640  176.9260  142.8430 C   0  0  0  0  0  2  0  0  0  0  0  0
  190.4320  173.4230  139.7820 C   0  0  0  0  0  1  0  0  0  0  0  0
  194.9700  172.7780  145.5250 O   0  0  0  0  0  0  0  0  0  0  0  0
  193.3540  171.8360  142.5530 O   0  0  0  0  0  1  0  0  0  0  0  0
  192.1860  171.2480  143.0540 C   0  0  0  0  0  0  0  0  0  0  0  0
  189.8500  177.0000  145.0310 O   0  0  0  0  0  0  0  0  0  0  0  0
  193.4530  170.8300  145.0310 C   0  0  1  0  0  3  0  0  0  0  0  0
  189.3290  174.8920  141.5060 C   0  0  1  0  0  3  0  0  0  0  0  0
  191.8090  175.3410  146.5790 N   0  0  0  0  0  0  0  0  0  0  0  0
  191.2630  172.7550  144.9520 C   0  0  0  0  0  2  0  0  0  0  0  0
  191.1670  172.3140  143.4740 C   0  0  1  0  0  3  0  0  0  0  0  0
  197.4420  169.1900  145.7460 C   0  0  0  0  0  2  0  0  0  0  0  0
  192.6350  173.2000  145.3710 C   0  0  0  0  0  0  0  0  0  0  0  0
  190.3870  175.0840  146.4710 C   0  0  0  0  0  2  0  0  0  0  0  0
  192.8400  174.5990  145.8840 C   0  0  0  0  0  0  0  0  0  0  0  0
  186.5080  177.3060  141.1790 C   0  0  0  0  0  2  0  0  0  0  0  0
  185.9290  176.8770  142.5130 C   0  0  0  0  0  2  0  0  0  0  0  0
  184.7570  177.6800  142.8280 N   0  0  0  0  0  2  0  0  0  0  0  0
  185.2130  178.7870  143.6440 C   0  0  2  0  0  3  0  0  0  0  0  0
  186.2720  178.3900  144.4120 O   0  0  0  0  0  0  0  0  0  0  0  0
  184.0660  178.4740  145.9070 O   0  0  0  0  0  0  0  0  0  0  0  0
  184.8900  178.5420  144.9570 C   0  0  0  0  0  0  0  0  0  0  0  0
  186.6880  176.3050  138.4240 C   0  0  0  0  0  2  0  0  0  0  0  0
  187.0750  175.6590  137.1050 C   0  0  0  0  0  2  0  0  0  0  0  0
  186.8690  176.9060  135.0090 O   0  0  0  0  0  0  0  0  0  0  0  0
  186.2680  176.2110  136.0280 N   0  0  0  0  0  0  0  0  0  0  0  0
  185.0330  176.0390  136.0210 O   0  0  0  0  0  0  0  0  0  0  0  0
  2  1  1  0  0  0  0
  3 40  1  0  0  0  0
  3 10  1  0  0  0  0
  4  7  1  6  0  0  0
  4 16  1  0  0  0  0
  4 36  1  0  0  0  0
  5 37  2  0  0  0  0
  5 27  1  0  0  0  0
  6 25  1  6  0  0  0
  6 30  1  0  0  0  0
  8 47  1  6  0  0  0
  8  3  1  0  0  0  0
  9 26  1  6  0  0  0
  9 32  1  0  0  0  0
 10 25  1  6  0  0  0
 11 39  2  0  0  0  0
 12 15  2  0  0  0  0
 12 27  1  0  0  0  0
 13 24  1  0  0  0  0
 14 20  1  0  0  0  0
 14 35  1  0  0  0  0
 16 22  1  0  0  0  0
 16 12  1  1  0  0  0
 17 29  1  0  0  0  0
 18  8  1  0  0  0  0
 18  9  1  0  0  0  0
 19  6  1  0  0  0  0
 20 19  2  0  0  0  0
 22 31  1  0  0  0  0
 22  1  1  1  0  0  0
 23 38  1  6  0  0  0
 23 24  1  0  0  0  0
 28 29  1  0  0  0  0
 29 35  1  0  0  0  0
 29 21  1  0  0  0  0
 30 23  1  0  0  0  0
 31 21  1  6  0  0  0
 31  5  1  0  0  0  0
 32 10  1  0  0  0  0
 32 20  1  1  0  0  0
 33 13  1  0  0  0  0
 34 37  1  0  0  0  0
 35 34  1  1  0  0  0
 36  2  1  0  0  0  0
 37 39  1  0  0  0  0
 38 33  1  0  0  0  0
 39 33  1  0  0  0  0
 40 41  1  0  0  0  0
 41 42  1  0  0  0  0
 43 42  1  6  0  0  0
 43 44  1  0  0  0  0
 43 46  1  0  0  0  0
 44 46  1  0  0  0  0
 46 45  2  0  0  0  0
 48 47  1  0  0  0  0
 49 50  2  0  0  0  0
 50 48  1  0  0  0  0
 51 50  2  0  0  0  0
M  END
>  <MODEL>
5

>  <REMARK>
 VINA RESULT:      -7.4      2.272      2.818
  Name = 
  7 active torsions:
  status: ('A' for Active; 'I' for Inactive)
    1  A    between atoms: N_3  and  C_23
    2  A    between atoms: C_4  and  N_37
    3  A    between atoms: C_9  and  N_35
    4  A    between atoms: C_9  and  C_38
    5  A    between atoms: C_10  and  C_38
    6  A    between atoms: C_23  and  C_25
    7  A    between atoms: C_25  and  N_37
                            x       y       z     vdW  Elec       q    Type
                         _______ _______ _______ _____ _____    ______ ____

>  <TORSDO>
F 7

$$$$
=
 OpenBabel11062421213D

 51 58  0  0  1  0  0  0  0  0999 V2000
  196.8820  169.8820  139.2320 C   0  0  0  0  0  2  0  0  0  0  0  0
  197.4020  169.1440  138.0060 C   0  0  0  0  0  2  0  0  0  0  0  0
  188.3490  176.3480  143.8630 N   0  0  0  0  0  0  0  0  0  0  0  0
  196.4430  170.9430  136.5110 C   0  0  1  0  0  3  0  0  0  0  0  0
  195.3700  172.7280  140.3750 C   0  0  0  0  0  0  0  0  0  0  0  0
  192.0880  175.9860  144.1550 C   0  0  2  0  0  3  0  0  0  0  0  0
  195.4410  170.0850  135.7560 C   0  0  0  0  0  1  0  0  0  0  0  0
  187.1950  175.6020  143.3360 C   0  0  2  0  0  3  0  0  0  0  0  0
  188.7550  174.3330  141.8610 C   0  0  1  0  0  3  0  0  0  0  0  0
  189.6890  176.0390  143.4200 C   0  0  2  0  0  3  0  0  0  0  0  0
  195.9920  175.4810  140.8720 O   0  0  0  0  0  0  0  0  0  0  0  0
  196.5270  172.8210  138.2140 C   0  0  0  0  0  0  0  0  0  0  0  0
  196.1110  176.5770  143.4530 C   0  0  0  0  0  2  0  0  0  0  0  0
  191.6600  173.7130  141.2720 O   0  0  0  0  0  0  0  0  0  0  0  0
  197.3170  173.4380  137.4460 O   0  0  0  0  0  0  0  0  0  0  0  0
  195.7850  171.6020  137.7360 C   0  0  2  0  0  3  0  0  0  0  0  0
  191.4680  171.0220  140.0480 O   0  0  0  0  0  1  0  0  0  0  0  0
  187.4690  175.1430  141.9150 C   0  0  0  0  0  2  0  0  0  0  0  0
  192.2730  175.1080  143.0060 N   0  0  0  0  0  0  0  0  0  0  0  0
  191.3240  174.6360  142.2680 C   0  0  0  0  0  0  0  0  0  0  0  0
  193.6940  170.7800  140.4290 O   0  0  0  0  0  0  0  0  0  0  0  0
  195.5830  170.6030  138.8840 C   0  0  2  0  0  3  0  0  0  0  0  0
  194.2690  176.1160  144.9480 C   0  0  1  0  0  3  0  0  0  0  0  0
  195.5250  176.9640  144.8060 C   0  0  0  0  0  2  0  0  0  0  0  0
  190.8490  176.8550  143.9460 C   0  0  0  0  0  2  0  0  0  0  0  0
  189.0100  173.9990  140.4010 C   0  0  0  0  0  1  0  0  0  0  0  0
  196.2710  173.3320  139.4870 O   0  0  0  0  0  0  0  0  0  0  0  0
  192.8720  172.5280  139.1140 O   0  0  0  0  0  1  0  0  0  0  0  0
  192.6590  171.7250  140.2410 C   0  0  0  0  0  0  0  0  0  0  0  0
  193.2260  176.8090  144.2760 O   0  0  0  0  0  0  0  0  0  0  0  0
  194.9960  171.2590  140.1370 C   0  0  1  0  0  3  0  0  0  0  0  0
  189.9170  175.0810  142.4880 C   0  0  1  0  0  3  0  0  0  0  0  0
  195.5400  175.2750  143.1420 N   0  0  0  0  0  0  0  0  0  0  0  0
  193.8080  172.8480  142.2760 C   0  0  0  0  0  2  0  0  0  0  0  0
  192.4980  172.5760  141.5050 C   0  0  1  0  0  3  0  0  0  0  0  0
  197.6870  170.1320  136.8810 C   0  0  0  0  0  2  0  0  0  0  0  0
  194.9060  173.4320  141.4320 C   0  0  0  0  0  0  0  0  0  0  0  0
  194.6840  174.8320  144.2240 C   0  0  0  0  0  2  0  0  0  0  0  0
  195.4840  174.7750  141.7850 C   0  0  0  0  0  0  0  0  0  0  0  0
  188.1950  177.0890  145.1140 C   0  0  0  0  0  2  0  0  0  0  0  0
  187.9210  176.1290  146.2550 C   0  0  0  0  0  2  0  0  0  0  0  0
  189.0500  175.2280  146.4290 N   0  0  0  0  0  2  0  0  0  0  0  0
  189.7100  175.6140  147.6610 C   0  0  2  0  0  3  0  0  0  0  0  0
  190.2930  176.8410  147.5080 O   0  0  0  0  0  0  0  0  0  0  0  0
  192.1570  174.9410  147.3540 O   0  0  0  0  0  0  0  0  0  0  0  0
  191.0710  175.5660  147.4760 C   0  0  0  0  0  0  0  0  0  0  0  0
  185.9370  176.4580  143.3460 C   0  0  0  0  0  2  0  0  0  0  0  0
  185.8150  177.2180  142.0370 C   0  0  0  0  0  2  0  0  0  0  0  0
  187.6740  178.7180  141.5050 O   0  0  0  0  0  0  0  0  0  0  0  0
  186.4810  178.5060  142.1470 N   0  0  0  0  0  0  0  0  0  0  0  0
  185.9600  179.4230  142.8130 O   0  0  0  0  0  0  0  0  0  0  0  0
  2  1  1  0  0  0  0
  3 40  1  0  0  0  0
  4  7  1  1  0  0  0
  4 36  1  0  0  0  0
  4 16  1  0  0  0  0
  5 37  2  0  0  0  0
  6 25  1  6  0  0  0
  6 30  1  0  0  0  0
  8 47  1  6  0  0  0
  8  3  1  0  0  0  0
  9 26  1  6  0  0  0
  9 18  1  0  0  0  0
  9 32  1  0  0  0  0
 10  3  1  0  0  0  0
 10 25  1  6  0  0  0
 11 39  2  0  0  0  0
 12 27  1  0  0  0  0
 13 24  1  0  0  0  0
 14 35  1  0  0  0  0
 14 20  1  0  0  0  0
 15 12  2  0  0  0  0
 16 12  1  1  0  0  0
 16 22  1  0  0  0  0
 17 29  1  0  0  0  0
 18  8  1  0  0  0  0
 19  6  1  0  0  0  0
 20 19  2  0  0  0  0
 22  1  1  1  0  0  0
 22 31  1  0  0  0  0
 23 38  1  6  0  0  0
 24 23  1  0  0  0  0
 27  5  1  0  0  0  0
 28 29  1  0  0  0  0
 29 21  1  0  0  0  0
 29 35  1  0  0  0  0
 30 23  1  0  0  0  0
 31  5  1  6  0  0  0
 31 21  1  0  0  0  0
 32 20  1  1  0  0  0
 32 10  1  0  0  0  0
 33 13  1  0  0  0  0
 33 38  1  0  0  0  0
 35 34  1  6  0  0  0
 36  2  1  0  0  0  0
 37 39  1  0  0  0  0
 37 34  1  0  0  0  0
 39 33  1  0  0  0  0
 40 41  1  0  0  0  0
 41 42  1  0  0  0  0
 43 42  1  6  0  0  0
 44 43  1  0  0  0  0
 45 46  2  0  0  0  0
 46 44  1  0  0  0  0
 46 43  1  0  0  0  0
 48 50  1  0  0  0  0
 48 47  1  0  0  0  0
 49 50  2  0  0  0  0
 50 51  2  0  0  0  0
M  END
>  <MODEL>
6

>  <REMARK>
 VINA RESULT:      -6.9      2.933      4.356
  Name = 
  7 active torsions:
  status: ('A' for Active; 'I' for Inactive)
    1  A    between atoms: N_3  and  C_23
    2  A    between atoms: C_4  and  N_37
    3  A    between atoms: C_9  and  N_35
    4  A    between atoms: C_9  and  C_38
    5  A    between atoms: C_10  and  C_38
    6  A    between atoms: C_23  and  C_25
    7  A    between atoms: C_25  and  N_37
                            x       y       z     vdW  Elec       q    Type
                         _______ _______ _______ _____ _____    ______ ____

>  <TORSDO>
F 7

$$$$
=
 OpenBabel11062421213D

 51 58  0  0  1  0  0  0  0  0999 V2000
  187.5840  178.8650  146.3090 C   0  0  0  0  0  2  0  0  0  0  0  0
  186.3510  179.1690  147.1510 C   0  0  0  0  0  2  0  0  0  0  0  0
  192.2800  172.3690  137.8350 N   0  0  0  0  0  0  0  0  0  0  0  0
  185.7670  176.7100  147.1910 C   0  0  1  0  0  3  0  0  0  0  0  0
  189.5350  176.4030  144.9600 C   0  0  0  0  0  0  0  0  0  0  0  0
  193.3670  174.0630  141.0200 C   0  0  2  0  0  3  0  0  0  0  0  0
  184.4420  176.7900  146.4520 C   0  0  0  0  0  1  0  0  0  0  0  0
  191.1550  172.3960  136.8860 C   0  0  2  0  0  3  0  0  0  0  0  0
  189.7380  173.4020  138.6750 C   0  0  1  0  0  3  0  0  0  0  0  0
  192.1310  172.9060  139.1690 C   0  0  2  0  0  3  0  0  0  0  0  0
  191.4980  174.4810  145.7750 O   0  0  0  0  0  0  0  0  0  0  0  0
  188.1300  175.8380  146.8900 C   0  0  0  0  0  0  0  0  0  0  0  0
  194.1970  174.6410  145.0210 C   0  0  0  0  0  2  0  0  0  0  0  0
  189.7440  174.6740  141.4230 O   0  0  0  0  0  0  0  0  0  0  0  0
  188.0290  175.2700  148.0130 O   0  0  0  0  0  0  0  0  0  0  0  0
  186.9210  176.4260  146.2130 C   0  0  2  0  0  3  0  0  0  0  0  0
  187.3350  176.3940  141.2990 O   0  0  0  0  0  1  0  0  0  0  0  0
  189.8360  172.3010  137.6310 C   0  0  0  0  0  2  0  0  0  0  0  0
  192.0350  174.4030  141.5050 N   0  0  0  0  0  0  0  0  0  0  0  0
  190.9310  174.1820  140.8720 C   0  0  0  0  0  0  0  0  0  0  0  0
  188.1380  177.5090  143.1070 O   0  0  0  0  0  0  0  0  0  0  0  0
  187.3040  177.6720  145.4010 C   0  0  2  0  0  3  0  0  0  0  0  0
  194.6820  175.0160  142.6840 C   0  0  1  0  0  3  0  0  0  0  0  0
  195.3390  174.6650  144.0110 C   0  0  0  0  0  2  0  0  0  0  0  0
  193.2910  172.8210  140.1350 C   0  0  0  0  0  2  0  0  0  0  0  0
  188.4440  173.1780  139.4390 C   0  0  0  0  0  1  0  0  0  0  0  0
  189.3590  175.8350  146.2290 O   0  0  0  0  0  0  0  0  0  0  0  0
  187.7140  175.2130  143.1900 O   0  0  0  0  0  1  0  0  0  0  0  0
  188.1740  176.2800  142.4090 C   0  0  0  0  0  0  0  0  0  0  0  0
  194.1930  173.8010  142.1320 O   0  0  0  0  0  0  0  0  0  0  0  0
  188.4980  177.4250  144.4760 C   0  0  1  0  0  3  0  0  0  0  0  0
  190.9480  173.4170  139.5910 C   0  0  1  0  0  3  0  0  0  0  0  0
  193.1300  175.4260  144.4170 N   0  0  0  0  0  0  0  0  0  0  0  0
  190.7230  176.5450  142.8070 C   0  0  0  0  0  2  0  0  0  0  0  0
  189.5940  176.0170  141.8940 C   0  0  1  0  0  3  0  0  0  0  0  0
  186.0050  177.9700  148.0260 C   0  0  0  0  0  2  0  0  0  0  0  0
  190.6270  176.0780  144.2320 C   0  0  0  0  0  0  0  0  0  0  0  0
  193.5580  175.9510  143.1360 C   0  0  0  0  0  2  0  0  0  0  0  0
  191.7510  175.2790  144.8320 C   0  0  0  0  0  0  0  0  0  0  0  0
  193.6350  172.1970  137.3140 C   0  0  0  0  0  2  0  0  0  0  0  0
  194.1020  173.4780  136.6500 C   0  0  0  0  0  2  0  0  0  0  0  0
  195.5150  173.6930  136.9220 N   0  0  0  0  0  2  0  0  0  0  0  0
  195.5990  174.7780  137.8800 C   0  0  2  0  0  3  0  0  0  0  0  0
  196.8230  175.3780  137.7920 O   0  0  0  0  0  0  0  0  0  0  0  0
  196.7620  173.7810  139.9260 O   0  0  0  0  0  0  0  0  0  0  0  0
  196.4670  174.4250  138.8850 C   0  0  0  0  0  0  0  0  0  0  0  0
  191.2470  171.2480  135.8930 C   0  0  0  0  0  2  0  0  0  0  0  0
  190.5420  170.0230  136.4480 C   0  0  0  0  0  2  0  0  0  0  0  0
  191.5080  168.9090  138.4020 O   0  0  0  0  0  0  0  0  0  0  0  0
  191.5130  169.1210  137.0470 N   0  0  0  0  0  0  0  0  0  0  0  0
  192.3400  168.5260  136.3270 O   0  0  0  0  0  0  0  0  0  0  0  0
  1  2  1  0  0  0  0
  2 36  1  0  0  0  0
  3 10  1  0  0  0  0
  4  7  1  6  0  0  0
  4 36  1  0  0  0  0
  5 27  1  0  0  0  0
  6 25  1  6  0  0  0
  6 19  1  0  0  0  0
  6 30  1  0  0  0  0
  8 47  1  6  0  0  0
  8 18  1  0  0  0  0
  8  3  1  0  0  0  0
  9 26  1  1  0  0  0
  9 32  1  0  0  0  0
 10 32  1  0  0  0  0
 10 25  1  1  0  0  0
 12 15  2  0  0  0  0
 14 35  1  0  0  0  0
 16 12  1  1  0  0  0
 16  4  1  0  0  0  0
 17 29  1  0  0  0  0
 18  9  1  0  0  0  0
 20 14  1  0  0  0  0
 20 19  2  0  0  0  0
 22 16  1  0  0  0  0
 22  1  1  1  0  0  0
 23 38  1  1  0  0  0
 23 24  1  0  0  0  0
 24 13  1  0  0  0  0
 27 12  1  0  0  0  0
 29 21  1  0  0  0  0
 29 28  1  0  0  0  0
 30 23  1  0  0  0  0
 31 21  1  6  0  0  0
 31  5  1  0  0  0  0
 31 22  1  0  0  0  0
 32 20  1  6  0  0  0
 33 39  1  0  0  0  0
 33 13  1  0  0  0  0
 34 37  1  0  0  0  0
 35 29  1  0  0  0  0
 35 34  1  1  0  0  0
 37 39  1  0  0  0  0
 37  5  2  0  0  0  0
 38 33  1  0  0  0  0
 39 11  2  0  0  0  0
 40  3  1  0  0  0  0
 41 42  1  0  0  0  0
 41 40  1  0  0  0  0
 43 42  1  6  0  0  0
 43 46  1  0  0  0  0
 44 43  1  0  0  0  0
 44 46  1  0  0  0  0
 46 45  2  0  0  0  0
 47 48  1  0  0  0  0
 48 50  1  0  0  0  0
 50 49  2  0  0  0  0
 51 50  2  0  0  0  0
M  END
>  <MODEL>
7

>  <REMARK>
 VINA RESULT:      -6.7      4.097      9.331
  Name = 
  7 active torsions:
  status: ('A' for Active; 'I' for Inactive)
    1  A    between atoms: N_3  and  C_23
    2  A    between atoms: C_4  and  N_37
    3  A    between atoms: C_9  and  N_35
    4  A    between atoms: C_9  and  C_38
    5  A    between atoms: C_10  and  C_38
    6  A    between atoms: C_23  and  C_25
    7  A    between atoms: C_25  and  N_37
                            x       y       z     vdW  Elec       q    Type
                         _______ _______ _______ _____ _____    ______ ____

>  <TORSDO>
F 7

$$$$
=
 OpenBabel11062421213D

 51 58  0  0  1  0  0  0  0  0999 V2000
  184.9150  176.6730  146.2200 C   0  0  0  0  0  2  0  0  0  0  0  0
  184.0780  177.6410  147.0470 C   0  0  0  0  0  2  0  0  0  0  0  0
  195.5120  173.8250  142.2630 N   0  0  0  0  0  0  0  0  0  0  0  0
  185.5180  179.5640  146.2600 C   0  0  1  0  0  3  0  0  0  0  0  0
  187.4320  176.3780  143.9250 C   0  0  0  0  0  0  0  0  0  0  0  0
  191.9260  173.6150  141.1250 C   0  0  2  0  0  3  0  0  0  0  0  0
  186.0860  179.9740  147.6100 C   0  0  0  0  0  1  0  0  0  0  0  0
  196.2770  174.0450  143.5010 C   0  0  2  0  0  3  0  0  0  0  0  0
  194.2640  175.1380  144.4890 C   0  0  1  0  0  3  0  0  0  0  0  0
  194.1230  174.2170  142.1770 C   0  0  0  0  0  0  0  0  0  0  0  0
  187.8870  176.7710  141.1230 O   0  0  0  0  0  0  0  0  0  0  0  0
  186.2390  178.5180  144.0660 C   0  0  0  0  0  0  0  0  0  0  0  0
  188.3530  174.6530  139.3410 C   0  0  0  0  0  2  0  0  0  0  0  0
  191.2990  175.6480  144.1470 O   0  0  0  0  0  0  0  0  0  0  0  0
  185.6760  179.4740  143.4630 O   0  0  0  0  0  0  0  0  0  0  0  0
  186.4540  178.5680  145.5550 C   0  0  2  0  0  3  0  0  0  0  0  0
  190.4150  175.9860  146.9550 O   0  0  0  0  0  1  0  0  0  0  0  0
  195.7560  175.2710  144.2300 C   0  0  0  0  0  2  0  0  0  0  0  0
  191.3560  174.4510  142.1750 N   0  0  0  0  0  0  0  0  0  0  0  0
  192.0150  174.9650  143.1590 C   0  0  0  0  0  0  0  0  0  0  0  0
  188.2860  175.6560  146.2390 O   0  0  0  0  0  0  0  0  0  0  0  0
  186.3590  177.1610  146.1650 C   0  0  2  0  0  3  0  0  0  0  0  0
  190.0010  173.0030  139.9740 C   0  0  1  0  0  3  0  0  0  0  0  0
  189.1320  173.4550  138.8090 C   0  0  0  0  0  2  0  0  0  0  0  0
  193.3780  174.0190  140.8760 C   0  0  0  0  0  2  0  0  0  0  0  0
  193.8040  176.4380  145.1280 C   0  0  0  0  0  1  0  0  0  0  0  0
  186.7520  177.4490  143.3280 O   0  0  0  0  0  0  0  0  0  0  0  0
  189.5920  177.3990  145.3930 O   0  0  0  0  0  1  0  0  0  0  0  0
  189.5780  176.0730  145.8420 C   0  0  0  0  0  0  0  0  0  0  0  0
  191.1750  173.8040  139.9470 O   0  0  0  0  0  0  0  0  0  0  0  0
  187.2300  176.1410  145.4270 C   0  0  1  0  0  3  0  0  0  0  0  0
  193.4990  174.8230  143.2170 C   0  0  0  0  0  0  0  0  0  0  0  0
  188.3890  174.5260  140.7900 N   0  0  0  0  0  0  0  0  0  0  0  0
  189.0580  174.5320  143.8220 C   0  0  0  0  0  2  0  0  0  0  0  0
  190.1240  175.1200  144.7720 C   0  0  1  0  0  3  0  0  0  0  0  0
  184.0930  179.0250  146.4090 C   0  0  0  0  0  2  0  0  0  0  0  0
  188.1920  175.5640  143.1580 C   0  0  0  0  0  0  0  0  0  0  0  0
  189.1000  173.3210  141.1700 C   0  0  0  0  0  2  0  0  0  0  0  0
  188.1660  175.6630  141.6580 C   0  0  0  0  0  0  0  0  0  0  0  0
  196.0110  172.8530  141.2920 C   0  0  0  0  0  2  0  0  0  0  0  0
  195.8140  173.3770  139.8840 C   0  0  0  0  0  2  0  0  0  0  0  0
  197.0720  173.3310  139.1550 N   0  0  0  0  0  2  0  0  0  0  0  0
  196.8260  173.9180  137.8530 C   0  0  2  0  0  3  0  0  0  0  0  0
  196.0070  175.0050  137.9830 O   0  0  0  0  0  0  0  0  0  0  0  0
  194.5980  172.9290  137.0790 O   0  0  0  0  0  0  0  0  0  0  0  0
  195.5210  173.6810  137.4920 C   0  0  0  0  0  0  0  0  0  0  0  0
  197.7570  174.2360  143.2050 C   0  0  0  0  0  2  0  0  0  0  0  0
  197.9320  175.0620  141.9420 C   0  0  0  0  0  2  0  0  0  0  0  0
  196.5700  177.0030  141.3360 O   0  0  0  0  0  0  0  0  0  0  0  0
  197.4880  176.4270  142.1770 N   0  0  0  0  0  0  0  0  0  0  0  0
  197.9290  177.0680  143.1510 O   0  0  0  0  0  0  0  0  0  0  0  0
  1  2  1  0  0  0  0
  3  8  1  0  0  0  0
  4 36  1  0  0  0  0
  4  7  1  1  0  0  0
  6 25  1  6  0  0  0
  6 19  1  0  0  0  0
  8 47  1  6  0  0  0
  8 18  1  0  0  0  0
  9 26  1  6  0  0  0
 10  3  1  0  0  0  0
 10 32  2  0  0  0  0
 11 39  2  0  0  0  0
 13 33  1  0  0  0  0
 14 35  1  0  0  0  0
 15 12  2  0  0  0  0
 16 12  1  6  0  0  0
 16 22  1  0  0  0  0
 16  4  1  0  0  0  0
 18  9  1  0  0  0  0
 19 20  2  0  0  0  0
 20 32  1  0  0  0  0
 20 14  1  0  0  0  0
 22  1  1  6  0  0  0
 23 24  1  6  0  0  0
 23 38  1  0  0  0  0
 24 13  1  0  0  0  0
 25 10  1  0  0  0  0
 27  5  1  0  0  0  0
 27 12  1  0  0  0  0
 28 29  1  0  0  0  0
 29 21  1  0  0  0  0
 29 17  1  0  0  0  0
 30 23  1  0  0  0  0
 30  6  1  0  0  0  0
 31  5  1  6  0  0  0
 31 22  1  0  0  0  0
 31 21  1  0  0  0  0
 32  9  1  0  0  0  0
 33 38  1  0  0  0  0
 33 39  1  0  0  0  0
 35 34  1  6  0  0  0
 35 29  1  0  0  0  0
 36  2  1  0  0  0  0
 37 34  1  0  0  0  0
 37  5  2  0  0  0  0
 39 37  1  0  0  0  0
 40  3  1  0  0  0  0
 41 40  1  0  0  0  0
 42 41  1  0  0  0  0
 43 44  1  0  0  0  0
 43 42  1  1  0  0  0
 45 46  2  0  0  0  0
 46 43  1  0  0  0  0
 46 44  1  0  0  0  0
 48 50  1  0  0  0  0
 48 47  1  0  0  0  0
 49 50  2  0  0  0  0
 50 51  2  0  0  0  0
M  END
>  <MODEL>
8

>  <REMARK>
 VINA RESULT:      -6.5      3.447     10.481
  Name = 
  7 active torsions:
  status: ('A' for Active; 'I' for Inactive)
    1  A    between atoms: N_3  and  C_23
    2  A    between atoms: C_4  and  N_37
    3  A    between atoms: C_9  and  N_35
    4  A    between atoms: C_9  and  C_38
    5  A    between atoms: C_10  and  C_38
    6  A    between atoms: C_23  and  C_25
    7  A    between atoms: C_25  and  N_37
                            x       y       z     vdW  Elec       q    Type
                         _______ _______ _______ _____ _____    ______ ____

>  <TORSDO>
F 7

$$$$
=
 OpenBabel11062421213D

 51 58  0  0  1  0  0  0  0  0999 V2000
  196.9080  170.7940  143.5320 C   0  0  0  0  0  2  0  0  0  0  0  0
  197.9410  170.0880  144.4000 C   0  0  0  0  0  2  0  0  0  0  0  0
  187.0960  177.0910  143.1760 N   0  0  0  0  0  0  0  0  0  0  0  0
  196.1190  169.3880  146.0070 C   0  0  1  0  0  3  0  0  0  0  0  0
  193.5770  171.3870  143.0400 C   0  0  0  0  0  0  0  0  0  0  0  0
  188.8420  174.4720  141.1060 C   0  0  2  0  0  3  0  0  0  0  0  0
  196.6090  170.1430  147.2320 C   0  0  0  0  0  1  0  0  0  0  0  0
  187.3960  178.0310  144.2680 C   0  0  2  0  0  3  0  0  0  0  0  0
  189.3500  176.6090  144.8850 C   0  0  1  0  0  3  0  0  0  0  0  0
  187.9560  175.9580  142.9230 C   0  0  0  0  0  0  0  0  0  0  0  0
  191.2430  170.0440  142.0570 O   0  0  0  0  0  0  0  0  0  0  0  0
  194.2200  169.3990  144.3270 C   0  0  0  0  0  0  0  0  0  0  0  0
  189.9570  170.7680  139.6690 C   0  0  0  0  0  2  0  0  0  0  0  0
  191.1200  174.3120  144.0120 O   0  0  0  0  0  0  0  0  0  0  0  0
  194.0630  168.1660  144.5450 O   0  0  0  0  0  0  0  0  0  0  0  0
  195.1050  170.2310  145.2150 C   0  0  2  0  0  3  0  0  0  0  0  0
  193.6590  174.9420  145.4040 O   0  0  0  0  0  1  0  0  0  0  0  0
  188.1040  177.3100  145.4020 C   0  0  0  0  0  2  0  0  0  0  0  0
  189.8630  174.1210  142.0860 N   0  0  0  0  0  0  0  0  0  0  0  0
  190.0200  174.6880  143.2350 C   0  0  0  0  0  0  0  0  0  0  0  0
  194.6960  173.4940  143.9950 O   0  0  0  0  0  0  0  0  0  0  0  0
  195.7910  171.3460  144.4110 C   0  0  2  0  0  3  0  0  0  0  0  0
  189.4700  173.1100  139.3290 C   0  0  1  0  0  3  0  0  0  0  0  0
  189.2030  171.7260  138.7550 C   0  0  0  0  0  2  0  0  0  0  0  0
  187.5950  174.9860  141.8220 C   0  0  0  0  0  2  0  0  0  0  0  0
  189.9420  175.8340  146.0510 C   0  0  0  0  0  1  0  0  0  0  0  0
  193.4900  170.0130  143.3070 O   0  0  0  0  0  0  0  0  0  0  0  0
  192.9510  172.7950  145.3820 O   0  0  0  0  0  1  0  0  0  0  0  0
  193.4550  173.8300  144.5860 C   0  0  0  0  0  0  0  0  0  0  0  0
  188.5190  173.3170  140.3650 O   0  0  0  0  0  0  0  0  0  0  0  0
  194.8020  172.1480  143.5610 C   0  0  1  0  0  3  0  0  0  0  0  0
  189.0390  175.7110  143.7010 C   0  0  0  0  0  0  0  0  0  0  0  0
  190.9630  171.5810  140.3360 N   0  0  0  0  0  0  0  0  0  0  0  0
  192.6160  173.4760  142.1580 C   0  0  0  0  0  2  0  0  0  0  0  0
  192.4530  174.2290  143.4970 C   0  0  1  0  0  3  0  0  0  0  0  0
  197.2950  168.9250  145.1440 C   0  0  0  0  0  2  0  0  0  0  0  0
  192.6180  171.9790  142.2920 C   0  0  0  0  0  0  0  0  0  0  0  0
  190.8950  172.9490  139.8640 C   0  0  0  0  0  2  0  0  0  0  0  0
  191.5720  171.1650  141.5820 C   0  0  0  0  0  0  0  0  0  0  0  0
  186.1990  177.5230  142.1050 C   0  0  0  0  0  2  0  0  0  0  0  0
  186.9600  178.3630  141.0980 C   0  0  0  0  0  2  0  0  0  0  0  0
  187.3820  177.5370  139.9770 N   0  0  0  0  0  2  0  0  0  0  0  0
  186.2920  177.5380  139.0220 C   0  0  2  0  0  3  0  0  0  0  0  0
  185.8900  176.2540  138.7790 O   0  0  0  0  0  0  0  0  0  0  0  0
  187.3880  177.1190  136.7500 O   0  0  0  0  0  0  0  0  0  0  0  0
  186.7410  177.0280  137.8270 C   0  0  0  0  0  0  0  0  0  0  0  0
  186.1250  178.6710  144.8060 C   0  0  0  0  0  2  0  0  0  0  0  0
  185.2950  177.6370  145.5460 C   0  0  0  0  0  2  0  0  0  0  0  0
  183.4320  179.1340  146.0740 O   0  0  0  0  0  0  0  0  0  0  0  0
  184.4260  178.2950  146.5090 N   0  0  0  0  0  0  0  0  0  0  0  0
  184.5730  178.0840  147.7290 O   0  0  0  0  0  0  0  0  0  0  0  0
  1  2  1  0  0  0  0
  2 36  1  0  0  0  0
  3  8  1  0  0  0  0
  4  7  1  1  0  0  0
  5 27  1  0  0  0  0
  6 25  1  1  0  0  0
  6 19  1  0  0  0  0
  8 47  1  1  0  0  0
  8 18  1  0  0  0  0
  9 18  1  0  0  0  0
  9 26  1  1  0  0  0
 10  3  1  0  0  0  0
 10 32  2  0  0  0  0
 12 15  2  0  0  0  0
 13 33  1  0  0  0  0
 16 12  1  6  0  0  0
 16  4  1  0  0  0  0
 19 20  2  0  0  0  0
 20 32  1  0  0  0  0
 20 14  1  0  0  0  0
 21 29  1  0  0  0  0
 22  1  1  6  0  0  0
 22 16  1  0  0  0  0
 23 24  1  1  0  0  0
 23 38  1  0  0  0  0
 23 30  1  0  0  0  0
 24 13  1  0  0  0  0
 25 10  1  0  0  0  0
 27 12  1  0  0  0  0
 29 28  1  0  0  0  0
 29 17  1  0  0  0  0
 30  6  1  0  0  0  0
 31  5  1  1  0  0  0
 31 21  1  0  0  0  0
 31 22  1  0  0  0  0
 32  9  1  0  0  0  0
 33 39  1  0  0  0  0
 34 37  1  0  0  0  0
 35 34  1  6  0  0  0
 35 14  1  0  0  0  0
 35 29  1  0  0  0  0
 36  4  1  0  0  0  0
 37  5  2  0  0  0  0
 38 33  1  0  0  0  0
 39 11  2  0  0  0  0
 39 37  1  0  0  0  0
 40  3  1  0  0  0  0
 41 40  1  0  0  0  0
 42 41  1  0  0  0  0
 43 42  1  1  0  0  0
 44 43  1  0  0  0  0
 45 46  2  0  0  0  0
 46 44  1  0  0  0  0
 46 43  1  0  0  0  0
 47 48  1  0  0  0  0
 48 50  1  0  0  0  0
 49 50  2  0  0  0  0
 50 51  2  0  0  0  0
M  END
>  <MODEL>
9

>  <REMARK>
 VINA RESULT:      -6.4      2.442      5.458
  Name = 
  7 active torsions:
  status: ('A' for Active; 'I' for Inactive)
    1  A    between atoms: N_3  and  C_23
    2  A    between atoms: C_4  and  N_37
    3  A    between atoms: C_9  and  N_35
    4  A    between atoms: C_9  and  C_38
    5  A    between atoms: C_10  and  C_38
    6  A    between atoms: C_23  and  C_25
    7  A    between atoms: C_25  and  N_37
                            x       y       z     vdW  Elec       q    Type
                         _______ _______ _______ _____ _____    ______ ____

>  <TORSDO>
F 7

$$$$
