=
 OpenBabel11062418583D

 51 58  0  0  1  0  0  0  0  0999 V2000
  193.5870  173.9870  145.4020 C   0  0  0  0  0  2  0  0  0  0  0  0
  188.3490  176.9520  143.1640 C   0  0  2  0  0  3  0  0  0  0  0  0
  190.6650  173.7470  142.2160 O   0  0  0  0  0  0  0  0  0  0  0  0
  189.3910  177.4860  144.1680 C   0  0  2  0  0  3  0  0  0  0  0  0
  190.8320  177.1220  143.7570 C   0  0  0  0  0  2  0  0  0  0  0  0
  193.2090  172.1390  143.6390 C   0  0  0  0  0  2  0  0  0  0  0  0
  193.1040  177.3400  144.4760 O   0  0  0  0  0  1  0  0  0  0  0  0
  191.2560  173.4770  144.5210 C   0  0  1  0  0  3  0  0  0  0  0  0
  192.3320  174.5610  144.7420 C   0  0  1  0  0  3  0  0  0  0  0  0
  191.7810  175.6890  145.6160 C   0  0  0  0  0  2  0  0  0  0  0  0
  189.0840  177.0180  145.4490 O   0  0  0  0  0  1  0  0  0  0  0  0
  194.1940  172.8200  144.6040 C   0  0  1  0  0  3  0  0  0  0  0  0
  189.1580  174.6250  143.7700 N   0  0  0  0  0  2  0  0  0  0  0  0
  190.3340  173.8970  143.4230 C   0  0  0  0  0  0  0  0  0  0  0  0
  191.8210  172.0720  144.2630 C   0  0  0  0  0  2  0  0  0  0  0  0
  187.8320  174.9620  141.8520 N   0  0  0  0  0  2  0  0  0  0  0  0
  191.8140  177.0560  144.9240 C   0  0  2  0  0  3  0  0  0  0  0  0
  188.4910  175.4820  142.8410 C   0  0  0  0  0  0  0  0  0  0  0  0
  195.5000  173.2170  143.9220 C   0  0  1  0  0  3  0  0  0  0  0  0
  196.3200  174.1410  138.0910 C   0  0  1  0  0  3  0  0  0  0  0  0
  195.6380  174.7470  143.8860 C   0  0  1  0  0  3  0  0  0  0  0  0
  196.5700  174.8310  139.3830 C   0  0  1  0  0  3  0  0  0  0  0  0
  197.1610  174.2540  141.4390 O   0  0  0  0  0  0  0  0  0  0  0  0
  195.5760  175.4530  140.1140 O   0  0  0  0  0  0  0  0  0  0  0  0
  196.9050  173.6850  140.2080 C   0  0  2  0  0  3  0  0  0  0  0  0
  196.9870  175.3280  144.2580 C   0  0  0  0  0  3  0  0  0  0  0  0
  197.9410  173.0400  139.5430 O   0  0  0  0  0  0  0  0  0  0  0  0
  196.1350  175.2340  141.3970 C   0  0  1  0  0  0  0  0  0  0  0  0
  197.3620  176.3000  143.2360 N   0  0  0  0  0  0  0  0  0  0  0  0
  195.1900  175.3700  142.5820 C   0  0  2  0  0  3  0  0  0  0  0  0
  197.4980  173.1260  138.1900 C   0  0  1  0  0  3  0  0  0  0  0  0
  196.2460  176.4470  142.3000 C   0  0  2  0  0  3  0  0  0  0  0  0
  197.3050  171.7480  136.2500 O   0  0  0  0  0  1  0  0  0  0  0  0
  197.1780  171.7450  137.6370 C   0  0  0  0  0  2  0  0  0  0  0  0
  195.0720  173.4960  138.0970 O   0  0  0  0  0  0  0  0  0  0  0  0
  194.3170  174.1310  137.1080 C   0  0  0  0  0  2  0  0  0  0  0  0
  192.6520  173.9260  138.9210 C   0  0  0  0  0  2  0  0  0  0  0  0
  191.9500  174.5700  136.7710 N   0  0  0  0  0  2  0  0  0  0  0  0
  193.0450  174.7140  137.7030 C   0  0  2  0  0  3  0  0  0  0  0  0
  190.9290  173.8650  137.5300 C   0  0  0  0  0  2  0  0  0  0  0  0
  191.5360  173.1590  138.5790 O   0  0  0  0  0  0  0  0  0  0  0  0
  196.4880  171.9460  145.9980 O   0  0  0  0  0  0  0  0  0  0  0  0
  196.9390  172.3240  144.5920 S   0  0  0  0  0  3  0  0  0  0  0  0
  188.2220  177.8420  141.9190 C   0  0  0  0  0  2  0  0  0  0  0  0
  186.9710  178.7060  141.9430 C   0  0  0  0  0  2  0  0  0  0  0  0
  183.8850  178.3730  143.2520 C   0  0  0  0  0  2  0  0  0  0  0  0
  186.0530  178.2140  142.9530 N   0  0  0  0  0  0  0  0  0  0  0  0
  186.4640  179.0050  145.0910 F   0  0  0  0  0  0  0  0  0  0  0  0
  184.8670  177.9930  142.3290 O   0  0  0  0  0  0  0  0  0  0  0  0
  184.4180  179.4110  144.1070 N   0  0  0  0  0  2  0  0  0  0  0  0
  185.8370  179.2980  143.8940 C   0  0  2  0  0  3  0  0  0  0  0  0
  2 44  1  6  0  0  0
  2  4  1  0  0  0  0
  3 14  2  0  0  0  0
  4 11  1  1  0  0  0
  5  4  1  0  0  0  0
  5 17  1  0  0  0  0
  6 15  1  0  0  0  0
  6 12  1  0  0  0  0
  8 15  1  6  0  0  0
  8  9  1  0  0  0  0
  9  1  1  1  0  0  0
  9 10  1  0  0  0  0
 12 19  1  6  0  0  0
 12  1  1  0  0  0  0
 14 13  1  0  0  0  0
 14  8  1  0  0  0  0
 16 18  2  0  0  0  0
 17  7  1  6  0  0  0
 17 10  1  0  0  0  0
 18  2  1  0  0  0  0
 18 13  1  0  0  0  0
 19 43  1  1  0  0  0
 20 35  1  1  0  0  0
 20 31  1  0  0  0  0
 20 22  1  0  0  0  0
 21 19  1  6  0  0  0
 21 26  1  0  0  0  0
 22 24  1  1  0  0  0
 22 25  1  0  0  0  0
 25 27  1  6  0  0  0
 25 23  1  0  0  0  0
 28 24  1  6  0  0  0
 28 23  1  0  0  0  0
 28 32  1  0  0  0  0
 28 30  1  0  0  0  0
 29 26  2  0  0  0  0
 30 21  1  0  0  0  0
 31 27  1  0  0  0  0
 32 30  1  0  0  0  0
 32 29  1  0  0  0  0
 33 34  1  0  0  0  0
 34 31  1  0  0  0  0
 36 39  1  0  0  0  0
 36 35  1  0  0  0  0
 38 40  1  0  0  0  0
 38 39  1  0  0  0  0
 39 37  1  0  0  0  0
 40 41  1  0  0  0  0
 41 37  1  0  0  0  0
 43 42  2  0  0  0  0
 44 45  1  0  0  0  0
 45 47  1  0  0  0  0
 46 50  1  0  0  0  0
 47 51  1  0  0  0  0
 49 47  1  0  0  0  0
 49 46  1  0  0  0  0
 51 50  1  0  0  0  0
 51 48  1  0  0  0  0
M  END
>  <MODEL>
1

>  <REMARK>
 VINA RESULT:      -7.3      0.000      0.000
  Name = 
  10 active torsions:
  status: ('A' for Active; 'I' for Inactive)
    1  A    between atoms: C_2  and  O_10
    2  A    between atoms: C_3  and  C_20
    3  A    between atoms: C_9  and  C_23
    4  A    between atoms: O_10  and  C_19
    5  A    between atoms: C_14  and  C_48
    6  A    between atoms: S_18  and  C_20
    7  A    between atoms: C_19  and  C_29
    8  A    between atoms: C_20  and  C_38
    9  A    between atoms: N_22  and  C_28
   10  A    between atoms: C_23  and  C_28
                            x       y       z     vdW  Elec       q    Type
                         _______ _______ _______ _____ _____    ______ ____

>  <TORSDO>
F 10

$$$$
=
 OpenBabel11062418583D

 51 58  0  0  1  0  0  0  0  0999 V2000
  190.5940  172.3190  141.9590 C   0  0  0  0  0  2  0  0  0  0  0  0
  196.7940  171.7560  143.5330 C   0  0  2  0  0  3  0  0  0  0  0  0
  193.2630  172.6270  145.3540 O   0  0  0  0  0  0  0  0  0  0  0  0
  196.1770  171.9070  142.1280 C   0  0  2  0  0  3  0  0  0  0  0  0
  195.0340  172.9420  142.1040 C   0  0  0  0  0  2  0  0  0  0  0  0
  190.0550  172.6050  144.4680 C   0  0  0  0  0  2  0  0  0  0  0  0
  193.4210  173.9290  140.6370 O   0  0  0  0  0  1  0  0  0  0  0  0
  192.0910  171.2970  143.7430 C   0  0  1  0  0  3  0  0  0  0  0  0
  192.0180  172.2190  142.5060 C   0  0  1  0  0  3  0  0  0  0  0  0
  192.9410  171.7010  141.4020 C   0  0  0  0  0  2  0  0  0  0  0  0
  195.7530  170.6560  141.6690 O   0  0  0  0  0  1  0  0  0  0  0  0
  189.5860  172.8030  143.0170 C   0  0  1  0  0  3  0  0  0  0  0  0
  194.5110  170.9570  144.3000 N   0  0  0  0  0  2  0  0  0  0  0  0
  193.2910  171.6460  144.5620 C   0  0  0  0  0  0  0  0  0  0  0  0
  190.8170  171.2930  144.6010 C   0  0  0  0  0  2  0  0  0  0  0  0
  196.1420  171.5900  145.8780 N   0  0  0  0  0  2  0  0  0  0  0  0
  194.0140  172.7170  140.9910 C   0  0  2  0  0  3  0  0  0  0  0  0
  195.7850  171.5110  144.6330 C   0  0  0  0  0  0  0  0  0  0  0  0
  189.1170  174.2300  142.7440 C   0  0  1  0  0  3  0  0  0  0  0  0
  185.4900  178.9080  143.4460 C   0  0  1  0  0  3  0  0  0  0  0  0
  190.0670  175.2380  143.4100 C   0  0  1  0  0  3  0  0  0  0  0  0
  186.9460  178.6160  143.3790 C   0  0  1  0  0  3  0  0  0  0  0  0
  188.2720  177.2380  142.2580 O   0  0  0  0  0  0  0  0  0  0  0  0
  187.6520  178.0450  144.4210 O   0  0  0  0  0  0  0  0  0  0  0  0
  186.9350  177.5610  142.3830 C   0  0  2  0  0  3  0  0  0  0  0  0
  191.0150  175.9960  142.5030 C   0  0  0  0  0  3  0  0  0  0  0  0
  186.2730  178.0950  141.2830 O   0  0  0  0  0  0  0  0  0  0  0  0
  188.6100  177.3610  143.6310 C   0  0  1  0  0  0  0  0  0  0  0  0
  190.9330  177.4130  142.8410 N   0  0  0  0  0  0  0  0  0  0  0  0
  189.3680  176.2310  144.3120 C   0  0  2  0  0  3  0  0  0  0  0  0
  185.2080  178.8000  141.9170 C   0  0  1  0  0  3  0  0  0  0  0  0
  190.0640  177.5660  144.0100 C   0  0  2  0  0  3  0  0  0  0  0  0
  183.7020  178.1210  140.1940 O   0  0  0  0  0  1  0  0  0  0  0  0
  183.8650  178.1710  141.5750 C   0  0  0  0  0  2  0  0  0  0  0  0
  184.8110  177.9170  144.1740 O   0  0  0  0  0  0  0  0  0  0  0  0
  184.1720  178.5910  145.2180 C   0  0  0  0  0  2  0  0  0  0  0  0
  185.2360  178.7620  147.4400 C   0  0  0  0  0  2  0  0  0  0  0  0
  185.2130  176.6930  146.3240 N   0  0  0  0  0  2  0  0  0  0  0  0
  184.4170  177.8800  146.5390 C   0  0  2  0  0  3  0  0  0  0  0  0
  186.3490  176.8610  147.2150 C   0  0  0  0  0  2  0  0  0  0  0  0
  186.5240  178.2240  147.4930 O   0  0  0  0  0  0  0  0  0  0  0  0
  187.8880  173.3560  140.5930 O   0  0  0  0  0  0  0  0  0  0  0  0
  188.7800  174.5300  140.9790 S   0  0  0  0  0  3  0  0  0  0  0  0
  197.7950  172.8730  143.8600 C   0  0  0  0  0  2  0  0  0  0  0  0
  197.5360  174.1420  143.0630 C   0  0  0  0  0  2  0  0  0  0  0  0
  195.4810  175.7290  145.2110 C   0  0  0  0  0  2  0  0  0  0  0  0
  197.2200  175.2330  143.9670 N   0  0  0  0  0  0  0  0  0  0  0  0
  197.1770  177.3230  142.9710 F   0  0  0  0  0  0  0  0  0  0  0  0
  196.4110  174.7200  144.9300 O   0  0  0  0  0  0  0  0  0  0  0  0
  195.2840  176.5310  144.0230 N   0  0  0  0  0  2  0  0  0  0  0  0
  196.4260  176.1890  143.2160 C   0  0  2  0  0  3  0  0  0  0  0  0
  1  9  1  0  0  0  0
  1 12  1  0  0  0  0
  2 44  1  1  0  0  0
  2 18  1  0  0  0  0
  4 11  1  1  0  0  0
  4  2  1  0  0  0  0
  5  4  1  0  0  0  0
  6 15  1  0  0  0  0
  8 14  1  0  0  0  0
  8 15  1  1  0  0  0
  9 10  1  6  0  0  0
  9  8  1  0  0  0  0
 12 19  1  6  0  0  0
 12  6  1  0  0  0  0
 13 14  1  0  0  0  0
 13 18  1  0  0  0  0
 14  3  2  0  0  0  0
 17  7  1  1  0  0  0
 17 10  1  0  0  0  0
 17  5  1  0  0  0  0
 18 16  2  0  0  0  0
 19 43  1  6  0  0  0
 20 35  1  1  0  0  0
 21 19  1  6  0  0  0
 21 30  1  0  0  0  0
 22 20  1  0  0  0  0
 22 24  1  1  0  0  0
 23 25  1  0  0  0  0
 25 27  1  6  0  0  0
 25 22  1  0  0  0  0
 26 29  2  0  0  0  0
 26 21  1  0  0  0  0
 27 31  1  0  0  0  0
 28 23  1  6  0  0  0
 28 32  1  0  0  0  0
 28 30  1  0  0  0  0
 28 24  1  0  0  0  0
 29 32  1  0  0  0  0
 31 20  1  0  0  0  0
 32 30  1  0  0  0  0
 33 34  1  0  0  0  0
 34 31  1  0  0  0  0
 35 36  1  0  0  0  0
 36 39  1  0  0  0  0
 37 41  1  0  0  0  0
 38 39  1  0  0  0  0
 38 40  1  0  0  0  0
 39 37  1  0  0  0  0
 40 41  1  0  0  0  0
 42 43  2  0  0  0  0
 45 44  1  0  0  0  0
 45 47  1  0  0  0  0
 47 49  1  0  0  0  0
 48 51  1  0  0  0  0
 49 46  1  0  0  0  0
 50 46  1  0  0  0  0
 51 47  1  0  0  0  0
 51 50  1  0  0  0  0
M  END
>  <MODEL>
2

>  <REMARK>
 VINA RESULT:      -7.1      3.542      9.670
  Name = 
  10 active torsions:
  status: ('A' for Active; 'I' for Inactive)
    1  A    between atoms: C_2  and  O_10
    2  A    between atoms: C_3  and  C_20
    3  A    between atoms: C_9  and  C_23
    4  A    between atoms: O_10  and  C_19
    5  A    between atoms: C_14  and  C_48
    6  A    between atoms: S_18  and  C_20
    7  A    between atoms: C_19  and  C_29
    8  A    between atoms: C_20  and  C_38
    9  A    between atoms: N_22  and  C_28
   10  A    between atoms: C_23  and  C_28
                            x       y       z     vdW  Elec       q    Type
                         _______ _______ _______ _____ _____    ______ ____

>  <TORSDO>
F 10

$$$$
=
 OpenBabel11062418583D

 51 58  0  0  1  0  0  0  0  0999 V2000
  195.2060  175.2620  143.3450 C   0  0  0  0  0  2  0  0  0  0  0  0
  189.3860  177.0130  145.4160 C   0  0  2  0  0  3  0  0  0  0  0  0
  192.4030  174.5400  146.5650 O   0  0  0  0  0  0  0  0  0  0  0  0
  189.9980  177.2100  144.0150 C   0  0  2  0  0  3  0  0  0  0  0  0
  190.7810  175.9680  143.5430 C   0  0  0  0  0  2  0  0  0  0  0  0
  195.5120  173.9370  145.5390 C   0  0  0  0  0  2  0  0  0  0  0  0
  192.0970  175.1560  141.7170 O   0  0  0  0  0  1  0  0  0  0  0  0
  193.9960  175.9560  145.4720 C   0  0  1  0  0  3  0  0  0  0  0  0
  193.8510  175.5720  143.9830 C   0  0  1  0  0  3  0  0  0  0  0  0
  193.1800  176.7030  143.2040 C   0  0  0  0  0  2  0  0  0  0  0  0
  190.7970  178.3580  144.0140 O   0  0  0  0  0  1  0  0  0  0  0  0
  195.9710  174.1530  144.0880 C   0  0  1  0  0  3  0  0  0  0  0  0
  191.7620  176.7670  146.2700 N   0  0  0  0  0  2  0  0  0  0  0  0
  192.7080  175.7040  146.1850 C   0  0  0  0  0  0  0  0  0  0  0  0
  195.1700  175.2710  146.1870 C   0  0  0  0  0  2  0  0  0  0  0  0
  189.9420  176.1130  147.6140 N   0  0  0  0  0  2  0  0  0  0  0  0
  191.8750  176.2720  142.5230 C   0  0  2  0  0  3  0  0  0  0  0  0
  190.3670  176.5320  146.4620 C   0  0  0  0  0  0  0  0  0  0  0  0
  196.0060  172.8530  143.2870 C   0  0  1  0  0  3  0  0  0  0  0  0
  191.8320  170.8550  139.5300 C   0  0  1  0  0  3  0  0  0  0  0  0
  196.6990  173.0810  141.9330 C   0  0  1  0  0  3  0  0  0  0  0  0
  193.2970  171.1070  139.5500 C   0  0  1  0  0  3  0  0  0  0  0  0
  194.9510  170.9250  141.0140 O   0  0  0  0  0  0  0  0  0  0  0  0
  193.8490  172.3710  139.4620 O   0  0  0  0  0  0  0  0  0  0  0  0
  193.5890  170.7240  140.9190 C   0  0  2  0  0  3  0  0  0  0  0  0
  197.7150  172.0470  141.4950 C   0  0  0  0  0  3  0  0  0  0  0  0
  193.0950  169.4310  141.0560 O   0  0  0  0  0  0  0  0  0  0  0  0
  195.0070  172.1120  140.2370 C   0  0  1  0  0  0  0  0  0  0  0  0
  197.4190  171.6730  140.1160 N   0  0  0  0  0  0  0  0  0  0  0  0
  195.7390  173.3260  140.7900 C   0  0  2  0  0  3  0  0  0  0  0  0
  191.8590  169.5310  140.3510 C   0  0  1  0  0  3  0  0  0  0  0  0
  196.3330  172.5220  139.6250 C   0  0  2  0  0  3  0  0  0  0  0  0
  190.8020  168.1670  142.0010 O   0  0  0  0  0  1  0  0  0  0  0  0
  190.6810  169.3640  141.3000 C   0  0  0  0  0  2  0  0  0  0  0  0
  191.1370  171.8740  140.2020 O   0  0  0  0  0  0  0  0  0  0  0  0
  190.3170  172.4660  139.2390 C   0  0  0  0  0  2  0  0  0  0  0  0
  188.5510  174.1640  139.5560 C   0  0  0  0  0  2  0  0  0  0  0  0
  188.9510  172.5800  141.2460 N   0  0  0  0  0  2  0  0  0  0  0  0
  188.9330  172.7320  139.8090 C   0  0  2  0  0  3  0  0  0  0  0  0
  188.4330  173.8440  141.7440 C   0  0  0  0  0  2  0  0  0  0  0  0
  188.6290  174.8390  140.7760 O   0  0  0  0  0  0  0  0  0  0  0  0
  195.4260  170.5420  144.3910 O   0  0  0  0  0  0  0  0  0  0  0  0
  196.6430  171.4500  144.2570 S   0  0  0  0  0  3  0  0  0  0  0  0
  188.0830  176.2020  145.3810 C   0  0  0  0  0  2  0  0  0  0  0  0
  187.2310  176.5160  144.1610 C   0  0  0  0  0  2  0  0  0  0  0  0
  185.7130  179.2790  145.3490 C   0  0  0  0  0  2  0  0  0  0  0  0
  186.0510  177.2570  144.5640 N   0  0  0  0  0  0  0  0  0  0  0  0
  184.8800  176.3140  146.3250 F   0  0  0  0  0  0  0  0  0  0  0  0
  186.3020  178.5650  144.2980 O   0  0  0  0  0  0  0  0  0  0  0  0
  185.7160  178.4530  146.5380 N   0  0  0  0  0  2  0  0  0  0  0  0
  185.9460  177.1350  146.0070 C   0  0  2  0  0  3  0  0  0  0  0  0
  1  9  1  0  0  0  0
  1 12  1  0  0  0  0
  2 44  1  6  0  0  0
  2 18  1  0  0  0  0
  4 11  1  1  0  0  0
  4  2  1  0  0  0  0
  5  4  1  0  0  0  0
  6 15  1  0  0  0  0
  8 14  1  0  0  0  0
  8 15  1  1  0  0  0
  9 10  1  6  0  0  0
  9  8  1  0  0  0  0
 12 19  1  6  0  0  0
 12  6  1  0  0  0  0
 13 18  1  0  0  0  0
 14 13  1  0  0  0  0
 14  3  2  0  0  0  0
 17  7  1  1  0  0  0
 17 10  1  0  0  0  0
 17  5  1  0  0  0  0
 18 16  2  0  0  0  0
 19 43  1  1  0  0  0
 20 22  1  0  0  0  0
 20 35  1  1  0  0  0
 20 31  1  0  0  0  0
 21 19  1  1  0  0  0
 22 24  1  1  0  0  0
 22 25  1  0  0  0  0
 25 23  1  6  0  0  0
 25 27  1  0  0  0  0
 26 21  1  0  0  0  0
 28 24  1  6  0  0  0
 28 30  1  0  0  0  0
 28 23  1  0  0  0  0
 29 26  2  0  0  0  0
 30 21  1  0  0  0  0
 31 27  1  0  0  0  0
 31 34  1  0  0  0  0
 32 29  1  0  0  0  0
 32 28  1  0  0  0  0
 32 30  1  0  0  0  0
 34 33  1  0  0  0  0
 36 39  1  0  0  0  0
 36 35  1  0  0  0  0
 37 39  1  0  0  0  0
 37 41  1  0  0  0  0
 38 40  1  0  0  0  0
 39 38  1  0  0  0  0
 41 40  1  0  0  0  0
 43 42  2  0  0  0  0
 45 47  1  0  0  0  0
 45 44  1  0  0  0  0
 46 50  1  0  0  0  0
 47 51  1  0  0  0  0
 49 47  1  0  0  0  0
 49 46  1  0  0  0  0
 51 48  1  0  0  0  0
 51 50  1  0  0  0  0
M  END
>  <MODEL>
3

>  <REMARK>
 VINA RESULT:      -6.9      2.747      4.229
  Name = 
  10 active torsions:
  status: ('A' for Active; 'I' for Inactive)
    1  A    between atoms: C_2  and  O_10
    2  A    between atoms: C_3  and  C_20
    3  A    between atoms: C_9  and  C_23
    4  A    between atoms: O_10  and  C_19
    5  A    between atoms: C_14  and  C_48
    6  A    between atoms: S_18  and  C_20
    7  A    between atoms: C_19  and  C_29
    8  A    between atoms: C_20  and  C_38
    9  A    between atoms: N_22  and  C_28
   10  A    between atoms: C_23  and  C_28
                            x       y       z     vdW  Elec       q    Type
                         _______ _______ _______ _____ _____    ______ ____

>  <TORSDO>
F 10

$$$$
=
 OpenBabel11062418583D

 51 58  0  0  1  0  0  0  0  0999 V2000
  192.2020  169.9950  142.4200 C   0  0  0  0  0  2  0  0  0  0  0  0
  187.8350  174.4370  140.8630 C   0  0  2  0  0  3  0  0  0  0  0  0
  191.2370  172.8450  139.3070 O   0  0  0  0  0  0  0  0  0  0  0  0
  188.0900  173.7930  142.2410 C   0  0  2  0  0  3  0  0  0  0  0  0
  189.5950  173.6420  142.5420 C   0  0  0  0  0  2  0  0  0  0  0  0
  193.2660  170.3250  140.0910 C   0  0  0  0  0  2  0  0  0  0  0  0
  191.1070  172.8160  144.2010 O   0  0  0  0  0  1  0  0  0  0  0  0
  190.8070  170.7820  140.4440 C   0  0  1  0  0  3  0  0  0  0  0  0
  191.2550  171.0730  141.8930 C   0  0  1  0  0  3  0  0  0  0  0  0
  190.0400  171.1660  142.8180 C   0  0  0  0  0  2  0  0  0  0  0  0
  187.4220  172.5660  142.3110 O   0  0  0  0  0  1  0  0  0  0  0  0
  193.4430  169.8090  141.5290 C   0  0  1  0  0  3  0  0  0  0  0  0
  189.0070  172.4240  139.8570 N   0  0  0  0  0  2  0  0  0  0  0  0
  190.3800  172.0520  139.7830 C   0  0  0  0  0  0  0  0  0  0  0  0
  191.8530  170.0400  139.5990 C   0  0  0  0  0  2  0  0  0  0  0  0
  188.6300  174.3530  138.5590 N   0  0  0  0  0  2  0  0  0  0  0  0
  189.9250  172.5210  143.5240 C   0  0  2  0  0  3  0  0  0  0  0  0
  188.5770  173.7800  139.7220 C   0  0  0  0  0  0  0  0  0  0  0  0
  194.7050  170.3520  142.1930 C   0  0  1  0  0  3  0  0  0  0  0  0
  195.3470  175.8320  144.4490 C   0  0  1  0  0  3  0  0  0  0  0  0
  194.6840  170.0510  143.7010 C   0  0  1  0  0  3  0  0  0  0  0  0
  195.5420  174.4170  144.8620 C   0  0  1  0  0  3  0  0  0  0  0  0
  196.2180  172.5320  143.9140 O   0  0  0  0  0  0  0  0  0  0  0  0
  194.4990  173.5770  145.2040 O   0  0  0  0  0  0  0  0  0  0  0  0
  196.0040  173.8600  143.6040 C   0  0  2  0  0  3  0  0  0  0  0  0
  195.9720  169.5480  144.3220 C   0  0  0  0  0  3  0  0  0  0  0  0
  197.0920  174.6400  143.2300 O   0  0  0  0  0  0  0  0  0  0  0  0
  195.0960  172.3680  144.7680 C   0  0  1  0  0  0  0  0  0  0  0  0
  196.2310  170.3290  145.5270 N   0  0  0  0  0  0  0  0  0  0  0  0
  194.1580  171.1910  144.5430 C   0  0  2  0  0  3  0  0  0  0  0  0
  196.6240  175.9460  143.5640 C   0  0  1  0  0  3  0  0  0  0  0  0
  195.0940  171.2210  145.7600 C   0  0  2  0  0  3  0  0  0  0  0  0
  196.9580  176.1210  141.2060 O   0  0  0  0  0  1  0  0  0  0  0  0
  196.4400  176.7910  142.3110 C   0  0  0  0  0  2  0  0  0  0  0  0
  194.1720  175.9780  143.6930 O   0  0  0  0  0  0  0  0  0  0  0  0
  193.3340  176.7950  144.4560 C   0  0  0  0  0  2  0  0  0  0  0  0
  191.3040  177.4360  143.2050 C   0  0  0  0  0  2  0  0  0  0  0  0
  191.1020  176.6190  145.4000 N   0  0  0  0  0  2  0  0  0  0  0  0
  191.8760  176.4560  144.1920 C   0  0  2  0  0  3  0  0  0  0  0  0
  190.0400  177.5370  145.0210 C   0  0  0  0  0  2  0  0  0  0  0  0
  190.4510  178.2880  143.9100 O   0  0  0  0  0  0  0  0  0  0  0  0
  196.8520  171.1820  140.9280 O   0  0  0  0  0  0  0  0  0  0  0  0
  196.2250  169.8510  141.3230 S   0  0  0  0  0  3  0  0  0  0  0  0
  187.9830  175.9640  140.8910 C   0  0  0  0  0  2  0  0  0  0  0  0
  187.7060  176.5550  142.2650 C   0  0  0  0  0  2  0  0  0  0  0  0
  185.8450  179.1560  143.3220 C   0  0  0  0  0  2  0  0  0  0  0  0
  187.1920  177.9040  142.1240 N   0  0  0  0  0  0  0  0  0  0  0  0
  185.9200  178.2540  140.2210 F   0  0  0  0  0  0  0  0  0  0  0  0
  187.0130  178.3860  143.3810 O   0  0  0  0  0  0  0  0  0  0  0  0
  184.9790  178.6180  142.2950 N   0  0  0  0  0  2  0  0  0  0  0  0
  185.8750  177.7960  141.5250 C   0  0  2  0  0  3  0  0  0  0  0  0
  2 44  1  1  0  0  0
  2  4  1  0  0  0  0
  3 14  2  0  0  0  0
  4 11  1  6  0  0  0
  4  5  1  0  0  0  0
  5 17  1  0  0  0  0
  6 12  1  0  0  0  0
  8 15  1  6  0  0  0
  8  9  1  0  0  0  0
  9  1  1  1  0  0  0
  9 10  1  0  0  0  0
 10 17  1  0  0  0  0
 12 19  1  1  0  0  0
 12  1  1  0  0  0  0
 14 13  1  0  0  0  0
 14  8  1  0  0  0  0
 15  6  1  0  0  0  0
 16 18  2  0  0  0  0
 17  7  1  6  0  0  0
 18 13  1  0  0  0  0
 18  2  1  0  0  0  0
 19 43  1  6  0  0  0
 20 35  1  6  0  0  0
 20 22  1  0  0  0  0
 21 19  1  6  0  0  0
 21 26  1  0  0  0  0
 21 30  1  0  0  0  0
 22 24  1  6  0  0  0
 25 27  1  1  0  0  0
 25 23  1  0  0  0  0
 25 22  1  0  0  0  0
 26 29  2  0  0  0  0
 27 31  1  0  0  0  0
 28 23  1  6  0  0  0
 28 24  1  0  0  0  0
 28 32  1  0  0  0  0
 29 32  1  0  0  0  0
 30 28  1  0  0  0  0
 30 32  1  0  0  0  0
 31 20  1  0  0  0  0
 33 34  1  0  0  0  0
 34 31  1  0  0  0  0
 35 36  1  0  0  0  0
 37 41  1  0  0  0  0
 37 39  1  0  0  0  0
 39 36  1  0  0  0  0
 39 38  1  0  0  0  0
 40 38  1  0  0  0  0
 41 40  1  0  0  0  0
 42 43  2  0  0  0  0
 44 45  1  0  0  0  0
 46 49  1  0  0  0  0
 47 45  1  0  0  0  0
 47 49  1  0  0  0  0
 48 51  1  0  0  0  0
 50 46  1  0  0  0  0
 51 47  1  0  0  0  0
 51 50  1  0  0  0  0
M  END
>  <MODEL>
4

>  <REMARK>
 VINA RESULT:      -6.7      2.851      5.091
  Name = 
  10 active torsions:
  status: ('A' for Active; 'I' for Inactive)
    1  A    between atoms: C_2  and  O_10
    2  A    between atoms: C_3  and  C_20
    3  A    between atoms: C_9  and  C_23
    4  A    between atoms: O_10  and  C_19
    5  A    between atoms: C_14  and  C_48
    6  A    between atoms: S_18  and  C_20
    7  A    between atoms: C_19  and  C_29
    8  A    between atoms: C_20  and  C_38
    9  A    between atoms: N_22  and  C_28
   10  A    between atoms: C_23  and  C_28
                            x       y       z     vdW  Elec       q    Type
                         _______ _______ _______ _____ _____    ______ ____

>  <TORSDO>
F 10

$$$$
=
 OpenBabel11062418583D

 51 58  0  0  1  0  0  0  0  0999 V2000
  194.7710  174.4760  143.2010 C   0  0  0  0  0  2  0  0  0  0  0  0
  189.1160  177.1420  144.6670 C   0  0  2  0  0  3  0  0  0  0  0  0
  192.1180  175.1510  146.5550 O   0  0  0  0  0  0  0  0  0  0  0  0
  189.6610  176.7670  143.2740 C   0  0  2  0  0  3  0  0  0  0  0  0
  190.3840  175.4050  143.2800 C   0  0  0  0  0  2  0  0  0  0  0  0
  195.1520  174.0650  145.7210 C   0  0  0  0  0  2  0  0  0  0  0  0
  191.5800  173.9040  141.8510 O   0  0  0  0  0  1  0  0  0  0  0  0
  193.6910  175.9760  144.9490 C   0  0  1  0  0  3  0  0  0  0  0  0
  193.4600  175.0650  143.7240 C   0  0  1  0  0  3  0  0  0  0  0  0
  192.7810  175.8470  142.5990 C   0  0  0  0  0  2  0  0  0  0  0  0
  190.4910  177.7920  142.8080 O   0  0  0  0  0  1  0  0  0  0  0  0
  195.5420  173.6960  144.2800 C   0  0  1  0  0  3  0  0  0  0  0  0
  191.5250  177.1290  145.4620 N   0  0  0  0  0  2  0  0  0  0  0  0
  192.4350  176.0700  145.7520 C   0  0  0  0  0  0  0  0  0  0  0  0
  194.8810  175.5590  145.8270 C   0  0  0  0  0  2  0  0  0  0  0  0
  189.7590  177.1140  147.0200 N   0  0  0  0  0  2  0  0  0  0  0  0
  191.4320  175.2510  142.1810 C   0  0  2  0  0  3  0  0  0  0  0  0
  190.1350  177.0470  145.7800 C   0  0  0  0  0  0  0  0  0  0  0  0
  195.4990  172.1900  144.0310 C   0  0  1  0  0  3  0  0  0  0  0  0
  193.0950  171.4620  138.6250 C   0  0  1  0  0  3  0  0  0  0  0  0
  196.7300  171.7500  143.2210 C   0  0  1  0  0  3  0  0  0  0  0  0
  194.2910  171.0220  139.3910 C   0  0  1  0  0  3  0  0  0  0  0  0
  194.7570  170.4670  141.4850 O   0  0  0  0  0  0  0  0  0  0  0  0
  195.3800  171.8370  139.6290 O   0  0  0  0  0  0  0  0  0  0  0  0
  193.6970  170.8870  140.7090 C   0  0  2  0  0  3  0  0  0  0  0  0
  197.1440  170.2960  143.3310 C   0  0  0  0  0  3  0  0  0  0  0  0
  192.6130  170.0320  140.5420 O   0  0  0  0  0  0  0  0  0  0  0  0
  195.7520  171.2760  140.8770 C   0  0  1  0  0  0  0  0  0  0  0  0
  197.3530  169.7800  141.9820 N   0  0  0  0  0  0  0  0  0  0  0  0
  196.6610  172.1210  141.7570 C   0  0  2  0  0  3  0  0  0  0  0  0
  192.0710  170.5090  139.3110 C   0  0  1  0  0  3  0  0  0  0  0  0
  197.2090  170.8830  141.0310 C   0  0  2  0  0  3  0  0  0  0  0  0
  189.8630  170.8110  138.4570 O   0  0  0  0  0  1  0  0  0  0  0  0
  190.6960  171.1240  139.5270 C   0  0  0  0  0  2  0  0  0  0  0  0
  192.8040  172.8130  138.8800 O   0  0  0  0  0  0  0  0  0  0  0  0
  193.1560  173.4980  137.7140 C   0  0  0  0  0  2  0  0  0  0  0  0
  195.0390  175.0510  137.3390 C   0  0  0  0  0  2  0  0  0  0  0  0
  194.0390  174.9360  139.4630 N   0  0  0  0  0  2  0  0  0  0  0  0
  193.7300  174.8640  138.0540 C   0  0  2  0  0  3  0  0  0  0  0  0
  195.4420  175.3160  139.5000 C   0  0  0  0  0  2  0  0  0  0  0  0
  196.0540  174.9500  138.2920 O   0  0  0  0  0  0  0  0  0  0  0  0
  194.0720  170.2860  145.1430 O   0  0  0  0  0  0  0  0  0  0  0  0
  195.1900  171.2370  145.5520 S   0  0  0  0  0  3  0  0  0  0  0  0
  187.7910  176.4380  144.9900 C   0  0  0  0  0  2  0  0  0  0  0  0
  186.5860  177.1700  144.4220 C   0  0  0  0  0  2  0  0  0  0  0  0
  184.3820  178.2820  146.7140 C   0  0  0  0  0  2  0  0  0  0  0  0
  186.1170  178.1580  145.3750 N   0  0  0  0  0  0  0  0  0  0  0  0
  185.6270  180.2260  144.4550 F   0  0  0  0  0  0  0  0  0  0  0  0
  185.4700  177.4760  146.3560 O   0  0  0  0  0  0  0  0  0  0  0  0
  183.9750  179.0610  145.5650 N   0  0  0  0  0  2  0  0  0  0  0  0
  185.1180  178.9630  144.6950 C   0  0  2  0  0  3  0  0  0  0  0  0
  1  9  1  0  0  0  0
  1 12  1  0  0  0  0
  2 44  1  1  0  0  0
  2 18  1  0  0  0  0
  4 11  1  1  0  0  0
  4  5  1  0  0  0  0
  4  2  1  0  0  0  0
  6 15  1  0  0  0  0
  8 14  1  0  0  0  0
  8 15  1  1  0  0  0
  9 10  1  6  0  0  0
  9  8  1  0  0  0  0
 12 19  1  6  0  0  0
 12  6  1  0  0  0  0
 13 14  1  0  0  0  0
 13 18  1  0  0  0  0
 14  3  2  0  0  0  0
 17  7  1  1  0  0  0
 17 10  1  0  0  0  0
 17  5  1  0  0  0  0
 18 16  2  0  0  0  0
 19 43  1  1  0  0  0
 20 35  1  1  0  0  0
 20 31  1  0  0  0  0
 20 22  1  0  0  0  0
 21 26  1  0  0  0  0
 21 19  1  6  0  0  0
 22 24  1  1  0  0  0
 22 25  1  0  0  0  0
 25 27  1  6  0  0  0
 25 23  1  0  0  0  0
 28 24  1  6  0  0  0
 28 32  1  0  0  0  0
 28 23  1  0  0  0  0
 28 30  1  0  0  0  0
 29 26  2  0  0  0  0
 30 21  1  0  0  0  0
 31 34  1  0  0  0  0
 31 27  1  0  0  0  0
 32 30  1  0  0  0  0
 32 29  1  0  0  0  0
 33 34  1  0  0  0  0
 36 39  1  0  0  0  0
 36 35  1  0  0  0  0
 37 39  1  0  0  0  0
 37 41  1  0  0  0  0
 38 40  1  0  0  0  0
 39 38  1  0  0  0  0
 41 40  1  0  0  0  0
 42 43  2  0  0  0  0
 45 44  1  0  0  0  0
 45 47  1  0  0  0  0
 47 49  1  0  0  0  0
 48 51  1  0  0  0  0
 49 46  1  0  0  0  0
 50 46  1  0  0  0  0
 51 47  1  0  0  0  0
 51 50  1  0  0  0  0
M  END
>  <MODEL>
5

>  <REMARK>
 VINA RESULT:      -6.7      2.622      3.945
  Name = 
  10 active torsions:
  status: ('A' for Active; 'I' for Inactive)
    1  A    between atoms: C_2  and  O_10
    2  A    between atoms: C_3  and  C_20
    3  A    between atoms: C_9  and  C_23
    4  A    between atoms: O_10  and  C_19
    5  A    between atoms: C_14  and  C_48
    6  A    between atoms: S_18  and  C_20
    7  A    between atoms: C_19  and  C_29
    8  A    between atoms: C_20  and  C_38
    9  A    between atoms: N_22  and  C_28
   10  A    between atoms: C_23  and  C_28
                            x       y       z     vdW  Elec       q    Type
                         _______ _______ _______ _____ _____    ______ ____

>  <TORSDO>
F 10

$$$$
=
 OpenBabel11062418583D

 51 58  0  0  1  0  0  0  0  0999 V2000
  192.0810  171.7560  143.9110 C   0  0  0  0  0  2  0  0  0  0  0  0
  192.1820  168.6020  138.3200 C   0  0  2  0  0  3  0  0  0  0  0  0
  194.8300  170.2840  140.9080 O   0  0  0  0  0  0  0  0  0  0  0  0
  190.9820  169.2820  139.0100 C   0  0  2  0  0  3  0  0  0  0  0  0
  191.3610  170.6420  139.6270 C   0  0  0  0  0  2  0  0  0  0  0  0
  194.6600  171.6500  143.9380 C   0  0  0  0  0  2  0  0  0  0  0  0
  190.4420  172.4580  140.8860 O   0  0  0  0  0  1  0  0  0  0  0  0
  193.3250  169.8810  142.7270 C   0  0  1  0  0  3  0  0  0  0  0  0
  192.2870  171.0160  142.5900 C   0  0  1  0  0  3  0  0  0  0  0  0
  190.9450  170.4560  142.1170 C   0  0  0  0  0  2  0  0  0  0  0  0
  190.4400  168.4130  139.9620 O   0  0  0  0  0  1  0  0  0  0  0  0
  193.3910  172.3280  144.4810 C   0  0  1  0  0  3  0  0  0  0  0  0
  193.2910  168.5540  140.6010 N   0  0  0  0  0  2  0  0  0  0  0  0
  193.9100  169.5670  141.3890 C   0  0  0  0  0  0  0  0  0  0  0  0
  194.4260  170.1560  143.7630 C   0  0  0  0  0  2  0  0  0  0  0  0
  194.5590  168.1670  138.6540 N   0  0  0  0  0  2  0  0  0  0  0  0
  190.4720  171.0670  140.7930 C   0  0  2  0  0  3  0  0  0  0  0  0
  193.4220  168.5070  139.1800 C   0  0  0  0  0  0  0  0  0  0  0  0
  193.4450  173.8490  144.3640 C   0  0  1  0  0  3  0  0  0  0  0  0
  188.9330  177.7350  144.6430 C   0  0  1  0  0  3  0  0  0  0  0  0
  193.6880  174.4810  145.7450 C   0  0  1  0  0  3  0  0  0  0  0  0
  190.2650  177.5130  145.2660 C   0  0  1  0  0  3  0  0  0  0  0  0
  192.2490  176.7650  144.6230 O   0  0  0  0  0  0  0  0  0  0  0  0
  190.4970  176.5560  146.2340 O   0  0  0  0  0  0  0  0  0  0  0  0
  190.9840  176.9910  144.1190 C   0  0  2  0  0  3  0  0  0  0  0  0
  194.7440  175.5640  145.8310 C   0  0  0  0  0  3  0  0  0  0  0  0
  190.8250  177.9410  143.1160 O   0  0  0  0  0  0  0  0  0  0  0  0
  191.8470  176.2880  145.8980 C   0  0  1  0  0  0  0  0  0  0  0  0
  194.1760  176.6960  146.5550 N   0  0  0  0  0  0  0  0  0  0  0  0
  192.4300  174.9820  146.4170 C   0  0  2  0  0  3  0  0  0  0  0  0
  189.4540  178.2940  143.2840 C   0  0  1  0  0  3  0  0  0  0  0  0
  192.8460  176.3220  147.0380 C   0  0  2  0  0  3  0  0  0  0  0  0
  187.3790  178.4660  142.1170 O   0  0  0  0  0  1  0  0  0  0  0  0
  188.6320  177.8620  142.0780 C   0  0  0  0  0  2  0  0  0  0  0  0
  188.2460  176.5220  144.4790 O   0  0  0  0  0  0  0  0  0  0  0  0
  187.2090  176.5500  145.4160 C   0  0  0  0  0  2  0  0  0  0  0  0
  186.3230  178.2810  146.9380 C   0  0  0  0  0  2  0  0  0  0  0  0
  185.3270  177.9720  144.8310 N   0  0  0  0  0  2  0  0  0  0  0  0
  186.6070  177.9430  145.5010 C   0  0  2  0  0  3  0  0  0  0  0  0
  184.4090  178.4730  145.8400 C   0  0  0  0  0  2  0  0  0  0  0  0
  184.9390  178.2240  147.1150 O   0  0  0  0  0  0  0  0  0  0  0  0
  193.6150  174.8070  141.9250 O   0  0  0  0  0  0  0  0  0  0  0  0
  194.5680  174.4100  143.0450 S   0  0  0  0  0  3  0  0  0  0  0  0
  192.4510  169.1650  136.9180 C   0  0  0  0  0  2  0  0  0  0  0  0
  191.1810  169.3310  136.0990 C   0  0  0  0  0  2  0  0  0  0  0  0
  191.5730  172.6580  136.4600 C   0  0  0  0  0  2  0  0  0  0  0  0
  191.0870  170.6930  135.6090 N   0  0  0  0  0  0  0  0  0  0  0  0
  188.9370  171.3830  135.0950 F   0  0  0  0  0  0  0  0  0  0  0  0
  192.0990  171.3880  136.1910 O   0  0  0  0  0  0  0  0  0  0  0  0
  190.1480  172.5390  136.6820 N   0  0  0  0  0  2  0  0  0  0  0  0
  189.8480  171.2450  136.1260 C   0  0  2  0  0  3  0  0  0  0  0  0
  1 12  1  0  0  0  0
  2 44  1  6  0  0  0
  2  4  1  0  0  0  0
  2 18  1  0  0  0  0
  3 14  2  0  0  0  0
  4  5  1  0  0  0  0
  4 11  1  1  0  0  0
  5 17  1  0  0  0  0
  6 12  1  0  0  0  0
  8 15  1  1  0  0  0
  9 10  1  1  0  0  0
  9  8  1  0  0  0  0
  9  1  1  0  0  0  0
 12 19  1  6  0  0  0
 13 14  1  0  0  0  0
 14  8  1  0  0  0  0
 15  6  1  0  0  0  0
 16 18  2  0  0  0  0
 17  7  1  1  0  0  0
 17 10  1  0  0  0  0
 18 13  1  0  0  0  0
 19 43  1  6  0  0  0
 20 35  1  6  0  0  0
 20 22  1  0  0  0  0
 21 19  1  6  0  0  0
 21 26  1  0  0  0  0
 21 30  1  0  0  0  0
 22 24  1  1  0  0  0
 25 27  1  6  0  0  0
 25 23  1  0  0  0  0
 25 22  1  0  0  0  0
 26 29  2  0  0  0  0
 27 31  1  0  0  0  0
 28 23  1  6  0  0  0
 28 24  1  0  0  0  0
 28 30  1  0  0  0  0
 28 32  1  0  0  0  0
 29 32  1  0  0  0  0
 30 32  1  0  0  0  0
 31 20  1  0  0  0  0
 34 33  1  0  0  0  0
 34 31  1  0  0  0  0
 35 36  1  0  0  0  0
 36 39  1  0  0  0  0
 37 41  1  0  0  0  0
 38 39  1  0  0  0  0
 38 40  1  0  0  0  0
 39 37  1  0  0  0  0
 40 41  1  0  0  0  0
 42 43  2  0  0  0  0
 45 44  1  0  0  0  0
 46 50  1  0  0  0  0
 47 45  1  0  0  0  0
 47 51  1  0  0  0  0
 47 49  1  0  0  0  0
 48 51  1  0  0  0  0
 49 46  1  0  0  0  0
 51 50  1  0  0  0  0
M  END
>  <MODEL>
6

>  <REMARK>
 VINA RESULT:      -6.7      3.663      8.746
  Name = 
  10 active torsions:
  status: ('A' for Active; 'I' for Inactive)
    1  A    between atoms: C_2  and  O_10
    2  A    between atoms: C_3  and  C_20
    3  A    between atoms: C_9  and  C_23
    4  A    between atoms: O_10  and  C_19
    5  A    between atoms: C_14  and  C_48
    6  A    between atoms: S_18  and  C_20
    7  A    between atoms: C_19  and  C_29
    8  A    between atoms: C_20  and  C_38
    9  A    between atoms: N_22  and  C_28
   10  A    between atoms: C_23  and  C_28
                            x       y       z     vdW  Elec       q    Type
                         _______ _______ _______ _____ _____    ______ ____

>  <TORSDO>
F 10

$$$$
=
 OpenBabel11062418583D

 51 58  0  0  1  0  0  0  0  0999 V2000
  192.0940  174.2760  141.9480 C   0  0  0  0  0  2  0  0  0  0  0  0
  188.3540  176.8560  146.4840 C   0  0  2  0  0  3  0  0  0  0  0  0
  189.6800  173.1770  145.3700 O   0  0  0  0  0  0  0  0  0  0  0  0
  188.8320  177.4960  145.1650 C   0  0  2  0  0  3  0  0  0  0  0  0
  188.7780  176.5050  143.9860 C   0  0  0  0  0  2  0  0  0  0  0  0
  191.8630  172.0030  143.1490 C   0  0  0  0  0  2  0  0  0  0  0  0
  189.2640  176.3340  141.6490 O   0  0  0  0  0  1  0  0  0  0  0  0
  191.6630  174.1570  144.4520 C   0  0  1  0  0  3  0  0  0  0  0  0
  191.1870  174.7210  143.0950 C   0  0  1  0  0  3  0  0  0  0  0  0
  191.1490  176.2500  143.1380 C   0  0  0  0  0  2  0  0  0  0  0  0
  190.1150  178.0220  145.3420 O   0  0  0  0  0  1  0  0  0  0  0  0
  192.2180  172.7460  141.8500 C   0  0  1  0  0  3  0  0  0  0  0  0
  190.3020  175.2490  146.2520 N   0  0  0  0  0  2  0  0  0  0  0  0
  190.5190  174.1180  145.4110 C   0  0  0  0  0  0  0  0  0  0  0  0
  192.3540  172.7890  144.3560 C   0  0  0  0  0  2  0  0  0  0  0  0
  188.5600  174.7940  147.7710 N   0  0  0  0  0  2  0  0  0  0  0  0
  189.7560  176.8240  142.8580 C   0  0  2  0  0  3  0  0  0  0  0  0
  189.0250  175.5430  146.8180 C   0  0  0  0  0  0  0  0  0  0  0  0
  191.4730  172.1920  140.6380 C   0  0  1  0  0  3  0  0  0  0  0  0
  197.1500  173.9480  141.1010 C   0  0  1  0  0  3  0  0  0  0  0  0
  192.2060  170.9610  140.0790 C   0  0  1  0  0  3  0  0  0  0  0  0
  196.3380  172.9610  140.3420 C   0  0  1  0  0  3  0  0  0  0  0  0
  194.3170  172.8800  139.4390 O   0  0  0  0  0  0  0  0  0  0  0  0
  195.8640  171.7870  140.8950 O   0  0  0  0  0  0  0  0  0  0  0  0
  195.1280  173.7390  140.1530 C   0  0  2  0  0  3  0  0  0  0  0  0
  192.2770  170.8260  138.5720 C   0  0  0  0  0  3  0  0  0  0  0  0
  195.5380  174.9230  139.5520 O   0  0  0  0  0  0  0  0  0  0  0  0
  194.6850  171.6870  140.1140 C   0  0  1  0  0  0  0  0  0  0  0  0
  193.6590  170.5340  138.2060 N   0  0  0  0  0  0  0  0  0  0  0  0
  193.5950  170.7690  140.6450 C   0  0  2  0  0  3  0  0  0  0  0  0
  196.7310  175.2050  140.2810 C   0  0  1  0  0  3  0  0  0  0  0  0
  194.4390  170.3560  139.4320 C   0  0  2  0  0  3  0  0  0  0  0  0
  195.2210  176.7890  141.2340 O   0  0  0  0  0  1  0  0  0  0  0  0
  196.5700  176.4670  141.1150 C   0  0  0  0  0  2  0  0  0  0  0  0
  196.7240  174.0300  142.4370 O   0  0  0  0  0  0  0  0  0  0  0  0
  197.8130  173.6100  143.2050 C   0  0  0  0  0  2  0  0  0  0  0  0
  197.1870  172.8010  145.4530 C   0  0  0  0  0  2  0  0  0  0  0  0
  196.5450  174.9600  144.7780 N   0  0  0  0  0  2  0  0  0  0  0  0
  197.6210  174.0030  144.6610 C   0  0  2  0  0  3  0  0  0  0  0  0
  195.6370  174.3570  145.7400 C   0  0  0  0  0  2  0  0  0  0  0  0
  195.8340  172.9690  145.7570 O   0  0  0  0  0  0  0  0  0  0  0  0
  189.0660  173.1980  140.3300 O   0  0  0  0  0  0  0  0  0  0  0  0
  189.6950  171.9590  140.9560 S   0  0  0  0  0  3  0  0  0  0  0  0
  186.8240  176.8070  146.5930 C   0  0  0  0  0  2  0  0  0  0  0  0
  186.1920  178.1890  146.6080 C   0  0  0  0  0  2  0  0  0  0  0  0
  185.2000  177.4120  143.4830 C   0  0  0  0  0  2  0  0  0  0  0  0
  185.3000  178.3330  145.4730 N   0  0  0  0  0  0  0  0  0  0  0  0
  185.2490  180.4590  144.5550 F   0  0  0  0  0  0  0  0  0  0  0  0
  185.2590  177.1260  144.8530 O   0  0  0  0  0  0  0  0  0  0  0  0
  185.8690  178.6710  143.2370 N   0  0  0  0  0  2  0  0  0  0  0  0
  185.9330  179.2580  144.5500 C   0  0  2  0  0  3  0  0  0  0  0  0
  2 44  1  6  0  0  0
  2 18  1  0  0  0  0
  3 14  2  0  0  0  0
  4 11  1  1  0  0  0
  4  2  1  0  0  0  0
  5  4  1  0  0  0  0
  6 15  1  0  0  0  0
  8 15  1  6  0  0  0
  8 14  1  0  0  0  0
  9  1  1  6  0  0  0
  9 10  1  0  0  0  0
  9  8  1  0  0  0  0
 12 19  1  6  0  0  0
 12  1  1  0  0  0  0
 12  6  1  0  0  0  0
 13 18  1  0  0  0  0
 14 13  1  0  0  0  0
 17  7  1  6  0  0  0
 17 10  1  0  0  0  0
 17  5  1  0  0  0  0
 18 16  2  0  0  0  0
 19 43  1  1  0  0  0
 20 35  1  1  0  0  0
 21 19  1  6  0  0  0
 21 30  1  0  0  0  0
 22 24  1  1  0  0  0
 22 20  1  0  0  0  0
 25 23  1  6  0  0  0
 25 22  1  0  0  0  0
 26 21  1  0  0  0  0
 27 25  1  0  0  0  0
 27 31  1  0  0  0  0
 28 23  1  6  0  0  0
 28 30  1  0  0  0  0
 28 24  1  0  0  0  0
 29 26  2  0  0  0  0
 29 32  1  0  0  0  0
 31 20  1  0  0  0  0
 31 34  1  0  0  0  0
 32 28  1  0  0  0  0
 32 30  1  0  0  0  0
 34 33  1  0  0  0  0
 35 36  1  0  0  0  0
 36 39  1  0  0  0  0
 37 41  1  0  0  0  0
 38 40  1  0  0  0  0
 39 38  1  0  0  0  0
 39 37  1  0  0  0  0
 40 41  1  0  0  0  0
 42 43  2  0  0  0  0
 44 45  1  0  0  0  0
 46 49  1  0  0  0  0
 47 45  1  0  0  0  0
 49 47  1  0  0  0  0
 50 46  1  0  0  0  0
 50 51  1  0  0  0  0
 51 48  1  0  0  0  0
 51 47  1  0  0  0  0
M  END
>  <MODEL>
7

>  <REMARK>
 VINA RESULT:      -6.7      2.517      5.060
  Name = 
  10 active torsions:
  status: ('A' for Active; 'I' for Inactive)
    1  A    between atoms: C_2  and  O_10
    2  A    between atoms: C_3  and  C_20
    3  A    between atoms: C_9  and  C_23
    4  A    between atoms: O_10  and  C_19
    5  A    between atoms: C_14  and  C_48
    6  A    between atoms: S_18  and  C_20
    7  A    between atoms: C_19  and  C_29
    8  A    between atoms: C_20  and  C_38
    9  A    between atoms: N_22  and  C_28
   10  A    between atoms: C_23  and  C_28
                            x       y       z     vdW  Elec       q    Type
                         _______ _______ _______ _____ _____    ______ ____

>  <TORSDO>
F 10

$$$$
=
 OpenBabel11062418583D

 51 58  0  0  1  0  0  0  0  0999 V2000
  191.9280  174.5620  141.4690 C   0  0  0  0  0  2  0  0  0  0  0  0
  188.6120  176.6390  146.5600 C   0  0  2  0  0  3  0  0  0  0  0  0
  189.8410  173.1030  144.9710 O   0  0  0  0  0  0  0  0  0  0  0  0
  188.9660  177.4110  145.2730 C   0  0  2  0  0  3  0  0  0  0  0  0
  188.8070  176.5400  144.0110 C   0  0  0  0  0  2  0  0  0  0  0  0
  191.8150  172.1790  142.4550 C   0  0  0  0  0  2  0  0  0  0  0  0
  189.0770  176.6050  141.6350 O   0  0  0  0  0  1  0  0  0  0  0  0
  191.7290  174.1920  143.9780 C   0  0  1  0  0  3  0  0  0  0  0  0
  191.1280  174.8810  142.7330 C   0  0  1  0  0  3  0  0  0  0  0  0
  191.0910  176.3970  142.9300 C   0  0  0  0  0  2  0  0  0  0  0  0
  190.2590  177.9320  145.3840 O   0  0  0  0  0  1  0  0  0  0  0  0
  192.0470  173.0500  141.2090 C   0  0  1  0  0  3  0  0  0  0  0  0
  190.5360  175.0850  145.9930 N   0  0  0  0  0  2  0  0  0  0  0  0
  190.6780  174.0450  145.0290 C   0  0  0  0  0  0  0  0  0  0  0  0
  192.4120  172.8480  143.6850 C   0  0  0  0  0  2  0  0  0  0  0  0
  188.9420  174.4630  147.6130 N   0  0  0  0  0  2  0  0  0  0  0  0
  189.6760  176.9800  142.8360 C   0  0  2  0  0  3  0  0  0  0  0  0
  189.3150  175.3070  146.7000 C   0  0  0  0  0  0  0  0  0  0  0  0
  191.1950  172.6090  140.0210 C   0  0  1  0  0  3  0  0  0  0  0  0
  192.0550  174.9200  134.5940 C   0  0  1  0  0  3  0  0  0  0  0  0
  191.8590  171.4240  139.3010 C   0  0  1  0  0  3  0  0  0  0  0  0
  191.9520  173.5870  135.2440 C   0  0  1  0  0  3  0  0  0  0  0  0
  190.7800  172.6720  136.8870 O   0  0  0  0  0  0  0  0  0  0  0  0
  192.9690  173.0320  135.9980 O   0  0  0  0  0  0  0  0  0  0  0  0
  190.9380  173.8810  136.2390 C   0  0  2  0  0  3  0  0  0  0  0  0
  190.9450  170.3300  138.7880 C   0  0  0  0  0  3  0  0  0  0  0  0
  189.8620  174.4030  135.5300 O   0  0  0  0  0  0  0  0  0  0  0  0
  192.1470  172.2910  136.8840 C   0  0  1  0  0  0  0  0  0  0  0  0
  191.3090  170.0440  137.4040 N   0  0  0  0  0  0  0  0  0  0  0  0
  192.7920  171.8340  138.1840 C   0  0  2  0  0  3  0  0  0  0  0  0
  190.5310  175.2450  134.5930 C   0  0  1  0  0  3  0  0  0  0  0  0
  192.4980  170.8270  137.0630 C   0  0  2  0  0  3  0  0  0  0  0  0
  188.8270  176.8910  134.8820 O   0  0  0  0  0  1  0  0  0  0  0  0
  190.2070  176.7090  134.8530 C   0  0  0  0  0  2  0  0  0  0  0  0
  192.7800  175.8160  135.3960 O   0  0  0  0  0  0  0  0  0  0  0  0
  193.8760  176.2080  134.6240 C   0  0  0  0  0  2  0  0  0  0  0  0
  196.1830  177.0890  134.6650 C   0  0  0  0  0  2  0  0  0  0  0  0
  195.4590  175.6580  136.3840 N   0  0  0  0  0  2  0  0  0  0  0  0
  194.9990  176.7160  135.5140 C   0  0  2  0  0  3  0  0  0  0  0  0
  196.8880  175.5820  136.1270 C   0  0  0  0  0  2  0  0  0  0  0  0
  197.1600  176.1090  134.8550 O   0  0  0  0  0  0  0  0  0  0  0  0
  188.8050  173.6960  140.0870 O   0  0  0  0  0  0  0  0  0  0  0  0
  189.4460  172.3670  140.4660 S   0  0  0  0  0  3  0  0  0  0  0  0
  187.0990  176.5610  146.8030 C   0  0  0  0  0  2  0  0  0  0  0  0
  186.3880  177.8700  146.4980 C   0  0  0  0  0  2  0  0  0  0  0  0
  184.7050  177.9230  143.5800 C   0  0  0  0  0  2  0  0  0  0  0  0
  185.2090  177.6120  145.6940 N   0  0  0  0  0  0  0  0  0  0  0  0
  183.3140  178.7590  146.3730 F   0  0  0  0  0  0  0  0  0  0  0  0
  185.6450  177.3370  144.4370 O   0  0  0  0  0  0  0  0  0  0  0  0
  184.1230  179.0730  144.2360 N   0  0  0  0  0  2  0  0  0  0  0  0
  184.4670  178.8580  145.6170 C   0  0  2  0  0  3  0  0  0  0  0  0
  2 18  1  0  0  0  0
  2 44  1  6  0  0  0
  3 14  2  0  0  0  0
  4 11  1  1  0  0  0
  4  2  1  0  0  0  0
  5  4  1  0  0  0  0
  6 15  1  0  0  0  0
  8 15  1  6  0  0  0
  8 14  1  0  0  0  0
  9  1  1  6  0  0  0
  9 10  1  0  0  0  0
  9  8  1  0  0  0  0
 12 19  1  6  0  0  0
 12  1  1  0  0  0  0
 12  6  1  0  0  0  0
 13 18  1  0  0  0  0
 14 13  1  0  0  0  0
 17  7  1  6  0  0  0
 17 10  1  0  0  0  0
 17  5  1  0  0  0  0
 18 16  2  0  0  0  0
 19 43  1  1  0  0  0
 20 22  1  0  0  0  0
 20 35  1  1  0  0  0
 21 19  1  6  0  0  0
 22 24  1  1  0  0  0
 22 25  1  0  0  0  0
 25 27  1  6  0  0  0
 25 23  1  0  0  0  0
 26 21  1  0  0  0  0
 28 24  1  6  0  0  0
 28 23  1  0  0  0  0
 28 32  1  0  0  0  0
 28 30  1  0  0  0  0
 29 26  2  0  0  0  0
 30 21  1  0  0  0  0
 31 20  1  0  0  0  0
 31 34  1  0  0  0  0
 31 27  1  0  0  0  0
 32 29  1  0  0  0  0
 32 30  1  0  0  0  0
 34 33  1  0  0  0  0
 36 35  1  0  0  0  0
 36 39  1  0  0  0  0
 37 41  1  0  0  0  0
 37 39  1  0  0  0  0
 39 38  1  0  0  0  0
 40 38  1  0  0  0  0
 41 40  1  0  0  0  0
 42 43  2  0  0  0  0
 45 44  1  0  0  0  0
 46 50  1  0  0  0  0
 46 49  1  0  0  0  0
 47 45  1  0  0  0  0
 49 47  1  0  0  0  0
 50 51  1  0  0  0  0
 51 47  1  0  0  0  0
 51 48  1  0  0  0  0
M  END
>  <MODEL>
8

>  <REMARK>
 VINA RESULT:      -6.6      3.544      5.603
  Name = 
  10 active torsions:
  status: ('A' for Active; 'I' for Inactive)
    1  A    between atoms: C_2  and  O_10
    2  A    between atoms: C_3  and  C_20
    3  A    between atoms: C_9  and  C_23
    4  A    between atoms: O_10  and  C_19
    5  A    between atoms: C_14  and  C_48
    6  A    between atoms: S_18  and  C_20
    7  A    between atoms: C_19  and  C_29
    8  A    between atoms: C_20  and  C_38
    9  A    between atoms: N_22  and  C_28
   10  A    between atoms: C_23  and  C_28
                            x       y       z     vdW  Elec       q    Type
                         _______ _______ _______ _____ _____    ______ ____

>  <TORSDO>
F 10

$$$$
=
 OpenBabel11062418583D

 51 58  0  0  1  0  0  0  0  0999 V2000
  191.2310  173.2940  143.9480 C   0  0  0  0  0  2  0  0  0  0  0  0
  189.8310  170.9340  138.1430 C   0  0  2  0  0  3  0  0  0  0  0  0
  192.6910  170.4810  140.9970 O   0  0  0  0  0  0  0  0  0  0  0  0
  189.2740  172.2060  138.8150 C   0  0  2  0  0  3  0  0  0  0  0  0
  190.3690  172.9980  139.5560 C   0  0  0  0  0  2  0  0  0  0  0  0
  193.1440  171.5690  144.1110 C   0  0  0  0  0  2  0  0  0  0  0  0
  190.6940  174.9510  140.8990 O   0  0  0  0  0  1  0  0  0  0  0  0
  191.1110  171.0850  142.6930 C   0  0  1  0  0  3  0  0  0  0  0  0
  191.0430  172.6240  142.5860 C   0  0  1  0  0  3  0  0  0  0  0  0
  189.7010  173.0580  141.9970 C   0  0  0  0  0  2  0  0  0  0  0  0
  188.2200  171.8580  139.6660 O   0  0  0  0  0  1  0  0  0  0  0  0
  192.5470  172.8860  144.6330 C   0  0  1  0  0  3  0  0  0  0  0  0
  190.4410  170.1360  140.4720 N   0  0  0  0  0  2  0  0  0  0  0  0
  191.4860  170.5030  141.3690 C   0  0  0  0  0  0  0  0  0  0  0  0
  192.0350  170.5710  143.8070 C   0  0  0  0  0  2  0  0  0  0  0  0
  191.3520  169.0770  138.5750 N   0  0  0  0  0  2  0  0  0  0  0  0
  189.8460  173.8620  140.7000 C   0  0  2  0  0  3  0  0  0  0  0  0
  190.6440  170.0500  139.0610 C   0  0  0  0  0  0  0  0  0  0  0  0
  193.5620  174.0270  144.6380 C   0  0  1  0  0  3  0  0  0  0  0  0
  188.7500  177.5440  144.5470 C   0  0  1  0  0  3  0  0  0  0  0  0
  193.6390  174.6640  146.0340 C   0  0  1  0  0  3  0  0  0  0  0  0
  190.0390  177.4220  145.2780 C   0  0  1  0  0  3  0  0  0  0  0  0
  192.1220  176.8370  144.8010 O   0  0  0  0  0  0  0  0  0  0  0  0
  190.2650  176.4780  146.2610 O   0  0  0  0  0  0  0  0  0  0  0  0
  190.8890  176.9670  144.1940 C   0  0  2  0  0  3  0  0  0  0  0  0
  194.5960  175.8260  146.2100 C   0  0  0  0  0  3  0  0  0  0  0  0
  190.7390  177.9100  143.1840 O   0  0  0  0  0  0  0  0  0  0  0  0
  191.6550  176.3190  146.0370 C   0  0  1  0  0  0  0  0  0  0  0  0
  193.8820  176.9040  146.8870 N   0  0  0  0  0  0  0  0  0  0  0  0
  192.2940  175.0590  146.6010 C   0  0  2  0  0  3  0  0  0  0  0  0
  189.3350  178.1530  143.2370 C   0  0  1  0  0  3  0  0  0  0  0  0
  192.5500  176.4230  147.2570 C   0  0  2  0  0  3  0  0  0  0  0  0
  187.4870  178.3950  141.7460 O   0  0  0  0  0  1  0  0  0  0  0  0
  188.6530  177.6670  141.9670 C   0  0  0  0  0  2  0  0  0  0  0  0
  188.1760  176.2810  144.3250 O   0  0  0  0  0  0  0  0  0  0  0  0
  186.7980  176.4670  144.4610 C   0  0  0  0  0  2  0  0  0  0  0  0
  185.7630  177.0620  146.6240 C   0  0  0  0  0  2  0  0  0  0  0  0
  185.6240  178.5640  144.8210 N   0  0  0  0  0  2  0  0  0  0  0  0
  186.5080  177.5990  145.4330 C   0  0  2  0  0  3  0  0  0  0  0  0
  184.5080  178.6640  145.7480 C   0  0  0  0  0  2  0  0  0  0  0  0
  184.4390  177.4930  146.5170 O   0  0  0  0  0  0  0  0  0  0  0  0
  195.5870  174.7910  143.1500 O   0  0  0  0  0  0  0  0  0  0  0  0
  195.1620  173.5430  143.9150 S   0  0  0  0  0  3  0  0  0  0  0  0
  190.5240  171.2310  136.8060 C   0  0  0  0  0  2  0  0  0  0  0  0
  189.7090  172.1570  135.9170 C   0  0  0  0  0  2  0  0  0  0  0  0
  192.4950  174.0520  135.9260 C   0  0  0  0  0  2  0  0  0  0  0  0
  190.5740  173.1670  135.3370 N   0  0  0  0  0  0  0  0  0  0  0  0
  189.6050  175.2610  135.1350 F   0  0  0  0  0  0  0  0  0  0  0  0
  191.8460  172.8360  135.6800 O   0  0  0  0  0  0  0  0  0  0  0  0
  191.5230  175.0170  136.3930 N   0  0  0  0  0  2  0  0  0  0  0  0
  190.2720  174.4190  136.0060 C   0  0  2  0  0  3  0  0  0  0  0  0
  1 12  1  0  0  0  0
  2 44  1  6  0  0  0
  2  4  1  0  0  0  0
  2 18  1  0  0  0  0
  3 14  2  0  0  0  0
  4  5  1  0  0  0  0
  4 11  1  1  0  0  0
  5 17  1  0  0  0  0
  6 12  1  0  0  0  0
  8 15  1  1  0  0  0
  9 10  1  1  0  0  0
  9  8  1  0  0  0  0
  9  1  1  0  0  0  0
 12 19  1  6  0  0  0
 13 14  1  0  0  0  0
 14  8  1  0  0  0  0
 15  6  1  0  0  0  0
 16 18  2  0  0  0  0
 17  7  1  1  0  0  0
 17 10  1  0  0  0  0
 18 13  1  0  0  0  0
 19 43  1  1  0  0  0
 20 35  1  6  0  0  0
 20 22  1  0  0  0  0
 21 19  1  6  0  0  0
 21 26  1  0  0  0  0
 21 30  1  0  0  0  0
 22 24  1  1  0  0  0
 25 27  1  6  0  0  0
 25 23  1  0  0  0  0
 25 22  1  0  0  0  0
 26 29  2  0  0  0  0
 27 31  1  0  0  0  0
 28 23  1  6  0  0  0
 28 24  1  0  0  0  0
 28 30  1  0  0  0  0
 28 32  1  0  0  0  0
 29 32  1  0  0  0  0
 30 32  1  0  0  0  0
 31 20  1  0  0  0  0
 33 34  1  0  0  0  0
 34 31  1  0  0  0  0
 35 36  1  0  0  0  0
 36 39  1  0  0  0  0
 38 39  1  0  0  0  0
 38 40  1  0  0  0  0
 39 37  1  0  0  0  0
 40 41  1  0  0  0  0
 41 37  1  0  0  0  0
 42 43  2  0  0  0  0
 45 44  1  0  0  0  0
 46 50  1  0  0  0  0
 47 49  1  0  0  0  0
 47 45  1  0  0  0  0
 47 51  1  0  0  0  0
 48 51  1  0  0  0  0
 49 46  1  0  0  0  0
 51 50  1  0  0  0  0
M  END
>  <MODEL>
9

>  <REMARK>
 VINA RESULT:      -6.5      3.432      7.998
  Name = 
  10 active torsions:
  status: ('A' for Active; 'I' for Inactive)
    1  A    between atoms: C_2  and  O_10
    2  A    between atoms: C_3  and  C_20
    3  A    between atoms: C_9  and  C_23
    4  A    between atoms: O_10  and  C_19
    5  A    between atoms: C_14  and  C_48
    6  A    between atoms: S_18  and  C_20
    7  A    between atoms: C_19  and  C_29
    8  A    between atoms: C_20  and  C_38
    9  A    between atoms: N_22  and  C_28
   10  A    between atoms: C_23  and  C_28
                            x       y       z     vdW  Elec       q    Type
                         _______ _______ _______ _____ _____    ______ ____

>  <TORSDO>
F 10

$$$$
