=
 OpenBabel11062419203D

 50 55  0  0  1  0  0  0  0  0999 V2000
  190.5190  176.8820  147.5620 C   0  0  0  0  0  2  0  0  0  0  0  0
  189.2710  173.4600  146.7150 F   0  0  0  0  0  0  0  0  0  0  0  0
  190.9370  174.4790  145.3800 C   0  0  0  0  0  3  0  0  0  0  0  0
  190.2270  174.4600  146.7040 C   0  0  1  0  0  3  0  0  0  0  0  0
  191.8300  175.3930  144.9480 C   0  0  0  0  0  0  0  0  0  0  0  0
  189.6300  175.7960  147.0450 C   0  0  0  0  0  0  0  0  0  0  0  0
  191.9840  176.6170  147.2330 C   0  0  0  0  0  2  0  0  0  0  0  0
  192.1980  176.6500  145.7190 C   0  0  0  0  0  2  0  0  0  0  0  0
  187.2150  176.4500  146.2890 C   0  0  0  0  0  3  0  0  0  0  0  0
  188.4210  176.1110  146.6570 C   0  0  0  0  0  0  0  0  0  0  0  0
  195.7080  174.3520  142.1980 C   0  0  2  0  0  0  0  0  0  0  0  0
  194.4400  175.1820  142.0820 C   0  0  1  0  0  0  0  0  0  0  0  0
  193.7840  175.8310  143.3120 C   0  0  0  0  0  2  0  0  0  0  0  0
  192.2990  174.4910  141.2450 C   0  0  0  0  0  3  0  0  0  0  0  0
  195.7380  175.7860  141.5910 C   0  0  1  0  0  0  0  0  0  0  0  0
  196.3000  176.6960  142.4960 O   0  0  0  0  0  1  0  0  0  0  0  0
  193.5460  174.7620  141.0080 N   0  0  0  0  0  0  0  0  0  0  0  0
  192.4190  175.2390  143.5910 C   0  0  0  0  0  0  0  0  0  0  0  0
  191.7290  174.6530  142.5970 C   0  0  0  0  0  3  0  0  0  0  0  0
  196.7450  174.7440  141.1570 C   0  0  0  0  0  2  0  0  0  0  0  0
  197.6390  174.0040  143.6590 O   0  0  0  0  0  1  0  0  0  0  0  0
  196.2590  174.2480  143.6470 C   0  0  2  0  0  3  0  0  0  0  0  0
  195.5340  173.1440  144.4350 C   0  0  1  0  0  3  0  0  0  0  0  0
  195.9830  171.2280  142.9220 C   0  0  0  0  0  3  0  0  0  0  0  0
  193.6200  171.6240  143.6140 C   0  0  0  0  0  2  0  0  0  0  0  0
  192.1470  169.8140  143.1040 O   0  0  0  0  0  0  0  0  0  0  0  0
  195.0910  171.9660  143.6060 C   0  0  0  0  0  0  0  0  0  0  0  0
  195.5850  170.0370  142.1570 C   0  0  0  0  0  3  0  0  0  0  0  0
  194.3230  169.5830  142.1780 C   0  0  0  0  0  0  0  0  0  0  0  0
  193.3050  170.2980  142.9740 C   0  0  0  0  0  0  0  0  0  0  0  0
  193.9480  168.4360  141.4680 O   0  0  0  0  0  0  0  0  0  0  0  0
  194.1390  168.2970  140.0640 C   0  0  0  0  0  1  0  0  0  0  0  0
  196.2730  171.4750  146.0000 O   0  0  0  0  0  0  0  0  0  0  0  0
  196.2810  172.6880  145.6530 C   0  0  0  0  0  0  0  0  0  0  0  0
  196.9970  173.6140  146.4000 O   0  0  0  0  0  1  0  0  0  0  0  0
  185.9730  178.2590  145.0430 C   0  0  0  0  0  0  0  0  0  0  0  0
  186.9560  177.3470  145.1510 C   0  0  0  0  0  3  0  0  0  0  0  0
  185.6920  179.4570  147.2110 O   0  0  0  0  0  1  0  0  0  0  0  0
  183.9110  178.4340  146.2020 O   0  0  0  0  0  0  0  0  0  0  0  0
  185.1450  178.6910  146.1870 C   0  0  0  0  0  0  0  0  0  0  0  0
  185.1310  180.2050  143.9310 O   0  0  0  0  0  1  0  0  0  0  0  0
  185.7920  178.9860  143.7430 C   0  0  2  0  0  3  0  0  0  0  0  0
  185.5190  178.4820  141.3120 C   0  0  2  0  0  3  0  0  0  0  0  0
  184.2680  178.3800  140.4960 C   0  0  0  0  0  2  0  0  0  0  0  0
  183.6830  178.2750  142.7940 O   0  0  0  0  0  0  0  0  0  0  0  0
  186.4530  177.5520  140.8590 O   0  0  0  0  0  1  0  0  0  0  0  0
  183.1990  178.0100  141.5030 C   0  0  1  0  0  3  0  0  0  0  0  0
  185.0750  178.1200  142.7080 C   0  0  2  0  0  3  0  0  0  0  0  0
  180.8100  178.0300  141.5130 O   0  0  0  0  0  1  0  0  0  0  0  0
  181.9330  178.8160  141.2580 C   0  0  0  0  0  2  0  0  0  0  0  0
  3  4  1  0  0  0  0
  4  2  1  6  0  0  0
  4  6  1  0  0  0  0
  5  3  2  0  0  0  0
  5  8  1  0  0  0  0
  6  1  1  0  0  0  0
  7  1  1  0  0  0  0
  8  7  1  0  0  0  0
  9 10  2  0  0  0  0
 10  6  2  0  0  0  0
 11 22  1  1  0  0  0
 12 11  1  0  0  0  0
 12 13  1  1  0  0  0
 13 18  1  0  0  0  0
 14 19  1  0  0  0  0
 15 12  1  0  0  0  0
 15 11  1  0  0  0  0
 15 16  1  1  0  0  0
 17 14  2  0  0  0  0
 17 12  1  0  0  0  0
 18  5  1  0  0  0  0
 19 18  2  0  0  0  0
 20 15  1  0  0  0  0
 20 11  1  0  0  0  0
 22 21  1  6  0  0  0
 22 23  1  0  0  0  0
 23 34  1  1  0  0  0
 24 27  2  0  0  0  0
 27 25  1  0  0  0  0
 27 23  1  0  0  0  0
 28 29  2  0  0  0  0
 28 24  1  0  0  0  0
 29 30  1  0  0  0  0
 30 26  2  0  0  0  0
 30 25  1  0  0  0  0
 31 29  1  0  0  0  0
 32 31  1  0  0  0  0
 34 33  2  0  0  0  0
 34 35  1  0  0  0  0
 36 37  2  0  0  0  0
 36 40  1  0  0  0  0
 37  9  1  0  0  0  0
 40 39  2  0  0  0  0
 40 38  1  0  0  0  0
 42 41  1  1  0  0  0
 42 36  1  0  0  0  0
 43 46  1  6  0  0  0
 43 48  1  0  0  0  0
 44 43  1  0  0  0  0
 44 47  1  0  0  0  0
 47 50  1  6  0  0  0
 47 45  1  0  0  0  0
 48 45  1  0  0  0  0
 48 42  1  1  0  0  0
 50 49  1  0  0  0  0
M  END
>  <MODEL>
1

>  <REMARK>
 VINA RESULT:      -8.3      0.000      0.000
  Name = 
  11 active torsions:
  status: ('A' for Active; 'I' for Inactive)
    1  A    between atoms: C_5  and  C_30
    2  A    between atoms: C_6  and  C_23
    3  A    between atoms: C_13  and  C_42
    4  A    between atoms: C_15  and  C_20
    5  A    between atoms: C_15  and  C_46
    6  A    between atoms: C_20  and  C_33
    7  A    between atoms: C_22  and  C_44
    8  A    between atoms: C_23  and  C_30
    9  A    between atoms: C_23  and  C_36
   10  A    between atoms: O_35  and  C_40
   11  A    between atoms: C_41  and  C_50
                            x       y       z     vdW  Elec       q    Type
                         _______ _______ _______ _____ _____    ______ ____

>  <TORSDO>
F 11

$$$$
=
 OpenBabel11062419203D

 50 55  0  0  1  0  0  0  0  0999 V2000
  191.5810  176.2930  144.9500 C   0  0  0  0  0  2  0  0  0  0  0  0
  189.2580  173.6070  146.1180 F   0  0  0  0  0  0  0  0  0  0  0  0
  189.8680  173.7370  143.8360 C   0  0  0  0  0  3  0  0  0  0  0  0
  190.1990  174.1290  145.2490 C   0  0  1  0  0  3  0  0  0  0  0  0
  190.4720  174.1680  142.7100 C   0  0  0  0  0  0  0  0  0  0  0  0
  190.3280  175.6180  145.4080 C   0  0  0  0  0  0  0  0  0  0  0  0
  192.3620  175.4300  143.9660 C   0  0  0  0  0  2  0  0  0  0  0  0
  191.5550  175.2350  142.6820 C   0  0  0  0  0  2  0  0  0  0  0  0
  188.2650  177.1200  145.9700 C   0  0  0  0  0  3  0  0  0  0  0  0
  189.2870  176.3560  145.6860 C   0  0  0  0  0  0  0  0  0  0  0  0
  191.3000  171.5000  138.7240 C   0  0  2  0  0  0  0  0  0  0  0  0
  190.4730  172.7170  139.1100 C   0  0  1  0  0  0  0  0  0  0  0  0
  190.9280  173.6880  140.2100 C   0  0  0  0  0  2  0  0  0  0  0  0
  188.2190  172.7620  139.9350 C   0  0  0  0  0  3  0  0  0  0  0  0
  191.2290  172.7520  137.7990 C   0  0  1  0  0  0  0  0  0  0  0  0
  192.4190  173.4880  137.8680 O   0  0  0  0  0  1  0  0  0  0  0  0
  189.0330  172.5360  138.9500 N   0  0  0  0  0  0  0  0  0  0  0  0
  189.9890  173.6650  141.3960 C   0  0  0  0  0  0  0  0  0  0  0  0
  188.7160  173.2650  141.2310 C   0  0  0  0  0  3  0  0  0  0  0  0
  191.4630  171.3750  137.2180 C   0  0  0  0  0  2  0  0  0  0  0  0
  193.7050  171.0530  138.6940 O   0  0  0  0  0  1  0  0  0  0  0  0
  192.6220  171.3610  139.5280 C   0  0  2  0  0  3  0  0  0  0  0  0
  192.4920  170.2860  140.6210 C   0  0  1  0  0  3  0  0  0  0  0  0
  193.4960  171.8940  142.2240 C   0  0  0  0  0  3  0  0  0  0  0  0
  193.4470  169.4890  142.8790 C   0  0  0  0  0  2  0  0  0  0  0  0
  193.9500  169.1030  145.1820 O   0  0  0  0  0  0  0  0  0  0  0  0
  193.1780  170.6240  141.9200 C   0  0  0  0  0  0  0  0  0  0  0  0
  194.1080  172.2570  143.5110 C   0  0  0  0  0  3  0  0  0  0  0  0
  194.2970  171.3450  144.4760 C   0  0  0  0  0  0  0  0  0  0  0  0
  193.8960  169.9430  144.2420 C   0  0  0  0  0  0  0  0  0  0  0  0
  194.8580  171.6940  145.7100 O   0  0  0  0  0  0  0  0  0  0  0  0
  196.1670  172.2380  145.8400 C   0  0  0  0  0  1  0  0  0  0  0  0
  190.3860  170.3720  141.7750 O   0  0  0  0  0  1  0  0  0  0  0  0
  191.0790  169.8460  140.8620 C   0  0  0  0  0  0  0  0  0  0  0  0
  190.5270  168.8560  140.0610 O   0  0  0  0  0  0  0  0  0  0  0  0
  186.3140  178.3930  145.0010 C   0  0  0  0  0  0  0  0  0  0  0  0
  187.5790  177.9360  144.9570 C   0  0  0  0  0  3  0  0  0  0  0  0
  185.7110  179.2760  147.2520 O   0  0  0  0  0  1  0  0  0  0  0  0
  184.5230  177.5600  146.3150 O   0  0  0  0  0  0  0  0  0  0  0  0
  185.4900  178.3650  146.2260 C   0  0  0  0  0  0  0  0  0  0  0  0
  184.8120  180.0650  144.1780 O   0  0  0  0  0  1  0  0  0  0  0  0
  185.7500  179.0980  143.8030 C   0  0  2  0  0  3  0  0  0  0  0  0
  185.7890  178.2990  141.4360 C   0  0  2  0  0  3  0  0  0  0  0  0
  184.6540  178.1000  140.4800 C   0  0  0  0  0  2  0  0  0  0  0  0
  183.7710  178.2800  142.6760 O   0  0  0  0  0  0  0  0  0  0  0  0
  186.7560  177.3180  141.2280 O   0  0  0  0  0  1  0  0  0  0  0  0
  183.4550  177.8600  141.3750 C   0  0  1  0  0  3  0  0  0  0  0  0
  185.1600  178.1120  142.7950 C   0  0  2  0  0  3  0  0  0  0  0  0
  181.3490  178.8520  141.9120 O   0  0  0  0  0  1  0  0  0  0  0  0
  182.2480  178.6320  140.8680 C   0  0  0  0  0  2  0  0  0  0  0  0
  1  6  1  0  0  0  0
  3  4  1  0  0  0  0
  4  6  1  0  0  0  0
  4  2  1  1  0  0  0
  5  3  2  0  0  0  0
  6 10  2  0  0  0  0
  7  1  1  0  0  0  0
  8  5  1  0  0  0  0
  8  7  1  0  0  0  0
 10  9  2  0  0  0  0
 11 12  1  0  0  0  0
 11 22  1  1  0  0  0
 12 13  1  1  0  0  0
 13 18  1  0  0  0  0
 14 19  1  0  0  0  0
 15 16  1  1  0  0  0
 15 11  1  0  0  0  0
 15 12  1  0  0  0  0
 17 12  1  0  0  0  0
 17 14  2  0  0  0  0
 18  5  1  0  0  0  0
 19 18  2  0  0  0  0
 20 15  1  0  0  0  0
 20 11  1  0  0  0  0
 22 21  1  6  0  0  0
 22 23  1  0  0  0  0
 23 34  1  1  0  0  0
 23 27  1  0  0  0  0
 24 28  1  0  0  0  0
 25 30  1  0  0  0  0
 27 24  2  0  0  0  0
 27 25  1  0  0  0  0
 28 29  2  0  0  0  0
 29 31  1  0  0  0  0
 30 29  1  0  0  0  0
 30 26  2  0  0  0  0
 31 32  1  0  0  0  0
 34 33  1  0  0  0  0
 35 34  2  0  0  0  0
 36 40  1  0  0  0  0
 37 36  2  0  0  0  0
 37  9  1  0  0  0  0
 40 39  2  0  0  0  0
 40 38  1  0  0  0  0
 42 41  1  1  0  0  0
 42 36  1  0  0  0  0
 43 46  1  6  0  0  0
 43 48  1  0  0  0  0
 44 47  1  0  0  0  0
 44 43  1  0  0  0  0
 45 48  1  0  0  0  0
 47 50  1  6  0  0  0
 47 45  1  0  0  0  0
 48 42  1  1  0  0  0
 50 49  1  0  0  0  0
M  END
>  <MODEL>
2

>  <REMARK>
 VINA RESULT:      -8.3      2.360      4.099
  Name = 
  11 active torsions:
  status: ('A' for Active; 'I' for Inactive)
    1  A    between atoms: C_5  and  C_30
    2  A    between atoms: C_6  and  C_23
    3  A    between atoms: C_13  and  C_42
    4  A    between atoms: C_15  and  C_20
    5  A    between atoms: C_15  and  C_46
    6  A    between atoms: C_20  and  C_33
    7  A    between atoms: C_22  and  C_44
    8  A    between atoms: C_23  and  C_30
    9  A    between atoms: C_23  and  C_36
   10  A    between atoms: O_35  and  C_40
   11  A    between atoms: C_41  and  C_50
                            x       y       z     vdW  Elec       q    Type
                         _______ _______ _______ _____ _____    ______ ____

>  <TORSDO>
F 11

$$$$
=
 OpenBabel11062419203D

 50 55  0  0  1  0  0  0  0  0999 V2000
  193.7230  176.6320  144.4760 C   0  0  0  0  0  2  0  0  0  0  0  0
  193.2220  173.3120  146.1210 F   0  0  0  0  0  0  0  0  0  0  0  0
  192.2440  173.7500  144.0120 C   0  0  0  0  0  3  0  0  0  0  0  0
  193.2930  174.1400  145.0150 C   0  0  1  0  0  3  0  0  0  0  0  0
  191.9170  174.4050  142.8790 C   0  0  0  0  0  0  0  0  0  0  0  0
  193.1920  175.5880  145.4050 C   0  0  0  0  0  0  0  0  0  0  0  0
  193.8770  176.0990  143.0560 C   0  0  0  0  0  2  0  0  0  0  0  0
  192.5080  175.7460  142.4740 C   0  0  0  0  0  2  0  0  0  0  0  0
  191.6750  176.3710  147.3840 C   0  0  0  0  0  3  0  0  0  0  0  0
  192.4270  175.9650  146.3950 C   0  0  0  0  0  0  0  0  0  0  0  0
  190.5690  171.3150  139.3690 C   0  0  2  0  0  0  0  0  0  0  0  0
  190.1150  172.6580  139.9180 C   0  0  1  0  0  0  0  0  0  0  0  0
  191.1070  173.6530  140.5420 C   0  0  0  0  0  2  0  0  0  0  0  0
  188.5260  173.0710  141.6690 C   0  0  0  0  0  3  0  0  0  0  0  0
  190.1660  172.4790  138.4160 C   0  0  1  0  0  0  0  0  0  0  0  0
  191.3000  173.0560  137.8300 O   0  0  0  0  0  1  0  0  0  0  0  0
  188.7610  172.6550  140.4620 N   0  0  0  0  0  0  0  0  0  0  0  0
  190.8360  173.8580  142.0160 C   0  0  0  0  0  0  0  0  0  0  0  0
  189.6090  173.6150  142.5100 C   0  0  0  0  0  3  0  0  0  0  0  0
  189.9950  171.0380  137.9890 C   0  0  0  0  0  2  0  0  0  0  0  0
  192.6270  170.5070  138.3210 O   0  0  0  0  0  1  0  0  0  0  0  0
  192.1000  171.0740  139.4890 C   0  0  2  0  0  3  0  0  0  0  0  0
  192.4230  170.1700  140.6920 C   0  0  1  0  0  3  0  0  0  0  0  0
  193.6770  170.1360  142.8330 C   0  0  0  0  0  3  0  0  0  0  0  0
  194.1250  172.0200  141.2610 C   0  0  0  0  0  2  0  0  0  0  0  0
  196.0620  173.3030  141.8170 O   0  0  0  0  0  0  0  0  0  0  0  0
  193.4130  170.7520  141.6670 C   0  0  0  0  0  0  0  0  0  0  0  0
  194.6850  170.6500  143.7730 C   0  0  0  0  0  3  0  0  0  0  0  0
  195.4480  171.7100  143.4690 C   0  0  0  0  0  0  0  0  0  0  0  0
  195.2690  172.3870  142.1690 C   0  0  0  0  0  0  0  0  0  0  0  0
  196.4230  172.1850  144.3540 O   0  0  0  0  0  0  0  0  0  0  0  0
  196.3480  171.9980  145.7640 C   0  0  0  0  0  1  0  0  0  0  0  0
  190.6810  168.5610  141.0840 O   0  0  0  0  0  0  0  0  0  0  0  0
  191.2040  169.6640  141.4040 C   0  0  0  0  0  0  0  0  0  0  0  0
  190.6550  170.4140  142.4350 O   0  0  0  0  0  1  0  0  0  0  0  0
  189.2150  176.3940  146.8230 C   0  0  0  0  0  0  0  0  0  0  0  0
  190.3620  177.0020  147.1750 C   0  0  0  0  0  3  0  0  0  0  0  0
  189.4000  174.1480  145.7600 O   0  0  0  0  0  0  0  0  0  0  0  0
  188.6280  174.3660  147.9030 O   0  0  0  0  0  1  0  0  0  0  0  0
  189.0380  174.9290  146.8520 C   0  0  0  0  0  0  0  0  0  0  0  0
  187.0570  177.1360  147.5490 O   0  0  0  0  0  1  0  0  0  0  0  0
  188.0070  177.2330  146.5260 C   0  0  2  0  0  3  0  0  0  0  0  0
  188.0230  177.7130  144.0740 C   0  0  2  0  0  3  0  0  0  0  0  0
  186.8800  178.0240  143.1580 C   0  0  0  0  0  2  0  0  0  0  0  0
  186.0120  177.0980  145.1630 O   0  0  0  0  0  0  0  0  0  0  0  0
  188.9770  176.9570  143.3960 O   0  0  0  0  0  1  0  0  0  0  0  0
  185.6840  177.3820  143.8280 C   0  0  1  0  0  3  0  0  0  0  0  0
  187.3980  176.8820  145.1680 C   0  0  2  0  0  3  0  0  0  0  0  0
  184.8660  179.6020  144.1550 O   0  0  0  0  0  1  0  0  0  0  0  0
  184.4840  178.3130  143.7840 C   0  0  0  0  0  2  0  0  0  0  0  0
  1  6  1  0  0  0  0
  3  4  1  0  0  0  0
  4  6  1  0  0  0  0
  4  2  1  1  0  0  0
  5  3  2  0  0  0  0
  6 10  2  0  0  0  0
  7  1  1  0  0  0  0
  8  5  1  0  0  0  0
  8  7  1  0  0  0  0
 10  9  2  0  0  0  0
 11 22  1  1  0  0  0
 11 12  1  0  0  0  0
 12 17  1  0  0  0  0
 12 13  1  1  0  0  0
 13 18  1  0  0  0  0
 14 19  1  0  0  0  0
 15 16  1  6  0  0  0
 15 11  1  0  0  0  0
 15 12  1  0  0  0  0
 17 14  2  0  0  0  0
 18 19  2  0  0  0  0
 18  5  1  0  0  0  0
 20 15  1  0  0  0  0
 20 11  1  0  0  0  0
 22 21  1  6  0  0  0
 22 23  1  0  0  0  0
 23 34  1  1  0  0  0
 23 27  1  0  0  0  0
 24 28  1  0  0  0  0
 25 27  1  0  0  0  0
 25 30  1  0  0  0  0
 26 30  2  0  0  0  0
 27 24  2  0  0  0  0
 29 28  2  0  0  0  0
 29 31  1  0  0  0  0
 30 29  1  0  0  0  0
 31 32  1  0  0  0  0
 33 34  2  0  0  0  0
 34 35  1  0  0  0  0
 36 40  1  0  0  0  0
 36 37  2  0  0  0  0
 37  9  1  0  0  0  0
 38 40  2  0  0  0  0
 40 39  1  0  0  0  0
 42 36  1  0  0  0  0
 42 41  1  1  0  0  0
 43 46  1  6  0  0  0
 43 48  1  0  0  0  0
 44 47  1  0  0  0  0
 44 43  1  0  0  0  0
 45 48  1  0  0  0  0
 47 50  1  1  0  0  0
 47 45  1  0  0  0  0
 48 42  1  1  0  0  0
 50 49  1  0  0  0  0
M  END
>  <MODEL>
3

>  <REMARK>
 VINA RESULT:      -8.2      2.735      5.016
  Name = 
  11 active torsions:
  status: ('A' for Active; 'I' for Inactive)
    1  A    between atoms: C_5  and  C_30
    2  A    between atoms: C_6  and  C_23
    3  A    between atoms: C_13  and  C_42
    4  A    between atoms: C_15  and  C_20
    5  A    between atoms: C_15  and  C_46
    6  A    between atoms: C_20  and  C_33
    7  A    between atoms: C_22  and  C_44
    8  A    between atoms: C_23  and  C_30
    9  A    between atoms: C_23  and  C_36
   10  A    between atoms: O_35  and  C_40
   11  A    between atoms: C_41  and  C_50
                            x       y       z     vdW  Elec       q    Type
                         _______ _______ _______ _____ _____    ______ ____

>  <TORSDO>
F 11

$$$$
=
 OpenBabel11062419203D

 50 55  0  0  1  0  0  0  0  0999 V2000
  190.8910  176.5580  147.7140 C   0  0  0  0  0  2  0  0  0  0  0  0
  189.3290  173.4060  146.4450 F   0  0  0  0  0  0  0  0  0  0  0  0
  191.0920  174.4240  145.2410 C   0  0  0  0  0  3  0  0  0  0  0  0
  190.3760  174.3040  146.5570 C   0  0  1  0  0  3  0  0  0  0  0  0
  192.0710  175.2970  144.9240 C   0  0  0  0  0  0  0  0  0  0  0  0
  189.9060  175.6360  147.0690 C   0  0  0  0  0  0  0  0  0  0  0  0
  192.3260  176.1990  147.3450 C   0  0  0  0  0  2  0  0  0  0  0  0
  192.5520  176.4050  145.8470 C   0  0  0  0  0  2  0  0  0  0  0  0
  187.5690  176.6080  146.4170 C   0  0  0  0  0  3  0  0  0  0  0  0
  188.7360  176.1110  146.7320 C   0  0  0  0  0  0  0  0  0  0  0  0
  195.9700  174.6670  142.0800 C   0  0  2  0  0  0  0  0  0  0  0  0
  194.6510  175.4220  142.0270 C   0  0  1  0  0  0  0  0  0  0  0  0
  193.9720  175.9530  143.2990 C   0  0  0  0  0  2  0  0  0  0  0  0
  192.5470  174.6500  141.1680 C   0  0  0  0  0  3  0  0  0  0  0  0
  195.9030  176.1350  141.5620 C   0  0  1  0  0  0  0  0  0  0  0  0
  196.4200  177.0220  142.5150 O   0  0  0  0  0  1  0  0  0  0  0  0
  193.7710  175.0130  140.9370 N   0  0  0  0  0  0  0  0  0  0  0  0
  192.6510  175.2620  143.5540 C   0  0  0  0  0  0  0  0  0  0  0  0
  191.9860  174.6940  142.5330 C   0  0  0  0  0  3  0  0  0  0  0  0
  196.9670  175.1860  141.0550 C   0  0  0  0  0  2  0  0  0  0  0  0
  197.9320  174.3080  143.4970 O   0  0  0  0  0  1  0  0  0  0  0  0
  196.5450  174.5110  143.5150 C   0  0  2  0  0  3  0  0  0  0  0  0
  195.8650  173.3490  144.2580 C   0  0  1  0  0  3  0  0  0  0  0  0
  194.0640  171.8320  143.4710 C   0  0  0  0  0  3  0  0  0  0  0  0
  196.2740  171.6950  142.3240 C   0  0  0  0  0  2  0  0  0  0  0  0
  196.2320  170.4420  140.2900 O   0  0  0  0  0  0  0  0  0  0  0  0
  195.3360  172.2560  143.3660 C   0  0  0  0  0  0  0  0  0  0  0  0
  193.5060  170.8130  142.5700 C   0  0  0  0  0  3  0  0  0  0  0  0
  194.2190  170.3210  141.5460 C   0  0  0  0  0  0  0  0  0  0  0  0
  195.5970  170.8010  141.3210 C   0  0  0  0  0  0  0  0  0  0  0  0
  193.6800  169.3670  140.6750 O   0  0  0  0  0  0  0  0  0  0  0  0
  192.6320  169.6590  139.7560 C   0  0  0  0  0  1  0  0  0  0  0  0
  197.1630  171.6080  145.2890 O   0  0  0  0  0  0  0  0  0  0  0  0
  196.6970  172.7780  145.3670 C   0  0  0  0  0  0  0  0  0  0  0  0
  196.9680  173.5530  146.4860 O   0  0  0  0  0  1  0  0  0  0  0  0
  186.3630  178.5050  145.2730 C   0  0  0  0  0  0  0  0  0  0  0  0
  187.4030  177.6630  145.4050 C   0  0  0  0  0  3  0  0  0  0  0  0
  184.1070  178.0150  146.2110 O   0  0  0  0  0  0  0  0  0  0  0  0
  185.5730  179.3630  147.3380 O   0  0  0  0  0  1  0  0  0  0  0  0
  185.3270  178.6750  146.3100 C   0  0  0  0  0  0  0  0  0  0  0  0
  185.1840  180.2480  144.1300 O   0  0  0  0  0  1  0  0  0  0  0  0
  186.3160  179.4270  144.0890 C   0  0  2  0  0  3  0  0  0  0  0  0
  185.5280  177.4220  142.8240 C   0  0  2  0  0  3  0  0  0  0  0  0
  186.3230  176.3890  142.0870 C   0  0  0  0  0  2  0  0  0  0  0  0
  187.7150  178.2680  142.4900 O   0  0  0  0  0  0  0  0  0  0  0  0
  184.3310  177.6610  142.1520 O   0  0  0  0  0  1  0  0  0  0  0  0
  187.6040  177.1050  141.7130 C   0  0  1  0  0  3  0  0  0  0  0  0
  186.3960  178.6560  142.7720 C   0  0  2  0  0  3  0  0  0  0  0  0
  188.4260  175.0870  142.6910 O   0  0  0  0  0  1  0  0  0  0  0  0
  188.8070  176.2100  141.9580 C   0  0  0  0  0  2  0  0  0  0  0  0
  3  4  1  0  0  0  0
  4  2  1  6  0  0  0
  4  6  1  0  0  0  0
  5  3  2  0  0  0  0
  5  8  1  0  0  0  0
  6  1  1  0  0  0  0
  7  1  1  0  0  0  0
  8  7  1  0  0  0  0
  9 10  2  0  0  0  0
 10  6  2  0  0  0  0
 11 22  1  1  0  0  0
 12 11  1  0  0  0  0
 12 13  1  1  0  0  0
 13 18  1  0  0  0  0
 14 19  1  0  0  0  0
 15 12  1  0  0  0  0
 15 11  1  0  0  0  0
 15 16  1  1  0  0  0
 17 14  2  0  0  0  0
 17 12  1  0  0  0  0
 18  5  1  0  0  0  0
 19 18  2  0  0  0  0
 20 15  1  0  0  0  0
 20 11  1  0  0  0  0
 22 21  1  6  0  0  0
 22 23  1  0  0  0  0
 23 34  1  1  0  0  0
 25 27  1  0  0  0  0
 26 30  2  0  0  0  0
 27 24  2  0  0  0  0
 27 23  1  0  0  0  0
 28 24  1  0  0  0  0
 29 28  2  0  0  0  0
 30 29  1  0  0  0  0
 30 25  1  0  0  0  0
 31 29  1  0  0  0  0
 32 31  1  0  0  0  0
 33 34  2  0  0  0  0
 34 35  1  0  0  0  0
 36 37  2  0  0  0  0
 36 40  1  0  0  0  0
 37  9  1  0  0  0  0
 38 40  2  0  0  0  0
 40 39  1  0  0  0  0
 42 41  1  6  0  0  0
 42 36  1  0  0  0  0
 43 46  1  6  0  0  0
 44 43  1  0  0  0  0
 45 48  1  0  0  0  0
 47 50  1  1  0  0  0
 47 44  1  0  0  0  0
 47 45  1  0  0  0  0
 48 43  1  0  0  0  0
 48 42  1  1  0  0  0
 50 49  1  0  0  0  0
M  END
>  <MODEL>
4

>  <REMARK>
 VINA RESULT:      -8.1      1.262      2.265
  Name = 
  11 active torsions:
  status: ('A' for Active; 'I' for Inactive)
    1  A    between atoms: C_5  and  C_30
    2  A    between atoms: C_6  and  C_23
    3  A    between atoms: C_13  and  C_42
    4  A    between atoms: C_15  and  C_20
    5  A    between atoms: C_15  and  C_46
    6  A    between atoms: C_20  and  C_33
    7  A    between atoms: C_22  and  C_44
    8  A    between atoms: C_23  and  C_30
    9  A    between atoms: C_23  and  C_36
   10  A    between atoms: O_35  and  C_40
   11  A    between atoms: C_41  and  C_50
                            x       y       z     vdW  Elec       q    Type
                         _______ _______ _______ _____ _____    ______ ____

>  <TORSDO>
F 11

$$$$
=
 OpenBabel11062419203D

 50 55  0  0  1  0  0  0  0  0999 V2000
  190.1940  171.8100  140.9950 C   0  0  0  0  0  2  0  0  0  0  0  0
  189.7730  174.1650  138.1220 F   0  0  0  0  0  0  0  0  0  0  0  0
  191.9400  173.5330  138.8300 C   0  0  0  0  0  3  0  0  0  0  0  0
  190.4720  173.2110  138.8410 C   0  0  1  0  0  3  0  0  0  0  0  0
  192.9140  172.9160  139.5300 C   0  0  0  0  0  0  0  0  0  0  0  0
  189.9340  173.0720  140.2370 C   0  0  0  0  0  0  0  0  0  0  0  0
  191.3630  171.0270  140.4070 C   0  0  0  0  0  2  0  0  0  0  0  0
  192.6590  171.8240  140.5570 C   0  0  0  0  0  2  0  0  0  0  0  0
  189.0170  175.1280  141.5640 C   0  0  0  0  0  3  0  0  0  0  0  0
  189.4820  174.1100  140.8890 C   0  0  0  0  0  0  0  0  0  0  0  0
  196.9010  174.7740  141.6130 C   0  0  2  0  0  0  0  0  0  0  0  0
  196.2510  174.7670  140.2380 C   0  0  1  0  0  0  0  0  0  0  0  0
  194.7260  174.6800  140.0660 C   0  0  0  0  0  2  0  0  0  0  0  0
  196.5910  173.1940  138.4570 C   0  0  0  0  0  3  0  0  0  0  0  0
  196.8150  176.0720  140.7580 C   0  0  1  0  0  0  0  0  0  0  0  0
  195.8340  176.9360  141.2620 O   0  0  0  0  0  1  0  0  0  0  0  0
  197.0650  174.1510  139.1950 N   0  0  0  0  0  0  0  0  0  0  0  0
  194.3160  173.3910  139.3870 C   0  0  0  0  0  0  0  0  0  0  0  0
  195.1950  172.7370  138.6090 C   0  0  0  0  0  3  0  0  0  0  0  0
  197.9410  175.8740  141.7480 C   0  0  0  0  0  2  0  0  0  0  0  0
  196.1900  175.6270  143.7930 O   0  0  0  0  0  1  0  0  0  0  0  0
  195.8850  174.7010  142.7870 C   0  0  2  0  0  3  0  0  0  0  0  0
  195.8350  173.2850  143.3870 C   0  0  1  0  0  3  0  0  0  0  0  0
  193.3870  173.6140  143.6340 C   0  0  0  0  0  3  0  0  0  0  0  0
  194.3140  171.3670  144.1940 C   0  0  0  0  0  2  0  0  0  0  0  0
  192.6520  169.6710  144.4480 O   0  0  0  0  0  0  0  0  0  0  0  0
  194.4540  172.8030  143.7480 C   0  0  0  0  0  0  0  0  0  0  0  0
  192.0220  173.1470  143.9190 C   0  0  0  0  0  3  0  0  0  0  0  0
  191.7710  171.8660  144.2240 C   0  0  0  0  0  0  0  0  0  0  0  0
  192.8860  170.9010  144.2880 C   0  0  0  0  0  0  0  0  0  0  0  0
  190.4690  171.4170  144.4730 O   0  0  0  0  0  0  0  0  0  0  0  0
  189.3430  172.2880  144.5120 C   0  0  0  0  0  1  0  0  0  0  0  0
  195.9570  171.6020  141.6760 O   0  0  0  0  0  0  0  0  0  0  0  0
  196.5610  172.2620  142.5660 C   0  0  0  0  0  0  0  0  0  0  0  0
  197.9160  172.0490  142.7810 O   0  0  0  0  0  1  0  0  0  0  0  0
  189.5090  176.9740  143.2120 C   0  0  0  0  0  0  0  0  0  0  0  0
  189.7910  175.7990  142.6200 C   0  0  0  0  0  3  0  0  0  0  0  0
  187.3010  177.6790  144.1260 O   0  0  0  0  0  1  0  0  0  0  0  0
  187.9400  178.2900  142.0160 O   0  0  0  0  0  0  0  0  0  0  0  0
  188.2070  177.6550  143.0720 C   0  0  0  0  0  0  0  0  0  0  0  0
  191.4430  178.3520  143.5180 O   0  0  0  0  0  1  0  0  0  0  0  0
  190.4970  177.5600  144.1780 C   0  0  2  0  0  3  0  0  0  0  0  0
  190.6300  176.4900  146.4310 C   0  0  2  0  0  3  0  0  0  0  0  0
  191.8310  176.2080  147.2810 C   0  0  0  0  0  2  0  0  0  0  0  0
  192.5610  176.6630  145.0690 O   0  0  0  0  0  0  0  0  0  0  0  0
  189.6960  175.4690  146.5850 O   0  0  0  0  0  1  0  0  0  0  0  0
  192.9700  176.1020  146.2890 C   0  0  1  0  0  3  0  0  0  0  0  0
  191.1700  176.4780  145.0210 C   0  0  2  0  0  3  0  0  0  0  0  0
  194.6230  177.7720  145.8590 O   0  0  0  0  0  1  0  0  0  0  0  0
  194.1960  176.8390  146.8030 C   0  0  0  0  0  2  0  0  0  0  0  0
  3  4  1  0  0  0  0
  3  5  2  0  0  0  0
  4  2  1  1  0  0  0
  4  6  1  0  0  0  0
  5  8  1  0  0  0  0
  6 10  2  0  0  0  0
  6  1  1  0  0  0  0
  7  8  1  0  0  0  0
  7  1  1  0  0  0  0
  9 37  1  0  0  0  0
 10  9  2  0  0  0  0
 11 20  1  0  0  0  0
 11 22  1  1  0  0  0
 12 13  1  6  0  0  0
 12 15  1  0  0  0  0
 12 11  1  0  0  0  0
 14 19  1  0  0  0  0
 14 17  2  0  0  0  0
 15 16  1  1  0  0  0
 15 11  1  0  0  0  0
 15 20  1  0  0  0  0
 17 12  1  0  0  0  0
 18  5  1  0  0  0  0
 18 13  1  0  0  0  0
 19 18  2  0  0  0  0
 22 23  1  0  0  0  0
 22 21  1  1  0  0  0
 23 34  1  6  0  0  0
 23 27  1  0  0  0  0
 24 27  2  0  0  0  0
 24 28  1  0  0  0  0
 25 30  1  0  0  0  0
 27 25  1  0  0  0  0
 28 29  2  0  0  0  0
 29 30  1  0  0  0  0
 29 31  1  0  0  0  0
 30 26  2  0  0  0  0
 31 32  1  0  0  0  0
 33 34  2  0  0  0  0
 34 35  1  0  0  0  0
 36 42  1  0  0  0  0
 37 36  2  0  0  0  0
 39 40  2  0  0  0  0
 40 36  1  0  0  0  0
 40 38  1  0  0  0  0
 42 41  1  6  0  0  0
 43 46  1  6  0  0  0
 43 44  1  0  0  0  0
 45 47  1  0  0  0  0
 47 50  1  1  0  0  0
 47 44  1  0  0  0  0
 48 42  1  6  0  0  0
 48 45  1  0  0  0  0
 48 43  1  0  0  0  0
 49 50  1  0  0  0  0
M  END
>  <MODEL>
5

>  <REMARK>
 VINA RESULT:      -7.7      3.175      6.162
  Name = 
  11 active torsions:
  status: ('A' for Active; 'I' for Inactive)
    1  A    between atoms: C_5  and  C_30
    2  A    between atoms: C_6  and  C_23
    3  A    between atoms: C_13  and  C_42
    4  A    between atoms: C_15  and  C_20
    5  A    between atoms: C_15  and  C_46
    6  A    between atoms: C_20  and  C_33
    7  A    between atoms: C_22  and  C_44
    8  A    between atoms: C_23  and  C_30
    9  A    between atoms: C_23  and  C_36
   10  A    between atoms: O_35  and  C_40
   11  A    between atoms: C_41  and  C_50
                            x       y       z     vdW  Elec       q    Type
                         _______ _______ _______ _____ _____    ______ ____

>  <TORSDO>
F 11

$$$$
=
 OpenBabel11062419203D

 50 55  0  0  1  0  0  0  0  0999 V2000
  190.8270  169.7530  141.9280 C   0  0  0  0  0  2  0  0  0  0  0  0
  190.6460  172.1870  139.0950 F   0  0  0  0  0  0  0  0  0  0  0  0
  192.6200  172.0150  140.3870 C   0  0  0  0  0  3  0  0  0  0  0  0
  191.3330  171.3620  139.9690 C   0  0  1  0  0  3  0  0  0  0  0  0
  193.4850  171.5830  141.3280 C   0  0  0  0  0  0  0  0  0  0  0  0
  190.4830  170.9820  141.1480 C   0  0  0  0  0  0  0  0  0  0  0  0
  192.2690  169.3170  141.6890 C   0  0  0  0  0  2  0  0  0  0  0  0
  193.2340  170.3770  142.2190 C   0  0  0  0  0  2  0  0  0  0  0  0
  188.7580  172.6460  142.1890 C   0  0  0  0  0  3  0  0  0  0  0  0
  189.6260  171.8260  141.6600 C   0  0  0  0  0  0  0  0  0  0  0  0
  195.5440  175.3950  143.5440 C   0  0  2  0  0  0  0  0  0  0  0  0
  195.7880  174.5510  142.3030 C   0  0  1  0  0  0  0  0  0  0  0  0
  194.6320  173.8910  141.5350 C   0  0  0  0  0  2  0  0  0  0  0  0
  197.1140  172.5600  142.1140 C   0  0  0  0  0  3  0  0  0  0  0  0
  195.9270  176.0540  142.1850 C   0  0  1  0  0  0  0  0  0  0  0  0
  194.8130  176.6670  141.5990 O   0  0  0  0  0  1  0  0  0  0  0  0
  197.0640  173.8430  142.3020 N   0  0  0  0  0  0  0  0  0  0  0  0
  194.7090  172.3810  141.6040 C   0  0  0  0  0  0  0  0  0  0  0  0
  195.8900  171.7830  141.8380 C   0  0  0  0  0  3  0  0  0  0  0  0
  196.2980  176.7140  143.4950 C   0  0  0  0  0  2  0  0  0  0  0  0
  193.6860  176.8590  144.1690 O   0  0  0  0  0  1  0  0  0  0  0  0
  194.0440  175.5250  143.9290 C   0  0  2  0  0  3  0  0  0  0  0  0
  193.7160  174.6720  145.1660 C   0  0  1  0  0  3  0  0  0  0  0  0
  195.8960  173.6320  145.7390 C   0  0  0  0  0  3  0  0  0  0  0  0
  194.0040  172.1110  145.1690 C   0  0  0  0  0  2  0  0  0  0  0  0
  194.4090  169.8190  145.7100 O   0  0  0  0  0  0  0  0  0  0  0  0
  194.6140  173.4790  145.3630 C   0  0  0  0  0  0  0  0  0  0  0  0
  196.7740  172.4820  145.9990 C   0  0  0  0  0  3  0  0  0  0  0  0
  196.3090  171.2240  145.9560 C   0  0  0  0  0  0  0  0  0  0  0  0
  194.8890  170.9840  145.6300 C   0  0  0  0  0  0  0  0  0  0  0  0
  197.1390  170.1300  146.2270 O   0  0  0  0  0  0  0  0  0  0  0  0
  197.9030  169.4700  145.2230 C   0  0  0  0  0  1  0  0  0  0  0  0
  194.4970  176.3020  146.7510 O   0  0  0  0  0  0  0  0  0  0  0  0
  193.6040  175.4710  146.4310 C   0  0  0  0  0  0  0  0  0  0  0  0
  192.4970  175.2990  147.2500 O   0  0  0  0  0  1  0  0  0  0  0  0
  189.7350  174.5140  143.5740 C   0  0  0  0  0  0  0  0  0  0  0  0
  189.0200  173.3840  143.4350 C   0  0  0  0  0  3  0  0  0  0  0  0
  189.2910  176.2920  141.8860 O   0  0  0  0  0  0  0  0  0  0  0  0
  191.3330  175.2660  141.9920 O   0  0  0  0  0  1  0  0  0  0  0  0
  190.1550  175.3490  142.4310 C   0  0  0  0  0  0  0  0  0  0  0  0
  189.7540  174.0690  145.9270 O   0  0  0  0  0  1  0  0  0  0  0  0
  190.0030  175.0420  144.9530 C   0  0  2  0  0  3  0  0  0  0  0  0
  189.1250  176.5810  146.7150 C   0  0  2  0  0  3  0  0  0  0  0  0
  187.7380  177.1120  146.9080 C   0  0  0  0  0  2  0  0  0  0  0  0
  187.9110  176.2340  144.7100 O   0  0  0  0  0  0  0  0  0  0  0  0
  190.0550  177.5520  147.0770 O   0  0  0  0  0  1  0  0  0  0  0  0
  187.1290  177.0700  145.5220 C   0  0  1  0  0  3  0  0  0  0  0  0
  189.2120  176.3200  145.2300 C   0  0  2  0  0  3  0  0  0  0  0  0
  184.8900  177.4330  146.2710 O   0  0  0  0  0  1  0  0  0  0  0  0
  185.7060  176.5380  145.5800 C   0  0  0  0  0  2  0  0  0  0  0  0
  3  5  2  0  0  0  0
  4  2  1  6  0  0  0
  4  3  1  0  0  0  0
  4  6  1  0  0  0  0
  5 18  1  0  0  0  0
  5  8  1  0  0  0  0
  6 10  2  0  0  0  0
  6  1  1  0  0  0  0
  7  1  1  0  0  0  0
  7  8  1  0  0  0  0
  9 37  1  0  0  0  0
 10  9  2  0  0  0  0
 11 22  1  1  0  0  0
 12 13  1  6  0  0  0
 12 11  1  0  0  0  0
 13 18  1  0  0  0  0
 14 17  2  0  0  0  0
 15 16  1  6  0  0  0
 15 12  1  0  0  0  0
 15 20  1  0  0  0  0
 15 11  1  0  0  0  0
 17 12  1  0  0  0  0
 18 19  2  0  0  0  0
 19 14  1  0  0  0  0
 20 11  1  0  0  0  0
 22 21  1  1  0  0  0
 22 23  1  0  0  0  0
 23 27  1  0  0  0  0
 23 34  1  1  0  0  0
 24 28  1  0  0  0  0
 25 27  1  0  0  0  0
 25 30  1  0  0  0  0
 27 24  2  0  0  0  0
 29 28  2  0  0  0  0
 29 31  1  0  0  0  0
 30 26  2  0  0  0  0
 30 29  1  0  0  0  0
 32 31  1  0  0  0  0
 34 33  2  0  0  0  0
 34 35  1  0  0  0  0
 36 42  1  0  0  0  0
 37 36  2  0  0  0  0
 38 40  2  0  0  0  0
 39 40  1  0  0  0  0
 40 36  1  0  0  0  0
 42 41  1  1  0  0  0
 43 44  1  0  0  0  0
 43 46  1  6  0  0  0
 45 48  1  0  0  0  0
 45 47  1  0  0  0  0
 47 50  1  1  0  0  0
 47 44  1  0  0  0  0
 48 42  1  1  0  0  0
 48 43  1  0  0  0  0
 50 49  1  0  0  0  0
M  END
>  <MODEL>
6

>  <REMARK>
 VINA RESULT:      -7.7      2.966      5.602
  Name = 
  11 active torsions:
  status: ('A' for Active; 'I' for Inactive)
    1  A    between atoms: C_5  and  C_30
    2  A    between atoms: C_6  and  C_23
    3  A    between atoms: C_13  and  C_42
    4  A    between atoms: C_15  and  C_20
    5  A    between atoms: C_15  and  C_46
    6  A    between atoms: C_20  and  C_33
    7  A    between atoms: C_22  and  C_44
    8  A    between atoms: C_23  and  C_30
    9  A    between atoms: C_23  and  C_36
   10  A    between atoms: O_35  and  C_40
   11  A    between atoms: C_41  and  C_50
                            x       y       z     vdW  Elec       q    Type
                         _______ _______ _______ _____ _____    ______ ____

>  <TORSDO>
F 11

$$$$
=
 OpenBabel11062419203D

 50 55  0  0  1  0  0  0  0  0999 V2000
  190.4050  176.8210  147.6050 C   0  0  0  0  0  2  0  0  0  0  0  0
  189.0640  173.4180  146.8310 F   0  0  0  0  0  0  0  0  0  0  0  0
  190.7700  174.3540  145.4860 C   0  0  0  0  0  3  0  0  0  0  0  0
  190.0500  174.3890  146.8050 C   0  0  1  0  0  3  0  0  0  0  0  0
  191.6930  175.2310  145.0400 C   0  0  0  0  0  0  0  0  0  0  0  0
  189.4890  175.7490  147.1080 C   0  0  0  0  0  0  0  0  0  0  0  0
  191.8640  176.5060  147.2950 C   0  0  0  0  0  2  0  0  0  0  0  0
  192.0910  176.4960  145.7830 C   0  0  0  0  0  2  0  0  0  0  0  0
  187.1000  176.4540  146.3160 C   0  0  0  0  0  3  0  0  0  0  0  0
  188.2940  176.0890  146.7030 C   0  0  0  0  0  0  0  0  0  0  0  0
  194.7640  172.7590  142.1870 C   0  0  2  0  0  0  0  0  0  0  0  0
  194.1530  174.1500  142.2390 C   0  0  1  0  0  0  0  0  0  0  0  0
  193.7810  174.8190  143.5720 C   0  0  0  0  0  2  0  0  0  0  0  0
  192.1050  174.8980  141.2360 C   0  0  0  0  0  3  0  0  0  0  0  0
  195.6270  174.0270  141.9150 C   0  0  1  0  0  0  0  0  0  0  0  0
  196.4580  174.3060  143.0080 O   0  0  0  0  0  1  0  0  0  0  0  0
  193.3260  174.4840  141.0850 N   0  0  0  0  0  0  0  0  0  0  0  0
  192.2870  175.0270  143.6910 C   0  0  0  0  0  0  0  0  0  0  0  0
  191.5320  175.0980  142.5810 C   0  0  0  0  0  3  0  0  0  0  0  0
  195.9800  172.7030  141.2750 C   0  0  0  0  0  2  0  0  0  0  0  0
  196.0360  171.1950  143.5740 O   0  0  0  0  0  1  0  0  0  0  0  0
  194.9780  172.1150  143.5850 C   0  0  2  0  0  3  0  0  0  0  0  0
  193.6960  171.4200  144.0740 C   0  0  1  0  0  3  0  0  0  0  0  0
  191.4700  171.5020  142.9780 C   0  0  0  0  0  3  0  0  0  0  0  0
  193.2540  170.1570  141.8710 C   0  0  0  0  0  2  0  0  0  0  0  0
  192.7230  169.4990  139.6360 O   0  0  0  0  0  0  0  0  0  0  0  0
  192.7320  171.0380  142.9810 C   0  0  0  0  0  0  0  0  0  0  0  0
  190.5300  171.1950  141.8900 C   0  0  0  0  0  3  0  0  0  0  0  0
  190.9170  170.5070  140.8060 C   0  0  0  0  0  0  0  0  0  0  0  0
  192.3130  170.0350  140.7030 C   0  0  0  0  0  0  0  0  0  0  0  0
  190.0280  170.2340  139.7590 O   0  0  0  0  0  0  0  0  0  0  0  0
  189.7280  171.1730  138.7320 C   0  0  0  0  0  1  0  0  0  0  0  0
  193.4290  169.1350  144.7690 O   0  0  0  0  0  0  0  0  0  0  0  0
  193.9550  170.2600  144.9880 C   0  0  0  0  0  0  0  0  0  0  0  0
  194.7940  170.4270  146.0810 O   0  0  0  0  0  1  0  0  0  0  0  0
  185.9130  178.2580  145.0110 C   0  0  0  0  0  0  0  0  0  0  0  0
  186.8760  177.3300  145.1550 C   0  0  0  0  0  3  0  0  0  0  0  0
  185.6590  179.2430  147.2860 O   0  0  0  0  0  1  0  0  0  0  0  0
  183.8210  178.7490  146.0160 O   0  0  0  0  0  0  0  0  0  0  0  0
  185.0760  178.7320  146.1320 C   0  0  0  0  0  0  0  0  0  0  0  0
  185.0850  180.1730  143.8360 O   0  0  0  0  0  1  0  0  0  0  0  0
  185.7660  178.9590  143.6930 C   0  0  2  0  0  3  0  0  0  0  0  0
  185.6180  178.3720  141.2690 C   0  0  2  0  0  3  0  0  0  0  0  0
  184.4100  178.2560  140.3900 C   0  0  0  0  0  2  0  0  0  0  0  0
  183.7010  178.2410  142.6550 O   0  0  0  0  0  0  0  0  0  0  0  0
  186.5600  177.4140  140.9010 O   0  0  0  0  0  1  0  0  0  0  0  0
  183.2830  177.9370  141.3500 C   0  0  1  0  0  3  0  0  0  0  0  0
  185.0940  178.0650  142.6510 C   0  0  2  0  0  3  0  0  0  0  0  0
  180.9430  178.2560  141.7060 O   0  0  0  0  0  1  0  0  0  0  0  0
  182.0450  178.7490  141.0090 C   0  0  0  0  0  2  0  0  0  0  0  0
  3  4  1  0  0  0  0
  4  2  1  6  0  0  0
  4  6  1  0  0  0  0
  5  3  2  0  0  0  0
  5  8  1  0  0  0  0
  6  1  1  0  0  0  0
  7  1  1  0  0  0  0
  8  7  1  0  0  0  0
  9 10  2  0  0  0  0
 10  6  2  0  0  0  0
 11 12  1  0  0  0  0
 11 22  1  1  0  0  0
 12 13  1  1  0  0  0
 13 18  1  0  0  0  0
 14 19  1  0  0  0  0
 15 11  1  0  0  0  0
 15 12  1  0  0  0  0
 15 16  1  1  0  0  0
 17 14  2  0  0  0  0
 17 12  1  0  0  0  0
 18  5  1  0  0  0  0
 19 18  2  0  0  0  0
 20 15  1  0  0  0  0
 20 11  1  0  0  0  0
 22 21  1  6  0  0  0
 22 23  1  0  0  0  0
 23 34  1  6  0  0  0
 24 27  2  0  0  0  0
 25 27  1  0  0  0  0
 26 30  2  0  0  0  0
 27 23  1  0  0  0  0
 28 24  1  0  0  0  0
 29 28  2  0  0  0  0
 30 29  1  0  0  0  0
 30 25  1  0  0  0  0
 31 29  1  0  0  0  0
 32 31  1  0  0  0  0
 33 34  2  0  0  0  0
 34 35  1  0  0  0  0
 36 37  2  0  0  0  0
 36 40  1  0  0  0  0
 37  9  1  0  0  0  0
 39 40  2  0  0  0  0
 40 38  1  0  0  0  0
 42 41  1  1  0  0  0
 42 36  1  0  0  0  0
 43 46  1  6  0  0  0
 43 48  1  0  0  0  0
 44 43  1  0  0  0  0
 44 47  1  0  0  0  0
 47 50  1  6  0  0  0
 47 45  1  0  0  0  0
 48 45  1  0  0  0  0
 48 42  1  1  0  0  0
 50 49  1  0  0  0  0
M  END
>  <MODEL>
7

>  <REMARK>
 VINA RESULT:      -7.7      1.481      2.144
  Name = 
  11 active torsions:
  status: ('A' for Active; 'I' for Inactive)
    1  A    between atoms: C_5  and  C_30
    2  A    between atoms: C_6  and  C_23
    3  A    between atoms: C_13  and  C_42
    4  A    between atoms: C_15  and  C_20
    5  A    between atoms: C_15  and  C_46
    6  A    between atoms: C_20  and  C_33
    7  A    between atoms: C_22  and  C_44
    8  A    between atoms: C_23  and  C_30
    9  A    between atoms: C_23  and  C_36
   10  A    between atoms: O_35  and  C_40
   11  A    between atoms: C_41  and  C_50
                            x       y       z     vdW  Elec       q    Type
                         _______ _______ _______ _____ _____    ______ ____

>  <TORSDO>
F 11

$$$$
=
 OpenBabel11062419203D

 50 55  0  0  1  0  0  0  0  0999 V2000
  192.1840  177.1350  144.8790 C   0  0  0  0  0  2  0  0  0  0  0  0
  191.5750  174.8510  147.7760 F   0  0  0  0  0  0  0  0  0  0  0  0
  193.3920  174.4540  146.3140 C   0  0  0  0  0  3  0  0  0  0  0  0
  192.3860  175.4460  146.8250 C   0  0  1  0  0  3  0  0  0  0  0  0
  194.2550  174.6230  145.2910 C   0  0  0  0  0  0  0  0  0  0  0  0
  191.5770  176.0550  145.7160 C   0  0  0  0  0  0  0  0  0  0  0  0
  193.7050  177.1420  144.9820 C   0  0  0  0  0  2  0  0  0  0  0  0
  194.2780  175.8510  144.3950 C   0  0  0  0  0  2  0  0  0  0  0  0
  189.3630  174.9520  144.8700 C   0  0  0  0  0  3  0  0  0  0  0  0
  190.4730  175.4900  145.3010 C   0  0  0  0  0  0  0  0  0  0  0  0
  194.8330  169.9370  144.1090 C   0  0  2  0  0  0  0  0  0  0  0  0
  195.6470  171.0370  144.7720 C   0  0  1  0  0  0  0  0  0  0  0  0
  194.9800  172.1590  145.5850 C   0  0  0  0  0  2  0  0  0  0  0  0
  197.1260  172.6100  143.7240 C   0  0  0  0  0  3  0  0  0  0  0  0
  195.6720  169.6560  145.3910 C   0  0  1  0  0  0  0  0  0  0  0  0
  194.8410  169.5380  146.5120 O   0  0  0  0  0  1  0  0  0  0  0  0
  196.8750  171.3830  144.0630 N   0  0  0  0  0  0  0  0  0  0  0  0
  195.1720  173.5090  144.9300 C   0  0  0  0  0  0  0  0  0  0  0  0
  196.2070  173.7050  144.0940 C   0  0  0  0  0  3  0  0  0  0  0  0
  195.4050  168.5560  144.3870 C   0  0  0  0  0  2  0  0  0  0  0  0
  192.7590  168.8650  144.8390 O   0  0  0  0  0  1  0  0  0  0  0  0
  193.3020  170.0600  144.3490 C   0  0  2  0  0  3  0  0  0  0  0  0
  192.5730  170.4660  143.0570 C   0  0  1  0  0  3  0  0  0  0  0  0
  194.1120  171.6660  141.5240 C   0  0  0  0  0  3  0  0  0  0  0  0
  192.4100  173.0190  142.7440 C   0  0  0  0  0  2  0  0  0  0  0  0
  192.1720  175.2480  141.9170 O   0  0  0  0  0  0  0  0  0  0  0  0
  193.0980  171.7180  142.4050 C   0  0  0  0  0  0  0  0  0  0  0  0
  194.6000  172.8650  140.8270 C   0  0  0  0  0  3  0  0  0  0  0  0
  193.9970  174.0540  140.9750 C   0  0  0  0  0  0  0  0  0  0  0  0
  192.8250  174.1690  141.8650 C   0  0  0  0  0  0  0  0  0  0  0  0
  194.4480  175.1910  140.2940 O   0  0  0  0  0  0  0  0  0  0  0  0
  195.4980  176.0200  140.7790 C   0  0  0  0  0  1  0  0  0  0  0  0
  193.4890  168.8030  141.5820 O   0  0  0  0  0  0  0  0  0  0  0  0
  192.4580  169.3520  142.0590 C   0  0  0  0  0  0  0  0  0  0  0  0
  191.2010  168.9140  141.6660 O   0  0  0  0  0  1  0  0  0  0  0  0
  188.5910  174.4730  142.5160 C   0  0  0  0  0  0  0  0  0  0  0  0
  189.2920  174.1720  143.6250 C   0  0  0  0  0  3  0  0  0  0  0  0
  186.6150  175.9890  142.4290 O   0  0  0  0  0  1  0  0  0  0  0  0
  188.7200  176.7900  142.0230 O   0  0  0  0  0  0  0  0  0  0  0  0
  187.9850  175.7990  142.2820 C   0  0  0  0  0  0  0  0  0  0  0  0
  189.0660  172.2440  141.7850 O   0  0  0  0  0  1  0  0  0  0  0  0
  188.5380  173.4790  141.3940 C   0  0  2  0  0  3  0  0  0  0  0  0
  188.3920  173.7410  138.9140 C   0  0  2  0  0  3  0  0  0  0  0  0
  189.3930  173.3840  137.8590 C   0  0  0  0  0  2  0  0  0  0  0  0
  190.4890  173.4080  139.9640 O   0  0  0  0  0  0  0  0  0  0  0  0
  187.7160  174.9020  138.5470 O   0  0  0  0  0  1  0  0  0  0  0  0
  190.7240  173.4320  138.5800 C   0  0  1  0  0  3  0  0  0  0  0  0
  189.2320  174.0080  140.1390 C   0  0  2  0  0  3  0  0  0  0  0  0
  191.4380  171.2170  139.1200 O   0  0  0  0  0  1  0  0  0  0  0  0
  191.5860  172.2440  138.1880 C   0  0  0  0  0  2  0  0  0  0  0  0
  1  7  1  0  0  0  0
  1  6  1  0  0  0  0
  3  4  1  0  0  0  0
  4  2  1  1  0  0  0
  5  3  2  0  0  0  0
  6  4  1  0  0  0  0
  8  7  1  0  0  0  0
  8  5  1  0  0  0  0
  9 10  2  0  0  0  0
 10  6  2  0  0  0  0
 11 22  1  1  0  0  0
 11 20  1  0  0  0  0
 11 12  1  0  0  0  0
 11 15  1  0  0  0  0
 12 15  1  0  0  0  0
 12 13  1  1  0  0  0
 14 17  2  0  0  0  0
 14 19  1  0  0  0  0
 15 16  1  1  0  0  0
 17 12  1  0  0  0  0
 18  5  1  0  0  0  0
 18 13  1  0  0  0  0
 19 18  2  0  0  0  0
 20 15  1  0  0  0  0
 22 21  1  6  0  0  0
 23 34  1  6  0  0  0
 23 22  1  0  0  0  0
 24 27  2  0  0  0  0
 27 25  1  0  0  0  0
 27 23  1  0  0  0  0
 28 29  2  0  0  0  0
 28 24  1  0  0  0  0
 29 30  1  0  0  0  0
 30 26  2  0  0  0  0
 30 25  1  0  0  0  0
 31 32  1  0  0  0  0
 31 29  1  0  0  0  0
 33 34  2  0  0  0  0
 35 34  1  0  0  0  0
 36 37  2  0  0  0  0
 37  9  1  0  0  0  0
 39 40  2  0  0  0  0
 40 38  1  0  0  0  0
 40 36  1  0  0  0  0
 42 41  1  1  0  0  0
 42 36  1  0  0  0  0
 43 46  1  6  0  0  0
 43 48  1  0  0  0  0
 44 47  1  0  0  0  0
 44 43  1  0  0  0  0
 45 48  1  0  0  0  0
 47 50  1  6  0  0  0
 47 45  1  0  0  0  0
 48 42  1  1  0  0  0
 50 49  1  0  0  0  0
M  END
>  <MODEL>
8

>  <REMARK>
 VINA RESULT:      -7.7      3.260      5.958
  Name = 
  11 active torsions:
  status: ('A' for Active; 'I' for Inactive)
    1  A    between atoms: C_5  and  C_30
    2  A    between atoms: C_6  and  C_23
    3  A    between atoms: C_13  and  C_42
    4  A    between atoms: C_15  and  C_20
    5  A    between atoms: C_15  and  C_46
    6  A    between atoms: C_20  and  C_33
    7  A    between atoms: C_22  and  C_44
    8  A    between atoms: C_23  and  C_30
    9  A    between atoms: C_23  and  C_36
   10  A    between atoms: O_35  and  C_40
   11  A    between atoms: C_41  and  C_50
                            x       y       z     vdW  Elec       q    Type
                         _______ _______ _______ _____ _____    ______ ____

>  <TORSDO>
F 11

$$$$
=
 OpenBabel11062419203D

 50 55  0  0  1  0  0  0  0  0999 V2000
  190.4450  176.4860  148.0110 C   0  0  0  0  0  2  0  0  0  0  0  0
  189.3230  173.3720  146.2720 F   0  0  0  0  0  0  0  0  0  0  0  0
  191.1650  174.5990  145.4370 C   0  0  0  0  0  3  0  0  0  0  0  0
  190.2740  174.3180  146.6130 C   0  0  1  0  0  3  0  0  0  0  0  0
  192.1120  175.5540  145.3430 C   0  0  0  0  0  0  0  0  0  0  0  0
  189.6360  175.5680  147.1510 C   0  0  0  0  0  0  0  0  0  0  0  0
  191.9410  176.2500  147.8380 C   0  0  0  0  0  2  0  0  0  0  0  0
  192.3690  176.6030  146.4130 C   0  0  0  0  0  2  0  0  0  0  0  0
  187.3550  176.4490  146.2280 C   0  0  0  0  0  3  0  0  0  0  0  0
  188.4960  175.9980  146.6780 C   0  0  0  0  0  0  0  0  0  0  0  0
  195.3680  173.6500  142.2670 C   0  0  2  0  0  0  0  0  0  0  0  0
  194.8760  175.0320  142.6680 C   0  0  1  0  0  0  0  0  0  0  0  0
  194.3600  175.3260  144.0860 C   0  0  0  0  0  2  0  0  0  0  0  0
  193.0780  176.2930  141.7000 C   0  0  0  0  0  3  0  0  0  0  0  0
  196.3660  174.8230  142.5030 C   0  0  1  0  0  0  0  0  0  0  0  0
  197.0390  174.6630  143.7220 O   0  0  0  0  0  1  0  0  0  0  0  0
  194.2680  175.7900  141.5790 N   0  0  0  0  0  0  0  0  0  0  0  0
  192.8890  175.6780  144.0800 C   0  0  0  0  0  0  0  0  0  0  0  0
  192.3220  176.1650  142.9620 C   0  0  0  0  0  3  0  0  0  0  0  0
  196.7010  173.7080  141.5370 C   0  0  0  0  0  2  0  0  0  0  0  0
  196.1360  171.5040  143.1560 O   0  0  0  0  0  1  0  0  0  0  0  0
  195.3090  172.6060  143.4150 C   0  0  2  0  0  3  0  0  0  0  0  0
  193.8660  172.1240  143.6480 C   0  0  1  0  0  3  0  0  0  0  0  0
  193.5140  171.1830  141.3780 C   0  0  0  0  0  3  0  0  0  0  0  0
  191.6940  172.5900  142.3410 C   0  0  0  0  0  2  0  0  0  0  0  0
  189.6340  172.4630  141.1370 O   0  0  0  0  0  0  0  0  0  0  0  0
  193.0550  171.9380  142.3920 C   0  0  0  0  0  0  0  0  0  0  0  0
  192.7150  170.9340  140.1690 C   0  0  0  0  0  3  0  0  0  0  0  0
  191.4540  171.3800  140.0610 C   0  0  0  0  0  0  0  0  0  0  0  0
  190.8560  172.1470  141.1710 C   0  0  0  0  0  0  0  0  0  0  0  0
  190.6860  171.1230  138.9200 O   0  0  0  0  0  0  0  0  0  0  0  0
  191.1690  171.3310  137.5970 C   0  0  0  0  0  1  0  0  0  0  0  0
  193.3010  169.8290  144.0870 O   0  0  0  0  0  0  0  0  0  0  0  0
  193.7750  170.9120  144.5280 C   0  0  0  0  0  0  0  0  0  0  0  0
  194.2280  170.9850  145.8380 O   0  0  0  0  0  1  0  0  0  0  0  0
  186.3000  178.5160  145.2400 C   0  0  0  0  0  0  0  0  0  0  0  0
  187.2630  177.5790  145.2900 C   0  0  0  0  0  3  0  0  0  0  0  0
  184.0600  178.0970  146.2480 O   0  0  0  0  0  0  0  0  0  0  0  0
  185.6130  179.3720  147.3430 O   0  0  0  0  0  1  0  0  0  0  0  0
  185.3070  178.7100  146.3150 C   0  0  0  0  0  0  0  0  0  0  0  0
  185.2600  180.4290  144.2440 O   0  0  0  0  0  1  0  0  0  0  0  0
  186.3110  179.5140  144.1190 C   0  0  2  0  0  3  0  0  0  0  0  0
  185.3930  177.6120  142.7840 C   0  0  2  0  0  3  0  0  0  0  0  0
  186.1140  176.6090  141.9360 C   0  0  0  0  0  2  0  0  0  0  0  0
  187.5770  178.4280  142.3660 O   0  0  0  0  0  0  0  0  0  0  0  0
  184.1640  177.9200  142.2050 O   0  0  0  0  0  1  0  0  0  0  0  0
  187.3870  177.3190  141.5260 C   0  0  1  0  0  3  0  0  0  0  0  0
  186.2890  178.8270  142.7540 C   0  0  2  0  0  3  0  0  0  0  0  0
  188.5300  175.6900  142.8480 O   0  0  0  0  0  1  0  0  0  0  0  0
  188.5800  176.3830  141.6400 C   0  0  0  0  0  2  0  0  0  0  0  0
  3  4  1  0  0  0  0
  4  2  1  6  0  0  0
  4  6  1  0  0  0  0
  5  3  2  0  0  0  0
  5  8  1  0  0  0  0
  6  1  1  0  0  0  0
  7  1  1  0  0  0  0
  8  7  1  0  0  0  0
  9 10  2  0  0  0  0
 10  6  2  0  0  0  0
 11 15  1  0  0  0  0
 11 12  1  0  0  0  0
 11 22  1  1  0  0  0
 12 13  1  1  0  0  0
 14 19  1  0  0  0  0
 15 12  1  0  0  0  0
 15 16  1  1  0  0  0
 17 14  2  0  0  0  0
 17 12  1  0  0  0  0
 18 13  1  0  0  0  0
 18  5  1  0  0  0  0
 19 18  2  0  0  0  0
 20 11  1  0  0  0  0
 20 15  1  0  0  0  0
 22 21  1  6  0  0  0
 22 23  1  0  0  0  0
 23 34  1  6  0  0  0
 24 27  2  0  0  0  0
 25 27  1  0  0  0  0
 26 30  2  0  0  0  0
 27 23  1  0  0  0  0
 28 24  1  0  0  0  0
 29 28  2  0  0  0  0
 29 30  1  0  0  0  0
 30 25  1  0  0  0  0
 31 29  1  0  0  0  0
 32 31  1  0  0  0  0
 33 34  2  0  0  0  0
 34 35  1  0  0  0  0
 36 37  2  0  0  0  0
 36 40  1  0  0  0  0
 37  9  1  0  0  0  0
 38 40  2  0  0  0  0
 40 39  1  0  0  0  0
 42 41  1  1  0  0  0
 42 36  1  0  0  0  0
 43 46  1  6  0  0  0
 44 43  1  0  0  0  0
 45 48  1  0  0  0  0
 47 50  1  1  0  0  0
 47 44  1  0  0  0  0
 47 45  1  0  0  0  0
 48 43  1  0  0  0  0
 48 42  1  1  0  0  0
 50 49  1  0  0  0  0
M  END
>  <MODEL>
9

>  <REMARK>
 VINA RESULT:      -7.6      1.865      2.799
  Name = 
  11 active torsions:
  status: ('A' for Active; 'I' for Inactive)
    1  A    between atoms: C_5  and  C_30
    2  A    between atoms: C_6  and  C_23
    3  A    between atoms: C_13  and  C_42
    4  A    between atoms: C_15  and  C_20
    5  A    between atoms: C_15  and  C_46
    6  A    between atoms: C_20  and  C_33
    7  A    between atoms: C_22  and  C_44
    8  A    between atoms: C_23  and  C_30
    9  A    between atoms: C_23  and  C_36
   10  A    between atoms: O_35  and  C_40
   11  A    between atoms: C_41  and  C_50
                            x       y       z     vdW  Elec       q    Type
                         _______ _______ _______ _____ _____    ______ ____

>  <TORSDO>
F 11

$$$$
