=
 OpenBabel11072409163D

 39 41  0  0  1  0  0  0  0  0999 V2000
  193.0070  174.9980  143.2820 C   0  0  1  0  0  3  0  0  0  0  0  0
  193.2460  173.9300  144.3500 C   0  0  2  0  0  3  0  0  0  0  0  0
  191.5170  175.9550  143.7230 S   0  0  0  0  0  0  0  0  0  0  0  0
  194.0320  172.7340  143.8380 C   0  0  0  0  0  1  0  0  0  0  0  0
  191.2260  174.9330  145.1990 C   0  0  2  0  0  3  0  0  0  0  0  0
  191.9160  173.5850  145.0110 C   0  0  1  0  0  3  0  0  0  0  0  0
  194.8000  176.8930  145.2710 C   0  0  0  0  0  2  0  0  0  0  0  0
  194.9400  175.0270  140.9160 O   0  0  0  0  0  0  0  0  0  0  0  0
  195.0790  176.1200  144.2310 C   0  0  0  0  0  0  0  0  0  0  0  0
  194.1940  175.9480  143.0390 C   0  0  1  0  0  3  0  0  0  0  0  0
  196.4870  175.2390  142.6790 N   0  0  0  0  0  0  0  0  0  0  0  0
  195.1930  175.3620  142.1030 C   0  0  0  0  0  0  0  0  0  0  0  0
  196.4310  175.6830  143.8910 C   0  0  0  0  0  3  0  0  0  0  0  0
  190.8980  172.3890  144.1040 S   0  0  0  0  0  0  0  0  0  0  0  0
  191.6780  171.1260  143.8610 O   0  0  0  0  0  0  0  0  0  0  0  0
  189.7110  172.0420  144.9600 O   0  0  0  0  0  0  0  0  0  0  0  0
  189.0100  173.6240  140.0120 C   0  0  0  0  0  0  0  0  0  0  0  0
  188.2110  174.3070  138.6090 Cl  0  0  0  0  0  0  0  0  0  0  0  0
  190.5090  173.4720  139.9690 C   0  0  0  0  0  2  0  0  0  0  0  0
  191.1420  172.2310  141.1450 S   0  0  0  0  0  0  0  0  0  0  0  0
  188.2810  173.4160  141.1200 C   0  0  0  0  0  3  0  0  0  0  0  0
  190.3170  173.0500  142.5440 C   0  0  1  0  0  3  0  0  0  0  0  0
  188.8200  172.8310  142.3980 C   0  0  0  0  0  2  0  0  0  0  0  0
  189.8580  174.8110  145.4500 O   0  0  0  0  0  0  0  0  0  0  0  0
  189.7170  175.1010  146.8090 C   0  0  0  0  0  2  0  0  0  0  0  0
  188.3150  175.6100  147.0850 C   0  0  0  0  0  2  0  0  0  0  0  0
  187.9270  176.6610  146.0570 C   0  0  0  0  0  2  0  0  0  0  0  0
  186.0330  176.9570  147.6110 C   0  0  0  0  0  1  0  0  0  0  0  0
  186.4450  176.9920  146.1550 C   0  0  1  0  0  3  0  0  0  0  0  0
  186.1770  178.3840  145.6040 C   0  0  0  0  0  2  0  0  0  0  0  0
  183.9080  179.0920  145.4680 O   0  0  0  0  0  1  0  0  0  0  0  0
  184.9010  178.3970  144.7770 C   0  0  1  0  0  3  0  0  0  0  0  0
  185.1540  179.0690  143.4390 C   0  0  0  0  0  2  0  0  0  0  0  0
  185.1510  178.0540  142.3410 C   0  0  0  0  0  0  0  0  0  0  0  0
  184.1240  177.9350  141.6210 O   0  0  0  0  0  0  0  0  0  0  0  0
  186.3140  177.1770  142.1190 C   0  0  0  0  0  0  0  0  0  0  0  0
  186.3560  176.0370  142.6600 O   0  0  0  0  0  0  0  0  0  0  0  0
  188.5370  178.0320  141.7860 N   0  0  0  0  0  2  0  0  0  0  0  0
  187.4240  177.6250  141.2700 C   0  0  0  0  0  3  0  0  0  0  0  0
  1  3  1  1  0  0  0
  1  2  1  0  0  0  0
  2  4  1  6  0  0  0
  2  6  1  0  0  0  0
  3  5  1  0  0  0  0
  5 24  1  6  0  0  0
  6 14  1  6  0  0  0
  6  5  1  0  0  0  0
  8 12  2  0  0  0  0
  9  7  2  0  0  0  0
 10 12  1  6  0  0  0
 10  1  1  0  0  0  0
 10  9  1  0  0  0  0
 11 13  2  0  0  0  0
 12 11  1  0  0  0  0
 13  9  1  0  0  0  0
 14 16  2  0  0  0  0
 15 14  2  0  0  0  0
 17 21  2  0  0  0  0
 18 17  1  0  0  0  0
 19 17  1  0  0  0  0
 19 20  1  0  0  0  0
 20 22  1  0  0  0  0
 21 23  1  0  0  0  0
 22 14  1  1  0  0  0
 23 22  1  0  0  0  0
 24 25  1  0  0  0  0
 25 26  1  0  0  0  0
 27 29  1  0  0  0  0
 27 26  1  0  0  0  0
 29 28  1  1  0  0  0
 30 29  1  0  0  0  0
 32 31  1  1  0  0  0
 32 30  1  0  0  0  0
 33 32  1  0  0  0  0
 34 33  1  0  0  0  0
 35 34  2  0  0  0  0
 36 34  1  0  0  0  0
 36 37  2  0  0  0  0
 39 38  2  0  0  0  0
 39 36  1  0  0  0  0
M  END
>  <MODEL>
1

>  <REMARK>
 VINA RESULT:      -6.8      0.000      0.000
  Name = 
  14 active torsions:
  status: ('A' for Active; 'I' for Inactive)
    1  A    between atoms: C_1  and  C_10
    2  A    between atoms: C_1  and  C_34
    3  A    between atoms: S_4  and  C_33
    4  A    between atoms: S_4  and  C_38
    5  A    between atoms: C_8  and  C_13
    6  A    between atoms: C_10  and  C_36
    7  A    between atoms: C_17  and  C_26
    8  A    between atoms: C_17  and  C_34
    9  A    between atoms: O_20  and  C_27
   10  A    between atoms: O_20  and  C_32
   11  A    between atoms: C_21  and  C_25
   12  A    between atoms: C_21  and  C_27
   13  A    between atoms: C_23  and  C_25
   14  A    between atoms: C_23  and  C_26
                            x       y       z     vdW  Elec       q    Type
                         _______ _______ _______ _____ _____    ______ ____

>  <TORSDO>
F 14

$$$$
=
 OpenBabel11072409163D

 39 41  0  0  1  0  0  0  0  0999 V2000
  191.5810  174.3830  142.7580 C   0  0  1  0  0  3  0  0  0  0  0  0
  191.9110  175.8760  142.7700 C   0  0  2  0  0  3  0  0  0  0  0  0
  190.3540  174.0360  144.0630 S   0  0  0  0  0  0  0  0  0  0  0  0
  193.2820  176.1930  142.1960 C   0  0  0  0  0  1  0  0  0  0  0  0
  190.3530  175.7720  144.6060 C   0  0  2  0  0  3  0  0  0  0  0  0
  191.6610  176.4270  144.1700 C   0  0  1  0  0  3  0  0  0  0  0  0
  192.5770  171.9220  140.8310 C   0  0  0  0  0  2  0  0  0  0  0  0
  188.8310  174.7540  141.4790 O   0  0  0  0  0  0  0  0  0  0  0  0
  191.3920  172.3940  141.1890 C   0  0  0  0  0  0  0  0  0  0  0  0
  191.0840  173.8410  141.4050 C   0  0  1  0  0  3  0  0  0  0  0  0
  189.1210  172.4450  141.1060 N   0  0  0  0  0  0  0  0  0  0  0  0
  189.5980  173.7630  141.3500 C   0  0  0  0  0  0  0  0  0  0  0  0
  190.1420  171.6610  141.0010 C   0  0  0  0  0  3  0  0  0  0  0  0
  193.0140  176.1620  145.3490 S   0  0  0  0  0  0  0  0  0  0  0  0
  193.9440  177.3440  145.3410 O   0  0  0  0  0  0  0  0  0  0  0  0
  192.4180  176.0520  146.7250 O   0  0  0  0  0  0  0  0  0  0  0  0
  195.4030  172.1600  145.0230 C   0  0  0  0  0  0  0  0  0  0  0  0
  196.0880  170.5690  144.7570 Cl  0  0  0  0  0  0  0  0  0  0  0  0
  196.1200  173.3470  144.4310 C   0  0  0  0  0  2  0  0  0  0  0  0
  195.7140  174.9200  145.2580 S   0  0  0  0  0  0  0  0  0  0  0  0
  194.1940  172.2440  145.5990 C   0  0  0  0  0  3  0  0  0  0  0  0
  193.9320  174.6670  144.9920 C   0  0  1  0  0  3  0  0  0  0  0  0
  193.4790  173.5340  145.8990 C   0  0  0  0  0  2  0  0  0  0  0  0
  190.1380  175.8560  145.9830 O   0  0  0  0  0  0  0  0  0  0  0  0
  188.7610  175.6900  146.1400 C   0  0  0  0  0  2  0  0  0  0  0  0
  188.1180  177.0200  146.4840 C   0  0  0  0  0  2  0  0  0  0  0  0
  186.7540  176.7960  147.1180 C   0  0  0  0  0  2  0  0  0  0  0  0
  184.8440  178.3560  147.1980 C   0  0  0  0  0  1  0  0  0  0  0  0
  185.6590  177.4560  146.2940 C   0  0  1  0  0  3  0  0  0  0  0  0
  186.2670  178.2990  145.1850 C   0  0  0  0  0  2  0  0  0  0  0  0
  185.7360  180.0230  143.6320 O   0  0  0  0  0  1  0  0  0  0  0  0
  185.1800  178.9760  144.3670 C   0  0  1  0  0  3  0  0  0  0  0  0
  184.5390  177.9750  143.4210 C   0  0  0  0  0  2  0  0  0  0  0  0
  185.5900  177.2690  142.6250 C   0  0  0  0  0  0  0  0  0  0  0  0
  186.0380  176.1680  143.0430 O   0  0  0  0  0  0  0  0  0  0  0  0
  186.1230  177.8610  141.3860 C   0  0  0  0  0  0  0  0  0  0  0  0
  185.3390  178.4050  140.5590 O   0  0  0  0  0  0  0  0  0  0  0  0
  188.4220  178.2360  141.9830 N   0  0  0  0  0  2  0  0  0  0  0  0
  187.5650  177.8210  141.1100 C   0  0  0  0  0  3  0  0  0  0  0  0
  1  2  1  0  0  0  0
  1  3  1  1  0  0  0
  2  4  1  1  0  0  0
  2  6  1  0  0  0  0
  3  5  1  0  0  0  0
  5 24  1  1  0  0  0
  6  5  1  0  0  0  0
  6 14  1  1  0  0  0
  7  9  2  0  0  0  0
 10  9  1  1  0  0  0
 10  1  1  0  0  0  0
 11 12  1  0  0  0  0
 12 10  1  0  0  0  0
 12  8  2  0  0  0  0
 13 11  2  0  0  0  0
 13  9  1  0  0  0  0
 14 16  2  0  0  0  0
 15 14  2  0  0  0  0
 17 21  2  0  0  0  0
 18 17  1  0  0  0  0
 19 17  1  0  0  0  0
 19 20  1  0  0  0  0
 21 23  1  0  0  0  0
 22 20  1  0  0  0  0
 22 14  1  1  0  0  0
 22 23  1  0  0  0  0
 24 25  1  0  0  0  0
 25 26  1  0  0  0  0
 26 27  1  0  0  0  0
 29 27  1  0  0  0  0
 29 28  1  1  0  0  0
 30 29  1  0  0  0  0
 32 31  1  6  0  0  0
 32 30  1  0  0  0  0
 33 32  1  0  0  0  0
 34 35  2  0  0  0  0
 34 33  1  0  0  0  0
 36 34  1  0  0  0  0
 37 36  2  0  0  0  0
 39 36  1  0  0  0  0
 39 38  2  0  0  0  0
M  END
>  <MODEL>
2

>  <REMARK>
 VINA RESULT:      -6.3      2.922      4.733
  Name = 
  14 active torsions:
  status: ('A' for Active; 'I' for Inactive)
    1  A    between atoms: C_1  and  C_10
    2  A    between atoms: C_1  and  C_34
    3  A    between atoms: S_4  and  C_33
    4  A    between atoms: S_4  and  C_38
    5  A    between atoms: C_8  and  C_13
    6  A    between atoms: C_10  and  C_36
    7  A    between atoms: C_17  and  C_26
    8  A    between atoms: C_17  and  C_34
    9  A    between atoms: O_20  and  C_27
   10  A    between atoms: O_20  and  C_32
   11  A    between atoms: C_21  and  C_25
   12  A    between atoms: C_21  and  C_27
   13  A    between atoms: C_23  and  C_25
   14  A    between atoms: C_23  and  C_26
                            x       y       z     vdW  Elec       q    Type
                         _______ _______ _______ _____ _____    ______ ____

>  <TORSDO>
F 14

$$$$
=
 OpenBabel11072409163D

 39 41  0  0  1  0  0  0  0  0999 V2000
  193.9690  174.2880  143.0860 C   0  0  1  0  0  3  0  0  0  0  0  0
  193.6410  173.8900  144.5260 C   0  0  2  0  0  3  0  0  0  0  0  0
  192.9170  175.7010  142.6070 S   0  0  0  0  0  0  0  0  0  0  0  0
  193.9660  172.4380  144.8360 C   0  0  0  0  0  1  0  0  0  0  0  0
  192.0700  175.6920  144.2170 C   0  0  2  0  0  3  0  0  0  0  0  0
  192.2080  174.3050  144.8410 C   0  0  1  0  0  3  0  0  0  0  0  0
  195.9990  173.6490  140.5910 C   0  0  0  0  0  2  0  0  0  0  0  0
  195.6630  176.4770  144.3800 O   0  0  0  0  0  0  0  0  0  0  0  0
  195.8020  174.6980  141.3760 C   0  0  0  0  0  0  0  0  0  0  0  0
  195.4500  174.6180  142.8260 C   0  0  1  0  0  3  0  0  0  0  0  0
  196.2870  176.7870  142.1290 N   0  0  0  0  0  0  0  0  0  0  0  0
  195.7840  176.0160  143.2140 C   0  0  0  0  0  0  0  0  0  0  0  0
  196.3110  176.0340  141.0790 C   0  0  0  0  0  3  0  0  0  0  0  0
  190.9330  173.1450  144.2740 S   0  0  0  0  0  0  0  0  0  0  0  0
  191.4710  171.7400  144.2890 O   0  0  0  0  0  0  0  0  0  0  0  0
  189.7820  173.2090  145.2390 O   0  0  0  0  0  0  0  0  0  0  0  0
  188.9370  173.7920  140.1000 C   0  0  0  0  0  0  0  0  0  0  0  0
  188.1470  174.2900  138.6160 Cl  0  0  0  0  0  0  0  0  0  0  0  0
  190.3800  173.3620  140.0240 C   0  0  0  0  0  2  0  0  0  0  0  0
  190.8930  172.3100  141.4210 S   0  0  0  0  0  0  0  0  0  0  0  0
  188.2810  173.9640  141.2580 C   0  0  0  0  0  3  0  0  0  0  0  0
  190.3400  173.5480  142.6330 C   0  0  1  0  0  3  0  0  0  0  0  0
  188.8210  173.5820  142.6100 C   0  0  0  0  0  2  0  0  0  0  0  0
  190.7400  176.0920  144.0750 O   0  0  0  0  0  0  0  0  0  0  0  0
  190.8000  177.4770  143.9070 C   0  0  0  0  0  2  0  0  0  0  0  0
  189.7940  177.9120  142.8590 C   0  0  0  0  0  2  0  0  0  0  0  0
  188.4510  177.2440  143.1100 C   0  0  0  0  0  2  0  0  0  0  0  0
  186.8660  177.8280  141.3110 C   0  0  0  0  0  1  0  0  0  0  0  0
  187.3060  178.1670  142.7200 C   0  0  1  0  0  3  0  0  0  0  0  0
  186.1280  177.9740  143.6600 C   0  0  0  0  0  2  0  0  0  0  0  0
  185.4140  180.2340  143.8740 O   0  0  0  0  0  1  0  0  0  0  0  0
  185.9750  179.1720  144.5830 C   0  0  1  0  0  3  0  0  0  0  0  0
  185.0810  178.8160  145.7580 C   0  0  0  0  0  2  0  0  0  0  0  0
  185.8900  178.7130  147.0110 C   0  0  0  0  0  0  0  0  0  0  0  0
  185.9800  179.7180  147.7660 O   0  0  0  0  0  0  0  0  0  0  0  0
  186.6020  177.4690  147.3500 C   0  0  0  0  0  0  0  0  0  0  0  0
  186.0280  176.5830  148.0440 O   0  0  0  0  0  0  0  0  0  0  0  0
  188.3800  176.0850  146.5110 N   0  0  0  0  0  2  0  0  0  0  0  0
  187.9770  177.2550  146.8820 C   0  0  0  0  0  3  0  0  0  0  0  0
  1  3  1  1  0  0  0
  1  2  1  0  0  0  0
  2  4  1  6  0  0  0
  2  6  1  0  0  0  0
  3  5  1  0  0  0  0
  5 24  1  6  0  0  0
  5  6  1  0  0  0  0
  6 14  1  6  0  0  0
  7  9  2  0  0  0  0
 10  9  1  6  0  0  0
 10  1  1  0  0  0  0
 10 12  1  0  0  0  0
 11 12  1  0  0  0  0
 12  8  2  0  0  0  0
 13  9  1  0  0  0  0
 13 11  2  0  0  0  0
 14 15  2  0  0  0  0
 14 16  2  0  0  0  0
 17 21  2  0  0  0  0
 18 17  1  0  0  0  0
 19 17  1  0  0  0  0
 19 20  1  0  0  0  0
 20 22  1  0  0  0  0
 21 23  1  0  0  0  0
 22 14  1  1  0  0  0
 23 22  1  0  0  0  0
 25 24  1  0  0  0  0
 26 27  1  0  0  0  0
 26 25  1  0  0  0  0
 29 28  1  6  0  0  0
 29 27  1  0  0  0  0
 29 30  1  0  0  0  0
 30 32  1  0  0  0  0
 32 31  1  6  0  0  0
 32 33  1  0  0  0  0
 33 34  1  0  0  0  0
 34 36  1  0  0  0  0
 34 35  2  0  0  0  0
 36 37  2  0  0  0  0
 38 39  2  0  0  0  0
 39 36  1  0  0  0  0
M  END
>  <MODEL>
3

>  <REMARK>
 VINA RESULT:      -6.3      1.888      3.191
  Name = 
  14 active torsions:
  status: ('A' for Active; 'I' for Inactive)
    1  A    between atoms: C_1  and  C_10
    2  A    between atoms: C_1  and  C_34
    3  A    between atoms: S_4  and  C_33
    4  A    between atoms: S_4  and  C_38
    5  A    between atoms: C_8  and  C_13
    6  A    between atoms: C_10  and  C_36
    7  A    between atoms: C_17  and  C_26
    8  A    between atoms: C_17  and  C_34
    9  A    between atoms: O_20  and  C_27
   10  A    between atoms: O_20  and  C_32
   11  A    between atoms: C_21  and  C_25
   12  A    between atoms: C_21  and  C_27
   13  A    between atoms: C_23  and  C_25
   14  A    between atoms: C_23  and  C_26
                            x       y       z     vdW  Elec       q    Type
                         _______ _______ _______ _____ _____    ______ ____

>  <TORSDO>
F 14

$$$$
=
 OpenBabel11072409163D

 39 41  0  0  1  0  0  0  0  0999 V2000
  193.9600  173.9440  143.5000 C   0  0  1  0  0  3  0  0  0  0  0  0
  193.4950  173.4110  144.8550 C   0  0  2  0  0  3  0  0  0  0  0  0
  192.9010  175.3500  143.0200 S   0  0  0  0  0  0  0  0  0  0  0  0
  193.8550  171.9510  145.0820 C   0  0  0  0  0  1  0  0  0  0  0  0
  191.8820  175.1690  144.5160 C   0  0  2  0  0  3  0  0  0  0  0  0
  192.0170  173.7400  145.0360 C   0  0  1  0  0  3  0  0  0  0  0  0
  196.4440  173.0730  141.5430 C   0  0  0  0  0  2  0  0  0  0  0  0
  195.2650  176.4590  144.6440 O   0  0  0  0  0  0  0  0  0  0  0  0
  196.0490  174.2180  142.0800 C   0  0  0  0  0  0  0  0  0  0  0  0
  195.4430  174.3540  143.4400 C   0  0  1  0  0  3  0  0  0  0  0  0
  196.2710  176.4390  142.5130 N   0  0  0  0  0  0  0  0  0  0  0  0
  195.6230  175.8210  143.6190 C   0  0  0  0  0  0  0  0  0  0  0  0
  196.5290  175.5250  141.6370 C   0  0  0  0  0  3  0  0  0  0  0  0
  190.8710  172.5840  144.2350 S   0  0  0  0  0  0  0  0  0  0  0  0
  191.5300  171.2420  144.0640 O   0  0  0  0  0  0  0  0  0  0  0  0
  189.6830  172.4040  145.1380 O   0  0  0  0  0  0  0  0  0  0  0  0
  189.0110  173.6910  140.0950 C   0  0  0  0  0  0  0  0  0  0  0  0
  188.2340  174.3360  138.6620 Cl  0  0  0  0  0  0  0  0  0  0  0  0
  190.5020  173.4720  140.0530 C   0  0  0  0  0  2  0  0  0  0  0  0
  191.0880  172.2650  141.2870 S   0  0  0  0  0  0  0  0  0  0  0  0
  188.2820  173.5710  141.2150 C   0  0  0  0  0  3  0  0  0  0  0  0
  190.3090  173.1890  142.6460 C   0  0  1  0  0  3  0  0  0  0  0  0
  188.8030  173.0290  142.5190 C   0  0  0  0  0  2  0  0  0  0  0  0
  190.5580  175.5270  144.2560 O   0  0  0  0  0  0  0  0  0  0  0  0
  190.5860  176.9150  144.1060 C   0  0  0  0  0  2  0  0  0  0  0  0
  189.2910  177.5150  144.6210 C   0  0  0  0  0  2  0  0  0  0  0  0
  188.1590  176.5080  144.4940 C   0  0  0  0  0  2  0  0  0  0  0  0
  188.0700  175.9840  146.9030 C   0  0  0  0  0  1  0  0  0  0  0  0
  187.2770  176.5260  145.7340 C   0  0  1  0  0  3  0  0  0  0  0  0
  186.8430  177.9470  146.0530 C   0  0  0  0  0  2  0  0  0  0  0  0
  184.6670  178.8690  146.3390 O   0  0  0  0  0  1  0  0  0  0  0  0
  185.5040  178.2580  145.4050 C   0  0  1  0  0  3  0  0  0  0  0  0
  185.7000  179.1840  144.2170 C   0  0  0  0  0  2  0  0  0  0  0  0
  185.2460  178.5160  142.9590 C   0  0  0  0  0  0  0  0  0  0  0  0
  184.0990  177.9970  142.9220 O   0  0  0  0  0  0  0  0  0  0  0  0
  186.1340  178.4320  141.7860 C   0  0  0  0  0  0  0  0  0  0  0  0
  187.3750  178.6170  141.9210 O   0  0  0  0  0  0  0  0  0  0  0  0
  186.1810  177.3220  139.6530 N   0  0  0  0  0  2  0  0  0  0  0  0
  185.5780  178.1300  140.4610 C   0  0  0  0  0  3  0  0  0  0  0  0
  1  3  1  1  0  0  0
  1  2  1  0  0  0  0
  2  6  1  0  0  0  0
  2  4  1  6  0  0  0
  3  5  1  0  0  0  0
  5 24  1  6  0  0  0
  5  6  1  0  0  0  0
  6 14  1  6  0  0  0
  7  9  2  0  0  0  0
 10  9  1  6  0  0  0
 10  1  1  0  0  0  0
 10 12  1  0  0  0  0
 11 12  1  0  0  0  0
 12  8  2  0  0  0  0
 13  9  1  0  0  0  0
 13 11  2  0  0  0  0
 14 16  2  0  0  0  0
 15 14  2  0  0  0  0
 17 21  2  0  0  0  0
 18 17  1  0  0  0  0
 19 17  1  0  0  0  0
 19 20  1  0  0  0  0
 20 22  1  0  0  0  0
 21 23  1  0  0  0  0
 22 14  1  1  0  0  0
 23 22  1  0  0  0  0
 25 24  1  0  0  0  0
 25 26  1  0  0  0  0
 27 26  1  0  0  0  0
 27 29  1  0  0  0  0
 29 30  1  0  0  0  0
 29 28  1  1  0  0  0
 32 30  1  0  0  0  0
 32 31  1  1  0  0  0
 33 32  1  0  0  0  0
 34 33  1  0  0  0  0
 35 34  2  0  0  0  0
 36 37  2  0  0  0  0
 36 34  1  0  0  0  0
 38 39  2  0  0  0  0
 39 36  1  0  0  0  0
M  END
>  <MODEL>
4

>  <REMARK>
 VINA RESULT:      -6.3      1.488      1.920
  Name = 
  14 active torsions:
  status: ('A' for Active; 'I' for Inactive)
    1  A    between atoms: C_1  and  C_10
    2  A    between atoms: C_1  and  C_34
    3  A    between atoms: S_4  and  C_33
    4  A    between atoms: S_4  and  C_38
    5  A    between atoms: C_8  and  C_13
    6  A    between atoms: C_10  and  C_36
    7  A    between atoms: C_17  and  C_26
    8  A    between atoms: C_17  and  C_34
    9  A    between atoms: O_20  and  C_27
   10  A    between atoms: O_20  and  C_32
   11  A    between atoms: C_21  and  C_25
   12  A    between atoms: C_21  and  C_27
   13  A    between atoms: C_23  and  C_25
   14  A    between atoms: C_23  and  C_26
                            x       y       z     vdW  Elec       q    Type
                         _______ _______ _______ _____ _____    ______ ____

>  <TORSDO>
F 14

$$$$
=
 OpenBabel11072409163D

 39 41  0  0  1  0  0  0  0  0999 V2000
  192.6840  175.1300  143.3610 C   0  0  1  0  0  3  0  0  0  0  0  0
  193.0930  174.0440  144.3570 C   0  0  2  0  0  3  0  0  0  0  0  0
  191.0810  175.8340  143.8760 S   0  0  0  0  0  0  0  0  0  0  0  0
  194.0320  173.0080  143.7630 C   0  0  0  0  0  1  0  0  0  0  0  0
  190.9660  174.6930  145.2880 C   0  0  2  0  0  3  0  0  0  0  0  0
  191.8390  173.4710  145.0080 C   0  0  1  0  0  3  0  0  0  0  0  0
  194.3730  177.0020  145.4580 C   0  0  0  0  0  2  0  0  0  0  0  0
  194.4040  175.6990  140.9010 O   0  0  0  0  0  0  0  0  0  0  0  0
  194.6650  176.4020  144.3140 C   0  0  0  0  0  0  0  0  0  0  0  0
  193.7180  176.2540  143.1670 C   0  0  1  0  0  3  0  0  0  0  0  0
  196.0470  175.9100  142.5770 N   0  0  0  0  0  0  0  0  0  0  0  0
  194.7060  175.9230  142.1030 C   0  0  0  0  0  0  0  0  0  0  0  0
  196.0310  176.1960  143.8370 C   0  0  0  0  0  3  0  0  0  0  0  0
  190.9850  172.1990  144.0370 S   0  0  0  0  0  0  0  0  0  0  0  0
  191.8890  171.0150  143.8320 O   0  0  0  0  0  0  0  0  0  0  0  0
  189.7890  171.7370  144.8220 O   0  0  0  0  0  0  0  0  0  0  0  0
  189.2630  173.2850  139.8320 C   0  0  0  0  0  0  0  0  0  0  0  0
  188.4820  173.8900  138.3840 Cl  0  0  0  0  0  0  0  0  0  0  0  0
  190.7660  173.3730  139.9150 C   0  0  0  0  0  2  0  0  0  0  0  0
  191.4910  172.2010  141.1080 S   0  0  0  0  0  0  0  0  0  0  0  0
  188.4890  172.9200  140.8660 C   0  0  0  0  0  3  0  0  0  0  0  0
  190.4340  172.8230  142.4510 C   0  0  1  0  0  3  0  0  0  0  0  0
  189.0090  172.3770  142.1700 C   0  0  0  0  0  2  0  0  0  0  0  0
  189.6350  174.3600  145.5440 O   0  0  0  0  0  0  0  0  0  0  0  0
  189.4340  174.6960  146.8850 C   0  0  0  0  0  2  0  0  0  0  0  0
  189.0960  176.1700  147.0010 C   0  0  0  0  0  2  0  0  0  0  0  0
  187.5910  176.3710  146.9280 C   0  0  0  0  0  2  0  0  0  0  0  0
  188.4110  177.8630  145.1410 C   0  0  0  0  0  1  0  0  0  0  0  0
  187.2040  177.1050  145.6520 C   0  0  1  0  0  3  0  0  0  0  0  0
  186.7610  176.1160  144.5870 C   0  0  0  0  0  2  0  0  0  0  0  0
  187.7220  175.6290  142.4640 O   0  0  0  0  0  1  0  0  0  0  0  0
  187.0960  176.6360  143.1980 C   0  0  1  0  0  3  0  0  0  0  0  0
  185.8280  177.0720  142.4840 C   0  0  0  0  0  2  0  0  0  0  0  0
  185.4810  178.4780  142.8570 C   0  0  0  0  0  0  0  0  0  0  0  0
  186.2900  179.4030  142.5780 O   0  0  0  0  0  0  0  0  0  0  0  0
  184.2290  178.7830  143.5710 C   0  0  0  0  0  0  0  0  0  0  0  0
  183.1190  178.6290  142.9900 O   0  0  0  0  0  0  0  0  0  0  0  0
  183.9600  178.4860  145.9420 N   0  0  0  0  0  2  0  0  0  0  0  0
  184.2690  179.2640  144.9580 C   0  0  0  0  0  3  0  0  0  0  0  0
  1  3  1  1  0  0  0
  1  2  1  0  0  0  0
  2  4  1  6  0  0  0
  2  6  1  0  0  0  0
  3  5  1  0  0  0  0
  5 24  1  6  0  0  0
  6 14  1  6  0  0  0
  6  5  1  0  0  0  0
  8 12  2  0  0  0  0
  9  7  2  0  0  0  0
 10 12  1  6  0  0  0
 10  1  1  0  0  0  0
 10  9  1  0  0  0  0
 11 13  2  0  0  0  0
 12 11  1  0  0  0  0
 13  9  1  0  0  0  0
 14 16  2  0  0  0  0
 15 14  2  0  0  0  0
 17 19  1  0  0  0  0
 17 21  2  0  0  0  0
 18 17  1  0  0  0  0
 19 20  1  0  0  0  0
 20 22  1  0  0  0  0
 21 23  1  0  0  0  0
 22 14  1  1  0  0  0
 23 22  1  0  0  0  0
 24 25  1  0  0  0  0
 25 26  1  0  0  0  0
 27 26  1  0  0  0  0
 29 28  1  6  0  0  0
 29 27  1  0  0  0  0
 30 29  1  0  0  0  0
 32 31  1  6  0  0  0
 32 30  1  0  0  0  0
 33 34  1  0  0  0  0
 33 32  1  0  0  0  0
 34 36  1  0  0  0  0
 35 34  2  0  0  0  0
 36 39  1  0  0  0  0
 37 36  2  0  0  0  0
 39 38  2  0  0  0  0
M  END
>  <MODEL>
5

>  <REMARK>
 VINA RESULT:      -6.2      1.365      2.139
  Name = 
  14 active torsions:
  status: ('A' for Active; 'I' for Inactive)
    1  A    between atoms: C_1  and  C_10
    2  A    between atoms: C_1  and  C_34
    3  A    between atoms: S_4  and  C_33
    4  A    between atoms: S_4  and  C_38
    5  A    between atoms: C_8  and  C_13
    6  A    between atoms: C_10  and  C_36
    7  A    between atoms: C_17  and  C_26
    8  A    between atoms: C_17  and  C_34
    9  A    between atoms: O_20  and  C_27
   10  A    between atoms: O_20  and  C_32
   11  A    between atoms: C_21  and  C_25
   12  A    between atoms: C_21  and  C_27
   13  A    between atoms: C_23  and  C_25
   14  A    between atoms: C_23  and  C_26
                            x       y       z     vdW  Elec       q    Type
                         _______ _______ _______ _____ _____    ______ ____

>  <TORSDO>
F 14

$$$$
=
 OpenBabel11072409163D

 39 41  0  0  1  0  0  0  0  0999 V2000
  191.7310  174.2550  144.5550 C   0  0  1  0  0  3  0  0  0  0  0  0
  190.2470  174.0230  144.8420 C   0  0  2  0  0  3  0  0  0  0  0  0
  191.9080  175.7410  143.5100 S   0  0  0  0  0  0  0  0  0  0  0  0
  189.9170  172.5730  145.1570 C   0  0  0  0  0  1  0  0  0  0  0  0
  190.1050  175.9710  143.4310 C   0  0  2  0  0  3  0  0  0  0  0  0
  189.4230  174.6360  143.7150 C   0  0  1  0  0  3  0  0  0  0  0  0
  194.7340  173.1520  145.2810 C   0  0  0  0  0  2  0  0  0  0  0  0
  191.5570  176.3280  146.7920 O   0  0  0  0  0  0  0  0  0  0  0  0
  194.0840  174.2830  145.5120 C   0  0  0  0  0  0  0  0  0  0  0  0
  192.6210  174.3780  145.8050 C   0  0  1  0  0  3  0  0  0  0  0  0
  193.8830  176.3570  146.4220 N   0  0  0  0  0  0  0  0  0  0  0  0
  192.5960  175.7540  146.3730 C   0  0  0  0  0  0  0  0  0  0  0  0
  194.7390  175.5160  145.9430 C   0  0  0  0  0  3  0  0  0  0  0  0
  189.2560  173.5980  142.2370 S   0  0  0  0  0  0  0  0  0  0  0  0
  188.6220  172.2830  142.5990 O   0  0  0  0  0  0  0  0  0  0  0  0
  188.3420  174.3020  141.2730 O   0  0  0  0  0  0  0  0  0  0  0  0
  193.0470  172.5730  139.7060 C   0  0  0  0  0  0  0  0  0  0  0  0
  194.5050  172.4570  138.7390 Cl  0  0  0  0  0  0  0  0  0  0  0  0
  193.0780  172.0090  141.1040 C   0  0  0  0  0  2  0  0  0  0  0  0
  191.4230  171.6190  141.7600 S   0  0  0  0  0  0  0  0  0  0  0  0
  192.0220  173.2950  139.2270 C   0  0  0  0  0  3  0  0  0  0  0  0
  190.8330  173.3090  141.4380 C   0  0  1  0  0  3  0  0  0  0  0  0
  190.7060  173.4820  139.9330 C   0  0  0  0  0  2  0  0  0  0  0  0
  189.7330  176.5190  142.2010 O   0  0  0  0  0  0  0  0  0  0  0  0
  189.0990  177.7200  142.5230 C   0  0  0  0  0  2  0  0  0  0  0  0
  188.1530  178.1180  141.4050 C   0  0  0  0  0  2  0  0  0  0  0  0
  186.8720  177.3030  141.4850 C   0  0  0  0  0  2  0  0  0  0  0  0
  184.8290  178.3590  140.5910 C   0  0  0  0  0  1  0  0  0  0  0  0
  185.6850  178.1920  141.8280 C   0  0  1  0  0  3  0  0  0  0  0  0
  184.8450  177.5530  142.9220 C   0  0  0  0  0  2  0  0  0  0  0  0
  184.3190  178.1440  145.1660 O   0  0  0  0  0  1  0  0  0  0  0  0
  185.3850  177.9190  144.2950 C   0  0  1  0  0  3  0  0  0  0  0  0
  186.2510  176.7930  144.8320 C   0  0  0  0  0  2  0  0  0  0  0  0
  187.0900  177.2820  145.9690 C   0  0  0  0  0  0  0  0  0  0  0  0
  188.2930  177.5900  145.7530 O   0  0  0  0  0  0  0  0  0  0  0  0
  186.5370  177.3730  147.3310 C   0  0  0  0  0  0  0  0  0  0  0  0
  186.0750  176.3420  147.8940 O   0  0  0  0  0  0  0  0  0  0  0  0
  185.9450  179.6960  147.5240 N   0  0  0  0  0  2  0  0  0  0  0  0
  186.5230  178.6610  148.0370 C   0  0  0  0  0  3  0  0  0  0  0  0
  1  3  1  1  0  0  0
  1  2  1  0  0  0  0
  1 10  1  0  0  0  0
  2  4  1  6  0  0  0
  5 24  1  6  0  0  0
  5  3  1  0  0  0  0
  5  6  1  0  0  0  0
  6 14  1  6  0  0  0
  6  2  1  0  0  0  0
  7  9  2  0  0  0  0
  9 13  1  0  0  0  0
 10  9  1  6  0  0  0
 10 12  1  0  0  0  0
 12 11  1  0  0  0  0
 12  8  2  0  0  0  0
 13 11  2  0  0  0  0
 14 15  2  0  0  0  0
 16 14  2  0  0  0  0
 17 19  1  0  0  0  0
 18 17  1  0  0  0  0
 19 20  1  0  0  0  0
 21 17  2  0  0  0  0
 21 23  1  0  0  0  0
 22 20  1  0  0  0  0
 22 14  1  1  0  0  0
 23 22  1  0  0  0  0
 24 25  1  0  0  0  0
 26 27  1  0  0  0  0
 26 25  1  0  0  0  0
 27 29  1  0  0  0  0
 29 28  1  6  0  0  0
 29 30  1  0  0  0  0
 30 32  1  0  0  0  0
 32 33  1  0  0  0  0
 32 31  1  1  0  0  0
 33 34  1  0  0  0  0
 34 36  1  0  0  0  0
 35 34  2  0  0  0  0
 36 37  2  0  0  0  0
 36 39  1  0  0  0  0
 38 39  2  0  0  0  0
M  END
>  <MODEL>
6

>  <REMARK>
 VINA RESULT:      -6.1      2.665      4.274
  Name = 
  14 active torsions:
  status: ('A' for Active; 'I' for Inactive)
    1  A    between atoms: C_1  and  C_10
    2  A    between atoms: C_1  and  C_34
    3  A    between atoms: S_4  and  C_33
    4  A    between atoms: S_4  and  C_38
    5  A    between atoms: C_8  and  C_13
    6  A    between atoms: C_10  and  C_36
    7  A    between atoms: C_17  and  C_26
    8  A    between atoms: C_17  and  C_34
    9  A    between atoms: O_20  and  C_27
   10  A    between atoms: O_20  and  C_32
   11  A    between atoms: C_21  and  C_25
   12  A    between atoms: C_21  and  C_27
   13  A    between atoms: C_23  and  C_25
   14  A    between atoms: C_23  and  C_26
                            x       y       z     vdW  Elec       q    Type
                         _______ _______ _______ _____ _____    ______ ____

>  <TORSDO>
F 14

$$$$
=
 OpenBabel11072409163D

 39 41  0  0  1  0  0  0  0  0999 V2000
  194.0030  173.6640  143.5940 C   0  0  1  0  0  3  0  0  0  0  0  0
  193.2360  172.9730  144.7220 C   0  0  2  0  0  3  0  0  0  0  0  0
  193.0140  175.0680  142.9770 S   0  0  0  0  0  0  0  0  0  0  0  0
  193.6200  171.5140  144.9040 C   0  0  0  0  0  1  0  0  0  0  0  0
  191.6530  174.6900  144.1240 C   0  0  2  0  0  3  0  0  0  0  0  0
  191.7430  173.2210  144.5300 C   0  0  1  0  0  3  0  0  0  0  0  0
  195.1810  175.4330  146.0930 C   0  0  0  0  0  2  0  0  0  0  0  0
  196.6790  172.5110  142.6740 O   0  0  0  0  0  0  0  0  0  0  0  0
  195.6070  174.3640  145.4360 C   0  0  0  0  0  0  0  0  0  0  0  0
  195.4190  174.1380  143.9700 C   0  0  1  0  0  3  0  0  0  0  0  0
  197.1290  172.7400  144.9760 N   0  0  0  0  0  0  0  0  0  0  0  0
  196.4330  173.0650  143.7780 C   0  0  0  0  0  0  0  0  0  0  0  0
  196.6700  173.4880  145.9230 C   0  0  0  0  0  3  0  0  0  0  0  0
  190.9280  172.1090  143.3510 S   0  0  0  0  0  0  0  0  0  0  0  0
  191.6220  170.7750  143.3370 O   0  0  0  0  0  0  0  0  0  0  0  0
  189.5150  171.8910  143.8170 O   0  0  0  0  0  0  0  0  0  0  0  0
  190.4840  173.4170  138.8880 C   0  0  0  0  0  0  0  0  0  0  0  0
  190.1980  174.1300  137.3130 Cl  0  0  0  0  0  0  0  0  0  0  0  0
  191.9130  173.2110  139.3220 C   0  0  0  0  0  2  0  0  0  0  0  0
  192.0960  171.9460  140.6220 S   0  0  0  0  0  0  0  0  0  0  0  0
  189.4340  173.2330  139.7040 C   0  0  0  0  0  3  0  0  0  0  0  0
  190.8970  172.7930  141.6960 C   0  0  1  0  0  3  0  0  0  0  0  0
  189.5170  172.6290  141.0790 C   0  0  0  0  0  2  0  0  0  0  0  0
  190.4230  175.0190  143.5520 O   0  0  0  0  0  0  0  0  0  0  0  0
  190.3180  176.4030  143.7030 C   0  0  0  0  0  2  0  0  0  0  0  0
  190.6900  176.7960  145.1200 C   0  0  0  0  0  2  0  0  0  0  0  0
  189.4760  177.3530  145.8470 C   0  0  0  0  0  2  0  0  0  0  0  0
  189.0070  175.2190  146.9940 C   0  0  0  0  0  1  0  0  0  0  0  0
  188.4310  176.2680  146.0670 C   0  0  1  0  0  3  0  0  0  0  0  0
  187.1850  176.8570  146.7080 C   0  0  0  0  0  2  0  0  0  0  0  0
  184.8490  176.4770  146.4590 O   0  0  0  0  0  1  0  0  0  0  0  0
  186.0070  176.7930  145.7500 C   0  0  1  0  0  3  0  0  0  0  0  0
  185.8280  178.1300  145.0530 C   0  0  0  0  0  2  0  0  0  0  0  0
  185.5730  177.9250  143.5940 C   0  0  0  0  0  0  0  0  0  0  0  0
  184.3840  177.9070  143.1770 O   0  0  0  0  0  0  0  0  0  0  0  0
  186.6880  177.7110  142.6560 C   0  0  0  0  0  0  0  0  0  0  0  0
  187.5070  178.6440  142.4280 O   0  0  0  0  0  0  0  0  0  0  0  0
  187.1080  175.3430  142.6590 N   0  0  0  0  0  2  0  0  0  0  0  0
  186.8500  176.4150  141.9850 C   0  0  0  0  0  3  0  0  0  0  0  0
  1  3  1  1  0  0  0
  1 10  1  0  0  0  0
  1  2  1  0  0  0  0
  2  4  1  6  0  0  0
  3  5  1  0  0  0  0
  5 24  1  6  0  0  0
  5  6  1  0  0  0  0
  6 14  1  6  0  0  0
  6  2  1  0  0  0  0
  8 12  2  0  0  0  0
  9 13  1  0  0  0  0
  9  7  2  0  0  0  0
 10 12  1  1  0  0  0
 10  9  1  0  0  0  0
 11 13  2  0  0  0  0
 12 11  1  0  0  0  0
 14 16  2  0  0  0  0
 15 14  2  0  0  0  0
 17 19  1  0  0  0  0
 17 21  2  0  0  0  0
 18 17  1  0  0  0  0
 19 20  1  0  0  0  0
 20 22  1  0  0  0  0
 21 23  1  0  0  0  0
 22 14  1  1  0  0  0
 23 22  1  0  0  0  0
 24 25  1  0  0  0  0
 25 26  1  0  0  0  0
 26 27  1  0  0  0  0
 27 29  1  0  0  0  0
 29 30  1  0  0  0  0
 29 28  1  1  0  0  0
 32 31  1  1  0  0  0
 32 30  1  0  0  0  0
 33 32  1  0  0  0  0
 34 33  1  0  0  0  0
 35 34  2  0  0  0  0
 36 34  1  0  0  0  0
 37 36  2  0  0  0  0
 39 36  1  0  0  0  0
 39 38  2  0  0  0  0
M  END
>  <MODEL>
7

>  <REMARK>
 VINA RESULT:      -6.0      1.814      2.173
  Name = 
  14 active torsions:
  status: ('A' for Active; 'I' for Inactive)
    1  A    between atoms: C_1  and  C_10
    2  A    between atoms: C_1  and  C_34
    3  A    between atoms: S_4  and  C_33
    4  A    between atoms: S_4  and  C_38
    5  A    between atoms: C_8  and  C_13
    6  A    between atoms: C_10  and  C_36
    7  A    between atoms: C_17  and  C_26
    8  A    between atoms: C_17  and  C_34
    9  A    between atoms: O_20  and  C_27
   10  A    between atoms: O_20  and  C_32
   11  A    between atoms: C_21  and  C_25
   12  A    between atoms: C_21  and  C_27
   13  A    between atoms: C_23  and  C_25
   14  A    between atoms: C_23  and  C_26
                            x       y       z     vdW  Elec       q    Type
                         _______ _______ _______ _____ _____    ______ ____

>  <TORSDO>
F 14

$$$$
=
 OpenBabel11072409163D

 39 41  0  0  1  0  0  0  0  0999 V2000
  188.8480  176.5760  145.7210 C   0  0  1  0  0  3  0  0  0  0  0  0
  189.4200  175.1650  145.5680 C   0  0  2  0  0  3  0  0  0  0  0  0
  189.6470  177.6750  144.5030 S   0  0  0  0  0  0  0  0  0  0  0  0
  189.3160  174.3350  146.8360 C   0  0  0  0  0  1  0  0  0  0  0  0
  190.7070  176.3280  143.8940 C   0  0  2  0  0  3  0  0  0  0  0  0
  190.8240  175.2610  144.9800 C   0  0  1  0  0  3  0  0  0  0  0  0
  186.5460  178.0780  147.5110 C   0  0  0  0  0  2  0  0  0  0  0  0
  187.1310  176.1150  143.2360 O   0  0  0  0  0  0  0  0  0  0  0  0
  186.7390  177.9040  146.2110 C   0  0  0  0  0  0  0  0  0  0  0  0
  187.3170  176.6700  145.5960 C   0  0  1  0  0  3  0  0  0  0  0  0
  186.1370  178.0990  144.0280 N   0  0  0  0  0  0  0  0  0  0  0  0
  186.8870  176.9010  144.1890 C   0  0  0  0  0  0  0  0  0  0  0  0
  186.0390  178.6700  145.1830 C   0  0  0  0  0  3  0  0  0  0  0  0
  192.1350  175.6170  146.1830 S   0  0  0  0  0  0  0  0  0  0  0  0
  192.7120  176.9820  145.9270 O   0  0  0  0  0  0  0  0  0  0  0  0
  191.5190  175.6250  147.5540 O   0  0  0  0  0  0  0  0  0  0  0  0
  195.7530  172.7250  145.5760 C   0  0  0  0  0  0  0  0  0  0  0  0
  197.1910  171.7230  145.5950 Cl  0  0  0  0  0  0  0  0  0  0  0  0
  194.4120  172.0370  145.5380 C   0  0  0  0  0  2  0  0  0  0  0  0
  193.0740  173.1020  144.9050 S   0  0  0  0  0  0  0  0  0  0  0  0
  195.8970  174.0470  145.7590 C   0  0  0  0  0  3  0  0  0  0  0  0
  193.4390  174.3900  146.1370 C   0  0  1  0  0  3  0  0  0  0  0  0
  194.7630  175.0360  145.7620 C   0  0  0  0  0  2  0  0  0  0  0  0
  191.9470  176.8240  143.4860 O   0  0  0  0  0  0  0  0  0  0  0  0
  192.3910  175.9220  142.5170 C   0  0  0  0  0  2  0  0  0  0  0  0
  193.8950  176.0400  142.3550 C   0  0  0  0  0  2  0  0  0  0  0  0
  194.4600  174.7630  141.7560 C   0  0  0  0  0  2  0  0  0  0  0  0
  194.6660  175.1360  139.3250 C   0  0  0  0  0  1  0  0  0  0  0  0
  193.8300  174.4750  140.4000 C   0  0  1  0  0  3  0  0  0  0  0  0
  193.7950  172.9780  140.1410 C   0  0  0  0  0  2  0  0  0  0  0  0
  192.0850  171.9620  141.4490 O   0  0  0  0  0  1  0  0  0  0  0  0
  192.3660  172.4610  140.1770 C   0  0  1  0  0  3  0  0  0  0  0  0
  191.3960  173.5820  139.8450 C   0  0  0  0  0  2  0  0  0  0  0  0
  190.1530  173.0260  139.2290 C   0  0  0  0  0  0  0  0  0  0  0  0
  190.2170  172.5090  138.0820 O   0  0  0  0  0  0  0  0  0  0  0  0
  188.8600  173.1090  139.9300 C   0  0  0  0  0  0  0  0  0  0  0  0
  187.8150  172.6620  139.3810 O   0  0  0  0  0  0  0  0  0  0  0  0
  188.8420  172.9770  142.3320 N   0  0  0  0  0  2  0  0  0  0  0  0
  188.7840  173.7090  141.2680 C   0  0  0  0  0  3  0  0  0  0  0  0
  1  3  1  6  0  0  0
  2  1  1  0  0  0  0
  2  4  1  1  0  0  0
  5 24  1  1  0  0  0
  5  3  1  0  0  0  0
  5  6  1  0  0  0  0
  6  2  1  0  0  0  0
  6 14  1  1  0  0  0
  8 12  2  0  0  0  0
  9  7  2  0  0  0  0
 10 12  1  6  0  0  0
 10  1  1  0  0  0  0
 10  9  1  0  0  0  0
 11 12  1  0  0  0  0
 11 13  2  0  0  0  0
 13  9  1  0  0  0  0
 14 16  2  0  0  0  0
 15 14  2  0  0  0  0
 17 18  1  0  0  0  0
 17 21  2  0  0  0  0
 19 17  1  0  0  0  0
 20 19  1  0  0  0  0
 20 22  1  0  0  0  0
 21 23  1  0  0  0  0
 22 14  1  6  0  0  0
 23 22  1  0  0  0  0
 25 24  1  0  0  0  0
 26 25  1  0  0  0  0
 27 26  1  0  0  0  0
 29 28  1  6  0  0  0
 29 27  1  0  0  0  0
 30 32  1  0  0  0  0
 30 29  1  0  0  0  0
 32 31  1  1  0  0  0
 33 32  1  0  0  0  0
 34 33  1  0  0  0  0
 34 36  1  0  0  0  0
 35 34  2  0  0  0  0
 36 39  1  0  0  0  0
 37 36  2  0  0  0  0
 39 38  2  0  0  0  0
M  END
>  <MODEL>
8

>  <REMARK>
 VINA RESULT:      -6.0      3.213      7.627
  Name = 
  14 active torsions:
  status: ('A' for Active; 'I' for Inactive)
    1  A    between atoms: C_1  and  C_10
    2  A    between atoms: C_1  and  C_34
    3  A    between atoms: S_4  and  C_33
    4  A    between atoms: S_4  and  C_38
    5  A    between atoms: C_8  and  C_13
    6  A    between atoms: C_10  and  C_36
    7  A    between atoms: C_17  and  C_26
    8  A    between atoms: C_17  and  C_34
    9  A    between atoms: O_20  and  C_27
   10  A    between atoms: O_20  and  C_32
   11  A    between atoms: C_21  and  C_25
   12  A    between atoms: C_21  and  C_27
   13  A    between atoms: C_23  and  C_25
   14  A    between atoms: C_23  and  C_26
                            x       y       z     vdW  Elec       q    Type
                         _______ _______ _______ _____ _____    ______ ____

>  <TORSDO>
F 14

$$$$
=
 OpenBabel11072409163D

 39 41  0  0  1  0  0  0  0  0999 V2000
  187.5510  177.3670  144.9540 C   0  0  1  0  0  3  0  0  0  0  0  0
  188.1250  176.1370  145.6590 C   0  0  2  0  0  3  0  0  0  0  0  0
  188.1130  177.3720  143.2180 S   0  0  0  0  0  0  0  0  0  0  0  0
  188.2500  176.3120  147.1630 C   0  0  0  0  0  1  0  0  0  0  0  0
  189.0930  175.8600  143.4690 C   0  0  2  0  0  3  0  0  0  0  0  0
  189.4120  175.7190  144.9550 C   0  0  1  0  0  3  0  0  0  0  0  0
  185.5180  179.0410  146.9090 C   0  0  0  0  0  2  0  0  0  0  0  0
  185.5270  176.7860  142.7400 O   0  0  0  0  0  0  0  0  0  0  0  0
  185.5430  178.7770  145.6110 C   0  0  0  0  0  0  0  0  0  0  0  0
  186.0180  177.4910  145.0140 C   0  0  1  0  0  3  0  0  0  0  0  0
  184.6730  178.8420  143.5110 N   0  0  0  0  0  0  0  0  0  0  0  0
  185.4170  177.6390  143.6600 C   0  0  0  0  0  0  0  0  0  0  0  0
  184.7310  179.4900  144.6280 C   0  0  0  0  0  3  0  0  0  0  0  0
  190.8920  176.6430  145.4530 S   0  0  0  0  0  0  0  0  0  0  0  0
  190.9910  177.9200  144.6640 O   0  0  0  0  0  0  0  0  0  0  0  0
  190.7480  177.0060  146.9040 O   0  0  0  0  0  0  0  0  0  0  0  0
  194.6130  173.8180  145.3880 C   0  0  0  0  0  0  0  0  0  0  0  0
  195.9150  172.6760  145.1220 Cl  0  0  0  0  0  0  0  0  0  0  0  0
  194.9620  175.2830  145.4720 C   0  0  0  0  0  2  0  0  0  0  0  0
  193.7040  176.2740  146.3430 S   0  0  0  0  0  0  0  0  0  0  0  0
  193.3500  173.3650  145.3440 C   0  0  0  0  0  3  0  0  0  0  0  0
  192.3870  175.6810  145.2380 C   0  0  1  0  0  3  0  0  0  0  0  0
  192.1290  174.2180  145.5590 C   0  0  0  0  0  2  0  0  0  0  0  0
  190.2370  175.8780  142.6690 O   0  0  0  0  0  0  0  0  0  0  0  0
  190.1590  174.7100  141.9080 C   0  0  0  0  0  2  0  0  0  0  0  0
  188.7410  174.1710  141.9370 C   0  0  0  0  0  2  0  0  0  0  0  0
  188.7570  172.6640  142.1400 C   0  0  0  0  0  2  0  0  0  0  0  0
  189.5930  171.9200  144.3390 C   0  0  0  0  0  1  0  0  0  0  0  0
  189.9950  172.2350  142.9140 C   0  0  1  0  0  3  0  0  0  0  0  0
  190.6030  170.9890  142.2900 C   0  0  0  0  0  2  0  0  0  0  0  0
  192.9390  170.5570  142.1460 O   0  0  0  0  0  1  0  0  0  0  0  0
  191.9120  171.3220  141.5940 C   0  0  1  0  0  3  0  0  0  0  0  0
  191.8020  171.0270  140.1080 C   0  0  0  0  0  2  0  0  0  0  0  0
  191.3430  172.2450  139.3710 C   0  0  0  0  0  0  0  0  0  0  0  0
  192.1080  173.2430  139.3020 O   0  0  0  0  0  0  0  0  0  0  0  0
  190.0030  172.2980  138.7610 C   0  0  0  0  0  0  0  0  0  0  0  0
  189.3240  171.2410  138.6380 O   0  0  0  0  0  0  0  0  0  0  0  0
  189.4930  173.9070  137.0480 N   0  0  0  0  0  2  0  0  0  0  0  0
  189.4540  173.5780  138.2970 C   0  0  0  0  0  3  0  0  0  0  0  0
  1  3  1  6  0  0  0
  1 10  1  0  0  0  0
  1  2  1  0  0  0  0
  2  4  1  1  0  0  0
  3  5  1  0  0  0  0
  5 24  1  6  0  0  0
  5  6  1  0  0  0  0
  6 14  1  1  0  0  0
  6  2  1  0  0  0  0
  8 12  2  0  0  0  0
  9  7  2  0  0  0  0
 10 12  1  6  0  0  0
 10  9  1  0  0  0  0
 11 12  1  0  0  0  0
 11 13  2  0  0  0  0
 13  9  1  0  0  0  0
 14 16  2  0  0  0  0
 15 14  2  0  0  0  0
 17 19  1  0  0  0  0
 18 17  1  0  0  0  0
 19 20  1  0  0  0  0
 21 17  2  0  0  0  0
 21 23  1  0  0  0  0
 22 14  1  1  0  0  0
 22 23  1  0  0  0  0
 22 20  1  0  0  0  0
 25 26  1  0  0  0  0
 25 24  1  0  0  0  0
 26 27  1  0  0  0  0
 27 29  1  0  0  0  0
 29 28  1  1  0  0  0
 30 29  1  0  0  0  0
 32 31  1  1  0  0  0
 32 30  1  0  0  0  0
 33 32  1  0  0  0  0
 34 33  1  0  0  0  0
 35 34  2  0  0  0  0
 36 34  1  0  0  0  0
 37 36  2  0  0  0  0
 38 39  2  0  0  0  0
 39 36  1  0  0  0  0
M  END
>  <MODEL>
9

>  <REMARK>
 VINA RESULT:      -5.9      3.254      7.825
  Name = 
  14 active torsions:
  status: ('A' for Active; 'I' for Inactive)
    1  A    between atoms: C_1  and  C_10
    2  A    between atoms: C_1  and  C_34
    3  A    between atoms: S_4  and  C_33
    4  A    between atoms: S_4  and  C_38
    5  A    between atoms: C_8  and  C_13
    6  A    between atoms: C_10  and  C_36
    7  A    between atoms: C_17  and  C_26
    8  A    between atoms: C_17  and  C_34
    9  A    between atoms: O_20  and  C_27
   10  A    between atoms: O_20  and  C_32
   11  A    between atoms: C_21  and  C_25
   12  A    between atoms: C_21  and  C_27
   13  A    between atoms: C_23  and  C_25
   14  A    between atoms: C_23  and  C_26
                            x       y       z     vdW  Elec       q    Type
                         _______ _______ _______ _____ _____    ______ ____

>  <TORSDO>
F 14

$$$$
