=
 OpenBabel11062422373D

 44 46  0  0  1  0  0  0  0  0999 V2000
  190.6540  174.8190  143.7650 C   0  0  0  0  0  2  0  0  0  0  0  0
  190.6880  172.6080  144.7900 O   0  0  0  0  0  1  0  0  0  0  0  0
  190.0130  173.4350  143.8870 C   0  0  2  0  0  3  0  0  0  0  0  0
  189.8540  172.6360  142.2970 S   0  0  0  0  0  0  0  0  0  0  0  0
  190.0010  171.1500  142.4780 O   0  0  0  0  0  0  0  0  0  0  0  0
  190.9280  173.1230  141.3650 O   0  0  0  0  0  0  0  0  0  0  0  0
  188.2610  172.9770  141.5510 C   0  0  0  0  0  2  0  0  0  0  0  0
  187.9140  175.4690  141.6050 N   0  0  0  0  0  2  0  0  0  0  0  0
  188.3960  174.3790  139.5990 O   0  0  0  0  0  0  0  0  0  0  0  0
  188.1930  174.2950  140.8410 C   0  0  0  0  0  0  0  0  0  0  0  0
  187.7600  176.7740  140.9810 C   0  0  0  0  0  2  0  0  0  0  0  0
  186.1360  177.4810  141.4010 S   0  0  0  0  0  0  0  0  0  0  0  0
  186.8260  178.6060  142.6630 C   0  0  0  0  0  2  0  0  0  0  0  0
  188.1270  177.7120  144.5870 C   0  0  0  0  0  1  0  0  0  0  0  0
  185.9420  176.9030  144.0930 O   0  0  0  0  0  1  0  0  0  0  0  0
  186.7300  178.0560  144.0890 C   0  0  2  0  0  0  0  0  0  0  0  0
  186.1000  179.1310  145.0000 C   0  0  1  0  0  3  0  0  0  0  0  0
  185.2620  180.1500  144.2320 C   0  0  0  0  0  1  0  0  0  0  0  0
  184.0130  178.4440  146.1240 C   0  0  0  0  0  2  0  0  0  0  0  0
  185.3370  178.5770  146.1800 C   0  0  0  0  0  0  0  0  0  0  0  0
  186.0080  176.7950  147.8310 N   0  0  0  0  0  1  0  0  0  0  0  0
  186.0700  178.1480  147.3850 C   0  0  0  0  0  0  0  0  0  0  0  0
  186.7610  178.9780  148.0340 O   0  0  0  0  0  0  0  0  0  0  0  0
  192.1780  174.8560  143.8470 C   0  0  0  0  0  2  0  0  0  0  0  0
  193.9580  175.2490  145.6570 N   0  0  0  0  0  2  0  0  0  0  0  0
  192.6680  175.5270  145.0900 C   0  0  0  0  0  0  0  0  0  0  0  0
  191.9360  176.3890  145.6410 O   0  0  0  0  0  0  0  0  0  0  0  0
  194.9270  174.2240  145.2550 C   0  0  2  0  0  0  0  0  0  0  0  0
  195.4960  176.9870  144.2770 O   0  0  0  0  0  1  0  0  0  0  0  0
  197.0570  172.1200  145.6960 C   0  0  0  0  0  2  0  0  0  0  0  0
  197.1600  171.7690  144.3320 O   0  0  0  0  0  0  0  0  0  0  0  0
  194.6350  171.7730  144.2810 C   0  0  1  0  0  0  0  0  0  0  0  0
  193.5970  171.5740  143.1960 C   0  0  0  0  0  1  0  0  0  0  0  0
  196.4140  176.1400  142.2330 C   0  0  0  0  0  3  0  0  0  0  0  0
  194.1430  172.8840  145.2280 C   0  0  0  0  0  2  0  0  0  0  0  0
  196.8200  175.0790  141.4240 C   0  0  0  0  0  3  0  0  0  0  0  0
  197.1410  173.6270  145.8910 C   0  0  0  0  0  2  0  0  0  0  0  0
  195.8950  174.1550  146.3020 O   0  0  0  0  0  0  0  0  0  0  0  0
  195.5510  174.5700  143.8880 C   0  0  0  0  0  0  0  0  0  0  0  0
  194.7380  170.5800  144.9970 O   0  0  0  0  0  1  0  0  0  0  0  0
  196.0300  173.5120  143.0880 C   0  0  0  0  0  0  0  0  0  0  0  0
  195.9810  172.1060  143.6080 C   0  0  1  0  0  3  0  0  0  0  0  0
  196.6470  173.7670  141.8610 C   0  0  0  0  0  3  0  0  0  0  0  0
  195.8100  175.8990  143.4700 C   0  0  0  0  0  0  0  0  0  0  0  0
  1 24  1  0  0  0  0
  1  3  1  0  0  0  0
  3  2  1  1  0  0  0
  4  5  2  0  0  0  0
  4  3  1  0  0  0  0
  6  4  2  0  0  0  0
  7  4  1  0  0  0  0
  9 10  2  0  0  0  0
 10  7  1  0  0  0  0
 10  8  1  0  0  0  0
 11 12  1  0  0  0  0
 11  8  1  0  0  0  0
 12 13  1  0  0  0  0
 13 16  1  0  0  0  0
 16 15  1  0  0  0  0
 16 14  1  1  0  0  0
 16 17  1  0  0  0  0
 17 18  1  6  0  0  0
 17 20  1  0  0  0  0
 19 20  2  0  0  0  0
 20 22  1  0  0  0  0
 22 21  1  0  0  0  0
 22 23  2  0  0  0  0
 24 26  1  0  0  0  0
 26 27  2  0  0  0  0
 26 25  1  0  0  0  0
 28 25  1  1  0  0  0
 28 38  1  0  0  0  0
 30 37  1  0  0  0  0
 31 30  1  0  0  0  0
 32 33  1  6  0  0  0
 32 40  1  0  0  0  0
 32 35  1  0  0  0  0
 34 44  1  0  0  0  0
 35 28  1  0  0  0  0
 36 43  1  0  0  0  0
 36 34  2  0  0  0  0
 37 38  1  0  0  0  0
 39 28  1  0  0  0  0
 41 39  1  0  0  0  0
 42 41  1  1  0  0  0
 42 32  1  0  0  0  0
 42 31  1  0  0  0  0
 43 41  2  0  0  0  0
 44 39  2  0  0  0  0
 44 29  1  0  0  0  0
M  END
>  <MODEL>
1

>  <REMARK>
 VINA RESULT:      -6.9      0.000      0.000
  Name = 
  14 active torsions:
  status: ('A' for Active; 'I' for Inactive)
    1  A    between atoms: C_1  and  S_20
    2  A    between atoms: C_1  and  C_28
    3  A    between atoms: S_3  and  C_12
    4  A    between atoms: S_3  and  C_41
    5  A    between atoms: C_5  and  N_13
    6  A    between atoms: C_6  and  C_23
    7  A    between atoms: C_10  and  N_15
    8  A    between atoms: C_10  and  S_20
    9  A    between atoms: C_12  and  C_32
   10  A    between atoms: C_23  and  C_26
   11  A    between atoms: C_24  and  C_41
   12  A    between atoms: C_24  and  C_43
   13  A    between atoms: C_26  and  C_28
   14  A    between atoms: C_37  and  C_43
                            x       y       z     vdW  Elec       q    Type
                         _______ _______ _______ _____ _____    ______ ____

>  <TORSDO>
F 14

$$$$
=
 OpenBabel11062422373D

 44 46  0  0  1  0  0  0  0  0999 V2000
  187.3960  177.0340  147.0820 C   0  0  0  0  0  2  0  0  0  0  0  0
  185.8850  176.1840  145.3690 O   0  0  0  0  0  1  0  0  0  0  0  0
  185.9730  176.9650  146.5250 C   0  0  2  0  0  3  0  0  0  0  0  0
  185.2930  178.5930  146.2400 S   0  0  0  0  0  0  0  0  0  0  0  0
  185.4890  179.4280  147.4750 O   0  0  0  0  0  0  0  0  0  0  0  0
  183.8220  178.4930  145.9470 O   0  0  0  0  0  0  0  0  0  0  0  0
  186.0920  179.4020  144.8550 C   0  0  0  0  0  2  0  0  0  0  0  0
  187.3970  178.0520  143.1800 N   0  0  0  0  0  2  0  0  0  0  0  0
  185.0890  178.3090  142.9590 O   0  0  0  0  0  0  0  0  0  0  0  0
  186.1380  178.5700  143.6100 C   0  0  0  0  0  0  0  0  0  0  0  0
  187.5380  177.2960  141.9450 C   0  0  0  0  0  2  0  0  0  0  0  0
  187.4910  175.5110  142.2950 S   0  0  0  0  0  0  0  0  0  0  0  0
  188.2530  175.0630  140.6970 C   0  0  0  0  0  2  0  0  0  0  0  0
  188.3750  172.8110  141.7510 C   0  0  0  0  0  1  0  0  0  0  0  0
  190.3480  173.9870  141.1250 O   0  0  0  0  0  1  0  0  0  0  0  0
  189.0280  173.7430  140.7400 C   0  0  2  0  0  0  0  0  0  0  0  0
  188.9970  173.0980  139.3370 C   0  0  1  0  0  3  0  0  0  0  0  0
  188.2000  173.9130  138.3220 C   0  0  0  0  0  1  0  0  0  0  0  0
  191.0360  173.5870  138.0360 C   0  0  0  0  0  2  0  0  0  0  0  0
  190.3560  172.7270  138.7930 C   0  0  0  0  0  0  0  0  0  0  0  0
  192.0570  170.9100  138.3990 N   0  0  0  0  0  1  0  0  0  0  0  0
  190.9450  171.4190  139.1330 C   0  0  0  0  0  0  0  0  0  0  0  0
  190.4700  170.7380  140.0790 O   0  0  0  0  0  0  0  0  0  0  0  0
  188.4810  176.3980  146.2160 C   0  0  0  0  0  2  0  0  0  0  0  0
  190.4330  174.7570  146.5160 N   0  0  0  0  0  2  0  0  0  0  0  0
  189.1220  175.2200  146.8750 C   0  0  0  0  0  0  0  0  0  0  0  0
  188.5040  174.6320  147.7990 O   0  0  0  0  0  0  0  0  0  0  0  0
  191.2890  175.2110  145.4150 C   0  0  2  0  0  0  0  0  0  0  0  0
  189.7860  172.6790  144.9190 O   0  0  0  0  0  1  0  0  0  0  0  0
  192.1970  177.0880  143.2220 C   0  0  0  0  0  2  0  0  0  0  0  0
  193.3280  176.3190  142.8690 O   0  0  0  0  0  0  0  0  0  0  0  0
  193.7860  176.1060  145.3440 C   0  0  1  0  0  0  0  0  0  0  0  0
  194.8160  175.3640  146.1700 C   0  0  0  0  0  1  0  0  0  0  0  0
  191.5880  171.7930  143.6120 C   0  0  0  0  0  3  0  0  0  0  0  0
  192.4310  176.0320  146.0730 C   0  0  0  0  0  2  0  0  0  0  0  0
  192.8310  171.9300  142.9940 C   0  0  0  0  0  3  0  0  0  0  0  0
  190.9410  176.2320  143.2940 C   0  0  0  0  0  2  0  0  0  0  0  0
  190.4940  176.0990  144.6280 O   0  0  0  0  0  0  0  0  0  0  0  0
  191.8170  174.0090  144.6050 C   0  0  0  0  0  0  0  0  0  0  0  0
  194.1850  177.4400  145.2640 O   0  0  0  0  0  1  0  0  0  0  0  0
  193.0400  174.1560  143.9170 C   0  0  0  0  0  0  0  0  0  0  0  0
  193.7500  175.4770  143.9370 C   0  0  1  0  0  3  0  0  0  0  0  0
  193.5460  173.1190  143.1300 C   0  0  0  0  0  3  0  0  0  0  0  0
  191.0630  172.8290  144.3890 C   0  0  0  0  0  0  0  0  0  0  0  0
  3  2  1  6  0  0  0
  3  1  1  0  0  0  0
  4  3  1  0  0  0  0
  4  5  2  0  0  0  0
  6  4  2  0  0  0  0
  7  4  1  0  0  0  0
  8 10  1  0  0  0  0
  9 10  2  0  0  0  0
 10  7  1  0  0  0  0
 11 12  1  0  0  0  0
 11  8  1  0  0  0  0
 13 16  1  0  0  0  0
 13 12  1  0  0  0  0
 16 15  1  0  0  0  0
 16 14  1  1  0  0  0
 17 18  1  6  0  0  0
 17 16  1  0  0  0  0
 19 20  2  0  0  0  0
 20 22  1  0  0  0  0
 20 17  1  0  0  0  0
 21 22  1  0  0  0  0
 22 23  2  0  0  0  0
 24 26  1  0  0  0  0
 24  1  1  0  0  0  0
 25 26  1  0  0  0  0
 26 27  2  0  0  0  0
 28 35  1  0  0  0  0
 28 25  1  1  0  0  0
 30 37  1  0  0  0  0
 31 30  1  0  0  0  0
 32 35  1  0  0  0  0
 32 33  1  1  0  0  0
 34 44  1  0  0  0  0
 36 43  1  0  0  0  0
 36 34  2  0  0  0  0
 37 38  1  0  0  0  0
 38 28  1  0  0  0  0
 39 28  1  0  0  0  0
 40 32  1  0  0  0  0
 41 42  1  0  0  0  0
 41 39  1  0  0  0  0
 42 31  1  6  0  0  0
 42 32  1  0  0  0  0
 43 41  2  0  0  0  0
 44 39  2  0  0  0  0
 44 29  1  0  0  0  0
M  END
>  <MODEL>
2

>  <REMARK>
 VINA RESULT:      -6.7      2.606      6.880
  Name = 
  14 active torsions:
  status: ('A' for Active; 'I' for Inactive)
    1  A    between atoms: C_1  and  S_20
    2  A    between atoms: C_1  and  C_28
    3  A    between atoms: S_3  and  C_12
    4  A    between atoms: S_3  and  C_41
    5  A    between atoms: C_5  and  N_13
    6  A    between atoms: C_6  and  C_23
    7  A    between atoms: C_10  and  N_15
    8  A    between atoms: C_10  and  S_20
    9  A    between atoms: C_12  and  C_32
   10  A    between atoms: C_23  and  C_26
   11  A    between atoms: C_24  and  C_41
   12  A    between atoms: C_24  and  C_43
   13  A    between atoms: C_26  and  C_28
   14  A    between atoms: C_37  and  C_43
                            x       y       z     vdW  Elec       q    Type
                         _______ _______ _______ _____ _____    ______ ____

>  <TORSDO>
F 14

$$$$
=
 OpenBabel11062422373D

 44 46  0  0  1  0  0  0  0  0999 V2000
  192.0180  173.7530  140.5270 C   0  0  0  0  0  2  0  0  0  0  0  0
  191.2640  173.7030  138.2100 O   0  0  0  0  0  1  0  0  0  0  0  0
  191.5860  172.9180  139.3200 C   0  0  2  0  0  3  0  0  0  0  0  0
  190.2400  171.8150  139.7260 S   0  0  0  0  0  0  0  0  0  0  0  0
  190.4270  171.3100  141.1300 O   0  0  0  0  0  0  0  0  0  0  0  0
  190.2310  170.6440  138.7830 O   0  0  0  0  0  0  0  0  0  0  0  0
  188.6570  172.6460  139.6110 C   0  0  0  0  0  2  0  0  0  0  0  0
  188.3830  174.6400  141.1210 N   0  0  0  0  0  2  0  0  0  0  0  0
  187.6140  172.5380  141.7780 O   0  0  0  0  0  0  0  0  0  0  0  0
  188.1880  173.2430  140.9030 C   0  0  0  0  0  0  0  0  0  0  0  0
  188.0220  175.2810  142.3760 C   0  0  0  0  0  2  0  0  0  0  0  0
  188.5850  177.0120  142.3790 S   0  0  0  0  0  0  0  0  0  0  0  0
  186.9880  177.6490  142.9920 C   0  0  0  0  0  2  0  0  0  0  0  0
  188.3000  177.6750  145.1070 C   0  0  0  0  0  1  0  0  0  0  0  0
  186.1840  176.5910  144.9820 O   0  0  0  0  0  1  0  0  0  0  0  0
  186.8960  177.7000  144.5200 C   0  0  2  0  0  0  0  0  0  0  0  0
  186.1780  179.0020  144.9370 C   0  0  1  0  0  3  0  0  0  0  0  0
  185.4590  179.6850  143.7770 C   0  0  0  0  0  1  0  0  0  0  0  0
  183.9560  178.6860  145.9630 C   0  0  0  0  0  2  0  0  0  0  0  0
  185.2660  178.8530  146.1320 C   0  0  0  0  0  0  0  0  0  0  0  0
  186.3040  180.0730  148.0780 N   0  0  0  0  0  1  0  0  0  0  0  0
  185.8400  178.8590  147.4900 C   0  0  0  0  0  0  0  0  0  0  0  0
  185.9230  177.7870  148.1460 O   0  0  0  0  0  0  0  0  0  0  0  0
  193.4220  173.4760  141.0590 C   0  0  0  0  0  2  0  0  0  0  0  0
  194.6940  175.4270  142.1430 N   0  0  0  0  0  2  0  0  0  0  0  0
  194.3120  174.6750  140.9810 C   0  0  0  0  0  0  0  0  0  0  0  0
  194.7680  175.0170  139.8600 O   0  0  0  0  0  0  0  0  0  0  0  0
  194.2110  175.2810  143.5210 C   0  0  2  0  0  0  0  0  0  0  0  0
  196.7310  173.8150  142.8770 O   0  0  0  0  0  1  0  0  0  0  0  0
  193.4750  176.2280  146.2990 C   0  0  0  0  0  2  0  0  0  0  0  0
  193.0190  174.9640  146.7370 O   0  0  0  0  0  0  0  0  0  0  0  0
  191.8060  174.7870  144.5290 C   0  0  1  0  0  0  0  0  0  0  0  0
  190.9780  173.7110  143.8590 C   0  0  0  0  0  1  0  0  0  0  0  0
  196.1370  172.0230  144.3520 C   0  0  0  0  0  3  0  0  0  0  0  0
  192.6720  175.4750  143.4550 C   0  0  0  0  0  2  0  0  0  0  0  0
  195.2950  171.4560  145.3080 C   0  0  0  0  0  3  0  0  0  0  0  0
  194.8480  176.1310  145.6500 C   0  0  0  0  0  2  0  0  0  0  0  0
  194.7680  176.3690  144.2590 O   0  0  0  0  0  0  0  0  0  0  0  0
  194.6080  173.9060  144.0940 C   0  0  0  0  0  0  0  0  0  0  0  0
  190.9280  175.7260  145.0720 O   0  0  0  0  0  1  0  0  0  0  0  0
  193.8040  173.3520  145.1120 C   0  0  0  0  0  0  0  0  0  0  0  0
  192.6400  174.1310  145.6470 C   0  0  1  0  0  3  0  0  0  0  0  0
  194.1400  172.1300  145.7020 C   0  0  0  0  0  3  0  0  0  0  0  0
  195.8210  173.2510  143.7660 C   0  0  0  0  0  0  0  0  0  0  0  0
  1 24  1  0  0  0  0
  3  2  1  6  0  0  0
  3  4  1  0  0  0  0
  3  1  1  0  0  0  0
  4  5  2  0  0  0  0
  6  4  2  0  0  0  0
  7  4  1  0  0  0  0
  7 10  1  0  0  0  0
  8 11  1  0  0  0  0
 10  8  1  0  0  0  0
 10  9  2  0  0  0  0
 11 12  1  0  0  0  0
 12 13  1  0  0  0  0
 13 16  1  0  0  0  0
 16 17  1  0  0  0  0
 16 15  1  0  0  0  0
 16 14  1  1  0  0  0
 17 18  1  6  0  0  0
 17 20  1  0  0  0  0
 19 20  2  0  0  0  0
 20 22  1  0  0  0  0
 22 21  1  0  0  0  0
 22 23  2  0  0  0  0
 26 24  1  0  0  0  0
 26 25  1  0  0  0  0
 27 26  2  0  0  0  0
 28 25  1  6  0  0  0
 28 39  1  0  0  0  0
 28 38  1  0  0  0  0
 29 44  1  0  0  0  0
 30 31  1  0  0  0  0
 32 33  1  6  0  0  0
 32 40  1  0  0  0  0
 32 42  1  0  0  0  0
 34 36  1  0  0  0  0
 35 28  1  0  0  0  0
 35 32  1  0  0  0  0
 36 43  2  0  0  0  0
 37 30  1  0  0  0  0
 38 37  1  0  0  0  0
 39 41  2  0  0  0  0
 41 43  1  0  0  0  0
 42 41  1  6  0  0  0
 42 31  1  0  0  0  0
 44 39  1  0  0  0  0
 44 34  2  0  0  0  0
M  END
>  <MODEL>
3

>  <REMARK>
 VINA RESULT:      -6.7      2.040      3.483
  Name = 
  14 active torsions:
  status: ('A' for Active; 'I' for Inactive)
    1  A    between atoms: C_1  and  S_20
    2  A    between atoms: C_1  and  C_28
    3  A    between atoms: S_3  and  C_12
    4  A    between atoms: S_3  and  C_41
    5  A    between atoms: C_5  and  N_13
    6  A    between atoms: C_6  and  C_23
    7  A    between atoms: C_10  and  N_15
    8  A    between atoms: C_10  and  S_20
    9  A    between atoms: C_12  and  C_32
   10  A    between atoms: C_23  and  C_26
   11  A    between atoms: C_24  and  C_41
   12  A    between atoms: C_24  and  C_43
   13  A    between atoms: C_26  and  C_28
   14  A    between atoms: C_37  and  C_43
                            x       y       z     vdW  Elec       q    Type
                         _______ _______ _______ _____ _____    ______ ____

>  <TORSDO>
F 14

$$$$
=
 OpenBabel11062422373D

 44 46  0  0  1  0  0  0  0  0999 V2000
  191.3000  173.2050  143.0760 C   0  0  0  0  0  2  0  0  0  0  0  0
  190.0040  173.0250  141.0190 O   0  0  0  0  0  1  0  0  0  0  0  0
  189.9690  173.4320  142.3560 C   0  0  2  0  0  3  0  0  0  0  0  0
  189.4290  175.1310  142.4850 S   0  0  0  0  0  0  0  0  0  0  0  0
  190.6280  176.0340  142.3970 O   0  0  0  0  0  0  0  0  0  0  0  0
  188.7440  175.3550  143.8050 O   0  0  0  0  0  0  0  0  0  0  0  0
  188.2830  175.5540  141.1750 C   0  0  0  0  0  2  0  0  0  0  0  0
  186.2580  177.0440  141.2970 N   0  0  0  0  0  2  0  0  0  0  0  0
  188.4060  177.9410  141.4580 O   0  0  0  0  0  0  0  0  0  0  0  0
  187.6800  176.9190  141.3120 C   0  0  0  0  0  0  0  0  0  0  0  0
  185.5980  178.3390  141.3530 C   0  0  0  0  0  2  0  0  0  0  0  0
  184.1460  178.2550  142.4480 S   0  0  0  0  0  0  0  0  0  0  0  0
  185.1080  177.6160  143.8620 C   0  0  0  0  0  2  0  0  0  0  0  0
  185.4190  180.0720  144.1270 C   0  0  0  0  0  1  0  0  0  0  0  0
  187.2380  178.5620  144.4060 O   0  0  0  0  0  1  0  0  0  0  0  0
  185.8660  178.7050  144.6260 C   0  0  2  0  0  0  0  0  0  0  0  0
  185.5550  178.5700  146.1330 C   0  0  1  0  0  3  0  0  0  0  0  0
  184.1040  178.1870  146.4110 C   0  0  0  0  0  1  0  0  0  0  0  0
  186.3780  176.3520  146.8330 C   0  0  0  0  0  2  0  0  0  0  0  0
  186.5100  177.6750  146.8870 C   0  0  0  0  0  0  0  0  0  0  0  0
  188.9560  177.8290  147.4730 N   0  0  0  0  0  1  0  0  0  0  0  0
  187.6140  178.2740  147.6580 C   0  0  0  0  0  0  0  0  0  0  0  0
  187.3810  179.1900  148.4910 O   0  0  0  0  0  0  0  0  0  0  0  0
  192.5350  173.1270  142.1810 C   0  0  0  0  0  2  0  0  0  0  0  0
  194.7650  172.2360  143.0920 N   0  0  0  0  0  2  0  0  0  0  0  0
  193.4500  172.0080  142.5640 C   0  0  0  0  0  0  0  0  0  0  0  0
  193.0390  170.8240  142.4490 O   0  0  0  0  0  0  0  0  0  0  0  0
  195.4880  173.5070  143.2160 C   0  0  2  0  0  0  0  0  0  0  0  0
  194.0570  172.5930  145.6720 O   0  0  0  0  0  1  0  0  0  0  0  0
  197.9250  175.3000  143.2560 C   0  0  0  0  0  2  0  0  0  0  0  0
  197.1910  176.4920  143.4440 O   0  0  0  0  0  0  0  0  0  0  0  0
  195.6220  175.6480  141.6540 C   0  0  1  0  0  0  0  0  0  0  0  0
  194.3270  176.1560  141.0560 C   0  0  0  0  0  1  0  0  0  0  0  0
  193.5490  174.8510  146.2910 C   0  0  0  0  0  3  0  0  0  0  0  0
  195.5290  174.1150  141.7890 C   0  0  0  0  0  2  0  0  0  0  0  0
  193.6650  176.2260  146.0940 C   0  0  0  0  0  3  0  0  0  0  0  0
  197.5080  174.2260  144.2490 C   0  0  0  0  0  2  0  0  0  0  0  0
  196.8230  173.1740  143.6000 O   0  0  0  0  0  0  0  0  0  0  0  0
  194.7890  174.4320  144.2330 C   0  0  0  0  0  0  0  0  0  0  0  0
  196.6530  175.9630  140.7690 O   0  0  0  0  0  1  0  0  0  0  0  0
  194.9550  175.8260  144.0870 C   0  0  0  0  0  0  0  0  0  0  0  0
  195.8440  176.3600  143.0040 C   0  0  1  0  0  3  0  0  0  0  0  0
  194.3840  176.7120  145.0030 C   0  0  0  0  0  3  0  0  0  0  0  0
  194.1290  173.9530  145.3900 C   0  0  0  0  0  0  0  0  0  0  0  0
  3  2  1  6  0  0  0
  3  4  1  0  0  0  0
  3  1  1  0  0  0  0
  4  6  2  0  0  0  0
  5  4  2  0  0  0  0
  7 10  1  0  0  0  0
  7  4  1  0  0  0  0
  8 10  1  0  0  0  0
  8 11  1  0  0  0  0
 10  9  2  0  0  0  0
 11 12  1  0  0  0  0
 12 13  1  0  0  0  0
 13 16  1  0  0  0  0
 15 16  1  0  0  0  0
 16 14  1  6  0  0  0
 16 17  1  0  0  0  0
 17 18  1  6  0  0  0
 17 20  1  0  0  0  0
 19 20  2  0  0  0  0
 20 22  1  0  0  0  0
 21 22  1  0  0  0  0
 22 23  2  0  0  0  0
 24 26  1  0  0  0  0
 24  1  1  0  0  0  0
 26 25  1  0  0  0  0
 27 26  2  0  0  0  0
 28 25  1  6  0  0  0
 28 38  1  0  0  0  0
 28 39  1  0  0  0  0
 30 31  1  0  0  0  0
 30 37  1  0  0  0  0
 32 33  1  6  0  0  0
 32 35  1  0  0  0  0
 32 42  1  0  0  0  0
 35 28  1  0  0  0  0
 36 34  1  0  0  0  0
 38 37  1  0  0  0  0
 39 44  1  0  0  0  0
 40 32  1  0  0  0  0
 41 39  2  0  0  0  0
 41 43  1  0  0  0  0
 42 31  1  1  0  0  0
 42 41  1  0  0  0  0
 43 36  2  0  0  0  0
 44 29  1  0  0  0  0
 44 34  2  0  0  0  0
M  END
>  <MODEL>
4

>  <REMARK>
 VINA RESULT:      -6.6      1.982      3.623
  Name = 
  14 active torsions:
  status: ('A' for Active; 'I' for Inactive)
    1  A    between atoms: C_1  and  S_20
    2  A    between atoms: C_1  and  C_28
    3  A    between atoms: S_3  and  C_12
    4  A    between atoms: S_3  and  C_41
    5  A    between atoms: C_5  and  N_13
    6  A    between atoms: C_6  and  C_23
    7  A    between atoms: C_10  and  N_15
    8  A    between atoms: C_10  and  S_20
    9  A    between atoms: C_12  and  C_32
   10  A    between atoms: C_23  and  C_26
   11  A    between atoms: C_24  and  C_41
   12  A    between atoms: C_24  and  C_43
   13  A    between atoms: C_26  and  C_28
   14  A    between atoms: C_37  and  C_43
                            x       y       z     vdW  Elec       q    Type
                         _______ _______ _______ _____ _____    ______ ____

>  <TORSDO>
F 14

$$$$
=
 OpenBabel11062422373D

 44 46  0  0  1  0  0  0  0  0999 V2000
  191.5230  172.0680  141.8660 C   0  0  0  0  0  2  0  0  0  0  0  0
  190.9740  170.0160  140.6710 O   0  0  0  0  0  1  0  0  0  0  0  0
  190.5420  171.3120  140.9690 C   0  0  2  0  0  3  0  0  0  0  0  0
  190.1800  172.2170  139.4710 S   0  0  0  0  0  0  0  0  0  0  0  0
  190.5730  171.3780  138.2860 O   0  0  0  0  0  0  0  0  0  0  0  0
  190.9640  173.4990  139.4420 O   0  0  0  0  0  0  0  0  0  0  0  0
  188.4380  172.6150  139.3520 C   0  0  0  0  0  2  0  0  0  0  0  0
  188.1480  174.6910  140.7450 N   0  0  0  0  0  2  0  0  0  0  0  0
  187.9110  174.7740  138.4250 O   0  0  0  0  0  0  0  0  0  0  0  0
  188.1420  174.0810  139.4540 C   0  0  0  0  0  0  0  0  0  0  0  0
  187.8010  176.0910  140.9360 C   0  0  0  0  0  2  0  0  0  0  0  0
  188.6730  176.7600  142.3870 S   0  0  0  0  0  0  0  0  0  0  0  0
  187.2450  177.7620  142.9250 C   0  0  0  0  0  2  0  0  0  0  0  0
  188.2980  177.5580  145.1720 C   0  0  0  0  0  1  0  0  0  0  0  0
  186.1880  176.5580  144.7030 O   0  0  0  0  0  1  0  0  0  0  0  0
  186.9740  177.6800  144.4300 C   0  0  2  0  0  0  0  0  0  0  0  0
  186.2400  178.9620  144.8780 C   0  0  1  0  0  3  0  0  0  0  0  0
  185.5290  179.6760  143.7310 C   0  0  0  0  0  1  0  0  0  0  0  0
  183.9980  178.6820  145.8720 C   0  0  0  0  0  2  0  0  0  0  0  0
  185.3140  178.7690  146.0560 C   0  0  0  0  0  0  0  0  0  0  0  0
  185.9640  177.3660  148.0470 N   0  0  0  0  0  1  0  0  0  0  0  0
  185.8790  178.6410  147.4120 C   0  0  0  0  0  0  0  0  0  0  0  0
  186.2940  179.6610  148.0240 O   0  0  0  0  0  0  0  0  0  0  0  0
  193.0010  171.9130  141.5140 C   0  0  0  0  0  2  0  0  0  0  0  0
  194.6840  172.0130  143.4520 N   0  0  0  0  0  2  0  0  0  0  0  0
  193.7870  171.2710  142.6120 C   0  0  0  0  0  0  0  0  0  0  0  0
  193.6320  170.0410  142.8280 O   0  0  0  0  0  0  0  0  0  0  0  0
  195.1000  173.4140  143.3250 C   0  0  2  0  0  0  0  0  0  0  0  0
  193.0610  172.8620  145.4350 O   0  0  0  0  0  1  0  0  0  0  0  0
  197.0400  175.7350  143.4230 C   0  0  0  0  0  2  0  0  0  0  0  0
  196.1040  176.6900  142.9690 O   0  0  0  0  0  0  0  0  0  0  0  0
  195.4280  174.9970  141.2200 C   0  0  1  0  0  0  0  0  0  0  0  0
  194.3640  174.9550  140.1440 C   0  0  0  0  0  1  0  0  0  0  0  0
  192.0080  174.9810  145.0590 C   0  0  0  0  0  3  0  0  0  0  0  0
  195.5440  173.5950  141.8480 C   0  0  0  0  0  2  0  0  0  0  0  0
  191.9610  176.2280  144.4360 C   0  0  0  0  0  3  0  0  0  0  0  0
  196.4780  174.9040  144.5670 C   0  0  0  0  0  2  0  0  0  0  0  0
  196.2480  173.5700  144.1600 O   0  0  0  0  0  0  0  0  0  0  0  0
  193.9460  174.3610  143.7140 C   0  0  0  0  0  0  0  0  0  0  0  0
  196.6400  175.3220  140.6100 O   0  0  0  0  0  1  0  0  0  0  0  0
  193.9250  175.6520  143.1450 C   0  0  0  0  0  0  0  0  0  0  0  0
  195.0400  176.0850  142.2420 C   0  0  1  0  0  3  0  0  0  0  0  0
  192.9310  176.5700  143.4950 C   0  0  0  0  0  3  0  0  0  0  0  0
  193.0060  174.0600  144.7300 C   0  0  0  0  0  0  0  0  0  0  0  0
  3  2  1  6  0  0  0
  3  1  1  0  0  0  0
  4  3  1  0  0  0  0
  5  4  2  0  0  0  0
  6  4  2  0  0  0  0
  7 10  1  0  0  0  0
  7  4  1  0  0  0  0
  8 11  1  0  0  0  0
  9 10  2  0  0  0  0
 10  8  1  0  0  0  0
 11 12  1  0  0  0  0
 12 13  1  0  0  0  0
 13 16  1  0  0  0  0
 16 15  1  0  0  0  0
 16 17  1  0  0  0  0
 16 14  1  1  0  0  0
 17 18  1  6  0  0  0
 17 20  1  0  0  0  0
 19 20  2  0  0  0  0
 20 22  1  0  0  0  0
 22 23  2  0  0  0  0
 22 21  1  0  0  0  0
 24  1  1  0  0  0  0
 24 26  1  0  0  0  0
 26 27  2  0  0  0  0
 26 25  1  0  0  0  0
 28 25  1  1  0  0  0
 28 39  1  0  0  0  0
 28 38  1  0  0  0  0
 30 37  1  0  0  0  0
 31 30  1  0  0  0  0
 32 33  1  6  0  0  0
 32 35  1  0  0  0  0
 32 42  1  0  0  0  0
 35 28  1  0  0  0  0
 36 34  2  0  0  0  0
 38 37  1  0  0  0  0
 39 44  2  0  0  0  0
 40 32  1  0  0  0  0
 41 43  2  0  0  0  0
 41 39  1  0  0  0  0
 42 31  1  1  0  0  0
 42 41  1  0  0  0  0
 43 36  1  0  0  0  0
 44 34  1  0  0  0  0
 44 29  1  0  0  0  0
M  END
>  <MODEL>
5

>  <REMARK>
 VINA RESULT:      -6.5      1.874      3.449
  Name = 
  14 active torsions:
  status: ('A' for Active; 'I' for Inactive)
    1  A    between atoms: C_1  and  S_20
    2  A    between atoms: C_1  and  C_28
    3  A    between atoms: S_3  and  C_12
    4  A    between atoms: S_3  and  C_41
    5  A    between atoms: C_5  and  N_13
    6  A    between atoms: C_6  and  C_23
    7  A    between atoms: C_10  and  N_15
    8  A    between atoms: C_10  and  S_20
    9  A    between atoms: C_12  and  C_32
   10  A    between atoms: C_23  and  C_26
   11  A    between atoms: C_24  and  C_41
   12  A    between atoms: C_24  and  C_43
   13  A    between atoms: C_26  and  C_28
   14  A    between atoms: C_37  and  C_43
                            x       y       z     vdW  Elec       q    Type
                         _______ _______ _______ _____ _____    ______ ____

>  <TORSDO>
F 14

$$$$
=
 OpenBabel11062422373D

 44 46  0  0  1  0  0  0  0  0999 V2000
  191.4670  172.7090  144.6340 C   0  0  0  0  0  2  0  0  0  0  0  0
  189.7670  173.7000  143.1950 O   0  0  0  0  0  1  0  0  0  0  0  0
  190.1160  173.4170  144.5190 C   0  0  2  0  0  3  0  0  0  0  0  0
  190.0570  174.8990  145.5170 S   0  0  0  0  0  0  0  0  0  0  0  0
  190.7520  174.6360  146.8250 O   0  0  0  0  0  0  0  0  0  0  0  0
  188.6290  175.2800  145.7910 O   0  0  0  0  0  0  0  0  0  0  0  0
  190.8610  176.2730  144.6950 C   0  0  0  0  0  2  0  0  0  0  0  0
  189.7240  177.2180  142.6590 N   0  0  0  0  0  2  0  0  0  0  0  0
  189.2660  178.0740  144.7810 O   0  0  0  0  0  0  0  0  0  0  0  0
  189.9100  177.2500  144.0740 C   0  0  0  0  0  0  0  0  0  0  0  0
  188.8730  178.1780  141.9730 C   0  0  0  0  0  2  0  0  0  0  0  0
  187.3150  177.3850  141.4660 S   0  0  0  0  0  0  0  0  0  0  0  0
  186.2760  178.6420  142.2850 C   0  0  0  0  0  2  0  0  0  0  0  0
  186.0110  176.7130  143.8360 C   0  0  0  0  0  1  0  0  0  0  0  0
  184.1370  178.0140  143.1540 O   0  0  0  0  0  1  0  0  0  0  0  0
  185.4910  178.1000  143.4830 C   0  0  2  0  0  0  0  0  0  0  0  0
  185.6850  179.0520  144.6820 C   0  0  1  0  0  3  0  0  0  0  0  0
  185.3090  180.4970  144.3660 C   0  0  0  0  0  1  0  0  0  0  0  0
  183.7070  178.6780  146.1100 C   0  0  0  0  0  2  0  0  0  0  0  0
  185.0260  178.5850  145.9590 C   0  0  0  0  0  0  0  0  0  0  0  0
  186.6660  178.8150  147.8590 N   0  0  0  0  0  1  0  0  0  0  0  0
  185.8500  177.9920  147.0280 C   0  0  0  0  0  0  0  0  0  0  0  0
  185.8390  176.7470  147.2190 O   0  0  0  0  0  0  0  0  0  0  0  0
  192.5820  173.2570  143.7460 C   0  0  0  0  0  2  0  0  0  0  0  0
  194.2250  172.3350  142.0000 N   0  0  0  0  0  2  0  0  0  0  0  0
  192.9350  172.3260  142.6310 C   0  0  0  0  0  0  0  0  0  0  0  0
  192.0810  171.4840  142.2530 O   0  0  0  0  0  0  0  0  0  0  0  0
  195.3290  173.2810  142.1990 C   0  0  2  0  0  0  0  0  0  0  0  0
  195.5490  170.7110  143.7020 O   0  0  0  0  0  1  0  0  0  0  0  0
  197.7080  174.9550  141.3670 C   0  0  0  0  0  2  0  0  0  0  0  0
  197.8840  175.5490  142.6370 O   0  0  0  0  0  0  0  0  0  0  0  0
  195.3820  175.8910  142.6730 C   0  0  1  0  0  0  0  0  0  0  0  0
  194.4020  176.4340  143.6920 C   0  0  0  0  0  1  0  0  0  0  0  0
  196.6130  171.8100  145.5460 C   0  0  0  0  0  3  0  0  0  0  0  0
  194.7280  174.6920  141.9590 C   0  0  0  0  0  2  0  0  0  0  0  0
  197.1720  172.9440  146.1340 C   0  0  0  0  0  3  0  0  0  0  0  0
  197.5880  173.4420  141.4710 C   0  0  0  0  0  2  0  0  0  0  0  0
  196.2760  173.0150  141.1640 O   0  0  0  0  0  0  0  0  0  0  0  0
  195.9290  173.1270  143.6110 C   0  0  0  0  0  0  0  0  0  0  0  0
  195.6260  176.8970  141.7370 O   0  0  0  0  0  1  0  0  0  0  0  0
  196.5610  174.2480  144.1910 C   0  0  0  0  0  0  0  0  0  0  0  0
  196.6860  175.5190  143.4050 C   0  0  1  0  0  3  0  0  0  0  0  0
  197.1640  174.1570  145.4480 C   0  0  0  0  0  3  0  0  0  0  0  0
  196.0210  171.8830  144.2820 C   0  0  0  0  0  0  0  0  0  0  0  0
  3  2  1  6  0  0  0
  3  1  1  0  0  0  0
  3  4  1  0  0  0  0
  4  6  2  0  0  0  0
  4  5  2  0  0  0  0
  7  4  1  0  0  0  0
  8 10  1  0  0  0  0
 10  7  1  0  0  0  0
 10  9  2  0  0  0  0
 11  8  1  0  0  0  0
 12 11  1  0  0  0  0
 12 13  1  0  0  0  0
 13 16  1  0  0  0  0
 15 16  1  0  0  0  0
 16 14  1  1  0  0  0
 16 17  1  0  0  0  0
 17 18  1  6  0  0  0
 17 20  1  0  0  0  0
 20 19  2  0  0  0  0
 20 22  1  0  0  0  0
 22 23  2  0  0  0  0
 22 21  1  0  0  0  0
 24  1  1  0  0  0  0
 25 26  1  0  0  0  0
 26 24  1  0  0  0  0
 27 26  2  0  0  0  0
 28 25  1  6  0  0  0
 28 39  1  0  0  0  0
 29 44  1  0  0  0  0
 30 37  1  0  0  0  0
 30 31  1  0  0  0  0
 32 42  1  0  0  0  0
 32 33  1  1  0  0  0
 34 36  1  0  0  0  0
 35 28  1  0  0  0  0
 35 32  1  0  0  0  0
 38 37  1  0  0  0  0
 38 28  1  0  0  0  0
 39 41  2  0  0  0  0
 39 44  1  0  0  0  0
 40 32  1  0  0  0  0
 41 43  1  0  0  0  0
 42 31  1  6  0  0  0
 42 41  1  0  0  0  0
 43 36  2  0  0  0  0
 44 34  2  0  0  0  0
M  END
>  <MODEL>
6

>  <REMARK>
 VINA RESULT:      -6.4      2.125      3.843
  Name = 
  14 active torsions:
  status: ('A' for Active; 'I' for Inactive)
    1  A    between atoms: C_1  and  S_20
    2  A    between atoms: C_1  and  C_28
    3  A    between atoms: S_3  and  C_12
    4  A    between atoms: S_3  and  C_41
    5  A    between atoms: C_5  and  N_13
    6  A    between atoms: C_6  and  C_23
    7  A    between atoms: C_10  and  N_15
    8  A    between atoms: C_10  and  S_20
    9  A    between atoms: C_12  and  C_32
   10  A    between atoms: C_23  and  C_26
   11  A    between atoms: C_24  and  C_41
   12  A    between atoms: C_24  and  C_43
   13  A    between atoms: C_26  and  C_28
   14  A    between atoms: C_37  and  C_43
                            x       y       z     vdW  Elec       q    Type
                         _______ _______ _______ _____ _____    ______ ____

>  <TORSDO>
F 14

$$$$
=
 OpenBabel11062422373D

 44 46  0  0  1  0  0  0  0  0999 V2000
  192.5450  175.4290  146.6880 C   0  0  0  0  0  2  0  0  0  0  0  0
  192.1350  173.6450  145.0790 O   0  0  0  0  0  1  0  0  0  0  0  0
  191.5650  174.4120  146.1000 C   0  0  2  0  0  3  0  0  0  0  0  0
  190.0590  175.1930  145.5370 S   0  0  0  0  0  0  0  0  0  0  0  0
  189.4870  174.3920  144.4000 O   0  0  0  0  0  0  0  0  0  0  0  0
  190.3500  176.5870  145.0540 O   0  0  0  0  0  0  0  0  0  0  0  0
  188.8440  175.2920  146.8500 C   0  0  0  0  0  2  0  0  0  0  0  0
  186.9200  176.9020  147.0510 N   0  0  0  0  0  2  0  0  0  0  0  0
  189.1150  177.6280  147.3650 O   0  0  0  0  0  0  0  0  0  0  0  0
  188.3300  176.6770  147.0990 C   0  0  0  0  0  0  0  0  0  0  0  0
  186.3470  178.2290  147.2100 C   0  0  0  0  0  2  0  0  0  0  0  0
  184.6750  178.2780  146.4930 S   0  0  0  0  0  0  0  0  0  0  0  0
  185.2170  177.5840  144.8940 C   0  0  0  0  0  2  0  0  0  0  0  0
  184.8830  179.9730  144.2820 C   0  0  0  0  0  1  0  0  0  0  0  0
  184.0280  178.2190  142.9170 O   0  0  0  0  0  1  0  0  0  0  0  0
  185.1080  178.5720  143.7300 C   0  0  2  0  0  0  0  0  0  0  0  0
  186.4190  178.5350  142.9150 C   0  0  1  0  0  3  0  0  0  0  0  0
  187.6530  178.2890  143.7790 C   0  0  0  0  0  1  0  0  0  0  0  0
  185.7360  177.9380  140.6200 C   0  0  0  0  0  2  0  0  0  0  0  0
  186.3880  177.5980  141.7300 C   0  0  0  0  0  0  0  0  0  0  0  0
  186.6990  175.2910  142.6950 N   0  0  0  0  0  1  0  0  0  0  0  0
  187.1150  176.3170  141.7960 C   0  0  0  0  0  0  0  0  0  0  0  0
  188.1120  176.1170  141.0540 O   0  0  0  0  0  0  0  0  0  0  0  0
  194.0040  175.2670  146.2680 C   0  0  0  0  0  2  0  0  0  0  0  0
  195.3680  176.5530  144.5120 N   0  0  0  0  0  2  0  0  0  0  0  0
  194.5850  176.5290  145.7150 C   0  0  0  0  0  0  0  0  0  0  0  0
  194.3510  177.6130  146.3080 O   0  0  0  0  0  0  0  0  0  0  0  0
  195.8510  175.4180  143.7180 C   0  0  2  0  0  0  0  0  0  0  0  0
  193.4350  176.8050  142.6440 O   0  0  0  0  0  1  0  0  0  0  0  0
  197.8230  173.8960  142.0000 C   0  0  0  0  0  2  0  0  0  0  0  0
  197.0240  172.7350  141.9040 O   0  0  0  0  0  0  0  0  0  0  0  0
  196.6250  172.9690  144.3870 C   0  0  1  0  0  0  0  0  0  0  0  0
  195.7800  172.2240  145.3990 C   0  0  0  0  0  1  0  0  0  0  0  0
  192.5500  174.7440  141.8040 C   0  0  0  0  0  3  0  0  0  0  0  0
  196.5690  174.4730  144.7190 C   0  0  0  0  0  2  0  0  0  0  0  0
  192.6660  173.3770  141.5530 C   0  0  0  0  0  3  0  0  0  0  0  0
  197.0270  175.1490  141.6670 C   0  0  0  0  0  2  0  0  0  0  0  0
  196.8280  175.9440  142.8190 O   0  0  0  0  0  0  0  0  0  0  0  0
  194.6810  174.7260  142.9890 C   0  0  0  0  0  0  0  0  0  0  0  0
  197.9410  172.5250  144.5190 O   0  0  0  0  0  1  0  0  0  0  0  0
  194.8130  173.3590  142.6670 C   0  0  0  0  0  0  0  0  0  0  0  0
  196.0940  172.6420  142.9770 C   0  0  1  0  0  3  0  0  0  0  0  0
  193.8060  172.6900  141.9660 C   0  0  0  0  0  3  0  0  0  0  0  0
  193.5570  175.4280  142.4890 C   0  0  0  0  0  0  0  0  0  0  0  0
  3  2  1  6  0  0  0
  3  1  1  0  0  0  0
  4  3  1  0  0  0  0
  4  7  1  0  0  0  0
  5  4  2  0  0  0  0
  6  4  2  0  0  0  0
  7 10  1  0  0  0  0
  8 10  1  0  0  0  0
  8 11  1  0  0  0  0
 10  9  2  0  0  0  0
 12 11  1  0  0  0  0
 13 12  1  0  0  0  0
 15 16  1  0  0  0  0
 16 14  1  1  0  0  0
 16 13  1  0  0  0  0
 17 16  1  0  0  0  0
 17 18  1  1  0  0  0
 19 20  2  0  0  0  0
 20 22  1  0  0  0  0
 20 17  1  0  0  0  0
 22 21  1  0  0  0  0
 23 22  2  0  0  0  0
 24  1  1  0  0  0  0
 25 26  1  0  0  0  0
 26 24  1  0  0  0  0
 26 27  2  0  0  0  0
 28 25  1  1  0  0  0
 28 35  1  0  0  0  0
 31 30  1  0  0  0  0
 32 40  1  0  0  0  0
 32 35  1  0  0  0  0
 32 33  1  1  0  0  0
 34 44  1  0  0  0  0
 36 34  2  0  0  0  0
 36 43  1  0  0  0  0
 37 30  1  0  0  0  0
 37 38  1  0  0  0  0
 38 28  1  0  0  0  0
 39 28  1  0  0  0  0
 41 42  1  0  0  0  0
 41 39  1  0  0  0  0
 42 31  1  6  0  0  0
 42 32  1  0  0  0  0
 43 41  2  0  0  0  0
 44 29  1  0  0  0  0
 44 39  2  0  0  0  0
M  END
>  <MODEL>
7

>  <REMARK>
 VINA RESULT:      -6.4      2.201      4.149
  Name = 
  14 active torsions:
  status: ('A' for Active; 'I' for Inactive)
    1  A    between atoms: C_1  and  S_20
    2  A    between atoms: C_1  and  C_28
    3  A    between atoms: S_3  and  C_12
    4  A    between atoms: S_3  and  C_41
    5  A    between atoms: C_5  and  N_13
    6  A    between atoms: C_6  and  C_23
    7  A    between atoms: C_10  and  N_15
    8  A    between atoms: C_10  and  S_20
    9  A    between atoms: C_12  and  C_32
   10  A    between atoms: C_23  and  C_26
   11  A    between atoms: C_24  and  C_41
   12  A    between atoms: C_24  and  C_43
   13  A    between atoms: C_26  and  C_28
   14  A    between atoms: C_37  and  C_43
                            x       y       z     vdW  Elec       q    Type
                         _______ _______ _______ _____ _____    ______ ____

>  <TORSDO>
F 14

$$$$
=
 OpenBabel11062422373D

 44 46  0  0  1  0  0  0  0  0999 V2000
  192.1320  174.7470  147.0890 C   0  0  0  0  0  2  0  0  0  0  0  0
  193.5640  173.3470  145.7000 O   0  0  0  0  0  1  0  0  0  0  0  0
  192.9000  174.5750  145.7780 C   0  0  2  0  0  3  0  0  0  0  0  0
  194.0360  175.9260  145.4940 S   0  0  0  0  0  0  0  0  0  0  0  0
  194.4190  176.5300  146.8170 O   0  0  0  0  0  0  0  0  0  0  0  0
  193.3800  176.9810  144.6470 O   0  0  0  0  0  0  0  0  0  0  0  0
  195.5180  175.3690  144.6560 C   0  0  0  0  0  2  0  0  0  0  0  0
  194.8570  174.9000  142.2730 N   0  0  0  0  0  2  0  0  0  0  0  0
  196.1930  176.7410  142.7960 O   0  0  0  0  0  0  0  0  0  0  0  0
  195.5630  175.7250  143.2010 C   0  0  0  0  0  0  0  0  0  0  0  0
  194.9100  175.1360  140.8390 C   0  0  0  0  0  2  0  0  0  0  0  0
  194.3980  173.6390  139.9390 S   0  0  0  0  0  0  0  0  0  0  0  0
  192.6560  173.7810  140.4660 C   0  0  0  0  0  2  0  0  0  0  0  0
  191.7350  173.0200  142.6500 C   0  0  0  0  0  1  0  0  0  0  0  0
  193.1840  171.6290  141.3720 O   0  0  0  0  0  1  0  0  0  0  0  0
  192.1570  172.5690  141.2580 C   0  0  2  0  0  0  0  0  0  0  0  0
  190.9510  171.9490  140.5210 C   0  0  1  0  0  3  0  0  0  0  0  0
  189.6370  172.1120  141.2810 C   0  0  0  0  0  1  0  0  0  0  0  0
  189.9750  173.3780  138.7620 C   0  0  0  0  0  2  0  0  0  0  0  0
  190.8070  172.3900  139.0830 C   0  0  0  0  0  0  0  0  0  0  0  0
  191.7250  172.3170  136.7370 N   0  0  0  0  0  1  0  0  0  0  0  0
  191.6220  171.7420  138.0390 C   0  0  0  0  0  0  0  0  0  0  0  0
  192.2370  170.6720  138.2880 O   0  0  0  0  0  0  0  0  0  0  0  0
  191.0760  175.8500  147.1020 C   0  0  0  0  0  2  0  0  0  0  0  0
  188.7300  175.5020  146.1140 N   0  0  0  0  0  2  0  0  0  0  0  0
  189.6840  175.3090  147.1700 C   0  0  0  0  0  0  0  0  0  0  0  0
  189.3460  174.6340  148.1770 O   0  0  0  0  0  0  0  0  0  0  0  0
  188.8610  176.3290  144.9100 C   0  0  2  0  0  0  0  0  0  0  0  0
  187.3630  177.5750  147.1730 O   0  0  0  0  0  1  0  0  0  0  0  0
  190.3440  177.9100  142.7980 C   0  0  0  0  0  2  0  0  0  0  0  0
  189.1870  178.2190  142.0490 O   0  0  0  0  0  0  0  0  0  0  0  0
  188.5210  175.8000  142.3320 C   0  0  1  0  0  0  0  0  0  0  0  0
  187.3060  174.9840  141.9430 C   0  0  0  0  0  1  0  0  0  0  0  0
  185.9010  178.7170  145.6570 C   0  0  0  0  0  3  0  0  0  0  0  0
  188.9940  175.3370  143.7240 C   0  0  0  0  0  2  0  0  0  0  0  0
  185.5230  179.0790  144.3650 C   0  0  0  0  0  3  0  0  0  0  0  0
  190.1520  178.2240  144.2750 C   0  0  0  0  0  2  0  0  0  0  0  0
  190.0930  177.0380  145.0410 O   0  0  0  0  0  0  0  0  0  0  0  0
  187.6460  177.2680  144.7610 C   0  0  0  0  0  0  0  0  0  0  0  0
  189.5270  175.5380  141.4020 O   0  0  0  0  0  1  0  0  0  0  0  0
  187.2940  177.6990  143.4640 C   0  0  0  0  0  0  0  0  0  0  0  0
  188.1350  177.2920  142.2910 C   0  0  1  0  0  3  0  0  0  0  0  0
  186.2320  178.5860  143.2710 C   0  0  0  0  0  3  0  0  0  0  0  0
  186.9720  177.8430  145.8660 C   0  0  0  0  0  0  0  0  0  0  0  0
  1 24  1  0  0  0  0
  3  2  1  1  0  0  0
  3  1  1  0  0  0  0
  4  3  1  0  0  0  0
  4  5  2  0  0  0  0
  6  4  2  0  0  0  0
  7  4  1  0  0  0  0
  8 10  1  0  0  0  0
  9 10  2  0  0  0  0
 10  7  1  0  0  0  0
 11  8  1  0  0  0  0
 12 13  1  0  0  0  0
 12 11  1  0  0  0  0
 13 16  1  0  0  0  0
 16 15  1  0  0  0  0
 16 14  1  1  0  0  0
 17 16  1  0  0  0  0
 17 18  1  1  0  0  0
 19 20  2  0  0  0  0
 20 17  1  0  0  0  0
 21 22  1  0  0  0  0
 22 23  2  0  0  0  0
 22 20  1  0  0  0  0
 24 26  1  0  0  0  0
 25 26  1  0  0  0  0
 26 27  2  0  0  0  0
 28 38  1  0  0  0  0
 28 25  1  1  0  0  0
 30 37  1  0  0  0  0
 31 30  1  0  0  0  0
 32 33  1  6  0  0  0
 32 35  1  0  0  0  0
 34 44  1  0  0  0  0
 35 28  1  0  0  0  0
 36 34  2  0  0  0  0
 37 38  1  0  0  0  0
 39 28  1  0  0  0  0
 39 44  2  0  0  0  0
 40 32  1  0  0  0  0
 41 39  1  0  0  0  0
 42 31  1  1  0  0  0
 42 32  1  0  0  0  0
 42 41  1  0  0  0  0
 43 41  2  0  0  0  0
 43 36  1  0  0  0  0
 44 29  1  0  0  0  0
M  END
>  <MODEL>
8

>  <REMARK>
 VINA RESULT:      -6.3      2.920      8.583
  Name = 
  14 active torsions:
  status: ('A' for Active; 'I' for Inactive)
    1  A    between atoms: C_1  and  S_20
    2  A    between atoms: C_1  and  C_28
    3  A    between atoms: S_3  and  C_12
    4  A    between atoms: S_3  and  C_41
    5  A    between atoms: C_5  and  N_13
    6  A    between atoms: C_6  and  C_23
    7  A    between atoms: C_10  and  N_15
    8  A    between atoms: C_10  and  S_20
    9  A    between atoms: C_12  and  C_32
   10  A    between atoms: C_23  and  C_26
   11  A    between atoms: C_24  and  C_41
   12  A    between atoms: C_24  and  C_43
   13  A    between atoms: C_26  and  C_28
   14  A    between atoms: C_37  and  C_43
                            x       y       z     vdW  Elec       q    Type
                         _______ _______ _______ _____ _____    ______ ____

>  <TORSDO>
F 14

$$$$
=
 OpenBabel11062422373D

 44 46  0  0  1  0  0  0  0  0999 V2000
  191.8300  172.5330  144.2250 C   0  0  0  0  0  2  0  0  0  0  0  0
  193.8360  172.2730  145.5850 O   0  0  0  0  0  1  0  0  0  0  0  0
  193.3580  172.5550  144.3020 C   0  0  2  0  0  3  0  0  0  0  0  0
  194.0290  174.0990  143.7040 S   0  0  0  0  0  0  0  0  0  0  0  0
  192.9280  174.8930  143.0560 O   0  0  0  0  0  0  0  0  0  0  0  0
  195.1030  173.8350  142.6860 O   0  0  0  0  0  0  0  0  0  0  0  0
  194.7380  175.0640  145.0370 C   0  0  0  0  0  2  0  0  0  0  0  0
  192.7500  175.5360  146.5060 N   0  0  0  0  0  2  0  0  0  0  0  0
  193.8920  177.2790  145.4560 O   0  0  0  0  0  0  0  0  0  0  0  0
  193.7820  176.0380  145.6570 C   0  0  0  0  0  0  0  0  0  0  0  0
  191.7410  176.4070  147.0880 C   0  0  0  0  0  2  0  0  0  0  0  0
  190.1590  175.5190  147.2400 S   0  0  0  0  0  0  0  0  0  0  0  0
  189.1660  176.9770  146.7700 C   0  0  0  0  0  2  0  0  0  0  0  0
  188.9320  175.5540  144.7410 C   0  0  0  0  0  1  0  0  0  0  0  0
  188.6770  177.9190  144.6250 O   0  0  0  0  0  1  0  0  0  0  0  0
  188.4290  176.8110  145.4390 C   0  0  2  0  0  0  0  0  0  0  0  0
  186.9150  176.6850  145.7150 C   0  0  1  0  0  3  0  0  0  0  0  0
  186.5120  177.2140  147.0890 C   0  0  0  0  0  1  0  0  0  0  0  0
  185.9390  176.6570  143.4480 C   0  0  0  0  0  2  0  0  0  0  0  0
  186.0350  177.2620  144.6300 C   0  0  0  0  0  0  0  0  0  0  0  0
  185.7890  179.7700  144.6020 N   0  0  0  0  0  1  0  0  0  0  0  0
  185.2530  178.4820  144.8990 C   0  0  0  0  0  0  0  0  0  0  0  0
  184.0980  178.3970  145.3950 O   0  0  0  0  0  0  0  0  0  0  0  0
  191.2310  171.5920  143.1820 C   0  0  0  0  0  2  0  0  0  0  0  0
  189.3680  172.2070  141.5230 N   0  0  0  0  0  2  0  0  0  0  0  0
  189.8090  171.9250  142.8600 C   0  0  0  0  0  0  0  0  0  0  0  0
  188.9630  171.9250  143.7910 O   0  0  0  0  0  0  0  0  0  0  0  0
  190.1790  172.3640  140.3120 C   0  0  2  0  0  0  0  0  0  0  0  0
  188.2310  174.5610  140.8520 O   0  0  0  0  0  1  0  0  0  0  0  0
  192.7350  172.7280  138.7320 C   0  0  0  0  0  2  0  0  0  0  0  0
  192.1030  172.6700  137.4710 O   0  0  0  0  0  0  0  0  0  0  0  0
  190.8160  170.6860  138.3570 C   0  0  1  0  0  0  0  0  0  0  0  0
  189.7130  169.8070  137.8060 C   0  0  0  0  0  1  0  0  0  0  0  0
  187.8480  174.8800  138.5090 C   0  0  0  0  0  3  0  0  0  0  0  0
  190.5460  170.9260  139.8550 C   0  0  0  0  0  2  0  0  0  0  0  0
  188.1370  174.5960  137.1740 C   0  0  0  0  0  3  0  0  0  0  0  0
  192.0330  173.7070  139.6630 C   0  0  0  0  0  2  0  0  0  0  0  0
  191.3790  173.0260  140.7140 O   0  0  0  0  0  0  0  0  0  0  0  0
  189.4010  173.1450  139.2340 C   0  0  0  0  0  0  0  0  0  0  0  0
  192.0210  169.9950  138.2200 O   0  0  0  0  0  1  0  0  0  0  0  0
  189.7300  172.9180  137.8800 C   0  0  0  0  0  0  0  0  0  0  0  0
  190.8550  171.9890  137.5340 C   0  0  1  0  0  3  0  0  0  0  0  0
  189.0920  173.6300  136.8620 C   0  0  0  0  0  3  0  0  0  0  0  0
  188.4910  174.1870  139.5380 C   0  0  0  0  0  0  0  0  0  0  0  0
  1  3  1  0  0  0  0
  3  2  1  1  0  0  0
  4  3  1  0  0  0  0
  4  7  1  0  0  0  0
  5  4  2  0  0  0  0
  6  4  2  0  0  0  0
  7 10  1  0  0  0  0
  8 11  1  0  0  0  0
  9 10  2  0  0  0  0
 10  8  1  0  0  0  0
 11 12  1  0  0  0  0
 13 12  1  0  0  0  0
 15 16  1  0  0  0  0
 16 14  1  6  0  0  0
 16 17  1  0  0  0  0
 16 13  1  0  0  0  0
 17 18  1  1  0  0  0
 19 20  2  0  0  0  0
 20 22  1  0  0  0  0
 20 17  1  0  0  0  0
 21 22  1  0  0  0  0
 22 23  2  0  0  0  0
 24  1  1  0  0  0  0
 25 26  1  0  0  0  0
 26 24  1  0  0  0  0
 26 27  2  0  0  0  0
 28 38  1  0  0  0  0
 28 25  1  1  0  0  0
 30 37  1  0  0  0  0
 31 30  1  0  0  0  0
 32 33  1  6  0  0  0
 32 35  1  0  0  0  0
 34 44  1  0  0  0  0
 35 28  1  0  0  0  0
 36 34  2  0  0  0  0
 37 38  1  0  0  0  0
 39 44  2  0  0  0  0
 39 28  1  0  0  0  0
 40 32  1  0  0  0  0
 41 39  1  0  0  0  0
 42 31  1  1  0  0  0
 42 41  1  0  0  0  0
 42 32  1  0  0  0  0
 43 36  1  0  0  0  0
 43 41  2  0  0  0  0
 44 29  1  0  0  0  0
M  END
>  <MODEL>
9

>  <REMARK>
 VINA RESULT:      -6.3      3.044      6.380
  Name = 
  14 active torsions:
  status: ('A' for Active; 'I' for Inactive)
    1  A    between atoms: C_1  and  S_20
    2  A    between atoms: C_1  and  C_28
    3  A    between atoms: S_3  and  C_12
    4  A    between atoms: S_3  and  C_41
    5  A    between atoms: C_5  and  N_13
    6  A    between atoms: C_6  and  C_23
    7  A    between atoms: C_10  and  N_15
    8  A    between atoms: C_10  and  S_20
    9  A    between atoms: C_12  and  C_32
   10  A    between atoms: C_23  and  C_26
   11  A    between atoms: C_24  and  C_41
   12  A    between atoms: C_24  and  C_43
   13  A    between atoms: C_26  and  C_28
   14  A    between atoms: C_37  and  C_43
                            x       y       z     vdW  Elec       q    Type
                         _______ _______ _______ _____ _____    ______ ____

>  <TORSDO>
F 14

$$$$
