=
 OpenBabel11062419563D

 28 30  0  0  1  0  0  0  0  0999 V2000
  186.4460  176.7570  142.4270 O   0  0  0  0  0  0  0  0  0  0  0  0
  186.3800  178.6710  143.7300 N   0  0  0  0  0  0  0  0  0  0  0  0
  185.8330  178.4950  146.1740 C   0  0  0  0  0  0  0  0  0  0  0  0
  186.0290  179.2390  144.9690 N   0  0  0  0  0  0  0  0  0  0  0  0
  185.3970  179.0790  147.2000 O   0  0  0  0  0  0  0  0  0  0  0  0
  187.5660  176.8970  145.8720 N   0  0  0  0  0  0  0  0  0  0  0  0
  187.6860  176.5460  144.4480 C   0  0  1  0  0  3  0  0  0  0  0  0
  186.1690  177.0530  146.2420 C   0  0  0  0  0  2  0  0  0  0  0  0
  186.7730  177.3100  143.5090 C   0  0  0  0  0  0  0  0  0  0  0  0
  189.1140  176.6800  143.9920 C   0  0  0  0  0  0  0  0  0  0  0  0
  189.7570  175.6040  143.3560 C   0  0  0  0  0  0  0  0  0  0  0  0
  189.8210  177.8700  144.2210 C   0  0  0  0  0  3  0  0  0  0  0  0
  191.0910  175.7280  142.9550 C   0  0  0  0  0  3  0  0  0  0  0  0
  191.7880  176.9160  143.1860 C   0  0  0  0  0  3  0  0  0  0  0  0
  191.1530  177.9880  143.8170 C   0  0  0  0  0  3  0  0  0  0  0  0
  189.0810  174.4130  143.1230 O   0  0  0  0  0  1  0  0  0  0  0  0
  188.0600  175.7680  146.6480 C   0  0  0  0  0  2  0  0  0  0  0  0
  189.3600  176.1420  147.3370 C   0  0  0  0  0  2  0  0  0  0  0  0
  190.3350  175.1590  147.0850 O   0  0  0  0  0  0  0  0  0  0  0  0
  191.4600  176.8020  148.3140 O   0  0  0  0  0  1  0  0  0  0  0  0
  191.5660  175.5730  147.6440 C   0  0  2  0  0  3  0  0  0  0  0  0
  193.0850  174.2890  145.9330 C   0  0  0  0  0  2  0  0  0  0  0  0
  194.6960  176.7470  145.6870 C   0  0  0  0  0  2  0  0  0  0  0  0
  194.1160  174.5010  144.8270 C   0  0  0  0  0  2  0  0  0  0  0  0
  193.5120  176.6470  146.6130 C   0  0  0  0  0  3  0  0  0  0  0  0
  195.2520  175.3710  145.3430 C   0  0  1  0  0  3  0  0  0  0  0  0
  196.2290  175.4970  144.3580 O   0  0  0  0  0  1  0  0  0  0  0  0
  192.7170  175.5620  146.6660 C   0  0  0  0  0  0  0  0  0  0  0  0
  1  9  2  0  0  0  0
  2  4  2  0  0  0  0
  3  8  1  0  0  0  0
  3  5  2  0  0  0  0
  4  3  1  0  0  0  0
  6  8  1  0  0  0  0
  6 17  1  0  0  0  0
  7 10  1  6  0  0  0
  7  6  1  0  0  0  0
  9  2  1  0  0  0  0
  9  7  1  0  0  0  0
 10 12  1  0  0  0  0
 11 10  2  0  0  0  0
 13 14  2  0  0  0  0
 13 11  1  0  0  0  0
 14 15  1  0  0  0  0
 15 12  2  0  0  0  0
 16 11  1  0  0  0  0
 17 18  1  0  0  0  0
 19 18  1  0  0  0  0
 19 21  1  0  0  0  0
 21 20  1  6  0  0  0
 22 28  1  0  0  0  0
 23 25  1  0  0  0  0
 24 26  1  0  0  0  0
 24 22  1  0  0  0  0
 25 28  2  0  0  0  0
 26 27  1  6  0  0  0
 26 23  1  0  0  0  0
 28 21  1  0  0  0  0
M  END
>  <MODEL>
1

>  <REMARK>
 VINA RESULT:      -7.1      0.000      0.000
  Name = 
  6 active torsions:
  status: ('A' for Active; 'I' for Inactive)
    1  A    between atoms: C_5  and  C_14
    2  A    between atoms: N_10  and  C_17
    3  A    between atoms: C_13  and  C_17
    4  A    between atoms: C_13  and  O_19
    5  A    between atoms: O_19  and  C_25
    6  A    between atoms: C_25  and  C_28
                            x       y       z     vdW  Elec       q    Type
                         _______ _______ _______ _____ _____    ______ ____

>  <TORSDO>
F 6

$$$$
=
 OpenBabel11062419563D

 28 30  0  0  1  0  0  0  0  0999 V2000
  193.5550  172.3620  144.7700 O   0  0  0  0  0  0  0  0  0  0  0  0
  194.9630  174.0450  145.5140 N   0  0  0  0  0  0  0  0  0  0  0  0
  195.4930  175.9820  144.0070 C   0  0  0  0  0  0  0  0  0  0  0  0
  195.7120  175.1880  145.1750 N   0  0  0  0  0  0  0  0  0  0  0  0
  196.2960  176.9090  143.7270 O   0  0  0  0  0  0  0  0  0  0  0  0
  193.1190  175.8690  143.9600 N   0  0  0  0  0  0  0  0  0  0  0  0
  192.6680  174.5420  144.4080 C   0  0  1  0  0  3  0  0  0  0  0  0
  194.3130  175.7510  143.1400 C   0  0  0  0  0  2  0  0  0  0  0  0
  193.7650  173.6000  144.8630 C   0  0  0  0  0  0  0  0  0  0  0  0
  191.6300  174.6760  145.4890 C   0  0  0  0  0  0  0  0  0  0  0  0
  190.3600  174.0960  145.3270 C   0  0  0  0  0  0  0  0  0  0  0  0
  191.9140  175.4030  146.6560 C   0  0  0  0  0  3  0  0  0  0  0  0
  189.3930  174.2430  146.3260 C   0  0  0  0  0  3  0  0  0  0  0  0
  189.6830  174.9670  147.4840 C   0  0  0  0  0  3  0  0  0  0  0  0
  190.9430  175.5460  147.6500 C   0  0  0  0  0  3  0  0  0  0  0  0
  190.0530  173.3760  144.1780 O   0  0  0  0  0  1  0  0  0  0  0  0
  192.0880  176.4150  143.0880 C   0  0  0  0  0  2  0  0  0  0  0  0
  191.7640  177.8400  143.4970 C   0  0  0  0  0  2  0  0  0  0  0  0
  190.5890  177.8620  144.2690 O   0  0  0  0  0  0  0  0  0  0  0  0
  189.3520  178.1880  142.3090 O   0  0  0  0  0  1  0  0  0  0  0  0
  189.5050  177.4210  143.4740 C   0  0  2  0  0  3  0  0  0  0  0  0
  186.9040  177.0680  143.4880 C   0  0  0  0  0  2  0  0  0  0  0  0
  186.9770  177.4590  146.4100 C   0  0  0  0  0  2  0  0  0  0  0  0
  185.7290  176.7290  144.4020 C   0  0  0  0  0  2  0  0  0  0  0  0
  188.2120  177.5490  145.5530 C   0  0  0  0  0  3  0  0  0  0  0  0
  185.7130  177.6790  145.5900 C   0  0  1  0  0  3  0  0  0  0  0  0
  184.5950  177.4180  146.3810 O   0  0  0  0  0  1  0  0  0  0  0  0
  188.2050  177.2850  144.2330 C   0  0  0  0  0  0  0  0  0  0  0  0
  1  9  2  0  0  0  0
  3  4  1  0  0  0  0
  4  2  2  0  0  0  0
  5  3  2  0  0  0  0
  6  7  1  0  0  0  0
  7  9  1  0  0  0  0
  7 10  1  1  0  0  0
  8  6  1  0  0  0  0
  8  3  1  0  0  0  0
  9  2  1  0  0  0  0
 10 12  1  0  0  0  0
 11 10  2  0  0  0  0
 11 13  1  0  0  0  0
 12 15  2  0  0  0  0
 13 14  2  0  0  0  0
 14 15  1  0  0  0  0
 16 11  1  0  0  0  0
 17 18  1  0  0  0  0
 17  6  1  0  0  0  0
 18 19  1  0  0  0  0
 21 20  1  6  0  0  0
 21 28  1  0  0  0  0
 21 19  1  0  0  0  0
 22 28  1  0  0  0  0
 22 24  1  0  0  0  0
 24 26  1  0  0  0  0
 25 23  1  0  0  0  0
 26 27  1  1  0  0  0
 26 23  1  0  0  0  0
 28 25  2  0  0  0  0
M  END
>  <MODEL>
2

>  <REMARK>
 VINA RESULT:      -6.9      3.022      7.209
  Name = 
  6 active torsions:
  status: ('A' for Active; 'I' for Inactive)
    1  A    between atoms: C_5  and  C_14
    2  A    between atoms: N_10  and  C_17
    3  A    between atoms: C_13  and  C_17
    4  A    between atoms: C_13  and  O_19
    5  A    between atoms: O_19  and  C_25
    6  A    between atoms: C_25  and  C_28
                            x       y       z     vdW  Elec       q    Type
                         _______ _______ _______ _____ _____    ______ ____

>  <TORSDO>
F 6

$$$$
=
 OpenBabel11062419563D

 28 30  0  0  1  0  0  0  0  0999 V2000
  186.5410  177.3650  141.5740 O   0  0  0  0  0  0  0  0  0  0  0  0
  187.1930  175.2710  142.3180 N   0  0  0  0  0  0  0  0  0  0  0  0
  189.5420  174.9120  143.1280 C   0  0  0  0  0  0  0  0  0  0  0  0
  188.2610  174.4390  142.7050 N   0  0  0  0  0  0  0  0  0  0  0  0
  190.4710  174.0890  143.3320 O   0  0  0  0  0  0  0  0  0  0  0  0
  188.8140  176.8200  144.3450 N   0  0  0  0  0  0  0  0  0  0  0  0
  187.6550  177.4320  143.6770 C   0  0  1  0  0  3  0  0  0  0  0  0
  189.7810  176.3560  143.3640 C   0  0  0  0  0  2  0  0  0  0  0  0
  187.1440  176.6970  142.4540 C   0  0  0  0  0  0  0  0  0  0  0  0
  186.5310  177.6360  144.6570 C   0  0  0  0  0  0  0  0  0  0  0  0
  185.7900  178.8300  144.6460 C   0  0  0  0  0  0  0  0  0  0  0  0
  186.2310  176.6460  145.6060 C   0  0  0  0  0  3  0  0  0  0  0  0
  184.7610  179.0220  145.5730 C   0  0  0  0  0  3  0  0  0  0  0  0
  184.4680  178.0320  146.5130 C   0  0  0  0  0  3  0  0  0  0  0  0
  185.2020  176.8440  146.5290 C   0  0  0  0  0  3  0  0  0  0  0  0
  186.0710  179.8290  143.7200 O   0  0  0  0  0  1  0  0  0  0  0  0
  189.4880  177.8640  145.1060 C   0  0  0  0  0  2  0  0  0  0  0  0
  189.6640  177.4230  146.5470 C   0  0  0  0  0  2  0  0  0  0  0  0
  189.9920  176.0560  146.5920 O   0  0  0  0  0  0  0  0  0  0  0  0
  191.2380  176.8970  148.3860 O   0  0  0  0  0  1  0  0  0  0  0  0
  191.1170  175.8760  147.4310 C   0  0  2  0  0  3  0  0  0  0  0  0
  192.7260  174.2890  146.0950 C   0  0  0  0  0  2  0  0  0  0  0  0
  194.6680  176.5060  146.0180 C   0  0  0  0  0  2  0  0  0  0  0  0
  193.9530  174.2890  145.1860 C   0  0  0  0  0  2  0  0  0  0  0  0
  193.3390  176.6230  146.7160 C   0  0  0  0  0  3  0  0  0  0  0  0
  195.0870  175.0510  145.8540 C   0  0  1  0  0  3  0  0  0  0  0  0
  196.2290  174.9820  145.0580 O   0  0  0  0  0  1  0  0  0  0  0  0
  192.4090  175.6500  146.6810 C   0  0  0  0  0  0  0  0  0  0  0  0
  1  9  2  0  0  0  0
  2  9  1  0  0  0  0
  2  4  2  0  0  0  0
  3  5  2  0  0  0  0
  3  8  1  0  0  0  0
  4  3  1  0  0  0  0
  6 17  1  0  0  0  0
  7  6  1  0  0  0  0
  7 10  1  1  0  0  0
  8  6  1  0  0  0  0
  9  7  1  0  0  0  0
 10 12  1  0  0  0  0
 11 10  2  0  0  0  0
 11 13  1  0  0  0  0
 12 15  2  0  0  0  0
 13 14  2  0  0  0  0
 14 15  1  0  0  0  0
 16 11  1  0  0  0  0
 17 18  1  0  0  0  0
 18 19  1  0  0  0  0
 19 21  1  0  0  0  0
 21 20  1  6  0  0  0
 22 28  1  0  0  0  0
 23 25  1  0  0  0  0
 24 26  1  0  0  0  0
 24 22  1  0  0  0  0
 26 27  1  6  0  0  0
 26 23  1  0  0  0  0
 28 25  2  0  0  0  0
 28 21  1  0  0  0  0
M  END
>  <MODEL>
3

>  <REMARK>
 VINA RESULT:      -6.9      1.614      4.017
  Name = 
  6 active torsions:
  status: ('A' for Active; 'I' for Inactive)
    1  A    between atoms: C_5  and  C_14
    2  A    between atoms: N_10  and  C_17
    3  A    between atoms: C_13  and  C_17
    4  A    between atoms: C_13  and  O_19
    5  A    between atoms: O_19  and  C_25
    6  A    between atoms: C_25  and  C_28
                            x       y       z     vdW  Elec       q    Type
                         _______ _______ _______ _____ _____    ______ ____

>  <TORSDO>
F 6

$$$$
=
 OpenBabel11062419563D

 28 30  0  0  1  0  0  0  0  0999 V2000
  192.5280  173.3400  145.0440 O   0  0  0  0  0  0  0  0  0  0  0  0
  193.1130  174.5200  143.1390 N   0  0  0  0  0  0  0  0  0  0  0  0
  192.0210  173.9670  140.9470 C   0  0  0  0  0  0  0  0  0  0  0  0
  193.0240  174.6100  141.7370 N   0  0  0  0  0  0  0  0  0  0  0  0
  192.1020  174.0050  139.6910 O   0  0  0  0  0  0  0  0  0  0  0  0
  190.1860  174.2510  142.4300 N   0  0  0  0  0  0  0  0  0  0  0  0
  190.6410  174.1280  143.8240 C   0  0  1  0  0  3  0  0  0  0  0  0
  190.8700  173.2860  141.5840 C   0  0  0  0  0  2  0  0  0  0  0  0
  192.1330  173.9380  144.0090 C   0  0  0  0  0  0  0  0  0  0  0  0
  190.1720  175.3050  144.6360 C   0  0  0  0  0  0  0  0  0  0  0  0
  189.5550  175.1040  145.8820 C   0  0  0  0  0  0  0  0  0  0  0  0
  190.3250  176.6100  144.1420 C   0  0  0  0  0  3  0  0  0  0  0  0
  189.1020  176.2010  146.6220 C   0  0  0  0  0  3  0  0  0  0  0  0
  189.2580  177.4970  146.1240 C   0  0  0  0  0  3  0  0  0  0  0  0
  189.8700  177.7020  144.8850 C   0  0  0  0  0  3  0  0  0  0  0  0
  189.3870  173.8220  146.3910 O   0  0  0  0  0  1  0  0  0  0  0  0
  188.7760  173.8860  142.3910 C   0  0  0  0  0  2  0  0  0  0  0  0
  187.9730  174.9920  141.7310 C   0  0  0  0  0  2  0  0  0  0  0  0
  186.8780  175.3380  142.5440 O   0  0  0  0  0  0  0  0  0  0  0  0
  187.7830  177.4140  141.9560 O   0  0  0  0  0  1  0  0  0  0  0  0
  186.6670  176.7340  142.4680 C   0  0  2  0  0  3  0  0  0  0  0  0
  186.1920  178.8540  143.9400 C   0  0  0  0  0  2  0  0  0  0  0  0
  185.4220  177.0280  146.1240 C   0  0  0  0  0  2  0  0  0  0  0  0
  185.4600  179.3210  145.1970 C   0  0  0  0  0  2  0  0  0  0  0  0
  185.9070  176.5290  144.7880 C   0  0  0  0  0  3  0  0  0  0  0  0
  185.8720  178.4600  146.3810 C   0  0  1  0  0  3  0  0  0  0  0  0
  185.2630  178.9380  147.5400 O   0  0  0  0  0  1  0  0  0  0  0  0
  186.1750  177.3500  143.7560 C   0  0  0  0  0  0  0  0  0  0  0  0
  2  9  1  0  0  0  0
  3  8  1  0  0  0  0
  3  4  1  0  0  0  0
  4  2  2  0  0  0  0
  5  3  2  0  0  0  0
  6  7  1  0  0  0  0
  7  9  1  0  0  0  0
  7 10  1  1  0  0  0
  8  6  1  0  0  0  0
  9  1  2  0  0  0  0
 10 11  1  0  0  0  0
 11 16  1  0  0  0  0
 11 13  2  0  0  0  0
 12 10  2  0  0  0  0
 12 15  1  0  0  0  0
 14 13  1  0  0  0  0
 15 14  2  0  0  0  0
 17  6  1  0  0  0  0
 18 17  1  0  0  0  0
 18 19  1  0  0  0  0
 21 20  1  1  0  0  0
 21 19  1  0  0  0  0
 21 28  1  0  0  0  0
 22 24  1  0  0  0  0
 23 26  1  0  0  0  0
 24 26  1  0  0  0  0
 25 23  1  0  0  0  0
 26 27  1  1  0  0  0
 28 22  1  0  0  0  0
 28 25  2  0  0  0  0
M  END
>  <MODEL>
4

>  <REMARK>
 VINA RESULT:      -6.7      2.988      7.121
  Name = 
  6 active torsions:
  status: ('A' for Active; 'I' for Inactive)
    1  A    between atoms: C_5  and  C_14
    2  A    between atoms: N_10  and  C_17
    3  A    between atoms: C_13  and  C_17
    4  A    between atoms: C_13  and  O_19
    5  A    between atoms: O_19  and  C_25
    6  A    between atoms: C_25  and  C_28
                            x       y       z     vdW  Elec       q    Type
                         _______ _______ _______ _____ _____    ______ ____

>  <TORSDO>
F 6

$$$$
=
 OpenBabel11062419563D

 28 30  0  0  1  0  0  0  0  0999 V2000
  193.1020  173.9730  145.9030 O   0  0  0  0  0  0  0  0  0  0  0  0
  193.8460  175.6090  144.4420 N   0  0  0  0  0  0  0  0  0  0  0  0
  193.5400  175.3020  141.9690 C   0  0  0  0  0  0  0  0  0  0  0  0
  194.1060  175.9620  143.1040 N   0  0  0  0  0  0  0  0  0  0  0  0
  193.9320  175.6090  140.8140 O   0  0  0  0  0  0  0  0  0  0  0  0
  191.3720  174.9000  142.8550 N   0  0  0  0  0  0  0  0  0  0  0  0
  191.4630  174.5920  144.2910 C   0  0  1  0  0  3  0  0  0  0  0  0
  192.4730  174.2860  142.1320 C   0  0  0  0  0  2  0  0  0  0  0  0
  192.8530  174.6760  144.8890 C   0  0  0  0  0  0  0  0  0  0  0  0
  190.5170  175.4590  145.0760 C   0  0  0  0  0  0  0  0  0  0  0  0
  189.5900  174.8780  145.9590 C   0  0  0  0  0  0  0  0  0  0  0  0
  190.5360  176.8540  144.9140 C   0  0  0  0  0  3  0  0  0  0  0  0
  188.6990  175.6890  146.6690 C   0  0  0  0  0  3  0  0  0  0  0  0
  188.7250  177.0760  146.5030 C   0  0  0  0  0  3  0  0  0  0  0  0
  189.6430  177.6580  145.6260 C   0  0  0  0  0  3  0  0  0  0  0  0
  189.5480  173.5000  146.1340 O   0  0  0  0  0  1  0  0  0  0  0  0
  190.1600  174.2730  142.3450 C   0  0  0  0  0  2  0  0  0  0  0  0
  189.2840  175.3110  141.6670 C   0  0  0  0  0  2  0  0  0  0  0  0
  188.1670  175.5930  142.4740 O   0  0  0  0  0  0  0  0  0  0  0  0
  188.8110  177.7920  142.0000 O   0  0  0  0  0  1  0  0  0  0  0  0
  187.7370  176.9170  142.2230 C   0  0  2  0  0  3  0  0  0  0  0  0
  186.0310  176.5080  144.1750 C   0  0  0  0  0  2  0  0  0  0  0  0
  185.5130  179.4110  144.1820 C   0  0  0  0  0  2  0  0  0  0  0  0
  185.2800  177.2170  145.3000 C   0  0  0  0  0  2  0  0  0  0  0  0
  186.4660  178.7650  143.2120 C   0  0  0  0  0  3  0  0  0  0  0  0
  184.5140  178.4050  144.7380 C   0  0  1  0  0  3  0  0  0  0  0  0
  183.7670  179.0020  145.7520 O   0  0  0  0  0  1  0  0  0  0  0  0
  186.7770  177.4560  143.2580 C   0  0  0  0  0  0  0  0  0  0  0  0
  2  9  1  0  0  0  0
  3  8  1  0  0  0  0
  3  4  1  0  0  0  0
  4  2  2  0  0  0  0
  5  3  2  0  0  0  0
  6  7  1  0  0  0  0
  7  9  1  0  0  0  0
  7 10  1  1  0  0  0
  8  6  1  0  0  0  0
  9  1  2  0  0  0  0
 10 11  1  0  0  0  0
 11 16  1  0  0  0  0
 11 13  2  0  0  0  0
 12 10  2  0  0  0  0
 12 15  1  0  0  0  0
 14 13  1  0  0  0  0
 15 14  2  0  0  0  0
 17  6  1  0  0  0  0
 18 17  1  0  0  0  0
 18 19  1  0  0  0  0
 21 20  1  1  0  0  0
 21 19  1  0  0  0  0
 21 28  1  0  0  0  0
 22 24  1  0  0  0  0
 23 26  1  0  0  0  0
 25 28  2  0  0  0  0
 25 23  1  0  0  0  0
 26 24  1  0  0  0  0
 26 27  1  1  0  0  0
 28 22  1  0  0  0  0
M  END
>  <MODEL>
5

>  <REMARK>
 VINA RESULT:      -6.7      2.865      7.254
  Name = 
  6 active torsions:
  status: ('A' for Active; 'I' for Inactive)
    1  A    between atoms: C_5  and  C_14
    2  A    between atoms: N_10  and  C_17
    3  A    between atoms: C_13  and  C_17
    4  A    between atoms: C_13  and  O_19
    5  A    between atoms: O_19  and  C_25
    6  A    between atoms: C_25  and  C_28
                            x       y       z     vdW  Elec       q    Type
                         _______ _______ _______ _____ _____    ______ ____

>  <TORSDO>
F 6

$$$$
=
 OpenBabel11062419563D

 28 30  0  0  1  0  0  0  0  0999 V2000
  189.2130  174.1450  146.8300 O   0  0  0  0  0  0  0  0  0  0  0  0
  189.7230  172.5620  145.2180 N   0  0  0  0  0  0  0  0  0  0  0  0
  189.1330  172.9950  142.8170 C   0  0  0  0  0  0  0  0  0  0  0  0
  189.5530  172.1430  143.8850 N   0  0  0  0  0  0  0  0  0  0  0  0
  188.8880  172.4980  141.6870 O   0  0  0  0  0  0  0  0  0  0  0  0
  190.3010  174.9590  143.4690 N   0  0  0  0  0  0  0  0  0  0  0  0
  190.3180  175.0720  144.9360 C   0  0  1  0  0  3  0  0  0  0  0  0
  189.0150  174.4600  143.0120 C   0  0  0  0  0  2  0  0  0  0  0  0
  189.6860  173.9170  145.6860 C   0  0  0  0  0  0  0  0  0  0  0  0
  191.7220  175.2950  145.4300 C   0  0  0  0  0  0  0  0  0  0  0  0
  191.9850  176.2840  146.3930 C   0  0  0  0  0  0  0  0  0  0  0  0
  192.7820  174.5330  144.9150 C   0  0  0  0  0  3  0  0  0  0  0  0
  193.2950  176.5000  146.8320 C   0  0  0  0  0  3  0  0  0  0  0  0
  194.3450  175.7370  146.3140 C   0  0  0  0  0  3  0  0  0  0  0  0
  194.0880  174.7530  145.3570 C   0  0  0  0  0  3  0  0  0  0  0  0
  190.9540  177.0550  146.9150 O   0  0  0  0  0  1  0  0  0  0  0  0
  190.4240  176.3040  142.9210 C   0  0  0  0  0  2  0  0  0  0  0  0
  189.1970  176.6420  142.0950 C   0  0  0  0  0  2  0  0  0  0  0  0
  188.6970  177.9010  142.4750 O   0  0  0  0  0  0  0  0  0  0  0  0
  186.5660  178.6100  141.8180 O   0  0  0  0  0  1  0  0  0  0  0  0
  187.3030  177.7990  142.6940 C   0  0  2  0  0  3  0  0  0  0  0  0
  187.3470  177.0340  145.2040 C   0  0  0  0  0  2  0  0  0  0  0  0
  185.4770  179.2370  145.7920 C   0  0  0  0  0  2  0  0  0  0  0  0
  187.0360  177.5060  146.6230 C   0  0  0  0  0  2  0  0  0  0  0  0
  185.9720  178.9500  144.3990 C   0  0  0  0  0  3  0  0  0  0  0  0
  185.6050  178.0160  146.6930 C   0  0  1  0  0  3  0  0  0  0  0  0
  185.3000  178.3710  148.0060 O   0  0  0  0  0  1  0  0  0  0  0  0
  186.8930  178.0050  144.1330 C   0  0  0  0  0  0  0  0  0  0  0  0
  2  9  1  0  0  0  0
  3  8  1  0  0  0  0
  3  4  1  0  0  0  0
  4  2  2  0  0  0  0
  5  3  2  0  0  0  0
  6  7  1  0  0  0  0
  7 10  1  1  0  0  0
  7  9  1  0  0  0  0
  8  6  1  0  0  0  0
  9  1  2  0  0  0  0
 10 11  1  0  0  0  0
 11 13  2  0  0  0  0
 11 16  1  0  0  0  0
 12 15  1  0  0  0  0
 12 10  2  0  0  0  0
 14 13  1  0  0  0  0
 15 14  2  0  0  0  0
 17  6  1  0  0  0  0
 18 19  1  0  0  0  0
 18 17  1  0  0  0  0
 19 21  1  0  0  0  0
 21 20  1  6  0  0  0
 21 28  1  0  0  0  0
 22 24  1  0  0  0  0
 23 26  1  0  0  0  0
 24 26  1  0  0  0  0
 25 23  1  0  0  0  0
 26 27  1  1  0  0  0
 28 25  2  0  0  0  0
 28 22  1  0  0  0  0
M  END
>  <MODEL>
6

>  <REMARK>
 VINA RESULT:      -6.6      2.512      6.656
  Name = 
  6 active torsions:
  status: ('A' for Active; 'I' for Inactive)
    1  A    between atoms: C_5  and  C_14
    2  A    between atoms: N_10  and  C_17
    3  A    between atoms: C_13  and  C_17
    4  A    between atoms: C_13  and  O_19
    5  A    between atoms: O_19  and  C_25
    6  A    between atoms: C_25  and  C_28
                            x       y       z     vdW  Elec       q    Type
                         _______ _______ _______ _____ _____    ______ ____

>  <TORSDO>
F 6

$$$$
=
 OpenBabel11062419563D

 28 30  0  0  1  0  0  0  0  0999 V2000
  191.9770  175.4190  148.1000 O   0  0  0  0  0  0  0  0  0  0  0  0
  193.0650  176.7390  146.5390 N   0  0  0  0  0  0  0  0  0  0  0  0
  193.8060  175.7360  144.3600 C   0  0  0  0  0  0  0  0  0  0  0  0
  193.7990  176.7780  145.3380 N   0  0  0  0  0  0  0  0  0  0  0  0
  194.5920  175.8090  143.3800 O   0  0  0  0  0  0  0  0  0  0  0  0
  191.5190  175.1070  144.5180 N   0  0  0  0  0  0  0  0  0  0  0  0
  191.0620  175.2130  145.9120 C   0  0  1  0  0  3  0  0  0  0  0  0
  192.8750  174.5870  144.4650 C   0  0  0  0  0  2  0  0  0  0  0  0
  192.0810  175.7580  146.8930 C   0  0  0  0  0  0  0  0  0  0  0  0
  189.7960  176.0230  145.9900 C   0  0  0  0  0  0  0  0  0  0  0  0
  188.7460  175.6160  146.8320 C   0  0  0  0  0  0  0  0  0  0  0  0
  189.6430  177.1760  145.2040 C   0  0  0  0  0  3  0  0  0  0  0  0
  187.5640  176.3610  146.8830 C   0  0  0  0  0  3  0  0  0  0  0  0
  187.4210  177.5080  146.0980 C   0  0  0  0  0  3  0  0  0  0  0  0
  188.4600  177.9160  145.2600 C   0  0  0  0  0  3  0  0  0  0  0  0
  188.8700  174.4760  147.6160 O   0  0  0  0  0  1  0  0  0  0  0  0
  190.6850  174.1140  143.8540 C   0  0  0  0  0  2  0  0  0  0  0  0
  190.7230  174.3260  142.3510 C   0  0  0  0  0  2  0  0  0  0  0  0
  189.9580  175.4550  142.0070 O   0  0  0  0  0  0  0  0  0  0  0  0
  188.6100  174.5440  140.3260 O   0  0  0  0  0  1  0  0  0  0  0  0
  188.6580  175.0390  141.6380 C   0  0  2  0  0  3  0  0  0  0  0  0
  187.6760  177.4390  141.2300 C   0  0  0  0  0  2  0  0  0  0  0  0
  185.5730  176.7900  143.1930 C   0  0  0  0  0  2  0  0  0  0  0  0
  186.4150  178.2800  141.4070 C   0  0  0  0  0  2  0  0  0  0  0  0
  186.6770  175.8270  142.8460 C   0  0  0  0  0  3  0  0  0  0  0  0
  185.9580  178.2250  142.8570 C   0  0  1  0  0  3  0  0  0  0  0  0
  184.8540  179.0570  143.0310 O   0  0  0  0  0  1  0  0  0  0  0  0
  187.5890  176.0760  141.8880 C   0  0  0  0  0  0  0  0  0  0  0  0
  2  9  1  0  0  0  0
  3  8  1  0  0  0  0
  3  4  1  0  0  0  0
  4  2  2  0  0  0  0
  5  3  2  0  0  0  0
  6  7  1  0  0  0  0
  7 10  1  6  0  0  0
  7  9  1  0  0  0  0
  8  6  1  0  0  0  0
  9  1  2  0  0  0  0
 10 11  1  0  0  0  0
 11 13  2  0  0  0  0
 11 16  1  0  0  0  0
 12 15  1  0  0  0  0
 12 10  2  0  0  0  0
 14 13  1  0  0  0  0
 15 14  2  0  0  0  0
 17  6  1  0  0  0  0
 18 17  1  0  0  0  0
 19 18  1  0  0  0  0
 21 20  1  6  0  0  0
 21 28  1  0  0  0  0
 21 19  1  0  0  0  0
 22 24  1  0  0  0  0
 22 28  1  0  0  0  0
 24 26  1  0  0  0  0
 25 23  1  0  0  0  0
 26 27  1  6  0  0  0
 26 23  1  0  0  0  0
 28 25  2  0  0  0  0
M  END
>  <MODEL>
7

>  <REMARK>
 VINA RESULT:      -6.5      2.627      7.061
  Name = 
  6 active torsions:
  status: ('A' for Active; 'I' for Inactive)
    1  A    between atoms: C_5  and  C_14
    2  A    between atoms: N_10  and  C_17
    3  A    between atoms: C_13  and  C_17
    4  A    between atoms: C_13  and  O_19
    5  A    between atoms: O_19  and  C_25
    6  A    between atoms: C_25  and  C_28
                            x       y       z     vdW  Elec       q    Type
                         _______ _______ _______ _____ _____    ______ ____

>  <TORSDO>
F 6

$$$$
=
 OpenBabel11062419563D

 28 30  0  0  1  0  0  0  0  0999 V2000
  191.1180  177.1920  143.5040 O   0  0  0  0  0  0  0  0  0  0  0  0
  192.2850  176.5090  145.3840 N   0  0  0  0  0  0  0  0  0  0  0  0
  191.3280  176.9340  147.6660 C   0  0  0  0  0  0  0  0  0  0  0  0
  192.3930  176.5650  146.7860 N   0  0  0  0  0  0  0  0  0  0  0  0
  191.5600  177.0760  148.8950 O   0  0  0  0  0  0  0  0  0  0  0  0
  189.5440  175.8850  146.4970 N   0  0  0  0  0  0  0  0  0  0  0  0
  189.7670  175.9810  145.0460 C   0  0  1  0  0  3  0  0  0  0  0  0
  189.9480  177.1160  147.1570 C   0  0  0  0  0  2  0  0  0  0  0  0
  191.0720  176.6270  144.6280 C   0  0  0  0  0  0  0  0  0  0  0  0
  189.6390  174.6260  144.4040 C   0  0  0  0  0  0  0  0  0  0  0  0
  188.9380  174.4790  143.1950 C   0  0  0  0  0  0  0  0  0  0  0  0
  190.1990  173.4960  145.0200 C   0  0  0  0  0  3  0  0  0  0  0  0
  188.8040  173.2140  142.6140 C   0  0  0  0  0  3  0  0  0  0  0  0
  189.3650  172.0940  143.2340 C   0  0  0  0  0  3  0  0  0  0  0  0
  190.0630  172.2350  144.4350 C   0  0  0  0  0  3  0  0  0  0  0  0
  188.3700  175.5810  142.5670 O   0  0  0  0  0  1  0  0  0  0  0  0
  188.1090  175.7670  146.7170 C   0  0  0  0  0  2  0  0  0  0  0  0
  187.4950  177.1450  146.8850 C   0  0  0  0  0  2  0  0  0  0  0  0
  186.1860  177.1510  146.3710 O   0  0  0  0  0  0  0  0  0  0  0  0
  184.8240  179.0420  146.5840 O   0  0  0  0  0  1  0  0  0  0  0  0
  185.8840  178.4450  145.8860 C   0  0  2  0  0  3  0  0  0  0  0  0
  184.3030  178.2820  143.7970 C   0  0  0  0  0  2  0  0  0  0  0  0
  186.6910  178.6240  142.1010 C   0  0  0  0  0  2  0  0  0  0  0  0
  184.2260  178.5970  142.3050 C   0  0  0  0  0  2  0  0  0  0  0  0
  186.7700  178.5710  143.6040 C   0  0  0  0  0  3  0  0  0  0  0  0
  185.4130  177.9740  141.5870 C   0  0  1  0  0  3  0  0  0  0  0  0
  185.2980  178.1960  140.2150 O   0  0  0  0  0  1  0  0  0  0  0  0
  185.6790  178.5060  144.3900 C   0  0  0  0  0  0  0  0  0  0  0  0
  1  9  2  0  0  0  0
  2  4  2  0  0  0  0
  3  5  2  0  0  0  0
  4  3  1  0  0  0  0
  6 17  1  0  0  0  0
  6  8  1  0  0  0  0
  7 10  1  1  0  0  0
  7  6  1  0  0  0  0
  8  3  1  0  0  0  0
  9  7  1  0  0  0  0
  9  2  1  0  0  0  0
 10 12  1  0  0  0  0
 11 10  2  0  0  0  0
 13 11  1  0  0  0  0
 13 14  2  0  0  0  0
 14 15  1  0  0  0  0
 15 12  2  0  0  0  0
 16 11  1  0  0  0  0
 17 18  1  0  0  0  0
 19 18  1  0  0  0  0
 21 19  1  0  0  0  0
 21 20  1  1  0  0  0
 22 28  1  0  0  0  0
 23 25  1  0  0  0  0
 24 22  1  0  0  0  0
 25 28  2  0  0  0  0
 26 27  1  6  0  0  0
 26 23  1  0  0  0  0
 26 24  1  0  0  0  0
 28 21  1  0  0  0  0
M  END
>  <MODEL>
8

>  <REMARK>
 VINA RESULT:      -6.4      2.670      6.410
  Name = 
  6 active torsions:
  status: ('A' for Active; 'I' for Inactive)
    1  A    between atoms: C_5  and  C_14
    2  A    between atoms: N_10  and  C_17
    3  A    between atoms: C_13  and  C_17
    4  A    between atoms: C_13  and  O_19
    5  A    between atoms: O_19  and  C_25
    6  A    between atoms: C_25  and  C_28
                            x       y       z     vdW  Elec       q    Type
                         _______ _______ _______ _____ _____    ______ ____

>  <TORSDO>
F 6

$$$$
=
 OpenBabel11062419563D

 28 30  0  0  1  0  0  0  0  0999 V2000
  192.3000  174.1610  144.8800 O   0  0  0  0  0  0  0  0  0  0  0  0
  190.3360  174.4910  146.0630 N   0  0  0  0  0  0  0  0  0  0  0  0
  189.3650  176.8000  146.2450 C   0  0  0  0  0  0  0  0  0  0  0  0
  189.4440  175.4240  146.6250 N   0  0  0  0  0  0  0  0  0  0  0  0
  188.6240  177.5820  146.8950 O   0  0  0  0  0  0  0  0  0  0  0  0
  189.7300  176.5280  143.9120 N   0  0  0  0  0  0  0  0  0  0  0  0
  190.6960  175.4440  143.6750 C   0  0  1  0  0  3  0  0  0  0  0  0
  190.1170  177.3110  145.0740 C   0  0  0  0  0  2  0  0  0  0  0  0
  191.1670  174.7080  144.9140 C   0  0  0  0  0  0  0  0  0  0  0  0
  190.1480  174.4610  142.6760 C   0  0  0  0  0  0  0  0  0  0  0  0
  190.8850  174.1380  141.5240 C   0  0  0  0  0  0  0  0  0  0  0  0
  188.8860  173.8790  142.8750 C   0  0  0  0  0  3  0  0  0  0  0  0
  190.3610  173.2400  140.5880 C   0  0  0  0  0  3  0  0  0  0  0  0
  189.1040  172.6650  140.7940 C   0  0  0  0  0  3  0  0  0  0  0  0
  188.3680  172.9830  141.9370 C   0  0  0  0  0  3  0  0  0  0  0  0
  192.1340  174.7050  141.3010 O   0  0  0  0  0  1  0  0  0  0  0  0
  189.8010  177.4380  142.7770 C   0  0  0  0  0  2  0  0  0  0  0  0
  188.4090  177.9230  142.4130 C   0  0  0  0  0  2  0  0  0  0  0  0
  187.5690  176.8230  142.1630 O   0  0  0  0  0  0  0  0  0  0  0  0
  185.9860  178.2970  141.2730 O   0  0  0  0  0  1  0  0  0  0  0  0
  186.2230  177.2540  142.1810 C   0  0  2  0  0  3  0  0  0  0  0  0
  185.1220  178.9490  143.8560 C   0  0  0  0  0  2  0  0  0  0  0  0
  185.4840  176.9240  145.9690 C   0  0  0  0  0  2  0  0  0  0  0  0
  184.4430  179.0400  145.2210 C   0  0  0  0  0  2  0  0  0  0  0  0
  185.9420  176.7020  144.5520 C   0  0  0  0  0  3  0  0  0  0  0  0
  185.3320  178.4070  146.2800 C   0  0  1  0  0  3  0  0  0  0  0  0
  184.7460  178.5620  147.5350 O   0  0  0  0  0  1  0  0  0  0  0  0
  185.7020  177.5810  143.5610 C   0  0  0  0  0  0  0  0  0  0  0  0
  1  9  2  0  0  0  0
  2  4  2  0  0  0  0
  3  4  1  0  0  0  0
  3  5  2  0  0  0  0
  6  8  1  0  0  0  0
  7 10  1  6  0  0  0
  7  6  1  0  0  0  0
  7  9  1  0  0  0  0
  8  3  1  0  0  0  0
  9  2  1  0  0  0  0
 10 12  1  0  0  0  0
 11 10  2  0  0  0  0
 13 14  2  0  0  0  0
 13 11  1  0  0  0  0
 14 15  1  0  0  0  0
 15 12  2  0  0  0  0
 16 11  1  0  0  0  0
 17  6  1  0  0  0  0
 18 17  1  0  0  0  0
 19 21  1  0  0  0  0
 19 18  1  0  0  0  0
 21 20  1  6  0  0  0
 21 28  1  0  0  0  0
 22 24  1  0  0  0  0
 23 26  1  0  0  0  0
 24 26  1  0  0  0  0
 25 23  1  0  0  0  0
 26 27  1  1  0  0  0
 28 22  1  0  0  0  0
 28 25  2  0  0  0  0
M  END
>  <MODEL>
9

>  <REMARK>
 VINA RESULT:      -6.4      2.599      6.635
  Name = 
  6 active torsions:
  status: ('A' for Active; 'I' for Inactive)
    1  A    between atoms: C_5  and  C_14
    2  A    between atoms: N_10  and  C_17
    3  A    between atoms: C_13  and  C_17
    4  A    between atoms: C_13  and  O_19
    5  A    between atoms: O_19  and  C_25
    6  A    between atoms: C_25  and  C_28
                            x       y       z     vdW  Elec       q    Type
                         _______ _______ _______ _____ _____    ______ ____

>  <TORSDO>
F 6

$$$$
