=
 OpenBabel11072408513D

 26 30  0  0  0  0  0  0  0  0999 V2000
  185.2470  178.5270  145.8100 C   0  0  0  0  0  0  0  0  0  0  0  0
  184.9560  178.6580  147.2710 C   0  0  0  0  0  2  0  0  0  0  0  0
  188.1040  176.7490  147.0710 C   0  0  0  0  0  3  0  0  0  0  0  0
  186.1190  177.9800  147.8840 N   0  0  0  0  0  0  0  0  0  0  0  0
  186.9130  177.2890  144.5130 C   0  0  0  0  0  0  0  0  0  0  0  0
  188.5890  176.1730  145.9450 C   0  0  0  0  0  0  0  0  0  0  0  0
  184.4110  178.5420  144.7680 C   0  0  0  0  0  3  0  0  0  0  0  0
  186.0790  177.4240  143.3530 N   0  0  0  0  0  0  0  0  0  0  0  0
  184.9190  178.0360  143.4450 C   0  0  0  0  0  0  0  0  0  0  0  0
  187.9200  176.4110  144.6110 C   0  0  0  0  0  3  0  0  0  0  0  0
  186.9540  177.6530  146.9460 C   0  0  0  0  0  0  0  0  0  0  0  0
  186.5280  178.0010  145.6660 N   0  0  0  0  0  0  0  0  0  0  0  0
  182.4040  178.3660  140.9830 C   0  0  0  0  0  0  0  0  0  0  0  0
  184.5220  178.1590  140.9400 C   0  0  0  0  0  2  0  0  0  0  0  0
  184.0740  178.1610  142.2470 C   0  0  0  0  0  0  0  0  0  0  0  0
  183.4490  178.2920  140.1380 N   0  0  0  0  0  0  0  0  0  0  0  0
  182.7360  178.2910  142.2860 N   0  0  0  0  0  0  0  0  0  0  0  0
  181.0610  178.5140  140.5380 N   0  0  0  0  0  1  0  0  0  0  0  0
  189.7180  175.3500  146.0730 O   0  0  0  0  0  0  0  0  0  0  0  0
  192.6810  176.7910  144.3980 C   0  0  0  0  0  3  0  0  0  0  0  0
  193.6940  176.5210  145.3230 C   0  0  0  0  0  0  0  0  0  0  0  0
  191.3680  176.3890  144.6620 C   0  0  0  0  0  3  0  0  0  0  0  0
  193.3920  175.8550  146.5130 C   0  0  0  0  0  3  0  0  0  0  0  0
  195.3370  177.0220  144.9920 Cl  0  0  0  0  0  0  0  0  0  0  0  0
  192.0780  175.4560  146.7760 C   0  0  0  0  0  3  0  0  0  0  0  0
  191.0560  175.7140  145.8480 C   0  0  0  0  0  0  0  0  0  0  0  0
  1  2  1  0  0  0  0
  2  4  1  0  0  0  0
  5 10  2  0  0  0  0
  5 12  1  0  0  0  0
  6 19  1  0  0  0  0
  6  3  2  0  0  0  0
  7  1  2  0  0  0  0
  8  9  2  0  0  0  0
  8  5  1  0  0  0  0
  9  7  1  0  0  0  0
 10  6  1  0  0  0  0
 11  3  1  0  0  0  0
 11  4  2  0  0  0  0
 12  1  1  0  0  0  0
 12 11  1  0  0  0  0
 13 17  1  0  0  0  0
 14 15  1  0  0  0  0
 15 17  2  0  0  0  0
 15  9  1  0  0  0  0
 16 14  1  0  0  0  0
 16 13  2  0  0  0  0
 18 13  1  0  0  0  0
 20 22  2  0  0  0  0
 20 21  1  0  0  0  0
 21 23  2  0  0  0  0
 22 26  1  0  0  0  0
 23 25  1  0  0  0  0
 24 21  1  0  0  0  0
 26 19  1  0  0  0  0
 26 25  2  0  0  0  0
M  END
>  <MODEL>
1

>  <REMARK>
 VINA RESULT:      -7.9      0.000      0.000
  Name = 
  3 active torsions:
  status: ('A' for Active; 'I' for Inactive)
    1  A    between atoms: C_12  and  C_17
    2  A    between atoms: C_13  and  O_25
    3  A    between atoms: O_25  and  C_26
                            x       y       z     vdW  Elec       q    Type
                         _______ _______ _______ _____ _____    ______ ____

>  <TORSDO>
F 3

$$$$
=
 OpenBabel11072408513D

 26 30  0  0  0  0  0  0  0  0999 V2000
  186.7780  177.2640  145.4630 C   0  0  0  0  0  0  0  0  0  0  0  0
  186.8320  176.5320  146.7660 C   0  0  0  0  0  2  0  0  0  0  0  0
  190.3490  177.0240  145.7780 C   0  0  0  0  0  3  0  0  0  0  0  0
  188.2870  176.4220  147.0040 N   0  0  0  0  0  0  0  0  0  0  0  0
  188.4580  177.9050  143.8030 C   0  0  0  0  0  0  0  0  0  0  0  0
  190.7610  177.3990  144.5440 C   0  0  0  0  0  0  0  0  0  0  0  0
  185.8180  177.2860  144.5350 C   0  0  0  0  0  3  0  0  0  0  0  0
  187.4110  178.0660  142.8360 N   0  0  0  0  0  0  0  0  0  0  0  0
  186.1640  177.8130  143.1690 C   0  0  0  0  0  0  0  0  0  0  0  0
  189.7570  177.8020  143.4890 C   0  0  0  0  0  3  0  0  0  0  0  0
  188.9120  177.0790  146.0760 C   0  0  0  0  0  0  0  0  0  0  0  0
  188.0690  177.6680  145.1370 N   0  0  0  0  0  0  0  0  0  0  0  0
  183.2190  178.2000  141.2540 C   0  0  0  0  0  0  0  0  0  0  0  0
  185.2930  178.0640  140.7980 C   0  0  0  0  0  2  0  0  0  0  0  0
  185.1040  177.9770  142.1630 C   0  0  0  0  0  0  0  0  0  0  0  0
  184.0840  178.2060  140.2230 N   0  0  0  0  0  0  0  0  0  0  0  0
  183.7950  178.0620  142.4620 N   0  0  0  0  0  0  0  0  0  0  0  0
  181.8120  178.3290  141.0820 N   0  0  0  0  0  1  0  0  0  0  0  0
  192.1400  177.3880  144.2890 O   0  0  0  0  0  0  0  0  0  0  0  0
  194.0350  174.2150  144.3020 C   0  0  0  0  0  3  0  0  0  0  0  0
  194.9030  174.4020  145.3820 C   0  0  0  0  0  0  0  0  0  0  0  0
  193.1210  175.2150  143.9580 C   0  0  0  0  0  3  0  0  0  0  0  0
  194.8590  175.5910  146.1130 C   0  0  0  0  0  3  0  0  0  0  0  0
  196.0450  173.1500  145.8130 Cl  0  0  0  0  0  0  0  0  0  0  0  0
  193.9460  176.5910  145.7660 C   0  0  0  0  0  3  0  0  0  0  0  0
  193.0630  176.4080  144.6890 C   0  0  0  0  0  0  0  0  0  0  0  0
  1  2  1  0  0  0  0
  2  4  1  0  0  0  0
  3 11  1  0  0  0  0
  5 12  1  0  0  0  0
  6  3  2  0  0  0  0
  7  1  2  0  0  0  0
  8  9  2  0  0  0  0
  8  5  1  0  0  0  0
  9  7  1  0  0  0  0
 10  5  2  0  0  0  0
 10  6  1  0  0  0  0
 11  4  2  0  0  0  0
 12  1  1  0  0  0  0
 12 11  1  0  0  0  0
 13 17  1  0  0  0  0
 14 15  1  0  0  0  0
 15 17  2  0  0  0  0
 15  9  1  0  0  0  0
 16 14  1  0  0  0  0
 16 13  2  0  0  0  0
 18 13  1  0  0  0  0
 19  6  1  0  0  0  0
 19 26  1  0  0  0  0
 20 21  1  0  0  0  0
 21 24  1  0  0  0  0
 21 23  2  0  0  0  0
 22 20  2  0  0  0  0
 22 26  1  0  0  0  0
 25 23  1  0  0  0  0
 26 25  2  0  0  0  0
M  END
>  <MODEL>
2

>  <REMARK>
 VINA RESULT:      -7.8      1.796      2.221
  Name = 
  3 active torsions:
  status: ('A' for Active; 'I' for Inactive)
    1  A    between atoms: C_12  and  C_17
    2  A    between atoms: C_13  and  O_25
    3  A    between atoms: O_25  and  C_26
                            x       y       z     vdW  Elec       q    Type
                         _______ _______ _______ _____ _____    ______ ____

>  <TORSDO>
F 3

$$$$
=
 OpenBabel11072408513D

 26 30  0  0  0  0  0  0  0  0999 V2000
  184.7710  177.8090  140.6870 C   0  0  0  0  0  0  0  0  0  0  0  0
  186.0160  177.8210  139.8590 C   0  0  0  0  0  3  0  0  0  0  0  0
  187.1740  177.7640  143.3590 C   0  0  0  0  0  3  0  0  0  0  0  0
  187.0770  177.7610  140.8880 N   0  0  0  0  0  0  0  0  0  0  0  0
  184.3230  177.9990  143.0860 C   0  0  0  0  0  0  0  0  0  0  0  0
  186.3930  178.0190  144.4360 C   0  0  0  0  0  0  0  0  0  0  0  0
  183.5490  178.2650  140.3990 C   0  0  0  0  0  2  0  0  0  0  0  0
  182.9670  178.3540  142.7840 N   0  0  0  0  0  0  0  0  0  0  0  0
  182.5760  178.4520  141.5320 C   0  0  0  0  0  0  0  0  0  0  0  0
  184.9020  178.2030  144.2770 C   0  0  0  0  0  3  0  0  0  0  0  0
  186.5230  177.6150  142.0510 C   0  0  0  0  0  0  0  0  0  0  0  0
  185.1300  177.5750  142.0110 N   0  0  0  0  0  0  0  0  0  0  0  0
  179.4860  179.8610  140.5540 C   0  0  0  0  0  0  0  0  0  0  0  0
  180.0630  178.0950  141.5910 C   0  0  0  0  0  2  0  0  0  0  0  0
  181.1830  178.8230  141.2400 C   0  0  0  0  0  0  0  0  0  0  0  0
  178.9820  178.7640  141.1490 N   0  0  0  0  0  0  0  0  0  0  0  0
  180.8290  179.9420  140.5830 N   0  0  0  0  0  0  0  0  0  0  0  0
  178.6680  180.8520  139.9430 N   0  0  0  0  0  1  0  0  0  0  0  0
  187.0240  178.1110  145.6860 O   0  0  0  0  0  0  0  0  0  0  0  0
  190.4450  177.1280  146.6810 C   0  0  0  0  0  3  0  0  0  0  0  0
  190.2500  175.8170  147.1250 C   0  0  0  0  0  0  0  0  0  0  0  0
  189.3630  177.8720  146.2020 C   0  0  0  0  0  3  0  0  0  0  0  0
  188.9730  175.2530  147.0940 C   0  0  0  0  0  3  0  0  0  0  0  0
  191.6040  174.8860  147.7240 Cl  0  0  0  0  0  0  0  0  0  0  0  0
  187.8910  176.0000  146.6150 C   0  0  0  0  0  3  0  0  0  0  0  0
  188.0790  177.3140  146.1580 C   0  0  0  0  0  0  0  0  0  0  0  0
  1 12  1  0  0  0  0
  2  1  2  0  0  0  0
  2  4  1  0  0  0  0
  3  6  2  0  0  0  0
  4 11  2  0  0  0  0
  5 10  2  0  0  0  0
  6 19  1  0  0  0  0
  7  1  1  0  0  0  0
  7  9  1  0  0  0  0
  8  5  1  0  0  0  0
  9  8  2  0  0  0  0
 10  6  1  0  0  0  0
 11  3  1  0  0  0  0
 12 11  1  0  0  0  0
 12  5  1  0  0  0  0
 13 17  1  0  0  0  0
 13 16  2  0  0  0  0
 15  9  1  0  0  0  0
 15 14  1  0  0  0  0
 16 14  1  0  0  0  0
 17 15  2  0  0  0  0
 18 13  1  0  0  0  0
 19 26  1  0  0  0  0
 20 21  1  0  0  0  0
 21 24  1  0  0  0  0
 22 20  2  0  0  0  0
 23 21  2  0  0  0  0
 25 23  1  0  0  0  0
 26 22  1  0  0  0  0
 26 25  2  0  0  0  0
M  END
>  <MODEL>
3

>  <REMARK>
 VINA RESULT:      -7.5      2.563      4.249
  Name = 
  3 active torsions:
  status: ('A' for Active; 'I' for Inactive)
    1  A    between atoms: C_12  and  C_17
    2  A    between atoms: C_13  and  O_25
    3  A    between atoms: O_25  and  C_26
                            x       y       z     vdW  Elec       q    Type
                         _______ _______ _______ _____ _____    ______ ____

>  <TORSDO>
F 3

$$$$
=
 OpenBabel11072408513D

 26 30  0  0  0  0  0  0  0  0999 V2000
  190.5730  175.2620  146.0910 C   0  0  0  0  0  0  0  0  0  0  0  0
  189.8880  174.7800  147.3300 C   0  0  0  0  0  2  0  0  0  0  0  0
  187.4600  177.0070  145.6760 C   0  0  0  0  0  3  0  0  0  0  0  0
  188.5610  175.4240  147.2250 N   0  0  0  0  0  0  0  0  0  0  0  0
  190.0230  176.9250  144.3820 C   0  0  0  0  0  0  0  0  0  0  0  0
  187.7570  177.8660  144.6720 C   0  0  0  0  0  0  0  0  0  0  0  0
  191.8770  175.3900  145.8310 C   0  0  0  0  0  3  0  0  0  0  0  0
  191.4070  176.9640  144.0040 N   0  0  0  0  0  0  0  0  0  0  0  0
  192.2850  176.2270  144.6490 C   0  0  0  0  0  0  0  0  0  0  0  0
  189.1280  177.8610  144.0380 C   0  0  0  0  0  3  0  0  0  0  0  0
  188.4840  176.0370  146.0840 C   0  0  0  0  0  0  0  0  0  0  0  0
  189.6400  175.9380  145.3120 N   0  0  0  0  0  0  0  0  0  0  0  0
  195.4780  176.1280  143.1360 C   0  0  0  0  0  0  0  0  0  0  0  0
  194.7450  176.7170  145.0450 C   0  0  0  0  0  2  0  0  0  0  0  0
  193.7000  176.2830  144.2520 C   0  0  0  0  0  0  0  0  0  0  0  0
  195.8780  176.6150  144.3260 N   0  0  0  0  0  0  0  0  0  0  0  0
  194.1530  175.9080  143.0420 N   0  0  0  0  0  0  0  0  0  0  0  0
  196.3800  175.8670  142.0670 N   0  0  0  0  0  1  0  0  0  0  0  0
  186.7520  178.7540  144.2610 O   0  0  0  0  0  0  0  0  0  0  0  0
  183.4420  178.3540  142.6660 C   0  0  0  0  0  3  0  0  0  0  0  0
  183.7900  178.1490  141.3280 C   0  0  0  0  0  0  0  0  0  0  0  0
  184.4390  178.5480  143.6260 C   0  0  0  0  0  3  0  0  0  0  0  0
  185.1350  178.1420  140.9510 C   0  0  0  0  0  3  0  0  0  0  0  0
  182.5420  177.9040  140.1270 Cl  0  0  0  0  0  0  0  0  0  0  0  0
  186.1310  178.3380  141.9120 C   0  0  0  0  0  3  0  0  0  0  0  0
  185.7910  178.5350  143.2600 C   0  0  0  0  0  0  0  0  0  0  0  0
  1  2  1  0  0  0  0
  3 11  1  0  0  0  0
  4  2  1  0  0  0  0
  5 12  1  0  0  0  0
  6  3  2  0  0  0  0
  7  1  2  0  0  0  0
  8  5  1  0  0  0  0
  8  9  2  0  0  0  0
  9  7  1  0  0  0  0
 10  5  2  0  0  0  0
 10  6  1  0  0  0  0
 11  4  2  0  0  0  0
 12 11  1  0  0  0  0
 12  1  1  0  0  0  0
 13 16  2  0  0  0  0
 15  9  1  0  0  0  0
 15 14  1  0  0  0  0
 16 14  1  0  0  0  0
 17 13  1  0  0  0  0
 17 15  2  0  0  0  0
 18 13  1  0  0  0  0
 19  6  1  0  0  0  0
 20 22  1  0  0  0  0
 21 20  2  0  0  0  0
 23 21  1  0  0  0  0
 23 25  2  0  0  0  0
 24 21  1  0  0  0  0
 25 26  1  0  0  0  0
 26 22  2  0  0  0  0
 26 19  1  0  0  0  0
M  END
>  <MODEL>
4

>  <REMARK>
 VINA RESULT:      -7.4      4.673      8.625
  Name = 
  3 active torsions:
  status: ('A' for Active; 'I' for Inactive)
    1  A    between atoms: C_12  and  C_17
    2  A    between atoms: C_13  and  O_25
    3  A    between atoms: O_25  and  C_26
                            x       y       z     vdW  Elec       q    Type
                         _______ _______ _______ _____ _____    ______ ____

>  <TORSDO>
F 3

$$$$
=
 OpenBabel11072408513D

 26 30  0  0  0  0  0  0  0  0999 V2000
  187.9120  176.8620  145.5810 C   0  0  0  0  0  0  0  0  0  0  0  0
  187.8080  176.1440  146.8890 C   0  0  0  0  0  2  0  0  0  0  0  0
  191.4200  176.3660  146.1820 C   0  0  0  0  0  3  0  0  0  0  0  0
  189.2280  175.9310  147.2430 N   0  0  0  0  0  0  0  0  0  0  0  0
  189.7610  177.3580  144.0570 C   0  0  0  0  0  0  0  0  0  0  0  0
  191.9540  176.6950  144.9820 C   0  0  0  0  0  0  0  0  0  0  0  0
  187.0320  176.9420  144.5790 C   0  0  0  0  0  3  0  0  0  0  0  0
  188.8090  177.5830  143.0080 N   0  0  0  0  0  0  0  0  0  0  0  0
  187.5240  177.4250  143.2410 C   0  0  0  0  0  0  0  0  0  0  0  0
  191.0690  177.1560  143.8480 C   0  0  0  0  0  3  0  0  0  0  0  0
  189.9720  176.5290  146.3640 C   0  0  0  0  0  0  0  0  0  0  0  0
  189.2510  177.1670  145.3560 N   0  0  0  0  0  0  0  0  0  0  0  0
  184.7810  178.0300  141.0960 C   0  0  0  0  0  0  0  0  0  0  0  0
  186.8560  177.6600  140.8030 C   0  0  0  0  0  2  0  0  0  0  0  0
  186.5620  177.6540  142.1530 C   0  0  0  0  0  0  0  0  0  0  0  0
  185.7130  177.9020  140.1340 N   0  0  0  0  0  0  0  0  0  0  0  0
  185.2510  177.8870  142.3490 N   0  0  0  0  0  0  0  0  0  0  0  0
  183.4120  178.2960  140.8140 N   0  0  0  0  0  1  0  0  0  0  0  0
  193.3450  176.5800  144.8390 O   0  0  0  0  0  0  0  0  0  0  0  0
  196.0750  174.3550  145.9620 C   0  0  0  0  0  3  0  0  0  0  0  0
  195.7020  173.1340  145.3940 C   0  0  0  0  0  0  0  0  0  0  0  0
  195.2820  175.4890  145.7630 C   0  0  0  0  0  3  0  0  0  0  0  0
  194.5360  173.0460  144.6310 C   0  0  0  0  0  3  0  0  0  0  0  0
  196.6950  171.7140  145.6430 Cl  0  0  0  0  0  0  0  0  0  0  0  0
  193.7440  174.1810  144.4340 C   0  0  0  0  0  3  0  0  0  0  0  0
  194.1150  175.4150  144.9920 C   0  0  0  0  0  0  0  0  0  0  0  0
  1  2  1  0  0  0  0
  2  4  1  0  0  0  0
  3 11  1  0  0  0  0
  5 12  1  0  0  0  0
  6  3  2  0  0  0  0
  7  1  2  0  0  0  0
  8  9  2  0  0  0  0
  8  5  1  0  0  0  0
  9  7  1  0  0  0  0
 10  5  2  0  0  0  0
 10  6  1  0  0  0  0
 11  4  2  0  0  0  0
 12  1  1  0  0  0  0
 12 11  1  0  0  0  0
 13 17  1  0  0  0  0
 14 15  1  0  0  0  0
 15 17  2  0  0  0  0
 15  9  1  0  0  0  0
 16 14  1  0  0  0  0
 16 13  2  0  0  0  0
 18 13  1  0  0  0  0
 19  6  1  0  0  0  0
 19 26  1  0  0  0  0
 21 24  1  0  0  0  0
 21 20  2  0  0  0  0
 22 20  1  0  0  0  0
 23 21  1  0  0  0  0
 25 23  2  0  0  0  0
 25 26  1  0  0  0  0
 26 22  2  0  0  0  0
M  END
>  <MODEL>
5

>  <REMARK>
 VINA RESULT:      -7.3      2.440      3.359
  Name = 
  3 active torsions:
  status: ('A' for Active; 'I' for Inactive)
    1  A    between atoms: C_12  and  C_17
    2  A    between atoms: C_13  and  O_25
    3  A    between atoms: O_25  and  C_26
                            x       y       z     vdW  Elec       q    Type
                         _______ _______ _______ _____ _____    ______ ____

>  <TORSDO>
F 3

$$$$
=
 OpenBabel11072408513D

 26 30  0  0  0  0  0  0  0  0999 V2000
  188.8020  176.2630  146.0760 C   0  0  0  0  0  0  0  0  0  0  0  0
  188.7790  175.2910  147.2120 C   0  0  0  0  0  2  0  0  0  0  0  0
  192.3320  176.1470  146.7330 C   0  0  0  0  0  3  0  0  0  0  0  0
  190.2080  175.2090  147.5840 N   0  0  0  0  0  0  0  0  0  0  0  0
  190.5870  177.3050  144.7670 C   0  0  0  0  0  0  0  0  0  0  0  0
  192.8360  176.7790  145.6470 C   0  0  0  0  0  0  0  0  0  0  0  0
  187.9380  176.4200  145.0690 C   0  0  0  0  0  3  0  0  0  0  0  0
  189.6320  177.6010  143.7380 N   0  0  0  0  0  0  0  0  0  0  0  0
  188.3800  177.2240  143.8760 C   0  0  0  0  0  0  0  0  0  0  0  0
  191.9150  177.3320  144.5840 C   0  0  0  0  0  3  0  0  0  0  0  0
  190.8730  176.0680  146.8750 C   0  0  0  0  0  0  0  0  0  0  0  0
  190.0860  176.7890  145.9780 N   0  0  0  0  0  0  0  0  0  0  0  0
  185.6340  177.9930  141.7880 C   0  0  0  0  0  0  0  0  0  0  0  0
  187.7020  177.6170  141.4610 C   0  0  0  0  0  2  0  0  0  0  0  0
  187.4150  177.5310  142.8090 C   0  0  0  0  0  0  0  0  0  0  0  0
  186.5590  177.9120  140.8140 N   0  0  0  0  0  0  0  0  0  0  0  0
  186.1080  177.7670  143.0270 N   0  0  0  0  0  0  0  0  0  0  0  0
  184.2670  178.2920  141.5300 N   0  0  0  0  0  1  0  0  0  0  0  0
  194.2310  176.8890  145.5500 O   0  0  0  0  0  0  0  0  0  0  0  0
  196.4650  173.9620  145.2260 C   0  0  0  0  0  3  0  0  0  0  0  0
  196.8420  174.0360  143.8820 C   0  0  0  0  0  0  0  0  0  0  0  0
  195.6020  174.9220  145.7620 C   0  0  0  0  0  3  0  0  0  0  0  0
  196.3520  175.0650  143.0750 C   0  0  0  0  0  3  0  0  0  0  0  0
  197.9240  172.8360  143.2100 Cl  0  0  0  0  0  0  0  0  0  0  0  0
  195.4870  176.0220  143.6140 C   0  0  0  0  0  3  0  0  0  0  0  0
  195.1110  175.9630  144.9650 C   0  0  0  0  0  0  0  0  0  0  0  0
  1  2  1  0  0  0  0
  2  4  1  0  0  0  0
  3 11  1  0  0  0  0
  5 12  1  0  0  0  0
  6  3  2  0  0  0  0
  7  1  2  0  0  0  0
  8  9  2  0  0  0  0
  8  5  1  0  0  0  0
  9  7  1  0  0  0  0
 10  5  2  0  0  0  0
 10  6  1  0  0  0  0
 11  4  2  0  0  0  0
 12  1  1  0  0  0  0
 12 11  1  0  0  0  0
 13 17  1  0  0  0  0
 14 15  1  0  0  0  0
 15 17  2  0  0  0  0
 15  9  1  0  0  0  0
 16 14  1  0  0  0  0
 16 13  2  0  0  0  0
 18 13  1  0  0  0  0
 19  6  1  0  0  0  0
 20 22  1  0  0  0  0
 21 20  2  0  0  0  0
 23 25  2  0  0  0  0
 23 21  1  0  0  0  0
 24 21  1  0  0  0  0
 25 26  1  0  0  0  0
 26 19  1  0  0  0  0
 26 22  2  0  0  0  0
M  END
>  <MODEL>
6

>  <REMARK>
 VINA RESULT:      -7.0      2.759      4.165
  Name = 
  3 active torsions:
  status: ('A' for Active; 'I' for Inactive)
    1  A    between atoms: C_12  and  C_17
    2  A    between atoms: C_13  and  O_25
    3  A    between atoms: O_25  and  C_26
                            x       y       z     vdW  Elec       q    Type
                         _______ _______ _______ _____ _____    ______ ____

>  <TORSDO>
F 3

$$$$
=
 OpenBabel11072408513D

 26 30  0  0  0  0  0  0  0  0999 V2000
  192.0960  173.4170  143.8270 C   0  0  0  0  0  0  0  0  0  0  0  0
  191.4790  172.0870  144.1200 C   0  0  0  0  0  2  0  0  0  0  0  0
  189.3510  174.5500  145.8510 C   0  0  0  0  0  3  0  0  0  0  0  0
  190.2980  172.4600  144.9280 N   0  0  0  0  0  0  0  0  0  0  0  0
  191.6830  175.6950  144.6240 C   0  0  0  0  0  0  0  0  0  0  0  0
  189.6900  175.8410  146.0770 C   0  0  0  0  0  0  0  0  0  0  0  0
  193.3610  173.7260  143.5290 C   0  0  0  0  0  3  0  0  0  0  0  0
  192.9940  176.0670  144.1770 N   0  0  0  0  0  0  0  0  0  0  0  0
  193.7830  175.1660  143.6310 C   0  0  0  0  0  0  0  0  0  0  0  0
  190.9510  176.4200  145.4800 C   0  0  0  0  0  3  0  0  0  0  0  0
  190.2090  173.7530  144.9640 C   0  0  0  0  0  0  0  0  0  0  0  0
  191.2260  174.4080  144.2730 N   0  0  0  0  0  0  0  0  0  0  0  0
  196.8990  175.7310  142.0610 C   0  0  0  0  0  0  0  0  0  0  0  0
  195.9710  176.4360  143.8420 C   0  0  0  0  0  2  0  0  0  0  0  0
  195.1260  175.5640  143.1840 C   0  0  0  0  0  0  0  0  0  0  0  0
  197.1020  176.5390  143.1190 N   0  0  0  0  0  0  0  0  0  0  0  0
  195.7040  175.1110  142.0560 N   0  0  0  0  0  0  0  0  0  0  0  0
  197.8660  175.5470  141.0340 N   0  0  0  0  0  1  0  0  0  0  0  0
  188.8340  176.6030  146.8870 O   0  0  0  0  0  0  0  0  0  0  0  0
  186.3260  178.4430  144.8900 C   0  0  0  0  0  3  0  0  0  0  0  0
  185.1740  178.2910  145.6660 C   0  0  0  0  0  0  0  0  0  0  0  0
  187.5330  177.8800  145.3150 C   0  0  0  0  0  3  0  0  0  0  0  0
  185.2280  177.5720  146.8620 C   0  0  0  0  0  3  0  0  0  0  0  0
  183.6630  178.9960  145.1350 Cl  0  0  0  0  0  0  0  0  0  0  0  0
  186.4360  177.0090  147.2840 C   0  0  0  0  0  3  0  0  0  0  0  0
  187.6010  177.1640  146.5170 C   0  0  0  0  0  0  0  0  0  0  0  0
  1  2  1  0  0  0  0
  1 12  1  0  0  0  0
  2  4  1  0  0  0  0
  3  6  2  0  0  0  0
  4 11  2  0  0  0  0
  5 10  2  0  0  0  0
  6 19  1  0  0  0  0
  7  9  1  0  0  0  0
  7  1  2  0  0  0  0
  8  5  1  0  0  0  0
  9  8  2  0  0  0  0
 10  6  1  0  0  0  0
 11  3  1  0  0  0  0
 12  5  1  0  0  0  0
 12 11  1  0  0  0  0
 13 16  2  0  0  0  0
 15  9  1  0  0  0  0
 15 14  1  0  0  0  0
 16 14  1  0  0  0  0
 17 13  1  0  0  0  0
 17 15  2  0  0  0  0
 18 13  1  0  0  0  0
 20 22  2  0  0  0  0
 20 21  1  0  0  0  0
 21 23  2  0  0  0  0
 22 26  1  0  0  0  0
 23 25  1  0  0  0  0
 24 21  1  0  0  0  0
 26 19  1  0  0  0  0
 26 25  2  0  0  0  0
M  END
>  <MODEL>
7

>  <REMARK>
 VINA RESULT:      -7.0      5.319      9.071
  Name = 
  3 active torsions:
  status: ('A' for Active; 'I' for Inactive)
    1  A    between atoms: C_12  and  C_17
    2  A    between atoms: C_13  and  O_25
    3  A    between atoms: O_25  and  C_26
                            x       y       z     vdW  Elec       q    Type
                         _______ _______ _______ _____ _____    ______ ____

>  <TORSDO>
F 3

$$$$
=
 OpenBabel11072408513D

 26 30  0  0  0  0  0  0  0  0999 V2000
  185.1930  178.7790  145.0800 C   0  0  0  0  0  0  0  0  0  0  0  0
  185.3120  179.0220  146.5510 C   0  0  0  0  0  2  0  0  0  0  0  0
  188.1690  176.8600  145.6850 C   0  0  0  0  0  3  0  0  0  0  0  0
  186.5530  178.2930  146.8900 N   0  0  0  0  0  0  0  0  0  0  0  0
  186.3730  177.3360  143.4940 C   0  0  0  0  0  0  0  0  0  0  0  0
  188.3000  176.1800  144.5210 C   0  0  0  0  0  0  0  0  0  0  0  0
  184.1110  178.7970  144.2960 C   0  0  0  0  0  3  0  0  0  0  0  0
  185.2700  177.4660  142.5870 N   0  0  0  0  0  0  0  0  0  0  0  0
  184.2150  178.1730  142.9310 C   0  0  0  0  0  0  0  0  0  0  0  0
  187.3150  176.3880  143.3950 C   0  0  0  0  0  3  0  0  0  0  0  0
  187.0850  177.8440  145.7950 C   0  0  0  0  0  0  0  0  0  0  0  0
  186.3540  178.1460  144.6470 N   0  0  0  0  0  0  0  0  0  0  0  0
  181.1890  178.6800  141.1770 C   0  0  0  0  0  0  0  0  0  0  0  0
  183.1180  177.9490  140.6530 C   0  0  0  0  0  2  0  0  0  0  0  0
  183.0900  178.2910  141.9900 C   0  0  0  0  0  0  0  0  0  0  0  0
  181.8990  178.2000  140.1380 N   0  0  0  0  0  0  0  0  0  0  0  0
  181.8750  178.7540  142.3320 N   0  0  0  0  0  0  0  0  0  0  0  0
  179.8270  179.0760  141.0620 N   0  0  0  0  0  1  0  0  0  0  0  0
  189.3700  175.2790  144.4140 O   0  0  0  0  0  0  0  0  0  0  0  0
  189.5260  172.1050  142.5270 C   0  0  0  0  0  3  0  0  0  0  0  0
  190.0380  172.5270  141.2960 C   0  0  0  0  0  0  0  0  0  0  0  0
  189.3160  173.0330  143.5510 C   0  0  0  0  0  3  0  0  0  0  0  0
  190.3350  173.8760  141.0910 C   0  0  0  0  0  3  0  0  0  0  0  0
  190.3020  171.3660  140.0140 Cl  0  0  0  0  0  0  0  0  0  0  0  0
  190.1230  174.8020  142.1160 C   0  0  0  0  0  3  0  0  0  0  0  0
  189.6180  174.3870  143.3590 C   0  0  0  0  0  0  0  0  0  0  0  0
  1  2  1  0  0  0  0
  2  4  1  0  0  0  0
  3 11  1  0  0  0  0
  5 12  1  0  0  0  0
  6  3  2  0  0  0  0
  7  1  2  0  0  0  0
  8  9  2  0  0  0  0
  8  5  1  0  0  0  0
  9  7  1  0  0  0  0
 10  5  2  0  0  0  0
 10  6  1  0  0  0  0
 11  4  2  0  0  0  0
 12  1  1  0  0  0  0
 12 11  1  0  0  0  0
 13 17  1  0  0  0  0
 14 15  1  0  0  0  0
 15 17  2  0  0  0  0
 15  9  1  0  0  0  0
 16 14  1  0  0  0  0
 16 13  2  0  0  0  0
 18 13  1  0  0  0  0
 19  6  1  0  0  0  0
 20 22  1  0  0  0  0
 21 20  2  0  0  0  0
 23 21  1  0  0  0  0
 23 25  2  0  0  0  0
 24 21  1  0  0  0  0
 25 26  1  0  0  0  0
 26 22  2  0  0  0  0
 26 19  1  0  0  0  0
M  END
>  <MODEL>
8

>  <REMARK>
 VINA RESULT:      -6.9      2.849      3.318
  Name = 
  3 active torsions:
  status: ('A' for Active; 'I' for Inactive)
    1  A    between atoms: C_12  and  C_17
    2  A    between atoms: C_13  and  O_25
    3  A    between atoms: O_25  and  C_26
                            x       y       z     vdW  Elec       q    Type
                         _______ _______ _______ _____ _____    ______ ____

>  <TORSDO>
F 3

$$$$
=
 OpenBabel11072408513D

 26 30  0  0  0  0  0  0  0  0999 V2000
  192.8830  174.4250  145.7790 C   0  0  0  0  0  0  0  0  0  0  0  0
  193.8490  175.5240  146.0860 C   0  0  0  0  0  2  0  0  0  0  0  0
  190.5570  176.7900  147.1600 C   0  0  0  0  0  3  0  0  0  0  0  0
  192.9760  176.5440  146.7060 N   0  0  0  0  0  0  0  0  0  0  0  0
  190.4440  174.2360  145.8500 C   0  0  0  0  0  0  0  0  0  0  0  0
  189.3680  176.2360  146.8240 C   0  0  0  0  0  0  0  0  0  0  0  0
  192.9550  173.4550  144.8630 C   0  0  0  0  0  3  0  0  0  0  0  0
  190.5260  173.1030  144.9740 N   0  0  0  0  0  0  0  0  0  0  0  0
  191.6970  172.7010  144.5270 C   0  0  0  0  0  0  0  0  0  0  0  0
  189.3160  174.9230  146.0790 C   0  0  0  0  0  3  0  0  0  0  0  0
  191.7830  176.0500  146.8340 C   0  0  0  0  0  0  0  0  0  0  0  0
  191.6570  174.7490  146.3510 N   0  0  0  0  0  0  0  0  0  0  0  0
  191.3830  170.2090  142.0410 C   0  0  0  0  0  0  0  0  0  0  0  0
  192.6190  170.4660  143.7540 C   0  0  0  0  0  3  0  0  0  0  0  0
  191.7630  171.5420  143.6250 C   0  0  0  0  0  0  0  0  0  0  0  0
  192.3720  169.6180  142.7390 N   0  0  0  0  0  0  0  0  0  0  0  0
  190.9760  171.3890  142.5440 N   0  0  0  0  0  2  0  0  0  0  0  0
  190.8160  169.6340  140.8690 N   0  0  0  0  0  1  0  0  0  0  0  0
  188.2040  176.9310  147.1850 O   0  0  0  0  0  0  0  0  0  0  0  0
  184.8060  177.7190  145.9640 C   0  0  0  0  0  3  0  0  0  0  0  0
  185.0710  178.2560  144.7010 C   0  0  0  0  0  0  0  0  0  0  0  0
  185.8590  177.2800  146.7720 C   0  0  0  0  0  3  0  0  0  0  0  0
  186.3890  178.3570  144.2490 C   0  0  0  0  0  3  0  0  0  0  0  0
  183.7530  178.8040  143.6890 Cl  0  0  0  0  0  0  0  0  0  0  0  0
  187.4400  177.9180  145.0600 C   0  0  0  0  0  3  0  0  0  0  0  0
  187.1830  177.3690  146.3260 C   0  0  0  0  0  0  0  0  0  0  0  0
  1  2  1  0  0  0  0
  1 12  1  0  0  0  0
  2  4  1  0  0  0  0
  4 11  2  0  0  0  0
  5 10  2  0  0  0  0
  5 12  1  0  0  0  0
  6  3  2  0  0  0  0
  6 19  1  0  0  0  0
  7  1  2  0  0  0  0
  8  5  1  0  0  0  0
  9  7  1  0  0  0  0
  9  8  2  0  0  0  0
 10  6  1  0  0  0  0
 11  3  1  0  0  0  0
 12 11  1  0  0  0  0
 13 17  1  0  0  0  0
 13 16  2  0  0  0  0
 15 14  2  0  0  0  0
 15  9  1  0  0  0  0
 16 14  1  0  0  0  0
 17 15  1  0  0  0  0
 18 13  1  0  0  0  0
 20 22  1  0  0  0  0
 21 20  2  0  0  0  0
 23 21  1  0  0  0  0
 23 25  2  0  0  0  0
 24 21  1  0  0  0  0
 25 26  1  0  0  0  0
 26 22  2  0  0  0  0
 26 19  1  0  0  0  0
M  END
>  <MODEL>
9

>  <REMARK>
 VINA RESULT:      -6.9      5.081      8.325
  Name = 
  3 active torsions:
  status: ('A' for Active; 'I' for Inactive)
    1  A    between atoms: C_12  and  C_17
    2  A    between atoms: C_13  and  O_25
    3  A    between atoms: O_25  and  C_26
                            x       y       z     vdW  Elec       q    Type
                         _______ _______ _______ _____ _____    ______ ____

>  <TORSDO>
F 3

$$$$
