=
 OpenBabel11072408483D

 26 31  0  0  1  0  0  0  0  0999 V2000
  193.0950  173.9060  145.2710 S   0  0  0  0  0  0  0  0  0  0  0  0
  185.1530  176.6860  146.4700 C   0  0  0  0  0  2  0  0  0  0  0  0
  192.2630  174.2150  143.6550 C   0  0  0  0  0  2  0  0  0  0  0  0
  185.4390  177.2050  145.0640 C   0  0  1  0  0  0  0  0  0  0  0  0
  191.3120  176.7400  147.6430 C   0  0  0  0  0  0  0  0  0  0  0  0
  190.5050  175.7590  142.8770 N   0  0  0  0  0  2  0  0  0  0  0  0
  192.2240  175.7490  147.2370 C   0  0  0  0  0  3  0  0  0  0  0  0
  190.8660  174.7850  143.9110 C   0  0  2  0  0  3  0  0  0  0  0  0
  185.9920  177.9390  146.2970 C   0  0  2  0  0  0  0  0  0  0  0  0
  190.9680  175.4680  145.2110 C   0  0  0  0  0  0  0  0  0  0  0  0
  189.0700  176.8210  144.6150 N   0  0  0  0  0  0  0  0  0  0  0  0
  187.4090  177.8120  146.2150 O   0  0  0  0  0  0  0  0  0  0  0  0
  192.0220  175.1120  146.0090 C   0  0  0  0  0  0  0  0  0  0  0  0
  189.2390  176.4620  143.1830 C   0  0  2  0  0  3  0  0  0  0  0  0
  188.0280  175.7470  142.6240 C   0  0  0  0  0  3  0  0  0  0  0  0
  186.8130  175.9700  143.1460 C   0  0  0  0  0  3  0  0  0  0  0  0
  187.7450  177.1780  145.0340 C   0  0  0  0  0  0  0  0  0  0  0  0
  185.3920  179.3020  146.6010 C   0  0  0  0  0  1  0  0  0  0  0  0
  186.6860  176.8300  144.3360 C   0  0  0  0  0  0  0  0  0  0  0  0
  190.0800  176.4660  145.5670 C   0  0  0  0  0  0  0  0  0  0  0  0
  190.2420  177.1080  146.8060 C   0  0  0  0  0  3  0  0  0  0  0  0
  191.5280  177.5430  149.1840 Cl  0  0  0  0  0  0  0  0  0  0  0  0
  184.4350  177.9570  144.3870 O   0  0  0  0  0  0  0  0  0  0  0  0
  185.5090  179.5050  143.0820 O   0  0  0  0  0  0  0  0  0  0  0  0
  183.9080  178.1850  141.9300 C   0  0  0  0  0  1  0  0  0  0  0  0
  184.6580  178.5810  143.1570 C   0  0  0  0  0  0  0  0  0  0  0  0
  1 13  1  0  0  0  0
  3  1  1  0  0  0  0
  4 23  1  6  0  0  0
  4  9  1  0  0  0  0
  4  2  1  0  0  0  0
  5 22  1  0  0  0  0
  6 14  1  0  0  0  0
  6  8  1  0  0  0  0
  7  5  1  0  0  0  0
  8  3  1  6  0  0  0
  8 10  1  0  0  0  0
  9  2  1  0  0  0  0
  9 18  1  1  0  0  0
 10 20  2  0  0  0  0
 10 13  1  0  0  0  0
 11 17  1  0  0  0  0
 11 20  1  0  0  0  0
 12  9  1  0  0  0  0
 13  7  2  0  0  0  0
 14 15  1  1  0  0  0
 14 11  1  0  0  0  0
 15 16  2  0  0  0  0
 16 19  1  0  0  0  0
 17 12  1  0  0  0  0
 19 17  2  0  0  0  0
 19  4  1  0  0  0  0
 20 21  1  0  0  0  0
 21  5  2  0  0  0  0
 24 26  2  0  0  0  0
 25 26  1  0  0  0  0
 26 23  1  0  0  0  0
M  END
>  <MODEL>
1

>  <REMARK>
 VINA RESULT:      -8.0      0.000      0.000
  Name = 
  2 active torsions:
  status: ('A' for Active; 'I' for Inactive)
    1  A    between atoms: C_5  and  O_17
    2  A    between atoms: C_11  and  O_17
                            x       y       z     vdW  Elec       q    Type
                         _______ _______ _______ _____ _____    ______ ____

>  <TORSDO>
F 2

$$$$
=
 OpenBabel11072408483D

 26 31  0  0  1  0  0  0  0  0999 V2000
  184.4360  178.2810  146.7840 S   0  0  0  0  0  0  0  0  0  0  0  0
  188.9450  172.4760  142.5150 C   0  0  0  0  0  2  0  0  0  0  0  0
  186.0530  177.9730  147.6150 C   0  0  0  0  0  2  0  0  0  0  0  0
  190.0470  173.2020  143.2800 C   0  0  1  0  0  0  0  0  0  0  0  0
  185.4260  177.6550  142.8510 C   0  0  0  0  0  0  0  0  0  0  0  0
  188.2970  177.2960  146.8470 N   0  0  0  0  0  2  0  0  0  0  0  0
  184.6740  178.0540  143.9720 C   0  0  0  0  0  3  0  0  0  0  0  0
  186.8670  176.9830  146.7790 C   0  0  2  0  0  3  0  0  0  0  0  0
  189.4410  173.8190  142.0080 C   0  0  2  0  0  0  0  0  0  0  0  0
  186.3910  177.1710  145.3990 C   0  0  0  0  0  0  0  0  0  0  0  0
  188.4620  176.2530  144.5890 N   0  0  0  0  0  0  0  0  0  0  0  0
  188.7760  175.0040  142.4350 O   0  0  0  0  0  0  0  0  0  0  0  0
  185.1770  177.7870  145.2480 C   0  0  0  0  0  0  0  0  0  0  0  0
  189.0990  176.4730  145.9140 C   0  0  2  0  0  3  0  0  0  0  0  0
  189.5750  175.1820  146.5430 C   0  0  0  0  0  3  0  0  0  0  0  0
  189.9210  174.1430  145.7690 C   0  0  0  0  0  3  0  0  0  0  0  0
  189.0060  175.1980  143.7840 C   0  0  0  0  0  0  0  0  0  0  0  0
  190.3450  173.8810  140.7870 C   0  0  0  0  0  1  0  0  0  0  0  0
  189.7280  174.2330  144.3100 C   0  0  0  0  0  0  0  0  0  0  0  0
  187.1680  176.8060  144.3160 C   0  0  0  0  0  0  0  0  0  0  0  0
  186.6790  177.0370  143.0200 C   0  0  0  0  0  3  0  0  0  0  0  0
  184.8140  177.9580  141.2390 Cl  0  0  0  0  0  0  0  0  0  0  0  0
  191.4000  172.7940  143.0970 O   0  0  0  0  0  0  0  0  0  0  0  0
  191.8030  170.7910  144.1350 O   0  0  0  0  0  0  0  0  0  0  0  0
  193.1420  172.5900  144.9100 C   0  0  0  0  0  1  0  0  0  0  0  0
  192.0860  172.0120  144.0290 C   0  0  0  0  0  0  0  0  0  0  0  0
  1  3  1  0  0  0  0
  2  4  1  0  0  0  0
  4 23  1  6  0  0  0
  4 19  1  0  0  0  0
  5 21  2  0  0  0  0
  5  7  1  0  0  0  0
  7 13  2  0  0  0  0
  8  6  1  0  0  0  0
  8  3  1  1  0  0  0
  9 18  1  6  0  0  0
  9 12  1  0  0  0  0
  9  2  1  0  0  0  0
  9  4  1  0  0  0  0
 10  8  1  0  0  0  0
 11 14  1  0  0  0  0
 12 17  1  0  0  0  0
 13 10  1  0  0  0  0
 13  1  1  0  0  0  0
 14 15  1  1  0  0  0
 14  6  1  0  0  0  0
 16 15  2  0  0  0  0
 17 19  2  0  0  0  0
 17 11  1  0  0  0  0
 19 16  1  0  0  0  0
 20 11  1  0  0  0  0
 20 10  2  0  0  0  0
 21 20  1  0  0  0  0
 22  5  1  0  0  0  0
 23 26  1  0  0  0  0
 26 24  2  0  0  0  0
 26 25  1  0  0  0  0
M  END
>  <MODEL>
2

>  <REMARK>
 VINA RESULT:      -7.8      4.021      7.089
  Name = 
  2 active torsions:
  status: ('A' for Active; 'I' for Inactive)
    1  A    between atoms: C_5  and  O_17
    2  A    between atoms: C_11  and  O_17
                            x       y       z     vdW  Elec       q    Type
                         _______ _______ _______ _____ _____    ______ ____

>  <TORSDO>
F 2

$$$$
=
 OpenBabel11072408483D

 26 31  0  0  1  0  0  0  0  0999 V2000
  195.6170  175.6070  144.5200 S   0  0  0  0  0  0  0  0  0  0  0  0
  187.5720  178.1960  143.6180 C   0  0  0  0  0  2  0  0  0  0  0  0
  194.7650  175.6650  146.1540 C   0  0  0  0  0  2  0  0  0  0  0  0
  187.4950  177.4530  144.9480 C   0  0  1  0  0  0  0  0  0  0  0  0
  192.4980  174.6590  142.0270 C   0  0  0  0  0  0  0  0  0  0  0  0
  192.4340  175.3760  146.9070 N   0  0  0  0  0  2  0  0  0  0  0  0
  193.8210  174.8690  142.4590 C   0  0  0  0  0  3  0  0  0  0  0  0
  193.3020  176.0600  145.9440 C   0  0  2  0  0  3  0  0  0  0  0  0
  187.5050  176.6790  143.6180 C   0  0  2  0  0  0  0  0  0  0  0  0
  192.9770  175.6020  144.5830 C   0  0  0  0  0  0  0  0  0  0  0  0
  190.6470  175.5700  145.1810 N   0  0  0  0  0  0  0  0  0  0  0  0
  188.7210  175.9370  143.6140 O   0  0  0  0  0  0  0  0  0  0  0  0
  194.0370  175.3580  143.7500 C   0  0  0  0  0  0  0  0  0  0  0  0
  190.9980  175.5940  146.6250 C   0  0  2  0  0  3  0  0  0  0  0  0
  190.4470  176.8160  147.3280 C   0  0  0  0  0  3  0  0  0  0  0  0
  189.3360  177.4120  146.8720 C   0  0  0  0  0  3  0  0  0  0  0  0
  189.3690  176.1130  144.8230 C   0  0  0  0  0  0  0  0  0  0  0  0
  186.2130  175.9780  143.2320 C   0  0  0  0  0  1  0  0  0  0  0  0
  188.7230  176.9350  145.6200 C   0  0  0  0  0  0  0  0  0  0  0  0
  191.6710  175.3670  144.1980 C   0  0  0  0  0  0  0  0  0  0  0  0
  191.4190  174.9000  142.8980 C   0  0  0  0  0  3  0  0  0  0  0  0
  192.1950  174.0660  140.4080 Cl  0  0  0  0  0  0  0  0  0  0  0  0
  186.2420  177.3650  145.6200 O   0  0  0  0  0  0  0  0  0  0  0  0
  185.9410  179.0880  147.1020 O   0  0  0  0  0  0  0  0  0  0  0  0
  184.3370  178.9980  145.3550 C   0  0  0  0  0  1  0  0  0  0  0  0
  185.5450  178.4900  146.0680 C   0  0  0  0  0  0  0  0  0  0  0  0
  1  3  1  0  0  0  0
  2  9  1  0  0  0  0
  2  4  1  0  0  0  0
  4 23  1  1  0  0  0
  4 19  1  0  0  0  0
  5  7  2  0  0  0  0
  5 21  1  0  0  0  0
  7 13  1  0  0  0  0
  8  3  1  1  0  0  0
  8  6  1  0  0  0  0
  9 18  1  6  0  0  0
  9  4  1  0  0  0  0
 10  8  1  0  0  0  0
 11 14  1  0  0  0  0
 12  9  1  0  0  0  0
 12 17  1  0  0  0  0
 13  1  1  0  0  0  0
 13 10  2  0  0  0  0
 14  6  1  0  0  0  0
 14 15  1  6  0  0  0
 16 15  2  0  0  0  0
 17 11  1  0  0  0  0
 17 19  2  0  0  0  0
 19 16  1  0  0  0  0
 20 10  1  0  0  0  0
 20 11  1  0  0  0  0
 21 20  2  0  0  0  0
 22  5  1  0  0  0  0
 23 26  1  0  0  0  0
 25 26  1  0  0  0  0
 26 24  2  0  0  0  0
M  END
>  <MODEL>
3

>  <REMARK>
 VINA RESULT:      -7.3      2.645      4.120
  Name = 
  2 active torsions:
  status: ('A' for Active; 'I' for Inactive)
    1  A    between atoms: C_5  and  O_17
    2  A    between atoms: C_11  and  O_17
                            x       y       z     vdW  Elec       q    Type
                         _______ _______ _______ _____ _____    ______ ____

>  <TORSDO>
F 2

$$$$
=
 OpenBabel11072408483D

 26 31  0  0  1  0  0  0  0  0999 V2000
  184.8330  177.5470  146.2080 S   0  0  0  0  0  0  0  0  0  0  0  0
  191.9590  173.8900  143.3630 C   0  0  0  0  0  2  0  0  0  0  0  0
  186.1740  177.6670  147.4680 C   0  0  0  0  0  2  0  0  0  0  0  0
  192.5150  174.8360  144.4240 C   0  0  1  0  0  0  0  0  0  0  0  0
  186.9980  177.6710  142.7240 C   0  0  0  0  0  0  0  0  0  0  0  0
  188.6350  177.7960  147.3760 N   0  0  0  0  0  2  0  0  0  0  0  0
  185.8840  177.7000  143.5830 C   0  0  0  0  0  3  0  0  0  0  0  0
  187.4590  177.0680  146.8930 C   0  0  2  0  0  3  0  0  0  0  0  0
  192.1110  175.3650  143.0380 C   0  0  2  0  0  0  0  0  0  0  0  0
  187.3400  177.2440  145.4360 C   0  0  0  0  0  0  0  0  0  0  0  0
  189.7340  177.0960  145.2520 N   0  0  0  0  0  0  0  0  0  0  0  0
  191.0080  176.2370  143.2670 O   0  0  0  0  0  0  0  0  0  0  0  0
  186.0810  177.4690  144.9470 C   0  0  0  0  0  0  0  0  0  0  0  0
  189.8810  177.3620  146.7070 C   0  0  2  0  0  3  0  0  0  0  0  0
  190.5620  176.2210  147.4320 C   0  0  0  0  0  3  0  0  0  0  0  0
  191.4220  175.4260  146.7790 C   0  0  0  0  0  3  0  0  0  0  0  0
  190.7880  176.3500  144.6270 C   0  0  0  0  0  0  0  0  0  0  0  0
  193.2400  175.8300  142.1330 C   0  0  0  0  0  1  0  0  0  0  0  0
  191.6120  175.6040  145.3290 C   0  0  0  0  0  0  0  0  0  0  0  0
  188.4560  177.2500  144.6210 C   0  0  0  0  0  0  0  0  0  0  0  0
  188.2890  177.4540  143.2420 C   0  0  0  0  0  3  0  0  0  0  0  0
  186.7820  177.9380  141.0080 Cl  0  0  0  0  0  0  0  0  0  0  0  0
  193.9230  174.8840  144.6360 O   0  0  0  0  0  0  0  0  0  0  0  0
  193.9980  172.8960  145.7740 O   0  0  0  0  0  0  0  0  0  0  0  0
  196.0410  174.1040  145.7650 C   0  0  0  0  0  1  0  0  0  0  0  0
  194.6070  173.9290  145.3920 C   0  0  0  0  0  0  0  0  0  0  0  0
  1  3  1  0  0  0  0
  2  4  1  0  0  0  0
  4 23  1  1  0  0  0
  4 19  1  0  0  0  0
  5 21  2  0  0  0  0
  5  7  1  0  0  0  0
  7 13  2  0  0  0  0
  8  6  1  0  0  0  0
  8  3  1  1  0  0  0
  9 18  1  6  0  0  0
  9 12  1  0  0  0  0
  9  2  1  0  0  0  0
  9  4  1  0  0  0  0
 10  8  1  0  0  0  0
 11 14  1  0  0  0  0
 12 17  1  0  0  0  0
 13 10  1  0  0  0  0
 13  1  1  0  0  0  0
 14  6  1  0  0  0  0
 14 15  1  1  0  0  0
 16 15  2  0  0  0  0
 17 11  1  0  0  0  0
 17 19  2  0  0  0  0
 19 16  1  0  0  0  0
 20 11  1  0  0  0  0
 20 10  2  0  0  0  0
 21 20  1  0  0  0  0
 22  5  1  0  0  0  0
 23 26  1  0  0  0  0
 26 25  1  0  0  0  0
 26 24  2  0  0  0  0
M  END
>  <MODEL>
4

>  <REMARK>
 VINA RESULT:      -7.3      3.815      7.349
  Name = 
  2 active torsions:
  status: ('A' for Active; 'I' for Inactive)
    1  A    between atoms: C_5  and  O_17
    2  A    between atoms: C_11  and  O_17
                            x       y       z     vdW  Elec       q    Type
                         _______ _______ _______ _____ _____    ______ ____

>  <TORSDO>
F 2

$$$$
=
 OpenBabel11072408483D

 26 31  0  0  1  0  0  0  0  0999 V2000
  183.1470  178.6820  142.9410 S   0  0  0  0  0  0  0  0  0  0  0  0
  189.6990  173.3610  143.9410 C   0  0  0  0  0  2  0  0  0  0  0  0
  183.9720  178.9640  144.5660 C   0  0  0  0  0  2  0  0  0  0  0  0
  190.0780  174.4810  144.9060 C   0  0  1  0  0  0  0  0  0  0  0  0
  186.3190  177.4780  140.6330 C   0  0  0  0  0  0  0  0  0  0  0  0
  186.2740  178.7010  145.4120 N   0  0  0  0  0  2  0  0  0  0  0  0
  185.0240  177.9150  140.9640 C   0  0  0  0  0  3  0  0  0  0  0  0
  185.1890  178.0430  144.6770 C   0  0  2  0  0  3  0  0  0  0  0  0
  190.3050  174.6410  143.3930 C   0  0  2  0  0  0  0  0  0  0  0  0
  185.6140  177.8070  143.2880 C   0  0  0  0  0  0  0  0  0  0  0  0
  187.8180  177.2650  144.0840 N   0  0  0  0  0  0  0  0  0  0  0  0
  189.4360  175.6930  142.9840 O   0  0  0  0  0  0  0  0  0  0  0  0
  184.6870  178.0620  142.3130 C   0  0  0  0  0  0  0  0  0  0  0  0
  187.5270  177.9150  145.3890 C   0  0  2  0  0  3  0  0  0  0  0  0
  187.6250  176.9460  146.5470 C   0  0  0  0  0  3  0  0  0  0  0  0
  188.4340  175.8790  146.4660 C   0  0  0  0  0  3  0  0  0  0  0  0
  188.8060  176.2250  144.0930 C   0  0  0  0  0  0  0  0  0  0  0  0
  191.7500  174.6540  142.9210 C   0  0  0  0  0  1  0  0  0  0  0  0
  189.1390  175.6010  145.2020 C   0  0  0  0  0  0  0  0  0  0  0  0
  186.9050  177.4150  142.9900 C   0  0  0  0  0  0  0  0  0  0  0  0
  187.2670  177.2340  141.6450 C   0  0  0  0  0  3  0  0  0  0  0  0
  186.7650  177.2660  138.9540 Cl  0  0  0  0  0  0  0  0  0  0  0  0
  191.3000  174.3830  145.6330 O   0  0  0  0  0  0  0  0  0  0  0  0
  192.3290  176.3960  146.0140 O   0  0  0  0  0  0  0  0  0  0  0  0
  191.5660  175.2910  147.9720 C   0  0  0  0  0  1  0  0  0  0  0  0
  191.7490  175.3870  146.4940 C   0  0  0  0  0  0  0  0  0  0  0  0
  1  3  1  0  0  0  0
  2  4  1  0  0  0  0
  4 19  1  0  0  0  0
  4 23  1  1  0  0  0
  5  7  2  0  0  0  0
  5 21  1  0  0  0  0
  7 13  1  0  0  0  0
  8  3  1  6  0  0  0
  8  6  1  0  0  0  0
  9 18  1  6  0  0  0
  9  2  1  0  0  0  0
  9  4  1  0  0  0  0
 10  8  1  0  0  0  0
 11 17  1  0  0  0  0
 11 14  1  0  0  0  0
 12  9  1  0  0  0  0
 12 17  1  0  0  0  0
 13  1  1  0  0  0  0
 13 10  2  0  0  0  0
 14  6  1  0  0  0  0
 14 15  1  1  0  0  0
 16 15  2  0  0  0  0
 17 19  2  0  0  0  0
 19 16  1  0  0  0  0
 20 10  1  0  0  0  0
 20 11  1  0  0  0  0
 21 20  2  0  0  0  0
 22  5  1  0  0  0  0
 23 26  1  0  0  0  0
 24 26  2  0  0  0  0
 26 25  1  0  0  0  0
M  END
>  <MODEL>
5

>  <REMARK>
 VINA RESULT:      -7.3      3.862      7.113
  Name = 
  2 active torsions:
  status: ('A' for Active; 'I' for Inactive)
    1  A    between atoms: C_5  and  O_17
    2  A    between atoms: C_11  and  O_17
                            x       y       z     vdW  Elec       q    Type
                         _______ _______ _______ _____ _____    ______ ____

>  <TORSDO>
F 2

$$$$
=
 OpenBabel11072408483D

 26 31  0  0  1  0  0  0  0  0999 V2000
  184.7090  178.5080  147.2710 S   0  0  0  0  0  0  0  0  0  0  0  0
  188.2100  172.6240  142.2350 C   0  0  0  0  0  2  0  0  0  0  0  0
  186.4360  178.1410  147.8020 C   0  0  0  0  0  2  0  0  0  0  0  0
  189.4520  173.3060  142.8000 C   0  0  1  0  0  0  0  0  0  0  0  0
  184.9730  177.9020  143.2210 C   0  0  0  0  0  0  0  0  0  0  0  0
  188.4870  177.4060  146.6470 N   0  0  0  0  0  2  0  0  0  0  0  0
  184.4420  178.3090  144.4590 C   0  0  0  0  0  3  0  0  0  0  0  0
  187.0580  177.1370  146.8290 C   0  0  2  0  0  3  0  0  0  0  0  0
  188.6520  173.9570  141.6580 C   0  0  2  0  0  0  0  0  0  0  0  0
  186.3530  177.3580  145.5560 C   0  0  0  0  0  0  0  0  0  0  0  0
  188.2190  176.3870  144.3890 N   0  0  0  0  0  0  0  0  0  0  0  0
  188.1110  175.1560  142.2040 O   0  0  0  0  0  0  0  0  0  0  0  0
  185.1520  178.0110  145.6260 C   0  0  0  0  0  0  0  0  0  0  0  0
  189.0860  176.5710  145.5830 C   0  0  2  0  0  3  0  0  0  0  0  0
  189.6240  175.2580  146.1090 C   0  0  0  0  0  3  0  0  0  0  0  0
  189.7940  174.2180  145.2790 C   0  0  0  0  0  3  0  0  0  0  0  0
  188.5800  175.3260  143.4930 C   0  0  0  0  0  0  0  0  0  0  0  0
  189.3300  174.0070  140.2990 C   0  0  0  0  0  1  0  0  0  0  0  0
  189.3510  174.3330  143.8780 C   0  0  0  0  0  0  0  0  0  0  0  0
  186.9160  176.9820  144.3510 C   0  0  0  0  0  0  0  0  0  0  0  0
  186.2150  177.2440  143.1620 C   0  0  0  0  0  3  0  0  0  0  0  0
  184.0980  178.2440  141.7440 Cl  0  0  0  0  0  0  0  0  0  0  0  0
  190.7380  172.8590  142.3790 O   0  0  0  0  0  0  0  0  0  0  0  0
  192.0370  174.7480  142.3770 O   0  0  0  0  0  0  0  0  0  0  0  0
  193.0400  172.8620  143.4120 C   0  0  0  0  0  1  0  0  0  0  0  0
  191.9160  173.5380  142.7010 C   0  0  0  0  0  0  0  0  0  0  0  0
  1  3  1  0  0  0  0
  2  4  1  0  0  0  0
  4 23  1  6  0  0  0
  4 19  1  0  0  0  0
  5  7  1  0  0  0  0
  6  8  1  0  0  0  0
  7 13  2  0  0  0  0
  8  3  1  1  0  0  0
  9 18  1  6  0  0  0
  9 12  1  0  0  0  0
  9  2  1  0  0  0  0
  9  4  1  0  0  0  0
 10 13  1  0  0  0  0
 10  8  1  0  0  0  0
 11 14  1  0  0  0  0
 12 17  1  0  0  0  0
 13  1  1  0  0  0  0
 14 15  1  1  0  0  0
 14  6  1  0  0  0  0
 16 15  2  0  0  0  0
 17 19  2  0  0  0  0
 17 11  1  0  0  0  0
 19 16  1  0  0  0  0
 20 11  1  0  0  0  0
 20 10  2  0  0  0  0
 21  5  2  0  0  0  0
 21 20  1  0  0  0  0
 22  5  1  0  0  0  0
 23 26  1  0  0  0  0
 24 26  2  0  0  0  0
 26 25  1  0  0  0  0
M  END
>  <MODEL>
6

>  <REMARK>
 VINA RESULT:      -7.2      3.855      6.788
  Name = 
  2 active torsions:
  status: ('A' for Active; 'I' for Inactive)
    1  A    between atoms: C_5  and  O_17
    2  A    between atoms: C_11  and  O_17
                            x       y       z     vdW  Elec       q    Type
                         _______ _______ _______ _____ _____    ______ ____

>  <TORSDO>
F 2

$$$$
=
 OpenBabel11072408483D

 26 31  0  0  1  0  0  0  0  0999 V2000
  185.4450  178.6660  141.3300 S   0  0  0  0  0  0  0  0  0  0  0  0
  192.1960  176.8800  146.1760 C   0  0  0  0  0  2  0  0  0  0  0  0
  186.3140  177.1640  140.7060 C   0  0  0  0  0  2  0  0  0  0  0  0
  191.9170  175.5190  145.5430 C   0  0  1  0  0  0  0  0  0  0  0  0
  186.1650  178.3900  145.3600 C   0  0  0  0  0  0  0  0  0  0  0  0
  187.6600  175.3800  141.7490 N   0  0  0  0  0  2  0  0  0  0  0  0
  185.5960  178.8340  144.1520 C   0  0  0  0  0  3  0  0  0  0  0  0
  187.4750  176.8300  141.6450 C   0  0  2  0  0  3  0  0  0  0  0  0
  191.0710  176.0200  146.7260 C   0  0  2  0  0  0  0  0  0  0  0  0
  187.0700  177.3660  142.9550 C   0  0  0  0  0  0  0  0  0  0  0  0
  188.5830  175.8290  144.0200 N   0  0  0  0  0  0  0  0  0  0  0  0
  189.7550  176.1960  146.2090 O   0  0  0  0  0  0  0  0  0  0  0  0
  186.0790  178.3110  142.9490 C   0  0  0  0  0  0  0  0  0  0  0  0
  188.6540  175.0110  142.7810 C   0  0  2  0  0  3  0  0  0  0  0  0
  190.0610  174.9300  142.2280 C   0  0  0  0  0  3  0  0  0  0  0  0
  191.1150  175.0430  143.0490 C   0  0  0  0  0  3  0  0  0  0  0  0
  189.7170  175.7650  144.8970 C   0  0  0  0  0  0  0  0  0  0  0  0
  191.2510  175.2910  148.0470 C   0  0  0  0  0  1  0  0  0  0  0  0
  190.8920  175.3560  144.4720 C   0  0  0  0  0  0  0  0  0  0  0  0
  187.6180  176.8830  144.1280 C   0  0  0  0  0  0  0  0  0  0  0  0
  187.1720  177.4080  145.3520 C   0  0  0  0  0  3  0  0  0  0  0  0
  185.5950  179.0410  146.8820 Cl  0  0  0  0  0  0  0  0  0  0  0  0
  192.7420  174.4120  145.8950 O   0  0  0  0  0  0  0  0  0  0  0  0
  194.0810  173.3440  144.3710 O   0  0  0  0  0  0  0  0  0  0  0  0
  195.2150  174.8960  145.7630 C   0  0  0  0  0  1  0  0  0  0  0  0
  193.9880  174.1810  145.3060 C   0  0  0  0  0  0  0  0  0  0  0  0
  1 13  1  0  0  0  0
  2  9  1  0  0  0  0
  3  1  1  0  0  0  0
  4 23  1  1  0  0  0
  4  2  1  0  0  0  0
  4  9  1  0  0  0  0
  5 22  1  0  0  0  0
  6 14  1  0  0  0  0
  7  5  2  0  0  0  0
  8  3  1  6  0  0  0
  8  6  1  0  0  0  0
  8 10  1  0  0  0  0
  9 18  1  1  0  0  0
 10 20  1  0  0  0  0
 11 20  1  0  0  0  0
 11 17  1  0  0  0  0
 12  9  1  0  0  0  0
 13 10  2  0  0  0  0
 13  7  1  0  0  0  0
 14 15  1  6  0  0  0
 14 11  1  0  0  0  0
 15 16  2  0  0  0  0
 16 19  1  0  0  0  0
 17 12  1  0  0  0  0
 19 17  2  0  0  0  0
 19  4  1  0  0  0  0
 20 21  2  0  0  0  0
 21  5  1  0  0  0  0
 24 26  2  0  0  0  0
 26 25  1  0  0  0  0
 26 23  1  0  0  0  0
M  END
>  <MODEL>
7

>  <REMARK>
 VINA RESULT:      -7.1      3.475      6.561
  Name = 
  2 active torsions:
  status: ('A' for Active; 'I' for Inactive)
    1  A    between atoms: C_5  and  O_17
    2  A    between atoms: C_11  and  O_17
                            x       y       z     vdW  Elec       q    Type
                         _______ _______ _______ _____ _____    ______ ____

>  <TORSDO>
F 2

$$$$
=
 OpenBabel11072408483D

 26 31  0  0  1  0  0  0  0  0999 V2000
  190.3560  171.4930  140.9620 S   0  0  0  0  0  0  0  0  0  0  0  0
  187.2120  176.2520  147.2640 C   0  0  0  0  0  2  0  0  0  0  0  0
  189.1800  172.7500  140.3030 C   0  0  0  0  0  2  0  0  0  0  0  0
  187.0020  177.1730  146.0640 C   0  0  1  0  0  0  0  0  0  0  0  0
  191.9240  173.4800  144.1920 C   0  0  0  0  0  0  0  0  0  0  0  0
  188.4910  175.0140  140.9990 N   0  0  0  0  0  2  0  0  0  0  0  0
  191.7760  172.4960  143.1980 C   0  0  0  0  0  3  0  0  0  0  0  0
  188.6950  173.6350  141.4530 C   0  0  2  0  0  3  0  0  0  0  0  0
  188.3890  177.0410  146.7170 C   0  0  2  0  0  0  0  0  0  0  0  0
  189.7850  173.6030  142.4420 C   0  0  0  0  0  0  0  0  0  0  0  0
  188.9850  175.6830  143.3480 N   0  0  0  0  0  0  0  0  0  0  0  0
  189.2220  176.4390  145.7300 O   0  0  0  0  0  0  0  0  0  0  0  0
  190.6800  172.5720  142.3330 C   0  0  0  0  0  0  0  0  0  0  0  0
  188.1920  175.9370  142.1160 C   0  0  2  0  0  3  0  0  0  0  0  0
  186.7100  176.0430  142.4010 C   0  0  0  0  0  3  0  0  0  0  0  0
  186.2820  176.4600  143.6020 C   0  0  0  0  0  3  0  0  0  0  0  0
  188.5090  176.2960  144.5540 C   0  0  0  0  0  0  0  0  0  0  0  0
  188.9020  178.2570  147.4700 C   0  0  0  0  0  1  0  0  0  0  0  0
  187.2650  176.7060  144.6720 C   0  0  0  0  0  0  0  0  0  0  0  0
  189.9280  174.6050  143.3830 C   0  0  0  0  0  0  0  0  0  0  0  0
  191.0050  174.5420  144.2830 C   0  0  0  0  0  3  0  0  0  0  0  0
  193.2750  173.4000  145.3020 Cl  0  0  0  0  0  0  0  0  0  0  0  0
  186.4220  178.4570  146.2730 O   0  0  0  0  0  0  0  0  0  0  0  0
  184.6060  178.5770  147.6670 O   0  0  0  0  0  0  0  0  0  0  0  0
  184.1090  178.9060  145.3700 C   0  0  0  0  0  1  0  0  0  0  0  0
  185.0540  178.6420  146.4930 C   0  0  0  0  0  0  0  0  0  0  0  0
  1 13  1  0  0  0  0
  3  1  1  0  0  0  0
  4 23  1  1  0  0  0
  4  9  1  0  0  0  0
  4  2  1  0  0  0  0
  5 21  1  0  0  0  0
  5 22  1  0  0  0  0
  6  8  1  0  0  0  0
  6 14  1  0  0  0  0
  7  5  2  0  0  0  0
  8  3  1  6  0  0  0
  8 10  1  0  0  0  0
  9  2  1  0  0  0  0
  9 18  1  1  0  0  0
 10 20  1  0  0  0  0
 11 20  1  0  0  0  0
 11 17  1  0  0  0  0
 12  9  1  0  0  0  0
 13 10  2  0  0  0  0
 13  7  1  0  0  0  0
 14 15  1  1  0  0  0
 14 11  1  0  0  0  0
 15 16  2  0  0  0  0
 16 19  1  0  0  0  0
 17 19  2  0  0  0  0
 17 12  1  0  0  0  0
 19  4  1  0  0  0  0
 20 21  2  0  0  0  0
 23 26  1  0  0  0  0
 25 26  1  0  0  0  0
 26 24  2  0  0  0  0
M  END
>  <MODEL>
8

>  <REMARK>
 VINA RESULT:      -7.1      2.466      3.483
  Name = 
  2 active torsions:
  status: ('A' for Active; 'I' for Inactive)
    1  A    between atoms: C_5  and  O_17
    2  A    between atoms: C_11  and  O_17
                            x       y       z     vdW  Elec       q    Type
                         _______ _______ _______ _____ _____    ______ ____

>  <TORSDO>
F 2

$$$$
=
 OpenBabel11072408483D

 26 31  0  0  1  0  0  0  0  0999 V2000
  192.6820  172.8620  142.4080 S   0  0  0  0  0  0  0  0  0  0  0  0
  186.7690  178.9660  142.5450 C   0  0  0  0  0  2  0  0  0  0  0  0
  192.3510  173.4080  144.1370 C   0  0  0  0  0  2  0  0  0  0  0  0
  186.6640  178.4210  143.9660 C   0  0  1  0  0  0  0  0  0  0  0  0
  189.0020  173.4130  140.6770 C   0  0  0  0  0  0  0  0  0  0  0  0
  190.3900  174.3210  145.3230 N   0  0  0  0  0  2  0  0  0  0  0  0
  190.3310  172.9790  140.8330 C   0  0  0  0  0  3  0  0  0  0  0  0
  191.2290  174.4500  144.1290 C   0  0  2  0  0  3  0  0  0  0  0  0
  186.0120  177.6730  142.7910 C   0  0  2  0  0  0  0  0  0  0  0  0
  190.4300  174.1360  142.9330 C   0  0  0  0  0  0  0  0  0  0  0  0
  188.5530  175.2650  143.9290 N   0  0  0  0  0  0  0  0  0  0  0  0
  186.7120  176.4360  142.6880 O   0  0  0  0  0  0  0  0  0  0  0  0
  191.0360  173.3680  141.9750 C   0  0  0  0  0  0  0  0  0  0  0  0
  189.1940  175.1900  145.2680 C   0  0  2  0  0  3  0  0  0  0  0  0
  189.4450  176.5600  145.8600 C   0  0  0  0  0  3  0  0  0  0  0  0
  188.6630  177.5950  145.5190 C   0  0  0  0  0  3  0  0  0  0  0  0
  187.6240  176.3380  143.7220 C   0  0  0  0  0  0  0  0  0  0  0  0
  184.4930  177.6640  142.7510 C   0  0  0  0  0  1  0  0  0  0  0  0
  187.6310  177.4100  144.4830 C   0  0  0  0  0  0  0  0  0  0  0  0
  189.1140  174.5420  142.8250 C   0  0  0  0  0  0  0  0  0  0  0  0
  188.3860  174.1890  141.6770 C   0  0  0  0  0  3  0  0  0  0  0  0
  188.0990  172.9580  139.2480 Cl  0  0  0  0  0  0  0  0  0  0  0  0
  185.7020  178.9850  144.8530 O   0  0  0  0  0  0  0  0  0  0  0  0
  185.9250  179.2280  147.1220 O   0  0  0  0  0  0  0  0  0  0  0  0
  184.8600  177.2180  146.4460 C   0  0  0  0  0  1  0  0  0  0  0  0
  185.5180  178.5260  146.1600 C   0  0  0  0  0  0  0  0  0  0  0  0
  1  3  1  0  0  0  0
  2  9  1  0  0  0  0
  2  4  1  0  0  0  0
  4 19  1  0  0  0  0
  4 23  1  1  0  0  0
  5  7  2  0  0  0  0
  5 21  1  0  0  0  0
  7 13  1  0  0  0  0
  8  3  1  1  0  0  0
  8  6  1  0  0  0  0
  9 18  1  6  0  0  0
  9  4  1  0  0  0  0
 10  8  1  0  0  0  0
 11 14  1  0  0  0  0
 12  9  1  0  0  0  0
 12 17  1  0  0  0  0
 13  1  1  0  0  0  0
 13 10  2  0  0  0  0
 14  6  1  0  0  0  0
 14 15  1  6  0  0  0
 16 15  2  0  0  0  0
 17 11  1  0  0  0  0
 17 19  2  0  0  0  0
 19 16  1  0  0  0  0
 20 10  1  0  0  0  0
 20 11  1  0  0  0  0
 21 20  2  0  0  0  0
 22  5  1  0  0  0  0
 23 26  1  0  0  0  0
 26 25  1  0  0  0  0
 26 24  2  0  0  0  0
M  END
>  <MODEL>
9

>  <REMARK>
 VINA RESULT:      -7.1      2.947      4.418
  Name = 
  2 active torsions:
  status: ('A' for Active; 'I' for Inactive)
    1  A    between atoms: C_5  and  O_17
    2  A    between atoms: C_11  and  O_17
                            x       y       z     vdW  Elec       q    Type
                         _______ _______ _______ _____ _____    ______ ____

>  <TORSDO>
F 2

$$$$
