=
 OpenBabel11072409233D

 39 45  0  0  1  0  0  0  0  0999 V2000
  186.7180  177.8780  145.8240 C   0  0  0  0  0  2  0  0  0  0  0  0
  189.0240  174.8390  145.1360 C   0  0  0  0  0  2  0  0  0  0  0  0
  194.5550  173.5860  141.7280 C   0  0  1  0  0  3  0  0  0  0  0  0
  193.3610  174.6050  143.5830 C   0  0  1  0  0  3  0  0  0  0  0  0
  190.2830  175.9760  143.2590 C   0  0  1  0  0  3  0  0  0  0  0  0
  195.5850  174.9660  139.8700 C   0  0  0  0  0  0  0  0  0  0  0  0
  192.0520  173.3410  141.7480 C   0  0  2  0  0  3  0  0  0  0  0  0
  185.8030  178.7110  144.9190 C   0  0  2  0  0  3  0  0  0  0  0  0
  184.8770  179.4010  145.6980 O   0  0  0  0  0  1  0  0  0  0  0  0
  196.0500  175.5140  142.1710 N   0  0  0  0  0  0  0  0  0  0  0  0
  195.5910  174.2040  142.6610 C   0  0  1  0  0  3  0  0  0  0  0  0
  192.7300  172.4330  139.8130 C   0  0  0  0  0  2  0  0  0  0  0  0
  193.2410  174.2640  142.0850 C   0  0  2  0  0  3  0  0  0  0  0  0
  196.0810  175.8600  140.9190 C   0  0  0  0  0  3  0  0  0  0  0  0
  190.9880  173.8350  144.0380 C   0  0  1  0  0  3  0  0  0  0  0  0
  190.5730  178.3260  143.1050 O   0  0  0  0  0  0  0  0  0  0  0  0
  187.3830  176.7310  143.6480 C   0  0  2  0  0  3  0  0  0  0  0  0
  187.2080  176.5720  145.1700 C   0  0  1  0  0  3  0  0  0  0  0  0
  185.0740  177.8390  143.9020 C   0  0  0  0  0  2  0  0  0  0  0  0
  190.2390  175.1000  142.0260 C   0  0  1  0  0  3  0  0  0  0  0  0
  191.8080  173.3290  140.3670 O   0  0  0  0  0  0  0  0  0  0  0  0
  188.3910  177.6910  143.3520 O   0  0  0  0  0  0  0  0  0  0  0  0
  188.4740  176.0560  145.8590 C   0  0  1  0  0  3  0  0  0  0  0  0
  186.0680  177.1410  142.9660 C   0  0  0  0  0  2  0  0  0  0  0  0
  189.7510  177.3840  143.2460 C   0  0  0  0  0  0  0  0  0  0  0  0
  188.1760  175.6690  147.2970 C   0  0  0  0  0  1  0  0  0  0  0  0
  192.4570  173.7350  144.4610 C   0  0  0  0  0  2  0  0  0  0  0  0
  194.8180  174.3630  143.9690 C   0  0  1  0  0  3  0  0  0  0  0  0
  190.3830  175.1450  144.5240 C   0  0  2  0  0  3  0  0  0  0  0  0
  194.9610  173.6500  140.2380 C   0  0  2  0  0  3  0  0  0  0  0  0
  190.7790  173.7540  142.5050 C   0  0  1  0  0  3  0  0  0  0  0  0
  193.8900  173.2200  139.2180 C   0  0  0  0  0  2  0  0  0  0  0  0
  188.8210  174.9110  141.5210 C   0  0  0  0  0  1  0  0  0  0  0  0
  195.7360  175.2910  138.6620 O   0  0  0  0  0  0  0  0  0  0  0  0
  195.7450  174.9110  146.1380 O   0  0  0  0  0  1  0  0  0  0  0  0
  195.3680  175.4530  144.9040 C   0  0  2  0  0  3  0  0  0  0  0  0
  194.4180  176.5540  145.0910 N   0  0  0  0  0  2  0  0  0  0  0  0
  192.8300  176.4180  146.8520 N   0  0  0  0  0  1  0  0  0  0  0  0
  194.1910  176.7890  146.5130 C   0  0  0  0  0  2  0  0  0  0  0  0
  2 23  1  0  0  0  0
  3 13  1  0  0  0  0
  3 11  1  0  0  0  0
  4 28  1  0  0  0  0
  4 27  1  0  0  0  0
  5 29  1  0  0  0  0
  6 30  1  0  0  0  0
  6 14  1  0  0  0  0
  7 13  1  0  0  0  0
  7 31  1  0  0  0  0
  8  9  1  0  0  0  0
  8  1  1  0  0  0  0
 10 11  1  0  0  0  0
 11 28  1  0  0  0  0
 12 21  1  0  0  0  0
 13  4  1  0  0  0  0
 14 10  2  0  0  0  0
 15 27  1  0  0  0  0
 15 29  1  0  0  0  0
 16 25  2  0  0  0  0
 17 18  1  0  0  0  0
 18  1  1  0  0  0  0
 18 23  1  0  0  0  0
 19  8  1  0  0  0  0
 20 31  1  0  0  0  0
 20  5  1  0  0  0  0
 21  7  1  0  0  0  0
 22 17  1  0  0  0  0
 23 26  1  0  0  0  0
 24 17  1  0  0  0  0
 24 19  1  0  0  0  0
 25  5  1  0  0  0  0
 25 22  1  0  0  0  0
 28 36  1  0  0  0  0
 29  2  1  0  0  0  0
 30  3  1  0  0  0  0
 31 15  1  0  0  0  0
 32 12  1  0  0  0  0
 32 30  1  0  0  0  0
 33 20  1  0  0  0  0
 34  6  2  0  0  0  0
 36 37  1  0  0  0  0
 36 35  1  0  0  0  0
 37 39  1  0  0  0  0
 39 38  1  0  0  0  0
M  END
>  <MODEL>
1

>  <REMARK>
 VINA RESULT:      -8.4      0.000      0.000
  Name = 
  3 active torsions:
  status: ('A' for Active; 'I' for Inactive)
    1  A    between atoms: N_8  and  C_30
    2  A    between atoms: N_8  and  C_38
    3  A    between atoms: C_30  and  C_32
                            x       y       z     vdW  Elec       q    Type
                         _______ _______ _______ _____ _____    ______ ____

>  <TORSDO>
F 3

$$$$
=
 OpenBabel11072409233D

 39 45  0  0  1  0  0  0  0  0999 V2000
  192.2440  170.5520  140.4400 C   0  0  0  0  0  2  0  0  0  0  0  0
  191.8140  174.2990  141.3360 C   0  0  0  0  0  2  0  0  0  0  0  0
  187.9100  177.9700  145.2160 C   0  0  1  0  0  3  0  0  0  0  0  0
  189.6920  176.3530  144.8780 C   0  0  1  0  0  3  0  0  0  0  0  0
  189.5820  173.9660  142.4800 C   0  0  1  0  0  3  0  0  0  0  0  0
  185.6840  177.3260  146.2410 C   0  0  0  0  0  0  0  0  0  0  0  0
  188.3590  177.2410  142.8510 C   0  0  2  0  0  3  0  0  0  0  0  0
  191.3450  169.5530  139.7020 C   0  0  2  0  0  3  0  0  0  0  0  0
  192.1080  168.4710  139.2650 O   0  0  0  0  0  1  0  0  0  0  0  0
  187.7360  176.7160  147.3480 N   0  0  0  0  0  0  0  0  0  0  0  0
  188.5350  177.6810  146.5760 C   0  0  1  0  0  3  0  0  0  0  0  0
  186.5560  178.5700  142.7390 C   0  0  0  0  0  2  0  0  0  0  0  0
  188.3250  176.8050  144.3310 C   0  0  2  0  0  3  0  0  0  0  0  0
  186.4510  176.5640  147.2300 C   0  0  0  0  0  3  0  0  0  0  0  0
  190.6440  176.1000  142.5420 C   0  0  1  0  0  3  0  0  0  0  0  0
  188.9340  171.9410  143.5330 O   0  0  0  0  0  0  0  0  0  0  0  0
  190.2550  172.1250  140.1810 C   0  0  2  0  0  3  0  0  0  0  0  0
  191.7890  172.0160  140.2910 C   0  0  1  0  0  3  0  0  0  0  0  0
  190.6400  170.2000  138.5160 C   0  0  0  0  0  2  0  0  0  0  0  0
  188.5640  174.9050  141.8710 C   0  0  1  0  0  3  0  0  0  0  0  0
  187.0600  177.3300  142.3290 O   0  0  0  0  0  0  0  0  0  0  0  0
  189.6290  171.6640  141.3730 O   0  0  0  0  0  0  0  0  0  0  0  0
  192.3630  172.8850  141.4130 C   0  0  1  0  0  3  0  0  0  0  0  0
  189.7160  171.3330  138.9790 C   0  0  0  0  0  2  0  0  0  0  0  0
  189.3780  172.4750  142.4840 C   0  0  0  0  0  0  0  0  0  0  0  0
  193.8760  172.9490  141.3130 C   0  0  0  0  0  1  0  0  0  0  0  0
  190.8490  176.6980  143.9370 C   0  0  0  0  0  2  0  0  0  0  0  0
  189.8910  177.0800  146.2060 C   0  0  1  0  0  3  0  0  0  0  0  0
  190.9540  174.6100  142.5520 C   0  0  2  0  0  3  0  0  0  0  0  0
  186.3910  178.2500  145.2910 C   0  0  2  0  0  3  0  0  0  0  0  0
  189.2070  176.2850  141.9960 C   0  0  1  0  0  3  0  0  0  0  0  0
  185.6490  178.3620  143.9450 C   0  0  0  0  0  2  0  0  0  0  0  0
  188.3280  174.6020  140.4030 C   0  0  0  0  0  1  0  0  0  0  0  0
  184.4270  177.2340  146.2340 O   0  0  0  0  0  0  0  0  0  0  0  0
  191.4860  176.8540  148.0130 O   0  0  0  0  0  1  0  0  0  0  0  0
  190.5010  176.1740  147.2880 C   0  0  2  0  0  3  0  0  0  0  0  0
  191.0370  174.9290  146.7310 N   0  0  0  0  0  2  0  0  0  0  0  0
  193.0230  174.2680  145.6070 N   0  0  0  0  0  1  0  0  0  0  0  0
  192.4940  174.9390  146.7810 C   0  0  0  0  0  2  0  0  0  0  0  0
  2 23  1  0  0  0  0
  2 29  1  0  0  0  0
  3 30  1  0  0  0  0
  3 11  1  0  0  0  0
  4 28  1  0  0  0  0
  5 25  1  0  0  0  0
  5 29  1  0  0  0  0
  6 14  1  0  0  0  0
  7 13  1  0  0  0  0
  8  1  1  0  0  0  0
  9  8  1  0  0  0  0
 11 10  1  0  0  0  0
 12 32  1  0  0  0  0
 13  4  1  0  0  0  0
 13  3  1  0  0  0  0
 14 10  2  0  0  0  0
 15 29  1  0  0  0  0
 15 27  1  0  0  0  0
 17 18  1  0  0  0  0
 17 22  1  0  0  0  0
 18  1  1  0  0  0  0
 18 23  1  0  0  0  0
 19 24  1  0  0  0  0
 19  8  1  0  0  0  0
 20 31  1  0  0  0  0
 20  5  1  0  0  0  0
 21 12  1  0  0  0  0
 21  7  1  0  0  0  0
 22 25  1  0  0  0  0
 24 17  1  0  0  0  0
 25 16  2  0  0  0  0
 26 23  1  0  0  0  0
 27  4  1  0  0  0  0
 28 11  1  0  0  0  0
 28 36  1  0  0  0  0
 30  6  1  0  0  0  0
 31 15  1  0  0  0  0
 31  7  1  0  0  0  0
 32 30  1  0  0  0  0
 33 20  1  0  0  0  0
 34  6  2  0  0  0  0
 36 35  1  0  0  0  0
 37 39  1  0  0  0  0
 37 36  1  0  0  0  0
 38 39  1  0  0  0  0
M  END
>  <MODEL>
2

>  <REMARK>
 VINA RESULT:      -8.3      2.577      7.742
  Name = 
  3 active torsions:
  status: ('A' for Active; 'I' for Inactive)
    1  A    between atoms: N_8  and  C_30
    2  A    between atoms: N_8  and  C_38
    3  A    between atoms: C_30  and  C_32
                            x       y       z     vdW  Elec       q    Type
                         _______ _______ _______ _____ _____    ______ ____

>  <TORSDO>
F 3

$$$$
=
 OpenBabel11072409233D

 39 45  0  0  1  0  0  0  0  0999 V2000
  186.7690  176.6890  144.6400 C   0  0  0  0  0  2  0  0  0  0  0  0
  190.4090  176.5000  143.3230 C   0  0  0  0  0  2  0  0  0  0  0  0
  195.5580  172.3720  143.7950 C   0  0  1  0  0  3  0  0  0  0  0  0
  193.3410  172.9540  142.9910 C   0  0  1  0  0  3  0  0  0  0  0  0
  191.0760  174.6190  144.8790 C   0  0  1  0  0  3  0  0  0  0  0  0
  195.9330  170.5380  145.5030 C   0  0  0  0  0  0  0  0  0  0  0  0
  194.5810  174.5410  144.6090 C   0  0  2  0  0  3  0  0  0  0  0  0
  186.1820  176.8500  146.0480 C   0  0  2  0  0  3  0  0  0  0  0  0
  184.8620  177.2870  145.9570 O   0  0  0  0  0  1  0  0  0  0  0  0
  194.6030  170.0980  143.5410 N   0  0  0  0  0  0  0  0  0  0  0  0
  195.1160  171.2780  142.8280 C   0  0  1  0  0  3  0  0  0  0  0  0
  196.5200  174.3050  145.7100 C   0  0  0  0  0  2  0  0  0  0  0  0
  194.2790  173.0830  144.2060 C   0  0  2  0  0  3  0  0  0  0  0  0
  194.9810  169.7360  144.7300 C   0  0  0  0  0  3  0  0  0  0  0  0
  192.5940  175.3690  143.1990 C   0  0  1  0  0  3  0  0  0  0  0  0
  189.5520  173.0120  145.7280 O   0  0  0  0  0  0  0  0  0  0  0  0
  188.9970  176.5730  145.8700 C   0  0  2  0  0  3  0  0  0  0  0  0
  188.2800  176.9740  144.5670 C   0  0  1  0  0  3  0  0  0  0  0  0
  186.9940  177.8310  146.8860 C   0  0  0  0  0  2  0  0  0  0  0  0
  192.3130  175.0250  145.6500 C   0  0  1  0  0  3  0  0  0  0  0  0
  195.1610  174.5950  145.8840 O   0  0  0  0  0  0  0  0  0  0  0  0
  188.8970  175.1720  146.0920 O   0  0  0  0  0  0  0  0  0  0  0  0
  188.9010  176.3220  143.3280 C   0  0  1  0  0  3  0  0  0  0  0  0
  188.4290  177.3270  147.0830 C   0  0  0  0  0  2  0  0  0  0  0  0
  189.8000  174.2360  145.5780 C   0  0  0  0  0  0  0  0  0  0  0  0
  188.3380  176.9440  142.0630 C   0  0  0  0  0  1  0  0  0  0  0  0
  193.1330  174.2840  142.2610 C   0  0  0  0  0  2  0  0  0  0  0  0
  193.9960  171.9570  142.0390 C   0  0  1  0  0  3  0  0  0  0  0  0
  191.1100  175.1560  143.4600 C   0  0  2  0  0  3  0  0  0  0  0  0
  196.4350  171.8430  144.9520 C   0  0  2  0  0  3  0  0  0  0  0  0
  193.3180  175.4170  144.5680 C   0  0  1  0  0  3  0  0  0  0  0  0
  196.7660  172.8460  146.0740 C   0  0  0  0  0  2  0  0  0  0  0  0
  192.0520  176.2260  146.5390 C   0  0  0  0  0  1  0  0  0  0  0  0
  196.3600  170.0960  146.6030 O   0  0  0  0  0  0  0  0  0  0  0  0
  192.7740  171.2790  140.0620 O   0  0  0  0  0  1  0  0  0  0  0  0
  192.9810  170.9850  141.4140 C   0  0  2  0  0  3  0  0  0  0  0  0
  191.7080  170.9690  142.1410 N   0  0  0  0  0  2  0  0  0  0  0  0
  189.6550  172.1410  141.9130 N   0  0  0  0  0  1  0  0  0  0  0  0
  190.6070  171.2800  141.2360 C   0  0  0  0  0  2  0  0  0  0  0  0
  1  8  1  0  0  0  0
  2 23  1  0  0  0  0
  2 29  1  0  0  0  0
  3 13  1  0  0  0  0
  3 30  1  0  0  0  0
  4 13  1  0  0  0  0
  5 25  1  0  0  0  0
  5 20  1  0  0  0  0
  6 34  2  0  0  0  0
  7 21  1  0  0  0  0
  8 19  1  0  0  0  0
  9  8  1  0  0  0  0
 10 14  2  0  0  0  0
 11 10  1  0  0  0  0
 11  3  1  0  0  0  0
 12 21  1  0  0  0  0
 12 32  1  0  0  0  0
 13  7  1  0  0  0  0
 14  6  1  0  0  0  0
 15 29  1  0  0  0  0
 15 31  1  0  0  0  0
 17 22  1  0  0  0  0
 17 24  1  0  0  0  0
 18  1  1  0  0  0  0
 18 17  1  0  0  0  0
 19 24  1  0  0  0  0
 20 33  1  0  0  0  0
 23 18  1  0  0  0  0
 25 16  2  0  0  0  0
 25 22  1  0  0  0  0
 26 23  1  0  0  0  0
 27  4  1  0  0  0  0
 27 15  1  0  0  0  0
 28 11  1  0  0  0  0
 28  4  1  0  0  0  0
 29  5  1  0  0  0  0
 30  6  1  0  0  0  0
 30 32  1  0  0  0  0
 31  7  1  0  0  0  0
 31 20  1  0  0  0  0
 35 36  1  0  0  0  0
 36 28  1  0  0  0  0
 36 37  1  0  0  0  0
 39 38  1  0  0  0  0
 39 37  1  0  0  0  0
M  END
>  <MODEL>
3

>  <REMARK>
 VINA RESULT:      -8.2      2.886      5.011
  Name = 
  3 active torsions:
  status: ('A' for Active; 'I' for Inactive)
    1  A    between atoms: N_8  and  C_30
    2  A    between atoms: N_8  and  C_38
    3  A    between atoms: C_30  and  C_32
                            x       y       z     vdW  Elec       q    Type
                         _______ _______ _______ _____ _____    ______ ____

>  <TORSDO>
F 3

$$$$
=
 OpenBabel11072409233D

 39 45  0  0  1  0  0  0  0  0999 V2000
  187.5290  177.5420  146.8020 C   0  0  0  0  0  2  0  0  0  0  0  0
  189.3180  174.4450  145.3090 C   0  0  0  0  0  2  0  0  0  0  0  0
  193.1940  173.0800  140.1230 C   0  0  1  0  0  3  0  0  0  0  0  0
  192.7890  174.1020  142.2900 C   0  0  1  0  0  3  0  0  0  0  0  0
  189.8540  175.5770  143.1100 C   0  0  1  0  0  3  0  0  0  0  0  0
  193.5330  174.4610  138.0260 C   0  0  0  0  0  0  0  0  0  0  0  0
  190.8610  172.9150  141.0460 C   0  0  2  0  0  3  0  0  0  0  0  0
  186.3790  178.4200  146.2950 C   0  0  2  0  0  3  0  0  0  0  0  0
  185.8240  179.1260  147.3610 O   0  0  0  0  0  1  0  0  0  0  0  0
  194.8180  174.9510  140.0060 N   0  0  0  0  0  0  0  0  0  0  0  0
  194.5190  173.6480  140.6210 C   0  0  1  0  0  3  0  0  0  0  0  0
  190.7590  172.0220  138.9920 C   0  0  0  0  0  2  0  0  0  0  0  0
  192.1240  173.7930  140.9360 C   0  0  2  0  0  3  0  0  0  0  0  0
  194.4070  175.3200  138.8300 C   0  0  0  0  0  3  0  0  0  0  0  0
  190.7140  173.4000  143.5680 C   0  0  1  0  0  3  0  0  0  0  0  0
  190.1540  177.9190  142.8760 O   0  0  0  0  0  0  0  0  0  0  0  0
  187.3210  176.4160  144.5260 C   0  0  2  0  0  3  0  0  0  0  0  0
  187.7010  176.2340  146.0080 C   0  0  1  0  0  3  0  0  0  0  0  0
  185.3010  177.5920  145.6050 C   0  0  0  0  0  2  0  0  0  0  0  0
  189.3360  174.7260  141.9720 C   0  0  1  0  0  3  0  0  0  0  0  0
  190.1330  172.9360  139.8470 O   0  0  0  0  0  0  0  0  0  0  0  0
  188.1870  177.3490  143.8920 O   0  0  0  0  0  0  0  0  0  0  0  0
  189.1110  175.6650  146.1890 C   0  0  1  0  0  3  0  0  0  0  0  0
  185.8640  176.8800  144.3690 C   0  0  0  0  0  2  0  0  0  0  0  0
  189.4050  177.0010  143.2990 C   0  0  0  0  0  0  0  0  0  0  0  0
  189.3390  175.2600  147.6350 C   0  0  0  0  0  1  0  0  0  0  0  0
  192.2320  173.2450  143.4310 C   0  0  0  0  0  2  0  0  0  0  0  0
  194.2770  173.8060  142.1220 C   0  0  1  0  0  3  0  0  0  0  0  0
  190.3750  174.7190  144.2490 C   0  0  2  0  0  3  0  0  0  0  0  0
  193.0370  173.1590  138.5880 C   0  0  2  0  0  3  0  0  0  0  0  0
  189.9630  173.3540  142.2150 C   0  0  1  0  0  3  0  0  0  0  0  0
  191.6540  172.7830  138.0210 C   0  0  0  0  0  2  0  0  0  0  0  0
  187.8250  174.5910  142.0120 C   0  0  0  0  0  1  0  0  0  0  0  0
  193.2490  174.8040  136.8480 O   0  0  0  0  0  0  0  0  0  0  0  0
  195.8630  174.3080  143.8810 O   0  0  0  0  0  1  0  0  0  0  0  0
  195.1670  174.8600  142.8010 C   0  0  2  0  0  3  0  0  0  0  0  0
  194.4060  176.0390  143.2260 N   0  0  0  0  0  2  0  0  0  0  0  0
  193.4540  176.2660  145.3910 N   0  0  0  0  0  1  0  0  0  0  0  0
  194.6850  176.3430  144.6250 C   0  0  0  0  0  2  0  0  0  0  0  0
  2 23  1  0  0  0  0
  3 11  1  0  0  0  0
  3 13  1  0  0  0  0
  4 27  1  0  0  0  0
  5 25  1  0  0  0  0
  5 29  1  0  0  0  0
  6 30  1  0  0  0  0
  6 14  1  0  0  0  0
  7 31  1  0  0  0  0
  8  1  1  0  0  0  0
  8  9  1  0  0  0  0
 10 11  1  0  0  0  0
 11 28  1  0  0  0  0
 12 21  1  0  0  0  0
 13  7  1  0  0  0  0
 13  4  1  0  0  0  0
 14 10  2  0  0  0  0
 15 29  1  0  0  0  0
 16 25  2  0  0  0  0
 17 18  1  0  0  0  0
 18 23  1  0  0  0  0
 18  1  1  0  0  0  0
 19  8  1  0  0  0  0
 20 33  1  0  0  0  0
 20 31  1  0  0  0  0
 20  5  1  0  0  0  0
 21  7  1  0  0  0  0
 22 17  1  0  0  0  0
 23 26  1  0  0  0  0
 24 17  1  0  0  0  0
 24 19  1  0  0  0  0
 25 22  1  0  0  0  0
 27 15  1  0  0  0  0
 28  4  1  0  0  0  0
 28 36  1  0  0  0  0
 29  2  1  0  0  0  0
 30  3  1  0  0  0  0
 31 15  1  0  0  0  0
 32 30  1  0  0  0  0
 32 12  1  0  0  0  0
 34  6  2  0  0  0  0
 36 37  1  0  0  0  0
 36 35  1  0  0  0  0
 37 39  1  0  0  0  0
 39 38  1  0  0  0  0
M  END
>  <MODEL>
4

>  <REMARK>
 VINA RESULT:      -7.9      1.361      1.747
  Name = 
  3 active torsions:
  status: ('A' for Active; 'I' for Inactive)
    1  A    between atoms: N_8  and  C_30
    2  A    between atoms: N_8  and  C_38
    3  A    between atoms: C_30  and  C_32
                            x       y       z     vdW  Elec       q    Type
                         _______ _______ _______ _____ _____    ______ ____

>  <TORSDO>
F 3

$$$$
=
 OpenBabel11072409233D

 39 45  0  0  1  0  0  0  0  0999 V2000
  186.9460  177.3310  144.1540 C   0  0  0  0  0  2  0  0  0  0  0  0
  190.7250  177.3310  143.2950 C   0  0  0  0  0  2  0  0  0  0  0  0
  195.7350  173.0090  143.3300 C   0  0  1  0  0  3  0  0  0  0  0  0
  193.6460  173.8670  142.4330 C   0  0  1  0  0  3  0  0  0  0  0  0
  191.1680  175.0920  144.3870 C   0  0  1  0  0  3  0  0  0  0  0  0
  195.8680  170.7890  144.5430 C   0  0  0  0  0  0  0  0  0  0  0  0
  194.6770  174.9400  144.5450 C   0  0  2  0  0  3  0  0  0  0  0  0
  186.1810  177.1550  145.4710 C   0  0  2  0  0  3  0  0  0  0  0  0
  184.8880  177.6540  145.3320 O   0  0  0  0  0  1  0  0  0  0  0  0
  194.8020  170.9150  142.3850 N   0  0  0  0  0  0  0  0  0  0  0  0
  195.4140  172.2160  142.0680 C   0  0  1  0  0  3  0  0  0  0  0  0
  196.4530  174.3530  145.7810 C   0  0  0  0  0  2  0  0  0  0  0  0
  194.4180  173.6460  143.7470 C   0  0  2  0  0  3  0  0  0  0  0  0
  195.0190  170.2480  143.4790 C   0  0  0  0  0  3  0  0  0  0  0  0
  192.8990  176.1790  143.1580 C   0  0  1  0  0  3  0  0  0  0  0  0
  189.5320  173.3870  144.6000 O   0  0  0  0  0  0  0  0  0  0  0  0
  188.9930  176.8160  145.5800 C   0  0  2  0  0  3  0  0  0  0  0  0
  188.4560  177.5630  144.3440 C   0  0  1  0  0  3  0  0  0  0  0  0
  186.8840  177.8580  146.6270 C   0  0  0  0  0  2  0  0  0  0  0  0
  192.2970  175.2380  145.3850 C   0  0  1  0  0  3  0  0  0  0  0  0
  195.0860  174.6450  145.8530 O   0  0  0  0  0  0  0  0  0  0  0  0
  188.8530  175.4090  145.4210 O   0  0  0  0  0  0  0  0  0  0  0  0
  189.2280  177.2210  143.0670 C   0  0  1  0  0  3  0  0  0  0  0  0
  188.2770  177.2600  146.8650 C   0  0  0  0  0  2  0  0  0  0  0  0
  189.8080  174.5980  144.8000 C   0  0  0  0  0  0  0  0  0  0  0  0
  188.8410  178.1660  141.9430 C   0  0  0  0  0  1  0  0  0  0  0  0
  193.5470  175.3460  142.0480 C   0  0  0  0  0  2  0  0  0  0  0  0
  194.4120  173.1170  141.3460 C   0  0  1  0  0  3  0  0  0  0  0  0
  191.3910  175.9690  143.1690 C   0  0  2  0  0  3  0  0  0  0  0  0
  196.4490  172.1690  144.4130 C   0  0  2  0  0  3  0  0  0  0  0  0
  193.4370  175.8490  144.5720 C   0  0  1  0  0  3  0  0  0  0  0  0
  196.6380  172.8410  145.7860 C   0  0  0  0  0  2  0  0  0  0  0  0
  191.9320  176.1850  146.5120 C   0  0  0  0  0  1  0  0  0  0  0  0
  196.1440  170.0660  145.5370 O   0  0  0  0  0  0  0  0  0  0  0  0
  194.2100  171.7680  139.3460 O   0  0  0  0  0  1  0  0  0  0  0  0
  193.4800  172.3780  140.3720 C   0  0  2  0  0  3  0  0  0  0  0  0
  192.4470  173.2580  139.8170 N   0  0  0  0  0  2  0  0  0  0  0  0
  192.9580  174.6010  137.9260 N   0  0  0  0  0  1  0  0  0  0  0  0
  192.5330  173.2840  138.3620 C   0  0  0  0  0  2  0  0  0  0  0  0
  1 18  1  0  0  0  0
  1  8  1  0  0  0  0
  3 13  1  0  0  0  0
  3 30  1  0  0  0  0
  4 13  1  0  0  0  0
  5 25  1  0  0  0  0
  5 20  1  0  0  0  0
  6 34  2  0  0  0  0
  7 31  1  0  0  0  0
  7 21  1  0  0  0  0
  8 19  1  0  0  0  0
  9  8  1  0  0  0  0
 10 14  2  0  0  0  0
 11 10  1  0  0  0  0
 11  3  1  0  0  0  0
 12 32  1  0  0  0  0
 12 21  1  0  0  0  0
 13  7  1  0  0  0  0
 14  6  1  0  0  0  0
 15 29  1  0  0  0  0
 15 31  1  0  0  0  0
 16 25  2  0  0  0  0
 17 24  1  0  0  0  0
 18 17  1  0  0  0  0
 19 24  1  0  0  0  0
 20 33  1  0  0  0  0
 22 17  1  0  0  0  0
 23  2  1  0  0  0  0
 23 18  1  0  0  0  0
 25 22  1  0  0  0  0
 26 23  1  0  0  0  0
 27  4  1  0  0  0  0
 27 15  1  0  0  0  0
 28 11  1  0  0  0  0
 28  4  1  0  0  0  0
 29  2  1  0  0  0  0
 29  5  1  0  0  0  0
 30  6  1  0  0  0  0
 30 32  1  0  0  0  0
 31 20  1  0  0  0  0
 35 36  1  0  0  0  0
 36 28  1  0  0  0  0
 37 36  1  0  0  0  0
 38 39  1  0  0  0  0
 39 37  1  0  0  0  0
M  END
>  <MODEL>
5

>  <REMARK>
 VINA RESULT:      -7.6      2.510      4.890
  Name = 
  3 active torsions:
  status: ('A' for Active; 'I' for Inactive)
    1  A    between atoms: N_8  and  C_30
    2  A    between atoms: N_8  and  C_38
    3  A    between atoms: C_30  and  C_32
                            x       y       z     vdW  Elec       q    Type
                         _______ _______ _______ _____ _____    ______ ____

>  <TORSDO>
F 3

$$$$
=
 OpenBabel11072409233D

 39 45  0  0  1  0  0  0  0  0999 V2000
  186.4080  178.7500  145.0300 C   0  0  0  0  0  2  0  0  0  0  0  0
  188.2120  175.3440  145.4440 C   0  0  0  0  0  2  0  0  0  0  0  0
  193.3790  172.2030  142.7580 C   0  0  1  0  0  3  0  0  0  0  0  0
  192.4120  173.9510  144.1410 C   0  0  1  0  0  3  0  0  0  0  0  0
  189.5630  175.5850  143.3180 C   0  0  1  0  0  3  0  0  0  0  0  0
  194.5410  172.7100  140.5640 C   0  0  0  0  0  0  0  0  0  0  0  0
  190.8700  172.3610  142.8110 C   0  0  2  0  0  3  0  0  0  0  0  0
  185.5980  179.3610  143.8810 C   0  0  2  0  0  3  0  0  0  0  0  0
  184.8110  180.4040  144.3660 O   0  0  0  0  0  1  0  0  0  0  0  0
  195.1580  173.9180  142.5570 N   0  0  0  0  0  0  0  0  0  0  0  0
  194.5260  172.9330  143.4480 C   0  0  1  0  0  3  0  0  0  0  0  0
  191.3400  170.7670  141.3060 C   0  0  0  0  0  2  0  0  0  0  0  0
  192.1930  173.1520  142.8420 C   0  0  2  0  0  3  0  0  0  0  0  0
  195.1990  173.8180  141.2620 C   0  0  0  0  0  3  0  0  0  0  0  0
  189.9670  173.7470  144.7820 C   0  0  1  0  0  3  0  0  0  0  0  0
  190.1940  177.6760  142.3910 O   0  0  0  0  0  0  0  0  0  0  0  0
  186.8230  176.8560  143.3770 C   0  0  2  0  0  3  0  0  0  0  0  0
  186.6760  177.2430  144.8610 C   0  0  1  0  0  3  0  0  0  0  0  0
  184.7140  178.3210  143.2010 C   0  0  0  0  0  2  0  0  0  0  0  0
  189.3480  174.3650  142.4500 C   0  0  1  0  0  3  0  0  0  0  0  0
  190.5800  171.9250  141.5100 O   0  0  0  0  0  0  0  0  0  0  0  0
  187.9510  177.4980  142.7960 O   0  0  0  0  0  0  0  0  0  0  0  0
  187.8740  176.8010  145.7070 C   0  0  1  0  0  3  0  0  0  0  0  0
  185.5620  177.2090  142.5730 C   0  0  0  0  0  2  0  0  0  0  0  0
  189.2470  176.9710  142.8240 C   0  0  0  0  0  0  0  0  0  0  0  0
  187.5690  176.9660  147.1850 C   0  0  0  0  0  1  0  0  0  0  0  0
  191.4180  173.5720  145.2420 C   0  0  0  0  0  2  0  0  0  0  0  0
  193.8280  173.6350  144.6130 C   0  0  1  0  0  3  0  0  0  0  0  0
  189.5810  175.2190  144.7910 C   0  0  2  0  0  3  0  0  0  0  0  0
  193.7410  171.7030  141.3400 C   0  0  2  0  0  3  0  0  0  0  0  0
  189.6980  173.1900  143.3620 C   0  0  1  0  0  3  0  0  0  0  0  0
  192.5840  171.1250  140.5030 C   0  0  0  0  0  2  0  0  0  0  0  0
  187.9020  174.2350  142.0100 C   0  0  0  0  0  1  0  0  0  0  0  0
  194.6980  172.5870  139.3200 O   0  0  0  0  0  0  0  0  0  0  0  0
  194.6040  174.8830  146.5370 O   0  0  0  0  0  1  0  0  0  0  0  0
  194.5650  174.8780  145.1390 C   0  0  2  0  0  3  0  0  0  0  0  0
  193.9810  176.1240  144.6340 N   0  0  0  0  0  2  0  0  0  0  0  0
  196.1320  176.7810  143.8670 N   0  0  0  0  0  1  0  0  0  0  0  0
  194.9770  177.1900  144.6460 C   0  0  0  0  0  2  0  0  0  0  0  0
  2 23  1  0  0  0  0
  3 13  1  0  0  0  0
  3 11  1  0  0  0  0
  4 28  1  0  0  0  0
  4 27  1  0  0  0  0
  5 29  1  0  0  0  0
  6 14  1  0  0  0  0
  6 30  1  0  0  0  0
  7 13  1  0  0  0  0
  7 31  1  0  0  0  0
  8  9  1  0  0  0  0
  8  1  1  0  0  0  0
 10 11  1  0  0  0  0
 11 28  1  0  0  0  0
 12 21  1  0  0  0  0
 13  4  1  0  0  0  0
 14 10  2  0  0  0  0
 15 29  1  0  0  0  0
 15 27  1  0  0  0  0
 16 25  2  0  0  0  0
 17 18  1  0  0  0  0
 18  1  1  0  0  0  0
 18 23  1  0  0  0  0
 19  8  1  0  0  0  0
 20  5  1  0  0  0  0
 20 31  1  0  0  0  0
 21  7  1  0  0  0  0
 22 25  1  0  0  0  0
 22 17  1  0  0  0  0
 23 26  1  0  0  0  0
 24 19  1  0  0  0  0
 24 17  1  0  0  0  0
 25  5  1  0  0  0  0
 28 36  1  0  0  0  0
 29  2  1  0  0  0  0
 30  3  1  0  0  0  0
 31 15  1  0  0  0  0
 32 12  1  0  0  0  0
 32 30  1  0  0  0  0
 33 20  1  0  0  0  0
 34  6  2  0  0  0  0
 36 35  1  0  0  0  0
 37 39  1  0  0  0  0
 37 36  1  0  0  0  0
 38 39  1  0  0  0  0
M  END
>  <MODEL>
6

>  <REMARK>
 VINA RESULT:      -7.4      1.409      1.750
  Name = 
  3 active torsions:
  status: ('A' for Active; 'I' for Inactive)
    1  A    between atoms: N_8  and  C_30
    2  A    between atoms: N_8  and  C_38
    3  A    between atoms: C_30  and  C_32
                            x       y       z     vdW  Elec       q    Type
                         _______ _______ _______ _____ _____    ______ ____

>  <TORSDO>
F 3

$$$$
=
 OpenBabel11072409233D

 39 45  0  0  1  0  0  0  0  0999 V2000
  188.2220  176.9850  145.2030 C   0  0  0  0  0  2  0  0  0  0  0  0
  190.0590  173.5720  145.2180 C   0  0  0  0  0  2  0  0  0  0  0  0
  195.2750  170.8280  142.2120 C   0  0  1  0  0  3  0  0  0  0  0  0
  194.2810  172.3870  143.7880 C   0  0  1  0  0  3  0  0  0  0  0  0
  191.4210  174.0800  143.1470 C   0  0  1  0  0  3  0  0  0  0  0  0
  196.4450  171.6060  140.1030 C   0  0  0  0  0  0  0  0  0  0  0  0
  192.7640  170.9530  142.2650 C   0  0  2  0  0  3  0  0  0  0  0  0
  187.4120  177.7220  144.1300 C   0  0  2  0  0  3  0  0  0  0  0  0
  186.6120  178.6920  144.7320 O   0  0  0  0  0  1  0  0  0  0  0  0
  197.0370  172.5710  142.2320 N   0  0  0  0  0  0  0  0  0  0  0  0
  196.4100  171.4800  142.9930 C   0  0  1  0  0  3  0  0  0  0  0  0
  193.2600  169.5570  140.5820 C   0  0  0  0  0  2  0  0  0  0  0  0
  194.0790  171.7480  142.4010 C   0  0  2  0  0  3  0  0  0  0  0  0
  197.0870  172.6280  140.9340 C   0  0  0  0  0  3  0  0  0  0  0  0
  191.8350  172.0830  144.3820 C   0  0  1  0  0  3  0  0  0  0  0  0
  192.0360  176.2740  142.4830 O   0  0  0  0  0  0  0  0  0  0  0  0
  188.6670  175.3080  143.3370 C   0  0  2  0  0  3  0  0  0  0  0  0
  188.5070  175.5120  144.8560 C   0  0  1  0  0  3  0  0  0  0  0  0
  186.5440  176.7640  143.3240 C   0  0  0  0  0  2  0  0  0  0  0  0
  191.2240  172.9720  142.1360 C   0  0  1  0  0  3  0  0  0  0  0  0
  192.4870  170.6750  140.9190 O   0  0  0  0  0  0  0  0  0  0  0  0
  189.7920  176.0260  142.8460 O   0  0  0  0  0  0  0  0  0  0  0  0
  189.7040  174.9840  145.6520 C   0  0  1  0  0  3  0  0  0  0  0  0
  187.4070  175.7430  142.5720 C   0  0  0  0  0  2  0  0  0  0  0  0
  191.0930  175.5130  142.8210 C   0  0  0  0  0  0  0  0  0  0  0  0
  189.3880  174.9660  147.1370 C   0  0  0  0  0  1  0  0  0  0  0  0
  193.2850  171.8680  144.8280 C   0  0  0  0  0  2  0  0  0  0  0  0
  195.6980  172.0300  144.2290 C   0  0  1  0  0  3  0  0  0  0  0  0
  191.4330  173.5400  144.5640 C   0  0  2  0  0  3  0  0  0  0  0  0
  195.6510  170.5060  140.7470 C   0  0  2  0  0  3  0  0  0  0  0  0
  191.5800  171.6990  142.9030 C   0  0  1  0  0  3  0  0  0  0  0  0
  194.5050  170.0210  139.8370 C   0  0  0  0  0  2  0  0  0  0  0  0
  189.7820  172.8810  141.6730 C   0  0  0  0  0  1  0  0  0  0  0  0
  196.6110  171.6350  138.8550 O   0  0  0  0  0  0  0  0  0  0  0  0
  196.7850  172.8840  146.2170 O   0  0  0  0  0  1  0  0  0  0  0  0
  196.4180  173.2070  144.9060 C   0  0  2  0  0  3  0  0  0  0  0  0
  195.6180  174.4350  144.8820 N   0  0  0  0  0  2  0  0  0  0  0  0
  195.3730  176.3140  143.4490 N   0  0  0  0  0  1  0  0  0  0  0  0
  196.3280  175.4870  144.1620 C   0  0  0  0  0  2  0  0  0  0  0  0
  2 23  1  0  0  0  0
  3 13  1  0  0  0  0
  3 11  1  0  0  0  0
  4 28  1  0  0  0  0
  4 27  1  0  0  0  0
  5 29  1  0  0  0  0
  6 30  1  0  0  0  0
  6 14  1  0  0  0  0
  7 13  1  0  0  0  0
  7 31  1  0  0  0  0
  8  9  1  0  0  0  0
  8  1  1  0  0  0  0
 10 11  1  0  0  0  0
 11 28  1  0  0  0  0
 12 21  1  0  0  0  0
 13  4  1  0  0  0  0
 14 10  2  0  0  0  0
 15 29  1  0  0  0  0
 15 27  1  0  0  0  0
 16 25  2  0  0  0  0
 17 18  1  0  0  0  0
 18  1  1  0  0  0  0
 18 23  1  0  0  0  0
 19  8  1  0  0  0  0
 20 31  1  0  0  0  0
 20  5  1  0  0  0  0
 21  7  1  0  0  0  0
 22 17  1  0  0  0  0
 23 26  1  0  0  0  0
 24 19  1  0  0  0  0
 24 17  1  0  0  0  0
 25 22  1  0  0  0  0
 25  5  1  0  0  0  0
 28 36  1  0  0  0  0
 29  2  1  0  0  0  0
 30  3  1  0  0  0  0
 31 15  1  0  0  0  0
 32 12  1  0  0  0  0
 32 30  1  0  0  0  0
 33 20  1  0  0  0  0
 34  6  2  0  0  0  0
 36 35  1  0  0  0  0
 37 36  1  0  0  0  0
 38 39  1  0  0  0  0
 39 37  1  0  0  0  0
M  END
>  <MODEL>
7

>  <REMARK>
 VINA RESULT:      -7.0      2.138      2.575
  Name = 
  3 active torsions:
  status: ('A' for Active; 'I' for Inactive)
    1  A    between atoms: N_8  and  C_30
    2  A    between atoms: N_8  and  C_38
    3  A    between atoms: C_30  and  C_32
                            x       y       z     vdW  Elec       q    Type
                         _______ _______ _______ _____ _____    ______ ____

>  <TORSDO>
F 3

$$$$
=
 OpenBabel11072409233D

 39 45  0  0  1  0  0  0  0  0999 V2000
  192.3900  170.0740  138.5160 C   0  0  0  0  0  2  0  0  0  0  0  0
  192.4560  173.6750  139.9480 C   0  0  0  0  0  2  0  0  0  0  0  0
  190.1670  176.8440  145.2860 C   0  0  1  0  0  3  0  0  0  0  0  0
  191.6670  175.2680  144.2040 C   0  0  1  0  0  3  0  0  0  0  0  0
  190.6860  173.2170  141.6970 C   0  0  1  0  0  3  0  0  0  0  0  0
  188.3490  176.0930  146.8830 C   0  0  0  0  0  0  0  0  0  0  0  0
  189.8100  176.4260  142.8320 C   0  0  2  0  0  3  0  0  0  0  0  0
  191.2550  169.1880  137.9900 C   0  0  2  0  0  3  0  0  0  0  0  0
  191.7850  168.1660  137.2040 O   0  0  0  0  0  1  0  0  0  0  0  0
  190.6120  175.3240  147.1940 N   0  0  0  0  0  0  0  0  0  0  0  0
  191.1750  176.3740  146.3300 C   0  0  1  0  0  3  0  0  0  0  0  0
  188.1340  177.7760  143.4630 C   0  0  0  0  0  2  0  0  0  0  0  0
  190.2220  175.8010  144.1810 C   0  0  2  0  0  3  0  0  0  0  0  0
  189.3500  175.2020  147.4750 C   0  0  0  0  0  3  0  0  0  0  0  0
  191.8200  175.3150  141.6730 C   0  0  1  0  0  3  0  0  0  0  0  0
  190.3000  171.0780  142.6480 O   0  0  0  0  0  0  0  0  0  0  0  0
  190.5040  171.6860  139.0990 C   0  0  2  0  0  3  0  0  0  0  0  0
  191.9860  171.5490  138.6990 C   0  0  1  0  0  3  0  0  0  0  0  0
  190.2450  169.9920  137.1780 C   0  0  0  0  0  2  0  0  0  0  0  0
  189.5760  174.2370  141.5630 C   0  0  1  0  0  3  0  0  0  0  0  0
  188.4190  176.5950  142.7670 O   0  0  0  0  0  0  0  0  0  0  0  0
  190.2640  171.0790  140.3630 O   0  0  0  0  0  0  0  0  0  0  0  0
  192.9290  172.2580  139.6750 C   0  0  1  0  0  3  0  0  0  0  0  0
  189.5740  171.0640  138.0450 C   0  0  0  0  0  2  0  0  0  0  0  0
  190.4180  171.7400  141.5850 C   0  0  0  0  0  0  0  0  0  0  0  0
  194.3350  172.3200  139.1050 C   0  0  0  0  0  1  0  0  0  0  0  0
  192.4850  175.7230  142.9920 C   0  0  0  0  0  2  0  0  0  0  0  0
  192.3120  175.8140  145.4760 C   0  0  1  0  0  3  0  0  0  0  0  0
  192.0410  173.8330  141.4040 C   0  0  2  0  0  3  0  0  0  0  0  0
  188.7670  177.1270  145.8750 C   0  0  2  0  0  3  0  0  0  0  0  0
  190.2950  175.5830  141.6420 C   0  0  1  0  0  3  0  0  0  0  0  0
  187.6450  177.4210  144.8610 C   0  0  0  0  0  2  0  0  0  0  0  0
  188.8740  174.1310  140.2220 C   0  0  0  0  0  1  0  0  0  0  0  0
  187.1510  176.0150  147.2660 O   0  0  0  0  0  0  0  0  0  0  0  0
  194.5020  175.2230  146.3220 O   0  0  0  0  0  1  0  0  0  0  0  0
  193.1850  174.7690  146.1890 C   0  0  2  0  0  3  0  0  0  0  0  0
  193.1540  173.4670  145.5150 N   0  0  0  0  0  2  0  0  0  0  0  0
  194.5390  172.6290  143.7760 N   0  0  0  0  0  1  0  0  0  0  0  0
  194.5060  173.0470  145.1660 C   0  0  0  0  0  2  0  0  0  0  0  0
  1 18  1  0  0  0  0
  2 29  1  0  0  0  0
  3 30  1  0  0  0  0
  3 11  1  0  0  0  0
  4 28  1  0  0  0  0
  6 34  2  0  0  0  0
  6 14  1  0  0  0  0
  7 13  1  0  0  0  0
  8  1  1  0  0  0  0
  9  8  1  0  0  0  0
 10 14  2  0  0  0  0
 11 10  1  0  0  0  0
 12 32  1  0  0  0  0
 13  4  1  0  0  0  0
 13  3  1  0  0  0  0
 15 27  1  0  0  0  0
 17 22  1  0  0  0  0
 18 17  1  0  0  0  0
 18 23  1  0  0  0  0
 19  8  1  0  0  0  0
 19 24  1  0  0  0  0
 20 31  1  0  0  0  0
 20  5  1  0  0  0  0
 21  7  1  0  0  0  0
 21 12  1  0  0  0  0
 22 25  1  0  0  0  0
 23  2  1  0  0  0  0
 24 17  1  0  0  0  0
 25  5  1  0  0  0  0
 25 16  2  0  0  0  0
 26 23  1  0  0  0  0
 27  4  1  0  0  0  0
 28 36  1  0  0  0  0
 28 11  1  0  0  0  0
 29 15  1  0  0  0  0
 29  5  1  0  0  0  0
 30  6  1  0  0  0  0
 31 15  1  0  0  0  0
 31  7  1  0  0  0  0
 32 30  1  0  0  0  0
 33 20  1  0  0  0  0
 36 35  1  0  0  0  0
 37 36  1  0  0  0  0
 38 39  1  0  0  0  0
 39 37  1  0  0  0  0
M  END
>  <MODEL>
8

>  <REMARK>
 VINA RESULT:      -6.8      2.394      7.474
  Name = 
  3 active torsions:
  status: ('A' for Active; 'I' for Inactive)
    1  A    between atoms: N_8  and  C_30
    2  A    between atoms: N_8  and  C_38
    3  A    between atoms: C_30  and  C_32
                            x       y       z     vdW  Elec       q    Type
                         _______ _______ _______ _____ _____    ______ ____

>  <TORSDO>
F 3

$$$$
=
 OpenBabel11072409233D

 39 45  0  0  1  0  0  0  0  0999 V2000
  194.9720  170.4340  143.1470 C   0  0  0  0  0  2  0  0  0  0  0  0
  194.0370  174.1950  143.1470 C   0  0  0  0  0  2  0  0  0  0  0  0
  188.7520  177.9080  144.5800 C   0  0  1  0  0  3  0  0  0  0  0  0
  190.6060  176.4750  145.2210 C   0  0  1  0  0  3  0  0  0  0  0  0
  191.5570  173.7750  143.4140 C   0  0  1  0  0  3  0  0  0  0  0  0
  186.3390  177.1660  144.7950 C   0  0  0  0  0  0  0  0  0  0  0  0
  190.1180  176.9070  142.7210 C   0  0  2  0  0  3  0  0  0  0  0  0
  194.4810  169.2430  142.3150 C   0  0  2  0  0  3  0  0  0  0  0  0
  195.4080  168.2050  142.3910 O   0  0  0  0  0  1  0  0  0  0  0  0
  187.8310  176.9590  146.6770 N   0  0  0  0  0  0  0  0  0  0  0  0
  188.8160  177.8900  146.1030 C   0  0  1  0  0  3  0  0  0  0  0  0
  188.4350  177.9910  141.7130 C   0  0  0  0  0  2  0  0  0  0  0  0
  189.5370  176.6850  144.1320 C   0  0  2  0  0  3  0  0  0  0  0  0
  186.7020  176.6460  146.1160 C   0  0  0  0  0  3  0  0  0  0  0  0
  192.4010  176.0040  143.4930 C   0  0  1  0  0  3  0  0  0  0  0  0
  190.6560  171.8590  144.4850 O   0  0  0  0  0  0  0  0  0  0  0  0
  193.1610  171.7150  141.8940 C   0  0  2  0  0  3  0  0  0  0  0  0
  194.5360  171.7990  142.5850 C   0  0  1  0  0  3  0  0  0  0  0  0
  194.2590  169.6300  140.8580 C   0  0  0  0  0  2  0  0  0  0  0  0
  190.8070  174.4950  142.3140 C   0  0  1  0  0  3  0  0  0  0  0  0
  189.1210  176.7720  141.7450 O   0  0  0  0  0  0  0  0  0  0  0  0
  192.1470  171.3590  142.8260 O   0  0  0  0  0  0  0  0  0  0  0  0
  194.5850  172.8790  143.6700 C   0  0  1  0  0  3  0  0  0  0  0  0
  193.1710  170.7050  140.7360 C   0  0  0  0  0  2  0  0  0  0  0  0
  191.4440  172.2860  143.6020 C   0  0  0  0  0  0  0  0  0  0  0  0
  196.0140  173.1010  144.1330 C   0  0  0  0  0  1  0  0  0  0  0  0
  192.0180  176.8140  144.7360 C   0  0  0  0  0  2  0  0  0  0  0  0
  190.2380  177.4020  146.3770 C   0  0  1  0  0  3  0  0  0  0  0  0
  192.7590  174.5760  143.8790 C   0  0  2  0  0  3  0  0  0  0  0  0
  187.3110  178.0200  144.0320 C   0  0  2  0  0  3  0  0  0  0  0  0
  191.2790  175.9430  142.4260 C   0  0  1  0  0  3  0  0  0  0  0  0
  187.1430  177.8550  142.5090 C   0  0  0  0  0  2  0  0  0  0  0  0
  191.1740  173.9610  140.9420 C   0  0  0  0  0  1  0  0  0  0  0  0
  185.1900  176.9310  144.3350 O   0  0  0  0  0  0  0  0  0  0  0  0
  191.4380  177.3700  148.4800 O   0  0  0  0  0  1  0  0  0  0  0  0
  190.4270  176.7350  147.7500 C   0  0  2  0  0  3  0  0  0  0  0  0
  190.6970  175.2990  147.6360 N   0  0  0  0  0  2  0  0  0  0  0  0
  189.3160  173.7910  146.4260 N   0  0  0  0  0  1  0  0  0  0  0  0
  189.4470  174.5470  147.6580 C   0  0  0  0  0  2  0  0  0  0  0  0
  2 23  1  0  0  0  0
  2 29  1  0  0  0  0
  3 11  1  0  0  0  0
  4 28  1  0  0  0  0
  5 25  1  0  0  0  0
  5 29  1  0  0  0  0
  6 14  1  0  0  0  0
  7 13  1  0  0  0  0
  8  9  1  0  0  0  0
  8  1  1  0  0  0  0
 11 28  1  0  0  0  0
 11 10  1  0  0  0  0
 12 21  1  0  0  0  0
 12 32  1  0  0  0  0
 13  3  1  0  0  0  0
 13  4  1  0  0  0  0
 14 10  2  0  0  0  0
 15 29  1  0  0  0  0
 15 27  1  0  0  0  0
 17 18  1  0  0  0  0
 17 22  1  0  0  0  0
 18  1  1  0  0  0  0
 18 23  1  0  0  0  0
 19  8  1  0  0  0  0
 20 31  1  0  0  0  0
 20  5  1  0  0  0  0
 21  7  1  0  0  0  0
 22 25  1  0  0  0  0
 23 26  1  0  0  0  0
 24 19  1  0  0  0  0
 24 17  1  0  0  0  0
 25 16  2  0  0  0  0
 27  4  1  0  0  0  0
 28 36  1  0  0  0  0
 30  3  1  0  0  0  0
 30  6  1  0  0  0  0
 31  7  1  0  0  0  0
 31 15  1  0  0  0  0
 32 30  1  0  0  0  0
 33 20  1  0  0  0  0
 34  6  2  0  0  0  0
 36 35  1  0  0  0  0
 37 39  1  0  0  0  0
 37 36  1  0  0  0  0
 38 39  1  0  0  0  0
M  END
>  <MODEL>
9

>  <REMARK>
 VINA RESULT:      -6.3      2.770      7.760
  Name = 
  3 active torsions:
  status: ('A' for Active; 'I' for Inactive)
    1  A    between atoms: N_8  and  C_30
    2  A    between atoms: N_8  and  C_38
    3  A    between atoms: C_30  and  C_32
                            x       y       z     vdW  Elec       q    Type
                         _______ _______ _______ _____ _____    ______ ____

>  <TORSDO>
F 3

$$$$
