=
 OpenBabel11072408253D

 34 38  0  0  1  0  0  0  0  0999 V2000
  189.0160  174.5100  147.2770 C   0  0  0  0  0  1  0  0  0  0  0  0
  189.4990  175.6190  146.3440 C   0  0  1  0  0  3  0  0  0  0  0  0
  185.0150  177.7110  145.9670 C   0  0  0  0  0  2  0  0  0  0  0  0
  186.5850  178.9020  143.7450 C   0  0  2  0  0  3  0  0  0  0  0  0
  189.5070  175.9960  143.2320 O   0  0  0  0  0  0  0  0  0  0  0  0
  187.7000  177.1940  142.3800 N   0  0  0  0  0  0  0  0  0  0  0  0
  187.1950  178.1830  144.8970 C   0  0  2  0  0  3  0  0  0  0  0  0
  188.5260  177.5320  144.7900 C   0  0  2  0  0  3  0  0  0  0  0  0
  185.1640  179.4610  143.9900 C   0  0  1  0  0  3  0  0  0  0  0  0
  186.7650  178.1040  142.4730 C   0  0  0  0  0  0  0  0  0  0  0  0
  188.6050  176.8460  143.4470 C   0  0  0  0  0  0  0  0  0  0  0  0
  188.4010  176.5540  145.9210 C   0  0  0  0  0  0  0  0  0  0  0  0
  184.0610  178.4330  143.8230 C   0  0  0  0  0  2  0  0  0  0  0  0
  186.4990  177.6120  145.8580 C   0  0  2  0  0  3  0  0  0  0  0  0
  184.4120  178.9070  145.2200 C   0  0  1  0  0  3  0  0  0  0  0  0
  187.2510  176.6050  146.5140 N   0  0  0  0  0  0  0  0  0  0  0  0
  185.9550  178.3930  141.3710 O   0  0  0  0  0  0  0  0  0  0  0  0
  186.1130  177.7400  140.1190 C   0  0  0  0  0  1  0  0  0  0  0  0
  190.6690  176.2760  146.7940 O   0  0  0  0  0  0  0  0  0  0  0  0
  192.6800  174.9930  146.7150 C   0  0  0  0  0  2  0  0  0  0  0  0
  194.7740  177.6890  145.7220 C   0  0  0  0  0  1  0  0  0  0  0  0
  191.7510  175.9190  145.9700 C   0  0  2  0  0  3  0  0  0  0  0  0
  193.7770  176.6090  145.3460 C   0  0  2  0  0  3  0  0  0  0  0  0
  192.4740  177.0630  145.6040 O   0  0  0  0  0  0  0  0  0  0  0  0
  194.0360  175.3550  146.1690 C   0  0  2  0  0  3  0  0  0  0  0  0
  194.6790  174.2180  145.3390 C   0  0  0  0  0  0  0  0  0  0  0  0
  196.1020  173.9630  145.8160 C   0  0  0  0  0  1  0  0  0  0  0  0
  193.8990  172.9170  145.4840 C   0  0  0  0  0  1  0  0  0  0  0  0
  195.2890  174.2520  141.5310 N   0  0  0  0  0  2  0  0  0  0  0  0
  194.7030  174.5780  143.9220 N   0  0  0  0  0  2  0  0  0  0  0  0
  195.2840  173.7800  142.8790 C   0  0  0  0  0  0  0  0  0  0  0  0
  195.7970  172.6600  143.1420 O   0  0  0  0  0  0  0  0  0  0  0  0
  195.8650  176.6000  141.2350 C   0  0  0  0  0  1  0  0  0  0  0  0
  194.7670  175.5570  141.1540 C   0  0  0  0  0  2  0  0  0  0  0  0
  2 19  1  0  0  0  0
  2  1  1  1  0  0  0
  4 10  1  6  0  0  0
  4  9  1  0  0  0  0
  4  7  1  0  0  0  0
  5 11  2  0  0  0  0
  6 10  2  0  0  0  0
  6 11  1  0  0  0  0
  7 14  1  0  0  0  0
  8  7  1  0  0  0  0
  8 12  1  0  0  0  0
  9 15  1  0  0  0  0
 11  8  1  0  0  0  0
 12  2  1  0  0  0  0
 12 16  2  0  0  0  0
 13  9  1  0  0  0  0
 13 15  1  0  0  0  0
 14  3  1  0  0  0  0
 14 16  1  0  0  0  0
 15  3  1  0  0  0  0
 17 10  1  0  0  0  0
 18 17  1  0  0  0  0
 22 20  1  0  0  0  0
 22 19  1  0  0  0  0
 23 24  1  0  0  0  0
 23 21  1  0  0  0  0
 23 25  1  0  0  0  0
 24 22  1  0  0  0  0
 25 20  1  0  0  0  0
 26 28  1  0  0  0  0
 26 27  1  0  0  0  0
 26 25  1  0  0  0  0
 29 31  1  0  0  0  0
 30 26  1  0  0  0  0
 31 32  2  0  0  0  0
 31 30  1  0  0  0  0
 34 33  1  0  0  0  0
 34 29  1  0  0  0  0
M  END
>  <MODEL>
1

>  <REMARK>
 VINA RESULT:      -8.5      0.000      0.000
  Name = 
  7 active torsions:
  status: ('A' for Active; 'I' for Inactive)
    1  A    between atoms: O_1  and  C_17
    2  A    between atoms: N_6  and  C_25
    3  A    between atoms: C_10  and  N_12
    4  A    between atoms: C_10  and  C_31
    5  A    between atoms: C_18  and  O_27
    6  A    between atoms: C_23  and  C_32
    7  A    between atoms: O_27  and  C_32
                            x       y       z     vdW  Elec       q    Type
                         _______ _______ _______ _____ _____    ______ ____

>  <TORSDO>
F 7

$$$$
=
 OpenBabel11072408253D

 34 38  0  0  1  0  0  0  0  0999 V2000
  189.5720  173.6290  145.8190 C   0  0  0  0  0  1  0  0  0  0  0  0
  190.0340  175.0700  145.6200 C   0  0  1  0  0  3  0  0  0  0  0  0
  186.1940  177.5430  147.5610 C   0  0  0  0  0  2  0  0  0  0  0  0
  186.2930  178.4220  144.7260 C   0  0  2  0  0  3  0  0  0  0  0  0
  188.3100  175.2250  143.0060 O   0  0  0  0  0  0  0  0  0  0  0  0
  186.3840  176.5250  143.1720 N   0  0  0  0  0  0  0  0  0  0  0  0
  187.4160  177.7310  145.4190 C   0  0  2  0  0  3  0  0  0  0  0  0
  188.4310  176.9530  144.6650 C   0  0  2  0  0  3  0  0  0  0  0  0
  185.2760  179.1290  145.6540 C   0  0  1  0  0  3  0  0  0  0  0  0
  185.6980  177.5230  143.6650 C   0  0  0  0  0  0  0  0  0  0  0  0
  187.7170  176.1700  143.5890 C   0  0  0  0  0  0  0  0  0  0  0  0
  188.9240  176.0720  145.7750 C   0  0  0  0  0  0  0  0  0  0  0  0
  184.2310  178.1990  146.2410 C   0  0  0  0  0  2  0  0  0  0  0  0
  187.3570  177.2980  146.6600 C   0  0  2  0  0  3  0  0  0  0  0  0
  185.3230  178.7350  147.1460 C   0  0  1  0  0  3  0  0  0  0  0  0
  188.3080  176.2730  146.8960 N   0  0  0  0  0  0  0  0  0  0  0  0
  184.4220  177.8100  143.1730 O   0  0  0  0  0  0  0  0  0  0  0  0
  184.1910  178.1600  141.8150 C   0  0  0  0  0  1  0  0  0  0  0  0
  191.2080  175.4000  146.3380 O   0  0  0  0  0  0  0  0  0  0  0  0
  193.4010  174.5530  145.9310 C   0  0  0  0  0  2  0  0  0  0  0  0
  194.9610  177.7380  145.6750 C   0  0  0  0  0  1  0  0  0  0  0  0
  192.2960  175.4620  145.4510 C   0  0  2  0  0  3  0  0  0  0  0  0
  194.1460  176.6330  145.0300 C   0  0  2  0  0  3  0  0  0  0  0  0
  192.7980  176.7690  145.3960 O   0  0  0  0  0  0  0  0  0  0  0  0
  194.6500  175.2760  145.4980 C   0  0  2  0  0  3  0  0  0  0  0  0
  195.4390  174.5210  144.4020 C   0  0  0  0  0  0  0  0  0  0  0  0
  194.6670  174.5480  143.0900 C   0  0  0  0  0  1  0  0  0  0  0  0
  196.7980  175.1640  144.1560 C   0  0  0  0  0  1  0  0  0  0  0  0
  196.7010  171.3170  146.1390 N   0  0  0  0  0  2  0  0  0  0  0  0
  195.6590  173.1320  144.8020 N   0  0  0  0  0  2  0  0  0  0  0  0
  196.5290  172.7080  145.8630 C   0  0  0  0  0  0  0  0  0  0  0  0
  197.1500  173.5560  146.5570 O   0  0  0  0  0  0  0  0  0  0  0  0
  194.8150  169.7790  146.0530 C   0  0  0  0  0  1  0  0  0  0  0  0
  196.0630  170.2750  145.3490 C   0  0  0  0  0  2  0  0  0  0  0  0
  2 12  1  0  0  0  0
  2  1  1  1  0  0  0
  2 19  1  0  0  0  0
  4 10  1  1  0  0  0
  4  7  1  0  0  0  0
  4  9  1  0  0  0  0
  5 11  2  0  0  0  0
  6 11  1  0  0  0  0
  6 10  2  0  0  0  0
  7 14  1  0  0  0  0
  8  7  1  0  0  0  0
  8 12  1  0  0  0  0
  9 13  1  0  0  0  0
  9 15  1  0  0  0  0
 11  8  1  0  0  0  0
 12 16  2  0  0  0  0
 13 15  1  0  0  0  0
 14 16  1  0  0  0  0
 14  3  1  0  0  0  0
 15  3  1  0  0  0  0
 17 10  1  0  0  0  0
 18 17  1  0  0  0  0
 22 20  1  0  0  0  0
 22 19  1  0  0  0  0
 23 24  1  0  0  0  0
 23 25  1  0  0  0  0
 23 21  1  0  0  0  0
 24 22  1  0  0  0  0
 25 20  1  0  0  0  0
 26 30  1  0  0  0  0
 26 25  1  0  0  0  0
 27 26  1  0  0  0  0
 28 26  1  0  0  0  0
 30 31  1  0  0  0  0
 31 29  1  0  0  0  0
 31 32  2  0  0  0  0
 34 33  1  0  0  0  0
 34 29  1  0  0  0  0
M  END
>  <MODEL>
2

>  <REMARK>
 VINA RESULT:      -8.4      1.796      2.764
  Name = 
  7 active torsions:
  status: ('A' for Active; 'I' for Inactive)
    1  A    between atoms: O_1  and  C_17
    2  A    between atoms: N_6  and  C_25
    3  A    between atoms: C_10  and  N_12
    4  A    between atoms: C_10  and  C_31
    5  A    between atoms: C_18  and  O_27
    6  A    between atoms: C_23  and  C_32
    7  A    between atoms: O_27  and  C_32
                            x       y       z     vdW  Elec       q    Type
                         _______ _______ _______ _____ _____    ______ ____

>  <TORSDO>
F 7

$$$$
=
 OpenBabel11072408253D

 34 38  0  0  1  0  0  0  0  0999 V2000
  188.9340  174.5350  147.4210 C   0  0  0  0  0  1  0  0  0  0  0  0
  189.4040  175.5950  146.4280 C   0  0  1  0  0  3  0  0  0  0  0  0
  184.9470  177.7520  146.1080 C   0  0  0  0  0  2  0  0  0  0  0  0
  186.5220  178.9610  143.9000 C   0  0  2  0  0  3  0  0  0  0  0  0
  189.4040  176.0270  143.3230 O   0  0  0  0  0  0  0  0  0  0  0  0
  187.6080  177.2630  142.5000 N   0  0  0  0  0  0  0  0  0  0  0  0
  187.1280  178.2140  145.0370 C   0  0  2  0  0  3  0  0  0  0  0  0
  188.4490  177.5480  144.9110 C   0  0  2  0  0  3  0  0  0  0  0  0
  185.1090  179.5350  144.1620 C   0  0  1  0  0  3  0  0  0  0  0  0
  186.6850  178.1830  142.6130 C   0  0  0  0  0  0  0  0  0  0  0  0
  188.5130  176.8850  143.5570 C   0  0  0  0  0  0  0  0  0  0  0  0
  188.3170  176.5520  146.0260 C   0  0  0  0  0  0  0  0  0  0  0  0
  183.9930  178.5230  143.9820 C   0  0  0  0  0  2  0  0  0  0  0  0
  186.4290  177.6360  145.9910 C   0  0  2  0  0  3  0  0  0  0  0  0
  184.3560  178.9690  145.3850 C   0  0  1  0  0  3  0  0  0  0  0  0
  187.1710  176.6080  146.6250 N   0  0  0  0  0  0  0  0  0  0  0  0
  185.8750  178.5020  141.5210 O   0  0  0  0  0  0  0  0  0  0  0  0
  185.8690  177.7320  140.3270 C   0  0  0  0  0  1  0  0  0  0  0  0
  190.6160  176.2270  146.7960 O   0  0  0  0  0  0  0  0  0  0  0  0
  192.4910  174.8000  146.4210 C   0  0  0  0  0  2  0  0  0  0  0  0
  194.7760  177.4180  145.6680 C   0  0  0  0  0  1  0  0  0  0  0  0
  191.6170  175.8970  145.8660 C   0  0  2  0  0  3  0  0  0  0  0  0
  193.6650  176.4900  145.2140 C   0  0  2  0  0  3  0  0  0  0  0  0
  192.4240  177.0140  145.6110 O   0  0  0  0  0  0  0  0  0  0  0  0
  193.8460  175.1170  145.8440 C   0  0  2  0  0  3  0  0  0  0  0  0
  194.3380  174.0550  144.8320 C   0  0  0  0  0  0  0  0  0  0  0  0
  195.0770  174.7300  143.6850 C   0  0  0  0  0  1  0  0  0  0  0  0
  195.2960  173.0680  145.4870 C   0  0  0  0  0  1  0  0  0  0  0  0
  191.3410  172.8680  142.7150 N   0  0  0  0  0  2  0  0  0  0  0  0
  193.2040  173.3020  144.2970 N   0  0  0  0  0  2  0  0  0  0  0  0
  192.4610  173.6550  143.1210 C   0  0  0  0  0  0  0  0  0  0  0  0
  192.7870  174.6620  142.4380 O   0  0  0  0  0  0  0  0  0  0  0  0
  189.8170  172.1640  144.4800 C   0  0  0  0  0  1  0  0  0  0  0  0
  190.8680  171.7230  143.4780 C   0  0  0  0  0  2  0  0  0  0  0  0
  2 19  1  0  0  0  0
  2  1  1  1  0  0  0
  4 10  1  6  0  0  0
  4  9  1  0  0  0  0
  4  7  1  0  0  0  0
  5 11  2  0  0  0  0
  6 10  2  0  0  0  0
  6 11  1  0  0  0  0
  7 14  1  0  0  0  0
  8  7  1  0  0  0  0
  8 12  1  0  0  0  0
  9 15  1  0  0  0  0
 11  8  1  0  0  0  0
 12  2  1  0  0  0  0
 12 16  2  0  0  0  0
 13  9  1  0  0  0  0
 13 15  1  0  0  0  0
 14  3  1  0  0  0  0
 14 16  1  0  0  0  0
 15  3  1  0  0  0  0
 17 10  1  0  0  0  0
 18 17  1  0  0  0  0
 22 20  1  0  0  0  0
 22 19  1  0  0  0  0
 23 24  1  0  0  0  0
 23 21  1  0  0  0  0
 23 25  1  0  0  0  0
 24 22  1  0  0  0  0
 25 20  1  0  0  0  0
 26 28  1  0  0  0  0
 26 25  1  0  0  0  0
 27 26  1  0  0  0  0
 29 31  1  0  0  0  0
 29 34  1  0  0  0  0
 30 26  1  0  0  0  0
 31 30  1  0  0  0  0
 32 31  2  0  0  0  0
 34 33  1  0  0  0  0
M  END
>  <MODEL>
3

>  <REMARK>
 VINA RESULT:      -8.3      1.477      2.144
  Name = 
  7 active torsions:
  status: ('A' for Active; 'I' for Inactive)
    1  A    between atoms: O_1  and  C_17
    2  A    between atoms: N_6  and  C_25
    3  A    between atoms: C_10  and  N_12
    4  A    between atoms: C_10  and  C_31
    5  A    between atoms: C_18  and  O_27
    6  A    between atoms: C_23  and  C_32
    7  A    between atoms: O_27  and  C_32
                            x       y       z     vdW  Elec       q    Type
                         _______ _______ _______ _____ _____    ______ ____

>  <TORSDO>
F 7

$$$$
=
 OpenBabel11072408253D

 34 38  0  0  1  0  0  0  0  0999 V2000
  188.9010  174.5460  147.5530 C   0  0  0  0  0  1  0  0  0  0  0  0
  189.4520  175.6620  146.6690 C   0  0  1  0  0  3  0  0  0  0  0  0
  185.0490  177.8800  146.1150 C   0  0  0  0  0  2  0  0  0  0  0  0
  186.6550  178.8200  143.8010 C   0  0  2  0  0  3  0  0  0  0  0  0
  189.4660  175.7740  143.5360 O   0  0  0  0  0  0  0  0  0  0  0  0
  187.7010  176.9620  142.5850 N   0  0  0  0  0  0  0  0  0  0  0  0
  187.2410  178.1780  145.0100 C   0  0  2  0  0  3  0  0  0  0  0  0
  188.5470  177.4720  144.9580 C   0  0  2  0  0  3  0  0  0  0  0  0
  185.2560  179.4510  143.9970 C   0  0  1  0  0  3  0  0  0  0  0  0
  186.8010  177.9110  142.6010 C   0  0  0  0  0  0  0  0  0  0  0  0
  188.5960  176.6720  143.6780 C   0  0  0  0  0  0  0  0  0  0  0  0
  188.3890  176.5980  146.1670 C   0  0  0  0  0  0  0  0  0  0  0  0
  184.1160  178.4540  143.9180 C   0  0  0  0  0  2  0  0  0  0  0  0
  186.5270  177.7180  146.0150 C   0  0  2  0  0  3  0  0  0  0  0  0
  184.4880  179.0310  145.2690 C   0  0  1  0  0  3  0  0  0  0  0  0
  187.2440  176.7420  146.7540 N   0  0  0  0  0  0  0  0  0  0  0  0
  186.0000  178.1360  141.4780 O   0  0  0  0  0  0  0  0  0  0  0  0
  186.3330  177.6320  140.1920 C   0  0  0  0  0  1  0  0  0  0  0  0
  190.5830  176.3180  147.2130 O   0  0  0  0  0  0  0  0  0  0  0  0
  192.1800  176.6160  145.4650 C   0  0  0  0  0  2  0  0  0  0  0  0
  191.8420  173.3410  144.1230 C   0  0  0  0  0  1  0  0  0  0  0  0
  191.7520  175.7810  146.6470 C   0  0  2  0  0  3  0  0  0  0  0  0
  192.4420  174.2640  145.1660 C   0  0  2  0  0  3  0  0  0  0  0  0
  191.5130  174.4760  146.1960 O   0  0  0  0  0  0  0  0  0  0  0  0
  192.7930  175.6030  144.5340 C   0  0  2  0  0  3  0  0  0  0  0  0
  194.3170  175.7950  144.3480 C   0  0  0  0  0  0  0  0  0  0  0  0
  194.6440  175.9900  142.8740 C   0  0  0  0  0  1  0  0  0  0  0  0
  194.8170  177.0210  145.1020 C   0  0  0  0  0  1  0  0  0  0  0  0
  197.0440  173.2050  145.2020 N   0  0  0  0  0  2  0  0  0  0  0  0
  195.0390  174.6270  144.8510 N   0  0  0  0  0  2  0  0  0  0  0  0
  196.4510  174.4060  144.7080 C   0  0  0  0  0  0  0  0  0  0  0  0
  197.1780  175.2660  144.1430 O   0  0  0  0  0  0  0  0  0  0  0  0
  197.0240  170.8280  145.7370 C   0  0  0  0  0  1  0  0  0  0  0  0
  196.2660  172.1400  145.8150 C   0  0  0  0  0  2  0  0  0  0  0  0
  2 19  1  0  0  0  0
  2  1  1  1  0  0  0
  4 10  1  6  0  0  0
  4  9  1  0  0  0  0
  4  7  1  0  0  0  0
  5 11  2  0  0  0  0
  6 10  2  0  0  0  0
  6 11  1  0  0  0  0
  7 14  1  0  0  0  0
  8  7  1  0  0  0  0
  8 12  1  0  0  0  0
  9 15  1  0  0  0  0
 11  8  1  0  0  0  0
 12  2  1  0  0  0  0
 12 16  2  0  0  0  0
 13  9  1  0  0  0  0
 13 15  1  0  0  0  0
 14  3  1  0  0  0  0
 14 16  1  0  0  0  0
 15  3  1  0  0  0  0
 17 10  1  0  0  0  0
 18 17  1  0  0  0  0
 20 22  1  0  0  0  0
 21 23  1  0  0  0  0
 22 19  1  0  0  0  0
 23 24  1  0  0  0  0
 24 22  1  0  0  0  0
 25 23  1  0  0  0  0
 25 20  1  0  0  0  0
 26 25  1  0  0  0  0
 26 30  1  0  0  0  0
 26 28  1  0  0  0  0
 27 26  1  0  0  0  0
 29 34  1  0  0  0  0
 31 30  1  0  0  0  0
 31 29  1  0  0  0  0
 32 31  2  0  0  0  0
 33 34  1  0  0  0  0
M  END
>  <MODEL>
4

>  <REMARK>
 VINA RESULT:      -8.1      1.329      2.521
  Name = 
  7 active torsions:
  status: ('A' for Active; 'I' for Inactive)
    1  A    between atoms: O_1  and  C_17
    2  A    between atoms: N_6  and  C_25
    3  A    between atoms: C_10  and  N_12
    4  A    between atoms: C_10  and  C_31
    5  A    between atoms: C_18  and  O_27
    6  A    between atoms: C_23  and  C_32
    7  A    between atoms: O_27  and  C_32
                            x       y       z     vdW  Elec       q    Type
                         _______ _______ _______ _____ _____    ______ ____

>  <TORSDO>
F 7

$$$$
=
 OpenBabel11072408253D

 34 38  0  0  1  0  0  0  0  0999 V2000
  189.6460  173.8320  145.9010 C   0  0  0  0  0  1  0  0  0  0  0  0
  190.0940  175.2760  145.6880 C   0  0  1  0  0  3  0  0  0  0  0  0
  186.1650  177.7930  147.3750 C   0  0  0  0  0  2  0  0  0  0  0  0
  186.3020  178.4700  144.4870 C   0  0  2  0  0  3  0  0  0  0  0  0
  188.4210  175.2050  143.0380 O   0  0  0  0  0  0  0  0  0  0  0  0
  186.4640  176.4700  143.0750 N   0  0  0  0  0  0  0  0  0  0  0  0
  187.4250  177.8560  145.2480 C   0  0  2  0  0  3  0  0  0  0  0  0
  188.4710  177.0490  144.5710 C   0  0  2  0  0  3  0  0  0  0  0  0
  185.2520  179.2180  145.3430 C   0  0  1  0  0  3  0  0  0  0  0  0
  185.7470  177.4850  143.4830 C   0  0  0  0  0  0  0  0  0  0  0  0
  187.7960  176.1750  143.5410 C   0  0  0  0  0  0  0  0  0  0  0  0
  188.9610  176.2610  145.7500 C   0  0  0  0  0  0  0  0  0  0  0  0
  184.2150  178.3080  145.9760 C   0  0  0  0  0  2  0  0  0  0  0  0
  187.3500  177.5110  146.5160 C   0  0  2  0  0  3  0  0  0  0  0  0
  185.2760  178.9330  146.8600 C   0  0  1  0  0  3  0  0  0  0  0  0
  188.3180  176.5270  146.8420 N   0  0  0  0  0  0  0  0  0  0  0  0
  184.4750  177.7060  142.9470 O   0  0  0  0  0  0  0  0  0  0  0  0
  184.2790  178.1800  141.6230 C   0  0  0  0  0  1  0  0  0  0  0  0
  191.2190  175.6480  146.4630 O   0  0  0  0  0  0  0  0  0  0  0  0
  193.4310  174.7610  146.3530 C   0  0  0  0  0  2  0  0  0  0  0  0
  195.0300  177.8870  145.7880 C   0  0  0  0  0  1  0  0  0  0  0  0
  192.3750  175.5910  145.6660 C   0  0  2  0  0  3  0  0  0  0  0  0
  194.2610  176.7000  145.2380 C   0  0  2  0  0  3  0  0  0  0  0  0
  192.8890  176.8800  145.4720 O   0  0  0  0  0  0  0  0  0  0  0  0
  194.7160  175.4220  145.9270 C   0  0  2  0  0  3  0  0  0  0  0  0
  195.5850  174.5260  145.0110 C   0  0  0  0  0  0  0  0  0  0  0  0
  196.2810  175.3760  143.9570 C   0  0  0  0  0  1  0  0  0  0  0  0
  196.6600  173.7980  145.8080 C   0  0  0  0  0  1  0  0  0  0  0  0
  194.3000  171.6890  142.7370 N   0  0  0  0  0  2  0  0  0  0  0  0
  194.7530  173.5230  144.3480 N   0  0  0  0  0  2  0  0  0  0  0  0
  195.2130  172.5990  143.3500 C   0  0  0  0  0  0  0  0  0  0  0  0
  196.4240  172.5850  143.0040 O   0  0  0  0  0  0  0  0  0  0  0  0
  192.5790  170.6410  144.1060 C   0  0  0  0  0  1  0  0  0  0  0  0
  192.8770  171.6800  143.0420 C   0  0  0  0  0  2  0  0  0  0  0  0
  2 12  1  0  0  0  0
  2  1  1  1  0  0  0
  2 19  1  0  0  0  0
  4 10  1  1  0  0  0
  4  7  1  0  0  0  0
  4  9  1  0  0  0  0
  5 11  2  0  0  0  0
  6 10  2  0  0  0  0
  6 11  1  0  0  0  0
  7 14  1  0  0  0  0
  8  7  1  0  0  0  0
  8 12  1  0  0  0  0
  9 13  1  0  0  0  0
  9 15  1  0  0  0  0
 11  8  1  0  0  0  0
 12 16  2  0  0  0  0
 13 15  1  0  0  0  0
 14 16  1  0  0  0  0
 14  3  1  0  0  0  0
 15  3  1  0  0  0  0
 17 10  1  0  0  0  0
 18 17  1  0  0  0  0
 22 20  1  0  0  0  0
 22 19  1  0  0  0  0
 23 24  1  0  0  0  0
 23 21  1  0  0  0  0
 23 25  1  0  0  0  0
 24 22  1  0  0  0  0
 25 20  1  0  0  0  0
 26 28  1  0  0  0  0
 26 25  1  0  0  0  0
 27 26  1  0  0  0  0
 29 34  1  0  0  0  0
 29 31  1  0  0  0  0
 30 26  1  0  0  0  0
 31 30  1  0  0  0  0
 32 31  2  0  0  0  0
 34 33  1  0  0  0  0
M  END
>  <MODEL>
5

>  <REMARK>
 VINA RESULT:      -7.9      1.482      2.082
  Name = 
  7 active torsions:
  status: ('A' for Active; 'I' for Inactive)
    1  A    between atoms: O_1  and  C_17
    2  A    between atoms: N_6  and  C_25
    3  A    between atoms: C_10  and  N_12
    4  A    between atoms: C_10  and  C_31
    5  A    between atoms: C_18  and  O_27
    6  A    between atoms: C_23  and  C_32
    7  A    between atoms: O_27  and  C_32
                            x       y       z     vdW  Elec       q    Type
                         _______ _______ _______ _____ _____    ______ ____

>  <TORSDO>
F 7

$$$$
=
 OpenBabel11072408253D

 34 38  0  0  1  0  0  0  0  0999 V2000
  189.6930  173.6780  145.5820 C   0  0  0  0  0  1  0  0  0  0  0  0
  190.0430  175.0800  145.0910 C   0  0  1  0  0  3  0  0  0  0  0  0
  186.4440  177.5520  147.4480 C   0  0  0  0  0  2  0  0  0  0  0  0
  186.2780  178.4920  144.6360 C   0  0  2  0  0  3  0  0  0  0  0  0
  188.0760  175.3110  142.6620 O   0  0  0  0  0  0  0  0  0  0  0  0
  186.1920  176.6290  143.0410 N   0  0  0  0  0  0  0  0  0  0  0  0
  187.4540  177.7740  145.2010 C   0  0  2  0  0  3  0  0  0  0  0  0
  188.3800  177.0010  144.3360 C   0  0  2  0  0  3  0  0  0  0  0  0
  185.3660  179.1900  145.6730 C   0  0  1  0  0  3  0  0  0  0  0  0
  185.5700  177.6240  143.6200 C   0  0  0  0  0  0  0  0  0  0  0  0
  187.5550  176.2490  143.3190 C   0  0  0  0  0  0  0  0  0  0  0  0
  188.9680  176.0910  145.3740 C   0  0  0  0  0  0  0  0  0  0  0  0
  184.3710  178.2590  146.3400 C   0  0  0  0  0  2  0  0  0  0  0  0
  187.5100  177.3140  146.4330 C   0  0  2  0  0  3  0  0  0  0  0  0
  185.5520  178.7630  147.1450 C   0  0  1  0  0  3  0  0  0  0  0  0
  188.4660  176.2740  146.5540 N   0  0  0  0  0  0  0  0  0  0  0  0
  184.2560  177.9350  143.2600 O   0  0  0  0  0  0  0  0  0  0  0  0
  183.8950  178.2910  141.9330 C   0  0  0  0  0  1  0  0  0  0  0  0
  191.3420  175.5080  145.4570 O   0  0  0  0  0  0  0  0  0  0  0  0
  192.5660  174.3280  143.7840 C   0  0  0  0  0  2  0  0  0  0  0  0
  195.6080  176.1080  144.2590 C   0  0  0  0  0  1  0  0  0  0  0  0
  192.1230  175.6740  144.3010 C   0  0  2  0  0  3  0  0  0  0  0  0
  194.2220  176.0400  143.6450 C   0  0  2  0  0  3  0  0  0  0  0  0
  193.2670  176.4280  144.5980 O   0  0  0  0  0  0  0  0  0  0  0  0
  193.9220  174.6180  143.1950 C   0  0  2  0  0  3  0  0  0  0  0  0
  193.9640  174.4560  141.6570 C   0  0  0  0  0  0  0  0  0  0  0  0
  194.3150  175.7840  141.0010 C   0  0  0  0  0  1  0  0  0  0  0  0
  195.0140  173.4360  141.2350 C   0  0  0  0  0  1  0  0  0  0  0  0
  191.0160  173.4020  139.4040 N   0  0  0  0  0  2  0  0  0  0  0  0
  192.6650  174.0020  141.1610 N   0  0  0  0  0  2  0  0  0  0  0  0
  192.3340  173.8070  139.7780 C   0  0  0  0  0  0  0  0  0  0  0  0
  193.1990  173.9950  138.8810 O   0  0  0  0  0  0  0  0  0  0  0  0
  188.6050  173.1790  139.6680 C   0  0  0  0  0  1  0  0  0  0  0  0
  189.9470  173.2190  140.3740 C   0  0  0  0  0  2  0  0  0  0  0  0
  2 12  1  0  0  0  0
  2 19  1  0  0  0  0
  2  1  1  1  0  0  0
  4 10  1  1  0  0  0
  4  7  1  0  0  0  0
  4  9  1  0  0  0  0
  5 11  2  0  0  0  0
  6 11  1  0  0  0  0
  6 10  2  0  0  0  0
  7 14  1  0  0  0  0
  8  7  1  0  0  0  0
  8 12  1  0  0  0  0
  9 13  1  0  0  0  0
  9 15  1  0  0  0  0
 11  8  1  0  0  0  0
 12 16  2  0  0  0  0
 13 15  1  0  0  0  0
 14 16  1  0  0  0  0
 14  3  1  0  0  0  0
 15  3  1  0  0  0  0
 17 10  1  0  0  0  0
 18 17  1  0  0  0  0
 20 22  1  0  0  0  0
 22 24  1  0  0  0  0
 22 19  1  0  0  0  0
 23 21  1  0  0  0  0
 23 24  1  0  0  0  0
 25 23  1  0  0  0  0
 25 20  1  0  0  0  0
 26 25  1  0  0  0  0
 27 26  1  0  0  0  0
 28 26  1  0  0  0  0
 29 31  1  0  0  0  0
 29 34  1  0  0  0  0
 30 26  1  0  0  0  0
 31 30  1  0  0  0  0
 32 31  2  0  0  0  0
 33 34  1  0  0  0  0
M  END
>  <MODEL>
6

>  <REMARK>
 VINA RESULT:      -7.5      2.364      3.122
  Name = 
  7 active torsions:
  status: ('A' for Active; 'I' for Inactive)
    1  A    between atoms: O_1  and  C_17
    2  A    between atoms: N_6  and  C_25
    3  A    between atoms: C_10  and  N_12
    4  A    between atoms: C_10  and  C_31
    5  A    between atoms: C_18  and  O_27
    6  A    between atoms: C_23  and  C_32
    7  A    between atoms: O_27  and  C_32
                            x       y       z     vdW  Elec       q    Type
                         _______ _______ _______ _____ _____    ______ ____

>  <TORSDO>
F 7

$$$$
=
 OpenBabel11072408253D

 34 38  0  0  1  0  0  0  0  0999 V2000
  190.1950  173.6190  142.4850 C   0  0  0  0  0  1  0  0  0  0  0  0
  190.4950  174.8630  143.3180 C   0  0  1  0  0  3  0  0  0  0  0  0
  194.8700  175.9660  141.2510 C   0  0  0  0  0  2  0  0  0  0  0  0
  195.3520  176.1670  144.1740 C   0  0  2  0  0  3  0  0  0  0  0  0
  192.3050  173.7430  145.6190 O   0  0  0  0  0  0  0  0  0  0  0  0
  194.5830  174.1720  145.3790 N   0  0  0  0  0  0  0  0  0  0  0  0
  193.9970  176.1490  143.5580 C   0  0  2  0  0  3  0  0  0  0  0  0
  192.8050  175.6930  144.3180 C   0  0  2  0  0  3  0  0  0  0  0  0
  196.5030  176.5950  143.2340 C   0  0  1  0  0  3  0  0  0  0  0  0
  195.5880  174.8960  144.9610 C   0  0  0  0  0  0  0  0  0  0  0  0
  193.1980  174.4760  145.1200 C   0  0  0  0  0  0  0  0  0  0  0  0
  191.9090  175.3490  143.1650 C   0  0  0  0  0  0  0  0  0  0  0  0
  197.0150  175.4800  142.3420 C   0  0  0  0  0  2  0  0  0  0  0  0
  193.7790  176.0120  142.2670 C   0  0  2  0  0  3  0  0  0  0  0  0
  196.1890  176.5910  141.7220 C   0  0  1  0  0  3  0  0  0  0  0  0
  192.4710  175.5280  142.0120 N   0  0  0  0  0  0  0  0  0  0  0  0
  196.8980  174.5360  145.2900 O   0  0  0  0  0  0  0  0  0  0  0  0
  197.1930  173.4490  146.1560 C   0  0  0  0  0  1  0  0  0  0  0  0
  189.5220  175.8830  143.1950 O   0  0  0  0  0  0  0  0  0  0  0  0
  188.5190  177.3850  144.7550 C   0  0  0  0  0  2  0  0  0  0  0  0
  190.0630  175.9790  147.6330 C   0  0  0  0  0  1  0  0  0  0  0  0
  188.7580  175.9450  144.3720 C   0  0  2  0  0  3  0  0  0  0  0  0
  188.9600  175.9290  146.5930 C   0  0  2  0  0  3  0  0  0  0  0  0
  189.4430  175.3210  145.4240 O   0  0  0  0  0  0  0  0  0  0  0  0
  188.4960  177.3400  146.2600 C   0  0  2  0  0  3  0  0  0  0  0  0
  187.1060  177.6680  146.8560 C   0  0  0  0  0  0  0  0  0  0  0  0
  186.4600  176.4030  147.4050 C   0  0  0  0  0  1  0  0  0  0  0  0
  187.2160  178.6690  148.0000 C   0  0  0  0  0  1  0  0  0  0  0  0
  184.0810  179.0530  144.9060 N   0  0  0  0  0  2  0  0  0  0  0  0
  186.2390  178.2450  145.8290 N   0  0  0  0  0  2  0  0  0  0  0  0
  184.8420  178.5270  145.9940 C   0  0  0  0  0  0  0  0  0  0  0  0
  184.2720  178.3120  147.0970 O   0  0  0  0  0  0  0  0  0  0  0  0
  184.0780  178.2810  142.5950 C   0  0  0  0  0  1  0  0  0  0  0  0
  184.6500  179.2770  143.5860 C   0  0  0  0  0  2  0  0  0  0  0  0
  2  1  1  6  0  0  0
  3 15  1  0  0  0  0
  3 14  1  0  0  0  0
  4 10  1  6  0  0  0
  7  4  1  0  0  0  0
  7  8  1  0  0  0  0
  8 11  1  0  0  0  0
  9  4  1  0  0  0  0
 10 17  1  0  0  0  0
 10  6  2  0  0  0  0
 11  6  1  0  0  0  0
 11  5  2  0  0  0  0
 12  2  1  0  0  0  0
 12  8  1  0  0  0  0
 13  9  1  0  0  0  0
 14  7  1  0  0  0  0
 15 13  1  0  0  0  0
 15  9  1  0  0  0  0
 16 14  1  0  0  0  0
 16 12  2  0  0  0  0
 17 18  1  0  0  0  0
 19  2  1  0  0  0  0
 19 22  1  0  0  0  0
 20 25  1  0  0  0  0
 22 20  1  0  0  0  0
 22 24  1  0  0  0  0
 23 21  1  0  0  0  0
 24 23  1  0  0  0  0
 25 23  1  0  0  0  0
 25 26  1  0  0  0  0
 26 27  1  0  0  0  0
 26 28  1  0  0  0  0
 29 31  1  0  0  0  0
 30 31  1  0  0  0  0
 30 26  1  0  0  0  0
 31 32  2  0  0  0  0
 33 34  1  0  0  0  0
 34 29  1  0  0  0  0
M  END
>  <MODEL>
7

>  <REMARK>
 VINA RESULT:      -7.4      2.236      8.928
  Name = 
  7 active torsions:
  status: ('A' for Active; 'I' for Inactive)
    1  A    between atoms: O_1  and  C_17
    2  A    between atoms: N_6  and  C_25
    3  A    between atoms: C_10  and  N_12
    4  A    between atoms: C_10  and  C_31
    5  A    between atoms: C_18  and  O_27
    6  A    between atoms: C_23  and  C_32
    7  A    between atoms: O_27  and  C_32
                            x       y       z     vdW  Elec       q    Type
                         _______ _______ _______ _____ _____    ______ ____

>  <TORSDO>
F 7

$$$$
=
 OpenBabel11072408253D

 34 38  0  0  1  0  0  0  0  0999 V2000
  192.5730  176.8130  144.3470 C   0  0  0  0  0  1  0  0  0  0  0  0
  191.3750  176.3380  145.1660 C   0  0  1  0  0  3  0  0  0  0  0  0
  187.9320  178.2870  142.1710 C   0  0  0  0  0  2  0  0  0  0  0  0
  186.4100  176.5240  144.0120 C   0  0  2  0  0  3  0  0  0  0  0  0
  189.0220  176.3500  147.2360 O   0  0  0  0  0  0  0  0  0  0  0  0
  186.9480  176.9590  146.3670 N   0  0  0  0  0  0  0  0  0  0  0  0
  187.8860  176.4540  143.8310 C   0  0  2  0  0  3  0  0  0  0  0  0
  188.7740  175.9140  144.8920 C   0  0  2  0  0  3  0  0  0  0  0  0
  185.6280  177.1800  142.8490 C   0  0  1  0  0  3  0  0  0  0  0  0
  186.0740  177.0340  145.3960 C   0  0  0  0  0  0  0  0  0  0  0  0
  188.2810  176.4300  146.2220 C   0  0  0  0  0  0  0  0  0  0  0  0
  190.0610  176.5610  144.4730 C   0  0  0  0  0  0  0  0  0  0  0  0
  185.6210  178.6960  142.8920 C   0  0  0  0  0  2  0  0  0  0  0  0
  188.5690  177.2660  143.0510 C   0  0  2  0  0  3  0  0  0  0  0  0
  186.4620  177.9990  141.8400 C   0  0  1  0  0  3  0  0  0  0  0  0
  189.9320  177.3260  143.4350 N   0  0  0  0  0  0  0  0  0  0  0  0
  184.7930  177.5350  145.6420 O   0  0  0  0  0  0  0  0  0  0  0  0
  184.5610  178.6410  146.5030 C   0  0  0  0  0  1  0  0  0  0  0  0
  191.5270  175.0370  145.7010 O   0  0  0  0  0  0  0  0  0  0  0  0
  191.1620  173.0520  144.4280 C   0  0  0  0  0  2  0  0  0  0  0  0
  194.1840  171.4520  145.4050 C   0  0  0  0  0  1  0  0  0  0  0  0
  192.0980  174.1960  144.7300 C   0  0  2  0  0  3  0  0  0  0  0  0
  193.4700  172.4510  144.5150 C   0  0  2  0  0  3  0  0  0  0  0  0
  193.3030  173.6610  145.2060 O   0  0  0  0  0  0  0  0  0  0  0  0
  192.1010  171.9130  144.1240 C   0  0  2  0  0  3  0  0  0  0  0  0
  192.0390  171.4520  142.6480 C   0  0  0  0  0  0  0  0  0  0  0  0
  193.2310  172.0020  141.8780 C   0  0  0  0  0  1  0  0  0  0  0  0
  192.0760  169.9330  142.5410 C   0  0  0  0  0  1  0  0  0  0  0  0
  189.2390  172.2790  140.1290 N   0  0  0  0  0  2  0  0  0  0  0  0
  190.8030  171.9210  142.0230 N   0  0  0  0  0  2  0  0  0  0  0  0
  190.4570  171.7390  140.6420 C   0  0  0  0  0  0  0  0  0  0  0  0
  191.2240  171.1040  139.8700 O   0  0  0  0  0  0  0  0  0  0  0  0
  188.5760  174.5490  140.7130 C   0  0  0  0  0  1  0  0  0  0  0  0
  188.3270  173.0710  140.9410 C   0  0  0  0  0  2  0  0  0  0  0  0
  2  1  1  6  0  0  0
  2 19  1  0  0  0  0
  3 14  1  0  0  0  0
  4 10  1  1  0  0  0
  7  4  1  0  0  0  0
  7  8  1  0  0  0  0
  8 11  1  0  0  0  0
  9 13  1  0  0  0  0
  9  4  1  0  0  0  0
 10 17  1  0  0  0  0
 10  6  2  0  0  0  0
 11  6  1  0  0  0  0
 11  5  2  0  0  0  0
 12  8  1  0  0  0  0
 12  2  1  0  0  0  0
 14 16  1  0  0  0  0
 14  7  1  0  0  0  0
 15  3  1  0  0  0  0
 15  9  1  0  0  0  0
 15 13  1  0  0  0  0
 16 12  2  0  0  0  0
 17 18  1  0  0  0  0
 20 22  1  0  0  0  0
 22 24  1  0  0  0  0
 22 19  1  0  0  0  0
 23 24  1  0  0  0  0
 23 21  1  0  0  0  0
 25 20  1  0  0  0  0
 25 23  1  0  0  0  0
 26 25  1  0  0  0  0
 27 26  1  0  0  0  0
 28 26  1  0  0  0  0
 29 31  1  0  0  0  0
 29 34  1  0  0  0  0
 30 26  1  0  0  0  0
 31 30  1  0  0  0  0
 32 31  2  0  0  0  0
 33 34  1  0  0  0  0
M  END
>  <MODEL>
8

>  <REMARK>
 VINA RESULT:      -7.3      2.918      4.419
  Name = 
  7 active torsions:
  status: ('A' for Active; 'I' for Inactive)
    1  A    between atoms: O_1  and  C_17
    2  A    between atoms: N_6  and  C_25
    3  A    between atoms: C_10  and  N_12
    4  A    between atoms: C_10  and  C_31
    5  A    between atoms: C_18  and  O_27
    6  A    between atoms: C_23  and  C_32
    7  A    between atoms: O_27  and  C_32
                            x       y       z     vdW  Elec       q    Type
                         _______ _______ _______ _____ _____    ______ ____

>  <TORSDO>
F 7

$$$$
=
 OpenBabel11072408253D

 34 38  0  0  1  0  0  0  0  0999 V2000
  188.4410  172.9470  142.3570 C   0  0  0  0  0  1  0  0  0  0  0  0
  188.6940  174.4160  142.6890 C   0  0  1  0  0  3  0  0  0  0  0  0
  191.6280  176.3680  146.1820 C   0  0  0  0  0  2  0  0  0  0  0  0
  193.3760  174.4690  144.7140 C   0  0  2  0  0  3  0  0  0  0  0  0
  191.3780  174.2480  141.0790 O   0  0  0  0  0  0  0  0  0  0  0  0
  193.2880  174.8180  142.2860 N   0  0  0  0  0  0  0  0  0  0  0  0
  191.8890  174.4620  144.6280 C   0  0  2  0  0  3  0  0  0  0  0  0
  191.1830  173.9080  143.4450 C   0  0  2  0  0  3  0  0  0  0  0  0
  193.9640  175.1470  145.9740 C   0  0  1  0  0  3  0  0  0  0  0  0
  193.9760  174.9050  143.3950 C   0  0  0  0  0  0  0  0  0  0  0  0
  191.9280  174.3460  142.2070 C   0  0  0  0  0  0  0  0  0  0  0  0
  189.8710  174.6210  143.6000 C   0  0  0  0  0  0  0  0  0  0  0  0
  194.0460  176.6580  145.8770 C   0  0  0  0  0  2  0  0  0  0  0  0
  191.1140  175.3320  145.2400 C   0  0  2  0  0  3  0  0  0  0  0  0
  193.0000  176.0400  146.7840 C   0  0  1  0  0  3  0  0  0  0  0  0
  189.8460  175.4250  144.6140 N   0  0  0  0  0  0  0  0  0  0  0  0
  195.3010  175.3460  143.3670 O   0  0  0  0  0  0  0  0  0  0  0  0
  195.7790  176.2570  142.3870 C   0  0  0  0  0  1  0  0  0  0  0  0
  188.6880  175.2680  141.5590 O   0  0  0  0  0  0  0  0  0  0  0  0
  186.7560  176.0940  142.6900 C   0  0  0  0  0  2  0  0  0  0  0  0
  185.4110  177.8020  139.8760 C   0  0  0  0  0  1  0  0  0  0  0  0
  187.9680  176.4370  141.8590 C   0  0  2  0  0  3  0  0  0  0  0  0
  186.3850  177.7760  141.0390 C   0  0  2  0  0  3  0  0  0  0  0  0
  187.5290  177.0480  140.6770 O   0  0  0  0  0  0  0  0  0  0  0  0
  185.7370  177.1100  142.2440 C   0  0  2  0  0  3  0  0  0  0  0  0
  185.3610  178.1190  143.3550 C   0  0  0  0  0  0  0  0  0  0  0  0
  186.0650  179.4480  143.1140 C   0  0  0  0  0  1  0  0  0  0  0  0
  183.8600  178.3860  143.3760 C   0  0  0  0  0  1  0  0  0  0  0  0
  185.6430  177.4400  147.1400 N   0  0  0  0  0  2  0  0  0  0  0  0
  185.7480  177.5980  144.6650 N   0  0  0  0  0  2  0  0  0  0  0  0
  185.1540  177.9830  145.9130 C   0  0  0  0  0  0  0  0  0  0  0  0
  184.1990  178.8050  145.9400 O   0  0  0  0  0  0  0  0  0  0  0  0
  188.0730  177.3010  147.0380 C   0  0  0  0  0  1  0  0  0  0  0  0
  186.7760  176.5300  147.1990 C   0  0  0  0  0  2  0  0  0  0  0  0
  2  1  1  6  0  0  0
  2 12  1  0  0  0  0
  3 15  1  0  0  0  0
  4 10  1  6  0  0  0
  4  9  1  0  0  0  0
  5 11  2  0  0  0  0
  6 10  2  0  0  0  0
  7  4  1  0  0  0  0
  7 14  1  0  0  0  0
  8 12  1  0  0  0  0
  8  7  1  0  0  0  0
  9 15  1  0  0  0  0
 11  6  1  0  0  0  0
 11  8  1  0  0  0  0
 12 16  2  0  0  0  0
 13  9  1  0  0  0  0
 13 15  1  0  0  0  0
 14  3  1  0  0  0  0
 16 14  1  0  0  0  0
 17 10  1  0  0  0  0
 18 17  1  0  0  0  0
 19 22  1  0  0  0  0
 19  2  1  0  0  0  0
 21 23  1  0  0  0  0
 22 20  1  0  0  0  0
 23 25  1  0  0  0  0
 24 23  1  0  0  0  0
 24 22  1  0  0  0  0
 25 20  1  0  0  0  0
 25 26  1  0  0  0  0
 26 28  1  0  0  0  0
 26 30  1  0  0  0  0
 27 26  1  0  0  0  0
 29 34  1  0  0  0  0
 30 31  1  0  0  0  0
 31 32  2  0  0  0  0
 31 29  1  0  0  0  0
 33 34  1  0  0  0  0
M  END
>  <MODEL>
9

>  <REMARK>
 VINA RESULT:      -7.3      2.185      8.478
  Name = 
  7 active torsions:
  status: ('A' for Active; 'I' for Inactive)
    1  A    between atoms: O_1  and  C_17
    2  A    between atoms: N_6  and  C_25
    3  A    between atoms: C_10  and  N_12
    4  A    between atoms: C_10  and  C_31
    5  A    between atoms: C_18  and  O_27
    6  A    between atoms: C_23  and  C_32
    7  A    between atoms: O_27  and  C_32
                            x       y       z     vdW  Elec       q    Type
                         _______ _______ _______ _____ _____    ______ ____

>  <TORSDO>
F 7

$$$$
