=
 OpenBabel11072408403D

 69 78  0  0  1  0  0  0  0  0999 V2000
  186.4330  175.7590  144.6810 C   0  0  0  0  0  2  0  0  0  0  0  0
  187.0500  175.9160  136.3230 C   0  0  0  0  0  3  0  0  0  0  0  0
  188.2410  173.1620  140.9880 C   0  0  0  0  0  2  0  0  0  0  0  0
  190.0740  170.8170  141.5960 C   0  0  0  0  0  2  0  0  0  0  0  0
  187.9120  175.0400  138.5270 C   0  0  0  0  0  3  0  0  0  0  0  0
  189.6350  173.6620  140.5510 C   0  0  2  0  0  3  0  0  0  0  0  0
  190.7090  173.7280  143.1890 S   0  0  0  0  0  0  0  0  0  0  0  0
  194.8190  169.0640  140.1660 C   0  0  0  0  0  2  0  0  0  0  0  0
  189.8190  173.6430  139.0810 N   0  0  0  0  0  0  0  0  0  0  0  0
  189.0360  174.3990  138.1650 C   0  0  0  0  0  0  0  0  0  0  0  0
  189.0920  174.6070  135.6760 C   0  0  0  0  0  3  0  0  0  0  0  0
  194.2360  170.4170  135.7390 O   0  0  0  0  0  0  0  0  0  0  0  0
  185.9920  176.6280  145.8820 C   0  0  0  0  0  2  0  0  0  0  0  0
  187.9580  175.6200  142.2890 P   0  0  2  0  0  0  0  0  0  0  0  0
  190.7170  172.7820  138.4030 N   0  0  0  0  0  2  0  0  0  0  0  0
  188.7580  176.9650  144.6190 C   0  0  2  0  0  3  0  0  0  0  0  0
  188.3880  177.1850  146.0970 C   0  0  1  0  0  3  0  0  0  0  0  0
  191.9720  171.4300  140.2200 O   0  0  0  0  0  0  0  0  0  0  0  0
  194.9140  169.1990  137.6520 N   0  0  0  0  0  2  0  0  0  0  0  0
  193.6190  171.5740  135.3240 N   0  0  0  0  0  2  0  0  0  0  0  0
  188.3160  178.7730  147.8430 O   0  0  0  0  0  0  0  0  0  0  0  0
  192.1710  171.5230  135.6110 C   0  0  2  0  0  0  0  0  0  0  0  0
  192.5810  169.8570  137.4070 C   0  0  0  0  0  2  0  0  0  0  0  0
  190.5580  169.3970  141.5940 C   0  0  0  0  0  3  0  0  0  0  0  0
  189.1670  178.2390  146.8430 C   0  0  0  0  0  2  0  0  0  0  0  0
  191.5650  172.8500  136.0610 C   0  0  1  0  0  0  0  0  0  0  0  0
  187.1320  176.2250  141.1710 O   0  0  0  0  0  0  0  0  0  0  0  0
  188.3490  175.9040  135.5860 C   0  0  0  0  0  2  0  0  0  0  0  0
  187.0170  177.7270  146.2010 C   0  0  2  0  0  3  0  0  0  0  0  0
  190.3190  172.8340  136.9800 C   0  0  2  0  0  3  0  0  0  0  0  0
  186.8890  175.5860  137.6070 C   0  0  0  0  0  3  0  0  0  0  0  0
  187.0230  178.2630  147.6040 C   0  0  0  0  0  2  0  0  0  0  0  0
  192.4600  174.0770  136.0100 C   0  0  0  0  0  1  0  0  0  0  0  0
  191.6310  170.2600  136.2810 C   0  0  0  0  0  2  0  0  0  0  0  0
  187.5100  176.4730  143.8230 C   0  0  2  0  0  3  0  0  0  0  0  0
  189.9100  175.9670  144.5450 C   0  0  0  0  0  2  0  0  0  0  0  0
  191.2700  172.2960  134.6640 C   0  0  0  0  0  2  0  0  0  0  0  0
  191.7060  169.0800  140.9850 C   0  0  0  0  0  3  0  0  0  0  0  0
  191.2640  171.7640  141.3940 C   0  0  1  0  0  3  0  0  0  0  0  0
  192.5690  170.1450  140.3390 C   0  0  2  0  0  3  0  0  0  0  0  0
  190.8640  173.2570  141.4170 C   0  0  1  0  0  3  0  0  0  0  0  0
  189.4190  174.0190  136.8270 C   0  0  0  0  0  0  0  0  0  0  0  0
  194.0380  170.2690  137.1430 C   0  0  2  0  0  0  0  0  0  0  0  0
  189.6010  175.9890  142.0320 O   0  0  0  0  0  0  0  0  0  0  0  0
  194.0050  170.1630  140.8760 C   0  0  2  0  0  3  0  0  0  0  0  0
  187.7460  173.7930  142.2920 C   0  0  0  0  0  2  0  0  0  0  0  0
  194.2980  171.4970  137.7910 O   0  0  0  0  0  1  0  0  0  0  0  0
  195.5890  169.5430  138.9200 C   0  0  2  0  0  3  0  0  0  0  0  0
  190.3720  175.5290  143.1350 C   0  0  2  0  0  3  0  0  0  0  0  0
  197.0210  168.9730  138.9160 C   0  0  0  0  0  2  0  0  0  0  0  0
  197.9390  169.8540  138.1880 N   0  0  0  0  0  2  0  0  0  0  0  0
  197.6220  171.2320  137.9980 C   0  0  0  0  0  0  0  0  0  0  0  0
  197.0110  171.5730  136.9440 O   0  0  0  0  0  0  0  0  0  0  0  0
  197.9100  172.1730  138.9840 O   0  0  0  0  0  0  0  0  0  0  0  0
  197.1010  173.3310  139.1640 C   0  0  2  0  0  3  0  0  0  0  0  0
  195.8040  174.6230  137.6090 O   0  0  0  0  0  1  0  0  0  0  0  0
  197.9410  175.4800  138.1920 C   0  0  0  0  0  1  0  0  0  0  0  0
  197.1090  174.2420  137.9300 C   0  0  1  0  0  3  0  0  0  0  0  0
  197.4630  174.0210  140.3330 O   0  0  0  0  0  0  0  0  0  0  0  0
  196.3290  174.4360  140.8980 O   0  0  0  0  0  0  0  0  0  0  0  0
  197.5270  174.2880  142.8840 O   0  0  0  0  0  1  0  0  0  0  0  0
  196.6740  175.1030  142.1090 C   0  0  2  0  0  3  0  0  0  0  0  0
  194.1330  175.4320  142.2170 C   0  0  0  0  0  1  0  0  0  0  0  0
  195.4430  175.0400  144.3040 C   0  0  0  0  0  1  0  0  0  0  0  0
  195.4730  175.6590  142.9160 C   0  0  0  0  0  3  0  0  0  0  0  0
  194.6000  171.4240  140.7210 O   0  0  0  0  0  0  0  0  0  0  0  0
  194.8700  171.8560  142.0280 C   0  0  0  0  0  2  0  0  0  0  0  0
  196.0490  171.0740  142.5860 C   0  0  0  0  0  2  0  0  0  0  0  0
  196.1550  171.2740  144.0930 C   0  0  0  0  0  1  0  0  0  0  0  0
  1 13  1  0  0  0  0
  2 31  2  0  0  0  0
  3 46  1  0  0  0  0
  6  3  1  6  0  0  0
  6 41  1  0  0  0  0
  8 45  1  0  0  0  0
  9  6  1  0  0  0  0
 10  5  2  0  0  0  0
 10  9  1  0  0  0  0
 11 42  2  0  0  0  0
 12 43  1  0  0  0  0
 14 27  2  6  0  0  0
 14 46  1  0  0  0  0
 14 35  1  0  0  0  0
 15  9  1  0  0  0  0
 16 36  1  1  0  0  0
 16 17  1  0  0  0  0
 17 29  1  0  0  0  0
 17 25  1  6  0  0  0
 18 40  1  0  0  0  0
 18 39  1  0  0  0  0
 19 48  1  0  0  0  0
 20 22  1  0  0  0  0
 20 12  1  0  0  0  0
 22 37  1  6  0  0  0
 22 26  1  0  0  0  0
 22 34  1  0  0  0  0
 24  4  1  0  0  0  0
 25 21  1  0  0  0  0
 26 33  1  1  0  0  0
 26 30  1  0  0  0  0
 28 11  1  0  0  0  0
 28  2  1  0  0  0  0
 29 13  1  1  0  0  0
 29 32  1  0  0  0  0
 30 42  1  1  0  0  0
 30 15  1  0  0  0  0
 31  5  1  0  0  0  0
 32 21  1  0  0  0  0
 34 23  1  0  0  0  0
 35 16  1  0  0  0  0
 35  1  1  1  0  0  0
 37 26  1  0  0  0  0
 38 24  2  0  0  0  0
 39 41  1  0  0  0  0
 39  4  1  6  0  0  0
 40 45  1  0  0  0  0
 40 38  1  1  0  0  0
 41  7  1  1  0  0  0
 42 10  1  0  0  0  0
 43 23  1  0  0  0  0
 43 19  1  0  0  0  0
 43 47  1  1  0  0  0
 44 14  1  0  0  0  0
 44 49  1  0  0  0  0
 45 66  1  6  0  0  0
 48 50  1  6  0  0  0
 48  8  1  0  0  0  0
 49  7  1  0  0  0  0
 49 36  1  1  0  0  0
 51 50  1  0  0  0  0
 52 51  1  0  0  0  0
 52 54  1  0  0  0  0
 53 52  2  0  0  0  0
 55 54  1  6  0  0  0
 55 59  1  0  0  0  0
 56 58  1  0  0  0  0
 58 57  1  1  0  0  0
 58 55  1  0  0  0  0
 59 60  1  0  0  0  0
 60 62  1  0  0  0  0
 62 61  1  1  0  0  0
 62 65  1  0  0  0  0
 63 65  1  0  0  0  0
 65 64  1  0  0  0  0
 66 67  1  0  0  0  0
 67 68  1  0  0  0  0
 68 69  1  0  0  0  0
M  END
>  <MODEL>
1

>  <REMARK>
 VINA RESULT:      -5.4      0.000      0.000
  Name = 
  12 active torsions:
  status: ('A' for Active; 'I' for Inactive)
    1  A    between atoms: C_1  and  C_15
    2  A    between atoms: O_6  and  O_39
    3  A    between atoms: O_6  and  C_58
    4  A    between atoms: C_11  and  O_39
    5  A    between atoms: C_11  and  C_43
    6  A    between atoms: C_11  and  O_57
    7  A    between atoms: C_15  and  O_56
    8  A    between atoms: C_28  and  N_40
    9  A    between atoms: C_28  and  C_67
   10  A    between atoms: C_44  and  O_57
   11  A    between atoms: O_56  and  C_64
   12  A    between atoms: C_58  and  C_68
                            x       y       z     vdW  Elec       q    Type
                         _______ _______ _______ _____ _____    ______ ____

>  <TORSDO>
F 12

$$$$
=
 OpenBabel11072408403D

 69 78  0  0  1  0  0  0  0  0999 V2000
  190.6580  177.0090  147.1290 C   0  0  0  0  0  2  0  0  0  0  0  0
  194.4630  169.5450  146.8600 C   0  0  0  0  0  3  0  0  0  0  0  0
  194.1360  174.6400  144.6920 C   0  0  0  0  0  2  0  0  0  0  0  0
  195.2890  175.8970  142.1780 C   0  0  0  0  0  2  0  0  0  0  0  0
  193.8760  171.7020  145.6910 C   0  0  0  0  0  3  0  0  0  0  0  0
  193.5620  173.7730  143.5510 C   0  0  2  0  0  3  0  0  0  0  0  0
  191.9240  175.8400  142.4740 S   0  0  0  0  0  0  0  0  0  0  0  0
  196.1670  174.5690  137.1680 C   0  0  0  0  0  2  0  0  0  0  0  0
  194.2480  172.4670  143.4170 N   0  0  0  0  0  0  0  0  0  0  0  0
  194.2820  171.4710  144.4320 C   0  0  0  0  0  0  0  0  0  0  0  0
  195.3160  169.1980  144.5240 C   0  0  0  0  0  3  0  0  0  0  0  0
  197.3750  170.2050  138.2990 O   0  0  0  0  0  0  0  0  0  0  0  0
  189.4680  177.7410  147.7910 C   0  0  0  0  0  2  0  0  0  0  0  0
  191.5370  174.7060  145.7170 P   0  0  2  0  0  0  0  0  0  0  0  0
  195.0540  172.1020  142.3090 N   0  0  0  0  0  2  0  0  0  0  0  0
  189.0640  175.9740  145.3260 C   0  0  2  0  0  3  0  0  0  0  0  0
  188.2550  177.2300  145.7010 C   0  0  1  0  0  3  0  0  0  0  0  0
  194.9450  174.0670  140.6260 O   0  0  0  0  0  0  0  0  0  0  0  0
  197.2630  172.3000  137.2010 N   0  0  0  0  0  2  0  0  0  0  0  0
  196.7850  169.4320  139.2710 N   0  0  0  0  0  2  0  0  0  0  0  0
  186.1020  178.0400  146.2310 O   0  0  0  0  0  0  0  0  0  0  0  0
  197.0760  169.9750  140.6130 C   0  0  2  0  0  0  0  0  0  0  0  0
  197.4650  172.2200  139.6280 C   0  0  0  0  0  2  0  0  0  0  0  0
  196.3370  176.4510  141.2580 C   0  0  0  0  0  3  0  0  0  0  0  0
  186.8070  177.2550  145.2840 C   0  0  0  0  0  2  0  0  0  0  0  0
  195.9190  169.8740  141.6040 C   0  0  1  0  0  0  0  0  0  0  0  0
  191.8060  173.6100  146.7300 O   0  0  0  0  0  0  0  0  0  0  0  0
  194.4850  168.6670  145.6520 C   0  0  0  0  0  2  0  0  0  0  0  0
  188.1240  177.3280  147.1700 C   0  0  2  0  0  3  0  0  0  0  0  0
  195.8160  170.9130  142.7480 C   0  0  2  0  0  3  0  0  0  0  0  0
  194.1500  170.8430  146.8640 C   0  0  0  0  0  3  0  0  0  0  0  0
  186.9900  178.3040  147.2940 C   0  0  0  0  0  2  0  0  0  0  0  0
  194.6860  169.1050  141.1590 C   0  0  0  0  0  1  0  0  0  0  0  0
  197.9400  171.2330  140.6920 C   0  0  0  0  0  2  0  0  0  0  0  0
  190.1980  175.7370  146.3710 C   0  0  2  0  0  3  0  0  0  0  0  0
  189.6170  176.1500  143.9150 C   0  0  0  0  0  2  0  0  0  0  0  0
  197.1420  168.9650  141.7470 C   0  0  0  0  0  2  0  0  0  0  0  0
  196.5890  175.8520  140.0900 C   0  0  0  0  0  3  0  0  0  0  0  0
  194.2830  175.0690  141.3680 C   0  0  1  0  0  3  0  0  0  0  0  0
  195.7910  174.6450  139.6400 C   0  0  2  0  0  3  0  0  0  0  0  0
  193.1420  174.4830  142.2310 C   0  0  1  0  0  3  0  0  0  0  0  0
  195.1510  170.4080  143.9880 C   0  0  0  0  0  0  0  0  0  0  0  0
  196.8620  171.5330  138.3930 C   0  0  2  0  0  0  0  0  0  0  0  0
  190.9160  174.0100  144.2940 O   0  0  0  0  0  0  0  0  0  0  0  0
  195.1270  174.8380  138.2730 C   0  0  2  0  0  3  0  0  0  0  0  0
  193.1060  175.5800  145.3240 C   0  0  0  0  0  2  0  0  0  0  0  0
  195.4560  171.4900  138.5260 O   0  0  0  0  0  1  0  0  0  0  0  0
  196.1750  173.1230  136.6350 C   0  0  2  0  0  3  0  0  0  0  0  0
  190.5480  175.0360  143.3800 C   0  0  2  0  0  3  0  0  0  0  0  0
  196.2640  173.1130  135.0960 C   0  0  0  0  0  2  0  0  0  0  0  0
  195.2470  172.2340  134.5130 N   0  0  0  0  0  2  0  0  0  0  0  0
  194.5900  171.2540  135.3150 C   0  0  0  0  0  0  0  0  0  0  0  0
  195.0740  170.0860  135.3610 O   0  0  0  0  0  0  0  0  0  0  0  0
  193.4840  171.5920  136.0930 O   0  0  0  0  0  0  0  0  0  0  0  0
  192.3500  170.7350  136.1820 C   0  0  2  0  0  3  0  0  0  0  0  0
  192.0040  168.9050  134.6660 O   0  0  0  0  0  1  0  0  0  0  0  0
  190.3920  170.6490  134.6250 C   0  0  0  0  0  1  0  0  0  0  0  0
  191.8510  170.2860  134.8020 C   0  0  1  0  0  3  0  0  0  0  0  0
  191.3310  171.3280  136.9460 O   0  0  0  0  0  0  0  0  0  0  0  0
  191.6580  171.1480  138.2250 O   0  0  0  0  0  0  0  0  0  0  0  0
  189.5810  172.0200  138.7980 O   0  0  0  0  0  1  0  0  0  0  0  0
  190.4510  170.9190  138.9480 C   0  0  2  0  0  3  0  0  0  0  0  0
  190.7330  168.9810  140.6040 C   0  0  0  0  0  1  0  0  0  0  0  0
  191.8840  171.1580  141.0040 C   0  0  0  0  0  1  0  0  0  0  0  0
  190.6420  170.4970  140.4270 C   0  0  0  0  0  3  0  0  0  0  0  0
  193.9980  174.0180  138.1250 O   0  0  0  0  0  0  0  0  0  0  0  0
  192.9190  174.9090  138.0270 C   0  0  0  0  0  2  0  0  0  0  0  0
  192.1140  174.5930  136.7770 C   0  0  0  0  0  2  0  0  0  0  0  0
  192.9140  174.9380  135.5260 C   0  0  0  0  0  1  0  0  0  0  0  0
  1 13  1  0  0  0  0
  2 31  2  0  0  0  0
  3 46  1  0  0  0  0
  5 31  1  0  0  0  0
  6  3  1  6  0  0  0
  7 49  1  0  0  0  0
  8 45  1  0  0  0  0
  9  6  1  0  0  0  0
  9 10  1  0  0  0  0
 10  5  2  0  0  0  0
 11 28  1  0  0  0  0
 12 43  1  0  0  0  0
 12 20  1  0  0  0  0
 14 35  1  0  0  0  0
 14 27  2  1  0  0  0
 15  9  1  0  0  0  0
 16 36  1  6  0  0  0
 16 17  1  0  0  0  0
 16 35  1  0  0  0  0
 17 25  1  6  0  0  0
 17 29  1  0  0  0  0
 18 39  1  0  0  0  0
 19 43  1  0  0  0  0
 20 22  1  0  0  0  0
 21 32  1  0  0  0  0
 22 34  1  1  0  0  0
 22 26  1  0  0  0  0
 22 37  1  0  0  0  0
 23 34  1  0  0  0  0
 24  4  1  0  0  0  0
 25 21  1  0  0  0  0
 26 33  1  6  0  0  0
 26 37  1  0  0  0  0
 26 30  1  0  0  0  0
 28  2  1  0  0  0  0
 29 32  1  6  0  0  0
 29 13  1  0  0  0  0
 30 15  1  6  0  0  0
 30 42  1  0  0  0  0
 35  1  1  6  0  0  0
 38 24  2  0  0  0  0
 39  4  1  1  0  0  0
 39 41  1  0  0  0  0
 40 38  1  1  0  0  0
 40 18  1  0  0  0  0
 41  7  1  1  0  0  0
 41  6  1  0  0  0  0
 42 10  1  0  0  0  0
 42 11  2  0  0  0  0
 43 47  1  1  0  0  0
 43 23  1  0  0  0  0
 44 14  1  0  0  0  0
 45 66  1  6  0  0  0
 45 40  1  0  0  0  0
 46 14  1  0  0  0  0
 48 50  1  6  0  0  0
 48  8  1  0  0  0  0
 48 19  1  0  0  0  0
 49 36  1  1  0  0  0
 49 44  1  0  0  0  0
 51 50  1  0  0  0  0
 51 52  1  0  0  0  0
 52 53  2  0  0  0  0
 52 54  1  0  0  0  0
 55 54  1  6  0  0  0
 55 59  1  0  0  0  0
 56 58  1  0  0  0  0
 58 57  1  1  0  0  0
 58 55  1  0  0  0  0
 59 60  1  0  0  0  0
 60 62  1  0  0  0  0
 62 61  1  1  0  0  0
 62 65  1  0  0  0  0
 65 63  1  0  0  0  0
 65 64  1  0  0  0  0
 67 66  1  0  0  0  0
 68 67  1  0  0  0  0
 69 68  1  0  0  0  0
M  END
>  <MODEL>
2

>  <REMARK>
 VINA RESULT:      -4.7      2.551      6.776
  Name = 
  12 active torsions:
  status: ('A' for Active; 'I' for Inactive)
    1  A    between atoms: C_1  and  C_15
    2  A    between atoms: O_6  and  O_39
    3  A    between atoms: O_6  and  C_58
    4  A    between atoms: C_11  and  O_39
    5  A    between atoms: C_11  and  C_43
    6  A    between atoms: C_11  and  O_57
    7  A    between atoms: C_15  and  O_56
    8  A    between atoms: C_28  and  N_40
    9  A    between atoms: C_28  and  C_67
   10  A    between atoms: C_44  and  O_57
   11  A    between atoms: O_56  and  C_64
   12  A    between atoms: C_58  and  C_68
                            x       y       z     vdW  Elec       q    Type
                         _______ _______ _______ _____ _____    ______ ____

>  <TORSDO>
F 12

$$$$
=
 OpenBabel11072408403D

 69 78  0  0  1  0  0  0  0  0999 V2000
  196.7670  168.7820  139.1400 C   0  0  0  0  0  2  0  0  0  0  0  0
  197.7160  174.0750  145.5700 C   0  0  0  0  0  3  0  0  0  0  0  0
  194.1720  171.0240  142.5880 C   0  0  0  0  0  2  0  0  0  0  0  0
  191.1390  170.9250  142.4450 C   0  0  0  0  0  2  0  0  0  0  0  0
  196.1910  173.0270  143.8560 C   0  0  0  0  0  3  0  0  0  0  0  0
  193.7750  172.4600  142.1790 C   0  0  2  0  0  3  0  0  0  0  0  0
  192.7940  171.7200  139.6090 S   0  0  0  0  0  0  0  0  0  0  0  0
  187.0880  174.2740  142.5580 C   0  0  0  0  0  2  0  0  0  0  0  0
  193.8600  173.4230  143.3010 N   0  0  0  0  0  0  0  0  0  0  0  0
  195.0590  173.7350  144.0020 C   0  0  0  0  0  0  0  0  0  0  0  0
  195.5440  175.2930  145.8940 C   0  0  0  0  0  3  0  0  0  0  0  0
  189.1350  176.9990  145.7450 O   0  0  0  0  0  0  0  0  0  0  0  0
  197.5410  168.1660  137.9520 C   0  0  0  0  0  2  0  0  0  0  0  0
  196.0740  171.1520  140.5440 P   0  0  2  0  0  0  0  0  0  0  0  0
  192.7390  174.0600  143.8900 N   0  0  0  0  0  2  0  0  0  0  0  0
  196.3010  170.9560  137.7540 C   0  0  2  0  0  3  0  0  0  0  0  0
  196.4860  169.9470  136.6060 C   0  0  1  0  0  3  0  0  0  0  0  0
  190.6580  173.2980  142.5480 O   0  0  0  0  0  0  0  0  0  0  0  0
  187.4970  175.8410  144.4880 N   0  0  0  0  0  2  0  0  0  0  0  0
  190.4730  177.3140  145.7970 N   0  0  0  0  0  2  0  0  0  0  0  0
  197.5170  169.5860  134.5130 O   0  0  0  0  0  0  0  0  0  0  0  0
  191.2730  176.1220  146.1450 C   0  0  2  0  0  0  0  0  0  0  0  0
  189.4660  174.6510  145.2880 C   0  0  0  0  0  2  0  0  0  0  0  0
  189.7360  170.6440  142.8990 C   0  0  0  0  0  3  0  0  0  0  0  0
  196.7260  170.5180  135.2310 C   0  0  0  0  0  2  0  0  0  0  0  0
  192.6120  176.0220  145.4210 C   0  0  1  0  0  0  0  0  0  0  0  0
  197.2100  171.4850  141.4920 O   0  0  0  0  0  0  0  0  0  0  0  0
  197.0220  175.3940  145.6700 C   0  0  0  0  0  2  0  0  0  0  0  0
  197.7290  169.1720  136.8060 C   0  0  2  0  0  3  0  0  0  0  0  0
  193.2270  174.6230  145.1670 C   0  0  2  0  0  3  0  0  0  0  0  0
  197.3720  173.0830  144.7460 C   0  0  0  0  0  3  0  0  0  0  0  0
  197.9410  168.6050  135.4320 C   0  0  0  0  0  2  0  0  0  0  0  0
  193.0330  177.2060  144.5660 C   0  0  0  0  0  1  0  0  0  0  0  0
  190.5200  174.8130  146.3810 C   0  0  0  0  0  2  0  0  0  0  0  0
  196.7920  170.3320  139.0970 C   0  0  2  0  0  3  0  0  0  0  0  0
  194.8320  171.3630  137.8180 C   0  0  0  0  0  2  0  0  0  0  0  0
  192.5610  176.3780  146.9090 C   0  0  0  0  0  2  0  0  0  0  0  0
  188.8780  171.6510  143.0900 C   0  0  0  0  0  3  0  0  0  0  0  0
  191.1820  172.2790  141.7250 C   0  0  1  0  0  3  0  0  0  0  0  0
  189.2760  173.0850  142.8000 C   0  0  2  0  0  3  0  0  0  0  0  0
  192.5870  172.6390  141.1900 C   0  0  1  0  0  3  0  0  0  0  0  0
  194.7210  174.6030  145.1040 C   0  0  0  0  0  0  0  0  0  0  0  0
  188.9370  175.9920  144.7550 C   0  0  2  0  0  0  0  0  0  0  0  0
  195.3990  172.5990  139.9540 O   0  0  0  0  0  0  0  0  0  0  0  0
  188.3390  173.7800  141.8060 C   0  0  2  0  0  3  0  0  0  0  0  0
  194.7770  170.2080  141.4430 C   0  0  0  0  0  2  0  0  0  0  0  0
  189.6440  176.3350  143.5800 O   0  0  0  0  0  1  0  0  0  0  0  0
  187.1720  175.7310  143.0510 C   0  0  2  0  0  3  0  0  0  0  0  0
  194.4120  172.3010  138.9730 C   0  0  2  0  0  3  0  0  0  0  0  0
  185.8550  176.4790  142.7590 C   0  0  0  0  0  2  0  0  0  0  0  0
  186.0900  177.6540  141.9150 N   0  0  0  0  0  2  0  0  0  0  0  0
  185.1520  178.0180  140.9040 C   0  0  0  0  0  0  0  0  0  0  0  0
  185.3200  177.5740  139.7320 O   0  0  0  0  0  0  0  0  0  0  0  0
  184.0300  178.7850  141.2140 O   0  0  0  0  0  0  0  0  0  0  0  0
  182.9370  178.2390  141.9460 C   0  0  2  0  0  3  0  0  0  0  0  0
  181.1570  179.6220  141.1190 O   0  0  0  0  0  1  0  0  0  0  0  0
  181.8220  177.8000  139.7480 C   0  0  0  0  0  1  0  0  0  0  0  0
  181.6210  178.3050  141.1610 C   0  0  1  0  0  3  0  0  0  0  0  0
  182.8290  178.8410  143.2110 O   0  0  0  0  0  0  0  0  0  0  0  0
  183.7910  178.3150  143.9680 O   0  0  0  0  0  0  0  0  0  0  0  0
  184.5610  180.4440  144.4930 O   0  0  0  0  0  1  0  0  0  0  0  0
  184.0590  179.2360  145.0220 C   0  0  2  0  0  3  0  0  0  0  0  0
  184.9910  177.1490  146.1850 C   0  0  0  0  0  1  0  0  0  0  0  0
  186.3320  179.2510  146.1040 C   0  0  0  0  0  1  0  0  0  0  0  0
  184.9270  178.6760  146.1780 C   0  0  0  0  0  3  0  0  0  0  0  0
  188.9820  174.8310  141.1350 O   0  0  0  0  0  0  0  0  0  0  0  0
  188.5470  174.7270  139.8060 C   0  0  0  0  0  2  0  0  0  0  0  0
  189.4020  173.7080  139.0710 C   0  0  0  0  0  2  0  0  0  0  0  0
  188.6750  173.1980  137.8320 C   0  0  0  0  0  1  0  0  0  0  0  0
  2 28  1  0  0  0  0
  4 24  1  0  0  0  0
  5 10  2  0  0  0  0
  5 31  1  0  0  0  0
  6  3  1  1  0  0  0
  6  9  1  0  0  0  0
  8 48  1  0  0  0  0
  9 15  1  0  0  0  0
  9 10  1  0  0  0  0
 10 42  1  0  0  0  0
 12 20  1  0  0  0  0
 13  1  1  0  0  0  0
 14 46  1  0  0  0  0
 14 27  2  1  0  0  0
 16 36  1  1  0  0  0
 16 35  1  0  0  0  0
 17 25  1  6  0  0  0
 17 29  1  0  0  0  0
 17 16  1  0  0  0  0
 18 40  1  0  0  0  0
 19 43  1  0  0  0  0
 20 22  1  0  0  0  0
 21 25  1  0  0  0  0
 21 32  1  0  0  0  0
 22 34  1  1  0  0  0
 22 37  1  0  0  0  0
 23 34  1  0  0  0  0
 24 38  2  0  0  0  0
 26 33  1  6  0  0  0
 26 22  1  0  0  0  0
 26 37  1  0  0  0  0
 28 11  1  0  0  0  0
 29 32  1  6  0  0  0
 29 13  1  0  0  0  0
 30 15  1  6  0  0  0
 30 26  1  0  0  0  0
 31  2  2  0  0  0  0
 35  1  1  6  0  0  0
 35 14  1  0  0  0  0
 39  4  1  1  0  0  0
 39 18  1  0  0  0  0
 40 38  1  6  0  0  0
 41  7  1  6  0  0  0
 41 39  1  0  0  0  0
 41  6  1  0  0  0  0
 42 30  1  0  0  0  0
 42 11  2  0  0  0  0
 43 47  1  6  0  0  0
 43 23  1  0  0  0  0
 43 12  1  0  0  0  0
 44 14  1  0  0  0  0
 45 66  1  1  0  0  0
 45  8  1  0  0  0  0
 45 40  1  0  0  0  0
 46  3  1  0  0  0  0
 48 50  1  1  0  0  0
 48 19  1  0  0  0  0
 49 36  1  6  0  0  0
 49  7  1  0  0  0  0
 49 44  1  0  0  0  0
 51 50  1  0  0  0  0
 52 54  1  0  0  0  0
 52 51  1  0  0  0  0
 53 52  2  0  0  0  0
 55 54  1  6  0  0  0
 55 59  1  0  0  0  0
 56 58  1  0  0  0  0
 58 57  1  6  0  0  0
 58 55  1  0  0  0  0
 59 60  1  0  0  0  0
 60 62  1  0  0  0  0
 62 61  1  6  0  0  0
 62 65  1  0  0  0  0
 64 65  1  0  0  0  0
 65 63  1  0  0  0  0
 67 66  1  0  0  0  0
 68 67  1  0  0  0  0
 69 68  1  0  0  0  0
M  END
>  <MODEL>
3

>  <REMARK>
 VINA RESULT:      -4.6      3.404     11.429
  Name = 
  12 active torsions:
  status: ('A' for Active; 'I' for Inactive)
    1  A    between atoms: C_1  and  C_15
    2  A    between atoms: O_6  and  O_39
    3  A    between atoms: O_6  and  C_58
    4  A    between atoms: C_11  and  O_39
    5  A    between atoms: C_11  and  C_43
    6  A    between atoms: C_11  and  O_57
    7  A    between atoms: C_15  and  O_56
    8  A    between atoms: C_28  and  N_40
    9  A    between atoms: C_28  and  C_67
   10  A    between atoms: C_44  and  O_57
   11  A    between atoms: O_56  and  C_64
   12  A    between atoms: C_58  and  C_68
                            x       y       z     vdW  Elec       q    Type
                         _______ _______ _______ _____ _____    ______ ____

>  <TORSDO>
F 12

$$$$
=
 OpenBabel11072408403D

 69 78  0  0  1  0  0  0  0  0999 V2000
  195.5940  170.6630  138.8380 C   0  0  0  0  0  2  0  0  0  0  0  0
  195.6200  174.5560  146.2610 C   0  0  0  0  0  3  0  0  0  0  0  0
  192.5300  172.4550  142.1620 C   0  0  0  0  0  2  0  0  0  0  0  0
  189.5770  172.6660  141.4800 C   0  0  0  0  0  2  0  0  0  0  0  0
  194.3860  173.9910  144.1340 C   0  0  0  0  0  3  0  0  0  0  0  0
  192.3000  173.9720  141.9860 C   0  0  2  0  0  3  0  0  0  0  0  0
  191.7780  173.8170  139.1900 S   0  0  0  0  0  0  0  0  0  0  0  0
  185.7750  176.2950  141.5570 C   0  0  0  0  0  2  0  0  0  0  0  0
  192.2280  174.6970  143.2750 N   0  0  0  0  0  0  0  0  0  0  0  0
  193.2890  174.7610  144.2210 C   0  0  0  0  0  0  0  0  0  0  0  0
  193.4990  175.8880  146.4410 C   0  0  0  0  0  3  0  0  0  0  0  0
  187.3400  178.1790  145.5290 O   0  0  0  0  0  0  0  0  0  0  0  0
  196.5400  170.2090  137.7030 C   0  0  0  0  0  2  0  0  0  0  0  0
  194.7860  172.7840  140.5460 P   0  0  2  0  0  0  0  0  0  0  0  0
  191.0540  175.3150  143.7760 N   0  0  0  0  0  2  0  0  0  0  0  0
  195.5210  173.0900  137.8550 C   0  0  2  0  0  3  0  0  0  0  0  0
  195.8600  172.2990  136.5770 C   0  0  1  0  0  3  0  0  0  0  0  0
  189.2230  175.0120  141.9700 O   0  0  0  0  0  0  0  0  0  0  0  0
  185.9030  177.4320  143.8020 N   0  0  0  0  0  2  0  0  0  0  0  0
  188.6600  178.3520  145.8730 N   0  0  0  0  0  2  0  0  0  0  0  0
  197.2440  172.2400  134.6660 O   0  0  0  0  0  0  0  0  0  0  0  0
  189.3110  177.0480  146.1100 C   0  0  2  0  0  0  0  0  0  0  0  0
  187.6160  175.9360  144.6770 C   0  0  0  0  0  2  0  0  0  0  0  0
  188.1010  172.4360  141.6180 C   0  0  0  0  0  3  0  0  0  0  0  0
  196.3870  173.0910  135.4080 C   0  0  0  0  0  2  0  0  0  0  0  0
  190.7550  176.9610  145.6230 C   0  0  1  0  0  0  0  0  0  0  0  0
  195.7410  172.8270  141.7230 O   0  0  0  0  0  0  0  0  0  0  0  0
  194.9960  175.8910  146.5010 C   0  0  0  0  0  2  0  0  0  0  0  0
  196.9970  171.3890  136.8310 C   0  0  2  0  0  3  0  0  0  0  0  0
  191.3250  175.5830  145.2050 C   0  0  2  0  0  3  0  0  0  0  0  0
  195.3800  173.7700  145.2080 C   0  0  0  0  0  3  0  0  0  0  0  0
  197.4310  171.0700  135.4300 C   0  0  0  0  0  2  0  0  0  0  0  0
  191.3950  178.2390  145.1080 C   0  0  0  0  0  1  0  0  0  0  0  0
  188.4540  175.7930  145.9460 C   0  0  0  0  0  2  0  0  0  0  0  0
  195.7150  172.1840  139.1110 C   0  0  2  0  0  3  0  0  0  0  0  0
  194.0920  173.6120  137.7440 C   0  0  0  0  0  2  0  0  0  0  0  0
  190.4460  177.0360  147.1210 C   0  0  0  0  0  2  0  0  0  0  0  0
  187.2810  173.4650  141.8550 C   0  0  0  0  0  3  0  0  0  0  0  0
  189.8320  174.1200  141.0630 C   0  0  1  0  0  3  0  0  0  0  0  0
  187.8070  174.8850  141.9310 C   0  0  2  0  0  3  0  0  0  0  0  0
  191.3310  174.4410  140.8620 C   0  0  1  0  0  3  0  0  0  0  0  0
  192.8010  175.4360  145.3990 C   0  0  0  0  0  0  0  0  0  0  0  0
  187.2740  177.3960  144.3390 C   0  0  2  0  0  0  0  0  0  0  0  0
  194.3180  174.3720  140.1480 O   0  0  0  0  0  0  0  0  0  0  0  0
  187.1150  175.8360  140.9490 C   0  0  2  0  0  3  0  0  0  0  0  0
  193.2920  171.8130  141.0000 C   0  0  0  0  0  2  0  0  0  0  0  0
  188.2080  177.8840  143.3970 O   0  0  0  0  0  1  0  0  0  0  0  0
  185.8480  177.6220  142.3380 C   0  0  2  0  0  3  0  0  0  0  0  0
  193.5170  174.3540  138.9720 C   0  0  2  0  0  3  0  0  0  0  0  0
  184.6550  178.5290  141.9780 C   0  0  0  0  0  2  0  0  0  0  0  0
  183.3910  177.9510  142.4450 N   0  0  0  0  0  2  0  0  0  0  0  0
  182.1830  178.7060  142.3830 C   0  0  0  0  0  0  0  0  0  0  0  0
  181.8420  179.3890  143.3910 O   0  0  0  0  0  0  0  0  0  0  0  0
  181.4300  178.7540  141.2100 O   0  0  0  0  0  0  0  0  0  0  0  0
  180.2210  179.5010  141.1340 C   0  0  2  0  0  3  0  0  0  0  0  0
  179.2350  177.4950  140.2570 O   0  0  0  0  0  1  0  0  0  0  0  0
  178.6140  178.1170  142.4640 C   0  0  0  0  0  1  0  0  0  0  0  0
  178.9820  178.5980  141.0760 C   0  0  1  0  0  3  0  0  0  0  0  0
  180.2600  180.4130  140.0660 O   0  0  0  0  0  0  0  0  0  0  0  0
  179.5130  181.4560  140.4270 O   0  0  0  0  0  0  0  0  0  0  0  0
  178.7020  180.9180  138.3160 O   0  0  0  0  0  1  0  0  0  0  0  0
  178.8840  181.9600  139.2510 C   0  0  2  0  0  3  0  0  0  0  0  0
  179.7550  183.0980  137.1240 C   0  0  0  0  0  1  0  0  0  0  0  0
  178.7350  184.4550  138.9520 C   0  0  0  0  0  1  0  0  0  0  0  0
  179.5540  183.2140  138.6350 C   0  0  0  0  0  3  0  0  0  0  0  0
  187.9320  176.9300  140.6240 O   0  0  0  0  0  0  0  0  0  0  0  0
  187.4170  177.4140  139.4120 C   0  0  0  0  0  2  0  0  0  0  0  0
  187.0080  176.2440  138.5320 C   0  0  0  0  0  2  0  0  0  0  0  0
  187.0230  176.6520  137.0630 C   0  0  0  0  0  1  0  0  0  0  0  0
  2 28  1  0  0  0  0
  4 24  1  0  0  0  0
  5 10  2  0  0  0  0
  5 31  1  0  0  0  0
  6  3  1  1  0  0  0
  6  9  1  0  0  0  0
  8 48  1  0  0  0  0
  9 15  1  0  0  0  0
  9 10  1  0  0  0  0
 10 42  1  0  0  0  0
 11 28  1  0  0  0  0
 12 20  1  0  0  0  0
 13  1  1  0  0  0  0
 14 46  1  0  0  0  0
 14 27  2  1  0  0  0
 16 36  1  6  0  0  0
 16 35  1  0  0  0  0
 17 25  1  6  0  0  0
 17 29  1  0  0  0  0
 17 16  1  0  0  0  0
 19 43  1  0  0  0  0
 20 22  1  0  0  0  0
 21 25  1  0  0  0  0
 21 32  1  0  0  0  0
 22 34  1  6  0  0  0
 22 37  1  0  0  0  0
 23 34  1  0  0  0  0
 24 38  2  0  0  0  0
 26 33  1  6  0  0  0
 26 22  1  0  0  0  0
 26 37  1  0  0  0  0
 29 32  1  6  0  0  0
 29 13  1  0  0  0  0
 30 15  1  6  0  0  0
 30 42  1  0  0  0  0
 30 26  1  0  0  0  0
 31  2  2  0  0  0  0
 35  1  1  6  0  0  0
 35 14  1  0  0  0  0
 39  4  1  1  0  0  0
 39 18  1  0  0  0  0
 40 38  1  6  0  0  0
 40 18  1  0  0  0  0
 41  7  1  6  0  0  0
 41 39  1  0  0  0  0
 41  6  1  0  0  0  0
 42 11  2  0  0  0  0
 43 47  1  6  0  0  0
 43 23  1  0  0  0  0
 43 12  1  0  0  0  0
 44 14  1  0  0  0  0
 45 66  1  1  0  0  0
 45  8  1  0  0  0  0
 45 40  1  0  0  0  0
 46  3  1  0  0  0  0
 48 50  1  1  0  0  0
 48 19  1  0  0  0  0
 49 36  1  6  0  0  0
 49  7  1  0  0  0  0
 49 44  1  0  0  0  0
 50 51  1  0  0  0  0
 52 51  1  0  0  0  0
 52 53  2  0  0  0  0
 54 52  1  0  0  0  0
 55 59  1  6  0  0  0
 55 54  1  0  0  0  0
 56 58  1  0  0  0  0
 58 55  1  0  0  0  0
 58 57  1  1  0  0  0
 59 60  1  0  0  0  0
 62 61  1  6  0  0  0
 62 60  1  0  0  0  0
 63 65  1  0  0  0  0
 65 64  1  0  0  0  0
 65 62  1  0  0  0  0
 67 66  1  0  0  0  0
 68 67  1  0  0  0  0
 69 68  1  0  0  0  0
M  END
>  <MODEL>
4

>  <REMARK>
 VINA RESULT:      -4.6      4.861     12.663
  Name = 
  12 active torsions:
  status: ('A' for Active; 'I' for Inactive)
    1  A    between atoms: C_1  and  C_15
    2  A    between atoms: O_6  and  O_39
    3  A    between atoms: O_6  and  C_58
    4  A    between atoms: C_11  and  O_39
    5  A    between atoms: C_11  and  C_43
    6  A    between atoms: C_11  and  O_57
    7  A    between atoms: C_15  and  O_56
    8  A    between atoms: C_28  and  N_40
    9  A    between atoms: C_28  and  C_67
   10  A    between atoms: C_44  and  O_57
   11  A    between atoms: O_56  and  C_64
   12  A    between atoms: C_58  and  C_68
                            x       y       z     vdW  Elec       q    Type
                         _______ _______ _______ _____ _____    ______ ____

>  <TORSDO>
F 12

$$$$
=
 OpenBabel11072408403D

 69 78  0  0  1  0  0  0  0  0999 V2000
  185.8170  176.0320  144.8280 C   0  0  0  0  0  2  0  0  0  0  0  0
  186.5860  176.3750  136.4880 C   0  0  0  0  0  3  0  0  0  0  0  0
  187.7980  173.5820  141.1230 C   0  0  0  0  0  2  0  0  0  0  0  0
  189.7120  171.3010  141.7240 C   0  0  0  0  0  2  0  0  0  0  0  0
  187.4400  175.4920  138.6910 C   0  0  0  0  0  3  0  0  0  0  0  0
  189.1790  174.1450  140.7230 C   0  0  2  0  0  3  0  0  0  0  0  0
  190.1990  174.2030  143.3820 S   0  0  0  0  0  0  0  0  0  0  0  0
  194.5510  169.7670  140.3560 C   0  0  0  0  0  2  0  0  0  0  0  0
  189.3920  174.1620  139.2570 N   0  0  0  0  0  0  0  0  0  0  0  0
  188.5960  174.9040  138.3400 C   0  0  0  0  0  0  0  0  0  0  0  0
  188.6910  175.1620  135.8570 C   0  0  0  0  0  3  0  0  0  0  0  0
  193.9970  171.1810  135.9430 O   0  0  0  0  0  0  0  0  0  0  0  0
  185.3180  176.8590  146.0350 C   0  0  0  0  0  2  0  0  0  0  0  0
  187.3920  176.0000  142.4640 P   0  0  2  0  0  0  0  0  0  0  0  0
  190.3360  173.3510  138.5810 N   0  0  0  0  0  2  0  0  0  0  0  0
  188.0920  177.3310  144.8330 C   0  0  2  0  0  3  0  0  0  0  0  0
  187.6860  177.5080  146.3080 C   0  0  1  0  0  3  0  0  0  0  0  0
  191.6100  172.0150  140.3980 O   0  0  0  0  0  0  0  0  0  0  0  0
  194.6880  169.9540  137.8470 N   0  0  0  0  0  2  0  0  0  0  0  0
  193.3420  172.3200  135.5380 N   0  0  0  0  0  2  0  0  0  0  0  0
  187.5160  179.0580  148.0810 O   0  0  0  0  0  0  0  0  0  0  0  0
  191.8930  172.2050  135.7960 C   0  0  2  0  0  0  0  0  0  0  0  0
  192.3350  170.5230  137.5680 C   0  0  0  0  0  2  0  0  0  0  0  0
  190.2540  169.9010  141.7050 C   0  0  0  0  0  3  0  0  0  0  0  0
  188.4070  178.5770  147.0880 C   0  0  0  0  0  2  0  0  0  0  0  0
  191.2250  173.4980  136.2580 C   0  0  1  0  0  0  0  0  0  0  0  0
  186.5630  176.5930  141.3410 O   0  0  0  0  0  0  0  0  0  0  0  0
  187.8980  176.4300  135.7760 C   0  0  0  0  0  2  0  0  0  0  0  0
  186.2920  177.9930  146.3950 C   0  0  2  0  0  3  0  0  0  0  0  0
  189.9630  173.4140  137.1510 C   0  0  2  0  0  3  0  0  0  0  0  0
  186.4140  176.0140  137.7620 C   0  0  0  0  0  3  0  0  0  0  0  0
  186.2490  178.5010  147.8070 C   0  0  0  0  0  2  0  0  0  0  0  0
  192.0700  174.7610  136.2470 C   0  0  0  0  0  1  0  0  0  0  0  0
  191.3910  170.9090  136.4310 C   0  0  0  0  0  2  0  0  0  0  0  0
  186.8800  176.8050  144.0040 C   0  0  2  0  0  3  0  0  0  0  0  0
  189.2850  176.3820  144.7630 C   0  0  0  0  0  2  0  0  0  0  0  0
  190.9790  172.9600  134.8450 C   0  0  0  0  0  2  0  0  0  0  0  0
  191.4240  169.6430  141.1130 C   0  0  0  0  0  3  0  0  0  0  0  0
  190.8660  172.2980  141.5630 C   0  0  1  0  0  3  0  0  0  0  0  0
  192.2560  170.7530  140.5040 C   0  0  2  0  0  3  0  0  0  0  0  0
  190.4060  173.7730  141.6050 C   0  0  1  0  0  3  0  0  0  0  0  0
  189.0190  174.5650  137.0030 C   0  0  0  0  0  0  0  0  0  0  0  0
  193.7800  170.9970  137.3410 C   0  0  2  0  0  0  0  0  0  0  0  0
  189.0220  176.4400  142.2460 O   0  0  0  0  0  0  0  0  0  0  0  0
  193.6790  170.8190  141.0700 C   0  0  2  0  0  3  0  0  0  0  0  0
  187.2540  174.1670  142.4290 C   0  0  0  0  0  2  0  0  0  0  0  0
  193.9770  172.2230  138.0160 O   0  0  0  0  0  1  0  0  0  0  0  0
  195.3240  170.3000  139.1340 C   0  0  2  0  0  3  0  0  0  0  0  0
  189.7910  175.9900  143.3560 C   0  0  2  0  0  3  0  0  0  0  0  0
  196.7780  169.7880  139.1470 C   0  0  0  0  0  2  0  0  0  0  0  0
  197.6710  170.7480  139.8030 N   0  0  0  0  0  2  0  0  0  0  0  0
  197.4410  171.1450  141.1540 C   0  0  0  0  0  0  0  0  0  0  0  0
  196.7410  172.1760  141.3710 O   0  0  0  0  0  0  0  0  0  0  0  0
  197.9120  170.3740  142.2150 O   0  0  0  0  0  0  0  0  0  0  0  0
  197.4130  170.5470  143.5370 C   0  0  2  0  0  3  0  0  0  0  0  0
  196.0890  168.6100  143.0210 O   0  0  0  0  0  1  0  0  0  0  0  0
  195.9170  169.4670  145.2300 C   0  0  0  0  0  1  0  0  0  0  0  0
  196.0940  169.7940  143.7630 C   0  0  1  0  0  3  0  0  0  0  0  0
  197.3040  171.9100  143.8590 O   0  0  0  0  0  0  0  0  0  0  0  0
  197.2420  171.9850  145.1880 O   0  0  0  0  0  0  0  0  0  0  0  0
  197.2370  173.5780  146.8800 O   0  0  0  0  0  1  0  0  0  0  0  0
  196.9220  173.3320  145.5270 C   0  0  2  0  0  3  0  0  0  0  0  0
  194.4070  172.8870  145.7650 C   0  0  0  0  0  1  0  0  0  0  0  0
  195.2600  175.2230  145.5670 C   0  0  0  0  0  1  0  0  0  0  0  0
  195.4860  173.7780  145.1500 C   0  0  0  0  0  3  0  0  0  0  0  0
  194.2260  172.1050  140.9500 O   0  0  0  0  0  0  0  0  0  0  0  0
  194.0430  172.6910  142.2110 C   0  0  0  0  0  2  0  0  0  0  0  0
  193.9560  174.2010  142.0610 C   0  0  0  0  0  2  0  0  0  0  0  0
  193.9710  174.5920  140.5870 C   0  0  0  0  0  1  0  0  0  0  0  0
  1 13  1  0  0  0  0
  2 31  2  0  0  0  0
  3 46  1  0  0  0  0
  6  3  1  6  0  0  0
  6 41  1  0  0  0  0
  8 45  1  0  0  0  0
  9  6  1  0  0  0  0
 10  5  2  0  0  0  0
 10  9  1  0  0  0  0
 11 42  2  0  0  0  0
 12 43  1  0  0  0  0
 14 27  2  6  0  0  0
 14 35  1  0  0  0  0
 15  9  1  0  0  0  0
 16 36  1  1  0  0  0
 16 17  1  0  0  0  0
 17 29  1  0  0  0  0
 17 25  1  6  0  0  0
 18 40  1  0  0  0  0
 18 39  1  0  0  0  0
 19 48  1  0  0  0  0
 20 22  1  0  0  0  0
 20 12  1  0  0  0  0
 22 37  1  6  0  0  0
 22 26  1  0  0  0  0
 22 34  1  0  0  0  0
 24  4  1  0  0  0  0
 25 21  1  0  0  0  0
 26 33  1  1  0  0  0
 26 30  1  0  0  0  0
 28 11  1  0  0  0  0
 28  2  1  0  0  0  0
 29 13  1  1  0  0  0
 29 32  1  0  0  0  0
 30 42  1  1  0  0  0
 30 15  1  0  0  0  0
 31  5  1  0  0  0  0
 32 21  1  0  0  0  0
 34 23  1  0  0  0  0
 35  1  1  1  0  0  0
 35 16  1  0  0  0  0
 37 26  1  0  0  0  0
 38 24  2  0  0  0  0
 39 41  1  0  0  0  0
 39  4  1  6  0  0  0
 40 45  1  0  0  0  0
 40 38  1  1  0  0  0
 41  7  1  1  0  0  0
 42 10  1  0  0  0  0
 43 23  1  0  0  0  0
 43 19  1  0  0  0  0
 43 47  1  1  0  0  0
 44 14  1  0  0  0  0
 44 49  1  0  0  0  0
 45 66  1  6  0  0  0
 46 14  1  0  0  0  0
 48 50  1  6  0  0  0
 48  8  1  0  0  0  0
 49  7  1  0  0  0  0
 49 36  1  1  0  0  0
 50 51  1  0  0  0  0
 51 52  1  0  0  0  0
 52 53  2  0  0  0  0
 52 54  1  0  0  0  0
 55 54  1  6  0  0  0
 55 58  1  0  0  0  0
 55 59  1  0  0  0  0
 56 58  1  0  0  0  0
 58 57  1  1  0  0  0
 59 60  1  0  0  0  0
 60 62  1  0  0  0  0
 62 61  1  1  0  0  0
 65 62  1  0  0  0  0
 65 64  1  0  0  0  0
 65 63  1  0  0  0  0
 66 67  1  0  0  0  0
 68 67  1  0  0  0  0
 69 68  1  0  0  0  0
M  END
>  <MODEL>
5

>  <REMARK>
 VINA RESULT:      -3.9      1.479      2.580
  Name = 
  12 active torsions:
  status: ('A' for Active; 'I' for Inactive)
    1  A    between atoms: C_1  and  C_15
    2  A    between atoms: O_6  and  O_39
    3  A    between atoms: O_6  and  C_58
    4  A    between atoms: C_11  and  O_39
    5  A    between atoms: C_11  and  C_43
    6  A    between atoms: C_11  and  O_57
    7  A    between atoms: C_15  and  O_56
    8  A    between atoms: C_28  and  N_40
    9  A    between atoms: C_28  and  C_67
   10  A    between atoms: C_44  and  O_57
   11  A    between atoms: O_56  and  C_64
   12  A    between atoms: C_58  and  C_68
                            x       y       z     vdW  Elec       q    Type
                         _______ _______ _______ _____ _____    ______ ____

>  <TORSDO>
F 12

$$$$
=
 OpenBabel11072408403D

 69 78  0  0  1  0  0  0  0  0999 V2000
  196.6670  168.7510  139.0800 C   0  0  0  0  0  2  0  0  0  0  0  0
  197.5630  173.7440  145.7530 C   0  0  0  0  0  3  0  0  0  0  0  0
  194.0310  170.9130  142.5480 C   0  0  0  0  0  2  0  0  0  0  0  0
  191.0020  170.8980  142.3190 C   0  0  0  0  0  2  0  0  0  0  0  0
  196.0620  172.8080  143.9550 C   0  0  0  0  0  3  0  0  0  0  0  0
  193.6810  172.3740  142.1900 C   0  0  2  0  0  3  0  0  0  0  0  0
  192.7550  171.7680  139.5650 S   0  0  0  0  0  0  0  0  0  0  0  0
  187.0320  174.3410  142.4640 C   0  0  0  0  0  2  0  0  0  0  0  0
  193.7580  173.2870  143.3540 N   0  0  0  0  0  0  0  0  0  0  0  0
  194.9430  173.5380  144.1000 C   0  0  0  0  0  0  0  0  0  0  0  0
  195.4130  175.0030  146.0690 C   0  0  0  0  0  3  0  0  0  0  0  0
  189.0540  176.8770  145.8180 O   0  0  0  0  0  0  0  0  0  0  0  0
  197.4590  168.1660  137.8880 C   0  0  0  0  0  2  0  0  0  0  0  0
  195.9920  171.0770  140.5640 P   0  0  2  0  0  0  0  0  0  0  0  0
  192.6360  173.9270  143.9380 N   0  0  0  0  0  2  0  0  0  0  0  0
  196.2940  170.9920  137.7750 C   0  0  2  0  0  3  0  0  0  0  0  0
  196.4860  170.0280  136.5910 C   0  0  1  0  0  3  0  0  0  0  0  0
  190.5770  173.2760  142.5100 O   0  0  0  0  0  0  0  0  0  0  0  0
  187.4250  175.8150  144.4690 N   0  0  0  0  0  2  0  0  0  0  0  0
  190.3980  177.1550  145.9200 N   0  0  0  0  0  2  0  0  0  0  0  0
  197.5680  169.7290  134.5130 O   0  0  0  0  0  0  0  0  0  0  0  0
  191.1580  175.9300  146.2390 C   0  0  2  0  0  0  0  0  0  0  0  0
  189.3410  174.5420  145.2720 C   0  0  0  0  0  2  0  0  0  0  0  0
  189.5800  170.6340  142.7210 C   0  0  0  0  0  3  0  0  0  0  0  0
  196.7790  170.6500  135.2490 C   0  0  0  0  0  2  0  0  0  0  0  0
  192.5150  175.8250  145.5480 C   0  0  1  0  0  0  0  0  0  0  0  0
  197.1090  171.3410  141.5560 O   0  0  0  0  0  0  0  0  0  0  0  0
  196.8980  175.0750  145.8900 C   0  0  0  0  0  2  0  0  0  0  0  0
  197.7040  169.2140  136.7920 C   0  0  2  0  0  3  0  0  0  0  0  0
  193.1020  174.4230  145.2520 C   0  0  2  0  0  3  0  0  0  0  0  0
  197.2180  172.7960  144.8780 C   0  0  0  0  0  3  0  0  0  0  0  0
  197.9410  168.7000  135.4010 C   0  0  0  0  0  2  0  0  0  0  0  0
  192.9880  177.0330  144.7560 C   0  0  0  0  0  1  0  0  0  0  0  0
  190.3670  174.6310  146.3990 C   0  0  0  0  0  2  0  0  0  0  0  0
  196.7310  170.3010  139.1040 C   0  0  2  0  0  3  0  0  0  0  0  0
  194.8340  171.4340  137.8170 C   0  0  0  0  0  2  0  0  0  0  0  0
  192.4300  176.1190  147.0480 C   0  0  0  0  0  2  0  0  0  0  0  0
  188.7420  171.6540  142.9320 C   0  0  0  0  0  3  0  0  0  0  0  0
  191.0990  172.2790  141.6580 C   0  0  1  0  0  3  0  0  0  0  0  0
  189.1830  173.0870  142.7140 C   0  0  2  0  0  3  0  0  0  0  0  0
  192.5260  172.6250  141.1770 C   0  0  1  0  0  3  0  0  0  0  0  0
  194.5960  174.3670  145.2280 C   0  0  0  0  0  0  0  0  0  0  0  0
  188.8600  175.9170  144.7810 C   0  0  2  0  0  0  0  0  0  0  0  0
  195.3700  172.5650  140.0180 O   0  0  0  0  0  0  0  0  0  0  0  0
  188.2910  173.8470  141.7260 C   0  0  2  0  0  3  0  0  0  0  0  0
  194.6490  170.1300  141.3870 C   0  0  0  0  0  2  0  0  0  0  0  0
  189.6080  176.2920  143.6420 O   0  0  0  0  0  1  0  0  0  0  0  0
  187.1380  175.7740  143.0210 C   0  0  2  0  0  3  0  0  0  0  0  0
  194.4040  172.3340  138.9990 C   0  0  2  0  0  3  0  0  0  0  0  0
  185.8490  176.5670  142.7250 C   0  0  0  0  0  2  0  0  0  0  0  0
  186.0770  177.5820  141.6930 N   0  0  0  0  0  2  0  0  0  0  0  0
  184.9800  178.2900  141.1190 C   0  0  0  0  0  0  0  0  0  0  0  0
  184.4500  177.8360  140.0640 O   0  0  0  0  0  0  0  0  0  0  0  0
  184.4510  179.4170  141.7460 O   0  0  0  0  0  0  0  0  0  0  0  0
  183.4180  179.3080  142.7200 C   0  0  2  0  0  3  0  0  0  0  0  0
  183.8330  178.4260  144.9150 O   0  0  0  0  0  1  0  0  0  0  0  0
  185.3670  180.0480  144.1050 C   0  0  0  0  0  1  0  0  0  0  0  0
  183.9260  179.5850  144.1410 C   0  0  1  0  0  3  0  0  0  0  0  0
  182.7670  178.0670  142.6240 O   0  0  0  0  0  0  0  0  0  0  0  0
  181.4580  178.3180  142.6630 O   0  0  0  0  0  0  0  0  0  0  0  0
  181.5780  179.2110  140.5210 O   0  0  0  0  0  1  0  0  0  0  0  0
  180.9660  178.2290  141.3280 C   0  0  2  0  0  3  0  0  0  0  0  0
  178.9460  177.8520  139.7940 C   0  0  0  0  0  1  0  0  0  0  0  0
  178.8170  177.2620  142.2140 C   0  0  0  0  0  1  0  0  0  0  0  0
  179.4210  178.2190  141.1990 C   0  0  0  0  0  3  0  0  0  0  0  0
  188.9790  174.9090  141.1180 O   0  0  0  0  0  0  0  0  0  0  0  0
  188.5940  174.8600  139.7700 C   0  0  0  0  0  2  0  0  0  0  0  0
  189.3200  173.7190  139.0770 C   0  0  0  0  0  2  0  0  0  0  0  0
  188.7210  173.4670  137.6980 C   0  0  0  0  0  1  0  0  0  0  0  0
  2 28  1  0  0  0  0
  4 24  1  0  0  0  0
  5 10  2  0  0  0  0
  5 31  1  0  0  0  0
  6  3  1  1  0  0  0
  6  9  1  0  0  0  0
  8 48  1  0  0  0  0
  9 15  1  0  0  0  0
  9 10  1  0  0  0  0
 10 42  1  0  0  0  0
 12 20  1  0  0  0  0
 13  1  1  0  0  0  0
 14 46  1  0  0  0  0
 14 27  2  1  0  0  0
 16 36  1  1  0  0  0
 16 35  1  0  0  0  0
 17 25  1  6  0  0  0
 17 29  1  0  0  0  0
 17 16  1  0  0  0  0
 18 40  1  0  0  0  0
 19 43  1  0  0  0  0
 20 22  1  0  0  0  0
 21 25  1  0  0  0  0
 21 32  1  0  0  0  0
 22 34  1  1  0  0  0
 22 37  1  0  0  0  0
 23 34  1  0  0  0  0
 24 38  2  0  0  0  0
 26 33  1  6  0  0  0
 26 22  1  0  0  0  0
 26 37  1  0  0  0  0
 28 11  1  0  0  0  0
 29 32  1  6  0  0  0
 29 13  1  0  0  0  0
 30 15  1  6  0  0  0
 30 26  1  0  0  0  0
 31  2  2  0  0  0  0
 35  1  1  6  0  0  0
 35 14  1  0  0  0  0
 39  4  1  1  0  0  0
 39 18  1  0  0  0  0
 40 38  1  6  0  0  0
 41  7  1  6  0  0  0
 41 39  1  0  0  0  0
 41  6  1  0  0  0  0
 42 30  1  0  0  0  0
 42 11  2  0  0  0  0
 43 47  1  6  0  0  0
 43 23  1  0  0  0  0
 43 12  1  0  0  0  0
 44 14  1  0  0  0  0
 45 66  1  1  0  0  0
 45  8  1  0  0  0  0
 45 40  1  0  0  0  0
 46  3  1  0  0  0  0
 48 50  1  1  0  0  0
 48 19  1  0  0  0  0
 49 36  1  6  0  0  0
 49  7  1  0  0  0  0
 49 44  1  0  0  0  0
 51 50  1  0  0  0  0
 52 51  1  0  0  0  0
 52 54  1  0  0  0  0
 53 52  2  0  0  0  0
 55 54  1  6  0  0  0
 55 58  1  0  0  0  0
 58 57  1  6  0  0  0
 58 56  1  0  0  0  0
 59 60  1  0  0  0  0
 59 55  1  0  0  0  0
 62 61  1  6  0  0  0
 62 60  1  0  0  0  0
 63 65  1  0  0  0  0
 65 62  1  0  0  0  0
 65 64  1  0  0  0  0
 67 66  1  0  0  0  0
 68 67  1  0  0  0  0
 69 68  1  0  0  0  0
M  END
>  <MODEL>
6

>  <REMARK>
 VINA RESULT:      -3.6      3.785     11.789
  Name = 
  12 active torsions:
  status: ('A' for Active; 'I' for Inactive)
    1  A    between atoms: C_1  and  C_15
    2  A    between atoms: O_6  and  O_39
    3  A    between atoms: O_6  and  C_58
    4  A    between atoms: C_11  and  O_39
    5  A    between atoms: C_11  and  C_43
    6  A    between atoms: C_11  and  O_57
    7  A    between atoms: C_15  and  O_56
    8  A    between atoms: C_28  and  N_40
    9  A    between atoms: C_28  and  C_67
   10  A    between atoms: C_44  and  O_57
   11  A    between atoms: O_56  and  C_64
   12  A    between atoms: C_58  and  C_68
                            x       y       z     vdW  Elec       q    Type
                         _______ _______ _______ _____ _____    ______ ____

>  <TORSDO>
F 12

$$$$
=
 OpenBabel11072408403D

 69 78  0  0  1  0  0  0  0  0999 V2000
  196.0870  171.1430  138.3760 C   0  0  0  0  0  2  0  0  0  0  0  0
  197.0940  173.2060  146.4380 C   0  0  0  0  0  3  0  0  0  0  0  0
  193.4880  172.2710  142.3290 C   0  0  0  0  0  2  0  0  0  0  0  0
  190.5090  172.7850  142.0330 C   0  0  0  0  0  2  0  0  0  0  0  0
  195.6290  173.2120  144.3840 C   0  0  0  0  0  3  0  0  0  0  0  0
  193.3560  173.7970  142.5240 C   0  0  2  0  0  3  0  0  0  0  0  0
  192.5660  174.3210  139.8380 S   0  0  0  0  0  0  0  0  0  0  0  0
  187.0110  176.4870  143.3350 C   0  0  0  0  0  2  0  0  0  0  0  0
  193.4580  174.2080  143.9440 N   0  0  0  0  0  0  0  0  0  0  0  0
  194.6050  173.9960  144.7590 C   0  0  0  0  0  0  0  0  0  0  0  0
  195.1050  174.5670  147.1400 C   0  0  0  0  0  3  0  0  0  0  0  0
  189.0750  177.3180  147.4360 O   0  0  0  0  0  0  0  0  0  0  0  0
  196.8870  170.9170  137.0730 C   0  0  0  0  0  2  0  0  0  0  0  0
  195.6020  172.8500  140.5940 P   0  0  2  0  0  0  0  0  0  0  0  0
  192.3860  174.7510  144.6940 N   0  0  0  0  0  2  0  0  0  0  0  0
  196.1040  173.7330  137.9780 C   0  0  2  0  0  3  0  0  0  0  0  0
  196.2630  173.2430  136.5270 C   0  0  1  0  0  3  0  0  0  0  0  0
  190.3770  174.9690  143.0750 O   0  0  0  0  0  0  0  0  0  0  0  0
  187.4320  177.0650  145.7510 N   0  0  0  0  0  2  0  0  0  0  0  0
  190.4300  177.3390  147.6670 N   0  0  0  0  0  2  0  0  0  0  0  0
  197.4550  173.5580  134.5130 O   0  0  0  0  0  0  0  0  0  0  0  0
  191.0020  175.9840  147.5320 C   0  0  2  0  0  0  0  0  0  0  0  0
  189.1020  175.3210  146.0760 C   0  0  0  0  0  2  0  0  0  0  0  0
  189.0380  172.6050  142.2750 C   0  0  0  0  0  3  0  0  0  0  0  0
  196.7360  174.2560  135.5150 C   0  0  0  0  0  2  0  0  0  0  0  0
  192.3830  175.9380  146.8850 C   0  0  1  0  0  0  0  0  0  0  0  0
  196.6630  172.5710  141.6410 O   0  0  0  0  0  0  0  0  0  0  0  0
  196.5960  174.4800  147.0370 C   0  0  0  0  0  2  0  0  0  0  0  0
  197.3480  172.2420  136.4450 C   0  0  2  0  0  3  0  0  0  0  0  0
  192.8080  174.6670  146.1090 C   0  0  2  0  0  3  0  0  0  0  0  0
  196.7000  172.6990  145.2670 C   0  0  0  0  0  3  0  0  0  0  0  0
  197.6240  172.2340  134.9690 C   0  0  0  0  0  2  0  0  0  0  0  0
  193.0660  177.2660  146.6050 C   0  0  0  0  0  1  0  0  0  0  0  0
  190.0420  174.8470  147.1830 C   0  0  0  0  0  2  0  0  0  0  0  0
  196.3460  172.5530  138.9690 C   0  0  2  0  0  3  0  0  0  0  0  0
  194.7130  174.3390  138.1420 C   0  0  0  0  0  2  0  0  0  0  0  0
  192.2210  175.6810  148.3860 C   0  0  0  0  0  2  0  0  0  0  0  0
  188.3230  173.5920  142.8240 C   0  0  0  0  0  3  0  0  0  0  0  0
  190.8310  174.2810  141.9290 C   0  0  1  0  0  3  0  0  0  0  0  0
  188.9580  174.9260  143.1600 C   0  0  2  0  0  3  0  0  0  0  0  0
  192.3240  174.5630  141.6460 C   0  0  1  0  0  3  0  0  0  0  0  0
  194.2810  174.4050  146.1040 C   0  0  0  0  0  0  0  0  0  0  0  0
  188.8400  176.8350  146.1140 C   0  0  2  0  0  0  0  0  0  0  0  0
  195.2180  174.5090  140.6170 O   0  0  0  0  0  0  0  0  0  0  0  0
  188.2500  176.1130  142.4980 C   0  0  2  0  0  3  0  0  0  0  0  0
  194.0890  171.8780  140.9760 C   0  0  0  0  0  2  0  0  0  0  0  0
  189.7160  177.4810  145.2120 O   0  0  0  0  0  1  0  0  0  0  0  0
  187.2550  177.5910  144.3820 C   0  0  2  0  0  3  0  0  0  0  0  0
  194.3120  174.8050  139.5610 C   0  0  2  0  0  3  0  0  0  0  0  0
  186.1040  178.6170  144.3660 C   0  0  0  0  0  2  0  0  0  0  0  0
  184.8030  177.9500  144.2490 N   0  0  0  0  0  2  0  0  0  0  0  0
  183.6370  178.6950  143.9020 C   0  0  0  0  0  0  0  0  0  0  0  0
  182.9210  179.1680  144.8320 O   0  0  0  0  0  0  0  0  0  0  0  0
  183.3310  178.9630  142.5690 O   0  0  0  0  0  0  0  0  0  0  0  0
  182.0880  178.5660  141.9990 C   0  0  2  0  0  3  0  0  0  0  0  0
  183.4510  178.5060  140.0220 O   0  0  0  0  0  1  0  0  0  0  0  0
  181.3630  177.3770  139.9170 C   0  0  0  0  0  1  0  0  0  0  0  0
  182.1270  178.5640  140.4640 C   0  0  1  0  0  3  0  0  0  0  0  0
  181.0340  179.3470  142.4990 O   0  0  0  0  0  0  0  0  0  0  0  0
  180.1470  178.5000  143.0230 O   0  0  0  0  0  0  0  0  0  0  0  0
  178.3160  179.3300  144.1890 O   0  0  0  0  0  1  0  0  0  0  0  0
  178.8600  179.1020  142.9070 C   0  0  2  0  0  3  0  0  0  0  0  0
  177.9100  178.9280  140.5310 C   0  0  0  0  0  1  0  0  0  0  0  0
  178.1790  176.8830  141.9340 C   0  0  0  0  0  1  0  0  0  0  0  0
  177.8780  178.3730  141.9550 C   0  0  0  0  0  3  0  0  0  0  0  0
  189.1120  177.2090  142.3410 O   0  0  0  0  0  0  0  0  0  0  0  0
  188.4760  178.0340  141.4030 C   0  0  0  0  0  2  0  0  0  0  0  0
  187.9120  177.1810  140.2780 C   0  0  0  0  0  2  0  0  0  0  0  0
  186.6200  177.7880  139.7450 C   0  0  0  0  0  1  0  0  0  0  0  0
  2 28  1  0  0  0  0
  4 24  1  0  0  0  0
  5 10  2  0  0  0  0
  5 31  1  0  0  0  0
  6  3  1  1  0  0  0
  6  9  1  0  0  0  0
  8 48  1  0  0  0  0
  9 15  1  0  0  0  0
  9 10  1  0  0  0  0
 10 42  1  0  0  0  0
 12 20  1  0  0  0  0
 13  1  1  0  0  0  0
 14 44  1  0  0  0  0
 14 46  1  0  0  0  0
 14 27  2  1  0  0  0
 16 36  1  6  0  0  0
 16 35  1  0  0  0  0
 17 25  1  6  0  0  0
 17 16  1  0  0  0  0
 18 40  1  0  0  0  0
 19 43  1  0  0  0  0
 21 32  1  0  0  0  0
 21 25  1  0  0  0  0
 22 34  1  6  0  0  0
 22 20  1  0  0  0  0
 22 37  1  0  0  0  0
 23 43  1  0  0  0  0
 23 34  1  0  0  0  0
 24 38  2  0  0  0  0
 26 33  1  6  0  0  0
 26 22  1  0  0  0  0
 26 37  1  0  0  0  0
 28 11  1  0  0  0  0
 29 32  1  6  0  0  0
 29 17  1  0  0  0  0
 29 13  1  0  0  0  0
 30 15  1  6  0  0  0
 30 26  1  0  0  0  0
 31  2  2  0  0  0  0
 35  1  1  6  0  0  0
 35 14  1  0  0  0  0
 39  4  1  1  0  0  0
 39 18  1  0  0  0  0
 40 38  1  6  0  0  0
 41  7  1  6  0  0  0
 41 39  1  0  0  0  0
 41  6  1  0  0  0  0
 42 30  1  0  0  0  0
 42 11  2  0  0  0  0
 43 47  1  6  0  0  0
 43 12  1  0  0  0  0
 45 66  1  1  0  0  0
 45 40  1  0  0  0  0
 45  8  1  0  0  0  0
 46  3  1  0  0  0  0
 48 50  1  1  0  0  0
 48 19  1  0  0  0  0
 49 36  1  6  0  0  0
 49  7  1  0  0  0  0
 49 44  1  0  0  0  0
 51 50  1  0  0  0  0
 52 51  1  0  0  0  0
 52 53  2  0  0  0  0
 54 52  1  0  0  0  0
 55 59  1  6  0  0  0
 55 54  1  0  0  0  0
 56 58  1  0  0  0  0
 58 57  1  1  0  0  0
 58 55  1  0  0  0  0
 59 60  1  0  0  0  0
 62 60  1  0  0  0  0
 62 61  1  1  0  0  0
 63 65  1  0  0  0  0
 64 65  1  0  0  0  0
 65 62  1  0  0  0  0
 67 66  1  0  0  0  0
 68 67  1  0  0  0  0
 69 68  1  0  0  0  0
M  END
>  <MODEL>
7

>  <REMARK>
 VINA RESULT:      -3.5      4.453     12.409
  Name = 
  12 active torsions:
  status: ('A' for Active; 'I' for Inactive)
    1  A    between atoms: C_1  and  C_15
    2  A    between atoms: O_6  and  O_39
    3  A    between atoms: O_6  and  C_58
    4  A    between atoms: C_11  and  O_39
    5  A    between atoms: C_11  and  C_43
    6  A    between atoms: C_11  and  O_57
    7  A    between atoms: C_15  and  O_56
    8  A    between atoms: C_28  and  N_40
    9  A    between atoms: C_28  and  C_67
   10  A    between atoms: C_44  and  O_57
   11  A    between atoms: O_56  and  C_64
   12  A    between atoms: C_58  and  C_68
                            x       y       z     vdW  Elec       q    Type
                         _______ _______ _______ _____ _____    ______ ____

>  <TORSDO>
F 12

$$$$
=
 OpenBabel11072408403D

 69 78  0  0  1  0  0  0  0  0999 V2000
  195.7260  170.9060  139.1720 C   0  0  0  0  0  2  0  0  0  0  0  0
  195.2610  175.1020  146.4130 C   0  0  0  0  0  3  0  0  0  0  0  0
  192.4460  172.6920  142.2860 C   0  0  0  0  0  2  0  0  0  0  0  0
  189.5190  172.7390  141.4750 C   0  0  0  0  0  2  0  0  0  0  0  0
  194.1460  174.3930  144.2640 C   0  0  0  0  0  3  0  0  0  0  0  0
  192.1570  174.1880  142.0350 C   0  0  2  0  0  3  0  0  0  0  0  0
  191.7630  173.8930  139.2290 S   0  0  0  0  0  0  0  0  0  0  0  0
  185.5610  176.1900  141.2370 C   0  0  0  0  0  2  0  0  0  0  0  0
  191.9970  174.9630  143.2870 N   0  0  0  0  0  0  0  0  0  0  0  0
  193.0130  175.1150  144.2720 C   0  0  0  0  0  0  0  0  0  0  0  0
  193.0780  176.3420  146.4470 C   0  0  0  0  0  3  0  0  0  0  0  0
  186.8690  178.3080  145.1850 O   0  0  0  0  0  0  0  0  0  0  0  0
  196.7390  170.4490  138.0980 C   0  0  0  0  0  2  0  0  0  0  0  0
  194.7520  173.0570  140.7510 P   0  0  2  0  0  0  0  0  0  0  0  0
  190.7770  175.5460  143.7120 N   0  0  0  0  0  2  0  0  0  0  0  0
  195.5890  173.2840  138.0810 C   0  0  2  0  0  3  0  0  0  0  0  0
  196.0170  172.4570  136.8550 C   0  0  1  0  0  3  0  0  0  0  0  0
  189.0400  175.0850  141.8480 O   0  0  0  0  0  0  0  0  0  0  0  0
  185.5420  177.4240  143.4340 N   0  0  0  0  0  2  0  0  0  0  0  0
  188.1640  178.5560  145.5750 N   0  0  0  0  0  2  0  0  0  0  0  0
  197.4830  172.3820  135.0060 O   0  0  0  0  0  0  0  0  0  0  0  0
  188.8610  177.2940  145.8950 C   0  0  2  0  0  0  0  0  0  0  0  0
  187.2800  176.0460  144.4430 C   0  0  0  0  0  2  0  0  0  0  0  0
  188.0490  172.4480  141.5620 C   0  0  0  0  0  3  0  0  0  0  0  0
  196.5580  173.2230  135.6750 C   0  0  0  0  0  2  0  0  0  0  0  0
  190.3270  177.2520  145.4710 C   0  0  1  0  0  0  0  0  0  0  0  0
  195.6530  173.1930  141.9630 O   0  0  0  0  0  0  0  0  0  0  0  0
  194.5690  176.4160  146.5680 C   0  0  0  0  0  2  0  0  0  0  0  0
  197.1810  171.6110  137.1950 C   0  0  2  0  0  3  0  0  0  0  0  0
  190.9740  175.8860  145.1380 C   0  0  2  0  0  3  0  0  0  0  0  0
  195.1020  174.2630  145.3870 C   0  0  0  0  0  3  0  0  0  0  0  0
  197.6880  171.2540  135.8270 C   0  0  0  0  0  2  0  0  0  0  0  0
  190.9320  178.5360  144.9280 C   0  0  0  0  0  1  0  0  0  0  0  0
  188.0680  175.9950  145.7500 C   0  0  0  0  0  2  0  0  0  0  0  0
  195.7680  172.4420  139.3830 C   0  0  2  0  0  3  0  0  0  0  0  0
  194.1440  173.7350  137.8890 C   0  0  0  0  0  2  0  0  0  0  0  0
  189.9500  177.3760  146.9510 C   0  0  0  0  0  2  0  0  0  0  0  0
  187.1760  173.4470  141.7210 C   0  0  0  0  0  3  0  0  0  0  0  0
  189.7270  174.1840  141.0060 C   0  0  1  0  0  3  0  0  0  0  0  0
  187.6350  174.8910  141.7560 C   0  0  2  0  0  3  0  0  0  0  0  0
  191.2170  174.5660  140.8530 C   0  0  1  0  0  3  0  0  0  0  0  0
  192.4460  175.8150  145.3980 C   0  0  0  0  0  0  0  0  0  0  0  0
  186.8890  177.4730  144.0280 C   0  0  2  0  0  0  0  0  0  0  0  0
  194.2320  174.6040  140.2660 O   0  0  0  0  0  0  0  0  0  0  0  0
  186.9440  175.7680  140.7060 C   0  0  2  0  0  3  0  0  0  0  0  0
  193.2850  172.0380  141.1850 C   0  0  0  0  0  2  0  0  0  0  0  0
  187.8400  177.9650  143.1050 O   0  0  0  0  0  1  0  0  0  0  0  0
  185.5410  177.5500  141.9630 C   0  0  2  0  0  3  0  0  0  0  0  0
  193.4840  174.5000  139.0600 C   0  0  2  0  0  3  0  0  0  0  0  0
  184.3260  178.3860  141.5150 C   0  0  0  0  0  2  0  0  0  0  0  0
  183.1930  178.2020  142.4270 N   0  0  0  0  0  2  0  0  0  0  0  0
  181.8780  178.5970  142.0370 C   0  0  0  0  0  0  0  0  0  0  0  0
  181.4820  179.7610  142.3350 O   0  0  0  0  0  0  0  0  0  0  0  0
  181.0740  177.7490  141.2780 O   0  0  0  0  0  0  0  0  0  0  0  0
  179.9370  178.2380  140.5730 C   0  0  2  0  0  3  0  0  0  0  0  0
  178.9170  177.5270  142.6280 O   0  0  0  0  0  1  0  0  0  0  0  0
  178.1500  179.5770  141.7050 C   0  0  0  0  0  1  0  0  0  0  0  0
  178.6590  178.1800  141.4200 C   0  0  1  0  0  3  0  0  0  0  0  0
  179.7870  177.5780  139.3430 O   0  0  0  0  0  0  0  0  0  0  0  0
  178.5030  177.6950  139.0020 O   0  0  0  0  0  0  0  0  0  0  0  0
  178.1190  175.4030  139.0510 O   0  0  0  0  0  1  0  0  0  0  0  0
  178.1600  176.5480  138.2270 C   0  0  2  0  0  3  0  0  0  0  0  0
  179.1270  174.8730  136.5440 C   0  0  0  0  0  1  0  0  0  0  0  0
  178.4300  177.1490  135.7980 C   0  0  0  0  0  1  0  0  0  0  0  0
  179.0110  176.3430  136.9480 C   0  0  0  0  0  3  0  0  0  0  0  0
  187.7250  176.8830  140.3670 O   0  0  0  0  0  0  0  0  0  0  0  0
  187.1910  177.3390  139.1530 C   0  0  0  0  0  2  0  0  0  0  0  0
  186.7080  176.1530  138.3340 C   0  0  0  0  0  2  0  0  0  0  0  0
  186.9070  176.4170  136.8460 C   0  0  0  0  0  1  0  0  0  0  0  0
  2 28  1  0  0  0  0
  4 24  1  0  0  0  0
  5 10  2  0  0  0  0
  5 31  1  0  0  0  0
  6  3  1  1  0  0  0
  6  9  1  0  0  0  0
  8 48  1  0  0  0  0
  9 15  1  0  0  0  0
  9 10  1  0  0  0  0
 10 42  1  0  0  0  0
 11 28  1  0  0  0  0
 12 20  1  0  0  0  0
 13  1  1  0  0  0  0
 14 46  1  0  0  0  0
 14 27  2  1  0  0  0
 16 36  1  6  0  0  0
 16 35  1  0  0  0  0
 17 25  1  6  0  0  0
 17 29  1  0  0  0  0
 17 16  1  0  0  0  0
 19 43  1  0  0  0  0
 20 22  1  0  0  0  0
 21 25  1  0  0  0  0
 21 32  1  0  0  0  0
 22 34  1  6  0  0  0
 22 37  1  0  0  0  0
 23 34  1  0  0  0  0
 24 38  2  0  0  0  0
 26 33  1  6  0  0  0
 26 22  1  0  0  0  0
 26 37  1  0  0  0  0
 29 32  1  6  0  0  0
 29 13  1  0  0  0  0
 30 15  1  6  0  0  0
 30 42  1  0  0  0  0
 30 26  1  0  0  0  0
 31  2  2  0  0  0  0
 35  1  1  6  0  0  0
 35 14  1  0  0  0  0
 39  4  1  1  0  0  0
 39 18  1  0  0  0  0
 40 38  1  6  0  0  0
 40 18  1  0  0  0  0
 41  7  1  6  0  0  0
 41 39  1  0  0  0  0
 41  6  1  0  0  0  0
 42 11  2  0  0  0  0
 43 47  1  6  0  0  0
 43 23  1  0  0  0  0
 43 12  1  0  0  0  0
 44 14  1  0  0  0  0
 45 66  1  1  0  0  0
 45  8  1  0  0  0  0
 45 40  1  0  0  0  0
 46  3  1  0  0  0  0
 48 50  1  6  0  0  0
 48 19  1  0  0  0  0
 49 36  1  6  0  0  0
 49  7  1  0  0  0  0
 49 44  1  0  0  0  0
 50 51  1  0  0  0  0
 52 53  2  0  0  0  0
 52 51  1  0  0  0  0
 54 52  1  0  0  0  0
 55 59  1  6  0  0  0
 55 54  1  0  0  0  0
 55 58  1  0  0  0  0
 58 57  1  1  0  0  0
 58 56  1  0  0  0  0
 60 59  1  0  0  0  0
 62 60  1  0  0  0  0
 62 61  1  1  0  0  0
 63 65  1  0  0  0  0
 64 65  1  0  0  0  0
 65 62  1  0  0  0  0
 67 66  1  0  0  0  0
 68 67  1  0  0  0  0
 69 68  1  0  0  0  0
M  END
>  <MODEL>
8

>  <REMARK>
 VINA RESULT:      -3.4      4.575     12.610
  Name = 
  12 active torsions:
  status: ('A' for Active; 'I' for Inactive)
    1  A    between atoms: C_1  and  C_15
    2  A    between atoms: O_6  and  O_39
    3  A    between atoms: O_6  and  C_58
    4  A    between atoms: C_11  and  O_39
    5  A    between atoms: C_11  and  C_43
    6  A    between atoms: C_11  and  O_57
    7  A    between atoms: C_15  and  O_56
    8  A    between atoms: C_28  and  N_40
    9  A    between atoms: C_28  and  C_67
   10  A    between atoms: C_44  and  O_57
   11  A    between atoms: O_56  and  C_64
   12  A    between atoms: C_58  and  C_68
                            x       y       z     vdW  Elec       q    Type
                         _______ _______ _______ _____ _____    ______ ____

>  <TORSDO>
F 12

$$$$
