=
 OpenBabel11072408503D

 26 28  0  0  1  0  0  0  0  0999 V2000
  189.0000  175.8560  146.3650 C   0  0  0  0  0  0  0  0  0  0  0  0
  185.6900  177.2390  147.1390 N   0  0  0  0  0  1  0  0  0  0  0  0
  186.8120  176.7890  146.3850 C   0  0  0  0  0  0  0  0  0  0  0  0
  187.9200  176.3860  144.2780 C   0  0  0  0  0  3  0  0  0  0  0  0
  189.0240  175.8890  144.9690 C   0  0  0  0  0  3  0  0  0  0  0  0
  187.9020  176.3000  147.0360 N   0  0  0  0  0  0  0  0  0  0  0  0
  186.8020  176.8420  144.9820 C   0  0  0  0  0  0  0  0  0  0  0  0
  190.1560  175.2890  147.1150 C   0  0  0  0  0  2  0  0  0  0  0  0
  191.2800  176.3090  147.2370 C   0  0  0  0  0  2  0  0  0  0  0  0
  192.5750  175.6660  147.0420 N   0  0  0  0  0  0  0  0  0  0  0  0
  194.6440  174.4150  145.5150 C   0  0  0  0  0  2  0  0  0  0  0  0
  192.6720  175.2050  144.1630 C   0  0  2  0  0  3  0  0  0  0  0  0
  192.3420  174.3330  146.4400 C   0  0  0  0  0  2  0  0  0  0  0  0
  192.8630  176.6150  144.7560 C   0  0  0  0  0  2  0  0  0  0  0  0
  194.8070  175.8430  146.0830 C   0  0  0  0  0  2  0  0  0  0  0  0
  193.4340  176.5210  146.1900 C   0  0  2  0  0  3  0  0  0  0  0  0
  193.1680  174.1350  145.1560 C   0  0  2  0  0  3  0  0  0  0  0  0
  194.0300  176.2920  142.5250 O   0  0  0  0  0  1  0  0  0  0  0  0
  193.3660  175.0990  142.8130 C   0  0  0  0  0  2  0  0  0  0  0  0
  185.6150  177.3490  144.2260 C   0  0  0  0  0  2  0  0  0  0  0  0
  185.9690  178.5970  143.4220 C   0  0  2  0  0  3  0  0  0  0  0  0
  185.4200  179.8220  144.1410 C   0  0  0  0  0  1  0  0  0  0  0  0
  183.9210  178.1480  142.0120 C   0  0  0  0  0  1  0  0  0  0  0  0
  185.4000  178.5080  141.9990 C   0  0  2  0  0  3  0  0  0  0  0  0
  187.5060  177.8530  141.0240 O   0  0  0  0  0  1  0  0  0  0  0  0
  186.1590  177.5000  141.1380 C   0  0  0  0  0  2  0  0  0  0  0  0
  1  6  1  0  0  0  0
  1  8  1  0  0  0  0
  3  6  2  0  0  0  0
  3  2  1  0  0  0  0
  4  5  1  0  0  0  0
  4  7  2  0  0  0  0
  5  1  2  0  0  0  0
  7  3  1  0  0  0  0
  8  9  1  0  0  0  0
 10  9  1  0  0  0  0
 11 15  1  0  0  0  0
 12 19  1  6  0  0  0
 12 14  1  0  0  0  0
 12 17  1  0  0  0  0
 13 10  1  0  0  0  0
 15 16  1  0  0  0  0
 16 14  1  6  0  0  0
 16 10  1  0  0  0  0
 17 11  1  1  0  0  0
 17 13  1  0  0  0  0
 18 19  1  0  0  0  0
 20  7  1  0  0  0  0
 21 22  1  1  0  0  0
 21 20  1  0  0  0  0
 24 23  1  1  0  0  0
 24 21  1  0  0  0  0
 25 26  1  0  0  0  0
 26 24  1  0  0  0  0
M  END
>  <MODEL>
1

>  <REMARK>
 VINA RESULT:      -6.4      0.000      0.000
  Name = 
  8 active torsions:
  status: ('A' for Active; 'I' for Inactive)
    1  A    between atoms: N_1  and  C_17
    2  A    between atoms: C_2  and  C_3
    3  A    between atoms: C_3  and  C_17
    4  A    between atoms: C_5  and  C_22
    5  A    between atoms: C_5  and  C_25
    6  A    between atoms: C_10  and  C_26
    7  A    between atoms: C_16  and  C_22
    8  A    between atoms: C_24  and  C_25
                            x       y       z     vdW  Elec       q    Type
                         _______ _______ _______ _____ _____    ______ ____

>  <TORSDO>
F 8

$$$$
=
 OpenBabel11072408503D

 26 28  0  0  1  0  0  0  0  0999 V2000
  190.7380  176.1990  146.1700 C   0  0  0  0  0  0  0  0  0  0  0  0
  192.6980  176.6350  143.0990 N   0  0  0  0  0  1  0  0  0  0  0  0
  192.3890  176.4660  144.4790 C   0  0  0  0  0  0  0  0  0  0  0  0
  193.0660  176.2300  146.7850 C   0  0  0  0  0  3  0  0  0  0  0  0
  191.7260  176.1270  147.1540 C   0  0  0  0  0  3  0  0  0  0  0  0
  191.0890  176.3620  144.8650 N   0  0  0  0  0  0  0  0  0  0  0  0
  193.4100  176.4030  145.4420 C   0  0  0  0  0  0  0  0  0  0  0  0
  189.3030  176.0470  146.5440 C   0  0  0  0  0  2  0  0  0  0  0  0
  188.6760  177.3990  146.8570 C   0  0  0  0  0  2  0  0  0  0  0  0
  187.2380  177.2580  147.0660 N   0  0  0  0  0  0  0  0  0  0  0  0
  184.4830  177.9000  146.6490 C   0  0  0  0  0  2  0  0  0  0  0  0
  186.0950  179.2200  145.2350 C   0  0  2  0  0  3  0  0  0  0  0  0
  186.7090  178.5630  147.5250 C   0  0  0  0  0  2  0  0  0  0  0  0
  186.6900  177.8940  144.7200 C   0  0  0  0  0  2  0  0  0  0  0  0
  185.1020  176.5920  146.1060 C   0  0  0  0  0  2  0  0  0  0  0  0
  186.5940  176.8040  145.8130 C   0  0  2  0  0  3  0  0  0  0  0  0
  185.5300  179.0370  146.6570 C   0  0  2  0  0  3  0  0  0  0  0  0
  184.9350  178.8780  143.1740 O   0  0  0  0  0  1  0  0  0  0  0  0
  185.0470  179.7420  144.2630 C   0  0  0  0  0  2  0  0  0  0  0  0
  194.8540  176.4870  145.0580 C   0  0  0  0  0  2  0  0  0  0  0  0
  195.3900  175.1200  144.6400 C   0  0  2  0  0  3  0  0  0  0  0  0
  196.0410  174.4550  145.8450 C   0  0  0  0  0  1  0  0  0  0  0  0
  197.7470  174.6550  143.8570 C   0  0  0  0  0  1  0  0  0  0  0  0
  196.3970  175.2580  143.4910 C   0  0  2  0  0  3  0  0  0  0  0  0
  196.3000  176.8820  141.7110 O   0  0  0  0  0  1  0  0  0  0  0  0
  196.5910  176.7130  143.0670 C   0  0  0  0  0  2  0  0  0  0  0  0
  1  8  1  0  0  0  0
  1  5  1  0  0  0  0
  2  3  1  0  0  0  0
  3  6  1  0  0  0  0
  3  7  2  0  0  0  0
  4  5  2  0  0  0  0
  6  1  2  0  0  0  0
  7  4  1  0  0  0  0
  8  9  1  0  0  0  0
  9 10  1  0  0  0  0
 10 13  1  0  0  0  0
 12 19  1  6  0  0  0
 12 17  1  0  0  0  0
 14 12  1  0  0  0  0
 15 11  1  0  0  0  0
 16 14  1  6  0  0  0
 16 15  1  0  0  0  0
 16 10  1  0  0  0  0
 17 11  1  6  0  0  0
 17 13  1  0  0  0  0
 18 19  1  0  0  0  0
 20  7  1  0  0  0  0
 21 20  1  0  0  0  0
 21 22  1  1  0  0  0
 24 23  1  1  0  0  0
 24 21  1  0  0  0  0
 25 26  1  0  0  0  0
 26 24  1  0  0  0  0
M  END
>  <MODEL>
2

>  <REMARK>
 VINA RESULT:      -6.4      2.087      8.300
  Name = 
  8 active torsions:
  status: ('A' for Active; 'I' for Inactive)
    1  A    between atoms: N_1  and  C_17
    2  A    between atoms: C_2  and  C_3
    3  A    between atoms: C_3  and  C_17
    4  A    between atoms: C_5  and  C_22
    5  A    between atoms: C_5  and  C_25
    6  A    between atoms: C_10  and  C_26
    7  A    between atoms: C_16  and  C_22
    8  A    between atoms: C_24  and  C_25
                            x       y       z     vdW  Elec       q    Type
                         _______ _______ _______ _____ _____    ______ ____

>  <TORSDO>
F 8

$$$$
=
 OpenBabel11072408503D

 26 28  0  0  1  0  0  0  0  0999 V2000
  188.7750  175.7630  146.3240 C   0  0  0  0  0  0  0  0  0  0  0  0
  185.4960  177.2370  147.0590 N   0  0  0  0  0  1  0  0  0  0  0  0
  186.6160  176.7610  146.3190 C   0  0  0  0  0  0  0  0  0  0  0  0
  187.7470  176.3470  144.2260 C   0  0  0  0  0  3  0  0  0  0  0  0
  188.8240  175.8110  144.9290 C   0  0  0  0  0  3  0  0  0  0  0  0
  187.6800  176.2330  146.9820 N   0  0  0  0  0  0  0  0  0  0  0  0
  186.6320  176.8300  144.9160 C   0  0  0  0  0  0  0  0  0  0  0  0
  189.9010  175.1540  147.0870 C   0  0  0  0  0  2  0  0  0  0  0  0
  191.0170  174.7110  146.1510 C   0  0  0  0  0  2  0  0  0  0  0  0
  191.8740  175.8410  145.8080 N   0  0  0  0  0  0  0  0  0  0  0  0
  194.3730  177.1570  145.3650 C   0  0  0  0  0  2  0  0  0  0  0  0
  194.5610  174.7140  145.9410 C   0  0  2  0  0  3  0  0  0  0  0  0
  192.7870  176.0890  146.9470 C   0  0  0  0  0  2  0  0  0  0  0  0
  193.6130  174.3900  144.7680 C   0  0  0  0  0  2  0  0  0  0  0  0
  193.4300  176.7940  144.1960 C   0  0  0  0  0  2  0  0  0  0  0  0
  192.6100  175.5480  144.5570 C   0  0  2  0  0  3  0  0  0  0  0  0
  194.2600  176.1170  146.5010 C   0  0  2  0  0  3  0  0  0  0  0  0
  196.6370  173.5730  146.2530 O   0  0  0  0  0  1  0  0  0  0  0  0
  196.0110  174.5690  145.5040 C   0  0  0  0  0  2  0  0  0  0  0  0
  185.4730  177.3800  144.1460 C   0  0  0  0  0  2  0  0  0  0  0  0
  185.8770  178.6280  143.3660 C   0  0  2  0  0  3  0  0  0  0  0  0
  185.4400  179.8620  144.1450 C   0  0  0  0  0  1  0  0  0  0  0  0
  183.8020  178.1430  142.0080 C   0  0  0  0  0  1  0  0  0  0  0  0
  185.2460  178.6240  141.9670 C   0  0  2  0  0  3  0  0  0  0  0  0
  187.4120  177.9720  141.1300 O   0  0  0  0  0  1  0  0  0  0  0  0
  186.0380  177.7650  140.9820 C   0  0  0  0  0  2  0  0  0  0  0  0
  1  6  1  0  0  0  0
  1  8  1  0  0  0  0
  3  6  2  0  0  0  0
  3  2  1  0  0  0  0
  4  7  2  0  0  0  0
  4  5  1  0  0  0  0
  5  1  2  0  0  0  0
  7  3  1  0  0  0  0
  9  8  1  0  0  0  0
 10  9  1  0  0  0  0
 10 13  1  0  0  0  0
 12 19  1  6  0  0  0
 12 17  1  0  0  0  0
 14 12  1  0  0  0  0
 15 11  1  0  0  0  0
 16 15  1  1  0  0  0
 16 14  1  0  0  0  0
 16 10  1  0  0  0  0
 17 11  1  6  0  0  0
 17 13  1  0  0  0  0
 19 18  1  0  0  0  0
 20  7  1  0  0  0  0
 21 22  1  1  0  0  0
 21 20  1  0  0  0  0
 24 23  1  1  0  0  0
 24 21  1  0  0  0  0
 26 25  1  0  0  0  0
 26 24  1  0  0  0  0
M  END
>  <MODEL>
3

>  <REMARK>
 VINA RESULT:      -6.3      1.273      1.864
  Name = 
  8 active torsions:
  status: ('A' for Active; 'I' for Inactive)
    1  A    between atoms: N_1  and  C_17
    2  A    between atoms: C_2  and  C_3
    3  A    between atoms: C_3  and  C_17
    4  A    between atoms: C_5  and  C_22
    5  A    between atoms: C_5  and  C_25
    6  A    between atoms: C_10  and  C_26
    7  A    between atoms: C_16  and  C_22
    8  A    between atoms: C_24  and  C_25
                            x       y       z     vdW  Elec       q    Type
                         _______ _______ _______ _____ _____    ______ ____

>  <TORSDO>
F 8

$$$$
=
 OpenBabel11072408503D

 26 28  0  0  1  0  0  0  0  0999 V2000
  189.4350  176.2500  143.0710 C   0  0  0  0  0  0  0  0  0  0  0  0
  186.6990  178.1240  141.4990 N   0  0  0  0  0  1  0  0  0  0  0  0
  187.5700  177.6140  142.5040 C   0  0  0  0  0  0  0  0  0  0  0  0
  188.2850  177.4630  144.8050 C   0  0  0  0  0  3  0  0  0  0  0  0
  189.3050  176.5950  144.4180 C   0  0  0  0  0  3  0  0  0  0  0  0
  188.5740  176.7660  142.1510 N   0  0  0  0  0  0  0  0  0  0  0  0
  187.4060  177.9790  143.8500 C   0  0  0  0  0  0  0  0  0  0  0  0
  190.5460  175.3570  142.6360 C   0  0  0  0  0  2  0  0  0  0  0  0
  190.7910  174.2550  143.6570 C   0  0  0  0  0  2  0  0  0  0  0  0
  192.2200  173.9920  143.7920 N   0  0  0  0  0  0  0  0  0  0  0  0
  194.8780  174.5260  144.7020 C   0  0  0  0  0  2  0  0  0  0  0  0
  193.1430  176.1600  145.5120 C   0  0  2  0  0  3  0  0  0  0  0  0
  192.9550  175.1670  143.2690 C   0  0  0  0  0  2  0  0  0  0  0  0
  192.3300  174.9780  146.0790 C   0  0  0  0  0  2  0  0  0  0  0  0
  194.0380  173.3670  145.2860 C   0  0  0  0  0  2  0  0  0  0  0  0
  192.5450  173.7170  145.2100 C   0  0  2  0  0  3  0  0  0  0  0  0
  193.9700  175.7060  144.2930 C   0  0  2  0  0  3  0  0  0  0  0  0
  194.8040  177.7880  146.0610 O   0  0  0  0  0  1  0  0  0  0  0  0
  194.0130  176.7720  146.6000 C   0  0  0  0  0  2  0  0  0  0  0  0
  186.3320  178.9290  144.2770 C   0  0  0  0  0  2  0  0  0  0  0  0
  185.0260  178.1890  144.5570 C   0  0  2  0  0  3  0  0  0  0  0  0
  183.8810  178.9310  143.8800 C   0  0  0  0  0  1  0  0  0  0  0  0
  185.5460  179.1390  146.8400 C   0  0  0  0  0  1  0  0  0  0  0  0
  184.7770  178.0760  146.0670 C   0  0  2  0  0  3  0  0  0  0  0  0
  186.1070  176.7880  147.6110 O   0  0  0  0  0  1  0  0  0  0  0  0
  185.1390  176.6940  146.6080 C   0  0  0  0  0  2  0  0  0  0  0  0
  1  5  1  0  0  0  0
  2  3  1  0  0  0  0
  3  7  2  0  0  0  0
  5  4  2  0  0  0  0
  6  3  1  0  0  0  0
  6  1  2  0  0  0  0
  7 20  1  0  0  0  0
  7  4  1  0  0  0  0
  8  1  1  0  0  0  0
  8  9  1  0  0  0  0
  9 10  1  0  0  0  0
 10 16  1  0  0  0  0
 11 15  1  0  0  0  0
 12 14  1  0  0  0  0
 12 19  1  1  0  0  0
 13 10  1  0  0  0  0
 16 15  1  6  0  0  0
 16 14  1  0  0  0  0
 17 13  1  6  0  0  0
 17 11  1  0  0  0  0
 17 12  1  0  0  0  0
 18 19  1  0  0  0  0
 20 21  1  0  0  0  0
 21 22  1  6  0  0  0
 21 24  1  0  0  0  0
 24 26  1  0  0  0  0
 24 23  1  1  0  0  0
 26 25  1  0  0  0  0
M  END
>  <MODEL>
4

>  <REMARK>
 VINA RESULT:      -6.3      2.665      3.648
  Name = 
  8 active torsions:
  status: ('A' for Active; 'I' for Inactive)
    1  A    between atoms: N_1  and  C_17
    2  A    between atoms: C_2  and  C_3
    3  A    between atoms: C_3  and  C_17
    4  A    between atoms: C_5  and  C_22
    5  A    between atoms: C_5  and  C_25
    6  A    between atoms: C_10  and  C_26
    7  A    between atoms: C_16  and  C_22
    8  A    between atoms: C_24  and  C_25
                            x       y       z     vdW  Elec       q    Type
                         _______ _______ _______ _____ _____    ______ ____

>  <TORSDO>
F 8

$$$$
=
 OpenBabel11072408503D

 26 28  0  0  1  0  0  0  0  0999 V2000
  190.1790  175.8310  146.6540 C   0  0  0  0  0  0  0  0  0  0  0  0
  189.1480  177.7350  143.6910 N   0  0  0  0  0  1  0  0  0  0  0  0
  189.0630  176.9860  144.9000 C   0  0  0  0  0  0  0  0  0  0  0  0
  187.7740  175.9650  146.6680 C   0  0  0  0  0  3  0  0  0  0  0  0
  188.9580  175.5290  147.2620 C   0  0  0  0  0  3  0  0  0  0  0  0
  190.2030  176.5500  145.4990 N   0  0  0  0  0  0  0  0  0  0  0  0
  187.8160  176.6970  145.4790 C   0  0  0  0  0  0  0  0  0  0  0  0
  191.4540  175.4090  147.2990 C   0  0  0  0  0  2  0  0  0  0  0  0
  192.6520  176.0370  146.6010 C   0  0  0  0  0  2  0  0  0  0  0  0
  193.6030  175.0080  146.1940 N   0  0  0  0  0  0  0  0  0  0  0  0
  195.5190  173.7920  144.4540 C   0  0  0  0  0  2  0  0  0  0  0  0
  194.6520  176.0200  143.6670 C   0  0  2  0  0  3  0  0  0  0  0  0
  193.1720  174.4750  144.8810 C   0  0  0  0  0  2  0  0  0  0  0  0
  195.0790  176.6340  145.0160 C   0  0  0  0  0  2  0  0  0  0  0  0
  195.9380  174.4440  145.7920 C   0  0  0  0  0  2  0  0  0  0  0  0
  194.9670  175.5810  146.1420 C   0  0  2  0  0  3  0  0  0  0  0  0
  194.3070  174.5280  143.8430 C   0  0  2  0  0  3  0  0  0  0  0  0
  196.8110  176.9230  143.1840 O   0  0  0  0  0  1  0  0  0  0  0  0
  195.7340  176.2390  142.6200 C   0  0  0  0  0  2  0  0  0  0  0  0
  186.5380  177.1800  144.8680 C   0  0  0  0  0  2  0  0  0  0  0  0
  186.2350  178.6140  145.2940 C   0  0  2  0  0  3  0  0  0  0  0  0
  185.3990  178.5870  146.5660 C   0  0  0  0  0  1  0  0  0  0  0  0
  183.9920  179.1460  144.2600 C   0  0  0  0  0  1  0  0  0  0  0  0
  185.4960  179.3680  144.1800 C   0  0  2  0  0  3  0  0  0  0  0  0
  184.9330  178.5660  141.9770 O   0  0  0  0  0  1  0  0  0  0  0  0
  185.9930  178.9730  142.7900 C   0  0  0  0  0  2  0  0  0  0  0  0
  1  5  1  0  0  0  0
  1  8  1  0  0  0  0
  2  3  1  0  0  0  0
  3  7  2  0  0  0  0
  3  6  1  0  0  0  0
  4  5  2  0  0  0  0
  6  1  2  0  0  0  0
  7  4  1  0  0  0  0
  9  8  1  0  0  0  0
 10  9  1  0  0  0  0
 11 15  1  0  0  0  0
 12 19  1  6  0  0  0
 12 17  1  0  0  0  0
 12 14  1  0  0  0  0
 13 10  1  0  0  0  0
 15 16  1  0  0  0  0
 16 14  1  6  0  0  0
 16 10  1  0  0  0  0
 17 11  1  1  0  0  0
 17 13  1  0  0  0  0
 19 18  1  0  0  0  0
 20 21  1  0  0  0  0
 20  7  1  0  0  0  0
 21 22  1  1  0  0  0
 24 23  1  6  0  0  0
 24 21  1  0  0  0  0
 25 26  1  0  0  0  0
 26 24  1  0  0  0  0
M  END
>  <MODEL>
5

>  <REMARK>
 VINA RESULT:      -6.2      1.796      2.294
  Name = 
  8 active torsions:
  status: ('A' for Active; 'I' for Inactive)
    1  A    between atoms: N_1  and  C_17
    2  A    between atoms: C_2  and  C_3
    3  A    between atoms: C_3  and  C_17
    4  A    between atoms: C_5  and  C_22
    5  A    between atoms: C_5  and  C_25
    6  A    between atoms: C_10  and  C_26
    7  A    between atoms: C_16  and  C_22
    8  A    between atoms: C_24  and  C_25
                            x       y       z     vdW  Elec       q    Type
                         _______ _______ _______ _____ _____    ______ ____

>  <TORSDO>
F 8

$$$$
=
 OpenBabel11072408503D

 26 28  0  0  1  0  0  0  0  0999 V2000
  190.4180  177.0650  144.3100 C   0  0  0  0  0  0  0  0  0  0  0  0
  187.2760  175.8340  142.8710 N   0  0  0  0  0  1  0  0  0  0  0  0
  188.1920  176.4000  143.8030 C   0  0  0  0  0  0  0  0  0  0  0  0
  188.6870  177.3800  145.9540 C   0  0  0  0  0  3  0  0  0  0  0  0
  190.0230  177.5040  145.5760 C   0  0  0  0  0  3  0  0  0  0  0  0
  189.5010  176.5310  143.4580 N   0  0  0  0  0  0  0  0  0  0  0  0
  187.7580  176.8250  145.0700 C   0  0  0  0  0  0  0  0  0  0  0  0
  191.8350  177.2300  143.8760 C   0  0  0  0  0  2  0  0  0  0  0  0
  192.7910  176.6400  144.9040 C   0  0  0  0  0  2  0  0  0  0  0  0
  192.9990  175.2180  144.6500 N   0  0  0  0  0  0  0  0  0  0  0  0
  194.5630  172.8520  144.2830 C   0  0  0  0  0  2  0  0  0  0  0  0
  195.8950  174.9170  144.8320 C   0  0  2  0  0  3  0  0  0  0  0  0
  193.8640  175.0850  143.4550 C   0  0  0  0  0  2  0  0  0  0  0  0
  195.0280  175.1110  146.0930 C   0  0  0  0  0  2  0  0  0  0  0  0
  193.7190  173.0760  145.5590 C   0  0  0  0  0  2  0  0  0  0  0  0
  193.5970  174.5800  145.8450 C   0  0  2  0  0  3  0  0  0  0  0  0
  195.0890  174.1960  143.7340 C   0  0  2  0  0  3  0  0  0  0  0  0
  197.1100  173.6950  146.4880 O   0  0  0  0  0  1  0  0  0  0  0  0
  197.1780  174.1780  145.1810 C   0  0  0  0  0  2  0  0  0  0  0  0
  186.3230  176.7220  145.4800 C   0  0  0  0  0  2  0  0  0  0  0  0
  185.6850  178.1050  145.5900 C   0  0  2  0  0  3  0  0  0  0  0  0
  184.3570  177.9810  146.3250 C   0  0  0  0  0  1  0  0  0  0  0  0
  185.5990  180.2370  144.2370 C   0  0  0  0  0  1  0  0  0  0  0  0
  185.4750  178.7200  144.2000 C   0  0  2  0  0  3  0  0  0  0  0  0
  184.2800  177.8110  142.3130 O   0  0  0  0  0  1  0  0  0  0  0  0
  184.1250  178.3360  143.5980 C   0  0  0  0  0  2  0  0  0  0  0  0
  1  5  1  0  0  0  0
  2  3  1  0  0  0  0
  3  7  2  0  0  0  0
  5  4  2  0  0  0  0
  6  3  1  0  0  0  0
  6  1  2  0  0  0  0
  7 20  1  0  0  0  0
  7  4  1  0  0  0  0
  8  1  1  0  0  0  0
  8  9  1  0  0  0  0
 10  9  1  0  0  0  0
 10 16  1  0  0  0  0
 11 15  1  0  0  0  0
 12 19  1  1  0  0  0
 12 14  1  0  0  0  0
 13 10  1  0  0  0  0
 16 15  1  6  0  0  0
 16 14  1  0  0  0  0
 17 13  1  1  0  0  0
 17 11  1  0  0  0  0
 17 12  1  0  0  0  0
 19 18  1  0  0  0  0
 20 21  1  0  0  0  0
 21 22  1  6  0  0  0
 24 23  1  1  0  0  0
 24 21  1  0  0  0  0
 25 26  1  0  0  0  0
 26 24  1  0  0  0  0
M  END
>  <MODEL>
6

>  <REMARK>
 VINA RESULT:      -6.2      2.302      3.154
  Name = 
  8 active torsions:
  status: ('A' for Active; 'I' for Inactive)
    1  A    between atoms: N_1  and  C_17
    2  A    between atoms: C_2  and  C_3
    3  A    between atoms: C_3  and  C_17
    4  A    between atoms: C_5  and  C_22
    5  A    between atoms: C_5  and  C_25
    6  A    between atoms: C_10  and  C_26
    7  A    between atoms: C_16  and  C_22
    8  A    between atoms: C_24  and  C_25
                            x       y       z     vdW  Elec       q    Type
                         _______ _______ _______ _____ _____    ______ ____

>  <TORSDO>
F 8

$$$$
=
 OpenBabel11072408503D

 26 28  0  0  1  0  0  0  0  0999 V2000
  190.9470  175.5770  146.5660 C   0  0  0  0  0  0  0  0  0  0  0  0
  189.2600  177.7900  144.1730 N   0  0  0  0  0  1  0  0  0  0  0  0
  189.4490  176.8540  145.2300 C   0  0  0  0  0  0  0  0  0  0  0  0
  188.5770  175.4180  146.9650 C   0  0  0  0  0  3  0  0  0  0  0  0
  189.8790  175.0390  147.2870 C   0  0  0  0  0  3  0  0  0  0  0  0
  190.7100  176.4680  145.5640 N   0  0  0  0  0  0  0  0  0  0  0  0
  188.3500  176.3300  145.9310 C   0  0  0  0  0  0  0  0  0  0  0  0
  192.3460  175.2130  146.9270 C   0  0  0  0  0  2  0  0  0  0  0  0
  193.3180  176.3100  146.5140 C   0  0  0  0  0  2  0  0  0  0  0  0
  194.5000  175.7330  145.8820 N   0  0  0  0  0  0  0  0  0  0  0  0
  195.9190  174.3300  143.8340 C   0  0  0  0  0  2  0  0  0  0  0  0
  193.4680  174.6690  143.3700 C   0  0  2  0  0  3  0  0  0  0  0  0
  194.2500  174.2880  145.6710 C   0  0  0  0  0  2  0  0  0  0  0  0
  193.6640  176.1840  143.5780 C   0  0  0  0  0  2  0  0  0  0  0  0
  196.0770  175.8550  144.0300 C   0  0  0  0  0  2  0  0  0  0  0  0
  194.7830  176.4410  144.6130 C   0  0  2  0  0  3  0  0  0  0  0  0
  194.4900  173.8760  144.2070 C   0  0  2  0  0  3  0  0  0  0  0  0
  193.8290  175.4720  141.1480 O   0  0  0  0  0  1  0  0  0  0  0  0
  193.5480  174.3240  141.8900 C   0  0  0  0  0  2  0  0  0  0  0  0
  186.9490  176.7470  145.6130 C   0  0  0  0  0  2  0  0  0  0  0  0
  186.5680  178.0130  146.3770 C   0  0  2  0  0  3  0  0  0  0  0  0
  185.9480  177.6190  147.7110 C   0  0  0  0  0  1  0  0  0  0  0  0
  184.1520  178.6590  146.0170 C   0  0  0  0  0  1  0  0  0  0  0  0
  185.5900  178.8680  145.5610 C   0  0  2  0  0  3  0  0  0  0  0  0
  184.4510  178.2170  143.5380 O   0  0  0  0  0  1  0  0  0  0  0  0
  185.6920  178.5870  144.0630 C   0  0  0  0  0  2  0  0  0  0  0  0
  1  8  1  0  0  0  0
  1  5  1  0  0  0  0
  2  3  1  0  0  0  0
  3  6  1  0  0  0  0
  3  7  2  0  0  0  0
  4  5  2  0  0  0  0
  6  1  2  0  0  0  0
  7  4  1  0  0  0  0
  9  8  1  0  0  0  0
 10  9  1  0  0  0  0
 11 15  1  0  0  0  0
 12 19  1  6  0  0  0
 12 14  1  0  0  0  0
 12 17  1  0  0  0  0
 13 10  1  0  0  0  0
 15 16  1  0  0  0  0
 16 14  1  6  0  0  0
 16 10  1  0  0  0  0
 17 11  1  6  0  0  0
 17 13  1  0  0  0  0
 18 19  1  0  0  0  0
 20  7  1  0  0  0  0
 20 21  1  0  0  0  0
 21 22  1  1  0  0  0
 24 23  1  1  0  0  0
 24 21  1  0  0  0  0
 25 26  1  0  0  0  0
 26 24  1  0  0  0  0
M  END
>  <MODEL>
7

>  <REMARK>
 VINA RESULT:      -6.2      1.937      2.727
  Name = 
  8 active torsions:
  status: ('A' for Active; 'I' for Inactive)
    1  A    between atoms: N_1  and  C_17
    2  A    between atoms: C_2  and  C_3
    3  A    between atoms: C_3  and  C_17
    4  A    between atoms: C_5  and  C_22
    5  A    between atoms: C_5  and  C_25
    6  A    between atoms: C_10  and  C_26
    7  A    between atoms: C_16  and  C_22
    8  A    between atoms: C_24  and  C_25
                            x       y       z     vdW  Elec       q    Type
                         _______ _______ _______ _____ _____    ______ ____

>  <TORSDO>
F 8

$$$$
=
 OpenBabel11072408503D

 26 28  0  0  1  0  0  0  0  0999 V2000
  190.4980  176.8660  143.1490 C   0  0  0  0  0  0  0  0  0  0  0  0
  187.5980  174.8070  142.2470 N   0  0  0  0  0  1  0  0  0  0  0  0
  188.3860  175.8050  142.8890 C   0  0  0  0  0  0  0  0  0  0  0  0
  188.6230  177.6310  144.4520 C   0  0  0  0  0  3  0  0  0  0  0  0
  189.9680  177.7380  144.1030 C   0  0  0  0  0  3  0  0  0  0  0  0
  189.7010  175.9300  142.5660 N   0  0  0  0  0  0  0  0  0  0  0  0
  187.8180  176.6610  143.8480 C   0  0  0  0  0  0  0  0  0  0  0  0
  191.9240  176.9960  142.7360 C   0  0  0  0  0  2  0  0  0  0  0  0
  192.6080  175.6360  142.7000 C   0  0  0  0  0  2  0  0  0  0  0  0
  193.6290  175.5510  143.7390 N   0  0  0  0  0  0  0  0  0  0  0  0
  194.5910  175.5370  146.4310 C   0  0  0  0  0  2  0  0  0  0  0  0
  192.0910  175.7280  146.2110 C   0  0  2  0  0  3  0  0  0  0  0  0
  193.5640  176.7890  144.5510 C   0  0  0  0  0  2  0  0  0  0  0  0
  192.0930  174.4430  145.3590 C   0  0  0  0  0  2  0  0  0  0  0  0
  194.5530  174.2490  145.5780 C   0  0  0  0  0  2  0  0  0  0  0  0
  193.4100  174.3360  144.5560 C   0  0  2  0  0  3  0  0  0  0  0  0
  193.4280  176.4790  146.0520 C   0  0  2  0  0  3  0  0  0  0  0  0
  191.3070  176.5310  148.3210 O   0  0  0  0  0  1  0  0  0  0  0  0
  191.7880  175.3980  147.6650 C   0  0  0  0  0  2  0  0  0  0  0  0
  186.3700  176.5750  144.2140 C   0  0  0  0  0  2  0  0  0  0  0  0
  186.0170  177.5940  145.2960 C   0  0  2  0  0  3  0  0  0  0  0  0
  185.4570  176.8580  146.5050 C   0  0  0  0  0  1  0  0  0  0  0  0
  183.8580  178.8230  145.7530 C   0  0  0  0  0  1  0  0  0  0  0  0
  185.0020  178.6160  144.7690 C   0  0  2  0  0  3  0  0  0  0  0  0
  185.0820  178.8960  142.3750 O   0  0  0  0  0  1  0  0  0  0  0  0
  184.4330  178.2150  143.4090 C   0  0  0  0  0  2  0  0  0  0  0  0
  1  5  1  0  0  0  0
  2  3  1  0  0  0  0
  3  7  2  0  0  0  0
  5  4  2  0  0  0  0
  6  3  1  0  0  0  0
  6  1  2  0  0  0  0
  7 20  1  0  0  0  0
  7  4  1  0  0  0  0
  8  1  1  0  0  0  0
  9  8  1  0  0  0  0
  9 10  1  0  0  0  0
 10 13  1  0  0  0  0
 10 16  1  0  0  0  0
 12 19  1  1  0  0  0
 14 12  1  0  0  0  0
 15 11  1  0  0  0  0
 16 14  1  1  0  0  0
 16 15  1  0  0  0  0
 17 13  1  6  0  0  0
 17 12  1  0  0  0  0
 17 11  1  0  0  0  0
 19 18  1  0  0  0  0
 20 21  1  0  0  0  0
 21 22  1  1  0  0  0
 24 21  1  0  0  0  0
 24 23  1  1  0  0  0
 25 26  1  0  0  0  0
 26 24  1  0  0  0  0
M  END
>  <MODEL>
8

>  <REMARK>
 VINA RESULT:      -6.2      2.486      3.525
  Name = 
  8 active torsions:
  status: ('A' for Active; 'I' for Inactive)
    1  A    between atoms: N_1  and  C_17
    2  A    between atoms: C_2  and  C_3
    3  A    between atoms: C_3  and  C_17
    4  A    between atoms: C_5  and  C_22
    5  A    between atoms: C_5  and  C_25
    6  A    between atoms: C_10  and  C_26
    7  A    between atoms: C_16  and  C_22
    8  A    between atoms: C_24  and  C_25
                            x       y       z     vdW  Elec       q    Type
                         _______ _______ _______ _____ _____    ______ ____

>  <TORSDO>
F 8

$$$$
=
 OpenBabel11072408503D

 26 28  0  0  1  0  0  0  0  0999 V2000
  189.1550  175.4970  145.1890 C   0  0  0  0  0  0  0  0  0  0  0  0
  187.5480  175.7200  141.8970 N   0  0  0  0  0  1  0  0  0  0  0  0
  187.9360  176.0600  143.2250 C   0  0  0  0  0  0  0  0  0  0  0  0
  187.8960  177.5490  145.1250 C   0  0  0  0  0  3  0  0  0  0  0  0
  188.7330  176.6730  145.8140 C   0  0  0  0  0  3  0  0  0  0  0  0
  188.7530  175.2210  143.9180 N   0  0  0  0  0  0  0  0  0  0  0  0
  187.4880  177.2490  143.8230 C   0  0  0  0  0  0  0  0  0  0  0  0
  190.0840  174.5720  145.8960 C   0  0  0  0  0  2  0  0  0  0  0  0
  191.0050  175.3380  146.8370 C   0  0  0  0  0  2  0  0  0  0  0  0
  192.3920  174.9290  146.6380 N   0  0  0  0  0  0  0  0  0  0  0  0
  194.7950  174.5660  145.1320 C   0  0  0  0  0  2  0  0  0  0  0  0
  192.9260  175.6860  143.8720 C   0  0  2  0  0  3  0  0  0  0  0  0
  192.4270  173.9420  145.5330 C   0  0  0  0  0  2  0  0  0  0  0  0
  192.8400  176.7440  144.9900 C   0  0  0  0  0  2  0  0  0  0  0  0
  194.6830  175.6470  146.2310 C   0  0  0  0  0  2  0  0  0  0  0  0
  193.2260  176.1180  146.3500 C   0  0  2  0  0  3  0  0  0  0  0  0
  193.4320  174.3460  144.4400 C   0  0  2  0  0  3  0  0  0  0  0  0
  193.4750  175.5200  141.5520 O   0  0  0  0  0  1  0  0  0  0  0  0
  193.7980  176.1910  142.7320 C   0  0  0  0  0  2  0  0  0  0  0  0
  186.6090  178.2120  143.0880 C   0  0  0  0  0  2  0  0  0  0  0  0
  185.1340  177.9070  143.3370 C   0  0  2  0  0  3  0  0  0  0  0  0
  184.3970  177.9020  142.0040 C   0  0  0  0  0  1  0  0  0  0  0  0
  185.3550  180.2100  144.3510 C   0  0  0  0  0  1  0  0  0  0  0  0
  184.5180  178.9400  144.2900 C   0  0  2  0  0  3  0  0  0  0  0  0
  185.1130  179.0930  146.6210 O   0  0  0  0  0  1  0  0  0  0  0  0
  184.3360  178.3840  145.7010 C   0  0  0  0  0  2  0  0  0  0  0  0
  1  5  1  0  0  0  0
  1  8  1  0  0  0  0
  2  3  1  0  0  0  0
  3  7  2  0  0  0  0
  3  6  1  0  0  0  0
  4  5  2  0  0  0  0
  6  1  2  0  0  0  0
  7  4  1  0  0  0  0
  8  9  1  0  0  0  0
 10  9  1  0  0  0  0
 11 15  1  0  0  0  0
 12 19  1  6  0  0  0
 12 17  1  0  0  0  0
 12 14  1  0  0  0  0
 13 10  1  0  0  0  0
 15 16  1  0  0  0  0
 16 14  1  6  0  0  0
 16 10  1  0  0  0  0
 17 11  1  1  0  0  0
 17 13  1  0  0  0  0
 18 19  1  0  0  0  0
 20 21  1  0  0  0  0
 20  7  1  0  0  0  0
 21 22  1  6  0  0  0
 21 24  1  0  0  0  0
 24 23  1  1  0  0  0
 24 26  1  0  0  0  0
 26 25  1  0  0  0  0
M  END
>  <MODEL>
9

>  <REMARK>
 VINA RESULT:      -6.1      1.964      2.545
  Name = 
  8 active torsions:
  status: ('A' for Active; 'I' for Inactive)
    1  A    between atoms: N_1  and  C_17
    2  A    between atoms: C_2  and  C_3
    3  A    between atoms: C_3  and  C_17
    4  A    between atoms: C_5  and  C_22
    5  A    between atoms: C_5  and  C_25
    6  A    between atoms: C_10  and  C_26
    7  A    between atoms: C_16  and  C_22
    8  A    between atoms: C_24  and  C_25
                            x       y       z     vdW  Elec       q    Type
                         _______ _______ _______ _____ _____    ______ ____

>  <TORSDO>
F 8

$$$$
