=
 OpenBabel11062418163D

 49 52  0  0  1  0  0  0  0  0999 V2000
  192.3230  172.7960  139.3450 C   0  0  0  0  0  2  0  0  0  0  0  0
  191.6170  175.9610  146.6340 C   0  0  2  0  0  3  0  0  0  0  0  0
  193.1020  174.1080  146.1040 N   0  0  0  0  0  2  0  0  0  0  0  0
  190.9050  177.1860  146.0480 C   0  0  0  0  0  2  0  0  0  0  0  0
  189.3930  173.6400  138.7470 C   0  0  2  0  0  3  0  0  0  0  0  0
  193.2060  172.9740  145.1970 C   0  0  2  0  0  3  0  0  0  0  0  0
  189.9110  174.9500  142.1340 C   0  0  2  0  0  3  0  0  0  0  0  0
  195.4440  173.9700  144.7950 O   0  0  0  0  0  1  0  0  0  0  0  0
  187.3390  177.3680  146.3660 C   0  0  0  0  0  0  0  0  0  0  0  0
  189.9830  173.3240  140.1330 C   0  0  1  0  0  3  0  0  0  0  0  0
  189.9550  174.2560  143.4860 C   0  0  0  0  0  2  0  0  0  0  0  0
  194.2990  172.0380  145.7100 C   0  0  0  0  0  2  0  0  0  0  0  0
  193.7910  173.1440  139.5560 C   0  0  0  0  0  2  0  0  0  0  0  0
  192.1240  175.0250  145.5500 C   0  0  0  0  0  2  0  0  0  0  0  0
  189.7410  176.7330  143.7970 C   0  0  0  0  0  2  0  0  0  0  0  0
  189.0660  175.4720  143.2860 C   0  0  1  0  0  3  0  0  0  0  0  0
  191.4590  173.7350  140.1630 C   0  0  0  0  0  2  0  0  0  0  0  0
  189.6540  176.8610  145.2820 C   0  0  0  0  0  0  0  0  0  0  0  0
  193.8430  174.2250  142.1610 O   0  0  0  0  0  0  0  0  0  0  0  0
  188.2290  174.9030  140.2910 C   0  0  0  0  0  0  0  0  0  0  0  0
  188.4030  174.6310  138.9530 O   0  0  0  0  0  0  0  0  0  0  0  0
  194.2980  172.4760  140.7120 O   0  0  0  0  0  0  0  0  0  0  0  0
  194.5670  172.9240  144.5140 C   0  0  1  0  0  0  0  0  0  0  0  0
  194.2460  173.0380  141.9940 C   0  0  0  0  0  0  0  0  0  0  0  0
  194.7150  172.2120  143.1590 C   0  0  2  0  0  3  0  0  0  0  0  0
  190.7480  175.2340  147.6540 C   0  0  0  0  0  1  0  0  0  0  0  0
  187.3680  175.7170  140.7120 O   0  0  0  0  0  0  0  0  0  0  0  0
  189.1060  174.0870  141.1610 C   0  0  2  0  0  3  0  0  0  0  0  0
  188.5010  177.1140  145.8290 C   0  0  0  0  0  0  0  0  0  0  0  0
  187.2590  178.2340  147.5540 C   0  0  0  0  0  3  0  0  0  0  0  0
  186.1570  178.5290  148.0880 O   0  0  0  0  0  0  0  0  0  0  0  0
  189.2910  172.1810  136.8320 O   0  0  0  0  0  1  0  0  0  0  0  0
  188.7810  172.3910  138.1190 C   0  0  0  0  0  2  0  0  0  0  0  0
  186.2040  176.7770  145.7890 O   0  0  0  0  0  0  0  0  0  0  0  0
  185.5380  177.2240  144.6370 C   0  0  0  0  0  0  0  0  0  0  0  0
  185.6620  176.6350  143.5330 O   0  0  0  0  0  0  0  0  0  0  0  0
  184.6200  178.3870  144.7390 C   0  0  0  0  0  2  0  0  0  0  0  0
  185.3430  179.6490  144.3110 C   0  0  0  0  0  1  0  0  0  0  0  0
  194.0740  170.9610  143.1440 O   0  0  0  0  0  0  0  0  0  0  0  0
  192.8490  171.2150  142.7180 O   0  0  0  0  0  0  0  0  0  0  0  0
  191.1920  170.1820  141.5530 O   0  0  0  0  0  1  0  0  0  0  0  0
  192.3510  169.9800  142.2980 C   0  0  1  0  0  3  0  0  0  0  0  0
  193.3060  169.3410  141.5080 O   0  0  0  0  0  0  0  0  0  0  0  0
  192.6640  169.1260  140.2940 C   0  0  0  0  0  2  0  0  0  0  0  0
  193.6780  169.2000  139.1670 C   0  0  0  0  0  2  0  0  0  0  0  0
  192.8130  168.9480  137.5430 P   0  0  1  0  0  0  0  0  0  0  0  0
  191.3450  169.7490  138.0110 O   0  0  0  0  0  1  0  0  0  0  0  0
  193.5500  170.4160  136.6730 C   0  0  0  0  0  2  0  0  0  0  0  0
  192.4960  171.1750  136.0140 N   0  0  0  0  0  1  0  0  0  0  0  0
  1 13  1  0  0  0  0
  1 17  1  0  0  0  0
  2 26  1  1  0  0  0
  4  2  1  0  0  0  0
  5 33  1  1  0  0  0
  5 21  1  0  0  0  0
  5 10  1  0  0  0  0
  6 12  1  1  0  0  0
  6  3  1  0  0  0  0
  7 16  1  0  0  0  0
  7 11  1  1  0  0  0
  9 30  1  0  0  0  0
 10 17  1  6  0  0  0
 10 28  1  0  0  0  0
 13 22  1  0  0  0  0
 14  3  1  0  0  0  0
 14  2  1  0  0  0  0
 15 18  1  0  0  0  0
 16 11  1  1  0  0  0
 16 15  1  0  0  0  0
 18 29  2  0  0  0  0
 18  4  1  0  0  0  0
 20 27  2  0  0  0  0
 21 20  1  0  0  0  0
 22 24  1  0  0  0  0
 23  8  1  1  0  0  0
 23  6  1  0  0  0  0
 23 12  1  0  0  0  0
 24 19  2  0  0  0  0
 24 25  1  0  0  0  0
 25 39  1  1  0  0  0
 25 23  1  0  0  0  0
 28 20  1  6  0  0  0
 28  7  1  0  0  0  0
 29  9  2  0  0  0  0
 30 31  2  0  0  0  0
 32 33  1  0  0  0  0
 34  9  1  0  0  0  0
 35 37  1  0  0  0  0
 35 34  1  0  0  0  0
 36 35  2  0  0  0  0
 38 37  1  0  0  0  0
 40 39  1  0  0  0  0
 42 41  1  6  0  0  0
 42 40  1  0  0  0  0
 43 42  1  0  0  0  0
 44 43  1  0  0  0  0
 45 44  1  0  0  0  0
 46 47  1  1  0  0  0
 46 45  1  0  0  0  0
 48 46  1  0  0  0  0
 49 48  1  0  0  0  0
M  END
>  <MODEL>
1

>  <REMARK>
 VINA RESULT:      -6.1      0.000      0.000
  Name = 
  13 active torsions:
  status: ('A' for Active; 'I' for Inactive)
    1  A    between atoms: C_2  and  P_27
    2  A    between atoms: O_5  and  C_20
    3  A    between atoms: O_5  and  C_21
    4  A    between atoms: O_6  and  C_12
    5  A    between atoms: O_6  and  O_14
    6  A    between atoms: C_7  and  C_21
    7  A    between atoms: C_9  and  C_20
    8  A    between atoms: C_11  and  C_43
    9  A    between atoms: C_12  and  O_16
   10  A    between atoms: O_14  and  C_44
   11  A    between atoms: O_16  and  C_17
   12  A    between atoms: C_17  and  C_45
   13  A    between atoms: P_27  and  C_45
                            x       y       z     vdW  Elec       q    Type
                         _______ _______ _______ _____ _____    ______ ____

>  <TORSDO>
F 13

$$$$
=
 OpenBabel11062418163D

 49 52  0  0  1  0  0  0  0  0999 V2000
  194.6960  175.4600  145.3730 C   0  0  0  0  0  2  0  0  0  0  0  0
  190.0770  173.4100  139.2000 C   0  0  2  0  0  3  0  0  0  0  0  0
  189.2500  174.5420  141.1880 N   0  0  0  0  0  2  0  0  0  0  0  0
  191.3180  173.1790  138.3300 C   0  0  0  0  0  2  0  0  0  0  0  0
  196.5760  173.0810  144.6950 C   0  0  2  0  0  3  0  0  0  0  0  0
  189.5200  174.6500  142.6140 C   0  0  2  0  0  3  0  0  0  0  0  0
  194.0660  172.8820  142.0270 C   0  0  2  0  0  3  0  0  0  0  0  0
  189.4720  177.0710  142.0650 O   0  0  0  0  0  1  0  0  0  0  0  0
  192.3820  169.8010  137.7800 C   0  0  0  0  0  0  0  0  0  0  0  0
  195.0700  173.1660  144.3850 C   0  0  1  0  0  3  0  0  0  0  0  0
  192.6300  172.3850  142.0310 C   0  0  0  0  0  2  0  0  0  0  0  0
  188.3220  175.3200  143.2870 C   0  0  0  0  0  2  0  0  0  0  0  0
  194.1410  176.8450  145.0680 C   0  0  0  0  0  2  0  0  0  0  0  0
  190.4330  173.9880  140.5590 C   0  0  0  0  0  2  0  0  0  0  0  0
  193.4450  172.6370  139.6750 C   0  0  0  0  0  2  0  0  0  0  0  0
  193.6040  171.8780  140.9820 C   0  0  1  0  0  3  0  0  0  0  0  0
  194.6910  174.6250  144.1070 C   0  0  0  0  0  2  0  0  0  0  0  0
  192.2750  172.1600  138.8810 C   0  0  0  0  0  0  0  0  0  0  0  0
  192.3630  176.3850  142.9270 O   0  0  0  0  0  0  0  0  0  0  0  0
  196.1950  171.8290  142.7910 C   0  0  0  0  0  0  0  0  0  0  0  0
  197.1530  172.3140  143.6530 O   0  0  0  0  0  0  0  0  0  0  0  0
  192.7160  176.8430  145.1700 O   0  0  0  0  0  0  0  0  0  0  0  0
  189.5950  176.1050  143.0620 C   0  0  1  0  0  0  0  0  0  0  0  0
  191.8810  176.5500  144.0850 C   0  0  0  0  0  0  0  0  0  0  0  0
  190.3980  176.4750  144.3210 C   0  0  2  0  0  3  0  0  0  0  0  0
  189.2290  172.1480  139.3220 C   0  0  0  0  0  1  0  0  0  0  0  0
  196.4740  171.0830  141.8180 O   0  0  0  0  0  0  0  0  0  0  0  0
  194.8210  172.2210  143.1800 C   0  0  2  0  0  3  0  0  0  0  0  0
  192.3230  170.9830  138.3290 C   0  0  0  0  0  0  0  0  0  0  0  0
  191.7590  169.5750  136.4650 C   0  0  0  0  0  3  0  0  0  0  0  0
  191.1930  168.4880  136.1750 O   0  0  0  0  0  0  0  0  0  0  0  0
  197.1790  171.0740  145.8850 O   0  0  0  0  0  1  0  0  0  0  0  0
  196.8160  172.4170  146.0470 C   0  0  0  0  0  2  0  0  0  0  0  0
  193.0310  168.7770  138.4890 O   0  0  0  0  0  0  0  0  0  0  0  0
  192.7730  168.4020  139.8160 C   0  0  0  0  0  0  0  0  0  0  0  0
  193.6940  168.3100  140.6660 O   0  0  0  0  0  0  0  0  0  0  0  0
  191.3690  168.1660  140.2400 C   0  0  0  0  0  2  0  0  0  0  0  0
  191.0210  169.0840  141.3950 C   0  0  0  0  0  1  0  0  0  0  0  0
  190.1310  175.6090  145.3950 O   0  0  0  0  0  0  0  0  0  0  0  0
  189.6560  176.3910  146.3480 O   0  0  0  0  0  0  0  0  0  0  0  0
  188.6430  174.8090  147.6290 O   0  0  0  0  0  1  0  0  0  0  0  0
  188.4290  175.8240  146.7000 C   0  0  1  0  0  3  0  0  0  0  0  0
  187.6130  176.8040  147.2640 O   0  0  0  0  0  0  0  0  0  0  0  0
  187.0800  177.4820  146.1740 C   0  0  0  0  0  2  0  0  0  0  0  0
  185.6860  176.9560  145.8840 C   0  0  0  0  0  2  0  0  0  0  0  0
  184.4410  178.2920  146.2190 P   0  0  1  0  0  0  0  0  0  0  0  0
  185.5800  179.4150  146.8930 O   0  0  0  0  0  1  0  0  0  0  0  0
  184.4470  179.0290  144.5130 C   0  0  0  0  0  2  0  0  0  0  0  0
  184.5450  177.9680  143.5200 N   0  0  0  0  0  1  0  0  0  0  0  0
  2 26  1  1  0  0  0
  2 14  1  0  0  0  0
  3  6  1  0  0  0  0
  4 18  1  0  0  0  0
  4  2  1  0  0  0  0
  5 33  1  1  0  0  0
  6 23  1  0  0  0  0
  6 12  1  1  0  0  0
  7 11  1  1  0  0  0
  7 28  1  0  0  0  0
  9 29  2  0  0  0  0
  9 34  1  0  0  0  0
 10 17  1  6  0  0  0
 10  5  1  0  0  0  0
 13 22  1  0  0  0  0
 13  1  1  0  0  0  0
 14  3  1  0  0  0  0
 16 15  1  6  0  0  0
 16  7  1  0  0  0  0
 16 11  1  0  0  0  0
 17  1  1  0  0  0  0
 18 15  1  0  0  0  0
 19 24  2  0  0  0  0
 20 21  1  0  0  0  0
 21  5  1  0  0  0  0
 23  8  1  6  0  0  0
 23 12  1  0  0  0  0
 23 25  1  0  0  0  0
 24 25  1  0  0  0  0
 24 22  1  0  0  0  0
 25 39  1  1  0  0  0
 27 20  2  0  0  0  0
 28 20  1  6  0  0  0
 28 10  1  0  0  0  0
 29 18  2  0  0  0  0
 30  9  1  0  0  0  0
 31 30  2  0  0  0  0
 32 33  1  0  0  0  0
 34 35  1  0  0  0  0
 35 37  1  0  0  0  0
 35 36  2  0  0  0  0
 37 38  1  0  0  0  0
 39 40  1  0  0  0  0
 40 42  1  0  0  0  0
 42 43  1  0  0  0  0
 42 41  1  1  0  0  0
 44 43  1  0  0  0  0
 45 44  1  0  0  0  0
 45 46  1  0  0  0  0
 46 47  1  1  0  0  0
 48 46  1  0  0  0  0
 49 48  1  0  0  0  0
M  END
>  <MODEL>
2

>  <REMARK>
 VINA RESULT:      -6.1      3.376      9.705
  Name = 
  13 active torsions:
  status: ('A' for Active; 'I' for Inactive)
    1  A    between atoms: C_2  and  P_27
    2  A    between atoms: O_5  and  C_20
    3  A    between atoms: O_5  and  C_21
    4  A    between atoms: O_6  and  C_12
    5  A    between atoms: O_6  and  O_14
    6  A    between atoms: C_7  and  C_21
    7  A    between atoms: C_9  and  C_20
    8  A    between atoms: C_11  and  C_43
    9  A    between atoms: C_12  and  O_16
   10  A    between atoms: O_14  and  C_44
   11  A    between atoms: O_16  and  C_17
   12  A    between atoms: C_17  and  C_45
   13  A    between atoms: P_27  and  C_45
                            x       y       z     vdW  Elec       q    Type
                         _______ _______ _______ _____ _____    ______ ____

>  <TORSDO>
F 13

$$$$
=
 OpenBabel11062418163D

 49 52  0  0  1  0  0  0  0  0999 V2000
  190.4460  174.1730  136.7800 C   0  0  0  0  0  2  0  0  0  0  0  0
  192.6610  172.4200  144.2410 C   0  0  2  0  0  3  0  0  0  0  0  0
  190.5380  173.4640  143.6720 N   0  0  0  0  0  2  0  0  0  0  0  0
  193.7790  171.5160  143.7110 C   0  0  0  0  0  2  0  0  0  0  0  0
  193.4420  174.4870  136.0160 C   0  0  2  0  0  3  0  0  0  0  0  0
  189.9520  174.3500  142.6780 C   0  0  2  0  0  3  0  0  0  0  0  0
  193.6320  173.4860  139.5390 C   0  0  2  0  0  3  0  0  0  0  0  0
  188.2850  172.5130  142.5590 O   0  0  0  0  0  1  0  0  0  0  0  0
  197.1290  172.7900  143.7420 C   0  0  0  0  0  0  0  0  0  0  0  0
  192.8320  174.7050  137.4120 C   0  0  1  0  0  3  0  0  0  0  0  0
  193.3700  174.2600  140.8210 C   0  0  0  0  0  2  0  0  0  0  0  0
  188.5970  174.8340  143.1940 C   0  0  0  0  0  2  0  0  0  0  0  0
  189.2510  173.3020  137.1450 C   0  0  0  0  0  2  0  0  0  0  0  0
  191.7770  172.9470  143.1230 C   0  0  0  0  0  2  0  0  0  0  0  0
  194.5710  172.1220  141.3380 C   0  0  0  0  0  2  0  0  0  0  0  0
  194.6630  173.4780  140.6580 C   0  0  1  0  0  3  0  0  0  0  0  0
  191.6470  173.7520  137.6040 C   0  0  0  0  0  2  0  0  0  0  0  0
  194.7620  172.2140  142.8150 C   0  0  0  0  0  0  0  0  0  0  0  0
  189.7440  172.6020  139.8330 O   0  0  0  0  0  0  0  0  0  0  0  0
  195.0770  173.9740  137.5650 C   0  0  0  0  0  0  0  0  0  0  0  0
  194.7530  173.9970  136.2260 O   0  0  0  0  0  0  0  0  0  0  0  0
  188.5670  173.8470  138.2750 O   0  0  0  0  0  0  0  0  0  0  0  0
  188.6570  173.7800  142.1110 C   0  0  1  0  0  0  0  0  0  0  0  0
  188.8920  173.5060  139.5930 C   0  0  0  0  0  0  0  0  0  0  0  0
  188.1810  174.2120  140.7130 C   0  0  2  0  0  3  0  0  0  0  0  0
  193.2070  173.5460  145.1140 C   0  0  0  0  0  1  0  0  0  0  0  0
  196.2090  173.6200  137.9830 O   0  0  0  0  0  0  0  0  0  0  0  0
  193.9830  174.4750  138.4280 C   0  0  2  0  0  3  0  0  0  0  0  0
  195.9420  172.5010  143.2830 C   0  0  0  0  0  0  0  0  0  0  0  0
  197.5990  172.1720  144.9920 C   0  0  0  0  0  3  0  0  0  0  0  0
  197.1350  172.5050  146.1150 O   0  0  0  0  0  0  0  0  0  0  0  0
  192.7700  176.7980  135.8990 O   0  0  0  0  0  1  0  0  0  0  0  0
  193.4750  175.7930  135.2270 C   0  0  0  0  0  2  0  0  0  0  0  0
  197.9080  173.7080  143.0190 O   0  0  0  0  0  0  0  0  0  0  0  0
  197.4970  174.9770  142.5860 C   0  0  0  0  0  0  0  0  0  0  0  0
  197.6020  175.3300  141.3830 O   0  0  0  0  0  0  0  0  0  0  0  0
  196.8680  175.9050  143.5610 C   0  0  0  0  0  2  0  0  0  0  0  0
  195.4370  176.1870  143.1480 C   0  0  0  0  0  1  0  0  0  0  0  0
  188.2650  175.6020  140.5300 O   0  0  0  0  0  0  0  0  0  0  0  0
  187.0580  175.9640  140.1310 O   0  0  0  0  0  0  0  0  0  0  0  0
  185.9450  177.9340  139.9140 O   0  0  0  0  0  1  0  0  0  0  0  0
  186.8560  177.2250  140.6930 C   0  0  1  0  0  3  0  0  0  0  0  0
  186.3490  177.0800  141.9840 O   0  0  0  0  0  0  0  0  0  0  0  0
  185.7980  178.3200  142.2830 C   0  0  0  0  0  2  0  0  0  0  0  0
  184.7020  178.1510  143.3190 C   0  0  0  0  0  2  0  0  0  0  0  0
  185.1030  179.1780  144.8130 P   0  0  1  0  0  0  0  0  0  0  0  0
  183.8620  178.4980  145.8190 O   0  0  0  0  0  1  0  0  0  0  0  0
  186.4710  178.0980  145.4600 C   0  0  0  0  0  2  0  0  0  0  0  0
  185.9270  177.1260  146.3970 N   0  0  0  0  0  1  0  0  0  0  0  0
  1 13  1  0  0  0  0
  1 17  1  0  0  0  0
  2 26  1  6  0  0  0
  4  2  1  0  0  0  0
  5 33  1  1  0  0  0
  5 21  1  0  0  0  0
  5 10  1  0  0  0  0
  6 12  1  1  0  0  0
  6  3  1  0  0  0  0
  7 16  1  0  0  0  0
  7 11  1  1  0  0  0
  9 30  1  0  0  0  0
 10 17  1  1  0  0  0
 10 28  1  0  0  0  0
 13 22  1  0  0  0  0
 14  3  1  0  0  0  0
 14  2  1  0  0  0  0
 15 18  1  0  0  0  0
 16 11  1  1  0  0  0
 16 15  1  0  0  0  0
 18 29  2  0  0  0  0
 18  4  1  0  0  0  0
 20 27  2  0  0  0  0
 21 20  1  0  0  0  0
 22 24  1  0  0  0  0
 23  8  1  1  0  0  0
 23  6  1  0  0  0  0
 23 12  1  0  0  0  0
 24 19  2  0  0  0  0
 24 25  1  0  0  0  0
 25 39  1  6  0  0  0
 25 23  1  0  0  0  0
 28 20  1  6  0  0  0
 28  7  1  0  0  0  0
 29  9  2  0  0  0  0
 30 31  2  0  0  0  0
 33 32  1  0  0  0  0
 34  9  1  0  0  0  0
 35 34  1  0  0  0  0
 35 37  1  0  0  0  0
 36 35  2  0  0  0  0
 38 37  1  0  0  0  0
 40 39  1  0  0  0  0
 40 42  1  0  0  0  0
 42 41  1  6  0  0  0
 42 43  1  0  0  0  0
 43 44  1  0  0  0  0
 44 45  1  0  0  0  0
 45 46  1  0  0  0  0
 46 48  1  0  0  0  0
 46 47  1  1  0  0  0
 48 49  1  0  0  0  0
M  END
>  <MODEL>
3

>  <REMARK>
 VINA RESULT:      -6.0      3.528      8.748
  Name = 
  13 active torsions:
  status: ('A' for Active; 'I' for Inactive)
    1  A    between atoms: C_2  and  P_27
    2  A    between atoms: O_5  and  C_20
    3  A    between atoms: O_5  and  C_21
    4  A    between atoms: O_6  and  C_12
    5  A    between atoms: O_6  and  O_14
    6  A    between atoms: C_7  and  C_21
    7  A    between atoms: C_9  and  C_20
    8  A    between atoms: C_11  and  C_43
    9  A    between atoms: C_12  and  O_16
   10  A    between atoms: O_14  and  C_44
   11  A    between atoms: O_16  and  C_17
   12  A    between atoms: C_17  and  C_45
   13  A    between atoms: P_27  and  C_45
                            x       y       z     vdW  Elec       q    Type
                         _______ _______ _______ _____ _____    ______ ____

>  <TORSDO>
F 13

$$$$
=
 OpenBabel11062418163D

 49 52  0  0  1  0  0  0  0  0999 V2000
  195.8220  171.4130  143.2010 C   0  0  0  0  0  2  0  0  0  0  0  0
  188.5320  173.0350  140.3960 C   0  0  2  0  0  3  0  0  0  0  0  0
  190.2830  171.9800  139.0770 N   0  0  0  0  0  2  0  0  0  0  0  0
  188.0170  173.2550  141.8230 C   0  0  0  0  0  2  0  0  0  0  0  0
  195.5470  173.8050  145.1650 C   0  0  2  0  0  3  0  0  0  0  0  0
  191.7320  171.9480  138.9530 C   0  0  2  0  0  3  0  0  0  0  0  0
  192.2950  173.8060  143.4670 C   0  0  2  0  0  3  0  0  0  0  0  0
  191.3240  169.5030  139.0850 O   0  0  0  0  0  1  0  0  0  0  0  0
  187.5910  176.6300  142.9540 C   0  0  0  0  0  0  0  0  0  0  0  0
  194.8480  173.6640  143.8000 C   0  0  1  0  0  3  0  0  0  0  0  0
  191.8860  174.2640  142.0760 C   0  0  0  0  0  2  0  0  0  0  0  0
  192.0940  171.2810  137.6260 C   0  0  0  0  0  2  0  0  0  0  0  0
  195.4550  170.0000  142.7670 C   0  0  0  0  0  2  0  0  0  0  0  0
  189.9660  172.5330  140.3790 C   0  0  0  0  0  2  0  0  0  0  0  0
  189.8530  173.9190  143.5010 C   0  0  0  0  0  2  0  0  0  0  0  0
  191.1110  174.7450  143.2920 C   0  0  1  0  0  3  0  0  0  0  0  0
  194.5590  172.1840  143.5280 C   0  0  0  0  0  2  0  0  0  0  0  0
  188.7490  174.3250  142.5820 C   0  0  0  0  0  0  0  0  0  0  0  0
  192.8930  170.3070  141.6270 O   0  0  0  0  0  0  0  0  0  0  0  0
  193.5460  174.9510  145.2970 C   0  0  0  0  0  0  0  0  0  0  0  0
  194.6590  174.5340  145.9920 O   0  0  0  0  0  0  0  0  0  0  0  0
  195.1700  169.9700  141.3670 O   0  0  0  0  0  0  0  0  0  0  0  0
  192.2630  170.5200  138.9220 C   0  0  1  0  0  0  0  0  0  0  0  0
  193.8860  170.1860  140.8520 C   0  0  0  0  0  0  0  0  0  0  0  0
  193.7090  170.2340  139.3600 C   0  0  2  0  0  3  0  0  0  0  0  0
  188.3530  174.2780  139.5300 C   0  0  0  0  0  1  0  0  0  0  0  0
  192.6440  175.6560  145.8180 O   0  0  0  0  0  0  0  0  0  0  0  0
  193.5720  174.5430  143.8740 C   0  0  2  0  0  3  0  0  0  0  0  0
  188.1670  175.4750  142.7630 C   0  0  0  0  0  0  0  0  0  0  0  0
  186.1460  176.7740  142.7070 C   0  0  0  0  0  3  0  0  0  0  0  0
  185.3340  177.0180  143.6370 O   0  0  0  0  0  0  0  0  0  0  0  0
  197.0880  174.9330  143.6950 O   0  0  0  0  0  1  0  0  0  0  0  0
  196.8760  174.5410  145.0220 C   0  0  0  0  0  2  0  0  0  0  0  0
  188.3910  177.7040  143.3750 O   0  0  0  0  0  0  0  0  0  0  0  0
  189.2020  177.7280  144.5190 C   0  0  0  0  0  0  0  0  0  0  0  0
  190.3950  178.1230  144.4740 O   0  0  0  0  0  0  0  0  0  0  0  0
  188.6180  177.3330  145.8270 C   0  0  0  0  0  2  0  0  0  0  0  0
  189.7050  177.2990  146.8830 C   0  0  0  0  0  1  0  0  0  0  0  0
  194.6230  171.1440  138.8020 O   0  0  0  0  0  0  0  0  0  0  0  0
  195.5180  170.3900  138.1890 O   0  0  0  0  0  0  0  0  0  0  0  0
  197.1750  171.3430  136.9580 O   0  0  0  0  0  1  0  0  0  0  0  0
  196.7070  171.1190  138.2510 C   0  0  1  0  0  3  0  0  0  0  0  0
  196.4660  172.3420  138.8750 O   0  0  0  0  0  0  0  0  0  0  0  0
  197.7300  172.8720  139.1020 C   0  0  0  0  0  2  0  0  0  0  0  0
  197.7270  173.6470  140.4070 C   0  0  0  0  0  2  0  0  0  0  0  0
  197.5820  175.4620  140.0450 P   0  0  1  0  0  0  0  0  0  0  0  0
  197.6190  175.2910  138.3180 O   0  0  0  0  0  1  0  0  0  0  0  0
  195.7310  175.5630  140.1760 C   0  0  0  0  0  2  0  0  0  0  0  0
  195.3630  176.5260  141.2060 N   0  0  0  0  0  1  0  0  0  0  0  0
  1 17  1  0  0  0  0
  2 26  1  6  0  0  0
  2  4  1  0  0  0  0
  3 14  1  0  0  0  0
  4 18  1  0  0  0  0
  5 33  1  6  0  0  0
  5 21  1  0  0  0  0
  6 12  1  6  0  0  0
  6  3  1  0  0  0  0
  7 11  1  6  0  0  0
  7 28  1  0  0  0  0
  9 34  1  0  0  0  0
 10 17  1  1  0  0  0
 10 28  1  0  0  0  0
 10  5  1  0  0  0  0
 12 23  1  0  0  0  0
 13  1  1  0  0  0  0
 14  2  1  0  0  0  0
 16 11  1  6  0  0  0
 16  7  1  0  0  0  0
 16 15  1  0  0  0  0
 18 29  2  0  0  0  0
 18 15  1  0  0  0  0
 20 27  2  0  0  0  0
 20 21  1  0  0  0  0
 22 13  1  0  0  0  0
 23  6  1  0  0  0  0
 23  8  1  1  0  0  0
 23 25  1  0  0  0  0
 24 22  1  0  0  0  0
 24 19  2  0  0  0  0
 25 39  1  1  0  0  0
 25 24  1  0  0  0  0
 28 20  1  1  0  0  0
 29  9  2  0  0  0  0
 30  9  1  0  0  0  0
 30 31  2  0  0  0  0
 32 33  1  0  0  0  0
 34 35  1  0  0  0  0
 35 37  1  0  0  0  0
 36 35  2  0  0  0  0
 37 38  1  0  0  0  0
 40 42  1  0  0  0  0
 40 39  1  0  0  0  0
 42 41  1  6  0  0  0
 42 43  1  0  0  0  0
 43 44  1  0  0  0  0
 44 45  1  0  0  0  0
 46 47  1  6  0  0  0
 46 48  1  0  0  0  0
 46 45  1  0  0  0  0
 48 49  1  0  0  0  0
M  END
>  <MODEL>
4

>  <REMARK>
 VINA RESULT:      -5.8      2.761      6.242
  Name = 
  13 active torsions:
  status: ('A' for Active; 'I' for Inactive)
    1  A    between atoms: C_2  and  P_27
    2  A    between atoms: O_5  and  C_20
    3  A    between atoms: O_5  and  C_21
    4  A    between atoms: O_6  and  C_12
    5  A    between atoms: O_6  and  O_14
    6  A    between atoms: C_7  and  C_21
    7  A    between atoms: C_9  and  C_20
    8  A    between atoms: C_11  and  C_43
    9  A    between atoms: C_12  and  O_16
   10  A    between atoms: O_14  and  C_44
   11  A    between atoms: O_16  and  C_17
   12  A    between atoms: C_17  and  C_45
   13  A    between atoms: P_27  and  C_45
                            x       y       z     vdW  Elec       q    Type
                         _______ _______ _______ _____ _____    ______ ____

>  <TORSDO>
F 13

$$$$
=
 OpenBabel11062418163D

 49 52  0  0  1  0  0  0  0  0999 V2000
  189.1460  173.7000  138.6850 C   0  0  0  0  0  2  0  0  0  0  0  0
  193.1380  174.6940  145.5200 C   0  0  2  0  0  3  0  0  0  0  0  0
  191.1920  176.0110  144.8880 N   0  0  0  0  0  2  0  0  0  0  0  0
  193.8400  173.3460  145.3220 C   0  0  0  0  0  2  0  0  0  0  0  0
  191.7660  172.6840  137.3580 C   0  0  2  0  0  3  0  0  0  0  0  0
  190.5180  176.5240  143.7050 C   0  0  2  0  0  3  0  0  0  0  0  0
  192.8200  173.2800  140.8200 C   0  0  2  0  0  3  0  0  0  0  0  0
  188.5660  175.4500  144.8020 O   0  0  0  0  0  1  0  0  0  0  0  0
  197.2220  173.3700  144.1350 C   0  0  0  0  0  0  0  0  0  0  0  0
  191.6670  173.6590  138.5450 C   0  0  1  0  0  3  0  0  0  0  0  0
  193.1200  174.5660  141.5750 C   0  0  0  0  0  2  0  0  0  0  0  0
  189.5090  177.5850  144.1400 C   0  0  0  0  0  2  0  0  0  0  0  0
  187.9720  173.5000  139.6340 C   0  0  0  0  0  2  0  0  0  0  0  0
  192.0780  174.9450  144.4610 C   0  0  0  0  0  2  0  0  0  0  0  0
  193.9740  172.5940  142.8640 C   0  0  0  0  0  2  0  0  0  0  0  0
  194.1200  173.4220  141.5980 C   0  0  1  0  0  3  0  0  0  0  0  0
  190.4330  173.3130  139.3860 C   0  0  0  0  0  2  0  0  0  0  0  0
  194.6210  173.2410  144.0420 C   0  0  0  0  0  0  0  0  0  0  0  0
  189.1120  173.8970  142.1830 O   0  0  0  0  0  0  0  0  0  0  0  0
  193.6600  172.3900  138.6460 C   0  0  0  0  0  0  0  0  0  0  0  0
  192.9550  171.9420  137.5520 O   0  0  0  0  0  0  0  0  0  0  0  0
  187.7860  174.6620  140.4450 O   0  0  0  0  0  0  0  0  0  0  0  0
  189.0260  176.2120  143.7290 C   0  0  1  0  0  0  0  0  0  0  0  0
  188.4240  174.8320  141.6790 C   0  0  0  0  0  0  0  0  0  0  0  0
  188.2420  176.1330  142.4080 C   0  0  2  0  0  3  0  0  0  0  0  0
  194.1350  175.8450  145.6110 C   0  0  0  0  0  1  0  0  0  0  0  0
  194.7730  171.9080  138.9810 O   0  0  0  0  0  0  0  0  0  0  0  0
  193.0040  173.5310  139.3230 C   0  0  2  0  0  3  0  0  0  0  0  0
  195.9200  173.3080  144.0940 C   0  0  0  0  0  0  0  0  0  0  0  0
  197.9190  173.2300  145.4240 C   0  0  0  0  0  3  0  0  0  0  0  0
  197.5030  173.7940  146.4700 O   0  0  0  0  0  0  0  0  0  0  0  0
  190.5820  173.3710  135.3750 O   0  0  0  0  0  1  0  0  0  0  0  0
  191.8150  173.4420  136.0350 C   0  0  0  0  0  2  0  0  0  0  0  0
  197.9090  173.5890  142.9300 O   0  0  0  0  0  0  0  0  0  0  0  0
  197.7620  174.7020  142.0890 C   0  0  0  0  0  0  0  0  0  0  0  0
  197.7160  174.5830  140.8380 O   0  0  0  0  0  0  0  0  0  0  0  0
  197.6000  176.0490  142.6950 C   0  0  0  0  0  2  0  0  0  0  0  0
  196.2210  176.5920  142.3730 C   0  0  0  0  0  1  0  0  0  0  0  0
  188.5390  177.2050  141.5500 O   0  0  0  0  0  0  0  0  0  0  0  0
  187.7280  178.1770  141.9290 O   0  0  0  0  0  0  0  0  0  0  0  0
  187.1180  177.5510  139.8310 O   0  0  0  0  0  1  0  0  0  0  0  0
  186.6790  178.1500  141.0090 C   0  0  1  0  0  3  0  0  0  0  0  0
  185.6190  177.4130  141.5370 O   0  0  0  0  0  0  0  0  0  0  0  0
  184.6110  178.3480  141.7360 C   0  0  0  0  0  2  0  0  0  0  0  0
  184.0280  178.1740  143.1270 C   0  0  0  0  0  2  0  0  0  0  0  0
  185.3390  178.5230  144.3930 P   0  0  1  0  0  0  0  0  0  0  0  0
  185.5710  180.1830  143.9400 O   0  0  0  0  0  1  0  0  0  0  0  0
  184.1880  178.8810  145.8080 C   0  0  0  0  0  2  0  0  0  0  0  0
  184.4010  177.9100  146.8720 N   0  0  0  0  0  1  0  0  0  0  0  0
  1 17  1  0  0  0  0
  1 13  1  0  0  0  0
  2 26  1  6  0  0  0
  4  2  1  0  0  0  0
  5 33  1  6  0  0  0
  5 21  1  0  0  0  0
  5 10  1  0  0  0  0
  6 23  1  0  0  0  0
  6 12  1  1  0  0  0
  6  3  1  0  0  0  0
  7 11  1  1  0  0  0
  7 16  1  0  0  0  0
  9 30  1  0  0  0  0
 10 28  1  0  0  0  0
 10 17  1  1  0  0  0
 13 22  1  0  0  0  0
 14  3  1  0  0  0  0
 14  2  1  0  0  0  0
 15 18  1  0  0  0  0
 16 11  1  1  0  0  0
 16 15  1  0  0  0  0
 18 29  2  0  0  0  0
 18  4  1  0  0  0  0
 20 27  2  0  0  0  0
 21 20  1  0  0  0  0
 22 24  1  0  0  0  0
 23 12  1  0  0  0  0
 23  8  1  1  0  0  0
 24 19  2  0  0  0  0
 24 25  1  0  0  0  0
 25 39  1  6  0  0  0
 25 23  1  0  0  0  0
 28 20  1  6  0  0  0
 28  7  1  0  0  0  0
 29  9  2  0  0  0  0
 30 31  2  0  0  0  0
 32 33  1  0  0  0  0
 34  9  1  0  0  0  0
 35 37  1  0  0  0  0
 35 34  1  0  0  0  0
 36 35  2  0  0  0  0
 38 37  1  0  0  0  0
 39 40  1  0  0  0  0
 42 41  1  6  0  0  0
 42 43  1  0  0  0  0
 42 40  1  0  0  0  0
 43 44  1  0  0  0  0
 44 45  1  0  0  0  0
 45 46  1  0  0  0  0
 46 47  1  6  0  0  0
 46 48  1  0  0  0  0
 48 49  1  0  0  0  0
M  END
>  <MODEL>
5

>  <REMARK>
 VINA RESULT:      -5.8      3.446      8.652
  Name = 
  13 active torsions:
  status: ('A' for Active; 'I' for Inactive)
    1  A    between atoms: C_2  and  P_27
    2  A    between atoms: O_5  and  C_20
    3  A    between atoms: O_5  and  C_21
    4  A    between atoms: O_6  and  C_12
    5  A    between atoms: O_6  and  O_14
    6  A    between atoms: C_7  and  C_21
    7  A    between atoms: C_9  and  C_20
    8  A    between atoms: C_11  and  C_43
    9  A    between atoms: C_12  and  O_16
   10  A    between atoms: O_14  and  C_44
   11  A    between atoms: O_16  and  C_17
   12  A    between atoms: C_17  and  C_45
   13  A    between atoms: P_27  and  C_45
                            x       y       z     vdW  Elec       q    Type
                         _______ _______ _______ _____ _____    ______ ____

>  <TORSDO>
F 13

$$$$
=
 OpenBabel11062418163D

 49 52  0  0  1  0  0  0  0  0999 V2000
  193.5900  172.8580  139.3900 C   0  0  0  0  0  2  0  0  0  0  0  0
  192.2820  176.4970  146.3670 C   0  0  2  0  0  3  0  0  0  0  0  0
  194.0380  174.8510  146.0100 N   0  0  0  0  0  2  0  0  0  0  0  0
  191.4040  177.5440  145.6730 C   0  0  0  0  0  2  0  0  0  0  0  0
  190.5780  173.1920  138.7050 C   0  0  2  0  0  3  0  0  0  0  0  0
  194.3280  173.6720  145.2080 C   0  0  2  0  0  3  0  0  0  0  0  0
  190.8300  174.8530  141.9660 C   0  0  2  0  0  3  0  0  0  0  0  0
  196.3980  174.9580  144.7310 O   0  0  0  0  0  1  0  0  0  0  0  0
  187.8470  177.2090  145.9550 C   0  0  0  0  0  0  0  0  0  0  0  0
  191.1830  173.0910  140.1170 C   0  0  1  0  0  3  0  0  0  0  0  0
  190.9530  174.2940  143.3740 C   0  0  0  0  0  2  0  0  0  0  0  0
  195.5400  172.9610  145.8070 C   0  0  0  0  0  2  0  0  0  0  0  0
  194.9840  173.4410  139.5760 C   0  0  0  0  0  2  0  0  0  0  0  0
  192.9440  175.5580  145.3730 C   0  0  0  0  0  2  0  0  0  0  0  0
  190.3630  176.7270  143.4640 C   0  0  0  0  0  2  0  0  0  0  0  0
  189.8950  175.3390  143.0630 C   0  0  1  0  0  3  0  0  0  0  0  0
  192.5800  173.7220  140.1170 C   0  0  0  0  0  2  0  0  0  0  0  0
  190.2310  176.9680  144.9310 C   0  0  0  0  0  0  0  0  0  0  0  0
  194.8250  174.7390  142.0760 O   0  0  0  0  0  0  0  0  0  0  0  0
  189.2090  174.3930  140.1260 C   0  0  0  0  0  0  0  0  0  0  0  0
  189.4470  174.0350  138.8170 O   0  0  0  0  0  0  0  0  0  0  0  0
  195.5660  172.9600  140.7900 O   0  0  0  0  0  0  0  0  0  0  0  0
  195.6940  173.7700  144.5390 C   0  0  1  0  0  0  0  0  0  0  0  0
  195.4060  173.6160  142.0170 C   0  0  0  0  0  0  0  0  0  0  0  0
  195.9720  172.9750  143.2520 C   0  0  2  0  0  3  0  0  0  0  0  0
  191.5140  175.7370  147.4440 C   0  0  0  0  0  1  0  0  0  0  0  0
  188.2270  175.1000  140.4690 O   0  0  0  0  0  0  0  0  0  0  0  0
  190.1830  173.7970  141.0690 C   0  0  2  0  0  3  0  0  0  0  0  0
  189.0430  177.0900  145.4480 C   0  0  0  0  0  0  0  0  0  0  0  0
  187.6140  178.1530  147.0610 C   0  0  0  0  0  3  0  0  0  0  0  0
  186.6210  178.0470  147.8280 O   0  0  0  0  0  0  0  0  0  0  0  0
  190.2970  171.7520  136.7930 O   0  0  0  0  0  1  0  0  0  0  0  0
  190.1730  171.8150  138.1870 C   0  0  0  0  0  2  0  0  0  0  0  0
  186.8240  176.4060  145.4260 O   0  0  0  0  0  0  0  0  0  0  0  0
  185.9530  176.7600  144.3840 C   0  0  0  0  0  0  0  0  0  0  0  0
  185.9050  176.1030  143.3130 O   0  0  0  0  0  0  0  0  0  0  0  0
  185.0250  177.9040  144.5750 C   0  0  0  0  0  2  0  0  0  0  0  0
  185.5140  179.0970  143.7770 C   0  0  0  0  0  1  0  0  0  0  0  0
  195.5280  171.6450  143.3440 O   0  0  0  0  0  0  0  0  0  0  0  0
  196.6230  170.9150  143.2220 O   0  0  0  0  0  0  0  0  0  0  0  0
  195.3320  169.7210  144.6630 O   0  0  0  0  0  1  0  0  0  0  0  0
  196.2440  169.6300  143.6150 C   0  0  1  0  0  3  0  0  0  0  0  0
  195.6490  168.9740  142.5370 O   0  0  0  0  0  0  0  0  0  0  0  0
  194.5000  168.4020  143.0700 C   0  0  0  0  0  2  0  0  0  0  0  0
  193.4920  168.1670  141.9600 C   0  0  0  0  0  2  0  0  0  0  0  0
  192.9340  169.8010  141.2780 P   0  0  1  0  0  0  0  0  0  0  0  0
  191.4160  169.2170  140.6690 O   0  0  0  0  0  1  0  0  0  0  0  0
  192.2430  170.4770  142.8650 C   0  0  0  0  0  2  0  0  0  0  0  0
  190.8190  170.7370  142.7100 N   0  0  0  0  0  1  0  0  0  0  0  0
  1 13  1  0  0  0  0
  1 17  1  0  0  0  0
  2 26  1  1  0  0  0
  4  2  1  0  0  0  0
  5 33  1  1  0  0  0
  5 21  1  0  0  0  0
  5 10  1  0  0  0  0
  6 12  1  1  0  0  0
  6  3  1  0  0  0  0
  7 16  1  0  0  0  0
  7 11  1  1  0  0  0
  9 30  1  0  0  0  0
 10 17  1  6  0  0  0
 10 28  1  0  0  0  0
 13 22  1  0  0  0  0
 14  3  1  0  0  0  0
 14  2  1  0  0  0  0
 15 18  1  0  0  0  0
 16 11  1  1  0  0  0
 16 15  1  0  0  0  0
 18 29  2  0  0  0  0
 18  4  1  0  0  0  0
 20 27  2  0  0  0  0
 21 20  1  0  0  0  0
 22 24  1  0  0  0  0
 23  8  1  1  0  0  0
 23  6  1  0  0  0  0
 23 12  1  0  0  0  0
 24 19  2  0  0  0  0
 24 25  1  0  0  0  0
 25 39  1  1  0  0  0
 25 23  1  0  0  0  0
 28 20  1  6  0  0  0
 28  7  1  0  0  0  0
 29  9  2  0  0  0  0
 30 31  2  0  0  0  0
 32 33  1  0  0  0  0
 34  9  1  0  0  0  0
 35 37  1  0  0  0  0
 35 34  1  0  0  0  0
 36 35  2  0  0  0  0
 38 37  1  0  0  0  0
 40 39  1  0  0  0  0
 40 42  1  0  0  0  0
 42 41  1  1  0  0  0
 43 44  1  0  0  0  0
 43 42  1  0  0  0  0
 45 44  1  0  0  0  0
 46 47  1  6  0  0  0
 46 45  1  0  0  0  0
 46 48  1  0  0  0  0
 49 48  1  0  0  0  0
M  END
>  <MODEL>
6

>  <REMARK>
 VINA RESULT:      -5.6      1.766      2.222
  Name = 
  13 active torsions:
  status: ('A' for Active; 'I' for Inactive)
    1  A    between atoms: C_2  and  P_27
    2  A    between atoms: O_5  and  C_20
    3  A    between atoms: O_5  and  C_21
    4  A    between atoms: O_6  and  C_12
    5  A    between atoms: O_6  and  O_14
    6  A    between atoms: C_7  and  C_21
    7  A    between atoms: C_9  and  C_20
    8  A    between atoms: C_11  and  C_43
    9  A    between atoms: C_12  and  O_16
   10  A    between atoms: O_14  and  C_44
   11  A    between atoms: O_16  and  C_17
   12  A    between atoms: C_17  and  C_45
   13  A    between atoms: P_27  and  C_45
                            x       y       z     vdW  Elec       q    Type
                         _______ _______ _______ _____ _____    ______ ____

>  <TORSDO>
F 13

$$$$
=
 OpenBabel11062418163D

 49 52  0  0  1  0  0  0  0  0999 V2000
  189.5980  173.6540  144.4100 C   0  0  0  0  0  2  0  0  0  0  0  0
  197.0430  174.5670  141.6930 C   0  0  2  0  0  3  0  0  0  0  0  0
  196.1610  175.7370  143.6370 N   0  0  0  0  0  2  0  0  0  0  0  0
  196.9000  173.3060  140.8350 C   0  0  0  0  0  2  0  0  0  0  0  0
  188.6780  172.9750  141.5210 C   0  0  2  0  0  3  0  0  0  0  0  0
  194.9090  176.2610  144.1610 C   0  0  2  0  0  3  0  0  0  0  0  0
  192.2930  173.4400  141.1040 C   0  0  2  0  0  3  0  0  0  0  0  0
  195.6120  174.9410  146.1430 O   0  0  0  0  0  1  0  0  0  0  0  0
  196.2950  173.7210  137.3260 C   0  0  0  0  0  0  0  0  0  0  0  0
  189.8790  173.8570  141.9090 C   0  0  1  0  0  3  0  0  0  0  0  0
  193.1490  174.6950  141.0630 C   0  0  0  0  0  2  0  0  0  0  0  0
  195.2220  177.1930  145.3300 C   0  0  0  0  0  2  0  0  0  0  0  0
  190.3280  173.2850  145.6950 C   0  0  0  0  0  2  0  0  0  0  0  0
  195.8360  174.7870  142.5890 C   0  0  0  0  0  2  0  0  0  0  0  0
  194.4640  172.7320  140.2310 C   0  0  0  0  0  2  0  0  0  0  0  0
  193.2830  173.6500  139.9680 C   0  0  1  0  0  3  0  0  0  0  0  0
  190.4840  173.3440  143.2200 C   0  0  0  0  0  2  0  0  0  0  0  0
  195.7640  173.3580  139.8520 C   0  0  0  0  0  0  0  0  0  0  0  0
  193.0480  173.6190  145.0270 O   0  0  0  0  0  0  0  0  0  0  0  0
  190.2480  172.7750  139.8390 C   0  0  0  0  0  0  0  0  0  0  0  0
  189.0310  172.3350  140.3090 O   0  0  0  0  0  0  0  0  0  0  0  0
  191.1520  174.3690  146.1270 O   0  0  0  0  0  0  0  0  0  0  0  0
  194.6690  175.8110  145.5970 C   0  0  1  0  0  0  0  0  0  0  0  0
  192.4830  174.5170  145.7170 C   0  0  0  0  0  0  0  0  0  0  0  0
  193.2340  175.7460  146.1460 C   0  0  2  0  0  3  0  0  0  0  0  0
  197.3560  175.7970  140.8470 C   0  0  0  0  0  1  0  0  0  0  0  0
  190.7400  172.3780  138.7510 O   0  0  0  0  0  0  0  0  0  0  0  0
  190.8610  173.8030  140.7090 C   0  0  2  0  0  3  0  0  0  0  0  0
  196.0350  173.5410  138.5920 C   0  0  0  0  0  0  0  0  0  0  0  0
  197.6740  173.5630  136.8350 C   0  0  0  0  0  3  0  0  0  0  0  0
  197.9290  173.3950  135.6130 O   0  0  0  0  0  0  0  0  0  0  0  0
  187.6160  175.1170  141.8250 O   0  0  0  0  0  1  0  0  0  0  0  0
  187.4200  173.8190  141.3380 C   0  0  0  0  0  2  0  0  0  0  0  0
  195.2330  174.0810  136.4800 O   0  0  0  0  0  0  0  0  0  0  0  0
  194.8480  175.3900  136.1540 C   0  0  0  0  0  0  0  0  0  0  0  0
  195.5790  176.1390  135.4570 O   0  0  0  0  0  0  0  0  0  0  0  0
  193.5170  175.8830  136.5940 C   0  0  0  0  0  2  0  0  0  0  0  0
  192.5650  174.7140  136.7520 C   0  0  0  0  0  1  0  0  0  0  0  0
  192.4900  176.8940  145.8260 O   0  0  0  0  0  0  0  0  0  0  0  0
  191.7430  176.5350  144.7960 O   0  0  0  0  0  0  0  0  0  0  0  0
  191.0140  177.6110  142.9310 O   0  0  0  0  0  1  0  0  0  0  0  0
  191.2100  177.7280  144.3050 C   0  0  1  0  0  3  0  0  0  0  0  0
  189.9880  177.9800  144.9290 O   0  0  0  0  0  0  0  0  0  0  0  0
  189.0610  177.2690  144.1770 C   0  0  0  0  0  2  0  0  0  0  0  0
  187.7240  177.9850  144.2130 C   0  0  0  0  0  2  0  0  0  0  0  0
  186.4820  176.9280  145.1000 P   0  0  1  0  0  0  0  0  0  0  0  0
  186.4090  177.9180  146.5250 O   0  0  0  0  0  1  0  0  0  0  0  0
  184.9690  177.6510  144.3000 C   0  0  0  0  0  2  0  0  0  0  0  0
  185.1560  177.7080  142.8570 N   0  0  0  0  0  1  0  0  0  0  0  0
  1 13  1  0  0  0  0
  2 26  1  6  0  0  0
  2 14  1  0  0  0  0
  3  6  1  0  0  0  0
  4  2  1  0  0  0  0
  5 33  1  6  0  0  0
  5 10  1  0  0  0  0
  6 12  1  1  0  0  0
  6 23  1  0  0  0  0
  7 11  1  1  0  0  0
  9 29  2  0  0  0  0
 10 17  1  1  0  0  0
 12 23  1  0  0  0  0
 13 22  1  0  0  0  0
 14  3  1  0  0  0  0
 16 15  1  1  0  0  0
 16 11  1  0  0  0  0
 16  7  1  0  0  0  0
 17  1  1  0  0  0  0
 18 15  1  0  0  0  0
 18  4  1  0  0  0  0
 19 24  2  0  0  0  0
 20 21  1  0  0  0  0
 21  5  1  0  0  0  0
 23  8  1  1  0  0  0
 23 25  1  0  0  0  0
 24 22  1  0  0  0  0
 24 25  1  0  0  0  0
 25 39  1  6  0  0  0
 27 20  2  0  0  0  0
 28 20  1  6  0  0  0
 28  7  1  0  0  0  0
 28 10  1  0  0  0  0
 29 18  2  0  0  0  0
 30  9  1  0  0  0  0
 31 30  2  0  0  0  0
 33 32  1  0  0  0  0
 34  9  1  0  0  0  0
 35 34  1  0  0  0  0
 35 37  1  0  0  0  0
 36 35  2  0  0  0  0
 37 38  1  0  0  0  0
 40 39  1  0  0  0  0
 42 41  1  6  0  0  0
 42 40  1  0  0  0  0
 42 43  1  0  0  0  0
 44 45  1  0  0  0  0
 44 43  1  0  0  0  0
 45 46  1  0  0  0  0
 46 47  1  1  0  0  0
 48 46  1  0  0  0  0
 49 48  1  0  0  0  0
M  END
>  <MODEL>
7

>  <REMARK>
 VINA RESULT:      -5.6      3.744      8.616
  Name = 
  13 active torsions:
  status: ('A' for Active; 'I' for Inactive)
    1  A    between atoms: C_2  and  P_27
    2  A    between atoms: O_5  and  C_20
    3  A    between atoms: O_5  and  C_21
    4  A    between atoms: O_6  and  C_12
    5  A    between atoms: O_6  and  O_14
    6  A    between atoms: C_7  and  C_21
    7  A    between atoms: C_9  and  C_20
    8  A    between atoms: C_11  and  C_43
    9  A    between atoms: C_12  and  O_16
   10  A    between atoms: O_14  and  C_44
   11  A    between atoms: O_16  and  C_17
   12  A    between atoms: C_17  and  C_45
   13  A    between atoms: P_27  and  C_45
                            x       y       z     vdW  Elec       q    Type
                         _______ _______ _______ _____ _____    ______ ____

>  <TORSDO>
F 13

$$$$
=
 OpenBabel11062418163D

 49 52  0  0  1  0  0  0  0  0999 V2000
  192.8390  173.3170  137.8880 C   0  0  0  0  0  2  0  0  0  0  0  0
  195.2340  175.9640  145.0220 C   0  0  2  0  0  3  0  0  0  0  0  0
  196.6110  174.5920  143.5590 N   0  0  0  0  0  2  0  0  0  0  0  0
  194.0780  176.9690  145.0530 C   0  0  0  0  0  2  0  0  0  0  0  0
  189.9050  173.3620  138.9090 C   0  0  2  0  0  3  0  0  0  0  0  0
  196.4870  173.5540  142.5460 C   0  0  2  0  0  3  0  0  0  0  0  0
  191.7590  174.6640  141.7940 C   0  0  2  0  0  3  0  0  0  0  0  0
  197.9390  175.1240  141.2860 O   0  0  0  0  0  1  0  0  0  0  0  0
  191.2170  176.1810  147.0640 C   0  0  0  0  0  0  0  0  0  0  0  0
  191.1650  173.1760  139.7730 C   0  0  1  0  0  3  0  0  0  0  0  0
  192.6280  173.9680  142.8300 C   0  0  0  0  0  2  0  0  0  0  0  0
  197.8620  172.9300  142.3170 C   0  0  0  0  0  2  0  0  0  0  0  0
  194.0960  174.0390  137.4230 C   0  0  0  0  0  2  0  0  0  0  0  0
  195.3150  175.2290  143.6950 C   0  0  0  0  0  2  0  0  0  0  0  0
  192.0680  176.2880  143.5950 C   0  0  0  0  0  2  0  0  0  0  0  0
  191.5200  174.9070  143.2760 C   0  0  1  0  0  3  0  0  0  0  0  0
  192.3250  173.9660  139.1570 C   0  0  0  0  0  2  0  0  0  0  0  0
  192.7160  176.3440  144.9390 C   0  0  0  0  0  0  0  0  0  0  0  0
  195.2180  175.0180  139.8190 O   0  0  0  0  0  0  0  0  0  0  0  0
  189.4360  174.2220  141.0010 C   0  0  0  0  0  0  0  0  0  0  0  0
  188.9660  174.0460  139.7190 O   0  0  0  0  0  0  0  0  0  0  0  0
  195.2490  173.4980  138.0720 O   0  0  0  0  0  0  0  0  0  0  0  0
  197.2920  173.8900  141.2970 C   0  0  1  0  0  0  0  0  0  0  0  0
  195.7290  173.9870  139.2920 C   0  0  0  0  0  0  0  0  0  0  0  0
  196.8870  173.2830  139.9420 C   0  0  2  0  0  3  0  0  0  0  0  0
  195.1790  175.0010  146.2040 C   0  0  0  0  0  1  0  0  0  0  0  0
  188.7510  174.7640  141.9060 O   0  0  0  0  0  0  0  0  0  0  0  0
  190.7840  173.6460  141.2020 C   0  0  2  0  0  3  0  0  0  0  0  0
  191.9720  176.2630  146.0030 C   0  0  0  0  0  0  0  0  0  0  0  0
  191.5600  176.9590  148.2660 C   0  0  0  0  0  3  0  0  0  0  0  0
  190.8420  177.9140  148.6670 O   0  0  0  0  0  0  0  0  0  0  0  0
  189.7060  171.7440  137.1350 O   0  0  0  0  0  1  0  0  0  0  0  0
  189.3480  172.0140  138.4610 C   0  0  0  0  0  2  0  0  0  0  0  0
  190.1050  175.3250  147.0150 O   0  0  0  0  0  0  0  0  0  0  0  0
  188.8120  175.6770  146.5980 C   0  0  0  0  0  0  0  0  0  0  0  0
  187.8610  175.7810  147.4140 O   0  0  0  0  0  0  0  0  0  0  0  0
  188.5760  175.9900  145.1650 C   0  0  0  0  0  2  0  0  0  0  0  0
  188.6240  177.4910  144.9550 C   0  0  0  0  0  1  0  0  0  0  0  0
  196.6150  171.9080  140.0370 O   0  0  0  0  0  0  0  0  0  0  0  0
  195.3180  171.8360  140.2750 O   0  0  0  0  0  0  0  0  0  0  0  0
  195.3000  169.8260  139.2130 O   0  0  0  0  0  1  0  0  0  0  0  0
  195.0540  170.4730  140.4220 C   0  0  1  0  0  3  0  0  0  0  0  0
  195.8850  169.9450  141.4090 O   0  0  0  0  0  0  0  0  0  0  0  0
  195.1360  170.0290  142.5760 C   0  0  0  0  0  2  0  0  0  0  0  0
  194.6350  168.6480  142.9560 C   0  0  0  0  0  2  0  0  0  0  0  0
  192.7920  168.7000  143.1720 P   0  0  1  0  0  0  0  0  0  0  0  0
  192.6510  170.4200  142.9870 O   0  0  0  0  0  1  0  0  0  0  0  0
  192.3540  168.2920  141.4130 C   0  0  0  0  0  2  0  0  0  0  0  0
  190.9070  168.1860  141.2790 N   0  0  0  0  0  1  0  0  0  0  0  0
  1 17  1  0  0  0  0
  2  4  1  0  0  0  0
  2 26  1  1  0  0  0
  3 14  1  0  0  0  0
  5 33  1  1  0  0  0
  5 21  1  0  0  0  0
  5 10  1  0  0  0  0
  6 12  1  1  0  0  0
  6  3  1  0  0  0  0
  7 11  1  1  0  0  0
  7 16  1  0  0  0  0
  9 30  1  0  0  0  0
 10 17  1  6  0  0  0
 10 28  1  0  0  0  0
 13  1  1  0  0  0  0
 13 22  1  0  0  0  0
 14  2  1  0  0  0  0
 15 18  1  0  0  0  0
 16 11  1  1  0  0  0
 16 15  1  0  0  0  0
 18  4  1  0  0  0  0
 18 29  2  0  0  0  0
 20 27  2  0  0  0  0
 21 20  1  0  0  0  0
 22 24  1  0  0  0  0
 23  8  1  6  0  0  0
 23 12  1  0  0  0  0
 23  6  1  0  0  0  0
 24 19  2  0  0  0  0
 24 25  1  0  0  0  0
 25 39  1  1  0  0  0
 25 23  1  0  0  0  0
 28 20  1  6  0  0  0
 28  7  1  0  0  0  0
 29  9  2  0  0  0  0
 30 31  2  0  0  0  0
 32 33  1  0  0  0  0
 34  9  1  0  0  0  0
 35 34  1  0  0  0  0
 35 36  2  0  0  0  0
 37 35  1  0  0  0  0
 38 37  1  0  0  0  0
 39 40  1  0  0  0  0
 40 42  1  0  0  0  0
 42 41  1  6  0  0  0
 42 43  1  0  0  0  0
 43 44  1  0  0  0  0
 44 45  1  0  0  0  0
 45 46  1  0  0  0  0
 46 47  1  6  0  0  0
 48 46  1  0  0  0  0
 49 48  1  0  0  0  0
M  END
>  <MODEL>
8

>  <REMARK>
 VINA RESULT:      -5.4      2.628      3.654
  Name = 
  13 active torsions:
  status: ('A' for Active; 'I' for Inactive)
    1  A    between atoms: C_2  and  P_27
    2  A    between atoms: O_5  and  C_20
    3  A    between atoms: O_5  and  C_21
    4  A    between atoms: O_6  and  C_12
    5  A    between atoms: O_6  and  O_14
    6  A    between atoms: C_7  and  C_21
    7  A    between atoms: C_9  and  C_20
    8  A    between atoms: C_11  and  C_43
    9  A    between atoms: C_12  and  O_16
   10  A    between atoms: O_14  and  C_44
   11  A    between atoms: O_16  and  C_17
   12  A    between atoms: C_17  and  C_45
   13  A    between atoms: P_27  and  C_45
                            x       y       z     vdW  Elec       q    Type
                         _______ _______ _______ _____ _____    ______ ____

>  <TORSDO>
F 13

$$$$
=
 OpenBabel11062418163D

 49 52  0  0  1  0  0  0  0  0999 V2000
  188.1680  174.2450  141.0090 C   0  0  0  0  0  2  0  0  0  0  0  0
  194.3640  172.5480  145.7380 C   0  0  2  0  0  3  0  0  0  0  0  0
  192.9400  174.5000  146.0260 N   0  0  0  0  0  2  0  0  0  0  0  0
  194.4130  171.1200  145.1850 C   0  0  0  0  0  2  0  0  0  0  0  0
  189.6000  172.7660  138.6820 C   0  0  2  0  0  3  0  0  0  0  0  0
  192.1300  175.4250  145.2480 C   0  0  2  0  0  3  0  0  0  0  0  0
  191.9360  172.2900  141.4690 C   0  0  2  0  0  3  0  0  0  0  0  0
  190.4380  174.8040  146.9550 O   0  0  0  0  0  1  0  0  0  0  0  0
  196.9290  170.3430  142.7530 C   0  0  0  0  0  0  0  0  0  0  0  0
  190.2830  173.4600  139.8740 C   0  0  1  0  0  3  0  0  0  0  0  0
  192.9240  173.2380  142.1290 C   0  0  0  0  0  2  0  0  0  0  0  0
  191.7960  176.6330  146.1210 C   0  0  0  0  0  2  0  0  0  0  0  0
  187.4130  174.2280  142.3310 C   0  0  0  0  0  2  0  0  0  0  0  0
  193.1700  173.3230  145.2090 C   0  0  0  0  0  2  0  0  0  0  0  0
  193.3970  170.8800  142.8320 C   0  0  0  0  0  2  0  0  0  0  0  0
  193.3820  171.8630  141.6730 C   0  0  1  0  0  3  0  0  0  0  0  0
  189.3840  173.3470  141.1110 C   0  0  0  0  0  2  0  0  0  0  0  0
  194.6030  171.0430  143.6970 C   0  0  0  0  0  0  0  0  0  0  0  0
  189.4320  173.7260  144.2360 O   0  0  0  0  0  0  0  0  0  0  0  0
  191.5800  171.6470  139.0850 C   0  0  0  0  0  0  0  0  0  0  0  0
  190.4260  171.6700  138.3350 O   0  0  0  0  0  0  0  0  0  0  0  0
  187.9560  175.1990  143.2270 O   0  0  0  0  0  0  0  0  0  0  0  0
  190.7370  175.5890  145.8430 C   0  0  1  0  0  0  0  0  0  0  0  0
  189.0000  174.9090  144.1130 C   0  0  0  0  0  0  0  0  0  0  0  0
  189.5690  176.0270  144.9420 C   0  0  2  0  0  3  0  0  0  0  0  0
  195.6750  173.2920  145.5030 C   0  0  0  0  0  1  0  0  0  0  0  0
  192.4830  170.7880  138.9160 O   0  0  0  0  0  0  0  0  0  0  0  0
  191.6630  172.7710  140.0450 C   0  0  2  0  0  3  0  0  0  0  0  0
  195.7670  170.6940  143.2310 C   0  0  0  0  0  0  0  0  0  0  0  0
  197.9310  169.7350  143.6450 C   0  0  0  0  0  3  0  0  0  0  0  0
  197.6750  169.4690  144.8500 O   0  0  0  0  0  0  0  0  0  0  0  0
  188.1860  174.3180  137.4990 O   0  0  0  0  0  1  0  0  0  0  0  0
  189.4550  173.7250  137.5040 C   0  0  0  0  0  2  0  0  0  0  0  0
  197.1810  170.5810  141.3930 O   0  0  0  0  0  0  0  0  0  0  0  0
  196.3640  170.1880  140.3220 C   0  0  0  0  0  0  0  0  0  0  0  0
  195.6120  169.1830  140.4010 O   0  0  0  0  0  0  0  0  0  0  0  0
  196.3450  171.0130  139.0870 C   0  0  0  0  0  2  0  0  0  0  0  0
  196.1060  172.4660  139.4460 C   0  0  0  0  0  1  0  0  0  0  0  0
  189.9150  177.1060  144.1120 O   0  0  0  0  0  0  0  0  0  0  0  0
  188.9890  178.0200  144.3430 O   0  0  0  0  0  0  0  0  0  0  0  0
  189.2890  177.7470  142.1070 O   0  0  0  0  0  1  0  0  0  0  0  0
  188.6010  178.4680  143.0800 C   0  0  1  0  0  3  0  0  0  0  0  0
  187.2300  178.2710  142.9210 O   0  0  0  0  0  0  0  0  0  0  0  0
  186.6940  178.5210  144.1780 C   0  0  0  0  0  2  0  0  0  0  0  0
  185.1800  178.4420  144.1080 C   0  0  0  0  0  2  0  0  0  0  0  0
  184.4780  178.5400  145.8240 P   0  0  1  0  0  0  0  0  0  0  0  0
  184.7730  176.8750  146.2190 O   0  0  0  0  0  1  0  0  0  0  0  0
  186.0080  179.1960  146.6490 C   0  0  0  0  0  2  0  0  0  0  0  0
  186.3390  178.3670  147.8010 N   0  0  0  0  0  1  0  0  0  0  0  0
  1 17  1  0  0  0  0
  1 13  1  0  0  0  0
  2 26  1  6  0  0  0
  4  2  1  0  0  0  0
  5 33  1  6  0  0  0
  5 10  1  0  0  0  0
  6 23  1  0  0  0  0
  6  3  1  0  0  0  0
  6 12  1  1  0  0  0
  7 16  1  0  0  0  0
  7 11  1  1  0  0  0
  9 29  2  0  0  0  0
  9 30  1  0  0  0  0
 10 28  1  0  0  0  0
 10 17  1  1  0  0  0
 13 22  1  0  0  0  0
 14  2  1  0  0  0  0
 14  3  1  0  0  0  0
 15 18  1  0  0  0  0
 16 11  1  1  0  0  0
 16 15  1  0  0  0  0
 18  4  1  0  0  0  0
 21  5  1  0  0  0  0
 21 20  1  0  0  0  0
 22 24  1  0  0  0  0
 23 12  1  0  0  0  0
 23  8  1  1  0  0  0
 24 19  2  0  0  0  0
 24 25  1  0  0  0  0
 25 39  1  6  0  0  0
 25 23  1  0  0  0  0
 27 20  2  0  0  0  0
 28 20  1  6  0  0  0
 28  7  1  0  0  0  0
 29 18  2  0  0  0  0
 30 31  2  0  0  0  0
 32 33  1  0  0  0  0
 34  9  1  0  0  0  0
 35 36  2  0  0  0  0
 35 34  1  0  0  0  0
 37 38  1  0  0  0  0
 37 35  1  0  0  0  0
 39 40  1  0  0  0  0
 42 41  1  6  0  0  0
 42 40  1  0  0  0  0
 43 42  1  0  0  0  0
 43 44  1  0  0  0  0
 45 44  1  0  0  0  0
 45 46  1  0  0  0  0
 46 47  1  1  0  0  0
 46 48  1  0  0  0  0
 48 49  1  0  0  0  0
M  END
>  <MODEL>
9

>  <REMARK>
 VINA RESULT:      -5.3      3.363      8.912
  Name = 
  13 active torsions:
  status: ('A' for Active; 'I' for Inactive)
    1  A    between atoms: C_2  and  P_27
    2  A    between atoms: O_5  and  C_20
    3  A    between atoms: O_5  and  C_21
    4  A    between atoms: O_6  and  C_12
    5  A    between atoms: O_6  and  O_14
    6  A    between atoms: C_7  and  C_21
    7  A    between atoms: C_9  and  C_20
    8  A    between atoms: C_11  and  C_43
    9  A    between atoms: C_12  and  O_16
   10  A    between atoms: O_14  and  C_44
   11  A    between atoms: O_16  and  C_17
   12  A    between atoms: C_17  and  C_45
   13  A    between atoms: P_27  and  C_45
                            x       y       z     vdW  Elec       q    Type
                         _______ _______ _______ _____ _____    ______ ____

>  <TORSDO>
F 13

$$$$
