=
 OpenBabel11062419323D

 40 43  0  0  1  0  0  0  0  0999 V2000
  190.9730  173.1930  141.3390 N   0  0  0  0  0  0  0  0  0  0  0  0
  189.2040  172.1400  142.1560 N   0  0  0  0  0  0  0  0  0  0  0  0
  191.7840  174.1620  140.7950 O   0  0  0  0  0  1  0  0  0  0  0  0
  191.3460  172.0690  141.9690 C   0  0  0  0  0  0  0  0  0  0  0  0
  190.2750  171.4210  142.4720 N   0  0  0  0  0  0  0  0  0  0  0  0
  189.6380  173.2150  141.4680 C   0  0  0  0  0  0  0  0  0  0  0  0
  188.7500  174.3280  141.0130 C   0  0  0  0  0  2  0  0  0  0  0  0
  187.8710  174.8190  142.1230 C   0  0  0  0  0  3  0  0  0  0  0  0
  187.2100  175.9690  142.0190 C   0  0  0  0  0  3  0  0  0  0  0  0
  186.3520  176.4570  143.1370 C   0  0  0  0  0  2  0  0  0  0  0  0
  186.9320  177.7290  143.7460 C   0  0  2  0  0  3  0  0  0  0  0  0
  189.3070  177.9300  144.7380 C   0  0  1  0  0  3  0  0  0  0  0  0
  187.9460  177.4250  144.7560 N   0  0  0  0  0  0  0  0  0  0  0  0
  189.0160  176.6520  146.7320 C   0  0  1  0  0  3  0  0  0  0  0  0
  189.9860  177.4450  145.9560 N   0  0  0  0  0  2  0  0  0  0  0  0
  187.7660  176.6980  145.9460 C   0  0  0  0  0  0  0  0  0  0  0  0
  186.6670  176.1930  146.3010 O   0  0  0  0  0  0  0  0  0  0  0  0
  189.4840  174.3830  145.6950 C   0  0  0  0  0  1  0  0  0  0  0  0
  190.9640  175.2710  147.4590 C   0  0  0  0  0  1  0  0  0  0  0  0
  188.7550  174.5950  147.9470 O   0  0  0  0  0  1  0  0  0  0  0  0
  189.5300  175.2180  146.9680 C   0  0  0  0  0  0  0  0  0  0  0  0
  190.0420  177.4280  143.5040 C   0  0  0  0  0  2  0  0  0  0  0  0
  191.2530  176.8440  143.8770 O   0  0  0  0  0  1  0  0  0  0  0  0
  185.7310  179.7910  143.6690 O   0  0  0  0  0  1  0  0  0  0  0  0
  185.8140  178.5700  144.3390 C   0  0  0  0  0  2  0  0  0  0  0  0
  192.7590  171.6600  142.2100 C   0  0  0  0  0  2  0  0  0  0  0  0
  194.1770  173.7990  144.7960 C   0  0  2  0  0  3  0  0  0  0  0  0
  192.1360  172.3910  144.5300 C   0  0  0  0  0  2  0  0  0  0  0  0
  194.8490  173.0250  143.8300 O   0  0  0  0  0  0  0  0  0  0  0  0
  193.0130  171.4510  143.7000 C   0  0  2  0  0  3  0  0  0  0  0  0
  192.6730  173.8200  144.5080 C   0  0  0  0  0  2  0  0  0  0  0  0
  194.4870  171.6850  144.0610 C   0  0  0  0  0  2  0  0  0  0  0  0
  194.7200  177.4020  146.0120 C   0  0  0  0  0  1  0  0  0  0  0  0
  194.2970  175.9890  145.8030 C   0  0  0  0  0  3  0  0  0  0  0  0
  194.7290  175.1900  144.8180 C   0  0  0  0  0  0  0  0  0  0  0  0
  196.4900  176.4190  141.9910 N   0  0  0  0  0  0  0  0  0  0  0  0
  197.4900  175.9670  142.7770 C   0  0  0  0  0  3  0  0  0  0  0  0
  196.9850  175.4590  143.9190 N   0  0  0  0  0  0  0  0  0  0  0  0
  195.3730  176.1850  142.6600 N   0  0  0  0  0  0  0  0  0  0  0  0
  195.6750  175.6120  143.8120 N   0  0  0  0  0  0  0  0  0  0  0  0
  1  6  1  0  0  0  0
  1  4  1  0  0  0  0
  2  5  1  0  0  0  0
  3  1  1  0  0  0  0
  4 26  1  0  0  0  0
  4  5  2  0  0  0  0
  6  2  2  0  0  0  0
  7  6  1  0  0  0  0
  7  8  1  0  0  0  0
  9  8  2  0  0  0  0
  9 10  1  0  0  0  0
 11 10  1  1  0  0  0
 11 25  1  0  0  0  0
 11 13  1  0  0  0  0
 12 22  1  6  0  0  0
 12 13  1  0  0  0  0
 12 15  1  0  0  0  0
 13 16  1  0  0  0  0
 14 21  1  6  0  0  0
 15 14  1  0  0  0  0
 16 17  2  0  0  0  0
 16 14  1  0  0  0  0
 18 21  1  0  0  0  0
 21 19  1  0  0  0  0
 21 20  1  0  0  0  0
 22 23  1  0  0  0  0
 24 25  1  0  0  0  0
 27 35  1  6  0  0  0
 29 32  1  0  0  0  0
 29 27  1  0  0  0  0
 30 26  1  6  0  0  0
 30 32  1  0  0  0  0
 30 28  1  0  0  0  0
 31 28  1  0  0  0  0
 31 27  1  0  0  0  0
 34 33  1  0  0  0  0
 35 34  2  0  0  0  0
 36 39  2  0  0  0  0
 36 37  1  0  0  0  0
 37 38  2  0  0  0  0
 39 40  1  0  0  0  0
 40 38  1  0  0  0  0
 40 35  1  0  0  0  0
M  END
>  <MODEL>
1

>  <REMARK>
 VINA RESULT:      -6.7      0.000      0.000
  Name = 
  12 active torsions:
  status: ('A' for Active; 'I' for Inactive)
    1  A    between atoms: C_1  and  C_28
    2  A    between atoms: C_1  and  CA_30
    3  A    between atoms: C_2  and  C_26
    4  A    between atoms: C_8  and  C_11
    5  A    between atoms: C_9  and  C_40
    6  A    between atoms: C_14  and  C_37
    7  A    between atoms: C_15  and  C_40
    8  A    between atoms: N_19  and  CA_30
    9  A    between atoms: CA_21  and  C_33
   10  A    between atoms: C_26  and  N_38
   11  A    between atoms: CA_30  and  C_39
   12  A    between atoms: C_35  and  C_37
                            x       y       z     vdW  Elec       q    Type
                         _______ _______ _______ _____ _____    ______ ____

>  <TORSDO>
F 12

$$$$
=
 OpenBabel11062419323D

 40 43  0  0  1  0  0  0  0  0999 V2000
  193.6890  175.0620  145.5250 N   0  0  0  0  0  0  0  0  0  0  0  0
  194.4400  177.0670  146.0880 N   0  0  0  0  0  0  0  0  0  0  0  0
  192.9070  173.9330  145.4400 O   0  0  0  0  0  1  0  0  0  0  0  0
  194.6690  175.4450  144.6940 C   0  0  0  0  0  0  0  0  0  0  0  0
  195.1320  176.6680  145.0270 N   0  0  0  0  0  0  0  0  0  0  0  0
  193.5640  176.0860  146.3820 C   0  0  0  0  0  0  0  0  0  0  0  0
  192.5280  176.1860  147.4550 C   0  0  0  0  0  2  0  0  0  0  0  0
  191.2390  176.7330  146.9240 C   0  0  0  0  0  3  0  0  0  0  0  0
  191.0150  176.8170  145.6140 C   0  0  0  0  0  3  0  0  0  0  0  0
  189.7350  177.3800  145.0960 C   0  0  0  0  0  2  0  0  0  0  0  0
  189.0840  176.4190  144.1070 C   0  0  2  0  0  3  0  0  0  0  0  0
  186.9100  176.6430  142.7340 C   0  0  1  0  0  3  0  0  0  0  0  0
  187.6480  176.6680  143.9840 N   0  0  0  0  0  0  0  0  0  0  0  0
  185.3590  177.0340  144.5050 C   0  0  1  0  0  3  0  0  0  0  0  0
  185.4870  176.8820  143.0440 N   0  0  0  0  0  2  0  0  0  0  0  0
  186.7290  176.8680  145.0290 C   0  0  0  0  0  0  0  0  0  0  0  0
  187.0430  176.8620  146.2500 O   0  0  0  0  0  0  0  0  0  0  0  0
  185.7840  179.4840  145.0080 C   0  0  0  0  0  1  0  0  0  0  0  0
  183.7480  178.8020  143.7900 C   0  0  0  0  0  1  0  0  0  0  0  0
  184.0340  178.2810  146.0750 O   0  0  0  0  0  1  0  0  0  0  0  0
  184.7310  178.3930  144.8700 C   0  0  0  0  0  0  0  0  0  0  0  0
  187.4210  177.7260  141.7950 C   0  0  0  0  0  2  0  0  0  0  0  0
  186.3510  178.4800  141.3120 O   0  0  0  0  0  1  0  0  0  0  0  0
  189.1120  174.1190  143.4680 O   0  0  0  0  0  1  0  0  0  0  0  0
  189.3490  174.9850  144.5360 C   0  0  0  0  0  2  0  0  0  0  0  0
  195.0950  174.6940  143.4780 C   0  0  0  0  0  2  0  0  0  0  0  0
  192.5170  174.2560  140.9410 C   0  0  2  0  0  3  0  0  0  0  0  0
  193.3700  176.1290  142.3490 C   0  0  0  0  0  2  0  0  0  0  0  0
  193.7510  173.5880  141.0640 O   0  0  0  0  0  0  0  0  0  0  0  0
  194.7460  175.4730  142.2130 C   0  0  2  0  0  3  0  0  0  0  0  0
  192.2470  175.1080  142.1840 C   0  0  0  0  0  2  0  0  0  0  0  0
  194.7550  174.5690  140.9720 C   0  0  0  0  0  2  0  0  0  0  0  0
  190.5010  171.0140  141.3660 C   0  0  0  0  0  1  0  0  0  0  0  0
  191.4910  172.1260  141.4240 C   0  0  0  0  0  3  0  0  0  0  0  0
  191.4140  173.2670  140.7280 C   0  0  0  0  0  0  0  0  0  0  0  0
  188.4400  174.2250  139.0410 N   0  0  0  0  0  0  0  0  0  0  0  0
  189.1880  173.7180  138.0380 C   0  0  0  0  0  3  0  0  0  0  0  0
  190.3780  173.3020  138.5150 N   0  0  0  0  0  0  0  0  0  0  0  0
  189.1810  174.1160  140.1320 N   0  0  0  0  0  0  0  0  0  0  0  0
  190.3380  173.5650  139.8110 N   0  0  0  0  0  0  0  0  0  0  0  0
  1  6  1  0  0  0  0
  2  6  2  0  0  0  0
  3  1  1  0  0  0  0
  4  5  2  0  0  0  0
  4  1  1  0  0  0  0
  5  2  1  0  0  0  0
  6  7  1  0  0  0  0
  8  7  1  0  0  0  0
  9  8  2  0  0  0  0
 10  9  1  0  0  0  0
 11 25  1  1  0  0  0
 11 10  1  0  0  0  0
 12 22  1  6  0  0  0
 12 15  1  0  0  0  0
 12 13  1  0  0  0  0
 13 11  1  0  0  0  0
 13 16  1  0  0  0  0
 14 21  1  6  0  0  0
 14 16  1  0  0  0  0
 15 14  1  0  0  0  0
 16 17  2  0  0  0  0
 19 21  1  0  0  0  0
 21 18  1  0  0  0  0
 21 20  1  0  0  0  0
 23 22  1  0  0  0  0
 24 25  1  0  0  0  0
 26  4  1  0  0  0  0
 27 35  1  1  0  0  0
 27 29  1  0  0  0  0
 27 31  1  0  0  0  0
 30 28  1  0  0  0  0
 30 26  1  1  0  0  0
 31 28  1  0  0  0  0
 32 29  1  0  0  0  0
 32 30  1  0  0  0  0
 33 34  1  0  0  0  0
 35 34  2  0  0  0  0
 36 39  2  0  0  0  0
 37 38  2  0  0  0  0
 37 36  1  0  0  0  0
 38 40  1  0  0  0  0
 40 39  1  0  0  0  0
 40 35  1  0  0  0  0
M  END
>  <MODEL>
2

>  <REMARK>
 VINA RESULT:      -6.6      2.206      5.885
  Name = 
  12 active torsions:
  status: ('A' for Active; 'I' for Inactive)
    1  A    between atoms: C_1  and  C_28
    2  A    between atoms: C_1  and  CA_30
    3  A    between atoms: C_2  and  C_26
    4  A    between atoms: C_8  and  C_11
    5  A    between atoms: C_9  and  C_40
    6  A    between atoms: C_14  and  C_37
    7  A    between atoms: C_15  and  C_40
    8  A    between atoms: N_19  and  CA_30
    9  A    between atoms: CA_21  and  C_33
   10  A    between atoms: C_26  and  N_38
   11  A    between atoms: CA_30  and  C_39
   12  A    between atoms: C_35  and  C_37
                            x       y       z     vdW  Elec       q    Type
                         _______ _______ _______ _____ _____    ______ ____

>  <TORSDO>
F 12

$$$$
=
 OpenBabel11062419323D

 40 43  0  0  1  0  0  0  0  0999 V2000
  190.6930  173.1170  140.6000 N   0  0  0  0  0  0  0  0  0  0  0  0
  189.9060  172.9560  142.6640 N   0  0  0  0  0  0  0  0  0  0  0  0
  190.8480  173.4830  139.2830 O   0  0  0  0  0  1  0  0  0  0  0  0
  191.5960  172.5340  141.4010 C   0  0  0  0  0  0  0  0  0  0  0  0
  191.1270  172.4330  142.6620 N   0  0  0  0  0  0  0  0  0  0  0  0
  189.6510  173.3700  141.4070 C   0  0  0  0  0  0  0  0  0  0  0  0
  188.4140  174.1070  141.0060 C   0  0  0  0  0  2  0  0  0  0  0  0
  187.7280  174.7150  142.1910 C   0  0  0  0  0  3  0  0  0  0  0  0
  187.1000  175.8850  142.0970 C   0  0  0  0  0  3  0  0  0  0  0  0
  186.4370  176.4900  143.2880 C   0  0  0  0  0  2  0  0  0  0  0  0
  187.1890  177.7320  143.7510 C   0  0  2  0  0  3  0  0  0  0  0  0
  189.5810  177.8210  144.7170 C   0  0  1  0  0  3  0  0  0  0  0  0
  188.1910  177.4040  144.7660 N   0  0  0  0  0  0  0  0  0  0  0  0
  189.2280  176.6440  146.7630 C   0  0  1  0  0  3  0  0  0  0  0  0
  190.2390  177.3420  145.9490 N   0  0  0  0  0  2  0  0  0  0  0  0
  187.9770  176.7380  145.9850 C   0  0  0  0  0  0  0  0  0  0  0  0
  186.8520  176.3190  146.3670 O   0  0  0  0  0  0  0  0  0  0  0  0
  189.7990  174.3770  145.7740 C   0  0  0  0  0  1  0  0  0  0  0  0
  190.9840  175.1890  147.7810 C   0  0  0  0  0  1  0  0  0  0  0  0
  188.7050  174.5780  147.8740 O   0  0  0  0  0  1  0  0  0  0  0  0
  189.6530  175.1910  147.0530 C   0  0  0  0  0  0  0  0  0  0  0  0
  190.2720  177.2240  143.5000 C   0  0  0  0  0  2  0  0  0  0  0  0
  191.5660  176.8260  143.8350 O   0  0  0  0  0  1  0  0  0  0  0  0
  184.9210  178.2160  144.3140 O   0  0  0  0  0  1  0  0  0  0  0  0
  186.2040  178.7620  144.2780 C   0  0  0  0  0  2  0  0  0  0  0  0
  192.9860  172.1750  140.9960 C   0  0  0  0  0  2  0  0  0  0  0  0
  195.1320  174.5070  142.7930 C   0  0  2  0  0  3  0  0  0  0  0  0
  195.2640  173.1840  140.6830 C   0  0  0  0  0  2  0  0  0  0  0  0
  193.7250  174.4710  142.7400 O   0  0  0  0  0  0  0  0  0  0  0  0
  193.7570  173.4170  140.5590 C   0  0  2  0  0  3  0  0  0  0  0  0
  195.7220  173.2540  142.1390 C   0  0  0  0  0  2  0  0  0  0  0  0
  193.3650  174.6480  141.3910 C   0  0  0  0  0  2  0  0  0  0  0  0
  197.0580  173.6470  146.0040 C   0  0  0  0  0  1  0  0  0  0  0  0
  196.4700  173.7090  144.6350 C   0  0  0  0  0  3  0  0  0  0  0  0
  195.5920  174.6270  144.2120 C   0  0  0  0  0  0  0  0  0  0  0  0
  194.7210  177.6540  145.8510 N   0  0  0  0  0  0  0  0  0  0  0  0
  194.0970  176.7280  146.6100 C   0  0  0  0  0  3  0  0  0  0  0  0
  194.3260  175.4960  146.1140 N   0  0  0  0  0  0  0  0  0  0  0  0
  195.3320  176.9790  144.8900 N   0  0  0  0  0  0  0  0  0  0  0  0
  195.0900  175.6900  145.0510 N   0  0  0  0  0  0  0  0  0  0  0  0
  1  4  1  0  0  0  0
  1  6  1  0  0  0  0
  3  1  1  0  0  0  0
  4  5  2  0  0  0  0
  5  2  1  0  0  0  0
  6  2  2  0  0  0  0
  7  6  1  0  0  0  0
  7  8  1  0  0  0  0
  9  8  2  0  0  0  0
  9 10  1  0  0  0  0
 11 10  1  1  0  0  0
 11 25  1  0  0  0  0
 11 13  1  0  0  0  0
 12 22  1  6  0  0  0
 12 13  1  0  0  0  0
 12 15  1  0  0  0  0
 13 16  1  0  0  0  0
 14 21  1  6  0  0  0
 15 14  1  0  0  0  0
 16 17  2  0  0  0  0
 16 14  1  0  0  0  0
 18 21  1  0  0  0  0
 21 19  1  0  0  0  0
 21 20  1  0  0  0  0
 22 23  1  0  0  0  0
 25 24  1  0  0  0  0
 26  4  1  0  0  0  0
 27 35  1  1  0  0  0
 28 31  1  0  0  0  0
 29 27  1  0  0  0  0
 30 28  1  0  0  0  0
 30 26  1  1  0  0  0
 30 32  1  0  0  0  0
 31 27  1  0  0  0  0
 32 29  1  0  0  0  0
 34 33  1  0  0  0  0
 35 34  2  0  0  0  0
 35 40  1  0  0  0  0
 36 37  1  0  0  0  0
 38 37  2  0  0  0  0
 39 40  1  0  0  0  0
 39 36  2  0  0  0  0
 40 38  1  0  0  0  0
M  END
>  <MODEL>
3

>  <REMARK>
 VINA RESULT:      -6.6      1.565      2.206
  Name = 
  12 active torsions:
  status: ('A' for Active; 'I' for Inactive)
    1  A    between atoms: C_1  and  C_28
    2  A    between atoms: C_1  and  CA_30
    3  A    between atoms: C_2  and  C_26
    4  A    between atoms: C_8  and  C_11
    5  A    between atoms: C_9  and  C_40
    6  A    between atoms: C_14  and  C_37
    7  A    between atoms: C_15  and  C_40
    8  A    between atoms: N_19  and  CA_30
    9  A    between atoms: CA_21  and  C_33
   10  A    between atoms: C_26  and  N_38
   11  A    between atoms: CA_30  and  C_39
   12  A    between atoms: C_35  and  C_37
                            x       y       z     vdW  Elec       q    Type
                         _______ _______ _______ _____ _____    ______ ____

>  <TORSDO>
F 12

$$$$
=
 OpenBabel11062419323D

 40 43  0  0  1  0  0  0  0  0999 V2000
  189.4710  171.8080  142.2420 N   0  0  0  0  0  0  0  0  0  0  0  0
  190.5220  171.6090  140.3020 N   0  0  0  0  0  0  0  0  0  0  0  0
  189.1570  171.7050  143.5770 O   0  0  0  0  0  1  0  0  0  0  0  0
  188.9610  172.6620  141.3420 C   0  0  0  0  0  0  0  0  0  0  0  0
  189.5960  172.5500  140.1580 N   0  0  0  0  0  0  0  0  0  0  0  0
  190.4400  171.1650  141.5720 C   0  0  0  0  0  0  0  0  0  0  0  0
  191.3790  170.1670  142.1700 C   0  0  0  0  0  2  0  0  0  0  0  0
  192.3840  170.8270  143.0640 C   0  0  0  0  0  3  0  0  0  0  0  0
  193.6660  170.9090  142.7150 C   0  0  0  0  0  3  0  0  0  0  0  0
  194.6610  171.5510  143.6210 C   0  0  0  0  0  2  0  0  0  0  0  0
  195.5950  172.4650  142.8350 C   0  0  2  0  0  3  0  0  0  0  0  0
  196.5720  174.6660  143.7640 C   0  0  1  0  0  3  0  0  0  0  0  0
  195.4730  173.8570  143.2700 N   0  0  0  0  0  0  0  0  0  0  0  0
  194.6190  176.0350  143.6830 C   0  0  1  0  0  3  0  0  0  0  0  0
  196.0500  176.0200  144.0370 N   0  0  0  0  0  2  0  0  0  0  0  0
  194.3300  174.6720  143.1940 C   0  0  0  0  0  0  0  0  0  0  0  0
  193.2240  174.2880  142.7280 O   0  0  0  0  0  0  0  0  0  0  0  0
  194.5300  177.2900  145.8870 C   0  0  0  0  0  1  0  0  0  0  0  0
  192.5550  177.2390  144.4080 C   0  0  0  0  0  1  0  0  0  0  0  0
  193.2820  175.2980  145.5390 O   0  0  0  0  0  1  0  0  0  0  0  0
  193.7510  176.4410  144.8910 C   0  0  0  0  0  0  0  0  0  0  0  0
  197.1400  174.0670  145.0420 C   0  0  0  0  0  2  0  0  0  0  0  0
  196.2110  174.1860  146.0760 O   0  0  0  0  0  1  0  0  0  0  0  0
  196.4580  171.9270  140.6750 O   0  0  0  0  0  1  0  0  0  0  0  0
  195.3070  172.3370  141.3480 C   0  0  0  0  0  2  0  0  0  0  0  0
  187.9310  173.6970  141.6430 C   0  0  0  0  0  2  0  0  0  0  0  0
  188.5030  176.3170  144.1090 C   0  0  2  0  0  3  0  0  0  0  0  0
  189.8370  175.1790  142.3350 C   0  0  0  0  0  2  0  0  0  0  0  0
  187.3100  175.9890  143.4370 O   0  0  0  0  0  0  0  0  0  0  0  0
  188.5290  175.0970  141.5430 C   0  0  2  0  0  3  0  0  0  0  0  0
  189.5750  175.2580  143.8370 C   0  0  0  0  0  2  0  0  0  0  0  0
  187.5560  176.1660  142.0630 C   0  0  0  0  0  2  0  0  0  0  0  0
  186.5270  176.9100  147.3500 C   0  0  0  0  0  1  0  0  0  0  0  0
  186.9960  176.7410  145.9450 C   0  0  0  0  0  3  0  0  0  0  0  0
  188.2500  176.4470  145.5780 C   0  0  0  0  0  0  0  0  0  0  0  0
  190.6780  175.3240  147.9120 N   0  0  0  0  0  0  0  0  0  0  0  0
  190.9710  176.6380  147.8040 C   0  0  0  0  0  3  0  0  0  0  0  0
  190.1270  177.2280  146.9350 N   0  0  0  0  0  0  0  0  0  0  0  0
  189.6520  175.1170  147.1040 N   0  0  0  0  0  0  0  0  0  0  0  0
  189.3280  176.2580  146.5210 N   0  0  0  0  0  0  0  0  0  0  0  0
  1  3  1  0  0  0  0
  2  6  2  0  0  0  0
  4 26  1  0  0  0  0
  4  1  1  0  0  0  0
  5  2  1  0  0  0  0
  5  4  2  0  0  0  0
  6  7  1  0  0  0  0
  6  1  1  0  0  0  0
  7  8  1  0  0  0  0
  9  8  2  0  0  0  0
  9 10  1  0  0  0  0
 11 25  1  6  0  0  0
 11 13  1  0  0  0  0
 11 10  1  0  0  0  0
 12 15  1  0  0  0  0
 12 22  1  1  0  0  0
 13 12  1  0  0  0  0
 14 15  1  0  0  0  0
 14 21  1  1  0  0  0
 16 13  1  0  0  0  0
 16 14  1  0  0  0  0
 17 16  2  0  0  0  0
 19 21  1  0  0  0  0
 21 20  1  0  0  0  0
 21 18  1  0  0  0  0
 22 23  1  0  0  0  0
 24 25  1  0  0  0  0
 27 35  1  1  0  0  0
 28 31  1  0  0  0  0
 29 27  1  0  0  0  0
 30 26  1  1  0  0  0
 30 32  1  0  0  0  0
 30 28  1  0  0  0  0
 31 27  1  0  0  0  0
 32 29  1  0  0  0  0
 34 33  1  0  0  0  0
 35 34  2  0  0  0  0
 35 40  1  0  0  0  0
 37 36  1  0  0  0  0
 38 37  2  0  0  0  0
 39 36  2  0  0  0  0
 40 38  1  0  0  0  0
 40 39  1  0  0  0  0
M  END
>  <MODEL>
4

>  <REMARK>
 VINA RESULT:      -6.4      2.006      7.025
  Name = 
  12 active torsions:
  status: ('A' for Active; 'I' for Inactive)
    1  A    between atoms: C_1  and  C_28
    2  A    between atoms: C_1  and  CA_30
    3  A    between atoms: C_2  and  C_26
    4  A    between atoms: C_8  and  C_11
    5  A    between atoms: C_9  and  C_40
    6  A    between atoms: C_14  and  C_37
    7  A    between atoms: C_15  and  C_40
    8  A    between atoms: N_19  and  CA_30
    9  A    between atoms: CA_21  and  C_33
   10  A    between atoms: C_26  and  N_38
   11  A    between atoms: CA_30  and  C_39
   12  A    between atoms: C_35  and  C_37
                            x       y       z     vdW  Elec       q    Type
                         _______ _______ _______ _____ _____    ______ ____

>  <TORSDO>
F 12

$$$$
=
 OpenBabel11062419323D

 40 43  0  0  1  0  0  0  0  0999 V2000
  189.4390  171.9300  142.4070 N   0  0  0  0  0  0  0  0  0  0  0  0
  190.3010  171.5670  140.3990 N   0  0  0  0  0  0  0  0  0  0  0  0
  189.2380  171.9160  143.7670 O   0  0  0  0  0  1  0  0  0  0  0  0
  188.9010  172.7670  141.5070 C   0  0  0  0  0  0  0  0  0  0  0  0
  189.4220  172.5550  140.2810 N   0  0  0  0  0  0  0  0  0  0  0  0
  190.3060  171.1950  141.6950 C   0  0  0  0  0  0  0  0  0  0  0  0
  191.2360  170.1730  142.2660 C   0  0  0  0  0  2  0  0  0  0  0  0
  192.3920  170.8140  142.9690 C   0  0  0  0  0  3  0  0  0  0  0  0
  193.4180  171.3190  142.2870 C   0  0  0  0  0  3  0  0  0  0  0  0
  194.5730  171.9390  142.9970 C   0  0  0  0  0  2  0  0  0  0  0  0
  195.0130  173.2190  142.2950 C   0  0  2  0  0  3  0  0  0  0  0  0
  195.8120  175.3090  143.5820 C   0  0  1  0  0  3  0  0  0  0  0  0
  194.7770  174.3960  143.1320 N   0  0  0  0  0  0  0  0  0  0  0  0
  193.7070  176.1400  144.3400 C   0  0  1  0  0  3  0  0  0  0  0  0
  195.1590  176.3910  144.3460 N   0  0  0  0  0  2  0  0  0  0  0  0
  193.5350  174.9030  143.5520 C   0  0  0  0  0  0  0  0  0  0  0  0
  192.4270  174.3820  143.2530 O   0  0  0  0  0  0  0  0  0  0  0  0
  193.9740  176.8480  146.7620 C   0  0  0  0  0  1  0  0  0  0  0  0
  191.7220  176.5220  145.8060 C   0  0  0  0  0  1  0  0  0  0  0  0
  193.1660  174.6910  146.1790 O   0  0  0  0  0  1  0  0  0  0  0  0
  193.1560  176.0270  145.7750 C   0  0  0  0  0  0  0  0  0  0  0  0
  196.8110  174.5820  144.4710 C   0  0  0  0  0  2  0  0  0  0  0  0
  196.3130  174.4950  145.7720 O   0  0  0  0  0  1  0  0  0  0  0  0
  194.7250  174.4950  140.2990 O   0  0  0  0  0  1  0  0  0  0  0  0
  194.2910  173.3490  140.9650 C   0  0  0  0  0  2  0  0  0  0  0  0
  187.9630  173.8790  141.8350 C   0  0  0  0  0  2  0  0  0  0  0  0
  187.1870  177.1840  143.1550 C   0  0  2  0  0  3  0  0  0  0  0  0
  189.1770  175.6830  143.0910 C   0  0  0  0  0  2  0  0  0  0  0  0
  186.6560  176.5460  142.0180 O   0  0  0  0  0  0  0  0  0  0  0  0
  188.6660  175.2280  141.7220 C   0  0  2  0  0  3  0  0  0  0  0  0
  188.0400  176.2040  143.9660 C   0  0  0  0  0  2  0  0  0  0  0  0
  187.7340  176.3050  141.1460 C   0  0  0  0  0  2  0  0  0  0  0  0
  183.8870  178.9690  143.9850 C   0  0  0  0  0  1  0  0  0  0  0  0
  185.0830  178.3500  143.3440 C   0  0  0  0  0  3  0  0  0  0  0  0
  186.0820  177.7430  143.9970 C   0  0  0  0  0  0  0  0  0  0  0  0
  185.8310  176.8520  147.4240 N   0  0  0  0  0  0  0  0  0  0  0  0
  186.5110  178.0170  147.4800 C   0  0  0  0  0  3  0  0  0  0  0  0
  186.7000  178.5010  146.2370 N   0  0  0  0  0  0  0  0  0  0  0  0
  185.6060  176.6290  146.1400 N   0  0  0  0  0  0  0  0  0  0  0  0
  186.1290  177.6170  145.4350 N   0  0  0  0  0  0  0  0  0  0  0  0
  1  3  1  0  0  0  0
  2  6  2  0  0  0  0
  4 26  1  0  0  0  0
  4  1  1  0  0  0  0
  5  2  1  0  0  0  0
  5  4  2  0  0  0  0
  6  7  1  0  0  0  0
  6  1  1  0  0  0  0
  7  8  1  0  0  0  0
  9  8  2  0  0  0  0
  9 10  1  0  0  0  0
 11 25  1  6  0  0  0
 11 10  1  0  0  0  0
 11 13  1  0  0  0  0
 12 15  1  0  0  0  0
 12 22  1  1  0  0  0
 13 16  1  0  0  0  0
 13 12  1  0  0  0  0
 14 15  1  0  0  0  0
 14 21  1  1  0  0  0
 16 14  1  0  0  0  0
 17 16  2  0  0  0  0
 21 19  1  0  0  0  0
 21 20  1  0  0  0  0
 21 18  1  0  0  0  0
 22 23  1  0  0  0  0
 24 25  1  0  0  0  0
 27 31  1  0  0  0  0
 27 35  1  1  0  0  0
 28 31  1  0  0  0  0
 29 27  1  0  0  0  0
 30 26  1  1  0  0  0
 30 28  1  0  0  0  0
 32 30  1  0  0  0  0
 32 29  1  0  0  0  0
 34 33  1  0  0  0  0
 34 35  2  0  0  0  0
 35 40  1  0  0  0  0
 36 37  1  0  0  0  0
 38 37  2  0  0  0  0
 39 36  2  0  0  0  0
 40 39  1  0  0  0  0
 40 38  1  0  0  0  0
M  END
>  <MODEL>
5

>  <REMARK>
 VINA RESULT:      -6.4      2.172      7.494
  Name = 
  12 active torsions:
  status: ('A' for Active; 'I' for Inactive)
    1  A    between atoms: C_1  and  C_28
    2  A    between atoms: C_1  and  CA_30
    3  A    between atoms: C_2  and  C_26
    4  A    between atoms: C_8  and  C_11
    5  A    between atoms: C_9  and  C_40
    6  A    between atoms: C_14  and  C_37
    7  A    between atoms: C_15  and  C_40
    8  A    between atoms: N_19  and  CA_30
    9  A    between atoms: CA_21  and  C_33
   10  A    between atoms: C_26  and  N_38
   11  A    between atoms: CA_30  and  C_39
   12  A    between atoms: C_35  and  C_37
                            x       y       z     vdW  Elec       q    Type
                         _______ _______ _______ _____ _____    ______ ____

>  <TORSDO>
F 12

$$$$
=
 OpenBabel11062419323D

 40 43  0  0  1  0  0  0  0  0999 V2000
  189.8030  171.9150  142.8120 N   0  0  0  0  0  0  0  0  0  0  0  0
  191.0630  171.3680  141.0740 N   0  0  0  0  0  0  0  0  0  0  0  0
  189.3520  172.0820  144.1000 O   0  0  0  0  0  1  0  0  0  0  0  0
  189.3610  172.5240  141.7020 C   0  0  0  0  0  0  0  0  0  0  0  0
  190.1230  172.1990  140.6380 N   0  0  0  0  0  0  0  0  0  0  0  0
  190.8610  171.2020  142.3960 C   0  0  0  0  0  0  0  0  0  0  0  0
  191.7680  170.4140  143.2860 C   0  0  0  0  0  2  0  0  0  0  0  0
  193.1520  170.9870  143.3070 C   0  0  0  0  0  3  0  0  0  0  0  0
  193.9690  170.7750  144.3360 C   0  0  0  0  0  3  0  0  0  0  0  0
  195.3380  171.3660  144.3550 C   0  0  0  0  0  2  0  0  0  0  0  0
  195.4370  172.4630  145.4090 C   0  0  2  0  0  3  0  0  0  0  0  0
  194.1220  174.6790  145.5600 C   0  0  1  0  0  3  0  0  0  0  0  0
  195.0120  173.7580  144.8760 N   0  0  0  0  0  0  0  0  0  0  0  0
  194.8320  175.7030  143.5250 C   0  0  1  0  0  3  0  0  0  0  0  0
  193.9930  175.8880  144.7220 N   0  0  0  0  0  2  0  0  0  0  0  0
  195.4540  174.3740  143.6930 C   0  0  0  0  0  0  0  0  0  0  0  0
  196.3000  173.8650  142.9100 O   0  0  0  0  0  0  0  0  0  0  0  0
  194.8560  176.2020  141.0360 C   0  0  0  0  0  1  0  0  0  0  0  0
  193.3220  174.4940  141.9450 C   0  0  0  0  0  1  0  0  0  0  0  0
  193.0040  176.7880  142.4050 O   0  0  0  0  0  1  0  0  0  0  0  0
  193.9970  175.8220  142.2350 C   0  0  0  0  0  0  0  0  0  0  0  0
  192.7540  174.0440  145.7620 C   0  0  0  0  0  2  0  0  0  0  0  0
  191.7580  175.0140  145.6470 O   0  0  0  0  0  1  0  0  0  0  0  0
  197.0760  173.7750  146.5460 O   0  0  0  0  0  1  0  0  0  0  0  0
  196.8600  172.5380  145.9390 C   0  0  0  0  0  2  0  0  0  0  0  0
  188.2670  173.5370  141.6680 C   0  0  0  0  0  2  0  0  0  0  0  0
  187.7190  176.6990  143.3920 C   0  0  2  0  0  3  0  0  0  0  0  0
  189.6870  175.3520  142.6650 C   0  0  0  0  0  2  0  0  0  0  0  0
  186.9230  176.0880  142.4040 O   0  0  0  0  0  0  0  0  0  0  0  0
  188.8350  174.9380  141.4630 C   0  0  2  0  0  3  0  0  0  0  0  0
  188.8170  175.7400  143.8590 C   0  0  0  0  0  2  0  0  0  0  0  0
  187.7220  175.9750  141.2510 C   0  0  0  0  0  2  0  0  0  0  0  0
  186.3980  176.8270  146.9980 C   0  0  0  0  0  1  0  0  0  0  0  0
  187.1200  176.5440  145.7240 C   0  0  0  0  0  3  0  0  0  0  0  0
  186.8690  177.1290  144.5470 C   0  0  0  0  0  0  0  0  0  0  0  0
  183.9520  179.0400  143.8820 N   0  0  0  0  0  0  0  0  0  0  0  0
  184.8320  179.9870  144.2690 C   0  0  0  0  0  3  0  0  0  0  0  0
  186.0170  179.4200  144.5690 N   0  0  0  0  0  0  0  0  0  0  0  0
  184.6060  177.8920  143.9470 N   0  0  0  0  0  0  0  0  0  0  0  0
  185.8400  178.1250  144.3600 N   0  0  0  0  0  0  0  0  0  0  0  0
  1  3  1  0  0  0  0
  2  6  2  0  0  0  0
  4  1  1  0  0  0  0
  5  2  1  0  0  0  0
  5  4  2  0  0  0  0
  6  1  1  0  0  0  0
  6  7  1  0  0  0  0
  7  8  1  0  0  0  0
  8  9  2  0  0  0  0
  9 10  1  0  0  0  0
 11 10  1  6  0  0  0
 11 25  1  0  0  0  0
 12 22  1  6  0  0  0
 13 11  1  0  0  0  0
 13 12  1  0  0  0  0
 14 21  1  6  0  0  0
 14 16  1  0  0  0  0
 14 15  1  0  0  0  0
 15 12  1  0  0  0  0
 16 13  1  0  0  0  0
 17 16  2  0  0  0  0
 18 21  1  0  0  0  0
 19 21  1  0  0  0  0
 21 20  1  0  0  0  0
 23 22  1  0  0  0  0
 25 24  1  0  0  0  0
 26  4  1  0  0  0  0
 27 31  1  0  0  0  0
 27 35  1  1  0  0  0
 28 31  1  0  0  0  0
 29 27  1  0  0  0  0
 30 26  1  1  0  0  0
 30 28  1  0  0  0  0
 32 30  1  0  0  0  0
 32 29  1  0  0  0  0
 34 33  1  0  0  0  0
 35 34  2  0  0  0  0
 36 39  2  0  0  0  0
 36 37  1  0  0  0  0
 37 38  2  0  0  0  0
 39 40  1  0  0  0  0
 40 35  1  0  0  0  0
 40 38  1  0  0  0  0
M  END
>  <MODEL>
6

>  <REMARK>
 VINA RESULT:      -6.3      2.259      7.892
  Name = 
  12 active torsions:
  status: ('A' for Active; 'I' for Inactive)
    1  A    between atoms: C_1  and  C_28
    2  A    between atoms: C_1  and  CA_30
    3  A    between atoms: C_2  and  C_26
    4  A    between atoms: C_8  and  C_11
    5  A    between atoms: C_9  and  C_40
    6  A    between atoms: C_14  and  C_37
    7  A    between atoms: C_15  and  C_40
    8  A    between atoms: N_19  and  CA_30
    9  A    between atoms: CA_21  and  C_33
   10  A    between atoms: C_26  and  N_38
   11  A    between atoms: CA_30  and  C_39
   12  A    between atoms: C_35  and  C_37
                            x       y       z     vdW  Elec       q    Type
                         _______ _______ _______ _____ _____    ______ ____

>  <TORSDO>
F 12

$$$$
=
 OpenBabel11062419323D

 40 43  0  0  1  0  0  0  0  0999 V2000
  193.5580  176.1570  144.2770 N   0  0  0  0  0  0  0  0  0  0  0  0
  194.7530  175.6490  146.0710 N   0  0  0  0  0  0  0  0  0  0  0  0
  193.1300  176.2530  142.9730 O   0  0  0  0  0  1  0  0  0  0  0  0
  192.8470  176.3780  145.3920 C   0  0  0  0  0  0  0  0  0  0  0  0
  193.5660  176.0690  146.4910 N   0  0  0  0  0  0  0  0  0  0  0  0
  194.7390  175.7040  144.7240 C   0  0  0  0  0  0  0  0  0  0  0  0
  195.8570  175.2190  143.8570 C   0  0  0  0  0  2  0  0  0  0  0  0
  195.9280  173.7230  143.8380 C   0  0  0  0  0  3  0  0  0  0  0  0
  194.8460  172.9860  143.5970 C   0  0  0  0  0  3  0  0  0  0  0  0
  194.9250  171.4970  143.5990 C   0  0  0  0  0  2  0  0  0  0  0  0
  194.4150  170.9290  142.2780 C   0  0  2  0  0  3  0  0  0  0  0  0
  192.3460  171.5390  140.8600 C   0  0  1  0  0  3  0  0  0  0  0  0
  192.9810  171.1660  142.1120 N   0  0  0  0  0  0  0  0  0  0  0  0
  190.6410  171.2740  142.5090 C   0  0  1  0  0  3  0  0  0  0  0  0
  190.8920  171.6210  141.0990 N   0  0  0  0  0  2  0  0  0  0  0  0
  191.9730  170.9800  143.0740 C   0  0  0  0  0  0  0  0  0  0  0  0
  192.1900  170.5760  144.2480 O   0  0  0  0  0  0  0  0  0  0  0  0
  190.8570  173.5490  143.6110 C   0  0  0  0  0  1  0  0  0  0  0  0
  188.8160  172.9700  142.3500 C   0  0  0  0  0  1  0  0  0  0  0  0
  189.3180  171.9240  144.4060 O   0  0  0  0  0  1  0  0  0  0  0  0
  189.9100  172.4150  143.2420 C   0  0  0  0  0  0  0  0  0  0  0  0
  192.8670  172.8860  140.3820 C   0  0  0  0  0  2  0  0  0  0  0  0
  191.8020  173.7700  140.2010 O   0  0  0  0  0  1  0  0  0  0  0  0
  195.2830  169.0140  143.4090 O   0  0  0  0  0  1  0  0  0  0  0  0
  194.7300  169.4440  142.2030 C   0  0  0  0  0  2  0  0  0  0  0  0
  191.4090  176.7730  145.4190 C   0  0  0  0  0  2  0  0  0  0  0  0
  187.9680  176.8560  146.6130 C   0  0  2  0  0  3  0  0  0  0  0  0
  189.8200  175.1860  146.5420 C   0  0  0  0  0  2  0  0  0  0  0  0
  188.9010  177.9090  146.5490 O   0  0  0  0  0  0  0  0  0  0  0  0
  190.7650  176.3730  146.7420 C   0  0  2  0  0  3  0  0  0  0  0  0
  188.5100  175.6200  145.8880 C   0  0  0  0  0  2  0  0  0  0  0  0
  189.9860  177.5400  147.3670 C   0  0  0  0  0  2  0  0  0  0  0  0
  184.3190  178.0510  146.5050 C   0  0  0  0  0  1  0  0  0  0  0  0
  185.6880  177.5970  146.8820 C   0  0  0  0  0  3  0  0  0  0  0  0
  186.6630  177.2860  146.0190 C   0  0  0  0  0  0  0  0  0  0  0  0
  185.9770  176.8120  142.5680 N   0  0  0  0  0  0  0  0  0  0  0  0
  186.5990  178.0110  142.5740 C   0  0  0  0  0  3  0  0  0  0  0  0
  186.9310  178.3500  143.8350 N   0  0  0  0  0  0  0  0  0  0  0  0
  185.9320  176.4230  143.8320 N   0  0  0  0  0  0  0  0  0  0  0  0
  186.5030  177.3480  144.5850 N   0  0  0  0  0  0  0  0  0  0  0  0
  1  6  1  0  0  0  0
  1  4  1  0  0  0  0
  2  5  1  0  0  0  0
  3  1  1  0  0  0  0
  4 26  1  0  0  0  0
  4  5  2  0  0  0  0
  6  2  2  0  0  0  0
  7  6  1  0  0  0  0
  8  7  1  0  0  0  0
  9 10  1  0  0  0  0
  9  8  2  0  0  0  0
 11 25  1  1  0  0  0
 11 10  1  0  0  0  0
 12 22  1  1  0  0  0
 12 15  1  0  0  0  0
 12 13  1  0  0  0  0
 13 11  1  0  0  0  0
 13 16  1  0  0  0  0
 14 16  1  0  0  0  0
 14 21  1  1  0  0  0
 15 14  1  0  0  0  0
 16 17  2  0  0  0  0
 19 21  1  0  0  0  0
 21 18  1  0  0  0  0
 21 20  1  0  0  0  0
 23 22  1  0  0  0  0
 25 24  1  0  0  0  0
 27 35  1  6  0  0  0
 28 30  1  0  0  0  0
 29 27  1  0  0  0  0
 29 32  1  0  0  0  0
 30 26  1  6  0  0  0
 30 32  1  0  0  0  0
 31 28  1  0  0  0  0
 31 27  1  0  0  0  0
 33 34  1  0  0  0  0
 35 34  2  0  0  0  0
 36 37  1  0  0  0  0
 36 39  2  0  0  0  0
 37 38  2  0  0  0  0
 38 40  1  0  0  0  0
 39 40  1  0  0  0  0
 40 35  1  0  0  0  0
M  END
>  <MODEL>
7

>  <REMARK>
 VINA RESULT:      -6.3      2.166      8.043
  Name = 
  12 active torsions:
  status: ('A' for Active; 'I' for Inactive)
    1  A    between atoms: C_1  and  C_28
    2  A    between atoms: C_1  and  CA_30
    3  A    between atoms: C_2  and  C_26
    4  A    between atoms: C_8  and  C_11
    5  A    between atoms: C_9  and  C_40
    6  A    between atoms: C_14  and  C_37
    7  A    between atoms: C_15  and  C_40
    8  A    between atoms: N_19  and  CA_30
    9  A    between atoms: CA_21  and  C_33
   10  A    between atoms: C_26  and  N_38
   11  A    between atoms: CA_30  and  C_39
   12  A    between atoms: C_35  and  C_37
                            x       y       z     vdW  Elec       q    Type
                         _______ _______ _______ _____ _____    ______ ____

>  <TORSDO>
F 12

$$$$
=
 OpenBabel11062419323D

 40 43  0  0  1  0  0  0  0  0999 V2000
  194.9100  174.7120  144.4420 N   0  0  0  0  0  0  0  0  0  0  0  0
  195.7000  176.7660  144.6890 N   0  0  0  0  0  0  0  0  0  0  0  0
  194.1700  173.5650  144.6100 O   0  0  0  0  0  1  0  0  0  0  0  0
  195.6610  175.0550  143.3850 C   0  0  0  0  0  0  0  0  0  0  0  0
  196.1460  176.3070  143.5250 N   0  0  0  0  0  0  0  0  0  0  0  0
  194.9490  175.7910  145.2380 C   0  0  0  0  0  0  0  0  0  0  0  0
  194.1810  175.9460  146.5110 C   0  0  0  0  0  2  0  0  0  0  0  0
  192.7690  176.3730  146.2520 C   0  0  0  0  0  3  0  0  0  0  0  0
  191.8710  176.4120  147.2350 C   0  0  0  0  0  3  0  0  0  0  0  0
  190.4630  176.8210  146.9620 C   0  0  0  0  0  2  0  0  0  0  0  0
  189.9030  176.0610  145.7650 C   0  0  2  0  0  3  0  0  0  0  0  0
  187.7770  177.5230  145.8130 C   0  0  1  0  0  3  0  0  0  0  0  0
  188.8280  176.8080  145.1120 N   0  0  0  0  0  0  0  0  0  0  0  0
  187.4950  177.8940  143.4720 C   0  0  1  0  0  3  0  0  0  0  0  0
  186.9330  178.1920  144.8020 N   0  0  0  0  0  2  0  0  0  0  0  0
  188.6790  177.0520  143.7350 C   0  0  0  0  0  0  0  0  0  0  0  0
  189.4820  176.6360  142.8580 O   0  0  0  0  0  0  0  0  0  0  0  0
  185.0420  177.7130  142.8450 C   0  0  0  0  0  1  0  0  0  0  0  0
  186.7870  177.4760  141.1150 C   0  0  0  0  0  1  0  0  0  0  0  0
  186.4860  175.8260  142.7770 O   0  0  0  0  0  1  0  0  0  0  0  0
  186.4520  177.2060  142.5690 C   0  0  0  0  0  0  0  0  0  0  0  0
  186.9320  176.5570  146.6300 C   0  0  0  0  0  2  0  0  0  0  0  0
  185.6130  176.5760  146.1740 O   0  0  0  0  0  1  0  0  0  0  0  0
  189.9190  173.7100  145.3530 O   0  0  0  0  0  1  0  0  0  0  0  0
  189.4170  174.6910  146.2080 C   0  0  0  0  0  2  0  0  0  0  0  0
  195.8260  174.2290  142.1550 C   0  0  0  0  0  2  0  0  0  0  0  0
  192.8790  173.8480  140.0470 C   0  0  2  0  0  3  0  0  0  0  0  0
  194.0200  175.7160  141.2410 C   0  0  0  0  0  2  0  0  0  0  0  0
  194.0840  173.1210  140.0110 O   0  0  0  0  0  0  0  0  0  0  0  0
  195.3280  174.9860  140.9270 C   0  0  2  0  0  3  0  0  0  0  0  0
  192.8380  174.7500  141.2840 C   0  0  0  0  0  2  0  0  0  0  0  0
  195.1080  174.0460  139.7330 C   0  0  0  0  0  2  0  0  0  0  0  0
  190.9760  170.5160  140.2320 C   0  0  0  0  0  1  0  0  0  0  0  0
  191.9860  171.6120  140.2030 C   0  0  0  0  0  3  0  0  0  0  0  0
  191.7110  172.9120  140.0380 C   0  0  0  0  0  0  0  0  0  0  0  0
  188.4340  174.2560  140.2820 N   0  0  0  0  0  0  0  0  0  0  0  0
  188.5380  173.9930  138.9620 C   0  0  0  0  0  3  0  0  0  0  0  0
  189.7500  173.4690  138.6910 N   0  0  0  0  0  0  0  0  0  0  0  0
  189.5890  173.8900  140.8140 N   0  0  0  0  0  0  0  0  0  0  0  0
  190.3720  173.4220  139.8570 N   0  0  0  0  0  0  0  0  0  0  0  0
  1  3  1  0  0  0  0
  1  6  1  0  0  0  0
  2  6  2  0  0  0  0
  4  5  2  0  0  0  0
  4  1  1  0  0  0  0
  5  2  1  0  0  0  0
  6  7  1  0  0  0  0
  8  7  1  0  0  0  0
  8  9  2  0  0  0  0
 10  9  1  0  0  0  0
 11 25  1  1  0  0  0
 11 10  1  0  0  0  0
 12 22  1  6  0  0  0
 13 11  1  0  0  0  0
 13 12  1  0  0  0  0
 14 21  1  6  0  0  0
 14 16  1  0  0  0  0
 14 15  1  0  0  0  0
 15 12  1  0  0  0  0
 16 13  1  0  0  0  0
 17 16  2  0  0  0  0
 19 21  1  0  0  0  0
 21 20  1  0  0  0  0
 21 18  1  0  0  0  0
 23 22  1  0  0  0  0
 24 25  1  0  0  0  0
 26  4  1  0  0  0  0
 27 35  1  1  0  0  0
 27 31  1  0  0  0  0
 28 31  1  0  0  0  0
 29 27  1  0  0  0  0
 30 28  1  0  0  0  0
 30 26  1  1  0  0  0
 32 29  1  0  0  0  0
 32 30  1  0  0  0  0
 34 33  1  0  0  0  0
 35 34  2  0  0  0  0
 36 39  2  0  0  0  0
 37 36  1  0  0  0  0
 38 37  2  0  0  0  0
 38 40  1  0  0  0  0
 40 35  1  0  0  0  0
 40 39  1  0  0  0  0
M  END
>  <MODEL>
8

>  <REMARK>
 VINA RESULT:      -6.3      2.088      6.133
  Name = 
  12 active torsions:
  status: ('A' for Active; 'I' for Inactive)
    1  A    between atoms: C_1  and  C_28
    2  A    between atoms: C_1  and  CA_30
    3  A    between atoms: C_2  and  C_26
    4  A    between atoms: C_8  and  C_11
    5  A    between atoms: C_9  and  C_40
    6  A    between atoms: C_14  and  C_37
    7  A    between atoms: C_15  and  C_40
    8  A    between atoms: N_19  and  CA_30
    9  A    between atoms: CA_21  and  C_33
   10  A    between atoms: C_26  and  N_38
   11  A    between atoms: CA_30  and  C_39
   12  A    between atoms: C_35  and  C_37
                            x       y       z     vdW  Elec       q    Type
                         _______ _______ _______ _____ _____    ______ ____

>  <TORSDO>
F 12

$$$$
=
 OpenBabel11062419323D

 40 43  0  0  1  0  0  0  0  0999 V2000
  189.7610  173.1130  141.0880 N   0  0  0  0  0  0  0  0  0  0  0  0
  189.7470  173.5890  138.9250 N   0  0  0  0  0  0  0  0  0  0  0  0
  190.1650  172.6860  142.3320 O   0  0  0  0  0  1  0  0  0  0  0  0
  188.7270  173.9130  140.7910 C   0  0  0  0  0  0  0  0  0  0  0  0
  188.7110  174.2110  139.4760 N   0  0  0  0  0  0  0  0  0  0  0  0
  190.3800  172.9250  139.9130 C   0  0  0  0  0  0  0  0  0  0  0  0
  191.6600  172.1750  139.7270 C   0  0  0  0  0  2  0  0  0  0  0  0
  192.8080  172.8740  140.3890 C   0  0  0  0  0  3  0  0  0  0  0  0
  193.1250  174.1270  140.0710 C   0  0  0  0  0  3  0  0  0  0  0  0
  194.2810  174.8080  140.7220 C   0  0  0  0  0  2  0  0  0  0  0  0
  195.0250  173.8450  141.6420 C   0  0  2  0  0  3  0  0  0  0  0  0
  194.7200  173.4890  144.1800 C   0  0  1  0  0  3  0  0  0  0  0  0
  195.0210  174.3180  143.0270 N   0  0  0  0  0  0  0  0  0  0  0  0
  195.3100  175.6650  144.9620 C   0  0  1  0  0  3  0  0  0  0  0  0
  194.8840  174.3200  145.3890 N   0  0  0  0  0  2  0  0  0  0  0  0
  195.3980  175.5900  143.4900 C   0  0  0  0  0  0  0  0  0  0  0  0
  195.7970  176.5200  142.7390 O   0  0  0  0  0  0  0  0  0  0  0  0
  193.0670  176.7960  144.6010 C   0  0  0  0  0  1  0  0  0  0  0  0
  193.9260  176.4450  146.8880 C   0  0  0  0  0  1  0  0  0  0  0  0
  194.9450  177.9940  145.4270 O   0  0  0  0  0  1  0  0  0  0  0  0
  194.3260  176.7440  145.4560 C   0  0  0  0  0  0  0  0  0  0  0  0
  193.2910  172.9700  144.1020 C   0  0  0  0  0  2  0  0  0  0  0  0
  193.2450  171.6400  144.5190 O   0  0  0  0  0  1  0  0  0  0  0  0
  196.7810  174.6780  140.2560 O   0  0  0  0  0  1  0  0  0  0  0  0
  196.4460  173.6520  141.1410 C   0  0  0  0  0  2  0  0  0  0  0  0
  187.8020  174.5140  141.7950 C   0  0  0  0  0  2  0  0  0  0  0  0
  187.7070  177.2030  144.2510 C   0  0  2  0  0  3  0  0  0  0  0  0
  189.0600  176.6420  142.2320 C   0  0  0  0  0  2  0  0  0  0  0  0
  186.6430  176.4160  143.7690 O   0  0  0  0  0  0  0  0  0  0  0  0
  187.7770  176.0330  141.6630 C   0  0  2  0  0  3  0  0  0  0  0  0
  189.0460  176.6460  143.7600 C   0  0  0  0  0  2  0  0  0  0  0  0
  186.5650  176.6440  142.3820 C   0  0  0  0  0  2  0  0  0  0  0  0
  186.4880  178.1800  147.7610 C   0  0  0  0  0  1  0  0  0  0  0  0
  186.7040  177.9960  146.2970 C   0  0  0  0  0  3  0  0  0  0  0  0
  187.6740  177.2550  145.7460 C   0  0  0  0  0  0  0  0  0  0  0  0
  189.6360  174.9490  147.6010 N   0  0  0  0  0  0  0  0  0  0  0  0
  190.3940  176.0660  147.6400 C   0  0  0  0  0  3  0  0  0  0  0  0
  189.7840  177.0600  146.9650 N   0  0  0  0  0  0  0  0  0  0  0  0
  188.5610  175.2680  146.8990 N   0  0  0  0  0  0  0  0  0  0  0  0
  188.6560  176.5310  146.5200 N   0  0  0  0  0  0  0  0  0  0  0  0
  1  3  1  0  0  0  0
  2  5  1  0  0  0  0
  2  6  2  0  0  0  0
  4  1  1  0  0  0  0
  4 26  1  0  0  0  0
  5  4  2  0  0  0  0
  6  1  1  0  0  0  0
  7  6  1  0  0  0  0
  7  8  1  0  0  0  0
  9  8  2  0  0  0  0
  9 10  1  0  0  0  0
 11 10  1  6  0  0  0
 11 13  1  0  0  0  0
 12 22  1  6  0  0  0
 12 15  1  0  0  0  0
 13 16  1  0  0  0  0
 13 12  1  0  0  0  0
 14 15  1  0  0  0  0
 14 21  1  6  0  0  0
 16 14  1  0  0  0  0
 17 16  2  0  0  0  0
 18 21  1  0  0  0  0
 20 21  1  0  0  0  0
 21 19  1  0  0  0  0
 22 23  1  0  0  0  0
 24 25  1  0  0  0  0
 25 11  1  0  0  0  0
 27 35  1  1  0  0  0
 28 31  1  0  0  0  0
 29 27  1  0  0  0  0
 30 26  1  1  0  0  0
 30 28  1  0  0  0  0
 30 32  1  0  0  0  0
 31 27  1  0  0  0  0
 32 29  1  0  0  0  0
 34 33  1  0  0  0  0
 35 34  2  0  0  0  0
 35 40  1  0  0  0  0
 36 37  1  0  0  0  0
 38 37  2  0  0  0  0
 39 36  2  0  0  0  0
 40 39  1  0  0  0  0
 40 38  1  0  0  0  0
M  END
>  <MODEL>
9

>  <REMARK>
 VINA RESULT:      -6.2      2.257      7.119
  Name = 
  12 active torsions:
  status: ('A' for Active; 'I' for Inactive)
    1  A    between atoms: C_1  and  C_28
    2  A    between atoms: C_1  and  CA_30
    3  A    between atoms: C_2  and  C_26
    4  A    between atoms: C_8  and  C_11
    5  A    between atoms: C_9  and  C_40
    6  A    between atoms: C_14  and  C_37
    7  A    between atoms: C_15  and  C_40
    8  A    between atoms: N_19  and  CA_30
    9  A    between atoms: CA_21  and  C_33
   10  A    between atoms: C_26  and  N_38
   11  A    between atoms: CA_30  and  C_39
   12  A    between atoms: C_35  and  C_37
                            x       y       z     vdW  Elec       q    Type
                         _______ _______ _______ _____ _____    ______ ____

>  <TORSDO>
F 12

$$$$
