=
 OpenBabel11072408583D

 45 50  0  0  1  0  0  0  0  0999 V2000
  188.3050  174.4750  139.3360 C   0  0  0  0  0  0  0  0  0  0  0  0
  188.6040  174.1060  140.6110 C   0  0  0  0  0  0  0  0  0  0  0  0
  186.9450  176.9460  142.4540 C   0  0  0  0  0  0  0  0  0  0  0  0
  185.6600  179.0640  143.0510 C   0  0  0  0  0  1  0  0  0  0  0  0
  187.5930  175.5880  139.0620 N   0  0  0  0  0  0  0  0  0  0  0  0
  186.4240  177.5200  139.7650 C   0  0  0  0  0  3  0  0  0  0  0  0
  188.8600  173.4960  138.3670 C   0  0  0  0  0  3  0  0  0  0  0  0
  187.1550  176.3820  140.0790 C   0  0  0  0  0  0  0  0  0  0  0  0
  187.4390  176.0630  141.4460 C   0  0  0  0  0  0  0  0  0  0  0  0
  185.9730  178.3370  140.7440 N   0  0  0  0  0  0  0  0  0  0  0  0
  188.2000  174.8750  141.7080 C   0  0  0  0  0  0  0  0  0  0  0  0
  188.5950  174.4200  143.0770 C   0  0  0  0  0  1  0  0  0  0  0  0
  186.2060  178.0910  142.0570 C   0  0  1  0  0  3  0  0  0  0  0  0
  189.5000  172.5180  139.2490 N   0  0  0  0  0  0  0  0  0  0  0  0
  189.3610  172.8670  140.4910 C   0  0  0  0  0  0  0  0  0  0  0  0
  188.0830  176.1160  146.7020 C   0  0  0  0  0  2  0  0  0  0  0  0
  186.8440  176.9420  147.0080 C   0  0  2  0  0  3  0  0  0  0  0  0
  188.9980  176.8360  145.6990 C   0  0  1  0  0  3  0  0  0  0  0  0
  185.8950  176.6480  144.6910 C   0  0  0  0  0  3  0  0  0  0  0  0
  186.4130  176.6650  148.2920 F   0  0  0  0  0  0  0  0  0  0  0  0
  188.2920  177.5790  144.5470 C   0  0  2  0  0  3  0  0  0  0  0  0
  184.4630  176.5810  146.5040 F   0  0  0  0  0  0  0  0  0  0  0  0
  185.7300  176.6940  146.0250 C   0  0  0  0  0  0  0  0  0  0  0  0
  187.1990  176.6910  143.9260 C   0  0  2  0  0  3  0  0  0  0  0  0
  189.2520  177.9290  143.5920 O   0  0  0  0  0  1  0  0  0  0  0  0
  190.7170  176.7580  147.2130 C   0  0  0  0  0  1  0  0  0  0  0  0
  190.0230  177.5860  146.3180 O   0  0  0  0  0  0  0  0  0  0  0  0
  189.8630  172.0170  141.6120 C   0  0  0  0  0  2  0  0  0  0  0  0
  191.3830  172.0940  141.7330 C   0  0  0  0  0  2  0  0  0  0  0  0
  193.5750  172.4090  145.3700 N   0  0  0  0  0  0  0  0  0  0  0  0
  192.4960  173.6590  143.9220 N   0  0  0  0  0  0  0  0  0  0  0  0
  191.8520  173.4730  141.6210 N   0  0  0  0  0  0  0  0  0  0  0  0
  192.6200  174.4710  145.0100 O   0  0  0  0  0  0  0  0  0  0  0  0
  193.3130  173.6800  145.8790 N   0  0  0  0  0  2  0  0  0  0  0  0
  192.3370  174.1880  142.5950 C   0  0  0  0  0  0  0  0  0  0  0  0
  193.0940  172.4020  144.1880 C   0  0  0  0  0  3  0  0  0  0  0  0
  192.6550  175.6250  142.3360 C   0  0  0  0  0  2  0  0  0  0  0  0
  196.3450  174.7530  141.7800 C   0  0  0  0  0  2  0  0  0  0  0  0
  195.9510  175.9560  143.9660 C   0  0  0  0  0  3  0  0  0  0  0  0
  194.7300  176.3180  143.5420 C   0  0  0  0  0  3  0  0  0  0  0  0
  194.8330  174.5630  141.7420 C   0  0  0  0  0  2  0  0  0  0  0  0
  194.1570  175.8400  142.2290 C   0  0  1  0  0  3  0  0  0  0  0  0
  196.8140  174.9630  143.2240 C   0  0  1  0  0  3  0  0  0  0  0  0
  197.3730  174.0220  145.1500 C   0  0  0  0  0  1  0  0  0  0  0  0
  196.8080  173.7430  143.9040 O   0  0  0  0  0  0  0  0  0  0  0  0
  1  2  1  0  0  0  0
  2 11  2  0  0  0  0
  5  1  1  0  0  0  0
  5  8  2  0  0  0  0
  6  8  1  0  0  0  0
  6 10  2  0  0  0  0
  7 14  1  0  0  0  0
  7  1  2  0  0  0  0
  8  9  1  0  0  0  0
  9 11  1  0  0  0  0
  9  3  2  0  0  0  0
 10 13  1  0  0  0  0
 11 12  1  0  0  0  0
 13  3  1  0  0  0  0
 13  4  1  6  0  0  0
 14 15  2  0  0  0  0
 15  2  1  0  0  0  0
 15 28  1  0  0  0  0
 16 17  1  0  0  0  0
 17 20  1  1  0  0  0
 18 27  1  1  0  0  0
 18 16  1  0  0  0  0
 19 23  2  0  0  0  0
 21 25  1  6  0  0  0
 21 18  1  0  0  0  0
 23 22  1  0  0  0  0
 23 17  1  0  0  0  0
 24  3  1  6  0  0  0
 24 21  1  0  0  0  0
 24 19  1  0  0  0  0
 27 26  1  0  0  0  0
 28 29  1  0  0  0  0
 30 34  1  0  0  0  0
 31 36  1  0  0  0  0
 31 33  1  0  0  0  0
 32 29  1  0  0  0  0
 32 35  2  0  0  0  0
 33 34  1  0  0  0  0
 35 31  1  0  0  0  0
 36 30  2  0  0  0  0
 37 35  1  0  0  0  0
 38 43  1  0  0  0  0
 40 39  2  0  0  0  0
 41 38  1  0  0  0  0
 41 42  1  0  0  0  0
 42 37  1  1  0  0  0
 42 40  1  0  0  0  0
 43 45  1  1  0  0  0
 43 39  1  0  0  0  0
 45 44  1  0  0  0  0
M  END
>  <MODEL>
1

>  <REMARK>
 VINA RESULT:      -8.4      0.000      0.000
  Name = 
  8 active torsions:
  status: ('A' for Active; 'I' for Inactive)
    1  A    between atoms: C_8  and  C_9
    2  A    between atoms: C_8  and  N_16
    3  A    between atoms: C_9  and  C_44
    4  A    between atoms: C_11  and  C_38
    5  A    between atoms: C_19  and  O_26
    6  A    between atoms: C_27  and  C_33
    7  A    between atoms: C_33  and  C_42
    8  A    between atoms: O_40  and  C_45
                            x       y       z     vdW  Elec       q    Type
                         _______ _______ _______ _____ _____    ______ ____

>  <TORSDO>
F 8

$$$$
=
 OpenBabel11072408583D

 45 50  0  0  1  0  0  0  0  0999 V2000
  188.4840  174.1920  139.5940 C   0  0  0  0  0  0  0  0  0  0  0  0
  188.7220  173.8710  140.8940 C   0  0  0  0  0  0  0  0  0  0  0  0
  187.0840  176.8410  142.5440 C   0  0  0  0  0  0  0  0  0  0  0  0
  185.8440  179.0200  142.9960 C   0  0  0  0  0  1  0  0  0  0  0  0
  187.8180  175.3130  139.2430 N   0  0  0  0  0  0  0  0  0  0  0  0
  186.6850  177.3080  139.8140 C   0  0  0  0  0  3  0  0  0  0  0  0
  189.0450  173.1540  138.6920 C   0  0  0  0  0  3  0  0  0  0  0  0
  187.3680  176.1640  140.2060 C   0  0  0  0  0  0  0  0  0  0  0  0
  187.5880  175.8990  141.5960 C   0  0  0  0  0  0  0  0  0  0  0  0
  186.2230  178.1810  140.7380 N   0  0  0  0  0  0  0  0  0  0  0  0
  188.3000  174.7020  141.9400 C   0  0  0  0  0  0  0  0  0  0  0  0
  188.6280  174.2970  143.3430 C   0  0  0  0  0  1  0  0  0  0  0  0
  186.3970  177.9880  142.0680 C   0  0  1  0  0  3  0  0  0  0  0  0
  189.6200  172.1980  139.6410 N   0  0  0  0  0  0  0  0  0  0  0  0
  189.4440  172.6070  140.8590 C   0  0  0  0  0  0  0  0  0  0  0  0
  188.0330  176.1760  146.8670 C   0  0  0  0  0  2  0  0  0  0  0  0
  186.7930  177.0280  147.0860 C   0  0  2  0  0  3  0  0  0  0  0  0
  188.9980  176.8420  145.8740 C   0  0  1  0  0  3  0  0  0  0  0  0
  185.9370  176.6490  144.7450 C   0  0  0  0  0  3  0  0  0  0  0  0
  186.3060  176.8110  148.3610 F   0  0  0  0  0  0  0  0  0  0  0  0
  188.3510  177.5440  144.6640 C   0  0  2  0  0  3  0  0  0  0  0  0
  184.4300  176.6750  146.4980 F   0  0  0  0  0  0  0  0  0  0  0  0
  185.7170  176.7530  146.0670 C   0  0  0  0  0  0  0  0  0  0  0  0
  187.2730  176.6440  144.0350 C   0  0  2  0  0  3  0  0  0  0  0  0
  189.3540  177.8420  143.7360 O   0  0  0  0  0  1  0  0  0  0  0  0
  190.7550  176.7670  147.3450 C   0  0  0  0  0  1  0  0  0  0  0  0
  190.0070  177.6050  146.5040 O   0  0  0  0  0  0  0  0  0  0  0  0
  189.8750  171.7940  142.0360 C   0  0  0  0  0  2  0  0  0  0  0  0
  191.3970  171.7300  142.1420 C   0  0  0  0  0  2  0  0  0  0  0  0
  195.3300  173.1000  141.2550 N   0  0  0  0  0  0  0  0  0  0  0  0
  194.1660  172.2210  142.8970 N   0  0  0  0  0  0  0  0  0  0  0  0
  191.8470  172.0780  143.4860 N   0  0  0  0  0  0  0  0  0  0  0  0
  195.4570  172.0450  143.2960 O   0  0  0  0  0  0  0  0  0  0  0  0
  196.1530  172.6190  142.2730 N   0  0  0  0  0  2  0  0  0  0  0  0
  193.0830  172.2850  143.8400 C   0  0  0  0  0  0  0  0  0  0  0  0
  194.1340  172.8710  141.6380 C   0  0  0  0  0  3  0  0  0  0  0  0
  193.3830  172.5100  145.2870 C   0  0  0  0  0  2  0  0  0  0  0  0
  193.4250  176.2980  144.7100 C   0  0  0  0  0  2  0  0  0  0  0  0
  195.7210  175.3670  145.2010 C   0  0  0  0  0  3  0  0  0  0  0  0
  195.1600  174.2290  145.6430 C   0  0  0  0  0  3  0  0  0  0  0  0
  193.0040  174.8490  144.5020 C   0  0  0  0  0  2  0  0  0  0  0  0
  193.6730  173.9780  145.5610 C   0  0  1  0  0  3  0  0  0  0  0  0
  194.9360  176.4460  144.4950 C   0  0  1  0  0  3  0  0  0  0  0  0
  196.6090  176.5520  143.0480 C   0  0  0  0  0  1  0  0  0  0  0  0
  195.2230  176.4090  143.1280 O   0  0  0  0  0  0  0  0  0  0  0  0
  1  2  1  0  0  0  0
  2 11  2  0  0  0  0
  5  1  1  0  0  0  0
  5  8  2  0  0  0  0
  6  8  1  0  0  0  0
  6 10  2  0  0  0  0
  7  1  2  0  0  0  0
  7 14  1  0  0  0  0
  8  9  1  0  0  0  0
  9 11  1  0  0  0  0
  9  3  2  0  0  0  0
 10 13  1  0  0  0  0
 11 12  1  0  0  0  0
 13  3  1  0  0  0  0
 13  4  1  6  0  0  0
 14 15  2  0  0  0  0
 15  2  1  0  0  0  0
 15 28  1  0  0  0  0
 16 17  1  0  0  0  0
 17 20  1  1  0  0  0
 18 27  1  1  0  0  0
 18 16  1  0  0  0  0
 19 23  2  0  0  0  0
 21 25  1  6  0  0  0
 21 18  1  0  0  0  0
 23 22  1  0  0  0  0
 23 17  1  0  0  0  0
 24  3  1  6  0  0  0
 24 21  1  0  0  0  0
 24 19  1  0  0  0  0
 27 26  1  0  0  0  0
 28 29  1  0  0  0  0
 29 32  1  0  0  0  0
 30 36  2  0  0  0  0
 30 34  1  0  0  0  0
 31 33  1  0  0  0  0
 31 35  1  0  0  0  0
 32 35  2  0  0  0  0
 34 33  1  0  0  0  0
 35 37  1  0  0  0  0
 36 31  1  0  0  0  0
 39 40  2  0  0  0  0
 41 38  1  0  0  0  0
 41 42  1  0  0  0  0
 42 37  1  6  0  0  0
 42 40  1  0  0  0  0
 43 45  1  6  0  0  0
 43 38  1  0  0  0  0
 43 39  1  0  0  0  0
 44 45  1  0  0  0  0
M  END
>  <MODEL>
2

>  <REMARK>
 VINA RESULT:      -8.4      1.354      2.062
  Name = 
  8 active torsions:
  status: ('A' for Active; 'I' for Inactive)
    1  A    between atoms: C_8  and  C_9
    2  A    between atoms: C_8  and  N_16
    3  A    between atoms: C_9  and  C_44
    4  A    between atoms: C_11  and  C_38
    5  A    between atoms: C_19  and  O_26
    6  A    between atoms: C_27  and  C_33
    7  A    between atoms: C_33  and  C_42
    8  A    between atoms: O_40  and  C_45
                            x       y       z     vdW  Elec       q    Type
                         _______ _______ _______ _____ _____    ______ ____

>  <TORSDO>
F 8

$$$$
=
 OpenBabel11072408583D

 45 50  0  0  1  0  0  0  0  0999 V2000
  190.5660  173.5850  138.7410 C   0  0  0  0  0  0  0  0  0  0  0  0
  190.4750  173.5140  140.0970 C   0  0  0  0  0  0  0  0  0  0  0  0
  194.0800  174.1930  140.9670 C   0  0  0  0  0  0  0  0  0  0  0  0
  196.5750  174.6970  140.8610 C   0  0  0  0  0  1  0  0  0  0  0  0
  191.7320  173.8470  138.1140 N   0  0  0  0  0  0  0  0  0  0  0  0
  194.0500  174.3130  138.1720 C   0  0  0  0  0  3  0  0  0  0  0  0
  189.2390  173.3460  138.1180 C   0  0  0  0  0  3  0  0  0  0  0  0
  192.8650  174.0440  138.8440 C   0  0  2  0  0  3  0  0  0  0  0  0
  192.8500  173.9750  140.2750 C   0  0  0  0  0  0  0  0  0  0  0  0
  195.1980  174.5120  138.8570 N   0  0  0  0  0  0  0  0  0  0  0  0
  191.5970  173.6930  140.9140 C   0  0  0  0  0  0  0  0  0  0  0  0
  191.4230  173.5670  142.3950 C   0  0  0  0  0  1  0  0  0  0  0  0
  195.2510  174.4620  140.2110 C   0  0  0  0  0  0  0  0  0  0  0  0
  188.3810  173.1420  139.2870 N   0  0  0  0  0  0  0  0  0  0  0  0
  189.0740  173.2280  140.3800 C   0  0  0  0  0  0  0  0  0  0  0  0
  194.1530  173.6540  145.4090 C   0  0  0  0  0  2  0  0  0  0  0  0
  195.2280  174.7270  145.3430 C   0  0  2  0  0  3  0  0  0  0  0  0
  194.4340  172.5220  144.4080 C   0  0  1  0  0  3  0  0  0  0  0  0
  194.5320  175.4900  143.0430 C   0  0  0  0  0  3  0  0  0  0  0  0
  195.3570  175.3240  146.5830 F   0  0  0  0  0  0  0  0  0  0  0  0
  194.9750  172.9530  143.0300 C   0  0  2  0  0  3  0  0  0  0  0  0
  195.1640  177.0730  144.6050 F   0  0  0  0  0  0  0  0  0  0  0  0
  194.9360  175.7690  144.2950 C   0  0  0  0  0  0  0  0  0  0  0  0
  194.1610  174.1370  142.4790 C   0  0  2  0  0  3  0  0  0  0  0  0
  194.9080  171.8560  142.1650 O   0  0  0  0  0  1  0  0  0  0  0  0
  194.2090  170.4190  145.2900 C   0  0  0  0  0  1  0  0  0  0  0  0
  195.1280  171.4320  144.9780 O   0  0  0  0  0  0  0  0  0  0  0  0
  188.4420  173.1250  141.7290 C   0  0  0  0  0  2  0  0  0  0  0  0
  187.7300  174.4210  142.1110 C   0  0  0  0  0  2  0  0  0  0  0  0
  185.0530  177.5340  143.2380 N   0  0  0  0  0  0  0  0  0  0  0  0
  187.0310  177.2390  142.3310 N   0  0  0  0  0  0  0  0  0  0  0  0
  188.6850  175.5040  142.3220 N   0  0  0  0  0  0  0  0  0  0  0  0
  186.7340  178.5340  142.0270 O   0  0  0  0  0  0  0  0  0  0  0  0
  185.5170  178.6950  142.6220 N   0  0  0  0  0  2  0  0  0  0  0  0
  188.3870  176.7690  142.4070 C   0  0  0  0  0  0  0  0  0  0  0  0
  185.9710  176.6630  143.0740 C   0  0  0  0  0  3  0  0  0  0  0  0
  189.5020  177.7600  142.4990 C   0  0  0  0  0  2  0  0  0  0  0  0
  191.5980  176.7080  145.5300 C   0  0  0  0  0  2  0  0  0  0  0  0
  189.1590  177.0310  146.1030 C   0  0  0  0  0  3  0  0  0  0  0  0
  188.9770  177.6780  144.9400 C   0  0  0  0  0  3  0  0  0  0  0  0
  191.1450  176.7380  144.0750 C   0  0  0  0  0  2  0  0  0  0  0  0
  190.0720  177.8090  143.9090 C   0  0  1  0  0  3  0  0  0  0  0  0
  190.4340  176.2940  146.4370 C   0  0  1  0  0  3  0  0  0  0  0  0
  189.1700  174.6470  147.2100 C   0  0  0  0  0  1  0  0  0  0  0  0
  190.2170  174.9180  146.3280 O   0  0  0  0  0  0  0  0  0  0  0  0
  1  2  1  0  0  0  0
  2 15  2  0  0  0  0
  2 11  1  0  0  0  0
  5  1  2  0  0  0  0
  5  8  1  0  0  0  0
  6 10  2  0  0  0  0
  7  1  1  0  0  0  0
  7 14  2  0  0  0  0
  8  6  1  6  0  0  0
  8  9  1  0  0  0  0
  9 11  2  0  0  0  0
  9  3  1  0  0  0  0
 10 13  1  0  0  0  0
 11 12  1  0  0  0  0
 13  4  1  0  0  0  0
 13  3  2  0  0  0  0
 14 15  1  0  0  0  0
 15 28  1  0  0  0  0
 17 16  1  0  0  0  0
 17 20  1  1  0  0  0
 18 27  1  1  0  0  0
 18 16  1  0  0  0  0
 19 23  2  0  0  0  0
 21 25  1  6  0  0  0
 21 18  1  0  0  0  0
 23 22  1  0  0  0  0
 23 17  1  0  0  0  0
 24  3  1  6  0  0  0
 24 21  1  0  0  0  0
 24 19  1  0  0  0  0
 27 26  1  0  0  0  0
 28 29  1  0  0  0  0
 29 32  1  0  0  0  0
 31 35  1  0  0  0  0
 31 36  1  0  0  0  0
 32 35  2  0  0  0  0
 33 31  1  0  0  0  0
 33 34  1  0  0  0  0
 34 30  1  0  0  0  0
 35 37  1  0  0  0  0
 36 30  2  0  0  0  0
 38 43  1  0  0  0  0
 39 43  1  0  0  0  0
 40 39  2  0  0  0  0
 41 38  1  0  0  0  0
 42 37  1  6  0  0  0
 42 41  1  0  0  0  0
 42 40  1  0  0  0  0
 43 45  1  6  0  0  0
 45 44  1  0  0  0  0
M  END
>  <MODEL>
3

>  <REMARK>
 VINA RESULT:      -8.4      3.171      7.101
  Name = 
  8 active torsions:
  status: ('A' for Active; 'I' for Inactive)
    1  A    between atoms: C_8  and  C_9
    2  A    between atoms: C_8  and  N_16
    3  A    between atoms: C_9  and  C_44
    4  A    between atoms: C_11  and  C_38
    5  A    between atoms: C_19  and  O_26
    6  A    between atoms: C_27  and  C_33
    7  A    between atoms: C_33  and  C_42
    8  A    between atoms: O_40  and  C_45
                            x       y       z     vdW  Elec       q    Type
                         _______ _______ _______ _____ _____    ______ ____

>  <TORSDO>
F 8

$$$$
=
 OpenBabel11072408583D

 45 50  0  0  1  0  0  0  0  0999 V2000
  188.5660  174.1480  139.6760 C   0  0  0  0  0  0  0  0  0  0  0  0
  188.8040  173.8580  140.9840 C   0  0  0  0  0  0  0  0  0  0  0  0
  187.0960  176.8250  142.5660 C   0  0  0  0  0  0  0  0  0  0  0  0
  185.8100  178.9870  142.9680 C   0  0  0  0  0  1  0  0  0  0  0  0
  187.8790  175.2470  139.2990 N   0  0  0  0  0  0  0  0  0  0  0  0
  186.7010  177.2300  139.8250 C   0  0  0  0  0  3  0  0  0  0  0  0
  189.1520  173.1040  138.7980 C   0  0  0  0  0  3  0  0  0  0  0  0
  187.4060  176.1080  140.2430 C   0  0  0  0  0  0  0  0  0  0  0  0
  187.6240  175.8750  141.6390 C   0  0  0  0  0  0  0  0  0  0  0  0
  186.2160  178.1110  140.7290 N   0  0  0  0  0  0  0  0  0  0  0  0
  188.3600  174.7000  142.0110 C   0  0  0  0  0  0  0  0  0  0  0  0
  188.6890  174.3300  143.4220 C   0  0  0  0  0  1  0  0  0  0  0  0
  186.3880  177.9480  142.0640 C   0  0  1  0  0  3  0  0  0  0  0  0
  189.7420  172.1790  139.7680 N   0  0  0  0  0  0  0  0  0  0  0  0
  189.5520  172.6090  140.9770 C   0  0  0  0  0  0  0  0  0  0  0  0
  188.0340  176.2540  146.9040 C   0  0  0  0  0  2  0  0  0  0  0  0
  186.8050  177.1270  147.1010 C   0  0  2  0  0  3  0  0  0  0  0  0
  189.0090  176.8830  145.8970 C   0  0  1  0  0  3  0  0  0  0  0  0
  185.9460  176.7010  144.7700 C   0  0  0  0  0  3  0  0  0  0  0  0
  186.3140  176.9460  148.3810 F   0  0  0  0  0  0  0  0  0  0  0  0
  188.3710  177.5640  144.6690 C   0  0  2  0  0  3  0  0  0  0  0  0
  184.4380  176.7890  146.5200 F   0  0  0  0  0  0  0  0  0  0  0  0
  185.7270  176.8400  146.0890 C   0  0  0  0  0  0  0  0  0  0  0  0
  187.2820  176.6630  144.0610 C   0  0  2  0  0  3  0  0  0  0  0  0
  189.3790  177.8270  143.7360 O   0  0  0  0  0  1  0  0  0  0  0  0
  190.8960  176.7870  147.1950 C   0  0  0  0  0  1  0  0  0  0  0  0
  190.0260  177.6480  146.5090 O   0  0  0  0  0  0  0  0  0  0  0  0
  189.9940  171.8290  142.1720 C   0  0  0  0  0  2  0  0  0  0  0  0
  191.4940  171.9840  142.4150 C   0  0  0  0  0  2  0  0  0  0  0  0
  193.6070  174.8980  140.1410 N   0  0  0  0  0  0  0  0  0  0  0  0
  193.4120  174.1640  142.2010 N   0  0  0  0  0  0  0  0  0  0  0  0
  191.7590  172.9680  143.4600 N   0  0  0  0  0  0  0  0  0  0  0  0
  194.5630  174.8920  142.2330 O   0  0  0  0  0  0  0  0  0  0  0  0
  194.6450  175.3540  140.9520 N   0  0  0  0  0  2  0  0  0  0  0  0
  192.6240  173.9380  143.3820 C   0  0  0  0  0  0  0  0  0  0  0  0
  192.8590  174.1930  140.8970 C   0  0  0  0  0  3  0  0  0  0  0  0
  192.8600  174.7830  144.5930 C   0  0  0  0  0  2  0  0  0  0  0  0
  196.3030  174.1160  146.1390 C   0  0  0  0  0  2  0  0  0  0  0  0
  195.1720  172.0020  145.3410 C   0  0  0  0  0  3  0  0  0  0  0  0
  194.0070  172.6640  145.2540 C   0  0  0  0  0  3  0  0  0  0  0  0
  195.2430  174.8540  145.3300 C   0  0  0  0  0  2  0  0  0  0  0  0
  193.9020  174.1500  145.5040 C   0  0  1  0  0  3  0  0  0  0  0  0
  196.4900  172.6950  145.5920 C   0  0  1  0  0  3  0  0  0  0  0  0
  197.3970  171.4050  144.0380 C   0  0  0  0  0  1  0  0  0  0  0  0
  197.2240  172.7410  144.4050 O   0  0  0  0  0  0  0  0  0  0  0  0
  1  2  1  0  0  0  0
  2 11  2  0  0  0  0
  5  1  1  0  0  0  0
  5  8  2  0  0  0  0
  6  8  1  0  0  0  0
  6 10  2  0  0  0  0
  7  1  2  0  0  0  0
  7 14  1  0  0  0  0
  8  9  1  0  0  0  0
  9 11  1  0  0  0  0
  9  3  2  0  0  0  0
 10 13  1  0  0  0  0
 11 12  1  0  0  0  0
 13  3  1  0  0  0  0
 13  4  1  6  0  0  0
 14 15  2  0  0  0  0
 15  2  1  0  0  0  0
 15 28  1  0  0  0  0
 16 17  1  0  0  0  0
 17 20  1  1  0  0  0
 18 27  1  1  0  0  0
 18 16  1  0  0  0  0
 19 23  2  0  0  0  0
 21 25  1  6  0  0  0
 21 18  1  0  0  0  0
 23 22  1  0  0  0  0
 23 17  1  0  0  0  0
 24  3  1  6  0  0  0
 24 21  1  0  0  0  0
 24 19  1  0  0  0  0
 27 26  1  0  0  0  0
 28 29  1  0  0  0  0
 29 32  1  0  0  0  0
 30 36  2  0  0  0  0
 30 34  1  0  0  0  0
 31 33  1  0  0  0  0
 31 35  1  0  0  0  0
 34 33  1  0  0  0  0
 35 32  2  0  0  0  0
 35 37  1  0  0  0  0
 36 31  1  0  0  0  0
 39 43  1  0  0  0  0
 40 39  2  0  0  0  0
 40 42  1  0  0  0  0
 41 42  1  0  0  0  0
 41 38  1  0  0  0  0
 42 37  1  6  0  0  0
 43 45  1  6  0  0  0
 43 38  1  0  0  0  0
 44 45  1  0  0  0  0
M  END
>  <MODEL>
4

>  <REMARK>
 VINA RESULT:      -8.1      1.391      2.151
  Name = 
  8 active torsions:
  status: ('A' for Active; 'I' for Inactive)
    1  A    between atoms: C_8  and  C_9
    2  A    between atoms: C_8  and  N_16
    3  A    between atoms: C_9  and  C_44
    4  A    between atoms: C_11  and  C_38
    5  A    between atoms: C_19  and  O_26
    6  A    between atoms: C_27  and  C_33
    7  A    between atoms: C_33  and  C_42
    8  A    between atoms: O_40  and  C_45
                            x       y       z     vdW  Elec       q    Type
                         _______ _______ _______ _____ _____    ______ ____

>  <TORSDO>
F 8

$$$$
=
 OpenBabel11072408583D

 45 50  0  0  1  0  0  0  0  0999 V2000
  189.1200  174.0200  139.7230 C   0  0  0  0  0  0  0  0  0  0  0  0
  190.0730  173.6560  140.6220 C   0  0  0  0  0  0  0  0  0  0  0  0
  189.0350  175.8540  143.5050 C   0  0  0  0  0  0  0  0  0  0  0  0
  187.8350  177.5290  145.0020 C   0  0  0  0  0  1  0  0  0  0  0  0
  188.1680  174.9300  140.0170 N   0  0  0  0  0  0  0  0  0  0  0  0
  187.1550  176.4500  141.5200 C   0  0  0  0  0  3  0  0  0  0  0  0
  189.2990  173.2800  138.4470 C   0  0  0  0  0  3  0  0  0  0  0  0
  188.1480  175.5180  141.2460 C   0  0  0  0  0  0  0  0  0  0  0  0
  189.1240  175.1930  142.2420 C   0  0  0  0  0  0  0  0  0  0  0  0
  187.1000  177.0590  142.7260 N   0  0  0  0  0  0  0  0  0  0  0  0
  190.1250  174.2240  141.9010 C   0  0  0  0  0  0  0  0  0  0  0  0
  191.2240  173.7960  142.8220 C   0  0  0  0  0  1  0  0  0  0  0  0
  187.9930  176.7960  143.7120 C   0  0  1  0  0  3  0  0  0  0  0  0
  190.4650  172.4420  138.7380 N   0  0  0  0  0  0  0  0  0  0  0  0
  190.8930  172.6620  139.9420 C   0  0  0  0  0  0  0  0  0  0  0  0
  192.2570  175.1010  146.5180 C   0  0  0  0  0  2  0  0  0  0  0  0
  191.1560  175.4300  147.5130 C   0  0  2  0  0  3  0  0  0  0  0  0
  192.3510  176.1700  145.4180 C   0  0  1  0  0  3  0  0  0  0  0  0
  189.3160  175.0300  145.8370 C   0  0  0  0  0  3  0  0  0  0  0  0
  191.4900  174.9160  148.7530 F   0  0  0  0  0  0  0  0  0  0  0  0
  191.0110  176.7250  144.8940 C   0  0  2  0  0  3  0  0  0  0  0  0
  189.0150  174.3290  148.0190 F   0  0  0  0  0  0  0  0  0  0  0  0
  189.8120  174.9040  147.0810 C   0  0  0  0  0  0  0  0  0  0  0  0
  190.0250  175.5760  144.6180 C   0  0  2  0  0  3  0  0  0  0  0  0
  191.2600  177.4580  143.7300 O   0  0  0  0  0  1  0  0  0  0  0  0
  194.5880  176.6680  145.3790 C   0  0  0  0  0  1  0  0  0  0  0  0
  193.3140  177.1670  145.6900 O   0  0  0  0  0  0  0  0  0  0  0  0
  192.0340  171.8970  140.5280 C   0  0  0  0  0  2  0  0  0  0  0  0
  193.3770  172.4760  140.0880 C   0  0  0  0  0  2  0  0  0  0  0  0
  194.4090  176.2990  141.6550 N   0  0  0  0  0  0  0  0  0  0  0  0
  195.2810  174.3140  141.3030 N   0  0  0  0  0  0  0  0  0  0  0  0
  194.4440  172.0880  141.0060 N   0  0  0  0  0  0  0  0  0  0  0  0
  196.3700  175.1040  141.5220 O   0  0  0  0  0  0  0  0  0  0  0  0
  195.7990  176.3190  141.7600 N   0  0  0  0  0  2  0  0  0  0  0  0
  195.3110  172.8970  141.5450 C   0  0  0  0  0  0  0  0  0  0  0  0
  194.0980  175.0890  141.3930 C   0  0  0  0  0  3  0  0  0  0  0  0
  196.4160  172.3160  142.3650 C   0  0  0  0  0  2  0  0  0  0  0  0
  196.4150  171.2790  146.0540 C   0  0  0  0  0  2  0  0  0  0  0  0
  194.0830  171.5820  145.1320 C   0  0  0  0  0  3  0  0  0  0  0  0
  194.5920  172.2280  144.0700 C   0  0  0  0  0  3  0  0  0  0  0  0
  196.8730  171.3060  144.6010 C   0  0  0  0  0  2  0  0  0  0  0  0
  196.0790  172.3690  143.8480 C   0  0  1  0  0  3  0  0  0  0  0  0
  194.9440  170.8550  146.1370 C   0  0  1  0  0  3  0  0  0  0  0  0
  194.9410  168.9130  147.2010 C   0  0  0  0  0  1  0  0  0  0  0  0
  194.8380  169.4780  145.9290 O   0  0  0  0  0  0  0  0  0  0  0  0
  1  5  1  0  0  0  0
  1  2  1  0  0  0  0
  2 11  2  0  0  0  0
  3 13  1  0  0  0  0
  5  8  2  0  0  0  0
  6 10  2  0  0  0  0
  7 14  1  0  0  0  0
  7  1  2  0  0  0  0
  8  6  1  0  0  0  0
  8  9  1  0  0  0  0
  9  3  2  0  0  0  0
 10 13  1  0  0  0  0
 11  9  1  0  0  0  0
 11 12  1  0  0  0  0
 13  4  1  6  0  0  0
 14 15  2  0  0  0  0
 15 28  1  0  0  0  0
 15  2  1  0  0  0  0
 16 17  1  0  0  0  0
 17 20  1  1  0  0  0
 18 27  1  1  0  0  0
 18 16  1  0  0  0  0
 19 23  2  0  0  0  0
 21 25  1  6  0  0  0
 21 18  1  0  0  0  0
 23 17  1  0  0  0  0
 23 22  1  0  0  0  0
 24  3  1  6  0  0  0
 24 21  1  0  0  0  0
 24 19  1  0  0  0  0
 26 27  1  0  0  0  0
 29 28  1  0  0  0  0
 29 32  1  0  0  0  0
 30 34  1  0  0  0  0
 31 36  1  0  0  0  0
 31 33  1  0  0  0  0
 31 35  1  0  0  0  0
 32 35  2  0  0  0  0
 33 34  1  0  0  0  0
 35 37  1  0  0  0  0
 36 30  2  0  0  0  0
 38 43  1  0  0  0  0
 39 43  1  0  0  0  0
 40 39  2  0  0  0  0
 41 38  1  0  0  0  0
 42 37  1  6  0  0  0
 42 40  1  0  0  0  0
 42 41  1  0  0  0  0
 43 45  1  6  0  0  0
 45 44  1  0  0  0  0
M  END
>  <MODEL>
5

>  <REMARK>
 VINA RESULT:      -8.1      2.526      3.776
  Name = 
  8 active torsions:
  status: ('A' for Active; 'I' for Inactive)
    1  A    between atoms: C_8  and  C_9
    2  A    between atoms: C_8  and  N_16
    3  A    between atoms: C_9  and  C_44
    4  A    between atoms: C_11  and  C_38
    5  A    between atoms: C_19  and  O_26
    6  A    between atoms: C_27  and  C_33
    7  A    between atoms: C_33  and  C_42
    8  A    between atoms: O_40  and  C_45
                            x       y       z     vdW  Elec       q    Type
                         _______ _______ _______ _____ _____    ______ ____

>  <TORSDO>
F 8

$$$$
=
 OpenBabel11072408583D

 45 50  0  0  1  0  0  0  0  0999 V2000
  194.7810  175.9030  144.9060 C   0  0  0  0  0  0  0  0  0  0  0  0
  194.0390  176.0410  143.7750 C   0  0  0  0  0  0  0  0  0  0  0  0
  190.5990  175.6930  145.2810 C   0  0  0  0  0  0  0  0  0  0  0  0
  188.6450  175.3910  146.8870 C   0  0  0  0  0  1  0  0  0  0  0  0
  194.2150  175.7120  146.1160 N   0  0  0  0  0  0  0  0  0  0  0  0
  192.3050  175.4490  147.4860 C   0  0  0  0  0  3  0  0  0  0  0  0
  196.2300  176.0010  144.5920 C   0  0  0  0  0  3  0  0  0  0  0  0
  192.8590  175.6460  146.2280 C   0  0  0  0  0  0  0  0  0  0  0  0
  192.0110  175.7730  145.0810 C   0  0  0  0  0  0  0  0  0  0  0  0
  190.9640  175.3760  147.6410 N   0  0  0  0  0  0  0  0  0  0  0  0
  192.6400  175.9730  143.8070 C   0  0  0  0  0  0  0  0  0  0  0  0
  191.8950  176.1010  142.5160 C   0  0  0  0  0  1  0  0  0  0  0  0
  190.1060  175.4890  146.5970 C   0  0  1  0  0  3  0  0  0  0  0  0
  196.2170  176.2240  143.1440 N   0  0  0  0  0  0  0  0  0  0  0  0
  195.0000  176.2360  142.6970 C   0  0  0  0  0  0  0  0  0  0  0  0
  187.9370  175.7520  141.6850 C   0  0  0  0  0  2  0  0  0  0  0  0
  186.9430  176.3740  142.6520 C   0  0  2  0  0  3  0  0  0  0  0  0
  188.5550  174.4720  142.2670 C   0  0  1  0  0  3  0  0  0  0  0  0
  188.7310  177.0180  144.3080 C   0  0  0  0  0  3  0  0  0  0  0  0
  185.9690  177.0490  141.9390 F   0  0  0  0  0  0  0  0  0  0  0  0
  188.8960  174.5050  143.7700 C   0  0  2  0  0  3  0  0  0  0  0  0
  186.9820  178.4800  143.9220 F   0  0  0  0  0  0  0  0  0  0  0  0
  187.6020  177.3050  143.6360 C   0  0  0  0  0  0  0  0  0  0  0  0
  189.6250  175.8120  144.1260 C   0  0  2  0  0  3  0  0  0  0  0  0
  189.6910  173.3940  144.0680 O   0  0  0  0  0  1  0  0  0  0  0  0
  188.1920  173.0410  140.5130 C   0  0  0  0  0  1  0  0  0  0  0  0
  187.8880  173.2950  141.8590 O   0  0  0  0  0  0  0  0  0  0  0  0
  194.6860  176.5090  141.2630 C   0  0  0  0  0  2  0  0  0  0  0  0
  195.1640  175.3710  140.3620 C   0  0  0  0  0  2  0  0  0  0  0  0
  192.0660  173.7450  137.9350 N   0  0  0  0  0  0  0  0  0  0  0  0
  192.8930  173.5920  139.9640 N   0  0  0  0  0  0  0  0  0  0  0  0
  194.9930  174.0760  141.0140 N   0  0  0  0  0  0  0  0  0  0  0  0
  191.6740  172.9940  140.0740 O   0  0  0  0  0  0  0  0  0  0  0  0
  191.1960  173.0810  138.8000 N   0  0  0  0  0  2  0  0  0  0  0  0
  193.9760  173.2780  140.8560 C   0  0  0  0  0  0  0  0  0  0  0  0
  193.0920  174.0400  138.6350 C   0  0  0  0  0  3  0  0  0  0  0  0
  193.8990  172.0440  141.6960 C   0  0  0  0  0  2  0  0  0  0  0  0
  196.1100  171.2110  144.7120 C   0  0  0  0  0  2  0  0  0  0  0  0
  193.8160  172.0250  145.3870 C   0  0  0  0  0  3  0  0  0  0  0  0
  193.6150  172.4790  144.1390 C   0  0  0  0  0  3  0  0  0  0  0  0
  195.5220  171.0590  143.3150 C   0  0  0  0  0  2  0  0  0  0  0  0
  194.6090  172.2460  143.0260 C   0  0  1  0  0  3  0  0  0  0  0  0
  194.9950  171.1590  145.7630 C   0  0  1  0  0  3  0  0  0  0  0  0
  195.5480  169.2420  146.7230 C   0  0  0  0  0  1  0  0  0  0  0  0
  194.5670  169.8400  145.9320 O   0  0  0  0  0  0  0  0  0  0  0  0
  1  5  1  0  0  0  0
  2 11  2  0  0  0  0
  2  1  1  0  0  0  0
  3 13  1  0  0  0  0
  5  8  2  0  0  0  0
  6 10  2  0  0  0  0
  7  1  2  0  0  0  0
  8  6  1  0  0  0  0
  9  3  2  0  0  0  0
  9  8  1  0  0  0  0
 11  9  1  0  0  0  0
 12 11  1  0  0  0  0
 13  4  1  6  0  0  0
 13 10  1  0  0  0  0
 14  7  1  0  0  0  0
 15 14  2  0  0  0  0
 15  2  1  0  0  0  0
 16 18  1  0  0  0  0
 16 17  1  0  0  0  0
 17 20  1  6  0  0  0
 17 23  1  0  0  0  0
 18 27  1  1  0  0  0
 18 21  1  0  0  0  0
 21 25  1  6  0  0  0
 21 24  1  0  0  0  0
 23 22  1  0  0  0  0
 23 19  2  0  0  0  0
 24 19  1  0  0  0  0
 24  3  1  1  0  0  0
 26 27  1  0  0  0  0
 28 15  1  0  0  0  0
 29 32  1  0  0  0  0
 29 28  1  0  0  0  0
 30 36  2  0  0  0  0
 30 34  1  0  0  0  0
 31 33  1  0  0  0  0
 31 35  1  0  0  0  0
 34 33  1  0  0  0  0
 35 32  2  0  0  0  0
 35 37  1  0  0  0  0
 36 31  1  0  0  0  0
 38 43  1  0  0  0  0
 39 43  1  0  0  0  0
 40 39  2  0  0  0  0
 41 38  1  0  0  0  0
 42 37  1  6  0  0  0
 42 41  1  0  0  0  0
 42 40  1  0  0  0  0
 43 45  1  6  0  0  0
 45 44  1  0  0  0  0
M  END
>  <MODEL>
6

>  <REMARK>
 VINA RESULT:      -8.0      2.705      5.968
  Name = 
  8 active torsions:
  status: ('A' for Active; 'I' for Inactive)
    1  A    between atoms: C_8  and  C_9
    2  A    between atoms: C_8  and  N_16
    3  A    between atoms: C_9  and  C_44
    4  A    between atoms: C_11  and  C_38
    5  A    between atoms: C_19  and  O_26
    6  A    between atoms: C_27  and  C_33
    7  A    between atoms: C_33  and  C_42
    8  A    between atoms: O_40  and  C_45
                            x       y       z     vdW  Elec       q    Type
                         _______ _______ _______ _____ _____    ______ ____

>  <TORSDO>
F 8

$$$$
=
 OpenBabel11072408583D

 45 50  0  0  1  0  0  0  0  0999 V2000
  193.8610  173.8590  139.5980 C   0  0  0  0  0  0  0  0  0  0  0  0
  193.7220  174.8260  140.5450 C   0  0  0  0  0  0  0  0  0  0  0  0
  190.3470  173.8380  141.9070 C   0  0  0  0  0  0  0  0  0  0  0  0
  188.1280  172.6670  142.3480 C   0  0  0  0  0  1  0  0  0  0  0  0
  192.9190  172.9140  139.3960 N   0  0  0  0  0  0  0  0  0  0  0  0
  190.8330  171.9300  139.9190 C   0  0  0  0  0  3  0  0  0  0  0  0
  195.1520  174.0170  138.8810 C   0  0  0  0  0  3  0  0  0  0  0  0
  191.7840  172.9150  140.1500 C   0  0  0  0  0  0  0  0  0  0  0  0
  191.5620  173.9060  141.1600 C   0  0  0  0  0  0  0  0  0  0  0  0
  189.6920  171.8950  140.6430 N   0  0  0  0  0  0  0  0  0  0  0  0
  192.5800  174.9000  141.3520 C   0  0  0  0  0  0  0  0  0  0  0  0
  192.4860  176.0120  142.3480 C   0  0  0  0  0  1  0  0  0  0  0  0
  189.4220  172.8030  141.6140 C   0  0  1  0  0  3  0  0  0  0  0  0
  195.7350  175.1840  139.5450 N   0  0  0  0  0  0  0  0  0  0  0  0
  194.9330  175.6320  140.4610 C   0  0  0  0  0  0  0  0  0  0  0  0
  189.4470  177.1050  144.8300 C   0  0  0  0  0  2  0  0  0  0  0  0
  188.7590  175.9870  145.5960 C   0  0  2  0  0  3  0  0  0  0  0  0
  189.0010  177.1300  143.3600 C   0  0  1  0  0  3  0  0  0  0  0  0
  189.9880  174.1740  144.3470 C   0  0  0  0  0  3  0  0  0  0  0  0
  188.6240  176.3530  146.9230 F   0  0  0  0  0  0  0  0  0  0  0  0
  188.8250  175.7570  142.6800 C   0  0  2  0  0  3  0  0  0  0  0  0
  189.6210  173.9190  146.6150 F   0  0  0  0  0  0  0  0  0  0  0  0
  189.4990  174.6780  145.4940 C   0  0  0  0  0  0  0  0  0  0  0  0
  190.0260  174.8460  142.9920 C   0  0  2  0  0  3  0  0  0  0  0  0
  188.6970  175.9580  141.3020 O   0  0  0  0  0  1  0  0  0  0  0  0
  186.7320  177.4230  143.4990 C   0  0  0  0  0  1  0  0  0  0  0  0
  187.9390  178.0280  143.1140 O   0  0  0  0  0  0  0  0  0  0  0  0
  195.3010  176.7810  141.3420 C   0  0  0  0  0  2  0  0  0  0  0  0
  196.2020  176.3340  142.4920 C   0  0  0  0  0  2  0  0  0  0  0  0
  193.8350  177.1950  145.9250 N   0  0  0  0  0  0  0  0  0  0  0  0
  195.1180  175.6170  145.0970 N   0  0  0  0  0  0  0  0  0  0  0  0
  195.8790  174.9750  142.9170 N   0  0  0  0  0  0  0  0  0  0  0  0
  195.0080  175.2780  146.4130 O   0  0  0  0  0  0  0  0  0  0  0  0
  194.1900  176.2570  146.8930 N   0  0  0  0  0  2  0  0  0  0  0  0
  195.4080  174.6400  144.0840 C   0  0  0  0  0  0  0  0  0  0  0  0
  194.3840  176.8010  144.8420 C   0  0  0  0  0  3  0  0  0  0  0  0
  195.2500  173.1880  144.3990 C   0  0  0  0  0  2  0  0  0  0  0  0
  191.9920  171.2400  143.8740 C   0  0  0  0  0  2  0  0  0  0  0  0
  193.8210  170.5160  142.2890 C   0  0  0  0  0  3  0  0  0  0  0  0
  194.5180  171.6220  142.5960 C   0  0  0  0  0  3  0  0  0  0  0  0
  193.0960  171.9510  144.6460 C   0  0  0  0  0  2  0  0  0  0  0  0
  194.0610  172.5950  143.6560 C   0  0  1  0  0  3  0  0  0  0  0  0
  192.5820  170.0950  143.0420 C   0  0  1  0  0  3  0  0  0  0  0  0
  193.6750  168.1690  143.0920 C   0  0  0  0  0  1  0  0  0  0  0  0
  192.8890  169.0160  143.8750 O   0  0  0  0  0  0  0  0  0  0  0  0
  1  2  1  0  0  0  0
  2 11  2  0  0  0  0
  5  1  1  0  0  0  0
  5  8  2  0  0  0  0
  6  8  1  0  0  0  0
  6 10  2  0  0  0  0
  7 14  1  0  0  0  0
  7  1  2  0  0  0  0
  8  9  1  0  0  0  0
  9 11  1  0  0  0  0
  9  3  2  0  0  0  0
 10 13  1  0  0  0  0
 11 12  1  0  0  0  0
 13  3  1  0  0  0  0
 13  4  1  6  0  0  0
 14 15  2  0  0  0  0
 15  2  1  0  0  0  0
 15 28  1  0  0  0  0
 16 17  1  0  0  0  0
 17 20  1  1  0  0  0
 18 27  1  1  0  0  0
 18 16  1  0  0  0  0
 19 23  2  0  0  0  0
 21 25  1  6  0  0  0
 21 24  1  0  0  0  0
 21 18  1  0  0  0  0
 23 17  1  0  0  0  0
 23 22  1  0  0  0  0
 24  3  1  6  0  0  0
 24 19  1  0  0  0  0
 27 26  1  0  0  0  0
 28 29  1  0  0  0  0
 29 32  1  0  0  0  0
 30 34  1  0  0  0  0
 31 33  1  0  0  0  0
 32 35  2  0  0  0  0
 33 34  1  0  0  0  0
 35 37  1  0  0  0  0
 35 31  1  0  0  0  0
 36 31  1  0  0  0  0
 36 30  2  0  0  0  0
 38 41  1  0  0  0  0
 39 40  2  0  0  0  0
 39 43  1  0  0  0  0
 40 42  1  0  0  0  0
 42 37  1  1  0  0  0
 42 41  1  0  0  0  0
 43 38  1  0  0  0  0
 43 45  1  1  0  0  0
 44 45  1  0  0  0  0
M  END
>  <MODEL>
7

>  <REMARK>
 VINA RESULT:      -7.8      2.573      5.107
  Name = 
  8 active torsions:
  status: ('A' for Active; 'I' for Inactive)
    1  A    between atoms: C_8  and  C_9
    2  A    between atoms: C_8  and  N_16
    3  A    between atoms: C_9  and  C_44
    4  A    between atoms: C_11  and  C_38
    5  A    between atoms: C_19  and  O_26
    6  A    between atoms: C_27  and  C_33
    7  A    between atoms: C_33  and  C_42
    8  A    between atoms: O_40  and  C_45
                            x       y       z     vdW  Elec       q    Type
                         _______ _______ _______ _____ _____    ______ ____

>  <TORSDO>
F 8

$$$$
=
 OpenBabel11072408583D

 45 50  0  0  1  0  0  0  0  0999 V2000
  188.7780  173.8660  140.1660 C   0  0  0  0  0  0  0  0  0  0  0  0
  188.9140  173.6450  141.5010 C   0  0  0  0  0  0  0  0  0  0  0  0
  187.2100  176.7530  142.7900 C   0  0  0  0  0  0  0  0  0  0  0  0
  185.9790  178.9740  142.9780 C   0  0  0  0  0  1  0  0  0  0  0  0
  188.1600  174.9630  139.6800 N   0  0  0  0  0  0  0  0  0  0  0  0
  187.0220  177.0100  140.0090 C   0  0  0  0  0  3  0  0  0  0  0  0
  189.3860  172.7540  139.3910 C   0  0  0  0  0  3  0  0  0  0  0  0
  187.6540  175.8920  140.5390 C   0  0  0  0  0  0  0  0  0  0  0  0
  187.7670  175.7340  141.9570 C   0  0  0  0  0  0  0  0  0  0  0  0
  186.5080  177.9580  140.8260 N   0  0  0  0  0  0  0  0  0  0  0  0
  188.4310  174.5590  142.4450 C   0  0  0  0  0  0  0  0  0  0  0  0
  188.6480  174.2610  143.8950 C   0  0  0  0  0  1  0  0  0  0  0  0
  186.5800  177.8670  142.1770 C   0  0  1  0  0  3  0  0  0  0  0  0
  189.8730  171.8680  140.4510 N   0  0  0  0  0  0  0  0  0  0  0  0
  189.6150  172.3730  141.6180 C   0  0  0  0  0  0  0  0  0  0  0  0
  187.8240  176.4080  147.2090 C   0  0  0  0  0  2  0  0  0  0  0  0
  186.6070  177.3170  147.2690 C   0  0  2  0  0  3  0  0  0  0  0  0
  188.8830  176.9590  146.2420 C   0  0  1  0  0  3  0  0  0  0  0  0
  185.9040  176.7780  144.9080 C   0  0  0  0  0  3  0  0  0  0  0  0
  186.0220  177.2190  148.5180 F   0  0  0  0  0  0  0  0  0  0  0  0
  188.3510  177.5820  144.9360 C   0  0  2  0  0  3  0  0  0  0  0  0
  184.2790  176.9960  146.5370 F   0  0  0  0  0  0  0  0  0  0  0  0
  185.5950  176.9960  146.1990 C   0  0  0  0  0  0  0  0  0  0  0  0
  187.2850  176.6710  144.3010 C   0  0  2  0  0  3  0  0  0  0  0  0
  189.4280  177.7710  144.0640 O   0  0  0  0  0  1  0  0  0  0  0  0
  190.9290  176.8980  147.2740 C   0  0  0  0  0  1  0  0  0  0  0  0
  189.8730  177.7360  146.8820 O   0  0  0  0  0  0  0  0  0  0  0  0
  189.9440  171.6500  142.8820 C   0  0  0  0  0  2  0  0  0  0  0  0
  191.2670  170.8960  142.7650 C   0  0  0  0  0  2  0  0  0  0  0  0
  193.9300  168.1660  144.6590 N   0  0  0  0  0  0  0  0  0  0  0  0
  193.4870  170.3150  144.5580 N   0  0  0  0  0  0  0  0  0  0  0  0
  192.4020  171.7830  143.0050 N   0  0  0  0  0  0  0  0  0  0  0  0
  194.2690  170.2060  145.6690 O   0  0  0  0  0  0  0  0  0  0  0  0
  194.5470  168.8710  145.6930 N   0  0  0  0  0  2  0  0  0  0  0  0
  193.3930  171.5420  143.8140 C   0  0  0  0  0  0  0  0  0  0  0  0
  193.3040  169.0390  143.9700 C   0  0  0  0  0  3  0  0  0  0  0  0
  194.4110  172.6130  144.0360 C   0  0  0  0  0  2  0  0  0  0  0  0
  195.5150  174.6170  140.9620 C   0  0  0  0  0  2  0  0  0  0  0  0
  194.9120  176.0970  142.9200 C   0  0  0  0  0  3  0  0  0  0  0  0
  194.3110  175.0540  143.5160 C   0  0  0  0  0  3  0  0  0  0  0  0
  195.5140  173.4740  141.9700 C   0  0  0  0  0  2  0  0  0  0  0  0
  194.3470  173.6610  142.9350 C   0  0  1  0  0  3  0  0  0  0  0  0
  195.7580  175.9520  141.6770 C   0  0  1  0  0  3  0  0  0  0  0  0
  197.1310  176.9290  143.1150 C   0  0  0  0  0  1  0  0  0  0  0  0
  197.1080  176.0630  142.0200 O   0  0  0  0  0  0  0  0  0  0  0  0
  1  2  1  0  0  0  0
  2 15  1  0  0  0  0
  2 11  2  0  0  0  0
  5  1  1  0  0  0  0
  5  8  2  0  0  0  0
  6  8  1  0  0  0  0
  6 10  2  0  0  0  0
  7  1  2  0  0  0  0
  7 14  1  0  0  0  0
  8  9  1  0  0  0  0
  9 11  1  0  0  0  0
  9  3  2  0  0  0  0
 10 13  1  0  0  0  0
 11 12  1  0  0  0  0
 13  3  1  0  0  0  0
 13  4  1  6  0  0  0
 14 15  2  0  0  0  0
 15 28  1  0  0  0  0
 16 17  1  0  0  0  0
 17 20  1  1  0  0  0
 18 27  1  1  0  0  0
 18 16  1  0  0  0  0
 19 23  2  0  0  0  0
 21 25  1  6  0  0  0
 21 18  1  0  0  0  0
 23 22  1  0  0  0  0
 23 17  1  0  0  0  0
 24  3  1  6  0  0  0
 24 19  1  0  0  0  0
 24 21  1  0  0  0  0
 27 26  1  0  0  0  0
 29 28  1  0  0  0  0
 29 32  1  0  0  0  0
 30 34  1  0  0  0  0
 31 33  1  0  0  0  0
 32 35  2  0  0  0  0
 33 34  1  0  0  0  0
 35 37  1  0  0  0  0
 35 31  1  0  0  0  0
 36 31  1  0  0  0  0
 36 30  2  0  0  0  0
 38 43  1  0  0  0  0
 38 41  1  0  0  0  0
 39 40  2  0  0  0  0
 41 42  1  0  0  0  0
 42 40  1  0  0  0  0
 42 37  1  1  0  0  0
 43 45  1  1  0  0  0
 43 39  1  0  0  0  0
 45 44  1  0  0  0  0
M  END
>  <MODEL>
8

>  <REMARK>
 VINA RESULT:      -7.7      1.601      1.984
  Name = 
  8 active torsions:
  status: ('A' for Active; 'I' for Inactive)
    1  A    between atoms: C_8  and  C_9
    2  A    between atoms: C_8  and  N_16
    3  A    between atoms: C_9  and  C_44
    4  A    between atoms: C_11  and  C_38
    5  A    between atoms: C_19  and  O_26
    6  A    between atoms: C_27  and  C_33
    7  A    between atoms: C_33  and  C_42
    8  A    between atoms: O_40  and  C_45
                            x       y       z     vdW  Elec       q    Type
                         _______ _______ _______ _____ _____    ______ ____

>  <TORSDO>
F 8

$$$$
=
 OpenBabel11072408583D

 45 50  0  0  1  0  0  0  0  0999 V2000
  194.4280  171.0890  144.1970 C   0  0  0  0  0  0  0  0  0  0  0  0
  193.1390  171.4150  143.9130 C   0  0  0  0  0  0  0  0  0  0  0  0
  193.0990  174.9230  145.2970 C   0  0  0  0  0  0  0  0  0  0  0  0
  193.7370  177.1390  146.3790 C   0  0  0  0  0  1  0  0  0  0  0  0
  195.2690  171.9530  144.8040 N   0  0  0  0  0  0  0  0  0  0  0  0
  195.7170  174.0610  145.7780 C   0  0  0  0  0  3  0  0  0  0  0  0
  194.7260  169.7060  143.7440 C   0  0  0  0  0  3  0  0  0  0  0  0
  194.8290  173.1930  145.1560 C   0  0  0  0  0  0  0  0  0  0  0  0
  193.4820  173.6060  144.8980 C   0  0  0  0  0  0  0  0  0  0  0  0
  195.3210  175.3000  146.1460 N   0  0  0  0  0  0  0  0  0  0  0  0
  192.6100  172.6660  144.2530 C   0  0  0  0  0  0  0  0  0  0  0  0
  191.1740  172.9380  143.9370 C   0  0  0  0  0  1  0  0  0  0  0  0
  194.0610  175.7520  145.9290 C   0  0  1  0  0  3  0  0  0  0  0  0
  193.4510  169.2920  143.1560 N   0  0  0  0  0  0  0  0  0  0  0  0
  192.5730  170.2420  143.2610 C   0  0  0  0  0  0  0  0  0  0  0  0
  188.8190  176.1460  144.8410 C   0  0  0  0  0  2  0  0  0  0  0  0
  189.4250  177.5110  144.5570 C   0  0  2  0  0  3  0  0  0  0  0  0
  189.3990  175.5360  146.1260 C   0  0  1  0  0  3  0  0  0  0  0  0
  191.7020  176.5570  144.0450 C   0  0  0  0  0  3  0  0  0  0  0  0
  188.5060  178.2890  143.8780 F   0  0  0  0  0  0  0  0  0  0  0  0
  190.9080  175.7440  146.3560 C   0  0  2  0  0  3  0  0  0  0  0  0
  190.9070  178.3100  142.7630 F   0  0  0  0  0  0  0  0  0  0  0  0
  190.7060  177.4190  143.7700 C   0  0  0  0  0  0  0  0  0  0  0  0
  191.6950  175.4440  145.0680 C   0  0  2  0  0  3  0  0  0  0  0  0
  191.3180  174.9060  147.3980 O   0  0  0  0  0  1  0  0  0  0  0  0
  187.4120  176.4040  146.8710 C   0  0  0  0  0  1  0  0  0  0  0  0
  188.6070  175.7870  147.2690 O   0  0  0  0  0  0  0  0  0  0  0  0
  191.2000  170.1160  142.6870 C   0  0  0  0  0  2  0  0  0  0  0  0
  191.1930  170.4100  141.1880 C   0  0  0  0  0  2  0  0  0  0  0  0
  188.3350  173.4440  140.3210 N   0  0  0  0  0  0  0  0  0  0  0  0
  190.4000  172.8680  139.8440 N   0  0  0  0  0  0  0  0  0  0  0  0
  192.0940  171.5120  140.8630 N   0  0  0  0  0  0  0  0  0  0  0  0
  190.0990  173.7880  138.8850 O   0  0  0  0  0  0  0  0  0  0  0  0
  188.8260  174.1440  139.2190 N   0  0  0  0  0  2  0  0  0  0  0  0
  191.7540  172.6090  140.2500 C   0  0  0  0  0  0  0  0  0  0  0  0
  189.2880  172.6860  140.7030 C   0  0  0  0  0  3  0  0  0  0  0  0
  192.8270  173.5830  139.8840 C   0  0  0  0  0  2  0  0  0  0  0  0
  194.7600  175.8920  142.2540 C   0  0  0  0  0  2  0  0  0  0  0  0
  196.0520  173.8020  141.6680 C   0  0  0  0  0  3  0  0  0  0  0  0
  194.9260  173.2440  141.1950 C   0  0  0  0  0  3  0  0  0  0  0  0
  193.8410  175.5130  141.0990 C   0  0  0  0  0  2  0  0  0  0  0  0
  193.6230  174.0030  141.1100 C   0  0  1  0  0  3  0  0  0  0  0  0
  196.1420  175.2580  142.0590 C   0  0  1  0  0  3  0  0  0  0  0  0
  197.9300  175.1360  140.7570 C   0  0  0  0  0  1  0  0  0  0  0  0
  196.8490  175.9590  141.0790 O   0  0  0  0  0  0  0  0  0  0  0  0
  1  5  1  0  0  0  0
  2  1  1  0  0  0  0
  2 11  2  0  0  0  0
  3 13  1  0  0  0  0
  5  8  2  0  0  0  0
  6 10  2  0  0  0  0
  7  1  2  0  0  0  0
  8  6  1  0  0  0  0
  9  8  1  0  0  0  0
  9  3  2  0  0  0  0
 11  9  1  0  0  0  0
 12 11  1  0  0  0  0
 13 10  1  0  0  0  0
 13  4  1  1  0  0  0
 14 15  2  0  0  0  0
 14  7  1  0  0  0  0
 15  2  1  0  0  0  0
 16 18  1  0  0  0  0
 17 20  1  6  0  0  0
 17 16  1  0  0  0  0
 18 21  1  0  0  0  0
 18 27  1  1  0  0  0
 19 24  1  0  0  0  0
 21 25  1  1  0  0  0
 22 23  1  0  0  0  0
 23 19  2  0  0  0  0
 23 17  1  0  0  0  0
 24  3  1  1  0  0  0
 24 21  1  0  0  0  0
 26 27  1  0  0  0  0
 28 15  1  0  0  0  0
 29 28  1  0  0  0  0
 30 36  2  0  0  0  0
 31 35  1  0  0  0  0
 31 36  1  0  0  0  0
 32 29  1  0  0  0  0
 33 34  1  0  0  0  0
 33 31  1  0  0  0  0
 34 30  1  0  0  0  0
 35 32  2  0  0  0  0
 37 35  1  0  0  0  0
 39 43  1  0  0  0  0
 40 39  2  0  0  0  0
 41 42  1  0  0  0  0
 41 38  1  0  0  0  0
 42 37  1  6  0  0  0
 42 40  1  0  0  0  0
 43 45  1  6  0  0  0
 43 38  1  0  0  0  0
 44 45  1  0  0  0  0
M  END
>  <MODEL>
9

>  <REMARK>
 VINA RESULT:      -7.7      2.747      5.942
  Name = 
  8 active torsions:
  status: ('A' for Active; 'I' for Inactive)
    1  A    between atoms: C_8  and  C_9
    2  A    between atoms: C_8  and  N_16
    3  A    between atoms: C_9  and  C_44
    4  A    between atoms: C_11  and  C_38
    5  A    between atoms: C_19  and  O_26
    6  A    between atoms: C_27  and  C_33
    7  A    between atoms: C_33  and  C_42
    8  A    between atoms: O_40  and  C_45
                            x       y       z     vdW  Elec       q    Type
                         _______ _______ _______ _____ _____    ______ ____

>  <TORSDO>
F 8

$$$$
