=
 OpenBabel11062422583D

 29 35  0  0  1  0  0  0  0  0999 V2000
  188.9890  174.8300  143.3480 N   0  0  0  0  0  0  0  0  0  0  0  0
  190.3710  174.4790  143.5360 C   0  0  2  0  0  3  0  0  0  0  0  0
  189.4440  173.4100  143.0890 C   0  0  1  0  0  0  0  0  0  0  0  0
  188.4680  172.9510  142.1870 C   0  0  0  0  0  0  0  0  0  0  0  0
  189.9140  173.1670  141.7830 N   0  0  0  0  0  2  0  0  0  0  0  0
  187.2850  172.6190  141.9120 O   0  0  0  0  0  0  0  0  0  0  0  0
  193.1000  176.4470  147.0780 C   0  0  0  0  0  3  0  0  0  0  0  0
  194.2440  176.4000  146.2800 C   0  0  0  0  0  3  0  0  0  0  0  0
  190.6710  174.3070  145.0210 C   0  0  1  0  0  3  0  0  0  0  0  0
  194.2290  175.6880  145.0780 C   0  0  0  0  0  3  0  0  0  0  0  0
  191.8970  175.0980  145.4450 C   0  0  0  0  0  0  0  0  0  0  0  0
  190.7200  175.8920  147.5580 C   0  0  0  0  0  2  0  0  0  0  0  0
  189.4230  174.6710  145.8320 C   0  0  0  0  0  2  0  0  0  0  0  0
  189.7520  174.7410  147.3150 C   0  0  0  0  0  2  0  0  0  0  0  0
  191.9340  175.7850  146.6820 C   0  0  0  0  0  0  0  0  0  0  0  0
  193.0660  175.0340  144.6690 C   0  0  0  0  0  3  0  0  0  0  0  0
  188.9630  175.6150  142.1780 N   0  0  0  0  0  2  0  0  0  0  0  0
  188.1530  176.7820  142.4760 C   0  0  0  0  0  2  0  0  0  0  0  0
  186.8960  176.3560  143.0750 N   0  0  0  0  0  2  0  0  0  0  0  0
  185.0130  177.7920  142.1560 C   0  0  0  0  0  2  0  0  0  0  0  0
  186.0410  177.5280  143.2430 C   0  0  0  0  0  0  0  0  0  0  0  0
  186.3190  178.5740  142.1840 C   0  0  0  0  0  2  0  0  0  0  0  0
  185.5850  179.6020  144.7910 C   0  0  0  0  0  2  0  0  0  0  0  0
  185.8560  178.1150  144.6450 C   0  0  2  0  0  0  0  0  0  0  0  0
  186.2540  177.3130  145.8680 C   0  0  2  0  0  3  0  0  0  0  0  0
  185.3350  177.6330  146.9510 N   0  0  0  0  0  2  0  0  0  0  0  0
  184.4510  178.5940  144.8920 C   0  0  1  0  0  3  0  0  0  0  0  0
  184.1610  178.2570  146.3440 C   0  0  0  0  0  2  0  0  0  0  0  0
  187.6770  177.6410  146.2840 C   0  0  0  0  0  1  0  0  0  0  0  0
  2  1  1  1  0  0  0
  2  9  1  0  0  0  0
  3  5  1  6  0  0  0
  3  1  1  0  0  0  0
  3  2  1  0  0  0  0
  4  3  1  0  0  0  0
  5  4  1  0  0  0  0
  6  4  2  0  0  0  0
  8  7  2  0  0  0  0
  9 11  1  0  0  0  0
  9 13  1  1  0  0  0
 10  8  1  0  0  0  0
 11 15  2  0  0  0  0
 13 14  1  0  0  0  0
 14 12  1  0  0  0  0
 15  7  1  0  0  0  0
 15 12  1  0  0  0  0
 16 10  2  0  0  0  0
 16 11  1  0  0  0  0
 17 18  1  0  0  0  0
 17  1  1  0  0  0  0
 18 19  1  0  0  0  0
 19 21  1  0  0  0  0
 20 22  1  0  0  0  0
 20 21  1  0  0  0  0
 22 21  1  0  0  0  0
 24 21  1  6  0  0  0
 24 23  1  0  0  0  0
 24 27  1  0  0  0  0
 24 25  1  0  0  0  0
 25 29  1  1  0  0  0
 25 26  1  0  0  0  0
 27 23  1  1  0  0  0
 27 28  1  0  0  0  0
 28 26  1  0  0  0  0
M  END
>  <MODEL>
1

>  <REMARK>
 VINA RESULT:      -7.8      0.000      0.000
  Name = 
  6 active torsions:
  status: ('A' for Active; 'I' for Inactive)
    1  A    between atoms: N_2  and  N_17
    2  A    between atoms: C_3  and  C_12
    3  A    between atoms: C_5  and  C_10
    4  A    between atoms: C_5  and  N_16
    5  A    between atoms: C_14  and  N_16
    6  A    between atoms: C_14  and  N_17
                            x       y       z     vdW  Elec       q    Type
                         _______ _______ _______ _____ _____    ______ ____

>  <TORSDO>
F 6

$$$$
=
 OpenBabel11062422583D

 29 35  0  0  1  0  0  0  0  0999 V2000
  188.0940  176.6590  142.3060 N   0  0  0  0  0  0  0  0  0  0  0  0
  187.4870  176.0730  143.4710 C   0  0  2  0  0  3  0  0  0  0  0  0
  187.6770  175.2040  142.2820 C   0  0  1  0  0  0  0  0  0  0  0  0
  188.5220  174.6740  141.2910 C   0  0  0  0  0  0  0  0  0  0  0  0
  188.6500  174.3010  142.7550 N   0  0  0  0  0  2  0  0  0  0  0  0
  188.9000  174.5830  140.0940 O   0  0  0  0  0  0  0  0  0  0  0  0
  184.5600  178.9360  146.1350 C   0  0  0  0  0  3  0  0  0  0  0  0
  185.0560  178.4040  147.3270 C   0  0  0  0  0  3  0  0  0  0  0  0
  186.0240  176.4940  143.5660 C   0  0  1  0  0  3  0  0  0  0  0  0
  185.8660  177.2670  147.3010 C   0  0  0  0  0  3  0  0  0  0  0  0
  185.7270  177.2110  144.8720 C   0  0  0  0  0  0  0  0  0  0  0  0
  184.3410  178.9650  143.6550 C   0  0  0  0  0  2  0  0  0  0  0  0
  185.6590  177.3300  142.3360 C   0  0  0  0  0  2  0  0  0  0  0  0
  184.2880  177.9640  142.5090 C   0  0  0  0  0  2  0  0  0  0  0  0
  184.8720  178.3380  144.9110 C   0  0  0  0  0  0  0  0  0  0  0  0
  186.1920  176.6690  146.0820 C   0  0  0  0  0  3  0  0  0  0  0  0
  189.4520  176.8290  142.6450 N   0  0  0  0  0  2  0  0  0  0  0  0
  189.4790  177.4730  143.9450 C   0  0  0  0  0  2  0  0  0  0  0  0
  190.8580  177.5790  144.4030 N   0  0  0  0  0  2  0  0  0  0  0  0
  189.8830  175.8460  145.9830 C   0  0  0  0  0  2  0  0  0  0  0  0
  191.1020  176.5280  145.3870 C   0  0  0  0  0  0  0  0  0  0  0  0
  190.6120  176.9320  146.7620 C   0  0  0  0  0  2  0  0  0  0  0  0
  192.5830  174.4550  146.0310 C   0  0  0  0  0  2  0  0  0  0  0  0
  192.4670  175.8350  145.4070 C   0  0  2  0  0  0  0  0  0  0  0  0
  193.7290  176.6220  145.1150 C   0  0  2  0  0  3  0  0  0  0  0  0
  194.6710  175.7490  144.4270 N   0  0  0  0  0  2  0  0  0  0  0  0
  192.5120  174.6200  144.5210 C   0  0  1  0  0  3  0  0  0  0  0  0
  193.9050  174.6150  143.9150 C   0  0  0  0  0  2  0  0  0  0  0  0
  194.3490  177.1370  146.4020 C   0  0  0  0  0  1  0  0  0  0  0  0
  1 17  1  0  0  0  0
  2  1  1  6  0  0  0
  2  9  1  0  0  0  0
  3  4  1  6  0  0  0
  3  1  1  0  0  0  0
  3  5  1  0  0  0  0
  3  2  1  0  0  0  0
  4  5  1  0  0  0  0
  6  4  2  0  0  0  0
  7  8  1  0  0  0  0
  9 13  1  6  0  0  0
  9 11  1  0  0  0  0
 10  8  2  0  0  0  0
 11 15  1  0  0  0  0
 11 16  2  0  0  0  0
 12 15  1  0  0  0  0
 13 14  1  0  0  0  0
 14 12  1  0  0  0  0
 15  7  2  0  0  0  0
 16 10  1  0  0  0  0
 17 18  1  0  0  0  0
 18 19  1  0  0  0  0
 19 21  1  0  0  0  0
 20 22  1  0  0  0  0
 21 20  1  0  0  0  0
 21 22  1  0  0  0  0
 24 21  1  1  0  0  0
 24 23  1  0  0  0  0
 25 24  1  0  0  0  0
 25 29  1  1  0  0  0
 26 25  1  0  0  0  0
 27 28  1  6  0  0  0
 27 24  1  0  0  0  0
 27 23  1  0  0  0  0
 28 26  1  0  0  0  0
M  END
>  <MODEL>
2

>  <REMARK>
 VINA RESULT:      -7.8      1.818      6.678
  Name = 
  6 active torsions:
  status: ('A' for Active; 'I' for Inactive)
    1  A    between atoms: N_2  and  N_17
    2  A    between atoms: C_3  and  C_12
    3  A    between atoms: C_5  and  C_10
    4  A    between atoms: C_5  and  N_16
    5  A    between atoms: C_14  and  N_16
    6  A    between atoms: C_14  and  N_17
                            x       y       z     vdW  Elec       q    Type
                         _______ _______ _______ _____ _____    ______ ____

>  <TORSDO>
F 6

$$$$
=
 OpenBabel11062422583D

 29 35  0  0  1  0  0  0  0  0999 V2000
  188.8190  175.1270  141.9280 N   0  0  0  0  0  0  0  0  0  0  0  0
  187.7330  174.9840  142.8610 C   0  0  2  0  0  3  0  0  0  0  0  0
  187.7930  174.0330  141.7240 C   0  0  1  0  0  0  0  0  0  0  0  0
  188.5150  173.0930  140.9650 C   0  0  0  0  0  0  0  0  0  0  0  0
  188.0750  172.8240  142.3920 N   0  0  0  0  0  2  0  0  0  0  0  0
  189.0990  172.7400  139.9080 O   0  0  0  0  0  0  0  0  0  0  0  0
  185.8740  179.0540  144.8230 C   0  0  0  0  0  3  0  0  0  0  0  0
  185.7280  178.4370  146.0660 C   0  0  0  0  0  3  0  0  0  0  0  0
  186.6670  176.0390  142.5880 C   0  0  1  0  0  3  0  0  0  0  0  0
  185.8930  177.0550  146.1850 C   0  0  0  0  0  3  0  0  0  0  0  0
  186.3990  176.9010  143.8090 C   0  0  0  0  0  0  0  0  0  0  0  0
  186.3660  179.0090  142.3810 C   0  0  0  0  0  2  0  0  0  0  0  0
  187.0750  176.8620  141.3620 C   0  0  0  0  0  2  0  0  0  0  0  0
  186.1630  178.0680  141.2010 C   0  0  0  0  0  2  0  0  0  0  0  0
  186.1870  178.2960  143.6900 C   0  0  0  0  0  0  0  0  0  0  0  0
  186.2170  176.2920  145.0620 C   0  0  0  0  0  3  0  0  0  0  0  0
  189.9620  174.6770  142.6210 N   0  0  0  0  0  2  0  0  0  0  0  0
  191.0140  175.6420  142.3570 C   0  0  0  0  0  2  0  0  0  0  0  0
  191.7300  175.9250  143.5930 N   0  0  0  0  0  2  0  0  0  0  0  0
  190.0600  177.8390  143.5720 C   0  0  0  0  0  2  0  0  0  0  0  0
  190.9660  176.9070  144.3580 C   0  0  0  0  0  0  0  0  0  0  0  0
  191.4200  178.3190  144.0580 C   0  0  0  0  0  2  0  0  0  0  0  0
  189.6210  177.4360  146.5530 C   0  0  0  0  0  2  0  0  0  0  0  0
  190.7130  176.6510  145.8460 C   0  0  2  0  0  0  0  0  0  0  0  0
  191.7260  175.8860  146.6740 C   0  0  2  0  0  3  0  0  0  0  0  0
  191.0130  175.1130  147.6810 N   0  0  0  0  0  2  0  0  0  0  0  0
  189.3800  176.0030  146.1040 C   0  0  1  0  0  3  0  0  0  0  0  0
  189.6190  175.0360  147.2510 C   0  0  0  0  0  2  0  0  0  0  0  0
  192.6970  176.8400  147.3480 C   0  0  0  0  0  1  0  0  0  0  0  0
  1 17  1  0  0  0  0
  2  1  1  6  0  0  0
  3  4  1  6  0  0  0
  3  1  1  0  0  0  0
  3  5  1  0  0  0  0
  3  2  1  0  0  0  0
  4  5  1  0  0  0  0
  6  4  2  0  0  0  0
  7  8  1  0  0  0  0
  8 10  2  0  0  0  0
  9 13  1  6  0  0  0
  9  2  1  0  0  0  0
  9 11  1  0  0  0  0
 11 16  2  0  0  0  0
 12 15  1  0  0  0  0
 14 13  1  0  0  0  0
 14 12  1  0  0  0  0
 15 11  1  0  0  0  0
 15  7  2  0  0  0  0
 16 10  1  0  0  0  0
 18 17  1  0  0  0  0
 18 19  1  0  0  0  0
 19 21  1  0  0  0  0
 20 22  1  0  0  0  0
 20 21  1  0  0  0  0
 22 21  1  0  0  0  0
 24 21  1  6  0  0  0
 24 27  1  0  0  0  0
 24 23  1  0  0  0  0
 24 25  1  0  0  0  0
 25 29  1  1  0  0  0
 25 26  1  0  0  0  0
 27 23  1  1  0  0  0
 27 28  1  0  0  0  0
 28 26  1  0  0  0  0
M  END
>  <MODEL>
3

>  <REMARK>
 VINA RESULT:      -7.6      1.985      5.533
  Name = 
  6 active torsions:
  status: ('A' for Active; 'I' for Inactive)
    1  A    between atoms: N_2  and  N_17
    2  A    between atoms: C_3  and  C_12
    3  A    between atoms: C_5  and  C_10
    4  A    between atoms: C_5  and  N_16
    5  A    between atoms: C_14  and  N_16
    6  A    between atoms: C_14  and  N_17
                            x       y       z     vdW  Elec       q    Type
                         _______ _______ _______ _____ _____    ______ ____

>  <TORSDO>
F 6

$$$$
=
 OpenBabel11062422583D

 29 35  0  0  1  0  0  0  0  0999 V2000
  190.1710  176.3450  145.2500 N   0  0  0  0  0  0  0  0  0  0  0  0
  189.0550  177.2320  145.4410 C   0  0  2  0  0  3  0  0  0  0  0  0
  189.5320  176.4630  146.6170 C   0  0  1  0  0  0  0  0  0  0  0  0
  190.5830  176.0740  147.4660 C   0  0  0  0  0  0  0  0  0  0  0  0
  190.0500  177.4940  147.4270 N   0  0  0  0  0  2  0  0  0  0  0  0
  191.3790  175.2090  147.9150 O   0  0  0  0  0  0  0  0  0  0  0  0
  184.3960  178.3520  144.4860 C   0  0  0  0  0  3  0  0  0  0  0  0
  184.2290  178.9160  145.7520 C   0  0  0  0  0  3  0  0  0  0  0  0
  187.7800  176.5950  144.8970 C   0  0  1  0  0  3  0  0  0  0  0  0
  185.2080  178.7370  146.7310 C   0  0  0  0  0  3  0  0  0  0  0  0
  186.5590  177.4580  145.1630 C   0  0  0  0  0  0  0  0  0  0  0  0
  185.6910  177.0480  142.8040 C   0  0  0  0  0  2  0  0  0  0  0  0
  187.9700  176.2790  143.4110 C   0  0  0  0  0  2  0  0  0  0  0  0
  186.6500  175.8650  142.7800 C   0  0  0  0  0  2  0  0  0  0  0  0
  185.5420  177.6080  144.1900 C   0  0  0  0  0  0  0  0  0  0  0  0
  186.3610  178.0050  146.4410 C   0  0  0  0  0  3  0  0  0  0  0  0
  191.2900  177.1880  145.1000 N   0  0  0  0  0  2  0  0  0  0  0  0
  191.7350  177.0480  143.7250 C   0  0  0  0  0  2  0  0  0  0  0  0
  191.8630  175.6340  143.4010 N   0  0  0  0  0  2  0  0  0  0  0  0
  194.1490  175.9370  142.3370 C   0  0  0  0  0  2  0  0  0  0  0  0
  193.2810  175.2840  143.3990 C   0  0  0  0  0  0  0  0  0  0  0  0
  193.6580  174.5080  142.1560 C   0  0  0  0  0  2  0  0  0  0  0  0
  193.2080  173.5920  145.4080 C   0  0  0  0  0  2  0  0  0  0  0  0
  193.9080  174.7260  144.6790 C   0  0  2  0  0  0  0  0  0  0  0  0
  195.0110  175.4880  145.3860 C   0  0  2  0  0  3  0  0  0  0  0  0
  195.9280  174.5280  145.9840 N   0  0  0  0  0  2  0  0  0  0  0  0
  194.4070  173.3160  144.5130 C   0  0  1  0  0  3  0  0  0  0  0  0
  195.6830  173.2430  145.3350 C   0  0  0  0  0  2  0  0  0  0  0  0
  194.4340  176.3910  146.4620 C   0  0  0  0  0  1  0  0  0  0  0  0
  1  3  1  0  0  0  0
  2  1  1  6  0  0  0
  2  3  1  0  0  0  0
  3  5  1  6  0  0  0
  3  4  1  0  0  0  0
  4  6  2  0  0  0  0
  5  4  1  0  0  0  0
  7  8  1  0  0  0  0
  8 10  2  0  0  0  0
  9 13  1  6  0  0  0
  9 11  1  0  0  0  0
  9  2  1  0  0  0  0
 11 16  2  0  0  0  0
 12 15  1  0  0  0  0
 14 12  1  0  0  0  0
 14 13  1  0  0  0  0
 15  7  2  0  0  0  0
 15 11  1  0  0  0  0
 16 10  1  0  0  0  0
 17  1  1  0  0  0  0
 18 17  1  0  0  0  0
 19 18  1  0  0  0  0
 20 21  1  0  0  0  0
 21 19  1  0  0  0  0
 22 20  1  0  0  0  0
 22 21  1  0  0  0  0
 24 21  1  6  0  0  0
 24 25  1  0  0  0  0
 24 23  1  0  0  0  0
 25 26  1  0  0  0  0
 25 29  1  1  0  0  0
 27 24  1  0  0  0  0
 27 28  1  1  0  0  0
 27 23  1  0  0  0  0
 28 26  1  0  0  0  0
M  END
>  <MODEL>
4

>  <REMARK>
 VINA RESULT:      -7.4      2.787      7.668
  Name = 
  6 active torsions:
  status: ('A' for Active; 'I' for Inactive)
    1  A    between atoms: N_2  and  N_17
    2  A    between atoms: C_3  and  C_12
    3  A    between atoms: C_5  and  C_10
    4  A    between atoms: C_5  and  N_16
    5  A    between atoms: C_14  and  N_16
    6  A    between atoms: C_14  and  N_17
                            x       y       z     vdW  Elec       q    Type
                         _______ _______ _______ _____ _____    ______ ____

>  <TORSDO>
F 6

$$$$
=
 OpenBabel11062422583D

 29 35  0  0  1  0  0  0  0  0999 V2000
  189.3460  176.1740  143.9490 N   0  0  0  0  0  0  0  0  0  0  0  0
  188.3230  177.1780  143.8350 C   0  0  2  0  0  3  0  0  0  0  0  0
  189.7310  177.6060  143.6440 C   0  0  1  0  0  0  0  0  0  0  0  0
  190.9700  177.4450  142.9990 C   0  0  0  0  0  0  0  0  0  0  0  0
  189.7320  177.9400  142.2750 N   0  0  0  0  0  2  0  0  0  0  0  0
  192.1870  177.1230  143.0060 O   0  0  0  0  0  0  0  0  0  0  0  0
  184.2030  178.2480  146.2330 C   0  0  0  0  0  3  0  0  0  0  0  0
  183.7950  179.1230  145.2240 C   0  0  0  0  0  3  0  0  0  0  0  0
  187.8450  177.5980  145.2210 C   0  0  1  0  0  3  0  0  0  0  0  0
  184.6870  179.4940  144.2170 C   0  0  0  0  0  3  0  0  0  0  0  0
  186.4030  178.0750  145.2010 C   0  0  0  0  0  0  0  0  0  0  0  0
  185.8870  176.7760  147.3290 C   0  0  0  0  0  2  0  0  0  0  0  0
  188.0720  176.4450  146.2030 C   0  0  0  0  0  2  0  0  0  0  0  0
  187.3960  176.7350  147.5340 C   0  0  0  0  0  2  0  0  0  0  0  0
  185.5050  177.7380  146.2410 C   0  0  0  0  0  0  0  0  0  0  0  0
  185.9860  178.9810  144.2110 C   0  0  0  0  0  3  0  0  0  0  0  0
  189.2220  175.3860  142.7870 N   0  0  0  0  0  2  0  0  0  0  0  0
  189.7670  174.0800  143.1100 C   0  0  0  0  0  2  0  0  0  0  0  0
  190.2860  174.0960  144.4700 N   0  0  0  0  0  2  0  0  0  0  0  0
  192.2810  173.3270  143.0990 C   0  0  0  0  0  2  0  0  0  0  0  0
  191.7170  173.8080  144.4250 C   0  0  0  0  0  0  0  0  0  0  0  0
  191.9790  172.3330  144.2110 C   0  0  0  0  0  2  0  0  0  0  0  0
  193.8230  173.6520  145.9880 C   0  0  0  0  0  2  0  0  0  0  0  0
  192.6340  174.4440  145.4730 C   0  0  2  0  0  0  0  0  0  0  0  0
  192.1930  175.6870  146.2210 C   0  0  2  0  0  3  0  0  0  0  0  0
  193.3670  176.5070  146.4870 N   0  0  0  0  0  2  0  0  0  0  0  0
  194.0090  174.7370  144.9380 C   0  0  1  0  0  3  0  0  0  0  0  0
  194.4220  176.0470  145.5880 C   0  0  0  0  0  2  0  0  0  0  0  0
  191.5170  175.3140  147.5280 C   0  0  0  0  0  1  0  0  0  0  0  0
  2  1  1  1  0  0  0
  2  9  1  0  0  0  0
  3  5  1  6  0  0  0
  3  2  1  0  0  0  0
  3  1  1  0  0  0  0
  4  6  2  0  0  0  0
  4  3  1  0  0  0  0
  5  4  1  0  0  0  0
  7 15  1  0  0  0  0
  8  7  2  0  0  0  0
  9 13  1  1  0  0  0
 10  8  1  0  0  0  0
 11  9  1  0  0  0  0
 11 15  2  0  0  0  0
 12 14  1  0  0  0  0
 13 14  1  0  0  0  0
 15 12  1  0  0  0  0
 16 10  2  0  0  0  0
 16 11  1  0  0  0  0
 17 18  1  0  0  0  0
 17  1  1  0  0  0  0
 18 19  1  0  0  0  0
 20 22  1  0  0  0  0
 20 21  1  0  0  0  0
 21 19  1  0  0  0  0
 22 21  1  0  0  0  0
 24 21  1  6  0  0  0
 24 23  1  0  0  0  0
 24 25  1  0  0  0  0
 25 26  1  0  0  0  0
 25 29  1  1  0  0  0
 27 24  1  0  0  0  0
 27 28  1  1  0  0  0
 27 23  1  0  0  0  0
 28 26  1  0  0  0  0
M  END
>  <MODEL>
5

>  <REMARK>
 VINA RESULT:      -7.4      2.185      6.888
  Name = 
  6 active torsions:
  status: ('A' for Active; 'I' for Inactive)
    1  A    between atoms: N_2  and  N_17
    2  A    between atoms: C_3  and  C_12
    3  A    between atoms: C_5  and  C_10
    4  A    between atoms: C_5  and  N_16
    5  A    between atoms: C_14  and  N_16
    6  A    between atoms: C_14  and  N_17
                            x       y       z     vdW  Elec       q    Type
                         _______ _______ _______ _____ _____    ______ ____

>  <TORSDO>
F 6

$$$$
=
 OpenBabel11062422583D

 29 35  0  0  1  0  0  0  0  0999 V2000
  187.1480  177.3420  143.5750 N   0  0  0  0  0  0  0  0  0  0  0  0
  187.8460  176.8020  144.7110 C   0  0  2  0  0  3  0  0  0  0  0  0
  186.7180  177.7300  144.9740 C   0  0  1  0  0  0  0  0  0  0  0  0
  185.3730  178.0890  144.7770 C   0  0  0  0  0  0  0  0  0  0  0  0
  185.7810  176.8600  145.5680 N   0  0  0  0  0  2  0  0  0  0  0  0
  184.4900  178.8480  144.2990 O   0  0  0  0  0  0  0  0  0  0  0  0
  192.4420  175.9570  146.1360 C   0  0  0  0  0  3  0  0  0  0  0  0
  192.0080  175.2900  147.2820 C   0  0  0  0  0  3  0  0  0  0  0  0
  189.1680  177.5350  144.9110 C   0  0  1  0  0  3  0  0  0  0  0  0
  190.6630  175.3410  147.6530 C   0  0  0  0  0  3  0  0  0  0  0  0
  190.1640  176.7000  145.6980 C   0  0  0  0  0  0  0  0  0  0  0  0
  192.0450  177.3540  144.1120 C   0  0  0  0  0  2  0  0  0  0  0  0
  189.7110  177.9750  143.5480 C   0  0  0  0  0  2  0  0  0  0  0  0
  191.1340  178.4960  143.6830 C   0  0  0  0  0  2  0  0  0  0  0  0
  191.5360  176.6790  145.3530 C   0  0  0  0  0  0  0  0  0  0  0  0
  189.7490  176.0490  146.8710 C   0  0  0  0  0  3  0  0  0  0  0  0
  186.4000  176.2670  143.0550 N   0  0  0  0  0  2  0  0  0  0  0  0
  187.2030  175.6720  142.0030 C   0  0  0  0  0  2  0  0  0  0  0  0
  187.4100  174.2600  142.2920 N   0  0  0  0  0  2  0  0  0  0  0  0
  188.7290  174.3050  140.1220 C   0  0  0  0  0  2  0  0  0  0  0  0
  188.5770  173.7980  141.5460 C   0  0  0  0  0  0  0  0  0  0  0  0
  188.1780  172.9110  140.3860 C   0  0  0  0  0  2  0  0  0  0  0  0
  190.9240  174.2390  142.6400 C   0  0  0  0  0  2  0  0  0  0  0  0
  189.7920  173.2800  142.3190 C   0  0  2  0  0  0  0  0  0  0  0  0
  190.0200  171.7890  142.4760 C   0  0  2  0  0  3  0  0  0  0  0  0
  190.6370  171.5490  143.7740 N   0  0  0  0  0  2  0  0  0  0  0  0
  189.8960  173.8710  143.6990 C   0  0  1  0  0  3  0  0  0  0  0  0
  190.4140  172.7470  144.5800 C   0  0  0  0  0  2  0  0  0  0  0  0
  190.9220  171.2660  141.3720 C   0  0  0  0  0  1  0  0  0  0  0  0
  1  3  1  0  0  0  0
  2  1  1  6  0  0  0
  2  9  1  0  0  0  0
  2  3  1  0  0  0  0
  3  4  1  1  0  0  0
  3  5  1  0  0  0  0
  4  5  1  0  0  0  0
  6  4  2  0  0  0  0
  7  8  1  0  0  0  0
  8 10  2  0  0  0  0
  9 13  1  6  0  0  0
  9 11  1  0  0  0  0
 11 16  2  0  0  0  0
 12 15  1  0  0  0  0
 13 14  1  0  0  0  0
 14 12  1  0  0  0  0
 15 11  1  0  0  0  0
 15  7  2  0  0  0  0
 16 10  1  0  0  0  0
 17  1  1  0  0  0  0
 18 19  1  0  0  0  0
 18 17  1  0  0  0  0
 20 22  1  0  0  0  0
 20 21  1  0  0  0  0
 21 19  1  0  0  0  0
 22 21  1  0  0  0  0
 24 21  1  6  0  0  0
 24 25  1  0  0  0  0
 24 23  1  0  0  0  0
 24 27  1  0  0  0  0
 25 29  1  6  0  0  0
 25 26  1  0  0  0  0
 26 28  1  0  0  0  0
 27 23  1  6  0  0  0
 27 28  1  0  0  0  0
M  END
>  <MODEL>
6

>  <REMARK>
 VINA RESULT:      -7.3      2.215      5.466
  Name = 
  6 active torsions:
  status: ('A' for Active; 'I' for Inactive)
    1  A    between atoms: N_2  and  N_17
    2  A    between atoms: C_3  and  C_12
    3  A    between atoms: C_5  and  C_10
    4  A    between atoms: C_5  and  N_16
    5  A    between atoms: C_14  and  N_16
    6  A    between atoms: C_14  and  N_17
                            x       y       z     vdW  Elec       q    Type
                         _______ _______ _______ _____ _____    ______ ____

>  <TORSDO>
F 6

$$$$
=
 OpenBabel11062422583D

 29 35  0  0  1  0  0  0  0  0999 V2000
  190.1370  176.2440  145.3090 N   0  0  0  0  0  0  0  0  0  0  0  0
  189.0560  177.1860  145.4270 C   0  0  2  0  0  3  0  0  0  0  0  0
  189.4760  176.4640  146.6530 C   0  0  1  0  0  0  0  0  0  0  0  0
  190.4930  176.0780  147.5450 C   0  0  0  0  0  0  0  0  0  0  0  0
  190.0230  177.5150  147.4170 N   0  0  0  0  0  2  0  0  0  0  0  0
  191.2420  175.2060  148.0580 O   0  0  0  0  0  0  0  0  0  0  0  0
  184.3880  178.3650  144.6020 C   0  0  0  0  0  3  0  0  0  0  0  0
  184.2500  178.8900  145.8880 C   0  0  0  0  0  3  0  0  0  0  0  0
  187.7670  176.5740  144.8900 C   0  0  1  0  0  3  0  0  0  0  0  0
  185.2480  178.6750  146.8410 C   0  0  0  0  0  3  0  0  0  0  0  0
  186.5570  177.4370  145.2060 C   0  0  0  0  0  0  0  0  0  0  0  0
  185.6390  177.1050  142.8550 C   0  0  0  0  0  2  0  0  0  0  0  0
  187.9240  176.3040  143.3900 C   0  0  0  0  0  2  0  0  0  0  0  0
  186.5890  175.9180  142.7740 C   0  0  0  0  0  2  0  0  0  0  0  0
  185.5220  177.6230  144.2600 C   0  0  0  0  0  0  0  0  0  0  0  0
  186.3890  177.9460  146.5050 C   0  0  0  0  0  3  0  0  0  0  0  0
  191.2950  177.0300  145.1380 N   0  0  0  0  0  2  0  0  0  0  0  0
  192.1330  176.3320  144.1800 C   0  0  0  0  0  2  0  0  0  0  0  0
  192.2970  174.9470  144.6000 N   0  0  0  0  0  2  0  0  0  0  0  0
  193.2000  174.1290  142.3720 C   0  0  0  0  0  2  0  0  0  0  0  0
  192.1170  174.0840  143.4360 C   0  0  0  0  0  0  0  0  0  0  0  0
  191.8980  174.8920  142.1750 C   0  0  0  0  0  2  0  0  0  0  0  0
  190.2150  172.7960  144.7120 C   0  0  0  0  0  2  0  0  0  0  0  0
  191.1910  172.8710  143.5500 C   0  0  2  0  0  0  0  0  0  0  0  0
  191.4570  171.6250  142.7280 C   0  0  2  0  0  3  0  0  0  0  0  0
  190.1790  171.0210  142.3760 N   0  0  0  0  0  2  0  0  0  0  0  0
  189.7450  173.2220  143.3300 C   0  0  1  0  0  3  0  0  0  0  0  0
  189.1550  172.0420  142.5770 C   0  0  0  0  0  2  0  0  0  0  0  0
  192.2980  170.6350  143.5120 C   0  0  0  0  0  1  0  0  0  0  0  0
  1  3  1  0  0  0  0
  2  1  1  6  0  0  0
  2  3  1  0  0  0  0
  3  5  1  6  0  0  0
  3  4  1  0  0  0  0
  4  6  2  0  0  0  0
  5  4  1  0  0  0  0
  7  8  1  0  0  0  0
  8 10  2  0  0  0  0
  9 13  1  6  0  0  0
  9 11  1  0  0  0  0
  9  2  1  0  0  0  0
 11 16  2  0  0  0  0
 12 15  1  0  0  0  0
 14 12  1  0  0  0  0
 14 13  1  0  0  0  0
 15  7  2  0  0  0  0
 15 11  1  0  0  0  0
 16 10  1  0  0  0  0
 17  1  1  0  0  0  0
 18 19  1  0  0  0  0
 18 17  1  0  0  0  0
 20 21  1  0  0  0  0
 21 19  1  0  0  0  0
 22 20  1  0  0  0  0
 22 21  1  0  0  0  0
 24 21  1  6  0  0  0
 24 23  1  0  0  0  0
 25 29  1  1  0  0  0
 25 24  1  0  0  0  0
 26 28  1  0  0  0  0
 26 25  1  0  0  0  0
 27 28  1  6  0  0  0
 27 24  1  0  0  0  0
 27 23  1  0  0  0  0
M  END
>  <MODEL>
7

>  <REMARK>
 VINA RESULT:      -7.2      2.529      7.112
  Name = 
  6 active torsions:
  status: ('A' for Active; 'I' for Inactive)
    1  A    between atoms: N_2  and  N_17
    2  A    between atoms: C_3  and  C_12
    3  A    between atoms: C_5  and  C_10
    4  A    between atoms: C_5  and  N_16
    5  A    between atoms: C_14  and  N_16
    6  A    between atoms: C_14  and  N_17
                            x       y       z     vdW  Elec       q    Type
                         _______ _______ _______ _____ _____    ______ ____

>  <TORSDO>
F 6

$$$$
=
 OpenBabel11062422583D

 29 35  0  0  1  0  0  0  0  0999 V2000
  193.4710  174.8850  144.7920 N   0  0  0  0  0  0  0  0  0  0  0  0
  193.0590  176.2610  144.8620 C   0  0  2  0  0  3  0  0  0  0  0  0
  194.3880  175.9110  145.4220 C   0  0  1  0  0  0  0  0  0  0  0  0
  195.6500  175.3120  145.2650 C   0  0  0  0  0  0  0  0  0  0  0  0
  195.2470  176.5710  144.5200 N   0  0  0  0  0  2  0  0  0  0  0  0
  196.4860  174.4090  145.5280 O   0  0  0  0  0  0  0  0  0  0  0  0
  188.2450  176.1960  145.6930 C   0  0  0  0  0  3  0  0  0  0  0  0
  188.0040  177.0380  144.6060 C   0  0  0  0  0  3  0  0  0  0  0  0
  192.0590  176.4510  145.9980 C   0  0  1  0  0  3  0  0  0  0  0  0
  189.0690  177.6780  143.9690 C   0  0  0  0  0  3  0  0  0  0  0  0
  190.6380  176.5980  145.4820 C   0  0  0  0  0  0  0  0  0  0  0  0
  189.7610  175.0470  147.3010 C   0  0  0  0  0  2  0  0  0  0  0  0
  192.2100  175.3000  146.9980 C   0  0  0  0  0  2  0  0  0  0  0  0
  191.0780  175.3240  148.0140 C   0  0  0  0  0  2  0  0  0  0  0  0
  189.5500  175.9870  146.1500 C   0  0  0  0  0  0  0  0  0  0  0  0
  190.3760  177.4660  144.4100 C   0  0  0  0  0  3  0  0  0  0  0  0
  193.7650  174.6560  143.4320 N   0  0  0  0  0  2  0  0  0  0  0  0
  192.4960  174.6520  142.7270 C   0  0  0  0  0  2  0  0  0  0  0  0
  192.1630  173.2880  142.3400 N   0  0  0  0  0  2  0  0  0  0  0  0
  190.5800  172.9930  144.3040 C   0  0  0  0  0  2  0  0  0  0  0  0
  190.8110  172.9900  142.8020 C   0  0  0  0  0  0  0  0  0  0  0  0
  190.7590  171.6790  143.5570 C   0  0  0  0  0  2  0  0  0  0  0  0
  188.2320  172.8680  142.3140 C   0  0  0  0  0  2  0  0  0  0  0  0
  189.6390  173.1840  141.8370 C   0  0  2  0  0  0  0  0  0  0  0  0
  189.8920  173.3680  140.3540 C   0  0  2  0  0  3  0  0  0  0  0  0
  188.8800  174.2690  139.8190 N   0  0  0  0  0  2  0  0  0  0  0  0
  188.7250  174.3050  142.2520 C   0  0  1  0  0  3  0  0  0  0  0  0
  188.2870  174.9670  140.9580 C   0  0  0  0  0  2  0  0  0  0  0  0
  189.8300  172.0350  139.6300 C   0  0  0  0  0  1  0  0  0  0  0  0
  1  3  1  0  0  0  0
  2  1  1  6  0  0  0
  2  3  1  0  0  0  0
  2  9  1  0  0  0  0
  3  5  1  6  0  0  0
  4  3  1  0  0  0  0
  4  6  2  0  0  0  0
  5  4  1  0  0  0  0
  7 15  1  0  0  0  0
  8  7  2  0  0  0  0
  9 13  1  1  0  0  0
 10 16  2  0  0  0  0
 10  8  1  0  0  0  0
 11  9  1  0  0  0  0
 11 15  2  0  0  0  0
 12 14  1  0  0  0  0
 13 14  1  0  0  0  0
 15 12  1  0  0  0  0
 16 11  1  0  0  0  0
 17  1  1  0  0  0  0
 18 17  1  0  0  0  0
 19 18  1  0  0  0  0
 19 21  1  0  0  0  0
 21 22  1  0  0  0  0
 21 20  1  0  0  0  0
 22 20  1  0  0  0  0
 24 27  1  0  0  0  0
 24 23  1  1  0  0  0
 24 21  1  0  0  0  0
 25 29  1  6  0  0  0
 25 24  1  0  0  0  0
 26 25  1  0  0  0  0
 26 28  1  0  0  0  0
 27 28  1  6  0  0  0
 27 23  1  0  0  0  0
M  END
>  <MODEL>
8

>  <REMARK>
 VINA RESULT:      -7.2      3.391      6.179
  Name = 
  6 active torsions:
  status: ('A' for Active; 'I' for Inactive)
    1  A    between atoms: N_2  and  N_17
    2  A    between atoms: C_3  and  C_12
    3  A    between atoms: C_5  and  C_10
    4  A    between atoms: C_5  and  N_16
    5  A    between atoms: C_14  and  N_16
    6  A    between atoms: C_14  and  N_17
                            x       y       z     vdW  Elec       q    Type
                         _______ _______ _______ _____ _____    ______ ____

>  <TORSDO>
F 6

$$$$
=
 OpenBabel11062422583D

 29 35  0  0  1  0  0  0  0  0999 V2000
  188.1260  176.2110  142.1990 N   0  0  0  0  0  0  0  0  0  0  0  0
  187.6760  176.7410  143.4590 C   0  0  2  0  0  3  0  0  0  0  0  0
  187.2820  177.4670  142.2260 C   0  0  1  0  0  0  0  0  0  0  0  0
  186.7000  177.4550  140.9460 C   0  0  0  0  0  0  0  0  0  0  0  0
  185.8900  177.2450  142.2110 N   0  0  0  0  0  2  0  0  0  0  0  0
  186.7830  177.5400  139.6930 O   0  0  0  0  0  0  0  0  0  0  0  0
  191.3540  175.9490  146.5750 C   0  0  0  0  0  3  0  0  0  0  0  0
  190.5090  175.2910  147.4700 C   0  0  0  0  0  3  0  0  0  0  0  0
  188.8130  177.4870  144.1490 C   0  0  1  0  0  3  0  0  0  0  0  0
  189.1250  175.3350  147.2860 C   0  0  0  0  0  3  0  0  0  0  0  0
  189.4250  176.6690  145.2730 C   0  0  0  0  0  0  0  0  0  0  0  0
  191.7750  177.3190  144.5380 C   0  0  0  0  0  2  0  0  0  0  0  0
  189.8440  177.9150  143.1000 C   0  0  0  0  0  2  0  0  0  0  0  0
  191.1000  178.4490  143.7720 C   0  0  0  0  0  2  0  0  0  0  0  0
  190.8240  176.6550  145.4910 C   0  0  0  0  0  0  0  0  0  0  0  0
  188.5870  176.0280  146.2000 C   0  0  0  0  0  3  0  0  0  0  0  0
  187.3600  175.0460  141.9950 N   0  0  0  0  0  2  0  0  0  0  0  0
  188.2030  173.9230  142.3650 C   0  0  0  0  0  2  0  0  0  0  0  0
  189.6010  174.2950  142.2020 N   0  0  0  0  0  2  0  0  0  0  0  0
  189.7730  172.0400  143.3580 C   0  0  0  0  0  2  0  0  0  0  0  0
  190.4240  173.3530  142.9550 C   0  0  0  0  0  0  0  0  0  0  0  0
  189.9090  173.1720  144.3670 C   0  0  0  0  0  2  0  0  0  0  0  0
  192.6450  173.1070  141.5730 C   0  0  0  0  0  2  0  0  0  0  0  0
  191.9480  173.4700  142.8730 C   0  0  2  0  0  0  0  0  0  0  0  0
  192.7730  173.6230  144.1360 C   0  0  2  0  0  3  0  0  0  0  0  0
  193.9230  174.4660  143.8380 N   0  0  0  0  0  2  0  0  0  0  0  0
  192.3960  174.5620  141.9400 C   0  0  1  0  0  3  0  0  0  0  0  0
  193.6260  175.1690  142.5930 C   0  0  0  0  0  2  0  0  0  0  0  0
  193.2400  172.2690  144.6380 C   0  0  0  0  0  1  0  0  0  0  0  0
  1  3  1  0  0  0  0
  2  1  1  6  0  0  0
  2  9  1  0  0  0  0
  3  4  1  6  0  0  0
  3  2  1  0  0  0  0
  4  5  1  0  0  0  0
  5  3  1  0  0  0  0
  6  4  2  0  0  0  0
  7  8  1  0  0  0  0
  9 13  1  6  0  0  0
  9 11  1  0  0  0  0
 10  8  2  0  0  0  0
 11 15  1  0  0  0  0
 11 16  2  0  0  0  0
 12 15  1  0  0  0  0
 13 14  1  0  0  0  0
 14 12  1  0  0  0  0
 15  7  2  0  0  0  0
 16 10  1  0  0  0  0
 17  1  1  0  0  0  0
 17 18  1  0  0  0  0
 19 18  1  0  0  0  0
 19 21  1  0  0  0  0
 20 22  1  0  0  0  0
 21 20  1  0  0  0  0
 21 22  1  0  0  0  0
 24 23  1  6  0  0  0
 24 21  1  0  0  0  0
 24 25  1  0  0  0  0
 25 29  1  6  0  0  0
 26 25  1  0  0  0  0
 27 23  1  6  0  0  0
 27 28  1  0  0  0  0
 27 24  1  0  0  0  0
 28 26  1  0  0  0  0
M  END
>  <MODEL>
9

>  <REMARK>
 VINA RESULT:      -7.1      2.446      5.959
  Name = 
  6 active torsions:
  status: ('A' for Active; 'I' for Inactive)
    1  A    between atoms: N_2  and  N_17
    2  A    between atoms: C_3  and  C_12
    3  A    between atoms: C_5  and  C_10
    4  A    between atoms: C_5  and  N_16
    5  A    between atoms: C_14  and  N_16
    6  A    between atoms: C_14  and  N_17
                            x       y       z     vdW  Elec       q    Type
                         _______ _______ _______ _____ _____    ______ ____

>  <TORSDO>
F 6

$$$$
