=
 OpenBabel11062419173D

 50 55  0  0  1  0  0  0  0  0999 V2000
  195.4380  170.6010  145.2670 C   0  0  2  0  0  0  0  0  0  0  0  0
  188.8850  177.3810  146.0860 C   0  0  0  0  0  3  0  0  0  0  0  0
  190.7980  174.6610  145.0070 C   0  0  2  0  0  3  0  0  0  0  0  0
  190.3710  172.7330  143.8450 C   0  0  0  0  0  2  0  0  0  0  0  0
  189.2960  178.1610  145.0770 C   0  0  0  0  0  3  0  0  0  0  0  0
  189.0660  174.9460  147.0540 C   0  0  0  0  0  0  0  0  0  0  0  0
  193.3410  176.1040  142.6450 C   0  0  0  0  0  3  0  0  0  0  0  0
  190.8440  171.3080  143.6020 C   0  0  0  0  0  2  0  0  0  0  0  0
  195.4880  174.8820  142.5920 C   0  0  1  0  0  3  0  0  0  0  0  0
  196.6720  171.4930  145.3890 C   0  0  2  0  0  3  0  0  0  0  0  0
  190.4740  176.6380  143.4240 N   0  0  0  0  0  0  0  0  0  0  0  0
  192.2960  171.2580  143.1480 C   0  0  0  0  0  2  0  0  0  0  0  0
  197.9410  171.2080  143.3340 C   0  0  0  0  0  2  0  0  0  0  0  0
  197.0740  172.1860  144.0940 C   0  0  2  0  0  3  0  0  0  0  0  0
  188.5970  174.3280  147.9940 O   0  0  0  0  0  0  0  0  0  0  0  0
  196.8550  174.9900  142.8760 O   0  0  0  0  0  0  0  0  0  0  0  0
  189.7110  176.1890  146.4420 C   0  0  1  0  0  3  0  0  0  0  0  0
  193.2260  171.3400  144.3440 C   0  0  0  0  0  2  0  0  0  0  0  0
  188.2070  175.0300  144.6700 C   0  0  0  0  0  1  0  0  0  0  0  0
  197.8620  173.4460  144.3940 C   0  0  0  0  0  2  0  0  0  0  0  0
  191.4530  178.6130  144.2010 O   0  0  0  0  0  0  0  0  0  0  0  0
  197.4460  169.8370  143.7320 C   0  0  0  0  0  2  0  0  0  0  0  0
  196.9770  174.6680  144.2310 C   0  0  0  0  0  2  0  0  0  0  0  0
  190.4750  177.8220  144.2440 C   0  0  0  0  0  0  0  0  0  0  0  0
  197.4740  169.2850  146.2860 C   0  0  0  0  0  1  0  0  0  0  0  0
  194.8260  170.2920  146.4850 O   0  0  0  0  0  1  0  0  0  0  0  0
  194.8260  176.2570  142.6290 C   0  0  0  0  0  2  0  0  0  0  0  0
  191.0040  173.2660  144.9790 O   0  0  0  0  0  0  0  0  0  0  0  0
  196.8250  169.9960  145.1110 C   0  0  2  0  0  0  0  0  0  0  0  0
  192.7210  175.6620  143.7370 C   0  0  0  0  0  3  0  0  0  0  0  0
  189.4440  175.0770  145.5720 C   0  0  1  0  0  0  0  0  0  0  0  0
  191.2470  175.4210  143.7300 C   0  0  1  0  0  3  0  0  0  0  0  0
  194.5480  170.6640  144.0220 C   0  0  0  0  0  2  0  0  0  0  0  0
  195.7330  170.9310  138.5120 O   0  0  0  0  0  0  0  0  0  0  0  0
  196.2210  174.6790  140.2980 O   0  0  0  0  0  0  0  0  0  0  0  0
  195.2670  174.2220  141.2300 C   0  0  1  0  0  3  0  0  0  0  0  0
  195.2970  172.7080  141.3590 C   0  0  0  0  0  2  0  0  0  0  0  0
  195.7050  174.5880  138.9810 C   0  0  1  0  0  3  0  0  0  0  0  0
  194.5710  172.0810  140.1830 C   0  0  0  0  0  2  0  0  0  0  0  0
  196.0110  173.2500  138.3020 C   0  0  0  0  0  2  0  0  0  0  0  0
  195.4540  172.0240  138.9750 C   0  0  0  0  0  0  0  0  0  0  0  0
  194.2740  175.0890  138.7730 C   0  0  0  0  0  1  0  0  0  0  0  0
  189.6450  176.6210  142.2260 C   0  0  0  0  0  2  0  0  0  0  0  0
  189.0070  177.9810  141.9940 C   0  0  0  0  0  2  0  0  0  0  0  0
  187.5850  177.8180  141.4830 C   0  0  0  0  0  2  0  0  0  0  0  0
  186.6260  177.5570  142.6350 C   0  0  2  0  0  3  0  0  0  0  0  0
  186.0780  176.2960  142.4890 F   0  0  0  0  0  0  0  0  0  0  0  0
  185.9740  179.7970  143.1680 F   0  0  0  0  0  0  0  0  0  0  0  0
  184.9240  178.7640  141.4490 F   0  0  0  0  0  0  0  0  0  0  0  0
  185.5030  178.5870  142.6950 C   0  0  0  0  0  3  0  0  0  0  0  0
  1 10  1  0  0  0  0
  1 26  1  1  0  0  0
  2 17  1  0  0  0  0
  3 28  1  6  0  0  0
  3 31  1  0  0  0  0
  4 28  1  0  0  0  0
  5  2  2  0  0  0  0
  6 15  2  0  0  0  0
  7 30  2  0  0  0  0
  8  4  1  0  0  0  0
  9 27  1  6  0  0  0
  9 16  1  0  0  0  0
 11 32  1  0  0  0  0
 11 24  1  0  0  0  0
 12  8  1  0  0  0  0
 12 18  1  0  0  0  0
 13 22  1  0  0  0  0
 13 14  1  0  0  0  0
 14 20  1  0  0  0  0
 14 10  1  0  0  0  0
 16 23  1  0  0  0  0
 17  6  1  0  0  0  0
 19 31  1  0  0  0  0
 21 24  2  0  0  0  0
 22 29  1  0  0  0  0
 23 20  1  0  0  0  0
 24  5  1  0  0  0  0
 27  7  1  0  0  0  0
 29  1  1  0  0  0  0
 29 10  1  0  0  0  0
 29 25  1  0  0  0  0
 31 17  1  0  0  0  0
 31  6  1  0  0  0  0
 32 30  1  0  0  0  0
 32  3  1  0  0  0  0
 33 18  1  0  0  0  0
 33  1  1  0  0  0  0
 34 41  2  0  0  0  0
 35 36  1  0  0  0  0
 36 37  1  0  0  0  0
 36  9  1  0  0  0  0
 38 35  1  0  0  0  0
 39 37  1  0  0  0  0
 40 41  1  0  0  0  0
 40 38  1  0  0  0  0
 41 39  1  0  0  0  0
 42 38  1  0  0  0  0
 43 11  1  0  0  0  0
 44 43  1  0  0  0  0
 45 44  1  0  0  0  0
 45 46  1  0  0  0  0
 46 50  1  0  0  0  0
 47 46  1  0  0  0  0
 49 50  1  0  0  0  0
 50 48  1  0  0  0  0
M  END
>  <MODEL>
1

>  <REMARK>
 VINA RESULT:      -7.8      0.000      0.000
  Name = 
  6 active torsions:
  status: ('A' for Active; 'I' for Inactive)
    1  A    between atoms: C_10  and  C_13
    2  A    between atoms: C_10  and  N_16
    3  A    between atoms: C_13  and  C_18
    4  A    between atoms: C_14  and  C_21
    5  A    between atoms: C_17  and  C_18
    6  A    between atoms: C_17  and  C_37
                            x       y       z     vdW  Elec       q    Type
                         _______ _______ _______ _____ _____    ______ ____

>  <TORSDO>
F 6

$$$$
=
 OpenBabel11062419173D

 50 55  0  0  1  0  0  0  0  0999 V2000
  192.7080  172.1570  138.2400 C   0  0  2  0  0  0  0  0  0  0  0  0
  188.8090  177.1390  145.2790 C   0  0  0  0  0  3  0  0  0  0  0  0
  191.0550  175.6120  143.0790 C   0  0  2  0  0  3  0  0  0  0  0  0
  193.1550  176.0980  142.3030 C   0  0  0  0  0  2  0  0  0  0  0  0
  189.1300  176.3190  146.2890 C   0  0  0  0  0  3  0  0  0  0  0  0
  189.4160  177.7340  142.7940 C   0  0  0  0  0  0  0  0  0  0  0  0
  191.8640  172.2850  144.6300 C   0  0  0  0  0  3  0  0  0  0  0  0
  194.1270  175.8830  141.1530 C   0  0  0  0  0  2  0  0  0  0  0  0
  192.3890  170.5040  142.9990 C   0  0  1  0  0  3  0  0  0  0  0  0
  191.9640  170.8460  138.4810 C   0  0  2  0  0  3  0  0  0  0  0  0
  191.2250  175.0810  145.5710 N   0  0  0  0  0  0  0  0  0  0  0  0
  194.3710  174.4050  140.8810 C   0  0  0  0  0  2  0  0  0  0  0  0
  193.6580  169.1560  138.9190 C   0  0  0  0  0  2  0  0  0  0  0  0
  192.5680  169.9750  139.5740 C   0  0  2  0  0  3  0  0  0  0  0  0
  189.0620  178.5570  141.9670 O   0  0  0  0  0  0  0  0  0  0  0  0
  191.9540  169.2730  142.4940 O   0  0  0  0  0  0  0  0  0  0  0  0
  189.1240  176.7050  143.8860 C   0  0  1  0  0  3  0  0  0  0  0  0
  193.2590  173.8350  140.0210 C   0  0  0  0  0  2  0  0  0  0  0  0
  191.3850  177.8810  144.3830 C   0  0  0  0  0  1  0  0  0  0  0  0
  191.5140  169.0540  140.1570 C   0  0  0  0  0  2  0  0  0  0  0  0
  189.3510  173.9610  146.4060 O   0  0  0  0  0  0  0  0  0  0  0  0
  194.1810  170.0130  137.7900 C   0  0  0  0  0  2  0  0  0  0  0  0
  191.0320  169.5900  141.4920 C   0  0  0  0  0  2  0  0  0  0  0  0
  189.8760  175.0560  146.0760 C   0  0  0  0  0  0  0  0  0  0  0  0
  192.4320  170.7890  136.0110 C   0  0  0  0  0  1  0  0  0  0  0  0
  191.9660  173.1260  137.5570 O   0  0  0  0  0  1  0  0  0  0  0  0
  191.6320  170.8520  144.2780 C   0  0  0  0  0  2  0  0  0  0  0  0
  191.8640  175.6990  141.9260 O   0  0  0  0  0  0  0  0  0  0  0  0
  193.0390  170.9350  137.3960 C   0  0  2  0  0  0  0  0  0  0  0  0
  191.3010  173.2540  143.9110 C   0  0  0  0  0  3  0  0  0  0  0  0
  190.4990  176.9510  143.5500 C   0  0  1  0  0  0  0  0  0  0  0  0
  191.6010  174.6870  144.2010 C   0  0  1  0  0  3  0  0  0  0  0  0
  193.7720  172.6460  139.2280 C   0  0  0  0  0  2  0  0  0  0  0  0
  197.9410  169.8530  141.9690 O   0  0  0  0  0  0  0  0  0  0  0  0
  194.2710  169.2730  143.8840 O   0  0  0  0  0  0  0  0  0  0  0  0
  193.8960  170.4810  143.2610 C   0  0  1  0  0  3  0  0  0  0  0  0
  194.6660  170.7040  141.9710 C   0  0  0  0  0  2  0  0  0  0  0  0
  195.4460  169.4600  144.6540 C   0  0  1  0  0  3  0  0  0  0  0  0
  196.0620  171.2060  142.2900 C   0  0  0  0  0  2  0  0  0  0  0  0
  196.7340  169.1970  143.8690 C   0  0  0  0  0  2  0  0  0  0  0  0
  196.9680  170.0740  142.6670 C   0  0  0  0  0  0  0  0  0  0  0  0
  195.4890  170.7090  145.5380 C   0  0  0  0  0  1  0  0  0  0  0  0
  192.2910  175.5410  146.4510 C   0  0  0  0  0  2  0  0  0  0  0  0
  193.5240  174.6640  146.3080 C   0  0  0  0  0  2  0  0  0  0  0  0
  194.7350  175.5090  145.9510 C   0  0  0  0  0  2  0  0  0  0  0  0
  195.5370  174.8550  144.8350 C   0  0  2  0  0  3  0  0  0  0  0  0
  194.8000  173.8180  144.2970 F   0  0  0  0  0  0  0  0  0  0  0  0
  196.7670  173.8450  146.6220 F   0  0  0  0  0  0  0  0  0  0  0  0
  197.3420  173.3090  144.4990 F   0  0  0  0  0  0  0  0  0  0  0  0
  196.8760  174.3160  145.3280 C   0  0  0  0  0  3  0  0  0  0  0  0
  1 26  1  6  0  0  0
  1 10  1  0  0  0  0
  1 33  1  0  0  0  0
  2  5  2  0  0  0  0
  3 28  1  6  0  0  0
  3 31  1  0  0  0  0
  3 32  1  0  0  0  0
  6 31  1  0  0  0  0
  6 17  1  0  0  0  0
  8  4  1  0  0  0  0
  9 36  1  0  0  0  0
  9 27  1  1  0  0  0
 10 14  1  0  0  0  0
 11 24  1  0  0  0  0
 11 43  1  0  0  0  0
 12  8  1  0  0  0  0
 13 14  1  0  0  0  0
 14 20  1  0  0  0  0
 15  6  2  0  0  0  0
 16  9  1  0  0  0  0
 17  2  1  0  0  0  0
 18 12  1  0  0  0  0
 20 23  1  0  0  0  0
 22 13  1  0  0  0  0
 23 16  1  0  0  0  0
 24  5  1  0  0  0  0
 24 21  2  0  0  0  0
 25 29  1  0  0  0  0
 27  7  1  0  0  0  0
 28  4  1  0  0  0  0
 29 22  1  0  0  0  0
 29  1  1  0  0  0  0
 29 10  1  0  0  0  0
 30 32  1  0  0  0  0
 30  7  2  0  0  0  0
 31 17  1  0  0  0  0
 31 19  1  0  0  0  0
 32 11  1  0  0  0  0
 33 18  1  0  0  0  0
 34 41  2  0  0  0  0
 35 38  1  0  0  0  0
 36 35  1  0  0  0  0
 37 39  1  0  0  0  0
 37 36  1  0  0  0  0
 38 42  1  0  0  0  0
 39 41  1  0  0  0  0
 40 38  1  0  0  0  0
 41 40  1  0  0  0  0
 44 43  1  0  0  0  0
 45 44  1  0  0  0  0
 46 50  1  0  0  0  0
 46 45  1  0  0  0  0
 47 46  1  0  0  0  0
 49 50  1  0  0  0  0
 50 48  1  0  0  0  0
M  END
>  <MODEL>
2

>  <REMARK>
 VINA RESULT:      -7.7      3.540      6.815
  Name = 
  6 active torsions:
  status: ('A' for Active; 'I' for Inactive)
    1  A    between atoms: C_10  and  C_13
    2  A    between atoms: C_10  and  N_16
    3  A    between atoms: C_13  and  C_18
    4  A    between atoms: C_14  and  C_21
    5  A    between atoms: C_17  and  C_18
    6  A    between atoms: C_17  and  C_37
                            x       y       z     vdW  Elec       q    Type
                         _______ _______ _______ _____ _____    ______ ____

>  <TORSDO>
F 6

$$$$
=
 OpenBabel11062419173D

 50 55  0  0  1  0  0  0  0  0999 V2000
  187.6710  175.9960  141.1200 C   0  0  2  0  0  0  0  0  0  0  0  0
  196.3570  173.3510  138.4470 C   0  0  0  0  0  3  0  0  0  0  0  0
  193.2270  173.5580  139.9880 C   0  0  2  0  0  3  0  0  0  0  0  0
  191.7430  172.0460  140.8640 C   0  0  0  0  0  2  0  0  0  0  0  0
  197.0100  173.6940  139.5660 C   0  0  0  0  0  3  0  0  0  0  0  0
  193.9620  172.8390  137.4960 C   0  0  0  0  0  0  0  0  0  0  0  0
  193.7860  175.5640  143.1170 C   0  0  0  0  0  3  0  0  0  0  0  0
  190.2780  171.8030  141.1920 C   0  0  0  0  0  2  0  0  0  0  0  0
  191.8330  176.9000  143.8310 C   0  0  1  0  0  3  0  0  0  0  0  0
  187.9940  177.4520  141.4510 C   0  0  2  0  0  3  0  0  0  0  0  0
  195.3180  173.5660  141.4530 N   0  0  0  0  0  0  0  0  0  0  0  0
  189.7090  172.8850  142.1000 C   0  0  0  0  0  2  0  0  0  0  0  0
  187.4390  177.7710  143.7970 C   0  0  0  0  0  2  0  0  0  0  0  0
  188.5980  177.6610  142.8330 C   0  0  2  0  0  3  0  0  0  0  0  0
  193.4880  172.4900  136.4290 O   0  0  0  0  0  0  0  0  0  0  0  0
  191.3710  178.2070  144.0220 O   0  0  0  0  0  0  0  0  0  0  0  0
  194.9080  173.6960  138.3370 C   0  0  1  0  0  3  0  0  0  0  0  0
  189.3030  174.0990  141.2860 C   0  0  0  0  0  2  0  0  0  0  0  0
  194.6090  171.3740  139.4600 C   0  0  0  0  0  1  0  0  0  0  0  0
  189.4140  178.9390  142.8630 C   0  0  0  0  0  2  0  0  0  0  0  0
  196.6660  175.4470  141.1250 O   0  0  0  0  0  0  0  0  0  0  0  0
  186.3390  176.9220  143.2030 C   0  0  0  0  0  2  0  0  0  0  0  0
  190.8940  178.6160  142.7720 C   0  0  0  0  0  2  0  0  0  0  0  0
  196.3210  174.3040  140.7280 C   0  0  0  0  0  0  0  0  0  0  0  0
  185.5720  177.5420  140.7830 C   0  0  0  0  0  1  0  0  0  0  0  0
  187.5080  175.7360  139.7560 O   0  0  0  0  0  1  0  0  0  0  0  0
  193.3470  176.8960  143.6320 C   0  0  0  0  0  2  0  0  0  0  0  0
  191.8710  173.1660  140.0270 O   0  0  0  0  0  0  0  0  0  0  0  0
  186.5910  176.8950  141.7040 C   0  0  2  0  0  0  0  0  0  0  0  0
  193.5160  175.2030  141.8640 C   0  0  0  0  0  3  0  0  0  0  0  0
  194.0810  172.7430  139.0240 C   0  0  1  0  0  0  0  0  0  0  0  0
  193.8720  173.8400  141.3720 C   0  0  1  0  0  3  0  0  0  0  0  0
  188.1990  174.8590  142.0000 C   0  0  0  0  0  2  0  0  0  0  0  0
  188.5890  174.5410  147.8580 O   0  0  0  0  0  0  0  0  0  0  0  0
  191.8360  176.6100  146.2300 O   0  0  0  0  0  0  0  0  0  0  0  0
  191.4490  176.0100  145.0140 C   0  0  1  0  0  3  0  0  0  0  0  0
  189.9610  175.7050  144.9930 C   0  0  0  0  0  2  0  0  0  0  0  0
  192.0560  175.6200  147.2200 C   0  0  1  0  0  3  0  0  0  0  0  0
  189.6860  174.4480  145.7960 C   0  0  0  0  0  2  0  0  0  0  0  0
  190.8030  175.2910  148.0370 C   0  0  0  0  0  2  0  0  0  0  0  0
  189.6320  174.7480  147.2630 C   0  0  0  0  0  0  0  0  0  0  0  0
  192.8690  174.3970  146.7900 C   0  0  0  0  0  1  0  0  0  0  0  0
  195.7450  172.4650  142.3050 C   0  0  0  0  0  2  0  0  0  0  0  0
  194.6860  172.1510  143.3500 C   0  0  0  0  0  2  0  0  0  0  0  0
  195.3160  172.0530  144.7290 C   0  0  0  0  0  2  0  0  0  0  0  0
  196.7580  172.5370  144.6980 C   0  0  2  0  0  3  0  0  0  0  0  0
  197.5840  171.5200  145.1390 F   0  0  0  0  0  0  0  0  0  0  0  0
  195.8850  174.6200  145.4880 F   0  0  0  0  0  0  0  0  0  0  0  0
  197.1900  173.4130  146.8900 F   0  0  0  0  0  0  0  0  0  0  0  0
  196.9710  173.7700  145.5700 C   0  0  0  0  0  3  0  0  0  0  0  0
  1 26  1  6  0  0  0
  1 10  1  0  0  0  0
  1 29  1  0  0  0  0
  1 33  1  0  0  0  0
  2  5  2  0  0  0  0
  3 28  1  1  0  0  0
  3 32  1  0  0  0  0
  4  8  1  0  0  0  0
  5 24  1  0  0  0  0
  6 17  1  0  0  0  0
  6 31  1  0  0  0  0
  7 27  1  0  0  0  0
  8 12  1  0  0  0  0
  9 27  1  1  0  0  0
  9 16  1  0  0  0  0
  9 36  1  0  0  0  0
 10 29  1  0  0  0  0
 10 14  1  0  0  0  0
 11 43  1  0  0  0  0
 14 20  1  0  0  0  0
 14 13  1  0  0  0  0
 15  6  2  0  0  0  0
 17  2  1  0  0  0  0
 17 31  1  0  0  0  0
 18 33  1  0  0  0  0
 18 12  1  0  0  0  0
 22 13  1  0  0  0  0
 23 20  1  0  0  0  0
 23 16  1  0  0  0  0
 24 21  2  0  0  0  0
 24 11  1  0  0  0  0
 25 29  1  0  0  0  0
 28  4  1  0  0  0  0
 29 22  1  0  0  0  0
 30  7  2  0  0  0  0
 31 19  1  0  0  0  0
 31  3  1  0  0  0  0
 32 11  1  0  0  0  0
 32 30  1  0  0  0  0
 35 38  1  0  0  0  0
 36 35  1  0  0  0  0
 37 36  1  0  0  0  0
 37 39  1  0  0  0  0
 38 40  1  0  0  0  0
 39 41  1  0  0  0  0
 41 34  2  0  0  0  0
 41 40  1  0  0  0  0
 42 38  1  0  0  0  0
 43 44  1  0  0  0  0
 44 45  1  0  0  0  0
 46 45  1  0  0  0  0
 46 47  1  0  0  0  0
 46 50  1  0  0  0  0
 48 50  1  0  0  0  0
 50 49  1  0  0  0  0
M  END
>  <MODEL>
3

>  <REMARK>
 VINA RESULT:      -7.7      3.603      9.267
  Name = 
  6 active torsions:
  status: ('A' for Active; 'I' for Inactive)
    1  A    between atoms: C_10  and  C_13
    2  A    between atoms: C_10  and  N_16
    3  A    between atoms: C_13  and  C_18
    4  A    between atoms: C_14  and  C_21
    5  A    between atoms: C_17  and  C_18
    6  A    between atoms: C_17  and  C_37
                            x       y       z     vdW  Elec       q    Type
                         _______ _______ _______ _____ _____    ______ ____

>  <TORSDO>
F 6

$$$$
=
 OpenBabel11062419173D

 50 55  0  0  1  0  0  0  0  0999 V2000
  191.2440  175.7640  143.9270 C   0  0  2  0  0  0  0  0  0  0  0  0
  195.5250  175.7520  135.4860 C   0  0  0  0  0  3  0  0  0  0  0  0
  193.9880  174.8130  138.4820 C   0  0  2  0  0  3  0  0  0  0  0  0
  192.7110  173.0380  139.1670 C   0  0  0  0  0  2  0  0  0  0  0  0
  196.7300  175.3260  135.8880 C   0  0  0  0  0  3  0  0  0  0  0  0
  193.0030  175.8780  136.2090 C   0  0  0  0  0  0  0  0  0  0  0  0
  196.7920  174.3800  140.9480 C   0  0  0  0  0  3  0  0  0  0  0  0
  191.6590  172.5880  140.1690 C   0  0  0  0  0  2  0  0  0  0  0  0
  196.1730  174.8810  143.2880 C   0  0  1  0  0  3  0  0  0  0  0  0
  192.2240  176.6850  144.6520 C   0  0  2  0  0  3  0  0  0  0  0  0
  196.3450  173.9610  137.9920 N   0  0  0  0  0  0  0  0  0  0  0  0
  192.1040  172.8210  141.6070 C   0  0  0  0  0  2  0  0  0  0  0  0
  193.1200  175.4130  146.5220 C   0  0  0  0  0  2  0  0  0  0  0  0
  193.4750  175.9860  145.1680 C   0  0  2  0  0  3  0  0  0  0  0  0
  191.9580  176.2720  135.7190 O   0  0  0  0  0  0  0  0  0  0  0  0
  196.4220  175.7480  144.3590 O   0  0  0  0  0  0  0  0  0  0  0  0
  194.4900  176.0350  136.5250 C   0  0  1  0  0  3  0  0  0  0  0  0
  191.8470  174.2590  142.0140 C   0  0  0  0  0  2  0  0  0  0  0  0
  193.9350  173.5210  136.1830 C   0  0  0  0  0  1  0  0  0  0  0  0
  194.6110  176.9790  145.3140 C   0  0  0  0  0  2  0  0  0  0  0  0
  197.9410  175.6660  137.8980 O   0  0  0  0  0  0  0  0  0  0  0  0
  191.6430  175.1000  146.4510 C   0  0  0  0  0  2  0  0  0  0  0  0
  195.5770  176.8430  144.1510 C   0  0  0  0  0  2  0  0  0  0  0  0
  197.0300  175.0280  137.3090 C   0  0  0  0  0  0  0  0  0  0  0  0
  190.0590  177.0920  145.8620 C   0  0  0  0  0  1  0  0  0  0  0  0
  190.3220  176.4280  143.1130 O   0  0  0  0  0  1  0  0  0  0  0  0
  197.2320  175.0600  142.2030 C   0  0  0  0  0  2  0  0  0  0  0  0
  192.8160  174.4380  139.1720 O   0  0  0  0  0  0  0  0  0  0  0  0
  191.0610  176.0440  145.4110 C   0  0  2  0  0  0  0  0  0  0  0  0
  195.8050  174.8930  140.2150 C   0  0  0  0  0  3  0  0  0  0  0  0
  193.8360  174.8330  136.9650 C   0  0  1  0  0  0  0  0  0  0  0  0
  195.2990  174.1700  139.0100 C   0  0  1  0  0  3  0  0  0  0  0  0
  191.6590  174.3470  143.5190 C   0  0  0  0  0  2  0  0  0  0  0  0
  194.6180  170.3290  146.3150 O   0  0  0  0  0  0  0  0  0  0  0  0
  197.1940  173.1760  144.6620 O   0  0  0  0  0  0  0  0  0  0  0  0
  196.1380  173.4280  143.7630 C   0  0  1  0  0  3  0  0  0  0  0  0
  194.7900  173.1000  144.3820 C   0  0  0  0  0  2  0  0  0  0  0  0
  197.5480  171.8040  144.6340 C   0  0  1  0  0  3  0  0  0  0  0  0
  194.5660  171.6000  144.3540 C   0  0  0  0  0  2  0  0  0  0  0  0
  196.7770  170.9570  145.6500 C   0  0  0  0  0  2  0  0  0  0  0  0
  195.2800  170.9290  145.4870 C   0  0  0  0  0  0  0  0  0  0  0  0
  197.6830  171.1640  143.2500 C   0  0  0  0  0  1  0  0  0  0  0  0
  196.6810  172.5860  137.6510 C   0  0  0  0  0  2  0  0  0  0  0  0
  195.8690  171.6100  138.4860 C   0  0  0  0  0  2  0  0  0  0  0  0
  196.7730  170.8510  139.4430 C   0  0  0  0  0  2  0  0  0  0  0  0
  196.0330  169.6750  140.0640 C   0  0  2  0  0  3  0  0  0  0  0  0
  195.5380  168.8700  139.0570 F   0  0  0  0  0  0  0  0  0  0  0  0
  195.0060  171.4640  141.2760 F   0  0  0  0  0  0  0  0  0  0  0  0
  193.6600  169.9000  140.3450 F   0  0  0  0  0  0  0  0  0  0  0  0
  194.8820  170.1250  140.9580 C   0  0  0  0  0  3  0  0  0  0  0  0
  1 26  1  6  0  0  0
  1 10  1  0  0  0  0
  1 29  1  0  0  0  0
  2  5  2  0  0  0  0
  2 17  1  0  0  0  0
  3 32  1  0  0  0  0
  3 28  1  1  0  0  0
  4 28  1  0  0  0  0
  4  8  1  0  0  0  0
  5 24  1  0  0  0  0
  6 17  1  0  0  0  0
  6 31  1  0  0  0  0
  7 27  1  0  0  0  0
  8 12  1  0  0  0  0
  9 27  1  6  0  0  0
  9 36  1  0  0  0  0
  9 16  1  0  0  0  0
 10 14  1  0  0  0  0
 10 29  1  0  0  0  0
 11 32  1  0  0  0  0
 12 18  1  0  0  0  0
 14 20  1  0  0  0  0
 14 13  1  0  0  0  0
 15  6  2  0  0  0  0
 17 31  1  0  0  0  0
 18 33  1  0  0  0  0
 19 31  1  0  0  0  0
 22 13  1  0  0  0  0
 23 16  1  0  0  0  0
 23 20  1  0  0  0  0
 24 21  2  0  0  0  0
 24 11  1  0  0  0  0
 29 25  1  0  0  0  0
 29 22  1  0  0  0  0
 30  7  2  0  0  0  0
 31  3  1  0  0  0  0
 32 30  1  0  0  0  0
 33  1  1  0  0  0  0
 36 37  1  0  0  0  0
 36 35  1  0  0  0  0
 38 35  1  0  0  0  0
 38 40  1  0  0  0  0
 39 37  1  0  0  0  0
 39 41  1  0  0  0  0
 41 40  1  0  0  0  0
 41 34  2  0  0  0  0
 42 38  1  0  0  0  0
 43 11  1  0  0  0  0
 43 44  1  0  0  0  0
 44 45  1  0  0  0  0
 45 46  1  0  0  0  0
 46 50  1  0  0  0  0
 47 46  1  0  0  0  0
 49 50  1  0  0  0  0
 50 48  1  0  0  0  0
M  END
>  <MODEL>
4

>  <REMARK>
 VINA RESULT:      -7.6      3.893      8.256
  Name = 
  6 active torsions:
  status: ('A' for Active; 'I' for Inactive)
    1  A    between atoms: C_10  and  C_13
    2  A    between atoms: C_10  and  N_16
    3  A    between atoms: C_13  and  C_18
    4  A    between atoms: C_14  and  C_21
    5  A    between atoms: C_17  and  C_18
    6  A    between atoms: C_17  and  C_37
                            x       y       z     vdW  Elec       q    Type
                         _______ _______ _______ _____ _____    ______ ____

>  <TORSDO>
F 6

$$$$
=
 OpenBabel11062419173D

 50 55  0  0  1  0  0  0  0  0999 V2000
  187.8160  176.4430  142.4780 C   0  0  2  0  0  0  0  0  0  0  0  0
  192.9160  173.9030  134.9200 C   0  0  0  0  0  3  0  0  0  0  0  0
  191.0560  173.9040  137.8790 C   0  0  2  0  0  3  0  0  0  0  0  0
  189.6550  172.4180  138.9190 C   0  0  0  0  0  2  0  0  0  0  0  0
  194.0600  173.6120  135.5550 C   0  0  0  0  0  3  0  0  0  0  0  0
  190.3400  174.2470  135.3020 C   0  0  0  0  0  0  0  0  0  0  0  0
  193.5820  174.2150  140.6450 C   0  0  0  0  0  3  0  0  0  0  0  0
  188.4940  172.2910  139.8920 C   0  0  0  0  0  2  0  0  0  0  0  0
  192.7500  175.3920  142.6530 C   0  0  1  0  0  3  0  0  0  0  0  0
  188.7500  177.5340  142.9970 C   0  0  2  0  0  3  0  0  0  0  0  0
  193.4180  172.9370  137.9160 N   0  0  0  0  0  0  0  0  0  0  0  0
  188.8000  172.9390  141.2350 C   0  0  0  0  0  2  0  0  0  0  0  0
  189.4090  176.8730  145.2430 C   0  0  0  0  0  2  0  0  0  0  0  0
  189.9170  177.0160  143.8260 C   0  0  2  0  0  3  0  0  0  0  0  0
  189.3650  174.4820  134.6100 O   0  0  0  0  0  0  0  0  0  0  0  0
  192.9210  176.5380  143.4400 O   0  0  0  0  0  0  0  0  0  0  0  0
  191.7930  174.4860  135.7130 C   0  0  1  0  0  3  0  0  0  0  0  0
  188.5540  174.4340  141.1700 C   0  0  0  0  0  2  0  0  0  0  0  0
  191.1880  171.9860  136.0730 C   0  0  0  0  0  1  0  0  0  0  0  0
  191.0670  178.0030  143.7910 C   0  0  0  0  0  2  0  0  0  0  0  0
  195.0750  174.5310  137.4910 O   0  0  0  0  0  0  0  0  0  0  0  0
  187.9360  176.5580  145.1120 C   0  0  0  0  0  2  0  0  0  0  0  0
  192.1390  177.5240  142.8300 C   0  0  0  0  0  2  0  0  0  0  0  0
  194.2060  173.7490  137.0240 C   0  0  0  0  0  0  0  0  0  0  0  0
  186.4890  178.2900  143.7960 C   0  0  0  0  0  1  0  0  0  0  0  0
  187.0030  176.8380  141.4110 O   0  0  0  0  0  1  0  0  0  0  0  0
  193.9180  175.2360  141.6820 C   0  0  0  0  0  2  0  0  0  0  0  0
  189.8080  173.7550  138.5210 O   0  0  0  0  0  0  0  0  0  0  0  0
  187.4950  177.1520  143.7840 C   0  0  2  0  0  0  0  0  0  0  0  0
  192.6920  174.4900  139.6930 C   0  0  0  0  0  3  0  0  0  0  0  0
  191.0570  173.4720  136.4170 C   0  0  1  0  0  0  0  0  0  0  0  0
  192.2840  173.4430  138.7090 C   0  0  1  0  0  3  0  0  0  0  0  0
  188.2190  174.9670  142.5520 C   0  0  0  0  0  2  0  0  0  0  0  0
  194.2720  170.6540  145.4000 O   0  0  0  0  0  0  0  0  0  0  0  0
  192.0820  173.0740  142.7870 O   0  0  0  0  0  0  0  0  0  0  0  0
  192.6170  174.1470  143.5300 C   0  0  1  0  0  3  0  0  0  0  0  0
  193.9560  173.7820  144.1480 C   0  0  0  0  0  2  0  0  0  0  0  0
  191.4060  172.1690  143.6440 C   0  0  1  0  0  3  0  0  0  0  0  0
  193.7340  172.9290  145.3830 C   0  0  0  0  0  2  0  0  0  0  0  0
  192.3080  171.0560  144.1830 C   0  0  0  0  0  2  0  0  0  0  0  0
  193.4850  171.4990  145.0110 C   0  0  0  0  0  0  0  0  0  0  0  0
  190.4740  172.7890  144.6880 C   0  0  0  0  0  1  0  0  0  0  0  0
  193.7390  171.5210  138.0340 C   0  0  0  0  0  2  0  0  0  0  0  0
  192.8840  170.8630  139.1040 C   0  0  0  0  0  2  0  0  0  0  0  0
  192.3670  169.5200  138.6170 C   0  0  0  0  0  2  0  0  0  0  0  0
  191.3320  168.9590  139.5810 C   0  0  2  0  0  3  0  0  0  0  0  0
  190.0680  169.2280  139.0920 F   0  0  0  0  0  0  0  0  0  0  0  0
  190.2210  169.7770  141.5360 F   0  0  0  0  0  0  0  0  0  0  0  0
  192.2060  168.7220  141.8040 F   0  0  0  0  0  0  0  0  0  0  0  0
  191.4650  169.5530  140.9790 C   0  0  0  0  0  3  0  0  0  0  0  0
  1 26  1  6  0  0  0
  1 33  1  0  0  0  0
  1 10  1  0  0  0  0
  1 29  1  0  0  0  0
  2  5  2  0  0  0  0
  2 17  1  0  0  0  0
  3 28  1  1  0  0  0
  3 32  1  0  0  0  0
  4  8  1  0  0  0  0
  5 24  1  0  0  0  0
  6 17  1  0  0  0  0
  6 31  1  0  0  0  0
  7 27  1  0  0  0  0
  8 12  1  0  0  0  0
  9 27  1  6  0  0  0
  9 16  1  0  0  0  0
  9 36  1  0  0  0  0
 10 29  1  0  0  0  0
 10 14  1  0  0  0  0
 11 43  1  0  0  0  0
 11 32  1  0  0  0  0
 14 13  1  0  0  0  0
 15  6  2  0  0  0  0
 17 31  1  0  0  0  0
 18 12  1  0  0  0  0
 18 33  1  0  0  0  0
 19 31  1  0  0  0  0
 20 14  1  0  0  0  0
 22 13  1  0  0  0  0
 23 16  1  0  0  0  0
 23 20  1  0  0  0  0
 24 21  2  0  0  0  0
 24 11  1  0  0  0  0
 28  4  1  0  0  0  0
 29 25  1  0  0  0  0
 29 22  1  0  0  0  0
 30  7  2  0  0  0  0
 31  3  1  0  0  0  0
 32 30  1  0  0  0  0
 35 36  1  0  0  0  0
 35 38  1  0  0  0  0
 36 37  1  0  0  0  0
 37 39  1  0  0  0  0
 38 40  1  0  0  0  0
 38 42  1  0  0  0  0
 40 41  1  0  0  0  0
 41 39  1  0  0  0  0
 41 34  2  0  0  0  0
 43 44  1  0  0  0  0
 45 44  1  0  0  0  0
 45 46  1  0  0  0  0
 46 50  1  0  0  0  0
 47 46  1  0  0  0  0
 50 48  1  0  0  0  0
 50 49  1  0  0  0  0
M  END
>  <MODEL>
5

>  <REMARK>
 VINA RESULT:      -7.5      3.878      8.607
  Name = 
  6 active torsions:
  status: ('A' for Active; 'I' for Inactive)
    1  A    between atoms: C_10  and  C_13
    2  A    between atoms: C_10  and  N_16
    3  A    between atoms: C_13  and  C_18
    4  A    between atoms: C_14  and  C_21
    5  A    between atoms: C_17  and  C_18
    6  A    between atoms: C_17  and  C_37
                            x       y       z     vdW  Elec       q    Type
                         _______ _______ _______ _____ _____    ______ ____

>  <TORSDO>
F 6

$$$$
=
 OpenBabel11062419173D

 50 55  0  0  1  0  0  0  0  0999 V2000
  196.0080  173.9440  143.2150 C   0  0  2  0  0  0  0  0  0  0  0  0
  192.3430  169.3990  135.7660 C   0  0  0  0  0  3  0  0  0  0  0  0
  193.2790  171.8250  138.1010 C   0  0  2  0  0  3  0  0  0  0  0  0
  193.7110  174.0750  138.0230 C   0  0  0  0  0  2  0  0  0  0  0  0
  191.0560  169.4330  136.1400 C   0  0  0  0  0  3  0  0  0  0  0  0
  194.6780  170.5190  136.2020 C   0  0  0  0  0  0  0  0  0  0  0  0
  190.4670  171.9520  140.5910 C   0  0  0  0  0  3  0  0  0  0  0  0
  194.4610  175.2120  138.7000 C   0  0  0  0  0  2  0  0  0  0  0  0
  191.1640  172.5650  142.8820 C   0  0  1  0  0  3  0  0  0  0  0  0
  195.4620  173.0250  144.3040 C   0  0  2  0  0  3  0  0  0  0  0  0
  190.7950  171.4710  137.6290 N   0  0  0  0  0  0  0  0  0  0  0  0
  194.1050  175.3330  140.1750 C   0  0  0  0  0  2  0  0  0  0  0  0
  194.0740  174.4050  145.7470 C   0  0  0  0  0  2  0  0  0  0  0  0
  194.0210  173.3130  144.7030 C   0  0  2  0  0  3  0  0  0  0  0  0
  195.8070  170.4190  135.7530 O   0  0  0  0  0  0  0  0  0  0  0  0
  191.2540  172.0940  144.1970 O   0  0  0  0  0  0  0  0  0  0  0  0
  193.3710  169.9150  136.7170 C   0  0  1  0  0  3  0  0  0  0  0  0
  194.9070  174.3420  140.9970 C   0  0  0  0  0  2  0  0  0  0  0  0
  192.8760  172.1640  135.5160 C   0  0  0  0  0  1  0  0  0  0  0  0
  193.3780  172.0720  145.2900 C   0  0  0  0  0  2  0  0  0  0  0  0
  190.0260  169.3600  138.2750 O   0  0  0  0  0  0  0  0  0  0  0  0
  195.3000  175.2230  145.4130 C   0  0  0  0  0  2  0  0  0  0  0  0
  192.4750  171.4150  144.2630 C   0  0  0  0  0  2  0  0  0  0  0  0
  190.6190  170.0580  137.4110 C   0  0  0  0  0  0  0  0  0  0  0  0
  197.5700  173.9320  145.3300 C   0  0  0  0  0  1  0  0  0  0  0  0
  197.1440  173.4550  142.5620 O   0  0  0  0  0  1  0  0  0  0  0  0
  190.3000  171.6290  142.0400 C   0  0  0  0  0  2  0  0  0  0  0  0
  194.1800  172.8380  138.4950 O   0  0  0  0  0  0  0  0  0  0  0  0
  196.2440  174.2850  144.6780 C   0  0  2  0  0  0  0  0  0  0  0  0
  191.5980  171.6460  139.9580 C   0  0  0  0  0  3  0  0  0  0  0  0
  193.4720  171.3480  136.6660 C   0  0  1  0  0  0  0  0  0  0  0  0
  191.8050  172.0470  138.5350 C   0  0  1  0  0  3  0  0  0  0  0  0
  195.0700  174.8550  142.4170 C   0  0  0  0  0  2  0  0  0  0  0  0
  190.5040  178.0430  144.2500 O   0  0  0  0  0  0  0  0  0  0  0  0
  189.4100  174.0590  143.6100 O   0  0  0  0  0  0  0  0  0  0  0  0
  190.5960  173.9850  142.8510 C   0  0  1  0  0  3  0  0  0  0  0  0
  191.6300  174.9850  143.3370 C   0  0  0  0  0  2  0  0  0  0  0  0
  188.5810  175.1040  143.1280 C   0  0  1  0  0  3  0  0  0  0  0  0
  191.2870  176.3690  142.8180 C   0  0  0  0  0  2  0  0  0  0  0  0
  188.8410  176.4480  143.8140 C   0  0  0  0  0  2  0  0  0  0  0  0
  190.2280  177.0120  143.6610 C   0  0  0  0  0  0  0  0  0  0  0  0
  188.4090  175.1910  141.6100 C   0  0  0  0  0  1  0  0  0  0  0  0
  189.9430  172.4000  136.9000 C   0  0  0  0  0  2  0  0  0  0  0  0
  189.9640  173.7740  137.5490 C   0  0  0  0  0  2  0  0  0  0  0  0
  188.5610  174.1880  137.9590 C   0  0  0  0  0  2  0  0  0  0  0  0
  187.8580  174.9110  136.8200 C   0  0  2  0  0  3  0  0  0  0  0  0
  188.8060  175.5040  136.0080 F   0  0  0  0  0  0  0  0  0  0  0  0
  187.0580  176.1860  138.6800 F   0  0  0  0  0  0  0  0  0  0  0  0
  187.0670  177.1700  136.6410 F   0  0  0  0  0  0  0  0  0  0  0  0
  186.8920  175.9780  137.3240 C   0  0  0  0  0  3  0  0  0  0  0  0
  1 26  1  6  0  0  0
  1 10  1  0  0  0  0
  1 29  1  0  0  0  0
  2  5  2  0  0  0  0
  2 17  1  0  0  0  0
  3 28  1  6  0  0  0
  3 32  1  0  0  0  0
  4 28  1  0  0  0  0
  4  8  1  0  0  0  0
  5 24  1  0  0  0  0
  6 31  1  0  0  0  0
  6 17  1  0  0  0  0
  7 27  1  0  0  0  0
  8 12  1  0  0  0  0
  9 27  1  6  0  0  0
  9 16  1  0  0  0  0
 10 29  1  0  0  0  0
 10 14  1  0  0  0  0
 11 32  1  0  0  0  0
 12 18  1  0  0  0  0
 14 20  1  0  0  0  0
 14 13  1  0  0  0  0
 15  6  2  0  0  0  0
 16 23  1  0  0  0  0
 18 33  1  0  0  0  0
 19 31  1  0  0  0  0
 22 13  1  0  0  0  0
 23 20  1  0  0  0  0
 24 11  1  0  0  0  0
 24 21  2  0  0  0  0
 29 25  1  0  0  0  0
 29 22  1  0  0  0  0
 30  7  2  0  0  0  0
 31 17  1  0  0  0  0
 31  3  1  0  0  0  0
 32 30  1  0  0  0  0
 33  1  1  0  0  0  0
 36  9  1  0  0  0  0
 36 37  1  0  0  0  0
 36 35  1  0  0  0  0
 38 35  1  0  0  0  0
 38 40  1  0  0  0  0
 39 37  1  0  0  0  0
 39 41  1  0  0  0  0
 41 40  1  0  0  0  0
 41 34  2  0  0  0  0
 42 38  1  0  0  0  0
 43 44  1  0  0  0  0
 43 11  1  0  0  0  0
 44 45  1  0  0  0  0
 46 50  1  0  0  0  0
 46 45  1  0  0  0  0
 47 46  1  0  0  0  0
 49 50  1  0  0  0  0
 50 48  1  0  0  0  0
M  END
>  <MODEL>
6

>  <REMARK>
 VINA RESULT:      -7.5      3.376      7.669
  Name = 
  6 active torsions:
  status: ('A' for Active; 'I' for Inactive)
    1  A    between atoms: C_10  and  C_13
    2  A    between atoms: C_10  and  N_16
    3  A    between atoms: C_13  and  C_18
    4  A    between atoms: C_14  and  C_21
    5  A    between atoms: C_17  and  C_18
    6  A    between atoms: C_17  and  C_37
                            x       y       z     vdW  Elec       q    Type
                         _______ _______ _______ _____ _____    ______ ____

>  <TORSDO>
F 6

$$$$
=
 OpenBabel11062419173D

 50 55  0  0  1  0  0  0  0  0999 V2000
  190.6580  175.5500  145.0630 C   0  0  2  0  0  0  0  0  0  0  0  0
  190.8810  173.6020  135.8030 C   0  0  0  0  0  3  0  0  0  0  0  0
  190.7590  173.3730  139.2890 C   0  0  2  0  0  3  0  0  0  0  0  0
  189.8530  171.8970  140.7900 C   0  0  0  0  0  2  0  0  0  0  0  0
  192.1300  173.1190  135.7440 C   0  0  0  0  0  3  0  0  0  0  0  0
  188.9210  174.1340  137.4690 C   0  0  0  0  0  0  0  0  0  0  0  0
  194.3390  173.0570  140.3930 C   0  0  0  0  0  3  0  0  0  0  0  0
  189.3240  171.7480  142.2080 C   0  0  0  0  0  2  0  0  0  0  0  0
  194.8030  174.0210  142.6220 C   0  0  1  0  0  3  0  0  0  0  0  0
  191.8790  176.4650  145.1080 C   0  0  2  0  0  3  0  0  0  0  0  0
  192.6510  172.1890  138.0470 N   0  0  0  0  0  0  0  0  0  0  0  0
  190.3510  172.1730  143.2480 C   0  0  0  0  0  2  0  0  0  0  0  0
  193.4570  175.4410  146.6510 C   0  0  0  0  0  2  0  0  0  0  0  0
  193.2100  175.7290  145.1870 C   0  0  2  0  0  3  0  0  0  0  0  0
  187.7790  174.5530  137.3900 O   0  0  0  0  0  0  0  0  0  0  0  0
  195.5130  175.0250  143.2900 O   0  0  0  0  0  0  0  0  0  0  0  0
  190.4040  174.1740  137.0970 C   0  0  1  0  0  3  0  0  0  0  0  0
  190.3350  173.6790  143.4230 C   0  0  0  0  0  2  0  0  0  0  0  0
  189.6850  171.7180  137.5380 C   0  0  0  0  0  1  0  0  0  0  0  0
  194.3260  176.5980  144.6400 C   0  0  0  0  0  2  0  0  0  0  0  0
  194.0980  173.6610  136.9500 O   0  0  0  0  0  0  0  0  0  0  0  0
  192.0860  175.2890  147.2680 C   0  0  0  0  0  2  0  0  0  0  0  0
  194.6920  176.1560  143.2350 C   0  0  0  0  0  2  0  0  0  0  0  0
  193.0040  173.0380  136.9380 C   0  0  0  0  0  0  0  0  0  0  0  0
  190.4590  177.3160  147.0000 C   0  0  0  0  0  1  0  0  0  0  0  0
  189.4930  176.1630  144.5900 O   0  0  0  0  0  1  0  0  0  0  0  0
  195.2960  173.8890  141.1820 C   0  0  0  0  0  2  0  0  0  0  0  0
  189.9890  173.2560  140.4650 O   0  0  0  0  0  0  0  0  0  0  0  0
  191.1390  176.1000  146.3970 C   0  0  2  0  0  0  0  0  0  0  0  0
  193.1470  173.5440  140.0510 C   0  0  0  0  0  3  0  0  0  0  0  0
  189.9700  173.1480  138.0040 C   0  0  1  0  0  0  0  0  0  0  0  0
  192.1520  172.6870  139.3410 C   0  0  1  0  0  3  0  0  0  0  0  0
  190.8150  174.0460  144.8160 C   0  0  0  0  0  2  0  0  0  0  0  0
  194.5610  170.2580  146.8750 O   0  0  0  0  0  0  0  0  0  0  0  0
  196.2660  172.4780  143.7710 O   0  0  0  0  0  0  0  0  0  0  0  0
  194.9350  172.6840  143.3530 C   0  0  1  0  0  3  0  0  0  0  0  0
  193.9690  172.6170  144.5230 C   0  0  0  0  0  2  0  0  0  0  0  0
  196.5400  171.0920  143.8790 C   0  0  1  0  0  3  0  0  0  0  0  0
  193.7150  171.1690  144.8950 C   0  0  0  0  0  2  0  0  0  0  0  0
  196.2500  170.5230  145.2700 C   0  0  0  0  0  2  0  0  0  0  0  0
  194.8250  170.6300  145.7450 C   0  0  0  0  0  0  0  0  0  0  0  0
  196.0590  170.2110  142.7230 C   0  0  0  0  0  1  0  0  0  0  0  0
  192.7690  170.7460  137.8850 C   0  0  0  0  0  2  0  0  0  0  0  0
  192.8280  170.0550  139.2370 C   0  0  0  0  0  2  0  0  0  0  0  0
  191.6920  169.0550  139.3710 C   0  0  0  0  0  2  0  0  0  0  0  0
  191.6690  168.4500  140.7670 C   0  0  2  0  0  3  0  0  0  0  0  0
  190.4470  168.7160  141.3540 F   0  0  0  0  0  0  0  0  0  0  0  0
  192.4670  170.2700  142.1000 F   0  0  0  0  0  0  0  0  0  0  0  0
  193.0170  168.1660  142.7320 F   0  0  0  0  0  0  0  0  0  0  0  0
  192.7820  169.0010  141.6520 C   0  0  0  0  0  3  0  0  0  0  0  0
  1 26  1  6  0  0  0
  1 10  1  0  0  0  0
  1 29  1  0  0  0  0
  2 17  1  0  0  0  0
  3 32  1  0  0  0  0
  3 28  1  1  0  0  0
  4  8  1  0  0  0  0
  5  2  2  0  0  0  0
  5 24  1  0  0  0  0
  6 31  1  0  0  0  0
  7 27  1  0  0  0  0
  8 12  1  0  0  0  0
  9 27  1  6  0  0  0
  9 16  1  0  0  0  0
  9 36  1  0  0  0  0
 10 14  1  0  0  0  0
 10 29  1  0  0  0  0
 11 32  1  0  0  0  0
 12 18  1  0  0  0  0
 13 22  1  0  0  0  0
 14 13  1  0  0  0  0
 15  6  2  0  0  0  0
 17  6  1  0  0  0  0
 17 31  1  0  0  0  0
 18 33  1  0  0  0  0
 19 31  1  0  0  0  0
 20 14  1  0  0  0  0
 23 16  1  0  0  0  0
 23 20  1  0  0  0  0
 24 21  2  0  0  0  0
 24 11  1  0  0  0  0
 28  4  1  0  0  0  0
 29 25  1  0  0  0  0
 29 22  1  0  0  0  0
 30  7  2  0  0  0  0
 31  3  1  0  0  0  0
 32 30  1  0  0  0  0
 33  1  1  0  0  0  0
 35 38  1  0  0  0  0
 36 35  1  0  0  0  0
 36 37  1  0  0  0  0
 37 39  1  0  0  0  0
 38 40  1  0  0  0  0
 39 41  1  0  0  0  0
 40 41  1  0  0  0  0
 41 34  2  0  0  0  0
 42 38  1  0  0  0  0
 43 11  1  0  0  0  0
 43 44  1  0  0  0  0
 44 45  1  0  0  0  0
 45 46  1  0  0  0  0
 46 47  1  0  0  0  0
 46 50  1  0  0  0  0
 50 48  1  0  0  0  0
 50 49  1  0  0  0  0
M  END
>  <MODEL>
7

>  <REMARK>
 VINA RESULT:      -7.4      3.858      7.500
  Name = 
  6 active torsions:
  status: ('A' for Active; 'I' for Inactive)
    1  A    between atoms: C_10  and  C_13
    2  A    between atoms: C_10  and  N_16
    3  A    between atoms: C_13  and  C_18
    4  A    between atoms: C_14  and  C_21
    5  A    between atoms: C_17  and  C_18
    6  A    between atoms: C_17  and  C_37
                            x       y       z     vdW  Elec       q    Type
                         _______ _______ _______ _____ _____    ______ ____

>  <TORSDO>
F 6

$$$$
=
 OpenBabel11062419173D

 50 55  0  0  1  0  0  0  0  0999 V2000
  187.9930  176.1320  141.9890 C   0  0  2  0  0  0  0  0  0  0  0  0
  194.6300  174.3790  135.4730 C   0  0  0  0  0  3  0  0  0  0  0  0
  192.3060  174.1020  138.0690 C   0  0  2  0  0  3  0  0  0  0  0  0
  190.9730  172.4260  138.8850 C   0  0  0  0  0  2  0  0  0  0  0  0
  195.6770  174.2530  136.3010 C   0  0  0  0  0  3  0  0  0  0  0  0
  192.0050  174.3480  135.4010 C   0  0  0  0  0  0  0  0  0  0  0  0
  194.2460  174.7620  141.2200 C   0  0  0  0  0  3  0  0  0  0  0  0
  189.6910  172.1290  139.6470 C   0  0  0  0  0  2  0  0  0  0  0  0
  192.9220  175.8010  143.0310 C   0  0  1  0  0  3  0  0  0  0  0  0
  188.6590  177.3430  142.6380 C   0  0  2  0  0  3  0  0  0  0  0  0
  194.7400  173.4840  138.5310 N   0  0  0  0  0  0  0  0  0  0  0  0
  189.6650  172.8100  141.0090 C   0  0  0  0  0  2  0  0  0  0  0  0
  189.0070  176.7760  144.9770 C   0  0  0  0  0  2  0  0  0  0  0  0
  189.7270  176.9960  143.6660 C   0  0  2  0  0  3  0  0  0  0  0  0
  191.1400  174.4430  134.5470 O   0  0  0  0  0  0  0  0  0  0  0  0
  192.7890  176.9560  143.8100 O   0  0  0  0  0  0  0  0  0  0  0  0
  193.3160  174.7910  136.0500 C   0  0  1  0  0  3  0  0  0  0  0  0
  189.2240  174.2540  140.8710 C   0  0  0  0  0  2  0  0  0  0  0  0
  193.0190  172.2290  136.3530 C   0  0  0  0  0  1  0  0  0  0  0  0
  190.7130  178.1380  143.8080 C   0  0  0  0  0  2  0  0  0  0  0  0
  196.2010  175.3010  138.3630 O   0  0  0  0  0  0  0  0  0  0  0  0
  187.6390  176.2530  144.6030 C   0  0  0  0  0  2  0  0  0  0  0  0
  191.9920  177.8210  143.0540 C   0  0  0  0  0  2  0  0  0  0  0  0
  195.5460  174.4040  137.7700 C   0  0  0  0  0  0  0  0  0  0  0  0
  186.2100  177.7650  143.0220 C   0  0  0  0  0  1  0  0  0  0  0  0
  187.3290  176.4090  140.7910 O   0  0  0  0  0  1  0  0  0  0  0  0
  194.2500  175.8170  142.2770 C   0  0  0  0  0  2  0  0  0  0  0  0
  191.0000  173.7730  138.4900 O   0  0  0  0  0  0  0  0  0  0  0  0
  187.3540  176.7820  143.2060 C   0  0  2  0  0  0  0  0  0  0  0  0
  193.5040  174.9100  140.1240 C   0  0  0  0  0  3  0  0  0  0  0  0
  192.6210  173.6800  136.6380 C   0  0  1  0  0  0  0  0  0  0  0  0
  193.4250  173.8190  139.1070 C   0  0  1  0  0  3  0  0  0  0  0  0
  188.5830  174.7290  142.1630 C   0  0  0  0  0  2  0  0  0  0  0  0
  194.5630  171.1020  145.7770 O   0  0  0  0  0  0  0  0  0  0  0  0
  192.3350  173.4590  143.1400 O   0  0  0  0  0  0  0  0  0  0  0  0
  192.8170  174.5450  143.8980 C   0  0  1  0  0  3  0  0  0  0  0  0
  194.1570  174.2250  144.5380 C   0  0  0  0  0  2  0  0  0  0  0  0
  191.6760  172.5260  143.9790 C   0  0  1  0  0  3  0  0  0  0  0  0
  193.9440  173.3570  145.7630 C   0  0  0  0  0  2  0  0  0  0  0  0
  192.6080  171.4410  144.5280 C   0  0  0  0  0  2  0  0  0  0  0  0
  193.7530  171.9210  145.3790 C   0  0  0  0  0  0  0  0  0  0  0  0
  190.7050  173.1050  145.0100 C   0  0  0  0  0  1  0  0  0  0  0  0
  195.2330  172.1280  138.7330 C   0  0  0  0  0  2  0  0  0  0  0  0
  196.7100  172.1410  139.0930 C   0  0  0  0  0  2  0  0  0  0  0  0
  196.9020  172.6210  140.5220 C   0  0  0  0  0  2  0  0  0  0  0  0
  197.2100  171.4520  141.4460 C   0  0  2  0  0  3  0  0  0  0  0  0
  197.1610  170.2770  140.7200 F   0  0  0  0  0  0  0  0  0  0  0  0
  196.6660  172.1210  143.6780 F   0  0  0  0  0  0  0  0  0  0  0  0
  194.9640  171.7790  142.2250 F   0  0  0  0  0  0  0  0  0  0  0  0
  196.2280  171.3630  142.6100 C   0  0  0  0  0  3  0  0  0  0  0  0
  1 26  1  6  0  0  0
  1 33  1  0  0  0  0
  1 10  1  0  0  0  0
  1 29  1  0  0  0  0
  2 17  1  0  0  0  0
  2  5  2  0  0  0  0
  3 28  1  1  0  0  0
  3 32  1  0  0  0  0
  4  8  1  0  0  0  0
  5 24  1  0  0  0  0
  6 17  1  0  0  0  0
  6 31  1  0  0  0  0
  7 27  1  0  0  0  0
  8 12  1  0  0  0  0
  9 27  1  1  0  0  0
  9 16  1  0  0  0  0
  9 36  1  0  0  0  0
 10 29  1  0  0  0  0
 10 14  1  0  0  0  0
 11 43  1  0  0  0  0
 11 32  1  0  0  0  0
 14 20  1  0  0  0  0
 14 13  1  0  0  0  0
 15  6  2  0  0  0  0
 17 31  1  0  0  0  0
 18 12  1  0  0  0  0
 18 33  1  0  0  0  0
 19 31  1  0  0  0  0
 22 13  1  0  0  0  0
 23 20  1  0  0  0  0
 23 16  1  0  0  0  0
 24 21  2  0  0  0  0
 24 11  1  0  0  0  0
 25 29  1  0  0  0  0
 28  4  1  0  0  0  0
 29 22  1  0  0  0  0
 30  7  2  0  0  0  0
 31  3  1  0  0  0  0
 32 30  1  0  0  0  0
 35 36  1  0  0  0  0
 35 38  1  0  0  0  0
 36 37  1  0  0  0  0
 37 39  1  0  0  0  0
 38 40  1  0  0  0  0
 38 42  1  0  0  0  0
 40 41  1  0  0  0  0
 41 39  1  0  0  0  0
 41 34  2  0  0  0  0
 43 44  1  0  0  0  0
 44 45  1  0  0  0  0
 45 46  1  0  0  0  0
 46 50  1  0  0  0  0
 47 46  1  0  0  0  0
 49 50  1  0  0  0  0
 50 48  1  0  0  0  0
M  END
>  <MODEL>
8

>  <REMARK>
 VINA RESULT:      -7.1      3.873      8.933
  Name = 
  6 active torsions:
  status: ('A' for Active; 'I' for Inactive)
    1  A    between atoms: C_10  and  C_13
    2  A    between atoms: C_10  and  N_16
    3  A    between atoms: C_13  and  C_18
    4  A    between atoms: C_14  and  C_21
    5  A    between atoms: C_17  and  C_18
    6  A    between atoms: C_17  and  C_37
                            x       y       z     vdW  Elec       q    Type
                         _______ _______ _______ _____ _____    ______ ____

>  <TORSDO>
F 6

$$$$
=
 OpenBabel11062419173D

 50 55  0  0  1  0  0  0  0  0999 V2000
  190.5340  175.4070  145.1720 C   0  0  2  0  0  0  0  0  0  0  0  0
  191.0490  173.6880  135.8790 C   0  0  0  0  0  3  0  0  0  0  0  0
  190.9370  173.3750  139.3580 C   0  0  2  0  0  3  0  0  0  0  0  0
  190.2130  171.7690  140.8230 C   0  0  0  0  0  2  0  0  0  0  0  0
  192.3480  173.3640  135.8200 C   0  0  0  0  0  3  0  0  0  0  0  0
  189.0290  173.9380  137.5390 C   0  0  0  0  0  0  0  0  0  0  0  0
  194.5220  173.4840  140.4850 C   0  0  0  0  0  3  0  0  0  0  0  0
  189.6980  171.5270  142.2340 C   0  0  0  0  0  2  0  0  0  0  0  0
  194.8510  174.4520  142.7350 C   0  0  1  0  0  3  0  0  0  0  0  0
  191.6320  176.4650  145.2450 C   0  0  2  0  0  3  0  0  0  0  0  0
  192.9670  172.4600  138.1090 N   0  0  0  0  0  0  0  0  0  0  0  0
  190.6590  172.0540  143.2910 C   0  0  0  0  0  2  0  0  0  0  0  0
  193.3160  175.6140  146.7800 C   0  0  0  0  0  2  0  0  0  0  0  0
  193.0440  175.8980  145.3200 C   0  0  2  0  0  3  0  0  0  0  0  0
  187.8440  174.2150  137.4590 O   0  0  0  0  0  0  0  0  0  0  0  0
  195.4270  175.5240  143.4280 O   0  0  0  0  0  0  0  0  0  0  0  0
  190.4970  174.1700  137.1790 C   0  0  1  0  0  3  0  0  0  0  0  0
  190.4550  173.5440  143.4940 C   0  0  0  0  0  2  0  0  0  0  0  0
  190.0860  171.6350  137.5670 C   0  0  0  0  0  1  0  0  0  0  0  0
  194.0460  176.9100  144.7990 C   0  0  0  0  0  2  0  0  0  0  0  0
  194.2270  174.1220  137.0520 O   0  0  0  0  0  0  0  0  0  0  0  0
  191.9710  175.2810  147.3830 C   0  0  0  0  0  2  0  0  0  0  0  0
  194.4720  176.5450  143.3890 C   0  0  0  0  0  2  0  0  0  0  0  0
  193.2190  173.3680  137.0190 C   0  0  0  0  0  0  0  0  0  0  0  0
  190.1070  177.0950  147.1410 C   0  0  0  0  0  1  0  0  0  0  0  0
  189.3050  175.8800  144.7020 O   0  0  0  0  0  1  0  0  0  0  0  0
  195.3640  174.4120  141.2980 C   0  0  0  0  0  2  0  0  0  0  0  0
  190.1800  173.1400  140.5260 O   0  0  0  0  0  0  0  0  0  0  0  0
  190.9360  175.9850  146.5200 C   0  0  2  0  0  0  0  0  0  0  0  0
  193.2810  173.8260  140.1420 C   0  0  0  0  0  3  0  0  0  0  0  0
  190.1880  173.0800  138.0630 C   0  0  1  0  0  0  0  0  0  0  0  0
  192.4040  172.8660  139.4090 C   0  0  1  0  0  3  0  0  0  0  0  0
  190.8780  173.9390  144.8980 C   0  0  0  0  0  2  0  0  0  0  0  0
  194.5620  170.3710  146.6810 O   0  0  0  0  0  0  0  0  0  0  0  0
  196.3370  173.2190  144.1880 O   0  0  0  0  0  0  0  0  0  0  0  0
  195.1440  173.1280  143.4420 C   0  0  1  0  0  3  0  0  0  0  0  0
  193.9710  172.7180  144.3160 C   0  0  0  0  0  2  0  0  0  0  0  0
  196.9280  171.9390  144.3290 C   0  0  1  0  0  3  0  0  0  0  0  0
  194.0220  171.2240  144.5720 C   0  0  0  0  0  2  0  0  0  0  0  0
  196.4640  171.1910  145.5810 C   0  0  0  0  0  2  0  0  0  0  0  0
  194.9900  170.8990  145.6690 C   0  0  0  0  0  0  0  0  0  0  0  0
  196.9940  171.0770  143.0660 C   0  0  0  0  0  1  0  0  0  0  0  0
  193.2640  171.0460  137.9200 C   0  0  0  0  0  2  0  0  0  0  0  0
  194.5430  170.6630  138.6460 C   0  0  0  0  0  2  0  0  0  0  0  0
  195.7580  171.0520  137.8210 C   0  0  0  0  0  2  0  0  0  0  0  0
  197.0310  170.9270  138.6440 C   0  0  2  0  0  3  0  0  0  0  0  0
  196.7170  170.4110  139.8870 F   0  0  0  0  0  0  0  0  0  0  0  0
  197.0060  173.2850  138.2370 F   0  0  0  0  0  0  0  0  0  0  0  0
  197.9390  172.5490  140.1630 F   0  0  0  0  0  0  0  0  0  0  0  0
  197.7360  172.2680  138.8220 C   0  0  0  0  0  3  0  0  0  0  0  0
  1 26  1  6  0  0  0
  1 10  1  0  0  0  0
  1 29  1  0  0  0  0
  2 17  1  0  0  0  0
  3 32  1  0  0  0  0
  3 28  1  1  0  0  0
  4  8  1  0  0  0  0
  5  2  2  0  0  0  0
  5 24  1  0  0  0  0
  6 31  1  0  0  0  0
  7 27  1  0  0  0  0
  8 12  1  0  0  0  0
  9 27  1  6  0  0  0
  9 16  1  0  0  0  0
  9 36  1  0  0  0  0
 10 14  1  0  0  0  0
 10 29  1  0  0  0  0
 11 32  1  0  0  0  0
 12 18  1  0  0  0  0
 13 22  1  0  0  0  0
 14 13  1  0  0  0  0
 15  6  2  0  0  0  0
 17  6  1  0  0  0  0
 17 31  1  0  0  0  0
 18 33  1  0  0  0  0
 19 31  1  0  0  0  0
 20 14  1  0  0  0  0
 23 16  1  0  0  0  0
 23 20  1  0  0  0  0
 24 21  2  0  0  0  0
 24 11  1  0  0  0  0
 28  4  1  0  0  0  0
 29 25  1  0  0  0  0
 29 22  1  0  0  0  0
 30  7  2  0  0  0  0
 31  3  1  0  0  0  0
 32 30  1  0  0  0  0
 33  1  1  0  0  0  0
 35 38  1  0  0  0  0
 36 35  1  0  0  0  0
 36 37  1  0  0  0  0
 37 39  1  0  0  0  0
 38 40  1  0  0  0  0
 39 41  1  0  0  0  0
 40 41  1  0  0  0  0
 41 34  2  0  0  0  0
 42 38  1  0  0  0  0
 43 11  1  0  0  0  0
 43 44  1  0  0  0  0
 45 46  1  0  0  0  0
 45 44  1  0  0  0  0
 46 50  1  0  0  0  0
 46 47  1  0  0  0  0
 48 50  1  0  0  0  0
 50 49  1  0  0  0  0
M  END
>  <MODEL>
9

>  <REMARK>
 VINA RESULT:      -7.0      4.179      7.880
  Name = 
  6 active torsions:
  status: ('A' for Active; 'I' for Inactive)
    1  A    between atoms: C_10  and  C_13
    2  A    between atoms: C_10  and  N_16
    3  A    between atoms: C_13  and  C_18
    4  A    between atoms: C_14  and  C_21
    5  A    between atoms: C_17  and  C_18
    6  A    between atoms: C_17  and  C_37
                            x       y       z     vdW  Elec       q    Type
                         _______ _______ _______ _____ _____    ______ ____

>  <TORSDO>
F 6

$$$$
