=
 OpenBabel11072409403D

 25 27  0  0  1  0  0  0  0  0999 V2000
  184.7550  178.5050  145.6370 C   0  0  0  0  0  3  0  0  0  0  0  0
  185.5210  178.2730  147.8470 N   0  0  0  0  0  0  0  0  0  0  0  0
  186.9660  177.6480  146.0670 C   0  0  0  0  0  0  0  0  0  0  0  0
  185.5250  178.0650  141.4490 C   0  0  0  0  0  0  0  0  0  0  0  0
  184.3100  178.5030  140.2680 Cl  0  0  0  0  0  0  0  0  0  0  0  0
  187.4780  177.3590  143.3450 C   0  0  0  0  0  0  0  0  0  0  0  0
  185.9690  178.0120  145.1450 C   0  0  0  0  0  0  0  0  0  0  0  0
  186.7580  177.5670  141.0290 C   0  0  0  0  0  3  0  0  0  0  0  0
  185.2590  178.2150  142.8110 C   0  0  0  0  0  3  0  0  0  0  0  0
  187.7280  177.2170  141.9700 C   0  0  0  0  0  3  0  0  0  0  0  0
  188.4480  177.0120  144.3150 C   0  0  0  0  0  0  0  0  0  0  0  0
  186.2250  177.8670  143.7700 C   0  0  0  0  0  0  0  0  0  0  0  0
  186.7190  177.7880  147.4310 C   0  0  0  0  0  3  0  0  0  0  0  0
  188.1580  177.1650  145.6340 N   0  0  0  0  0  0  0  0  0  0  0  0
  184.5690  178.6210  146.9780 N   0  0  0  0  0  0  0  0  0  0  0  0
  189.8010  176.4520  143.9680 C   0  0  2  0  0  3  0  0  0  0  0  0
  189.9280  172.8370  144.5700 O   0  0  0  0  0  0  0  0  0  0  0  0
  190.0220  175.1560  144.6040 N   0  0  0  0  0  2  0  0  0  0  0  0
  189.0840  173.9110  142.6770 N   0  0  0  0  0  2  0  0  0  0  0  0
  189.6880  173.9200  143.9720 C   0  0  0  0  0  0  0  0  0  0  0  0
  188.3360  172.9770  140.5700 C   0  0  0  0  0  1  0  0  0  0  0  0
  188.7310  172.6740  142.0000 C   0  0  0  0  0  2  0  0  0  0  0  0
  191.9960  177.0060  145.0170 O   0  0  0  0  0  1  0  0  0  0  0  0
  190.9040  177.4230  144.2690 C   0  0  0  0  0  0  0  0  0  0  0  0
  190.8680  178.6000  143.8230 O   0  0  0  0  0  0  0  0  0  0  0  0
  1 15  1  0  0  0  0
  3 13  2  0  0  0  0
  4  9  1  0  0  0  0
  5  4  1  0  0  0  0
  6 12  1  0  0  0  0
  6 11  1  0  0  0  0
  7  1  2  0  0  0  0
  7  3  1  0  0  0  0
  8  4  2  0  0  0  0
  8 10  1  0  0  0  0
  9 12  2  0  0  0  0
 10  6  2  0  0  0  0
 11 14  2  0  0  0  0
 12  7  1  0  0  0  0
 13  2  1  0  0  0  0
 14  3  1  0  0  0  0
 15  2  2  0  0  0  0
 16 24  1  1  0  0  0
 16 11  1  0  0  0  0
 16 18  1  0  0  0  0
 19 20  1  0  0  0  0
 20 17  2  0  0  0  0
 20 18  1  0  0  0  0
 21 22  1  0  0  0  0
 22 19  1  0  0  0  0
 24 23  1  0  0  0  0
 25 24  2  0  0  0  0
M  END
>  <MODEL>
1

>  <REMARK>
 VINA RESULT:      -6.9      0.000      0.000
  Name = 
  4 active torsions:
  status: ('A' for Active; 'I' for Inactive)
    1  A    between atoms: N_2  and  CA_8
    2  A    between atoms: N_6  and  C_17
    3  A    between atoms: CA_8  and  C_10
    4  A    between atoms: CA_8  and  C_20
                            x       y       z     vdW  Elec       q    Type
                         _______ _______ _______ _____ _____    ______ ____

>  <TORSDO>
F 4

$$$$
=
 OpenBabel11072409403D

 25 27  0  0  1  0  0  0  0  0999 V2000
  185.0970  178.1340  142.2690 C   0  0  0  0  0  3  0  0  0  0  0  0
  185.7450  177.7020  140.0510 N   0  0  0  0  0  0  0  0  0  0  0  0
  187.1520  176.9580  141.8160 C   0  0  0  0  0  0  0  0  0  0  0  0
  185.9510  177.7810  146.4480 C   0  0  0  0  0  0  0  0  0  0  0  0
  184.8540  178.4410  147.6420 Cl  0  0  0  0  0  0  0  0  0  0  0  0
  187.7160  176.7210  144.5330 C   0  0  0  0  0  0  0  0  0  0  0  0
  186.2480  177.4970  142.7480 C   0  0  0  0  0  0  0  0  0  0  0  0
  187.1160  177.1320  146.8570 C   0  0  0  0  0  3  0  0  0  0  0  0
  185.6580  177.9040  145.0890 C   0  0  0  0  0  3  0  0  0  0  0  0
  187.9920  176.6060  145.9060 C   0  0  0  0  0  3  0  0  0  0  0  0
  188.5900  176.1930  143.5540 C   0  0  0  0  0  0  0  0  0  0  0  0
  186.5300  177.3790  144.1210 C   0  0  0  0  0  0  0  0  0  0  0  0
  186.8790  177.0720  140.4550 C   0  0  0  0  0  3  0  0  0  0  0  0
  188.2790  176.3320  142.2370 N   0  0  0  0  0  0  0  0  0  0  0  0
  184.8820  178.2170  140.9300 N   0  0  0  0  0  0  0  0  0  0  0  0
  189.8780  175.4900  143.8870 C   0  0  2  0  0  3  0  0  0  0  0  0
  193.0910  176.4510  142.4040 O   0  0  0  0  0  0  0  0  0  0  0  0
  190.9220  175.7990  142.9140 N   0  0  0  0  0  2  0  0  0  0  0  0
  192.5620  176.3920  144.6760 N   0  0  0  0  0  2  0  0  0  0  0  0
  192.2310  176.2230  143.2970 C   0  0  0  0  0  0  0  0  0  0  0  0
  194.0670  176.4900  146.5720 C   0  0  0  0  0  1  0  0  0  0  0  0
  193.8830  176.8180  145.1050 C   0  0  0  0  0  2  0  0  0  0  0  0
  189.7410  173.4580  145.3270 O   0  0  0  0  0  1  0  0  0  0  0  0
  189.6840  174.0130  144.0560 C   0  0  0  0  0  0  0  0  0  0  0  0
  189.4370  173.2750  143.0650 O   0  0  0  0  0  0  0  0  0  0  0  0
  1  7  1  0  0  0  0
  2 13  2  0  0  0  0
  2 15  1  0  0  0  0
  3 14  2  0  0  0  0
  3  7  1  0  0  0  0
  4  8  1  0  0  0  0
  4  5  1  0  0  0  0
  6 10  1  0  0  0  0
  7 12  2  0  0  0  0
  9  4  2  0  0  0  0
 10  8  2  0  0  0  0
 11 16  1  0  0  0  0
 11  6  2  0  0  0  0
 12  6  1  0  0  0  0
 12  9  1  0  0  0  0
 13  3  1  0  0  0  0
 14 11  1  0  0  0  0
 15  1  2  0  0  0  0
 16 18  1  6  0  0  0
 16 24  1  0  0  0  0
 17 20  2  0  0  0  0
 18 20  1  0  0  0  0
 19 22  1  0  0  0  0
 20 19  1  0  0  0  0
 22 21  1  0  0  0  0
 24 23  1  0  0  0  0
 25 24  2  0  0  0  0
M  END
>  <MODEL>
2

>  <REMARK>
 VINA RESULT:      -6.9      2.923      4.893
  Name = 
  4 active torsions:
  status: ('A' for Active; 'I' for Inactive)
    1  A    between atoms: N_2  and  CA_8
    2  A    between atoms: N_6  and  C_17
    3  A    between atoms: CA_8  and  C_10
    4  A    between atoms: CA_8  and  C_20
                            x       y       z     vdW  Elec       q    Type
                         _______ _______ _______ _____ _____    ______ ____

>  <TORSDO>
F 4

$$$$
=
 OpenBabel11072409403D

 25 27  0  0  1  0  0  0  0  0999 V2000
  184.9390  177.7950  145.5360 C   0  0  0  0  0  3  0  0  0  0  0  0
  186.0040  177.1630  147.5340 N   0  0  0  0  0  0  0  0  0  0  0  0
  187.1020  176.7360  145.4690 C   0  0  0  0  0  0  0  0  0  0  0  0
  185.0270  177.9810  141.2600 C   0  0  0  0  0  0  0  0  0  0  0  0
  183.6930  178.6820  140.3700 Cl  0  0  0  0  0  0  0  0  0  0  0  0
  187.1710  176.8530  142.6880 C   0  0  0  0  0  0  0  0  0  0  0  0
  186.0150  177.3070  144.7860 C   0  0  0  0  0  0  0  0  0  0  0  0
  186.1320  177.4760  140.5760 C   0  0  0  0  0  3  0  0  0  0  0  0
  184.9830  177.9280  142.6540 C   0  0  0  0  0  3  0  0  0  0  0  0
  187.1970  176.9160  141.2850 C   0  0  0  0  0  3  0  0  0  0  0  0
  188.2400  176.2910  143.4250 C   0  0  0  0  0  0  0  0  0  0  0  0
  186.0470  177.3680  143.3810 C   0  0  0  0  0  0  0  0  0  0  0  0
  187.0770  176.6720  146.8610 C   0  0  0  0  0  3  0  0  0  0  0  0
  188.1670  176.2500  144.7820 N   0  0  0  0  0  0  0  0  0  0  0  0
  184.9680  177.7070  146.8910 N   0  0  0  0  0  0  0  0  0  0  0  0
  189.4690  175.7060  142.7840 C   0  0  2  0  0  3  0  0  0  0  0  0
  189.2960  172.0790  142.2790 O   0  0  0  0  0  0  0  0  0  0  0  0
  189.5560  174.2660  143.0100 N   0  0  0  0  0  2  0  0  0  0  0  0
  188.6520  173.7330  140.7640 N   0  0  0  0  0  2  0  0  0  0  0  0
  189.1730  173.3060  142.0240 C   0  0  0  0  0  0  0  0  0  0  0  0
  189.4090  172.5690  138.7780 C   0  0  0  0  0  1  0  0  0  0  0  0
  188.2550  172.7880  139.7340 C   0  0  0  0  0  2  0  0  0  0  0  0
  190.9180  177.7360  142.8180 O   0  0  0  0  0  0  0  0  0  0  0  0
  190.7180  176.4200  143.2100 C   0  0  0  0  0  0  0  0  0  0  0  0
  191.5690  175.8520  143.9440 O   0  0  0  0  0  1  0  0  0  0  0  0
  1 15  1  0  0  0  0
  3 13  2  0  0  0  0
  4  9  1  0  0  0  0
  5  4  1  0  0  0  0
  6 12  1  0  0  0  0
  6 11  1  0  0  0  0
  7  3  1  0  0  0  0
  7  1  2  0  0  0  0
  8  4  2  0  0  0  0
  8 10  1  0  0  0  0
  9 12  2  0  0  0  0
 10  6  2  0  0  0  0
 11 14  2  0  0  0  0
 12  7  1  0  0  0  0
 13  2  1  0  0  0  0
 14  3  1  0  0  0  0
 15  2  2  0  0  0  0
 16 18  1  1  0  0  0
 16 24  1  0  0  0  0
 16 11  1  0  0  0  0
 19 20  1  0  0  0  0
 20 17  2  0  0  0  0
 20 18  1  0  0  0  0
 21 22  1  0  0  0  0
 22 19  1  0  0  0  0
 23 24  2  0  0  0  0
 24 25  1  0  0  0  0
M  END
>  <MODEL>
3

>  <REMARK>
 VINA RESULT:      -6.6      1.220      1.548
  Name = 
  4 active torsions:
  status: ('A' for Active; 'I' for Inactive)
    1  A    between atoms: N_2  and  CA_8
    2  A    between atoms: N_6  and  C_17
    3  A    between atoms: CA_8  and  C_10
    4  A    between atoms: CA_8  and  C_20
                            x       y       z     vdW  Elec       q    Type
                         _______ _______ _______ _____ _____    ______ ____

>  <TORSDO>
F 4

$$$$
=
 OpenBabel11072409403D

 25 27  0  0  1  0  0  0  0  0999 V2000
  184.7140  178.3250  144.9170 C   0  0  0  0  0  3  0  0  0  0  0  0
  184.5520  178.3600  147.2620 N   0  0  0  0  0  0  0  0  0  0  0  0
  186.4430  177.3230  146.2620 C   0  0  0  0  0  0  0  0  0  0  0  0
  186.9150  177.1680  141.4320 C   0  0  0  0  0  0  0  0  0  0  0  0
  186.3120  177.5410  139.8320 Cl  0  0  0  0  0  0  0  0  0  0  0  0
  187.8840  176.5660  144.0020 C   0  0  0  0  0  0  0  0  0  0  0  0
  185.9320  177.6400  144.9920 C   0  0  0  0  0  0  0  0  0  0  0  0
  188.1230  176.4870  141.5810 C   0  0  0  0  0  3  0  0  0  0  0  0
  186.1850  177.5520  142.5590 C   0  0  0  0  0  3  0  0  0  0  0  0
  188.6040  176.1890  142.8570 C   0  0  0  0  0  3  0  0  0  0  0  0
  188.3550  176.2750  145.3040 C   0  0  0  0  0  0  0  0  0  0  0  0
  186.6570  177.2590  143.8490 C   0  0  0  0  0  0  0  0  0  0  0  0
  185.7290  177.6960  147.3990 C   0  0  0  0  0  3  0  0  0  0  0  0
  187.6210  176.6590  146.3820 N   0  0  0  0  0  0  0  0  0  0  0  0
  184.0600  178.6650  146.0590 N   0  0  0  0  0  0  0  0  0  0  0  0
  189.6360  175.5320  145.5740 C   0  0  2  0  0  3  0  0  0  0  0  0
  190.3820  172.0670  144.6370 O   0  0  0  0  0  0  0  0  0  0  0  0
  189.4930  174.1050  145.3050 N   0  0  0  0  0  2  0  0  0  0  0  0
  191.8470  173.8820  144.5590 N   0  0  0  0  0  2  0  0  0  0  0  0
  190.5700  173.2980  144.8260 C   0  0  0  0  0  0  0  0  0  0  0  0
  193.8270  172.6670  145.2440 C   0  0  0  0  0  1  0  0  0  0  0  0
  192.9680  173.0950  144.0740 C   0  0  0  0  0  2  0  0  0  0  0  0
  190.6860  177.0450  147.2570 O   0  0  0  0  0  0  0  0  0  0  0  0
  190.1580  175.7970  146.9550 C   0  0  0  0  0  0  0  0  0  0  0  0
  190.0930  174.9150  147.8510 O   0  0  0  0  0  1  0  0  0  0  0  0
  1  7  2  0  0  0  0
  1 15  1  0  0  0  0
  2 13  1  0  0  0  0
  3 14  1  0  0  0  0
  3 13  2  0  0  0  0
  4  8  2  0  0  0  0
  4  9  1  0  0  0  0
  5  4  1  0  0  0  0
  6 11  1  0  0  0  0
  7  3  1  0  0  0  0
  8 10  1  0  0  0  0
  9 12  2  0  0  0  0
 10  6  2  0  0  0  0
 11 16  1  0  0  0  0
 11 14  2  0  0  0  0
 12  6  1  0  0  0  0
 12  7  1  0  0  0  0
 15  2  2  0  0  0  0
 16 18  1  1  0  0  0
 16 24  1  0  0  0  0
 17 20  2  0  0  0  0
 19 20  1  0  0  0  0
 20 18  1  0  0  0  0
 22 19  1  0  0  0  0
 22 21  1  0  0  0  0
 24 23  2  0  0  0  0
 24 25  1  0  0  0  0
M  END
>  <MODEL>
4

>  <REMARK>
 VINA RESULT:      -6.4      1.934      2.572
  Name = 
  4 active torsions:
  status: ('A' for Active; 'I' for Inactive)
    1  A    between atoms: N_2  and  CA_8
    2  A    between atoms: N_6  and  C_17
    3  A    between atoms: CA_8  and  C_10
    4  A    between atoms: CA_8  and  C_20
                            x       y       z     vdW  Elec       q    Type
                         _______ _______ _______ _____ _____    ______ ____

>  <TORSDO>
F 4

$$$$
=
 OpenBabel11072409403D

 25 27  0  0  1  0  0  0  0  0999 V2000
  184.8130  178.4660  145.4600 C   0  0  0  0  0  3  0  0  0  0  0  0
  185.3100  178.4540  147.7580 N   0  0  0  0  0  0  0  0  0  0  0  0
  187.0050  177.8140  146.2190 C   0  0  0  0  0  0  0  0  0  0  0  0
  186.1270  177.7860  141.4440 C   0  0  0  0  0  0  0  0  0  0  0  0
  185.0420  178.0430  140.0940 Cl  0  0  0  0  0  0  0  0  0  0  0  0
  187.8710  177.3700  143.6090 C   0  0  0  0  0  0  0  0  0  0  0  0
  186.1090  178.0330  145.1590 C   0  0  0  0  0  0  0  0  0  0  0  0
  187.4330  177.3540  141.2150 C   0  0  0  0  0  3  0  0  0  0  0  0
  185.6830  178.0120  142.7470 C   0  0  0  0  0  3  0  0  0  0  0  0
  188.2990  177.1480  142.2900 C   0  0  0  0  0  3  0  0  0  0  0  0
  188.7330  177.1680  144.7130 C   0  0  0  0  0  0  0  0  0  0  0  0
  186.5430  177.8090  143.8400 C   0  0  0  0  0  0  0  0  0  0  0  0
  186.5810  178.0320  147.5270 C   0  0  0  0  0  3  0  0  0  0  0  0
  188.2710  177.3940  145.9720 N   0  0  0  0  0  0  0  0  0  0  0  0
  184.4540  178.6640  146.7560 N   0  0  0  0  0  0  0  0  0  0  0  0
  190.1540  176.6900  144.5770 C   0  0  2  0  0  3  0  0  0  0  0  0
  192.1320  175.0860  147.2140 O   0  0  0  0  0  0  0  0  0  0  0  0
  190.7380  176.3720  145.8760 N   0  0  0  0  0  2  0  0  0  0  0  0
  192.0030  174.4400  144.9750 N   0  0  0  0  0  2  0  0  0  0  0  0
  191.6480  175.2880  146.0690 C   0  0  0  0  0  0  0  0  0  0  0  0
  194.3230  173.7790  144.7500 C   0  0  0  0  0  1  0  0  0  0  0  0
  192.9270  173.3300  145.1290 C   0  0  0  0  0  2  0  0  0  0  0  0
  191.8380  177.1770  142.8020 O   0  0  0  0  0  0  0  0  0  0  0  0
  190.9980  177.6550  143.7990 C   0  0  0  0  0  0  0  0  0  0  0  0
  190.9310  178.8930  144.0150 O   0  0  0  0  0  1  0  0  0  0  0  0
  1 15  1  0  0  0  0
  3 13  2  0  0  0  0
  4  9  1  0  0  0  0
  5  4  1  0  0  0  0
  6 12  1  0  0  0  0
  6 11  1  0  0  0  0
  7  1  2  0  0  0  0
  7  3  1  0  0  0  0
  8  4  2  0  0  0  0
  8 10  1  0  0  0  0
  9 12  2  0  0  0  0
 10  6  2  0  0  0  0
 11 14  2  0  0  0  0
 12  7  1  0  0  0  0
 13  2  1  0  0  0  0
 14  3  1  0  0  0  0
 15  2  2  0  0  0  0
 16 24  1  1  0  0  0
 16 11  1  0  0  0  0
 16 18  1  0  0  0  0
 18 20  1  0  0  0  0
 19 22  1  0  0  0  0
 19 20  1  0  0  0  0
 20 17  2  0  0  0  0
 21 22  1  0  0  0  0
 23 24  2  0  0  0  0
 24 25  1  0  0  0  0
M  END
>  <MODEL>
5

>  <REMARK>
 VINA RESULT:      -6.3      1.928      2.332
  Name = 
  4 active torsions:
  status: ('A' for Active; 'I' for Inactive)
    1  A    between atoms: N_2  and  CA_8
    2  A    between atoms: N_6  and  C_17
    3  A    between atoms: CA_8  and  C_10
    4  A    between atoms: CA_8  and  C_20
                            x       y       z     vdW  Elec       q    Type
                         _______ _______ _______ _____ _____    ______ ____

>  <TORSDO>
F 4

$$$$
=
 OpenBabel11072409403D

 25 27  0  0  1  0  0  0  0  0999 V2000
  185.0720  178.2180  142.2050 C   0  0  0  0  0  3  0  0  0  0  0  0
  185.7550  177.8110  139.9920 N   0  0  0  0  0  0  0  0  0  0  0  0
  187.2040  177.1830  141.7690 C   0  0  0  0  0  0  0  0  0  0  0  0
  185.9340  177.9640  146.3900 C   0  0  0  0  0  0  0  0  0  0  0  0
  184.7900  178.5570  147.5740 Cl  0  0  0  0  0  0  0  0  0  0  0  0
  187.7750  177.0110  144.4890 C   0  0  0  0  0  0  0  0  0  0  0  0
  186.2620  177.6670  142.6930 C   0  0  0  0  0  0  0  0  0  0  0  0
  187.1410  177.4020  146.8070 C   0  0  0  0  0  3  0  0  0  0  0  0
  185.6380  178.0540  145.0290 C   0  0  0  0  0  3  0  0  0  0  0  0
  188.0550  176.9290  145.8640 C   0  0  0  0  0  3  0  0  0  0  0  0
  188.6870  176.5370  143.5170 C   0  0  0  0  0  0  0  0  0  0  0  0
  186.5470  177.5820  144.0670 C   0  0  0  0  0  0  0  0  0  0  0  0
  186.9290  177.2660  140.4060 C   0  0  0  0  0  3  0  0  0  0  0  0
  188.3720  176.6410  142.1980 N   0  0  0  0  0  0  0  0  0  0  0  0
  184.8550  178.2720  140.8640 N   0  0  0  0  0  0  0  0  0  0  0  0
  190.0200  175.9290  143.8600 C   0  0  2  0  0  3  0  0  0  0  0  0
  189.6900  172.4870  145.0800 O   0  0  0  0  0  0  0  0  0  0  0  0
  189.8710  174.7770  144.7440 N   0  0  0  0  0  2  0  0  0  0  0  0
  189.8340  173.1740  142.8530 N   0  0  0  0  0  2  0  0  0  0  0  0
  189.7960  173.4360  144.2570 C   0  0  0  0  0  0  0  0  0  0  0  0
  190.1250  171.8440  140.8500 C   0  0  0  0  0  1  0  0  0  0  0  0
  189.7630  171.8240  142.3200 C   0  0  0  0  0  2  0  0  0  0  0  0
  191.0890  178.1820  143.7930 O   0  0  0  0  0  0  0  0  0  0  0  0
  190.9740  176.9460  144.4130 C   0  0  0  0  0  0  0  0  0  0  0  0
  191.6450  176.7050  145.4510 O   0  0  0  0  0  1  0  0  0  0  0  0
  1  7  1  0  0  0  0
  2 13  2  0  0  0  0
  2 15  1  0  0  0  0
  3 14  2  0  0  0  0
  3  7  1  0  0  0  0
  4  8  1  0  0  0  0
  4  5  1  0  0  0  0
  6 10  1  0  0  0  0
  7 12  2  0  0  0  0
  9  4  2  0  0  0  0
 10  8  2  0  0  0  0
 11 16  1  0  0  0  0
 11  6  2  0  0  0  0
 12  6  1  0  0  0  0
 12  9  1  0  0  0  0
 13  3  1  0  0  0  0
 14 11  1  0  0  0  0
 15  1  2  0  0  0  0
 16 24  1  1  0  0  0
 16 18  1  0  0  0  0
 19 20  1  0  0  0  0
 20 18  1  0  0  0  0
 20 17  2  0  0  0  0
 21 22  1  0  0  0  0
 22 19  1  0  0  0  0
 23 24  2  0  0  0  0
 24 25  1  0  0  0  0
M  END
>  <MODEL>
6

>  <REMARK>
 VINA RESULT:      -6.3      2.516      3.757
  Name = 
  4 active torsions:
  status: ('A' for Active; 'I' for Inactive)
    1  A    between atoms: N_2  and  CA_8
    2  A    between atoms: N_6  and  C_17
    3  A    between atoms: CA_8  and  C_10
    4  A    between atoms: CA_8  and  C_20
                            x       y       z     vdW  Elec       q    Type
                         _______ _______ _______ _____ _____    ______ ____

>  <TORSDO>
F 4

$$$$
=
 OpenBabel11072409403D

 25 27  0  0  1  0  0  0  0  0999 V2000
  190.7000  173.5130  142.4250 C   0  0  0  0  0  3  0  0  0  0  0  0
  189.3180  172.7370  140.6890 N   0  0  0  0  0  0  0  0  0  0  0  0
  188.5590  174.5470  142.0300 C   0  0  0  0  0  0  0  0  0  0  0  0
  191.2990  176.2570  145.6550 C   0  0  0  0  0  0  0  0  0  0  0  0
  192.7660  176.2070  146.6080 Cl  0  0  0  0  0  0  0  0  0  0  0  0
  188.9390  176.3390  144.1280 C   0  0  0  0  0  0  0  0  0  0  0  0
  189.7500  174.4810  142.7720 C   0  0  0  0  0  0  0  0  0  0  0  0
  190.3110  177.1970  145.9470 C   0  0  0  0  0  3  0  0  0  0  0  0
  191.1180  175.3550  144.6060 C   0  0  0  0  0  3  0  0  0  0  0  0
  189.1390  177.2380  145.1880 C   0  0  0  0  0  3  0  0  0  0  0  0
  187.7600  176.3640  143.3460 C   0  0  0  0  0  0  0  0  0  0  0  0
  189.9450  175.3840  143.8330 C   0  0  0  0  0  0  0  0  0  0  0  0
  188.3600  173.6550  140.9790 C   0  0  0  0  0  3  0  0  0  0  0  0
  187.6120  175.4700  142.3320 N   0  0  0  0  0  0  0  0  0  0  0  0
  190.4520  172.6680  141.3900 N   0  0  0  0  0  0  0  0  0  0  0  0
  186.6280  177.3260  143.5860 C   0  0  2  0  0  3  0  0  0  0  0  0
  184.4590  176.9080  146.5120 O   0  0  0  0  0  0  0  0  0  0  0  0
  185.6540  176.7810  144.5260 N   0  0  0  0  0  2  0  0  0  0  0  0
  185.9810  178.6380  146.1360 N   0  0  0  0  0  2  0  0  0  0  0  0
  185.3270  177.4240  145.7590 C   0  0  0  0  0  0  0  0  0  0  0  0
  186.7710  179.0530  148.3880 C   0  0  0  0  0  1  0  0  0  0  0  0
  185.6740  179.3240  147.3800 C   0  0  0  0  0  2  0  0  0  0  0  0
  184.6350  177.5410  142.1020 O   0  0  0  0  0  1  0  0  0  0  0  0
  185.9890  177.7710  142.3050 C   0  0  0  0  0  0  0  0  0  0  0  0
  186.6550  178.3790  141.4270 O   0  0  0  0  0  0  0  0  0  0  0  0
  1  7  1  0  0  0  0
  2 13  2  0  0  0  0
  2 15  1  0  0  0  0
  3 14  2  0  0  0  0
  3  7  1  0  0  0  0
  4  8  1  0  0  0  0
  4  5  1  0  0  0  0
  6 10  1  0  0  0  0
  7 12  2  0  0  0  0
  9  4  2  0  0  0  0
 10  8  2  0  0  0  0
 11 16  1  0  0  0  0
 11  6  2  0  0  0  0
 12  6  1  0  0  0  0
 12  9  1  0  0  0  0
 13  3  1  0  0  0  0
 14 11  1  0  0  0  0
 15  1  2  0  0  0  0
 16 24  1  6  0  0  0
 16 18  1  0  0  0  0
 18 20  1  0  0  0  0
 19 22  1  0  0  0  0
 20 19  1  0  0  0  0
 20 17  2  0  0  0  0
 22 21  1  0  0  0  0
 23 24  1  0  0  0  0
 25 24  2  0  0  0  0
M  END
>  <MODEL>
7

>  <REMARK>
 VINA RESULT:      -6.2      3.415      6.798
  Name = 
  4 active torsions:
  status: ('A' for Active; 'I' for Inactive)
    1  A    between atoms: N_2  and  CA_8
    2  A    between atoms: N_6  and  C_17
    3  A    between atoms: CA_8  and  C_10
    4  A    between atoms: CA_8  and  C_20
                            x       y       z     vdW  Elec       q    Type
                         _______ _______ _______ _____ _____    ______ ____

>  <TORSDO>
F 4

$$$$
=
 OpenBabel11072409403D

 25 27  0  0  1  0  0  0  0  0999 V2000
  184.6600  178.3900  145.0630 C   0  0  0  0  0  3  0  0  0  0  0  0
  184.6840  178.4750  147.4120 N   0  0  0  0  0  0  0  0  0  0  0  0
  186.5540  177.5370  146.2840 C   0  0  0  0  0  0  0  0  0  0  0  0
  186.6480  177.2870  141.4360 C   0  0  0  0  0  0  0  0  0  0  0  0
  185.8960  177.5790  139.8820 Cl  0  0  0  0  0  0  0  0  0  0  0  0
  187.8570  176.8160  143.9300 C   0  0  0  0  0  0  0  0  0  0  0  0
  185.9230  177.7870  145.0540 C   0  0  0  0  0  0  0  0  0  0  0  0
  187.9070  176.6900  141.5000 C   0  0  0  0  0  3  0  0  0  0  0  0
  185.9870  177.6530  142.6100 C   0  0  0  0  0  3  0  0  0  0  0  0
  188.5070  176.4560  142.7390 C   0  0  0  0  0  3  0  0  0  0  0  0
  188.4490  176.5900  145.1960 C   0  0  0  0  0  0  0  0  0  0  0  0
  186.5780  177.4240  143.8630 C   0  0  0  0  0  0  0  0  0  0  0  0
  185.9100  177.8920  147.4670 C   0  0  0  0  0  3  0  0  0  0  0  0
  187.7790  176.9530  146.3220 N   0  0  0  0  0  0  0  0  0  0  0  0
  184.0790  178.7170  146.2470 N   0  0  0  0  0  0  0  0  0  0  0  0
  189.7940  175.9390  145.3760 C   0  0  2  0  0  3  0  0  0  0  0  0
  192.7990  176.7580  143.4420 O   0  0  0  0  0  0  0  0  0  0  0  0
  190.6900  176.2470  144.2650 N   0  0  0  0  0  2  0  0  0  0  0  0
  192.6460  176.5340  145.7600 N   0  0  0  0  0  2  0  0  0  0  0  0
  192.0790  176.5220  144.4490 C   0  0  0  0  0  0  0  0  0  0  0  0
  194.7860  175.5060  146.2440 C   0  0  0  0  0  1  0  0  0  0  0  0
  194.0550  176.8070  145.9880 C   0  0  0  0  0  2  0  0  0  0  0  0
  189.8750  173.5840  144.5560 O   0  0  0  0  0  0  0  0  0  0  0  0
  189.6750  174.4620  145.6120 C   0  0  0  0  0  0  0  0  0  0  0  0
  189.4290  174.0090  146.7600 O   0  0  0  0  0  1  0  0  0  0  0  0
  1 15  1  0  0  0  0
  2 13  1  0  0  0  0
  3 14  1  0  0  0  0
  3 13  2  0  0  0  0
  4  8  2  0  0  0  0
  4  9  1  0  0  0  0
  5  4  1  0  0  0  0
  6 11  1  0  0  0  0
  7  1  2  0  0  0  0
  7  3  1  0  0  0  0
  8 10  1  0  0  0  0
  9 12  2  0  0  0  0
 10  6  2  0  0  0  0
 11 16  1  0  0  0  0
 11 14  2  0  0  0  0
 12  6  1  0  0  0  0
 12  7  1  0  0  0  0
 15  2  2  0  0  0  0
 16 18  1  6  0  0  0
 16 24  1  0  0  0  0
 17 20  2  0  0  0  0
 18 20  1  0  0  0  0
 19 22  1  0  0  0  0
 20 19  1  0  0  0  0
 22 21  1  0  0  0  0
 23 24  2  0  0  0  0
 24 25  1  0  0  0  0
M  END
>  <MODEL>
8

>  <REMARK>
 VINA RESULT:      -6.2      1.757      3.398
  Name = 
  4 active torsions:
  status: ('A' for Active; 'I' for Inactive)
    1  A    between atoms: N_2  and  CA_8
    2  A    between atoms: N_6  and  C_17
    3  A    between atoms: CA_8  and  C_10
    4  A    between atoms: CA_8  and  C_20
                            x       y       z     vdW  Elec       q    Type
                         _______ _______ _______ _____ _____    ______ ____

>  <TORSDO>
F 4

$$$$
=
 OpenBabel11072409403D

 25 27  0  0  1  0  0  0  0  0999 V2000
  186.3190  178.1210  147.5050 C   0  0  0  0  0  3  0  0  0  0  0  0
  184.1640  178.4510  146.6250 N   0  0  0  0  0  0  0  0  0  0  0  0
  185.8740  177.6380  145.1870 C   0  0  0  0  0  0  0  0  0  0  0  0
  190.3730  176.9110  146.8590 C   0  0  0  0  0  0  0  0  0  0  0  0
  191.5360  176.9510  148.1670 Cl  0  0  0  0  0  0  0  0  0  0  0  0
  188.5090  176.8460  144.7560 C   0  0  0  0  0  0  0  0  0  0  0  0
  186.7800  177.6800  146.2600 C   0  0  0  0  0  0  0  0  0  0  0  0
  190.7660  176.4820  145.5910 C   0  0  0  0  0  3  0  0  0  0  0  0
  189.0550  177.3090  147.0860 C   0  0  0  0  0  3  0  0  0  0  0  0
  189.8400  176.4490  144.5470 C   0  0  0  0  0  3  0  0  0  0  0  0
  187.5540  176.8200  143.7110 C   0  0  0  0  0  0  0  0  0  0  0  0
  188.1120  177.2820  146.0450 C   0  0  0  0  0  0  0  0  0  0  0  0
  184.5540  178.0330  145.3920 C   0  0  0  0  0  3  0  0  0  0  0  0
  186.2780  177.2170  143.9620 N   0  0  0  0  0  0  0  0  0  0  0  0
  185.0200  178.4940  147.6490 N   0  0  0  0  0  0  0  0  0  0  0  0
  187.8770  176.3900  142.3060 C   0  0  2  0  0  3  0  0  0  0  0  0
  190.2770  173.8130  141.2850 O   0  0  0  0  0  0  0  0  0  0  0  0
  189.0470  175.5180  142.2690 N   0  0  0  0  0  2  0  0  0  0  0  0
  188.2380  174.3070  140.2640 N   0  0  0  0  0  2  0  0  0  0  0  0
  189.2310  174.5150  141.2690 C   0  0  0  0  0  0  0  0  0  0  0  0
  188.3520  173.9640  137.8680 C   0  0  0  0  0  1  0  0  0  0  0  0
  188.3890  173.2990  139.2280 C   0  0  0  0  0  2  0  0  0  0  0  0
  187.1480  177.6880  140.3040 O   0  0  0  0  0  0  0  0  0  0  0  0
  188.0170  177.5610  141.3790 C   0  0  0  0  0  0  0  0  0  0  0  0
  188.8890  178.4460  141.5820 O   0  0  0  0  0  1  0  0  0  0  0  0
  1 15  1  0  0  0  0
  2 15  2  0  0  0  0
  3 13  2  0  0  0  0
  3  7  1  0  0  0  0
  4  9  1  0  0  0  0
  4  5  1  0  0  0  0
  6 12  1  0  0  0  0
  7  1  2  0  0  0  0
  8  4  2  0  0  0  0
 10  6  2  0  0  0  0
 10  8  1  0  0  0  0
 11 14  2  0  0  0  0
 11  6  1  0  0  0  0
 12  7  1  0  0  0  0
 12  9  2  0  0  0  0
 13  2  1  0  0  0  0
 14  3  1  0  0  0  0
 16 24  1  6  0  0  0
 16 11  1  0  0  0  0
 18 16  1  0  0  0  0
 19 20  1  0  0  0  0
 20 17  2  0  0  0  0
 20 18  1  0  0  0  0
 21 22  1  0  0  0  0
 22 19  1  0  0  0  0
 23 24  2  0  0  0  0
 24 25  1  0  0  0  0
M  END
>  <MODEL>
9

>  <REMARK>
 VINA RESULT:      -6.1      2.934      4.123
  Name = 
  4 active torsions:
  status: ('A' for Active; 'I' for Inactive)
    1  A    between atoms: N_2  and  CA_8
    2  A    between atoms: N_6  and  C_17
    3  A    between atoms: CA_8  and  C_10
    4  A    between atoms: CA_8  and  C_20
                            x       y       z     vdW  Elec       q    Type
                         _______ _______ _______ _____ _____    ______ ____

>  <TORSDO>
F 4

$$$$
