=
 OpenBabel11062418503D

 37 43  0  0  1  0  0  0  0  0999 V2000
  194.3070  176.2560  144.8500 C   0  0  1  0  0  3  0  0  0  0  0  0
  195.6900  176.6850  144.2820 C   0  0  0  0  0  2  0  0  0  0  0  0
  197.6530  175.5840  143.0740 N   0  0  0  0  0  2  0  0  0  0  0  0
  190.0000  174.7550  143.7310 O   0  0  0  0  0  0  0  0  0  0  0  0
  190.1570  177.0760  143.5530 N   0  0  0  0  0  2  0  0  0  0  0  0
  196.2430  175.9960  143.0090 C   0  0  1  0  0  3  0  0  0  0  0  0
  194.4060  170.6590  143.4000 N   0  0  0  0  0  0  0  0  0  0  0  0
  195.0660  173.8230  144.6010 C   0  0  1  0  0  3  0  0  0  0  0  0
  197.9410  174.2280  144.1970 S   0  0  0  0  0  0  0  0  0  0  0  0
  194.7720  172.4020  145.0410 C   0  0  2  0  0  3  0  0  0  0  0  0
  190.7030  175.7930  143.8710 C   0  0  0  0  0  0  0  0  0  0  0  0
  195.4420  171.5490  143.9430 C   0  0  2  0  0  3  0  0  0  0  0  0
  195.1120  173.7220  143.0840 C   0  0  2  0  0  3  0  0  0  0  0  0
  193.1030  171.2350  143.7300 C   0  0  0  0  0  2  0  0  0  0  0  0
  192.7880  174.4460  144.4240 C   0  0  1  0  0  3  0  0  0  0  0  0
  193.0090  176.7940  144.2420 C   0  0  0  0  0  2  0  0  0  0  0  0
  197.4980  172.8970  142.9920 C   0  0  0  0  0  2  0  0  0  0  0  0
  192.0480  175.6900  144.3520 N   0  0  0  0  0  0  0  0  0  0  0  0
  194.5040  169.4820  144.0640 O   0  0  0  0  0  1  0  0  0  0  0  0
  194.0570  174.7850  145.1220 C   0  0  2  0  0  3  0  0  0  0  0  0
  192.2200  173.2100  145.1080 C   0  0  0  0  0  2  0  0  0  0  0  0
  195.9830  172.5250  142.8350 C   0  0  1  0  0  0  0  0  0  0  0  0
  193.2610  172.0380  145.0000 C   0  0  2  0  0  3  0  0  0  0  0  0
  195.3650  174.9930  142.2840 C   0  0  0  0  0  2  0  0  0  0  0  0
  188.5880  176.2670  141.8950 C   0  0  0  0  0  1  0  0  0  0  0  0
  188.8090  177.2460  143.0320 C   0  0  1  0  0  3  0  0  0  0  0  0
  186.2760  178.6190  143.1360 C   0  0  0  0  0  2  0  0  0  0  0  0
  185.6850  179.8500  143.8160 C   0  0  0  0  0  2  0  0  0  0  0  0
  184.5660  179.4420  144.7680 C   0  0  0  0  0  2  0  0  0  0  0  0
  185.7430  177.2640  145.2720 C   0  0  2  0  0  3  0  0  0  0  0  0
  183.9860  178.1630  146.8100 C   0  0  0  0  0  1  0  0  0  0  0  0
  185.1140  178.5310  145.8650 C   0  0  2  0  0  3  0  0  0  0  0  0
  187.8480  177.0010  144.0830 N   0  0  0  0  0  0  0  0  0  0  0  0
  186.3800  176.5370  146.2820 O   0  0  0  0  0  1  0  0  0  0  0  0
  186.7170  177.6180  144.1730 C   0  0  0  0  0  0  0  0  0  0  0  0
  196.9340  171.8500  140.8430 C   0  0  0  0  0  1  0  0  0  0  0  0
  195.7200  172.0570  141.5230 O   0  0  0  0  0  0  0  0  0  0  0  0
  1 16  1  6  0  0  0
  1 20  1  0  0  0  0
  2  1  1  0  0  0  0
  3  9  1  0  0  0  0
  4 11  2  0  0  0  0
  5 11  1  0  0  0  0
  6 24  1  1  0  0  0
  6  3  1  0  0  0  0
  6  2  1  0  0  0  0
  7 14  1  0  0  0  0
  7 12  1  0  0  0  0
  7 19  1  0  0  0  0
  8 10  1  0  0  0  0
  8 20  1  0  0  0  0
 11 18  1  0  0  0  0
 12 10  1  0  0  0  0
 13  8  1  0  0  0  0
 14 23  1  0  0  0  0
 15 21  1  0  0  0  0
 15 20  1  0  0  0  0
 16 18  1  0  0  0  0
 17  9  1  0  0  0  0
 18 15  1  0  0  0  0
 22 17  1  0  0  0  0
 22 13  1  0  0  0  0
 22 12  1  0  0  0  0
 23 10  1  0  0  0  0
 23 21  1  0  0  0  0
 24 13  1  0  0  0  0
 25 26  1  0  0  0  0
 26  5  1  0  0  0  0
 26 33  1  0  0  0  0
 27 28  1  0  0  0  0
 27 35  1  0  0  0  0
 28 29  1  0  0  0  0
 29 32  1  0  0  0  0
 30 32  1  0  0  0  0
 30 34  1  0  0  0  0
 32 31  1  0  0  0  0
 33 35  2  0  0  0  0
 35 30  1  0  0  0  0
 36 37  1  0  0  0  0
 37 22  1  0  0  0  0
M  END
>  <MODEL>
1

>  <REMARK>
 VINA RESULT:      -8.2      0.000      0.000
  Name = 
  3 active torsions:
  status: ('A' for Active; 'I' for Inactive)
    1  A    between atoms: N_11  and  C_24
    2  A    between atoms: O_16  and  C_34
    3  A    between atoms: N_22  and  C_24
                            x       y       z     vdW  Elec       q    Type
                         _______ _______ _______ _____ _____    ______ ____

>  <TORSDO>
F 3

$$$$
=
 OpenBabel11062418503D

 37 43  0  0  1  0  0  0  0  0999 V2000
  190.0980  171.6520  142.4240 C   0  0  1  0  0  3  0  0  0  0  0  0
  191.2490  170.6050  142.4400 C   0  0  0  0  0  2  0  0  0  0  0  0
  192.8840  169.5810  140.7650 N   0  0  0  0  0  2  0  0  0  0  0  0
  189.0550  176.1970  141.8770 O   0  0  0  0  0  0  0  0  0  0  0  0
  189.7600  175.7500  144.0560 N   0  0  0  0  0  2  0  0  0  0  0  0
  192.4630  170.7870  141.4930 C   0  0  1  0  0  3  0  0  0  0  0  0
  190.2640  173.1290  136.8350 N   0  0  0  0  0  0  0  0  0  0  0  0
  190.1170  171.4930  139.8680 C   0  0  1  0  0  3  0  0  0  0  0  0
  191.7160  169.0610  139.5220 S   0  0  0  0  0  0  0  0  0  0  0  0
  189.3100  171.7990  138.6200 C   0  0  2  0  0  3  0  0  0  0  0  0
  189.4290  175.3420  142.7250 C   0  0  0  0  0  0  0  0  0  0  0  0
  190.3800  171.8280  137.5090 C   0  0  2  0  0  3  0  0  0  0  0  0
  191.4670  172.1330  139.5810 C   0  0  2  0  0  3  0  0  0  0  0  0
  189.5660  174.0410  137.7420 C   0  0  0  0  0  2  0  0  0  0  0  0
  189.4900  173.4820  140.9930 C   0  0  1  0  0  3  0  0  0  0  0  0
  190.2320  172.9750  143.1820 C   0  0  0  0  0  2  0  0  0  0  0  0
  192.3350  170.2010  138.2040 C   0  0  0  0  0  2  0  0  0  0  0  0
  189.5170  173.9600  142.3610 N   0  0  0  0  0  0  0  0  0  0  0  0
  189.4650  172.9480  135.7560 O   0  0  0  0  0  1  0  0  0  0  0  0
  189.4480  171.9980  141.0980 C   0  0  2  0  0  3  0  0  0  0  0  0
  188.3940  173.8910  140.0190 C   0  0  0  0  0  2  0  0  0  0  0  0
  191.7890  171.6710  138.1890 C   0  0  1  0  0  0  0  0  0  0  0  0
  188.6640  173.2130  138.6270 C   0  0  2  0  0  3  0  0  0  0  0  0
  192.5470  172.0470  140.6520 C   0  0  0  0  0  2  0  0  0  0  0  0
  190.9640  177.8510  143.9840 C   0  0  0  0  0  1  0  0  0  0  0  0
  189.7190  177.1420  144.4810 C   0  0  1  0  0  3  0  0  0  0  0  0
  187.3450  177.5620  146.0620 C   0  0  0  0  0  2  0  0  0  0  0  0
  186.0160  176.8580  146.3120 C   0  0  0  0  0  2  0  0  0  0  0  0
  184.8580  177.7330  145.8420 C   0  0  0  0  0  2  0  0  0  0  0  0
  186.2850  178.6860  143.9890 C   0  0  2  0  0  3  0  0  0  0  0  0
  183.7900  178.8360  143.8980 C   0  0  0  0  0  1  0  0  0  0  0  0
  184.9660  177.9870  144.3400 C   0  0  2  0  0  3  0  0  0  0  0  0
  188.5410  177.7800  143.9380 N   0  0  0  0  0  0  0  0  0  0  0  0
  186.4280  178.7520  142.5990 O   0  0  0  0  0  1  0  0  0  0  0  0
  187.4530  177.9590  144.6110 C   0  0  0  0  0  0  0  0  0  0  0  0
  193.8230  171.8130  137.1070 C   0  0  0  0  0  1  0  0  0  0  0  0
  192.7560  172.5540  137.6470 O   0  0  0  0  0  0  0  0  0  0  0  0
  1  2  1  6  0  0  0
  1 16  1  0  0  0  0
  3  6  1  0  0  0  0
  4 11  2  0  0  0  0
  5 26  1  0  0  0  0
  6 24  1  6  0  0  0
  6  2  1  0  0  0  0
  7 12  1  0  0  0  0
  7 14  1  0  0  0  0
  8 20  1  0  0  0  0
  9  3  1  0  0  0  0
 10 23  1  0  0  0  0
 10  8  1  0  0  0  0
 11  5  1  0  0  0  0
 12 22  1  0  0  0  0
 12 10  1  0  0  0  0
 13  8  1  0  0  0  0
 13 24  1  0  0  0  0
 14 23  1  0  0  0  0
 15 20  1  0  0  0  0
 15 18  1  0  0  0  0
 17  9  1  0  0  0  0
 18 11  1  0  0  0  0
 18 16  1  0  0  0  0
 19  7  1  0  0  0  0
 20  1  1  0  0  0  0
 21 15  1  0  0  0  0
 22 17  1  0  0  0  0
 22 13  1  0  0  0  0
 23 21  1  0  0  0  0
 25 26  1  0  0  0  0
 27 28  1  0  0  0  0
 29 28  1  0  0  0  0
 30 32  1  0  0  0  0
 30 35  1  0  0  0  0
 31 32  1  0  0  0  0
 32 29  1  0  0  0  0
 33 26  1  0  0  0  0
 33 35  2  0  0  0  0
 34 30  1  0  0  0  0
 35 27  1  0  0  0  0
 36 37  1  0  0  0  0
 37 22  1  0  0  0  0
M  END
>  <MODEL>
2

>  <REMARK>
 VINA RESULT:      -7.9      4.146      5.730
  Name = 
  3 active torsions:
  status: ('A' for Active; 'I' for Inactive)
    1  A    between atoms: N_11  and  C_24
    2  A    between atoms: O_16  and  C_34
    3  A    between atoms: N_22  and  C_24
                            x       y       z     vdW  Elec       q    Type
                         _______ _______ _______ _____ _____    ______ ____

>  <TORSDO>
F 3

$$$$
=
 OpenBabel11062418503D

 37 43  0  0  1  0  0  0  0  0999 V2000
  195.2900  176.1230  144.7720 C   0  0  1  0  0  3  0  0  0  0  0  0
  196.1350  176.7860  143.6460 C   0  0  0  0  0  2  0  0  0  0  0  0
  197.0620  176.1340  141.3560 N   0  0  0  0  0  2  0  0  0  0  0  0
  191.0470  174.4610  145.9080 O   0  0  0  0  0  0  0  0  0  0  0  0
  191.1450  176.7770  146.1770 N   0  0  0  0  0  2  0  0  0  0  0  0
  195.8660  176.4140  142.1660 C   0  0  1  0  0  3  0  0  0  0  0  0
  194.4040  170.9510  142.3430 N   0  0  0  0  0  0  0  0  0  0  0  0
  195.7120  173.8700  143.6310 C   0  0  1  0  0  3  0  0  0  0  0  0
  197.8870  174.6200  141.8150 S   0  0  0  0  0  0  0  0  0  0  0  0
  195.6710  172.3680  143.8430 C   0  0  2  0  0  3  0  0  0  0  0  0
  191.7390  175.5150  145.8580 C   0  0  0  0  0  0  0  0  0  0  0  0
  195.5920  171.8140  142.4050 C   0  0  2  0  0  3  0  0  0  0  0  0
  194.9030  174.0700  142.3590 C   0  0  2  0  0  3  0  0  0  0  0  0
  193.5220  171.3240  143.4490 C   0  0  0  0  0  2  0  0  0  0  0  0
  193.7390  174.2930  144.8720 C   0  0  1  0  0  3  0  0  0  0  0  0
  193.8890  176.6420  145.1080 C   0  0  0  0  0  2  0  0  0  0  0  0
  196.8100  173.5130  140.7980 C   0  0  0  0  0  2  0  0  0  0  0  0
  193.1200  175.4510  145.4870 N   0  0  0  0  0  0  0  0  0  0  0  0
  194.8210  169.6820  142.5730 O   0  0  0  0  0  1  0  0  0  0  0  0
  195.1910  174.6110  144.8130 C   0  0  2  0  0  3  0  0  0  0  0  0
  193.6120  172.8990  145.4710 C   0  0  0  0  0  2  0  0  0  0  0  0
  195.4530  173.0330  141.4230 C   0  0  1  0  0  0  0  0  0  0  0  0
  194.3830  171.8760  144.5610 C   0  0  2  0  0  3  0  0  0  0  0  0
  194.7050  175.4910  141.8470 C   0  0  0  0  0  2  0  0  0  0  0  0
  189.6060  177.9200  147.6580 C   0  0  0  0  0  1  0  0  0  0  0  0
  189.7410  176.9140  146.5310 C   0  0  1  0  0  3  0  0  0  0  0  0
  186.9280  177.5320  146.6850 C   0  0  0  0  0  2  0  0  0  0  0  0
  185.6010  176.8290  146.4220 C   0  0  0  0  0  2  0  0  0  0  0  0
  184.8490  177.5250  145.2930 C   0  0  0  0  0  2  0  0  0  0  0  0
  187.0280  178.1440  144.1750 C   0  0  2  0  0  3  0  0  0  0  0  0
  184.8800  178.1430  142.8930 C   0  0  0  0  0  1  0  0  0  0  0  0
  185.6630  177.4660  144.0020 C   0  0  2  0  0  3  0  0  0  0  0  0
  188.9910  177.3640  145.3800 N   0  0  0  0  0  0  0  0  0  0  0  0
  187.8100  177.9250  143.0360 O   0  0  0  0  0  1  0  0  0  0  0  0
  187.7260  177.6230  145.4090 C   0  0  0  0  0  0  0  0  0  0  0  0
  195.1130  172.8660  139.1460 C   0  0  0  0  0  1  0  0  0  0  0  0
  194.4920  172.8060  140.4060 O   0  0  0  0  0  0  0  0  0  0  0  0
  1  2  1  6  0  0  0
  1 20  1  0  0  0  0
  1 16  1  0  0  0  0
  3  9  1  0  0  0  0
  3  6  1  0  0  0  0
  5 26  1  0  0  0  0
  6 24  1  1  0  0  0
  6  2  1  0  0  0  0
  7 12  1  0  0  0  0
  7 19  1  0  0  0  0
  7 14  1  0  0  0  0
  8 10  1  0  0  0  0
  8 20  1  0  0  0  0
 10 23  1  0  0  0  0
 11  4  2  0  0  0  0
 11  5  1  0  0  0  0
 12 10  1  0  0  0  0
 13  8  1  0  0  0  0
 14 23  1  0  0  0  0
 15 21  1  0  0  0  0
 15 18  1  0  0  0  0
 16 18  1  0  0  0  0
 17 22  1  0  0  0  0
 17  9  1  0  0  0  0
 18 11  1  0  0  0  0
 20 15  1  0  0  0  0
 22 13  1  0  0  0  0
 22 12  1  0  0  0  0
 23 21  1  0  0  0  0
 24 13  1  0  0  0  0
 26 25  1  0  0  0  0
 28 27  1  0  0  0  0
 29 28  1  0  0  0  0
 30 35  1  0  0  0  0
 31 32  1  0  0  0  0
 32 30  1  0  0  0  0
 32 29  1  0  0  0  0
 33 35  2  0  0  0  0
 33 26  1  0  0  0  0
 34 30  1  0  0  0  0
 35 27  1  0  0  0  0
 36 37  1  0  0  0  0
 37 22  1  0  0  0  0
M  END
>  <MODEL>
3

>  <REMARK>
 VINA RESULT:      -7.9      1.769      2.329
  Name = 
  3 active torsions:
  status: ('A' for Active; 'I' for Inactive)
    1  A    between atoms: N_11  and  C_24
    2  A    between atoms: O_16  and  C_34
    3  A    between atoms: N_22  and  C_24
                            x       y       z     vdW  Elec       q    Type
                         _______ _______ _______ _____ _____    ______ ____

>  <TORSDO>
F 3

$$$$
=
 OpenBabel11062418503D

 37 43  0  0  1  0  0  0  0  0999 V2000
  191.9550  172.2540  143.7350 C   0  0  1  0  0  3  0  0  0  0  0  0
  192.8310  171.1100  144.3230 C   0  0  0  0  0  2  0  0  0  0  0  0
  195.3190  170.5820  144.5700 N   0  0  0  0  0  2  0  0  0  0  0  0
  190.6690  176.7430  144.2360 O   0  0  0  0  0  0  0  0  0  0  0  0
  189.4160  175.3470  145.6240 N   0  0  0  0  0  2  0  0  0  0  0  0
  194.1990  171.4480  144.9690 C   0  0  1  0  0  3  0  0  0  0  0  0
  196.1500  175.7960  141.9200 N   0  0  0  0  0  0  0  0  0  0  0  0
  194.0560  173.1330  142.5650 C   0  0  1  0  0  3  0  0  0  0  0  0
  195.8180  170.8110  142.8720 S   0  0  0  0  0  0  0  0  0  0  0  0
  194.5430  174.0450  141.4550 C   0  0  2  0  0  3  0  0  0  0  0  0
  190.4090  175.5690  144.6180 C   0  0  0  0  0  0  0  0  0  0  0  0
  196.0050  174.3350  141.8550 C   0  0  2  0  0  3  0  0  0  0  0  0
  194.8510  173.5950  143.7760 C   0  0  2  0  0  3  0  0  0  0  0  0
  194.8130  176.3730  142.0670 C   0  0  0  0  0  2  0  0  0  0  0  0
  192.3070  174.5780  143.2470 C   0  0  1  0  0  3  0  0  0  0  0  0
  191.0810  173.1190  144.6480 C   0  0  0  0  0  2  0  0  0  0  0  0
  196.9180  172.2600  143.2010 C   0  0  0  0  0  2  0  0  0  0  0  0
  191.1020  174.4560  144.0430 N   0  0  0  0  0  0  0  0  0  0  0  0
  196.6310  176.2020  140.7190 O   0  0  0  0  0  1  0  0  0  0  0  0
  192.5790  173.2080  142.7350 C   0  0  2  0  0  3  0  0  0  0  0  0
  192.3930  175.5230  142.0560 C   0  0  0  0  0  2  0  0  0  0  0  0
  196.2590  173.6820  143.2630 C   0  0  1  0  0  0  0  0  0  0  0  0
  193.8280  175.4250  141.4240 C   0  0  2  0  0  3  0  0  0  0  0  0
  194.5980  172.9050  145.1100 C   0  0  0  0  0  2  0  0  0  0  0  0
  189.6950  177.3680  146.9310 C   0  0  0  0  0  1  0  0  0  0  0  0
  188.6980  176.4360  146.2690 C   0  0  1  0  0  3  0  0  0  0  0  0
  186.2540  177.8100  146.9450 C   0  0  0  0  0  2  0  0  0  0  0  0
  184.7560  177.5300  146.9130 C   0  0  0  0  0  2  0  0  0  0  0  0
  184.0600  178.4910  145.9550 C   0  0  0  0  0  2  0  0  0  0  0  0
  186.1040  178.5480  144.4720 C   0  0  2  0  0  3  0  0  0  0  0  0
  183.8650  179.2460  143.6030 C   0  0  0  0  0  1  0  0  0  0  0  0
  184.5930  178.2980  144.5360 C   0  0  2  0  0  3  0  0  0  0  0  0
  187.9300  177.1610  145.2830 N   0  0  0  0  0  0  0  0  0  0  0  0
  186.5850  178.2010  143.2060 O   0  0  0  0  0  1  0  0  0  0  0  0
  186.8180  177.7640  145.5470 C   0  0  0  0  0  0  0  0  0  0  0  0
  197.9410  173.7750  144.8420 C   0  0  0  0  0  1  0  0  0  0  0  0
  196.9910  174.5310  144.1320 O   0  0  0  0  0  0  0  0  0  0  0  0
  1  2  1  1  0  0  0
  1 16  1  0  0  0  0
  3  6  1  0  0  0  0
  4 11  2  0  0  0  0
  5 26  1  0  0  0  0
  6  2  1  6  0  0  0
  6 24  1  0  0  0  0
  7 14  1  0  0  0  0
  8 20  1  0  0  0  0
  8 13  1  0  0  0  0
  9 17  1  0  0  0  0
  9  3  1  0  0  0  0
 10 12  1  0  0  0  0
 10  8  1  0  0  0  0
 11  5  1  0  0  0  0
 12  7  1  0  0  0  0
 12 22  1  0  0  0  0
 13 24  1  0  0  0  0
 15 18  1  0  0  0  0
 17 22  1  0  0  0  0
 18 11  1  0  0  0  0
 18 16  1  0  0  0  0
 19  7  1  0  0  0  0
 20 15  1  0  0  0  0
 20  1  1  0  0  0  0
 21 15  1  0  0  0  0
 22 13  1  0  0  0  0
 22 37  1  0  0  0  0
 23 10  1  0  0  0  0
 23 21  1  0  0  0  0
 23 14  1  0  0  0  0
 26 25  1  0  0  0  0
 28 27  1  0  0  0  0
 29 28  1  0  0  0  0
 30 32  1  0  0  0  0
 30 35  1  0  0  0  0
 31 32  1  0  0  0  0
 32 29  1  0  0  0  0
 33 35  2  0  0  0  0
 33 26  1  0  0  0  0
 34 30  1  0  0  0  0
 35 27  1  0  0  0  0
 37 36  1  0  0  0  0
M  END
>  <MODEL>
4

>  <REMARK>
 VINA RESULT:      -7.8      2.166      3.818
  Name = 
  3 active torsions:
  status: ('A' for Active; 'I' for Inactive)
    1  A    between atoms: N_11  and  C_24
    2  A    between atoms: O_16  and  C_34
    3  A    between atoms: N_22  and  C_24
                            x       y       z     vdW  Elec       q    Type
                         _______ _______ _______ _____ _____    ______ ____

>  <TORSDO>
F 3

$$$$
=
 OpenBabel11062418503D

 37 43  0  0  1  0  0  0  0  0999 V2000
  194.5010  176.1550  142.4620 C   0  0  1  0  0  3  0  0  0  0  0  0
  194.7350  175.7750  140.9710 C   0  0  0  0  0  2  0  0  0  0  0  0
  195.5780  173.7540  139.6550 N   0  0  0  0  0  2  0  0  0  0  0  0
  191.9140  175.2820  146.2820 O   0  0  0  0  0  0  0  0  0  0  0  0
  190.8270  176.7700  144.8500 N   0  0  0  0  0  2  0  0  0  0  0  0
  194.5200  174.3100  140.5120 C   0  0  1  0  0  3  0  0  0  0  0  0
  196.1410  171.2000  144.9520 N   0  0  0  0  0  0  0  0  0  0  0  0
  195.8890  174.1020  143.1050 C   0  0  1  0  0  3  0  0  0  0  0  0
  197.1180  173.4880  140.5160 S   0  0  0  0  0  0  0  0  0  0  0  0
  196.6600  173.4570  144.2420 C   0  0  2  0  0  3  0  0  0  0  0  0
  191.9450  175.9560  145.2160 C   0  0  0  0  0  0  0  0  0  0  0  0
  196.7060  171.9690  143.8340 C   0  0  2  0  0  3  0  0  0  0  0  0
  194.9460  173.0000  142.6480 C   0  0  2  0  0  3  0  0  0  0  0  0
  195.3360  172.1150  145.7620 C   0  0  0  0  0  2  0  0  0  0  0  0
  194.1520  174.9210  144.4910 C   0  0  1  0  0  3  0  0  0  0  0  0
  193.0880  176.4100  142.9930 C   0  0  0  0  0  2  0  0  0  0  0  0
  196.6580  171.8340  141.2020 C   0  0  0  0  0  2  0  0  0  0  0  0
  193.1020  175.9140  144.3740 N   0  0  0  0  0  0  0  0  0  0  0  0
  197.1800  170.7940  145.7210 O   0  0  0  0  0  1  0  0  0  0  0  0
  195.2080  175.3530  143.5370 C   0  0  2  0  0  3  0  0  0  0  0  0
  194.8410  174.6310  145.8180 C   0  0  0  0  0  2  0  0  0  0  0  0
  195.8350  171.7960  142.5360 C   0  0  1  0  0  0  0  0  0  0  0  0
  195.9130  173.5020  145.6050 C   0  0  2  0  0  3  0  0  0  0  0  0
  193.9780  173.3060  141.5110 C   0  0  0  0  0  2  0  0  0  0  0  0
  189.9070  177.5450  146.9520 C   0  0  0  0  0  1  0  0  0  0  0  0
  189.6110  176.8330  145.6460 C   0  0  1  0  0  3  0  0  0  0  0  0
  187.0240  177.3940  146.7910 C   0  0  0  0  0  2  0  0  0  0  0  0
  185.6300  176.7770  146.7890 C   0  0  0  0  0  2  0  0  0  0  0  0
  184.6320  177.7280  146.1390 C   0  0  0  0  0  2  0  0  0  0  0  0
  186.4220  178.6010  144.5850 C   0  0  2  0  0  3  0  0  0  0  0  0
  183.9970  178.9140  144.0570 C   0  0  0  0  0  1  0  0  0  0  0  0
  185.0210  177.9870  144.6840 C   0  0  2  0  0  3  0  0  0  0  0  0
  188.5900  177.5510  144.9170 N   0  0  0  0  0  0  0  0  0  0  0  0
  186.8130  178.6690  143.2440 O   0  0  0  0  0  1  0  0  0  0  0  0
  187.4140  177.7950  145.3900 C   0  0  0  0  0  0  0  0  0  0  0  0
  195.3180  169.8030  141.4910 C   0  0  0  0  0  1  0  0  0  0  0  0
  195.0160  170.6400  142.5810 O   0  0  0  0  0  0  0  0  0  0  0  0
  1  2  1  6  0  0  0
  1 16  1  0  0  0  0
  1 20  1  0  0  0  0
  3  6  1  0  0  0  0
  3  9  1  0  0  0  0
  5 11  1  0  0  0  0
  5 26  1  0  0  0  0
  6  2  1  1  0  0  0
  6 24  1  0  0  0  0
  7 19  1  0  0  0  0
  7 14  1  0  0  0  0
  8 20  1  0  0  0  0
  8 10  1  0  0  0  0
  9 17  1  0  0  0  0
 10 23  1  0  0  0  0
 11  4  2  0  0  0  0
 12 10  1  0  0  0  0
 12  7  1  0  0  0  0
 13  8  1  0  0  0  0
 15 21  1  0  0  0  0
 16 18  1  0  0  0  0
 17 22  1  0  0  0  0
 18 15  1  0  0  0  0
 18 11  1  0  0  0  0
 20 15  1  0  0  0  0
 22 37  1  0  0  0  0
 22 13  1  0  0  0  0
 22 12  1  0  0  0  0
 23 14  1  0  0  0  0
 23 21  1  0  0  0  0
 24 13  1  0  0  0  0
 26 25  1  0  0  0  0
 28 27  1  0  0  0  0
 29 28  1  0  0  0  0
 30 32  1  0  0  0  0
 30 35  1  0  0  0  0
 31 32  1  0  0  0  0
 32 29  1  0  0  0  0
 33 35  2  0  0  0  0
 33 26  1  0  0  0  0
 34 30  1  0  0  0  0
 35 27  1  0  0  0  0
 36 37  1  0  0  0  0
M  END
>  <MODEL>
5

>  <REMARK>
 VINA RESULT:      -7.8      2.039      2.721
  Name = 
  3 active torsions:
  status: ('A' for Active; 'I' for Inactive)
    1  A    between atoms: N_11  and  C_24
    2  A    between atoms: O_16  and  C_34
    3  A    between atoms: N_22  and  C_24
                            x       y       z     vdW  Elec       q    Type
                         _______ _______ _______ _____ _____    ______ ____

>  <TORSDO>
F 3

$$$$
=
 OpenBabel11062418503D

 37 43  0  0  1  0  0  0  0  0999 V2000
  193.5500  175.0050  146.4760 C   0  0  1  0  0  3  0  0  0  0  0  0
  194.9460  175.5970  146.1270 C   0  0  0  0  0  2  0  0  0  0  0  0
  196.5130  175.6590  144.1110 N   0  0  0  0  0  2  0  0  0  0  0  0
  188.9430  175.2750  145.6070 O   0  0  0  0  0  0  0  0  0  0  0  0
  189.6000  176.8730  147.1760 N   0  0  0  0  0  2  0  0  0  0  0  0
  195.2300  176.0900  144.6860 C   0  0  1  0  0  3  0  0  0  0  0  0
  192.2830  172.5570  141.3930 N   0  0  0  0  0  0  0  0  0  0  0  0
  193.7250  173.5870  144.3510 C   0  0  1  0  0  3  0  0  0  0  0  0
  196.5770  173.9120  143.7590 S   0  0  0  0  0  0  0  0  0  0  0  0
  193.1550  172.3720  143.6450 C   0  0  2  0  0  3  0  0  0  0  0  0
  189.8690  175.7680  146.3080 C   0  0  0  0  0  0  0  0  0  0  0  0
  193.5300  172.6170  142.1680 C   0  0  2  0  0  3  0  0  0  0  0  0
  193.6280  174.6840  143.3020 C   0  0  2  0  0  3  0  0  0  0  0  0
  191.1710  172.7790  142.3170 C   0  0  0  0  0  2  0  0  0  0  0  0
  191.6360  174.3110  145.2030 C   0  0  1  0  0  3  0  0  0  0  0  0
  192.3620  175.9230  146.7750 C   0  0  0  0  0  2  0  0  0  0  0  0
  195.7550  174.0300  142.1060 C   0  0  0  0  0  2  0  0  0  0  0  0
  191.1900  175.2190  146.2410 N   0  0  0  0  0  0  0  0  0  0  0  0
  192.1660  171.2910  140.9240 O   0  0  0  0  0  1  0  0  0  0  0  0
  193.0000  173.8830  145.6170 C   0  0  2  0  0  3  0  0  0  0  0  0
  190.8620  173.0490  144.8490 C   0  0  0  0  0  2  0  0  0  0  0  0
  194.1880  174.0410  142.0660 C   0  0  1  0  0  0  0  0  0  0  0  0
  191.6020  172.3000  143.6840 C   0  0  2  0  0  3  0  0  0  0  0  0
  194.0960  176.0840  143.6780 C   0  0  0  0  0  2  0  0  0  0  0  0
  188.4000  178.7820  148.0600 C   0  0  0  0  0  1  0  0  0  0  0  0
  188.2880  177.4950  147.2670 C   0  0  1  0  0  3  0  0  0  0  0  0
  185.6740  178.6280  146.8220 C   0  0  0  0  0  2  0  0  0  0  0  0
  184.2680  178.1320  146.5030 C   0  0  0  0  0  2  0  0  0  0  0  0
  183.8180  178.6580  145.1430 C   0  0  0  0  0  2  0  0  0  0  0  0
  186.1950  178.5820  144.2910 C   0  0  2  0  0  3  0  0  0  0  0  0
  184.2620  178.6570  142.7050 C   0  0  0  0  0  1  0  0  0  0  0  0
  184.7470  178.1410  144.0460 C   0  0  2  0  0  3  0  0  0  0  0  0
  187.7920  177.7780  145.9390 N   0  0  0  0  0  0  0  0  0  0  0  0
  187.0400  177.9570  143.3690 O   0  0  0  0  0  1  0  0  0  0  0  0
  186.6170  178.2610  145.7050 C   0  0  0  0  0  0  0  0  0  0  0  0
  194.7980  175.0250  140.0690 C   0  0  0  0  0  1  0  0  0  0  0  0
  193.7260  174.7740  140.9430 O   0  0  0  0  0  0  0  0  0  0  0  0
  1  2  1  6  0  0  0
  1 16  1  0  0  0  0
  3  6  1  0  0  0  0
  4 11  2  0  0  0  0
  5 26  1  0  0  0  0
  6 24  1  6  0  0  0
  6  2  1  0  0  0  0
  7 12  1  0  0  0  0
  7 14  1  0  0  0  0
  8 20  1  0  0  0  0
  9  3  1  0  0  0  0
 10 23  1  0  0  0  0
 10  8  1  0  0  0  0
 11  5  1  0  0  0  0
 12 10  1  0  0  0  0
 13 24  1  0  0  0  0
 13  8  1  0  0  0  0
 14 23  1  0  0  0  0
 15 20  1  0  0  0  0
 15 18  1  0  0  0  0
 17  9  1  0  0  0  0
 18 11  1  0  0  0  0
 18 16  1  0  0  0  0
 19  7  1  0  0  0  0
 20  1  1  0  0  0  0
 21 15  1  0  0  0  0
 22 17  1  0  0  0  0
 22 12  1  0  0  0  0
 22 13  1  0  0  0  0
 23 21  1  0  0  0  0
 26 25  1  0  0  0  0
 28 27  1  0  0  0  0
 29 28  1  0  0  0  0
 30 35  1  0  0  0  0
 31 32  1  0  0  0  0
 32 30  1  0  0  0  0
 32 29  1  0  0  0  0
 33 26  1  0  0  0  0
 34 30  1  0  0  0  0
 35 33  2  0  0  0  0
 35 27  1  0  0  0  0
 36 37  1  0  0  0  0
 37 22  1  0  0  0  0
M  END
>  <MODEL>
6

>  <REMARK>
 VINA RESULT:      -7.8      2.155      2.833
  Name = 
  3 active torsions:
  status: ('A' for Active; 'I' for Inactive)
    1  A    between atoms: N_11  and  C_24
    2  A    between atoms: O_16  and  C_34
    3  A    between atoms: N_22  and  C_24
                            x       y       z     vdW  Elec       q    Type
                         _______ _______ _______ _____ _____    ______ ____

>  <TORSDO>
F 3

$$$$
=
 OpenBabel11062418503D

 37 43  0  0  1  0  0  0  0  0999 V2000
  188.4060  174.5580  142.1760 C   0  0  1  0  0  3  0  0  0  0  0  0
  188.0830  175.9230  142.8520 C   0  0  0  0  0  2  0  0  0  0  0  0
  189.1320  177.4450  144.6150 N   0  0  0  0  0  2  0  0  0  0  0  0
  191.3420  172.3150  139.2780 O   0  0  0  0  0  0  0  0  0  0  0  0
  189.7090  173.4820  138.0870 N   0  0  0  0  0  2  0  0  0  0  0  0
  189.2410  176.8640  143.2680 C   0  0  1  0  0  3  0  0  0  0  0  0
  193.3940  173.3600  144.8460 N   0  0  0  0  0  0  0  0  0  0  0  0
  190.1460  174.1680  144.0140 C   0  0  1  0  0  3  0  0  0  0  0  0
  189.3460  176.2470  145.9200 S   0  0  0  0  0  0  0  0  0  0  0  0
  190.9910  173.1050  144.6890 C   0  0  2  0  0  3  0  0  0  0  0  0
  190.3080  173.0370  139.3080 C   0  0  0  0  0  0  0  0  0  0  0  0
  192.1280  173.9200  145.3400 C   0  0  2  0  0  3  0  0  0  0  0  0
  191.1590  175.2390  143.6400 C   0  0  2  0  0  3  0  0  0  0  0  0
  193.1070  172.6240  143.6140 C   0  0  0  0  0  2  0  0  0  0  0  0
  190.4000  173.2650  141.8390 C   0  0  1  0  0  3  0  0  0  0  0  0
  188.7340  174.4820  140.6830 C   0  0  0  0  0  2  0  0  0  0  0  0
  191.1940  176.3140  145.9260 C   0  0  0  0  0  2  0  0  0  0  0  0
  189.7280  173.4090  140.5630 N   0  0  0  0  0  0  0  0  0  0  0  0
  193.8150  172.4560  145.7640 O   0  0  0  0  0  1  0  0  0  0  0  0
  189.3800  173.6200  142.8610 C   0  0  2  0  0  3  0  0  0  0  0  0
  191.0270  171.9470  142.2740 C   0  0  0  0  0  2  0  0  0  0  0  0
  191.9640  175.4190  144.8950 C   0  0  1  0  0  0  0  0  0  0  0  0
  191.6810  172.1320  143.6910 C   0  0  2  0  0  3  0  0  0  0  0  0
  190.6620  176.4770  142.9040 C   0  0  0  0  0  2  0  0  0  0  0  0
  189.3090  172.2520  136.0390 C   0  0  0  0  0  1  0  0  0  0  0  0
  190.2670  173.1640  136.7810 C   0  0  1  0  0  3  0  0  0  0  0  0
  192.8910  174.2750  136.3410 C   0  0  0  0  0  2  0  0  0  0  0  0
  193.7940  175.3250  136.9780 C   0  0  0  0  0  2  0  0  0  0  0  0
  194.0520  176.4650  135.9990 C   0  0  0  0  0  2  0  0  0  0  0  0
  191.7550  176.1640  134.9920 C   0  0  2  0  0  3  0  0  0  0  0  0
  193.0270  178.2960  134.6800 C   0  0  0  0  0  1  0  0  0  0  0  0
  192.7370  177.1520  135.6330 C   0  0  2  0  0  3  0  0  0  0  0  0
  190.4660  174.3820  136.0300 N   0  0  0  0  0  0  0  0  0  0  0  0
  190.5100  176.7800  134.8250 O   0  0  0  0  0  1  0  0  0  0  0  0
  191.6250  174.9200  135.8370 C   0  0  0  0  0  0  0  0  0  0  0  0
  193.6680  176.8010  145.6120 C   0  0  0  0  0  1  0  0  0  0  0  0
  193.1990  176.0190  144.5410 O   0  0  0  0  0  0  0  0  0  0  0  0
  1 16  1  6  0  0  0
  1  2  1  0  0  0  0
  1 20  1  0  0  0  0
  3  9  1  0  0  0  0
  4 11  2  0  0  0  0
  5 11  1  0  0  0  0
  6  2  1  1  0  0  0
  6  3  1  0  0  0  0
  7 12  1  0  0  0  0
  7 19  1  0  0  0  0
  8 10  1  0  0  0  0
  9 17  1  0  0  0  0
 10 12  1  0  0  0  0
 11 18  1  0  0  0  0
 13  8  1  0  0  0  0
 13 22  1  0  0  0  0
 14 23  1  0  0  0  0
 14  7  1  0  0  0  0
 15 21  1  0  0  0  0
 15 20  1  0  0  0  0
 18 16  1  0  0  0  0
 18 15  1  0  0  0  0
 20  8  1  0  0  0  0
 21 23  1  0  0  0  0
 22 12  1  0  0  0  0
 22 17  1  0  0  0  0
 23 10  1  0  0  0  0
 24  6  1  0  0  0  0
 24 13  1  0  0  0  0
 25 26  1  0  0  0  0
 26  5  1  0  0  0  0
 27 28  1  0  0  0  0
 29 28  1  0  0  0  0
 30 32  1  0  0  0  0
 30 35  1  0  0  0  0
 31 32  1  0  0  0  0
 32 29  1  0  0  0  0
 33 26  1  0  0  0  0
 34 30  1  0  0  0  0
 35 33  2  0  0  0  0
 35 27  1  0  0  0  0
 37 22  1  0  0  0  0
 37 36  1  0  0  0  0
M  END
>  <MODEL>
7

>  <REMARK>
 VINA RESULT:      -7.7      4.844      7.758
  Name = 
  3 active torsions:
  status: ('A' for Active; 'I' for Inactive)
    1  A    between atoms: N_11  and  C_24
    2  A    between atoms: O_16  and  C_34
    3  A    between atoms: N_22  and  C_24
                            x       y       z     vdW  Elec       q    Type
                         _______ _______ _______ _____ _____    ______ ____

>  <TORSDO>
F 3

$$$$
=
 OpenBabel11062418503D

 37 43  0  0  1  0  0  0  0  0999 V2000
  192.4980  171.9660  142.5650 C   0  0  1  0  0  3  0  0  0  0  0  0
  192.9080  170.8080  143.5200 C   0  0  0  0  0  2  0  0  0  0  0  0
  194.8120  170.2920  145.1430 N   0  0  0  0  0  2  0  0  0  0  0  0
  191.0280  176.4210  142.3500 O   0  0  0  0  0  0  0  0  0  0  0  0
  189.2460  174.9620  142.7230 N   0  0  0  0  0  2  0  0  0  0  0  0
  193.6420  171.1320  144.8460 C   0  0  1  0  0  3  0  0  0  0  0  0
  196.8660  175.6110  143.5990 N   0  0  0  0  0  0  0  0  0  0  0  0
  194.8630  172.9080  142.8460 C   0  0  1  0  0  3  0  0  0  0  0  0
  196.1910  170.5900  144.0520 S   0  0  0  0  0  0  0  0  0  0  0  0
  195.8740  173.8660  142.2460 C   0  0  2  0  0  3  0  0  0  0  0  0
  190.6300  175.2310  142.4810 C   0  0  0  0  0  0  0  0  0  0  0  0
  196.8280  174.1530  143.4240 C   0  0  2  0  0  3  0  0  0  0  0  0
  194.8000  173.3290  144.3060 C   0  0  2  0  0  3  0  0  0  0  0  0
  195.6730  176.1700  142.9630 C   0  0  0  0  0  2  0  0  0  0  0  0
  192.9990  174.3100  142.4310 C   0  0  1  0  0  3  0  0  0  0  0  0
  191.2330  172.7880  142.8280 C   0  0  0  0  0  2  0  0  0  0  0  0
  196.8580  172.0350  144.9950 C   0  0  0  0  0  2  0  0  0  0  0  0
  191.5600  174.1470  142.3820 N   0  0  0  0  0  0  0  0  0  0  0  0
  197.9390  176.0670  142.9080 O   0  0  0  0  0  1  0  0  0  0  0  0
  193.5560  172.9630  142.1340 C   0  0  2  0  0  3  0  0  0  0  0  0
  193.7280  175.3010  141.5340 C   0  0  0  0  0  2  0  0  0  0  0  0
  196.2430  173.4480  144.7020 C   0  0  1  0  0  0  0  0  0  0  0  0
  195.2670  175.2400  141.8440 C   0  0  2  0  0  3  0  0  0  0  0  0
  193.8440  172.5860  145.2300 C   0  0  0  0  0  2  0  0  0  0  0  0
  187.0770  175.7230  141.9570 C   0  0  0  0  0  1  0  0  0  0  0  0
  188.2560  176.0190  142.8630 C   0  0  1  0  0  3  0  0  0  0  0  0
  186.0850  177.7310  143.6830 C   0  0  0  0  0  2  0  0  0  0  0  0
  185.9070  179.1270  144.2690 C   0  0  0  0  0  2  0  0  0  0  0  0
  185.2690  179.0430  145.6520 C   0  0  0  0  0  2  0  0  0  0  0  0
  186.4190  176.8360  146.0850 C   0  0  2  0  0  3  0  0  0  0  0  0
  185.5260  178.2140  147.9730 C   0  0  0  0  0  1  0  0  0  0  0  0
  186.1730  178.2590  146.6010 C   0  0  2  0  0  3  0  0  0  0  0  0
  187.8120  176.0890  144.2370 N   0  0  0  0  0  0  0  0  0  0  0  0
  187.3790  176.2050  146.8830 O   0  0  0  0  0  1  0  0  0  0  0  0
  186.8610  176.8640  144.6420 C   0  0  0  0  0  0  0  0  0  0  0  0
  197.1980  173.6960  146.7890 C   0  0  0  0  0  1  0  0  0  0  0  0
  196.3150  174.2680  145.8560 O   0  0  0  0  0  0  0  0  0  0  0  0
  1 16  1  1  0  0  0
  1  2  1  0  0  0  0
  4 11  2  0  0  0  0
  5 26  1  0  0  0  0
  6  2  1  6  0  0  0
  6  3  1  0  0  0  0
  6 24  1  0  0  0  0
  8 13  1  0  0  0  0
  9 17  1  0  0  0  0
  9  3  1  0  0  0  0
 10  8  1  0  0  0  0
 10 12  1  0  0  0  0
 11  5  1  0  0  0  0
 12  7  1  0  0  0  0
 12 22  1  0  0  0  0
 13 22  1  0  0  0  0
 13 24  1  0  0  0  0
 14  7  1  0  0  0  0
 18 15  1  0  0  0  0
 18 11  1  0  0  0  0
 18 16  1  0  0  0  0
 19  7  1  0  0  0  0
 20 15  1  0  0  0  0
 20  1  1  0  0  0  0
 20  8  1  0  0  0  0
 21 23  1  0  0  0  0
 21 15  1  0  0  0  0
 22 17  1  0  0  0  0
 22 37  1  0  0  0  0
 23 10  1  0  0  0  0
 23 14  1  0  0  0  0
 25 26  1  0  0  0  0
 26 33  1  0  0  0  0
 27 28  1  0  0  0  0
 27 35  1  0  0  0  0
 28 29  1  0  0  0  0
 29 32  1  0  0  0  0
 30 32  1  0  0  0  0
 30 34  1  0  0  0  0
 32 31  1  0  0  0  0
 33 35  2  0  0  0  0
 35 30  1  0  0  0  0
 37 36  1  0  0  0  0
M  END
>  <MODEL>
8

>  <REMARK>
 VINA RESULT:      -7.6      2.032      3.725
  Name = 
  3 active torsions:
  status: ('A' for Active; 'I' for Inactive)
    1  A    between atoms: N_11  and  C_24
    2  A    between atoms: O_16  and  C_34
    3  A    between atoms: N_22  and  C_24
                            x       y       z     vdW  Elec       q    Type
                         _______ _______ _______ _____ _____    ______ ____

>  <TORSDO>
F 3

$$$$
=
 OpenBabel11062418503D

 37 43  0  0  1  0  0  0  0  0999 V2000
  195.2750  176.4030  143.1280 C   0  0  1  0  0  3  0  0  0  0  0  0
  195.5260  176.3340  141.5940 C   0  0  0  0  0  2  0  0  0  0  0  0
  196.3930  174.6250  139.9040 N   0  0  0  0  0  2  0  0  0  0  0  0
  192.6490  174.7660  146.6610 O   0  0  0  0  0  0  0  0  0  0  0  0
  191.5720  176.5120  145.5490 N   0  0  0  0  0  2  0  0  0  0  0  0
  195.3230  174.9930  140.8440 C   0  0  1  0  0  3  0  0  0  0  0  0
  196.9090  171.0490  144.5780 N   0  0  0  0  0  0  0  0  0  0  0  0
  196.6650  174.2650  143.3570 C   0  0  1  0  0  3  0  0  0  0  0  0
  197.9240  174.1930  140.7110 S   0  0  0  0  0  0  0  0  0  0  0  0
  197.4250  173.4040  144.3470 C   0  0  2  0  0  3  0  0  0  0  0  0
  192.6900  175.6430  145.7550 C   0  0  0  0  0  0  0  0  0  0  0  0
  197.4820  172.0300  143.6460 C   0  0  2  0  0  3  0  0  0  0  0  0
  195.7310  173.2770  142.6740 C   0  0  2  0  0  3  0  0  0  0  0  0
  196.0910  171.7780  145.5480 C   0  0  0  0  0  2  0  0  0  0  0  0
  194.9080  174.7810  144.8600 C   0  0  1  0  0  3  0  0  0  0  0  0
  193.8550  176.5420  143.6840 C   0  0  0  0  0  2  0  0  0  0  0  0
  197.4640  172.4330  141.0410 C   0  0  0  0  0  2  0  0  0  0  0  0
  193.8560  175.7750  144.9350 N   0  0  0  0  0  0  0  0  0  0  0  0
  197.9410  170.4970  145.2610 O   0  0  0  0  0  1  0  0  0  0  0  0
  195.9730  175.4010  144.0260 C   0  0  2  0  0  3  0  0  0  0  0  0
  195.5850  174.2300  146.1080 C   0  0  0  0  0  2  0  0  0  0  0  0
  196.6270  172.1220  142.3310 C   0  0  1  0  0  0  0  0  0  0  0  0
  196.6630  173.1700  145.6820 C   0  0  2  0  0  3  0  0  0  0  0  0
  194.7750  173.8050  141.6130 C   0  0  0  0  0  2  0  0  0  0  0  0
  190.5100  177.1900  147.6170 C   0  0  0  0  0  1  0  0  0  0  0  0
  190.3470  176.4100  146.3270 C   0  0  1  0  0  3  0  0  0  0  0  0
  189.1060  174.9290  144.1870 C   0  0  0  0  0  2  0  0  0  0  0  0
  189.2160  174.8300  142.6700 C   0  0  0  0  0  2  0  0  0  0  0  0
  187.9100  175.2680  142.0150 C   0  0  0  0  0  2  0  0  0  0  0  0
  187.4940  176.9260  143.8750 C   0  0  2  0  0  3  0  0  0  0  0  0
  186.3240  177.1410  141.6740 C   0  0  0  0  0  1  0  0  0  0  0  0
  187.6120  176.7260  142.3590 C   0  0  2  0  0  3  0  0  0  0  0  0
  189.2420  176.9460  145.5650 N   0  0  0  0  0  0  0  0  0  0  0  0
  187.3900  178.2910  144.1630 O   0  0  0  0  0  1  0  0  0  0  0  0
  188.6820  176.3200  144.5840 C   0  0  0  0  0  0  0  0  0  0  0  0
  196.4150  170.1290  141.1860 C   0  0  0  0  0  1  0  0  0  0  0  0
  195.8120  170.9800  142.1300 O   0  0  0  0  0  0  0  0  0  0  0  0
  1  2  1  6  0  0  0
  1 16  1  0  0  0  0
  1 20  1  0  0  0  0
  3  9  1  0  0  0  0
  3  6  1  0  0  0  0
  5 11  1  0  0  0  0
  5 26  1  0  0  0  0
  6  2  1  1  0  0  0
  6 24  1  0  0  0  0
  7 19  1  0  0  0  0
  7 14  1  0  0  0  0
  8 20  1  0  0  0  0
  8 10  1  0  0  0  0
  9 17  1  0  0  0  0
 10 23  1  0  0  0  0
 11  4  2  0  0  0  0
 12 10  1  0  0  0  0
 12  7  1  0  0  0  0
 13  8  1  0  0  0  0
 14 23  1  0  0  0  0
 15 18  1  0  0  0  0
 15 21  1  0  0  0  0
 16 18  1  0  0  0  0
 17 22  1  0  0  0  0
 18 11  1  0  0  0  0
 20 15  1  0  0  0  0
 22 13  1  0  0  0  0
 22 12  1  0  0  0  0
 23 21  1  0  0  0  0
 24 13  1  0  0  0  0
 26 25  1  0  0  0  0
 27 35  1  0  0  0  0
 28 27  1  0  0  0  0
 29 32  1  0  0  0  0
 29 28  1  0  0  0  0
 30 34  1  0  0  0  0
 30 35  1  0  0  0  0
 31 32  1  0  0  0  0
 32 30  1  0  0  0  0
 33 26  1  0  0  0  0
 35 33  2  0  0  0  0
 36 37  1  0  0  0  0
 37 22  1  0  0  0  0
M  END
>  <MODEL>
9

>  <REMARK>
 VINA RESULT:      -7.6      2.356      3.310
  Name = 
  3 active torsions:
  status: ('A' for Active; 'I' for Inactive)
    1  A    between atoms: N_11  and  C_24
    2  A    between atoms: O_16  and  C_34
    3  A    between atoms: N_22  and  C_24
                            x       y       z     vdW  Elec       q    Type
                         _______ _______ _______ _____ _____    ______ ____

>  <TORSDO>
F 3

$$$$
