=
 OpenBabel11062422493D

 46 49  0  0  1  0  0  0  0  0999 V2000
  191.2390  171.9840  142.8950 C   0  0  1  0  0  3  0  0  0  0  0  0
  191.4050  171.5720  140.3450 C   0  0  0  0  0  2  0  0  0  0  0  0
  189.5860  172.9840  141.2780 C   0  0  1  0  0  0  0  0  0  0  0  0
  188.4030  173.6640  139.0420 C   0  0  0  0  0  1  0  0  0  0  0  0
  189.0020  172.5670  139.9090 C   0  0  1  0  0  3  0  0  0  0  0  0
  191.2610  171.2870  144.1030 O   0  0  0  0  0  1  0  0  0  0  0  0
  191.0400  171.0470  141.7180 C   0  0  2  0  0  0  0  0  0  0  0  0
  189.8580  171.8270  142.2510 C   0  0  1  0  0  3  0  0  0  0  0  0
  190.5100  172.7710  140.0690 C   0  0  2  0  0  0  0  0  0  0  0  0
  190.6920  168.8230  141.0190 O   0  0  0  0  0  0  0  0  0  0  0  0
  190.9440  169.5720  141.9490 C   0  0  0  0  0  3  0  0  0  0  0  0
  189.6000  174.4400  141.8620 C   0  0  2  0  0  3  0  0  0  0  0  0
  190.7740  174.6650  142.8280 C   0  0  0  0  0  2  0  0  0  0  0  0
  190.4320  175.6240  143.9530 C   0  0  2  0  0  3  0  0  0  0  0  0
  190.6010  178.0810  144.3430 O   0  0  0  0  0  1  0  0  0  0  0  0
  192.0260  177.0560  142.8620 O   0  0  0  0  0  0  0  0  0  0  0  0
  191.0760  176.9510  143.6820 C   0  0  0  0  0  0  0  0  0  0  0  0
  190.8740  175.0970  145.1780 O   0  0  0  0  0  0  0  0  0  0  0  0
  189.9160  174.2100  145.5560 N   0  0  0  0  0  2  0  0  0  0  0  0
  189.2220  174.7620  146.7110 C   0  0  0  0  0  1  0  0  0  0  0  0
  188.3010  174.9660  142.4790 C   0  0  0  0  0  2  0  0  0  0  0  0
  187.6670  175.9610  141.6180 N   0  0  0  0  0  2  0  0  0  0  0  0
  187.0650  176.9620  142.4860 C   0  0  1  0  0  3  0  0  0  0  0  0
  185.7720  177.2600  142.0530 O   0  0  0  0  0  1  0  0  0  0  0  0
  187.0190  176.4410  143.9130 C   0  0  0  0  0  2  0  0  0  0  0  0
  187.1280  177.5810  144.8990 C   0  0  0  0  0  2  0  0  0  0  0  0
  186.5520  177.1750  146.1840 C   0  0  0  0  0  0  0  0  0  0  0  0
  186.0860  176.8500  147.1900 N   0  0  0  0  0  0  0  0  0  0  0  0
  191.1150  173.9650  139.6180 O   0  0  0  0  0  0  0  0  0  0  0  0
  194.7820  173.9020  140.2910 C   0  0  1  0  0  3  0  0  0  0  0  0
  194.3370  173.9460  137.6990 C   0  0  2  0  0  3  0  0  0  0  0  0
  193.3390  174.3610  140.4520 C   0  0  0  0  0  2  0  0  0  0  0  0
  192.8750  174.2690  138.0340 C   0  0  0  0  0  2  0  0  0  0  0  0
  192.4730  173.6980  139.3880 C   0  0  2  0  0  3  0  0  0  0  0  0
  196.4670  174.3010  138.6650 O   0  0  0  0  0  0  0  0  0  0  0  0
  195.2780  174.1420  138.8740 C   0  0  0  0  0  0  0  0  0  0  0  0
  196.7510  173.6510  141.8790 S   0  0  0  0  0  0  0  0  0  0  0  0
  195.6840  174.4630  141.3630 C   0  0  0  0  0  0  0  0  0  0  0  0
  195.4730  175.8350  141.9350 C   0  0  0  0  0  2  0  0  0  0  0  0
  196.9660  177.0560  143.3600 O   0  0  0  0  0  1  0  0  0  0  0  0
  196.1200  175.9450  143.3070 C   0  0  1  0  0  3  0  0  0  0  0  0
  195.0770  176.0260  144.3740 C   0  0  0  0  0  0  0  0  0  0  0  0
  194.2980  174.8090  144.7400 C   0  0  0  0  0  1  0  0  0  0  0  0
  194.8310  177.0850  144.9190 O   0  0  0  0  0  0  0  0  0  0  0  0
  194.4530  175.8830  136.3350 O   0  0  0  0  0  0  0  0  0  0  0  0
  194.7640  174.7130  136.4850 C   0  0  0  0  0  3  0  0  0  0  0  0
  1  6  1  1  0  0  0
  2  7  1  0  0  0  0
  3 12  1  1  0  0  0
  3  8  1  0  0  0  0
  5  4  1  6  0  0  0
  5  9  1  0  0  0  0
  5  3  1  0  0  0  0
  7 11  1  1  0  0  0
  7  8  1  0  0  0  0
  7  1  1  0  0  0  0
  8  1  1  0  0  0  0
  9  2  1  0  0  0  0
  9  3  1  0  0  0  0
 10 11  2  0  0  0  0
 12 21  1  0  0  0  0
 12 13  1  0  0  0  0
 13 14  1  0  0  0  0
 14 18  1  0  0  0  0
 16 17  2  0  0  0  0
 17 14  1  0  0  0  0
 17 15  1  0  0  0  0
 18 19  1  0  0  0  0
 19 20  1  0  0  0  0
 22 21  1  0  0  0  0
 22 23  1  0  0  0  0
 23 25  1  0  0  0  0
 24 23  1  0  0  0  0
 25 26  1  0  0  0  0
 26 27  1  0  0  0  0
 27 28  3  0  0  0  0
 29  9  1  0  0  0  0
 30 32  1  0  0  0  0
 30 38  1  0  0  0  0
 31 33  1  0  0  0  0
 31 36  1  0  0  0  0
 33 34  1  0  0  0  0
 34 29  1  0  0  0  0
 34 32  1  0  0  0  0
 35 36  2  0  0  0  0
 36 30  1  0  0  0  0
 38 37  2  0  0  0  0
 38 39  1  0  0  0  0
 39 41  1  0  0  0  0
 41 40  1  0  0  0  0
 41 42  1  0  0  0  0
 42 43  1  0  0  0  0
 42 44  2  0  0  0  0
 45 46  2  0  0  0  0
 46 31  1  0  0  0  0
M  END
>  <MODEL>
1

>  <REMARK>
 VINA RESULT:      -5.0      0.000      0.000
  Name = 
  20 active torsions:
  status: ('A' for Active; 'I' for Inactive)
    1  A    between atoms: C_2  and  C_16
    2  A    between atoms: C_2  and  N_22
    3  A    between atoms: C_3  and  C_30
    4  A    between atoms: C_4  and  C_7
    5  A    between atoms: C_4  and  C_11
    6  A    between atoms: C_5  and  C_21
    7  A    between atoms: C_7  and  N_22
    8  A    between atoms: C_9  and  O_23
    9  A    between atoms: C_9  and  C_25
   10  A    between atoms: C_9  and  C_27
   11  A    between atoms: C_10  and  C_35
   12  A    between atoms: C_11  and  C_26
   13  A    between atoms: N_15  and  O_23
   14  A    between atoms: C_16  and  C_27
   15  A    between atoms: C_16  and  C_32
   16  A    between atoms: C_18  and  C_39
   17  A    between atoms: C_19  and  C_21
   18  A    between atoms: C_19  and  C_30
   19  A    between atoms: O_20  and  C_42
   20  A    between atoms: O_20  and  C_46
                            x       y       z     vdW  Elec       q    Type
                         _______ _______ _______ _____ _____    ______ ____

>  <TORSDO>
F 20

$$$$
=
 OpenBabel11062422493D

 46 49  0  0  1  0  0  0  0  0999 V2000
  190.4260  176.9480  144.8760 C   0  0  1  0  0  3  0  0  0  0  0  0
  191.6280  174.9940  146.0750 C   0  0  0  0  0  2  0  0  0  0  0  0
  189.7080  174.5540  144.5600 C   0  0  1  0  0  0  0  0  0  0  0  0
  189.6510  171.9390  144.7140 C   0  0  0  0  0  1  0  0  0  0  0  0
  189.7300  173.2780  145.4320 C   0  0  1  0  0  3  0  0  0  0  0  0
  189.8740  178.2010  145.1450 O   0  0  0  0  0  1  0  0  0  0  0  0
  190.6710  176.1650  146.1530 C   0  0  2  0  0  0  0  0  0  0  0  0
  189.4430  175.8610  145.3230 C   0  0  1  0  0  3  0  0  0  0  0  0
  191.0380  173.9950  145.0890 C   0  0  2  0  0  0  0  0  0  0  0  0
  191.2720  177.1000  148.2320 O   0  0  0  0  0  0  0  0  0  0  0  0
  190.3640  176.7870  147.4790 C   0  0  0  0  0  3  0  0  0  0  0  0
  189.5930  174.5910  142.9960 C   0  0  2  0  0  3  0  0  0  0  0  0
  189.1870  175.9800  142.4780 C   0  0  0  0  0  2  0  0  0  0  0  0
  187.6880  176.1240  142.2990 C   0  0  2  0  0  3  0  0  0  0  0  0
  186.8850  177.8700  140.7080 O   0  0  0  0  0  1  0  0  0  0  0  0
  187.6080  175.8410  139.9120 O   0  0  0  0  0  0  0  0  0  0  0  0
  187.4000  176.5910  140.9020 C   0  0  0  0  0  0  0  0  0  0  0  0
  187.1810  177.0340  143.2420 O   0  0  0  0  0  0  0  0  0  0  0  0
  186.0820  176.4320  143.7700 N   0  0  0  0  0  2  0  0  0  0  0  0
  185.6500  177.2150  144.9190 C   0  0  0  0  0  1  0  0  0  0  0  0
  188.7420  173.5090  142.3240 C   0  0  0  0  0  2  0  0  0  0  0  0
  189.2610  173.1670  141.0030 N   0  0  0  0  0  2  0  0  0  0  0  0
  190.4920  172.4180  141.2040 C   0  0  1  0  0  3  0  0  0  0  0  0
  190.3130  171.0860  140.8240 O   0  0  0  0  0  1  0  0  0  0  0  0
  191.6090  173.0390  140.3830 C   0  0  0  0  0  2  0  0  0  0  0  0
  191.7600  172.3200  139.0620 C   0  0  0  0  0  2  0  0  0  0  0  0
  191.5630  173.2690  137.9620 C   0  0  0  0  0  0  0  0  0  0  0  0
  191.4070  174.0270  137.1050 N   0  0  0  0  0  0  0  0  0  0  0  0
  191.8740  173.4940  144.0670 O   0  0  0  0  0  0  0  0  0  0  0  0
  195.4520  174.5400  143.9670 C   0  0  1  0  0  3  0  0  0  0  0  0
  195.1960  172.3180  145.3500 C   0  0  2  0  0  3  0  0  0  0  0  0
  194.0660  174.2420  143.4090 C   0  0  0  0  0  2  0  0  0  0  0  0
  193.7630  172.2360  144.8070 C   0  0  0  0  0  2  0  0  0  0  0  0
  193.2030  173.6190  144.4990 C   0  0  2  0  0  3  0  0  0  0  0  0
  197.2810  173.1860  144.6470 O   0  0  0  0  0  0  0  0  0  0  0  0
  196.0700  173.2980  144.5890 C   0  0  0  0  0  0  0  0  0  0  0  0
  196.8100  176.5590  143.2330 S   0  0  0  0  0  0  0  0  0  0  0  0
  196.3370  175.2310  142.9590 C   0  0  0  0  0  0  0  0  0  0  0  0
  196.7100  174.5810  141.6570 C   0  0  0  0  0  2  0  0  0  0  0  0
  197.2620  175.7720  139.6500 O   0  0  0  0  0  1  0  0  0  0  0  0
  196.2020  175.4080  140.4860 C   0  0  1  0  0  3  0  0  0  0  0  0
  195.1640  174.6520  139.7210 C   0  0  0  0  0  0  0  0  0  0  0  0
  195.2210  173.1640  139.6700 C   0  0  0  0  0  1  0  0  0  0  0  0
  194.2960  175.2430  139.1080 O   0  0  0  0  0  0  0  0  0  0  0  0
  196.3120  170.5350  146.4450 O   0  0  0  0  0  0  0  0  0  0  0  0
  195.7940  170.9460  145.4200 C   0  0  0  0  0  3  0  0  0  0  0  0
  1  6  1  1  0  0  0
  1  8  1  0  0  0  0
  1  7  1  0  0  0  0
  2  7  1  0  0  0  0
  3 12  1  6  0  0  0
  3  9  1  0  0  0  0
  3  8  1  0  0  0  0
  3  5  1  0  0  0  0
  5  4  1  6  0  0  0
  7 11  1  1  0  0  0
  8  7  1  0  0  0  0
  9  5  1  0  0  0  0
  9  2  1  0  0  0  0
 11 10  2  0  0  0  0
 13 12  1  0  0  0  0
 14 13  1  0  0  0  0
 14 18  1  0  0  0  0
 15 17  1  0  0  0  0
 16 17  2  0  0  0  0
 17 14  1  0  0  0  0
 18 19  1  0  0  0  0
 19 20  1  0  0  0  0
 21 12  1  0  0  0  0
 22 23  1  0  0  0  0
 22 21  1  0  0  0  0
 24 23  1  0  0  0  0
 25 23  1  0  0  0  0
 26 25  1  0  0  0  0
 27 26  1  0  0  0  0
 28 27  3  0  0  0  0
 29 34  1  0  0  0  0
 29  9  1  0  0  0  0
 30 36  1  0  0  0  0
 31 46  1  0  0  0  0
 32 30  1  0  0  0  0
 32 34  1  0  0  0  0
 33 31  1  0  0  0  0
 34 33  1  0  0  0  0
 36 35  2  0  0  0  0
 36 31  1  0  0  0  0
 38 37  2  0  0  0  0
 38 30  1  0  0  0  0
 39 38  1  0  0  0  0
 40 41  1  0  0  0  0
 41 39  1  0  0  0  0
 42 41  1  0  0  0  0
 43 42  1  0  0  0  0
 44 42  2  0  0  0  0
 46 45  2  0  0  0  0
M  END
>  <MODEL>
2

>  <REMARK>
 VINA RESULT:      -4.9      2.434      6.197
  Name = 
  20 active torsions:
  status: ('A' for Active; 'I' for Inactive)
    1  A    between atoms: C_2  and  C_16
    2  A    between atoms: C_2  and  N_22
    3  A    between atoms: C_3  and  C_30
    4  A    between atoms: C_4  and  C_7
    5  A    between atoms: C_4  and  C_11
    6  A    between atoms: C_5  and  C_21
    7  A    between atoms: C_7  and  N_22
    8  A    between atoms: C_9  and  O_23
    9  A    between atoms: C_9  and  C_25
   10  A    between atoms: C_9  and  C_27
   11  A    between atoms: C_10  and  C_35
   12  A    between atoms: C_11  and  C_26
   13  A    between atoms: N_15  and  O_23
   14  A    between atoms: C_16  and  C_27
   15  A    between atoms: C_16  and  C_32
   16  A    between atoms: C_18  and  C_39
   17  A    between atoms: C_19  and  C_21
   18  A    between atoms: C_19  and  C_30
   19  A    between atoms: O_20  and  C_42
   20  A    between atoms: O_20  and  C_46
                            x       y       z     vdW  Elec       q    Type
                         _______ _______ _______ _____ _____    ______ ____

>  <TORSDO>
F 20

$$$$
=
 OpenBabel11062422493D

 46 49  0  0  1  0  0  0  0  0999 V2000
  191.6630  177.5670  143.5800 C   0  0  1  0  0  3  0  0  0  0  0  0
  192.6230  175.1750  143.8110 C   0  0  0  0  0  2  0  0  0  0  0  0
  190.3760  175.7250  144.7180 C   0  0  1  0  0  0  0  0  0  0  0  0
  189.7080  173.3620  145.6300 C   0  0  0  0  0  1  0  0  0  0  0  0
  190.7520  174.4640  145.5290 C   0  0  1  0  0  3  0  0  0  0  0  0
  192.0270  178.8990  143.7850 O   0  0  0  0  0  1  0  0  0  0  0  0
  192.6250  176.6180  144.2690 C   0  0  2  0  0  0  0  0  0  0  0  0
  191.3000  176.9340  144.9280 C   0  0  1  0  0  3  0  0  0  0  0  0
  191.2320  174.6190  144.0840 C   0  0  2  0  0  0  0  0  0  0  0  0
  194.9250  176.7230  144.7780 O   0  0  0  0  0  0  0  0  0  0  0  0
  193.8090  177.1620  145.0050 C   0  0  0  0  0  3  0  0  0  0  0  0
  189.0030  175.9780  144.0020 C   0  0  2  0  0  3  0  0  0  0  0  0
  189.1830  176.3920  142.5340 C   0  0  0  0  0  2  0  0  0  0  0  0
  188.0970  175.8390  141.6310 C   0  0  2  0  0  3  0  0  0  0  0  0
  185.8990  176.9410  142.0530 O   0  0  0  0  0  1  0  0  0  0  0  0
  187.3220  177.7940  140.4640 O   0  0  0  0  0  0  0  0  0  0  0  0
  187.0970  176.9200  141.3430 C   0  0  0  0  0  0  0  0  0  0  0  0
  187.4770  174.7400  142.2490 O   0  0  0  0  0  0  0  0  0  0  0  0
  187.6900  173.6880  141.4150 N   0  0  0  0  0  2  0  0  0  0  0  0
  187.5740  172.4650  142.1950 C   0  0  0  0  0  1  0  0  0  0  0  0
  188.0060  176.9120  144.6960 C   0  0  0  0  0  2  0  0  0  0  0  0
  186.9250  176.1630  145.3290 N   0  0  0  0  0  2  0  0  0  0  0  0
  186.6750  176.7780  146.6230 C   0  0  1  0  0  3  0  0  0  0  0  0
  187.7130  177.6540  146.9490 O   0  0  0  0  0  1  0  0  0  0  0  0
  185.3590  177.5350  146.5850 C   0  0  0  0  0  2  0  0  0  0  0  0
  185.6050  179.0260  146.5210 C   0  0  0  0  0  2  0  0  0  0  0  0
  185.4880  179.4820  145.1330 C   0  0  0  0  0  0  0  0  0  0  0  0
  185.3860  179.8510  144.0430 N   0  0  0  0  0  0  0  0  0  0  0  0
  190.5710  173.9360  143.0410 O   0  0  0  0  0  0  0  0  0  0  0  0
  192.2720  172.2990  140.1540 C   0  0  1  0  0  3  0  0  0  0  0  0
  192.6580  170.8980  142.3450 C   0  0  2  0  0  3  0  0  0  0  0  0
  191.1350  172.9820  140.9020 C   0  0  0  0  0  2  0  0  0  0  0  0
  191.5820  171.7730  143.0020 C   0  0  0  0  0  2  0  0  0  0  0  0
  191.5220  173.1560  142.3660 C   0  0  2  0  0  3  0  0  0  0  0  0
  193.1770  170.1030  140.1790 O   0  0  0  0  0  0  0  0  0  0  0  0
  192.6690  170.9980  140.8310 C   0  0  0  0  0  0  0  0  0  0  0  0
  192.9540  172.6360  137.7280 S   0  0  0  0  0  0  0  0  0  0  0  0
  191.9850  172.1640  138.6780 C   0  0  0  0  0  0  0  0  0  0  0  0
  190.6950  171.5830  138.1730 C   0  0  0  0  0  2  0  0  0  0  0  0
  189.5970  171.3210  136.0580 O   0  0  0  0  0  1  0  0  0  0  0  0
  190.3010  172.2280  136.8540 C   0  0  1  0  0  3  0  0  0  0  0  0
  189.4890  173.4600  137.0940 C   0  0  0  0  0  0  0  0  0  0  0  0
  188.3200  173.4060  138.0160 C   0  0  0  0  0  1  0  0  0  0  0  0
  189.7500  174.4960  136.5120 O   0  0  0  0  0  0  0  0  0  0  0  0
  192.6320  169.2130  144.0150 O   0  0  0  0  0  0  0  0  0  0  0  0
  192.5320  169.4860  142.8290 C   0  0  0  0  0  3  0  0  0  0  0  0
  1  6  1  1  0  0  0
  1  7  1  0  0  0  0
  1  8  1  0  0  0  0
  2  9  1  0  0  0  0
  2  7  1  0  0  0  0
  3 12  1  6  0  0  0
  3  8  1  0  0  0  0
  3  5  1  0  0  0  0
  5  4  1  6  0  0  0
  7  8  1  0  0  0  0
  7 11  1  1  0  0  0
  9  3  1  0  0  0  0
  9  5  1  0  0  0  0
 10 11  2  0  0  0  0
 12 21  1  0  0  0  0
 13 12  1  0  0  0  0
 14 18  1  0  0  0  0
 14 13  1  0  0  0  0
 16 17  2  0  0  0  0
 17 14  1  0  0  0  0
 17 15  1  0  0  0  0
 19 20  1  0  0  0  0
 19 18  1  0  0  0  0
 21 22  1  0  0  0  0
 22 23  1  0  0  0  0
 23 24  1  0  0  0  0
 25 23  1  0  0  0  0
 26 25  1  0  0  0  0
 27 26  1  0  0  0  0
 28 27  3  0  0  0  0
 29  9  1  0  0  0  0
 30 36  1  0  0  0  0
 30 32  1  0  0  0  0
 31 46  1  0  0  0  0
 31 33  1  0  0  0  0
 32 34  1  0  0  0  0
 34 33  1  0  0  0  0
 34 29  1  0  0  0  0
 35 36  2  0  0  0  0
 36 31  1  0  0  0  0
 37 38  2  0  0  0  0
 38 30  1  0  0  0  0
 39 38  1  0  0  0  0
 40 41  1  0  0  0  0
 41 42  1  0  0  0  0
 41 39  1  0  0  0  0
 42 43  1  0  0  0  0
 44 42  2  0  0  0  0
 46 45  2  0  0  0  0
M  END
>  <MODEL>
3

>  <REMARK>
 VINA RESULT:      -4.8      2.571      6.128
  Name = 
  20 active torsions:
  status: ('A' for Active; 'I' for Inactive)
    1  A    between atoms: C_2  and  C_16
    2  A    between atoms: C_2  and  N_22
    3  A    between atoms: C_3  and  C_30
    4  A    between atoms: C_4  and  C_7
    5  A    between atoms: C_4  and  C_11
    6  A    between atoms: C_5  and  C_21
    7  A    between atoms: C_7  and  N_22
    8  A    between atoms: C_9  and  O_23
    9  A    between atoms: C_9  and  C_25
   10  A    between atoms: C_9  and  C_27
   11  A    between atoms: C_10  and  C_35
   12  A    between atoms: C_11  and  C_26
   13  A    between atoms: N_15  and  O_23
   14  A    between atoms: C_16  and  C_27
   15  A    between atoms: C_16  and  C_32
   16  A    between atoms: C_18  and  C_39
   17  A    between atoms: C_19  and  C_21
   18  A    between atoms: C_19  and  C_30
   19  A    between atoms: O_20  and  C_42
   20  A    between atoms: O_20  and  C_46
                            x       y       z     vdW  Elec       q    Type
                         _______ _______ _______ _____ _____    ______ ____

>  <TORSDO>
F 20

$$$$
=
 OpenBabel11062422493D

 46 49  0  0  1  0  0  0  0  0999 V2000
  191.6560  177.2720  143.6750 C   0  0  1  0  0  3  0  0  0  0  0  0
  192.4390  175.0570  144.7590 C   0  0  0  0  0  2  0  0  0  0  0  0
  190.1800  175.9690  145.2470 C   0  0  1  0  0  0  0  0  0  0  0  0
  189.3020  174.0750  146.8290 C   0  0  0  0  0  1  0  0  0  0  0  0
  190.4200  175.0370  146.4560 C   0  0  1  0  0  3  0  0  0  0  0  0
  192.0920  178.5800  143.4590 O   0  0  0  0  0  1  0  0  0  0  0  0
  192.5080  176.5690  144.7150 C   0  0  2  0  0  0  0  0  0  0  0  0
  191.1670  177.1400  145.1220 C   0  0  1  0  0  3  0  0  0  0  0  0
  191.0010  174.6810  145.0860 C   0  0  2  0  0  0  0  0  0  0  0  0
  194.6710  176.6510  145.6490 O   0  0  0  0  0  0  0  0  0  0  0  0
  193.6760  177.2780  145.3250 C   0  0  0  0  0  3  0  0  0  0  0  0
  188.8750  176.0240  144.3790 C   0  0  2  0  0  3  0  0  0  0  0  0
  189.1820  176.1670  142.8800 C   0  0  0  0  0  2  0  0  0  0  0  0
  187.9540  175.9850  142.0090 C   0  0  2  0  0  3  0  0  0  0  0  0
  188.5780  174.5240  140.0860 O   0  0  0  0  0  0  0  0  0  0  0  0
  187.5410  173.6170  141.9240 O   0  0  0  0  0  1  0  0  0  0  0  0
  188.0100  174.6370  141.3520 C   0  0  0  0  0  0  0  0  0  0  0  0
  187.8980  177.0060  141.0450 O   0  0  0  0  0  0  0  0  0  0  0  0
  186.5870  177.1030  140.6980 N   0  0  0  0  0  2  0  0  0  0  0  0
  186.0130  178.2300  141.4190 C   0  0  0  0  0  1  0  0  0  0  0  0
  187.7930  177.0270  144.7920 C   0  0  0  0  0  2  0  0  0  0  0  0
  186.6450  176.3540  145.3920 N   0  0  0  0  0  2  0  0  0  0  0  0
  186.4370  176.9440  146.7060 C   0  0  1  0  0  3  0  0  0  0  0  0
  187.3720  177.9560  146.9320 O   0  0  0  0  0  1  0  0  0  0  0  0
  185.0330  177.5160  146.7950 C   0  0  0  0  0  2  0  0  0  0  0  0
  185.0010  178.9320  146.2670 C   0  0  0  0  0  2  0  0  0  0  0  0
  184.2900  178.9620  144.9860 C   0  0  0  0  0  0  0  0  0  0  0  0
  183.7160  178.9850  143.9830 N   0  0  0  0  0  0  0  0  0  0  0  0
  190.3640  173.7160  144.2750 O   0  0  0  0  0  0  0  0  0  0  0  0
  192.1230  172.1040  141.4100 C   0  0  1  0  0  3  0  0  0  0  0  0
  192.6830  170.8380  143.6450 C   0  0  2  0  0  3  0  0  0  0  0  0
  190.9520  172.7210  142.1630 C   0  0  0  0  0  2  0  0  0  0  0  0
  191.5540  171.6470  144.2960 C   0  0  0  0  0  2  0  0  0  0  0  0
  191.3600  172.9900  143.6050 C   0  0  2  0  0  3  0  0  0  0  0  0
  193.2120  169.9950  141.4990 O   0  0  0  0  0  0  0  0  0  0  0  0
  192.6470  170.8710  142.1280 C   0  0  0  0  0  0  0  0  0  0  0  0
  190.4920  171.4550  139.5710 S   0  0  0  0  0  0  0  0  0  0  0  0
  191.8110  171.8810  139.9500 C   0  0  0  0  0  0  0  0  0  0  0  0
  192.8520  172.0570  138.8830 C   0  0  0  0  0  2  0  0  0  0  0  0
  193.0590  174.4450  138.8290 O   0  0  0  0  0  1  0  0  0  0  0  0
  192.6050  173.3400  138.1040 C   0  0  1  0  0  3  0  0  0  0  0  0
  193.2680  173.2780  136.7660 C   0  0  0  0  0  0  0  0  0  0  0  0
  194.6910  173.6990  136.6270 C   0  0  0  0  0  1  0  0  0  0  0  0
  192.6460  172.9250  135.7830 O   0  0  0  0  0  0  0  0  0  0  0  0
  193.7380  168.8730  144.4540 O   0  0  0  0  0  0  0  0  0  0  0  0
  192.6910  169.4420  144.1910 C   0  0  0  0  0  3  0  0  0  0  0  0
  1  6  1  1  0  0  0
  1  7  1  0  0  0  0
  1  8  1  0  0  0  0
  2  9  1  0  0  0  0
  3 12  1  6  0  0  0
  3  5  1  0  0  0  0
  5  4  1  6  0  0  0
  7  2  1  0  0  0  0
  7  8  1  0  0  0  0
  7 11  1  1  0  0  0
  8  3  1  0  0  0  0
  9  3  1  0  0  0  0
  9  5  1  0  0  0  0
 11 10  2  0  0  0  0
 12 21  1  0  0  0  0
 13 12  1  0  0  0  0
 14 13  1  0  0  0  0
 15 17  2  0  0  0  0
 17 16  1  0  0  0  0
 17 14  1  0  0  0  0
 18 14  1  0  0  0  0
 19 18  1  0  0  0  0
 19 20  1  0  0  0  0
 21 22  1  0  0  0  0
 22 23  1  0  0  0  0
 23 25  1  0  0  0  0
 23 24  1  0  0  0  0
 26 25  1  0  0  0  0
 27 26  1  0  0  0  0
 28 27  3  0  0  0  0
 29  9  1  0  0  0  0
 30 36  1  0  0  0  0
 30 32  1  0  0  0  0
 31 46  1  0  0  0  0
 31 33  1  0  0  0  0
 32 34  1  0  0  0  0
 34 29  1  0  0  0  0
 34 33  1  0  0  0  0
 35 36  2  0  0  0  0
 36 31  1  0  0  0  0
 37 38  2  0  0  0  0
 38 30  1  0  0  0  0
 39 38  1  0  0  0  0
 41 40  1  0  0  0  0
 41 39  1  0  0  0  0
 42 41  1  0  0  0  0
 43 42  1  0  0  0  0
 44 42  2  0  0  0  0
 46 45  2  0  0  0  0
M  END
>  <MODEL>
4

>  <REMARK>
 VINA RESULT:      -4.8      2.404      6.190
  Name = 
  20 active torsions:
  status: ('A' for Active; 'I' for Inactive)
    1  A    between atoms: C_2  and  C_16
    2  A    between atoms: C_2  and  N_22
    3  A    between atoms: C_3  and  C_30
    4  A    between atoms: C_4  and  C_7
    5  A    between atoms: C_4  and  C_11
    6  A    between atoms: C_5  and  C_21
    7  A    between atoms: C_7  and  N_22
    8  A    between atoms: C_9  and  O_23
    9  A    between atoms: C_9  and  C_25
   10  A    between atoms: C_9  and  C_27
   11  A    between atoms: C_10  and  C_35
   12  A    between atoms: C_11  and  C_26
   13  A    between atoms: N_15  and  O_23
   14  A    between atoms: C_16  and  C_27
   15  A    between atoms: C_16  and  C_32
   16  A    between atoms: C_18  and  C_39
   17  A    between atoms: C_19  and  C_21
   18  A    between atoms: C_19  and  C_30
   19  A    between atoms: O_20  and  C_42
   20  A    between atoms: O_20  and  C_46
                            x       y       z     vdW  Elec       q    Type
                         _______ _______ _______ _____ _____    ______ ____

>  <TORSDO>
F 20

$$$$
=
 OpenBabel11062422493D

 46 49  0  0  1  0  0  0  0  0999 V2000
  191.0200  175.2670  147.3440 C   0  0  1  0  0  3  0  0  0  0  0  0
  189.7500  177.1440  146.0950 C   0  0  0  0  0  2  0  0  0  0  0  0
  191.9020  176.2730  145.2100 C   0  0  1  0  0  0  0  0  0  0  0  0
  192.0700  177.7220  143.0330 C   0  0  0  0  0  1  0  0  0  0  0  0
  191.8100  177.6590  144.5310 C   0  0  1  0  0  3  0  0  0  0  0  0
  191.4590  174.9300  148.6250 O   0  0  0  0  0  1  0  0  0  0  0  0
  190.6210  176.7280  147.2620 C   0  0  2  0  0  0  0  0  0  0  0  0
  191.9770  176.3030  146.7440 C   0  0  1  0  0  3  0  0  0  0  0  0
  190.5370  176.8630  144.8230 C   0  0  2  0  0  0  0  0  0  0  0  0
  191.7660  177.8780  148.9720 O   0  0  0  0  0  0  0  0  0  0  0  0
  190.6850  177.5880  148.4850 C   0  0  0  0  0  3  0  0  0  0  0  0
  192.2570  174.9250  144.4920 C   0  0  2  0  0  3  0  0  0  0  0  0
  191.1110  173.9040  144.5770 C   0  0  0  0  0  2  0  0  0  0  0  0
  191.2430  172.7870  143.5590 C   0  0  2  0  0  3  0  0  0  0  0  0
  188.8530  172.7480  142.8460 O   0  0  0  0  0  1  0  0  0  0  0  0
  190.4940  173.2640  141.3240 O   0  0  0  0  0  0  0  0  0  0  0  0
  190.1870  172.9540  142.5060 C   0  0  0  0  0  0  0  0  0  0  0  0
  191.1150  171.5420  144.1980 O   0  0  0  0  0  0  0  0  0  0  0  0
  192.3600  170.9960  144.1750 N   0  0  0  0  0  2  0  0  0  0  0  0
  192.3960  170.0050  143.1090 C   0  0  0  0  0  1  0  0  0  0  0  0
  193.5860  174.2580  144.8590 C   0  0  0  0  0  2  0  0  0  0  0  0
  194.6350  174.5990  143.9030 N   0  0  0  0  0  2  0  0  0  0  0  0
  195.8690  173.9960  144.3830 C   0  0  1  0  0  3  0  0  0  0  0  0
  196.1330  174.4150  145.6900 O   0  0  0  0  0  1  0  0  0  0  0  0
  195.7480  172.4820  144.3460 C   0  0  0  0  0  2  0  0  0  0  0  0
  196.3090  171.8730  145.6110 C   0  0  0  0  0  2  0  0  0  0  0  0
  195.5360  170.6790  145.9650 C   0  0  0  0  0  0  0  0  0  0  0  0
  194.9380  169.7310  146.2440 N   0  0  0  0  0  0  0  0  0  0  0  0
  189.8970  176.1460  143.7890 O   0  0  0  0  0  0  0  0  0  0  0  0
  186.9530  178.3960  143.3710 C   0  0  1  0  0  3  0  0  0  0  0  0
  187.6100  177.3260  141.0600 C   0  0  2  0  0  3  0  0  0  0  0  0
  187.7960  177.3010  144.0110 C   0  0  0  0  0  2  0  0  0  0  0  0
  188.5280  176.3800  141.8470 C   0  0  0  0  0  2  0  0  0  0  0  0
  189.0140  177.0220  143.1400 C   0  0  2  0  0  3  0  0  0  0  0  0
  185.5910  178.5020  141.4270 O   0  0  0  0  0  0  0  0  0  0  0  0
  186.5990  178.0440  141.9350 C   0  0  0  0  0  0  0  0  0  0  0  0
  185.3170  180.1410  144.2320 S   0  0  0  0  0  0  0  0  0  0  0  0
  185.7670  178.7760  144.2230 C   0  0  0  0  0  0  0  0  0  0  0  0
  185.0640  177.7740  145.0930 C   0  0  0  0  0  2  0  0  0  0  0  0
  183.7260  177.8920  147.0790 O   0  0  0  0  0  1  0  0  0  0  0  0
  184.9380  178.2990  146.5140 C   0  0  1  0  0  3  0  0  0  0  0  0
  186.0890  177.8380  147.3490 C   0  0  0  0  0  0  0  0  0  0  0  0
  186.9080  178.8350  148.0940 C   0  0  0  0  0  1  0  0  0  0  0  0
  186.3870  176.6590  147.3930 O   0  0  0  0  0  0  0  0  0  0  0  0
  187.5240  175.6380  139.3960 O   0  0  0  0  0  0  0  0  0  0  0  0
  186.9690  176.5870  139.9260 C   0  0  0  0  0  3  0  0  0  0  0  0
  1  6  1  1  0  0  0
  2  7  1  0  0  0  0
  3 12  1  6  0  0  0
  3  8  1  0  0  0  0
  5  4  1  6  0  0  0
  5  9  1  0  0  0  0
  5  3  1  0  0  0  0
  7  1  1  0  0  0  0
  7 11  1  1  0  0  0
  8  7  1  0  0  0  0
  8  1  1  0  0  0  0
  9  3  1  0  0  0  0
  9  2  1  0  0  0  0
 11 10  2  0  0  0  0
 12 13  1  0  0  0  0
 12 21  1  0  0  0  0
 14 18  1  0  0  0  0
 14 13  1  0  0  0  0
 16 17  2  0  0  0  0
 17 15  1  0  0  0  0
 17 14  1  0  0  0  0
 19 18  1  0  0  0  0
 20 19  1  0  0  0  0
 22 23  1  0  0  0  0
 22 21  1  0  0  0  0
 23 24  1  0  0  0  0
 25 23  1  0  0  0  0
 25 26  1  0  0  0  0
 26 27  1  0  0  0  0
 27 28  3  0  0  0  0
 29  9  1  0  0  0  0
 30 32  1  0  0  0  0
 30 38  1  0  0  0  0
 31 33  1  0  0  0  0
 31 36  1  0  0  0  0
 33 34  1  0  0  0  0
 34 29  1  0  0  0  0
 34 32  1  0  0  0  0
 35 36  2  0  0  0  0
 36 30  1  0  0  0  0
 38 37  2  0  0  0  0
 38 39  1  0  0  0  0
 39 41  1  0  0  0  0
 41 40  1  0  0  0  0
 41 42  1  0  0  0  0
 42 44  2  0  0  0  0
 42 43  1  0  0  0  0
 45 46  2  0  0  0  0
 46 31  1  0  0  0  0
M  END
>  <MODEL>
5

>  <REMARK>
 VINA RESULT:      -4.8      4.153      8.478
  Name = 
  20 active torsions:
  status: ('A' for Active; 'I' for Inactive)
    1  A    between atoms: C_2  and  C_16
    2  A    between atoms: C_2  and  N_22
    3  A    between atoms: C_3  and  C_30
    4  A    between atoms: C_4  and  C_7
    5  A    between atoms: C_4  and  C_11
    6  A    between atoms: C_5  and  C_21
    7  A    between atoms: C_7  and  N_22
    8  A    between atoms: C_9  and  O_23
    9  A    between atoms: C_9  and  C_25
   10  A    between atoms: C_9  and  C_27
   11  A    between atoms: C_10  and  C_35
   12  A    between atoms: C_11  and  C_26
   13  A    between atoms: N_15  and  O_23
   14  A    between atoms: C_16  and  C_27
   15  A    between atoms: C_16  and  C_32
   16  A    between atoms: C_18  and  C_39
   17  A    between atoms: C_19  and  C_21
   18  A    between atoms: C_19  and  C_30
   19  A    between atoms: O_20  and  C_42
   20  A    between atoms: O_20  and  C_46
                            x       y       z     vdW  Elec       q    Type
                         _______ _______ _______ _____ _____    ______ ____

>  <TORSDO>
F 20

$$$$
=
 OpenBabel11062422493D

 46 49  0  0  1  0  0  0  0  0999 V2000
  191.5300  173.5250  139.3250 C   0  0  1  0  0  3  0  0  0  0  0  0
  190.0050  173.0930  141.3720 C   0  0  0  0  0  2  0  0  0  0  0  0
  192.3800  172.3630  141.3920 C   0  0  1  0  0  0  0  0  0  0  0  0
  192.4820  171.3560  143.8090 C   0  0  0  0  0  1  0  0  0  0  0  0
  191.7540  171.4570  142.4770 C   0  0  1  0  0  3  0  0  0  0  0  0
  191.5390  173.3770  137.9380 O   0  0  0  0  0  1  0  0  0  0  0  0
  190.4100  172.7220  139.9600 C   0  0  2  0  0  0  0  0  0  0  0  0
  191.8180  172.1680  139.9760 C   0  0  1  0  0  3  0  0  0  0  0  0
  191.2210  172.8750  142.2610 C   0  0  2  0  0  0  0  0  0  0  0  0
  188.2790  172.2280  139.0820 O   0  0  0  0  0  0  0  0  0  0  0  0
  189.4660  171.9470  139.0960 C   0  0  0  0  0  3  0  0  0  0  0  0
  193.7130  173.1770  141.5380 C   0  0  2  0  0  3  0  0  0  0  0  0
  193.6660  174.5070  140.7700 C   0  0  0  0  0  2  0  0  0  0  0  0
  194.1910  175.6740  141.5860 C   0  0  2  0  0  3  0  0  0  0  0  0
  195.9340  175.5900  139.8030 O   0  0  0  0  0  0  0  0  0  0  0  0
  196.2230  176.9590  141.6240 O   0  0  0  0  0  1  0  0  0  0  0  0
  195.5050  176.1220  141.0160 C   0  0  0  0  0  0  0  0  0  0  0  0
  194.3370  175.2880  142.9290 O   0  0  0  0  0  0  0  0  0  0  0  0
  193.7820  176.2950  143.6550 N   0  0  0  0  0  2  0  0  0  0  0  0
  194.4140  176.3030  144.9670 C   0  0  0  0  0  1  0  0  0  0  0  0
  195.0250  172.4430  141.2410 C   0  0  0  0  0  2  0  0  0  0  0  0
  195.9040  172.4300  142.4060 N   0  0  0  0  0  2  0  0  0  0  0  0
  196.0780  171.0400  142.7990 C   0  0  1  0  0  3  0  0  0  0  0  0
  197.2990  170.5550  142.3250 O   0  0  0  0  0  1  0  0  0  0  0  0
  196.0370  170.9260  144.3130 C   0  0  0  0  0  2  0  0  0  0  0  0
  197.3430  171.3900  144.9170 C   0  0  0  0  0  2  0  0  0  0  0  0
  197.1090  172.5860  145.7320 C   0  0  0  0  0  0  0  0  0  0  0  0
  196.9330  173.5240  146.3840 N   0  0  0  0  0  0  0  0  0  0  0  0
  191.6030  173.9160  143.1350 O   0  0  0  0  0  0  0  0  0  0  0  0
  188.4980  175.6190  144.3040 C   0  0  1  0  0  3  0  0  0  0  0  0
  189.8550  174.7000  146.3600 C   0  0  2  0  0  3  0  0  0  0  0  0
  189.7800  175.4470  143.5000 C   0  0  0  0  0  2  0  0  0  0  0  0
  191.0150  174.4540  145.3860 C   0  0  0  0  0  2  0  0  0  0  0  0
  190.5110  174.1970  143.9720 C   0  0  2  0  0  3  0  0  0  0  0  0
  188.0330  176.1950  146.5610 O   0  0  0  0  0  0  0  0  0  0  0  0
  188.7840  175.6150  145.7970 C   0  0  0  0  0  0  0  0  0  0  0  0
  188.3290  177.8500  143.0980 S   0  0  0  0  0  0  0  0  0  0  0  0
  187.6830  176.8000  143.8350 C   0  0  0  0  0  0  0  0  0  0  0  0
  186.2200  176.9260  144.1490 C   0  0  0  0  0  2  0  0  0  0  0  0
  184.5740  177.6410  142.5590 O   0  0  0  0  0  1  0  0  0  0  0  0
  185.6100  178.0890  143.3830 C   0  0  1  0  0  3  0  0  0  0  0  0
  185.1160  179.1380  144.3270 C   0  0  0  0  0  0  0  0  0  0  0  0
  184.1800  178.7640  145.4240 C   0  0  0  0  0  1  0  0  0  0  0  0
  185.4420  180.3010  144.1840 O   0  0  0  0  0  0  0  0  0  0  0  0
  191.4950  175.6800  147.7650 O   0  0  0  0  0  0  0  0  0  0  0  0
  190.3870  175.1770  147.6770 C   0  0  0  0  0  3  0  0  0  0  0  0
  1  6  1  6  0  0  0
  1  7  1  0  0  0  0
  1  8  1  0  0  0  0
  2  9  1  0  0  0  0
  3 12  1  1  0  0  0
  3  9  1  0  0  0  0
  3  5  1  0  0  0  0
  5  4  1  1  0  0  0
  7 11  1  6  0  0  0
  7  8  1  0  0  0  0
  7  2  1  0  0  0  0
  8  3  1  0  0  0  0
  9  5  1  0  0  0  0
  9 29  1  0  0  0  0
 10 11  2  0  0  0  0
 13 12  1  0  0  0  0
 13 14  1  0  0  0  0
 14 18  1  0  0  0  0
 15 17  2  0  0  0  0
 17 14  1  0  0  0  0
 17 16  1  0  0  0  0
 18 19  1  0  0  0  0
 19 20  1  0  0  0  0
 21 12  1  0  0  0  0
 21 22  1  0  0  0  0
 22 23  1  0  0  0  0
 23 25  1  0  0  0  0
 24 23  1  0  0  0  0
 25 26  1  0  0  0  0
 26 27  1  0  0  0  0
 27 28  3  0  0  0  0
 29 34  1  0  0  0  0
 30 36  1  0  0  0  0
 31 46  1  0  0  0  0
 32 34  1  0  0  0  0
 32 30  1  0  0  0  0
 33 31  1  0  0  0  0
 34 33  1  0  0  0  0
 36 31  1  0  0  0  0
 36 35  2  0  0  0  0
 37 38  2  0  0  0  0
 38 39  1  0  0  0  0
 38 30  1  0  0  0  0
 40 41  1  0  0  0  0
 41 39  1  0  0  0  0
 41 42  1  0  0  0  0
 42 43  1  0  0  0  0
 44 42  2  0  0  0  0
 46 45  2  0  0  0  0
M  END
>  <MODEL>
6

>  <REMARK>
 VINA RESULT:      -4.7      3.064      8.074
  Name = 
  20 active torsions:
  status: ('A' for Active; 'I' for Inactive)
    1  A    between atoms: C_2  and  C_16
    2  A    between atoms: C_2  and  N_22
    3  A    between atoms: C_3  and  C_30
    4  A    between atoms: C_4  and  C_7
    5  A    between atoms: C_4  and  C_11
    6  A    between atoms: C_5  and  C_21
    7  A    between atoms: C_7  and  N_22
    8  A    between atoms: C_9  and  O_23
    9  A    between atoms: C_9  and  C_25
   10  A    between atoms: C_9  and  C_27
   11  A    between atoms: C_10  and  C_35
   12  A    between atoms: C_11  and  C_26
   13  A    between atoms: N_15  and  O_23
   14  A    between atoms: C_16  and  C_27
   15  A    between atoms: C_16  and  C_32
   16  A    between atoms: C_18  and  C_39
   17  A    between atoms: C_19  and  C_21
   18  A    between atoms: C_19  and  C_30
   19  A    between atoms: O_20  and  C_42
   20  A    between atoms: O_20  and  C_46
                            x       y       z     vdW  Elec       q    Type
                         _______ _______ _______ _____ _____    ______ ____

>  <TORSDO>
F 20

$$$$
=
 OpenBabel11062422493D

 46 49  0  0  1  0  0  0  0  0999 V2000
  191.0200  175.3150  147.4840 C   0  0  1  0  0  3  0  0  0  0  0  0
  189.8720  177.2330  146.1790 C   0  0  0  0  0  2  0  0  0  0  0  0
  191.8060  176.0210  145.1980 C   0  0  1  0  0  0  0  0  0  0  0  0
  191.9380  177.2540  142.8890 C   0  0  0  0  0  1  0  0  0  0  0  0
  191.8190  177.3470  144.4030 C   0  0  1  0  0  3  0  0  0  0  0  0
  191.5360  175.0300  148.7490 O   0  0  0  0  0  1  0  0  0  0  0  0
  190.7950  176.8040  147.3010 C   0  0  2  0  0  0  0  0  0  0  0  0
  192.0330  176.1650  146.7100 C   0  0  1  0  0  3  0  0  0  0  0  0
  190.4920  176.7490  144.8760 C   0  0  2  0  0  0  0  0  0  0  0  0
  190.2610  178.5920  148.7410 O   0  0  0  0  0  0  0  0  0  0  0  0
  191.0820  177.7450  148.4280 C   0  0  0  0  0  3  0  0  0  0  0  0
  191.9240  174.5840  144.5800 C   0  0  2  0  0  3  0  0  0  0  0  0
  193.0890  173.7860  145.1870 C   0  0  0  0  0  2  0  0  0  0  0  0
  194.4190  174.0970  144.5280 C   0  0  2  0  0  3  0  0  0  0  0  0
  196.4750  173.8770  145.9230 O   0  0  0  0  0  1  0  0  0  0  0  0
  195.5140  172.0070  144.9970 O   0  0  0  0  0  0  0  0  0  0  0  0
  195.4900  173.2560  145.1590 C   0  0  0  0  0  0  0  0  0  0  0  0
  194.7120  175.4640  144.6670 O   0  0  0  0  0  0  0  0  0  0  0  0
  195.1380  175.8680  143.4410 N   0  0  0  0  0  2  0  0  0  0  0  0
  196.4770  176.4190  143.5900 C   0  0  0  0  0  1  0  0  0  0  0  0
  191.9470  174.4710  143.0530 C   0  0  0  0  0  2  0  0  0  0  0  0
  190.9110  173.5640  142.5700 N   0  0  0  0  0  2  0  0  0  0  0  0
  191.5320  172.6770  141.5980 C   0  0  1  0  0  3  0  0  0  0  0  0
  191.4120  171.3490  142.0120 O   0  0  0  0  0  1  0  0  0  0  0  0
  190.8660  172.8530  140.2440 C   0  0  0  0  0  2  0  0  0  0  0  0
  189.4930  173.4660  140.4030 C   0  0  0  0  0  2  0  0  0  0  0  0
  188.9340  173.7660  139.0820 C   0  0  0  0  0  0  0  0  0  0  0  0
  188.5060  174.0080  138.0360 N   0  0  0  0  0  0  0  0  0  0  0  0
  189.6730  176.0380  143.9720 O   0  0  0  0  0  0  0  0  0  0  0  0
  186.8490  178.4340  143.5340 C   0  0  1  0  0  3  0  0  0  0  0  0
  187.4990  177.3690  141.2200 C   0  0  2  0  0  3  0  0  0  0  0  0
  187.6260  177.2910  144.1730 C   0  0  0  0  0  2  0  0  0  0  0  0
  188.3550  176.3680  142.0080 C   0  0  0  0  0  2  0  0  0  0  0  0
  188.8460  176.9660  143.3200 C   0  0  2  0  0  3  0  0  0  0  0  0
  185.5330  178.6360  141.5670 O   0  0  0  0  0  0  0  0  0  0  0  0
  186.5070  178.1220  142.0870 C   0  0  0  0  0  0  0  0  0  0  0  0
  185.1840  180.2090  144.2700 S   0  0  0  0  0  0  0  0  0  0  0  0
  185.6660  178.8590  144.3700 C   0  0  0  0  0  0  0  0  0  0  0  0
  185.0000  177.9190  145.3330 C   0  0  0  0  0  2  0  0  0  0  0  0
  183.7300  178.2310  147.3420 O   0  0  0  0  0  1  0  0  0  0  0  0
  184.9470  178.5310  146.7240 C   0  0  1  0  0  3  0  0  0  0  0  0
  186.0920  178.0490  147.5540 C   0  0  0  0  0  0  0  0  0  0  0  0
  186.4480  176.6020  147.5530 C   0  0  0  0  0  1  0  0  0  0  0  0
  186.7120  178.8210  148.2600 O   0  0  0  0  0  0  0  0  0  0  0  0
  186.6980  177.2460  138.9910 O   0  0  0  0  0  0  0  0  0  0  0  0
  186.8460  176.6790  140.0610 C   0  0  0  0  0  3  0  0  0  0  0  0
  1  6  1  1  0  0  0
  2  7  1  0  0  0  0
  3 12  1  6  0  0  0
  3  8  1  0  0  0  0
  5  4  1  6  0  0  0
  5  9  1  0  0  0  0
  5  3  1  0  0  0  0
  7  1  1  0  0  0  0
  7 11  1  1  0  0  0
  8  7  1  0  0  0  0
  8  1  1  0  0  0  0
  9  3  1  0  0  0  0
  9  2  1  0  0  0  0
 11 10  2  0  0  0  0
 12 13  1  0  0  0  0
 14 18  1  0  0  0  0
 14 17  1  0  0  0  0
 14 13  1  0  0  0  0
 16 17  2  0  0  0  0
 17 15  1  0  0  0  0
 19 20  1  0  0  0  0
 19 18  1  0  0  0  0
 21 12  1  0  0  0  0
 22 21  1  0  0  0  0
 23 24  1  0  0  0  0
 23 22  1  0  0  0  0
 25 26  1  0  0  0  0
 25 23  1  0  0  0  0
 27 26  1  0  0  0  0
 28 27  3  0  0  0  0
 29  9  1  0  0  0  0
 30 32  1  0  0  0  0
 30 38  1  0  0  0  0
 31 33  1  0  0  0  0
 31 36  1  0  0  0  0
 33 34  1  0  0  0  0
 34 29  1  0  0  0  0
 34 32  1  0  0  0  0
 35 36  2  0  0  0  0
 36 30  1  0  0  0  0
 37 38  2  0  0  0  0
 38 39  1  0  0  0  0
 39 41  1  0  0  0  0
 41 40  1  0  0  0  0
 41 42  1  0  0  0  0
 42 44  2  0  0  0  0
 43 42  1  0  0  0  0
 45 46  2  0  0  0  0
 46 31  1  0  0  0  0
M  END
>  <MODEL>
7

>  <REMARK>
 VINA RESULT:      -4.6      3.602      8.193
  Name = 
  20 active torsions:
  status: ('A' for Active; 'I' for Inactive)
    1  A    between atoms: C_2  and  C_16
    2  A    between atoms: C_2  and  N_22
    3  A    between atoms: C_3  and  C_30
    4  A    between atoms: C_4  and  C_7
    5  A    between atoms: C_4  and  C_11
    6  A    between atoms: C_5  and  C_21
    7  A    between atoms: C_7  and  N_22
    8  A    between atoms: C_9  and  O_23
    9  A    between atoms: C_9  and  C_25
   10  A    between atoms: C_9  and  C_27
   11  A    between atoms: C_10  and  C_35
   12  A    between atoms: C_11  and  C_26
   13  A    between atoms: N_15  and  O_23
   14  A    between atoms: C_16  and  C_27
   15  A    between atoms: C_16  and  C_32
   16  A    between atoms: C_18  and  C_39
   17  A    between atoms: C_19  and  C_21
   18  A    between atoms: C_19  and  C_30
   19  A    between atoms: O_20  and  C_42
   20  A    between atoms: O_20  and  C_46
                            x       y       z     vdW  Elec       q    Type
                         _______ _______ _______ _____ _____    ______ ____

>  <TORSDO>
F 20

$$$$
=
 OpenBabel11062422493D

 46 49  0  0  1  0  0  0  0  0999 V2000
  189.7250  176.8210  144.5210 C   0  0  1  0  0  3  0  0  0  0  0  0
  190.9800  174.5580  144.4850 C   0  0  0  0  0  2  0  0  0  0  0  0
  188.8410  174.8330  143.2510 C   0  0  1  0  0  0  0  0  0  0  0  0
  188.6670  172.4440  142.1900 C   0  0  0  0  0  1  0  0  0  0  0  0
  188.9200  173.2990  143.4230 C   0  0  1  0  0  3  0  0  0  0  0  0
  189.2850  177.7960  145.4170 O   0  0  0  0  0  1  0  0  0  0  0  0
  190.1090  175.5420  145.2390 C   0  0  2  0  0  0  0  0  0  0  0  0
  188.7590  175.6320  144.5600 C   0  0  1  0  0  3  0  0  0  0  0  0
  190.2020  174.1190  143.2530 C   0  0  2  0  0  0  0  0  0  0  0  0
  189.4560  174.5400  147.2710 O   0  0  0  0  0  0  0  0  0  0  0  0
  190.0300  175.4730  146.7320 C   0  0  0  0  0  3  0  0  0  0  0  0
  188.5040  175.5890  141.9180 C   0  0  2  0  0  3  0  0  0  0  0  0
  187.8050  176.9330  142.1750 C   0  0  0  0  0  2  0  0  0  0  0  0
  186.2990  176.7990  142.2890 C   0  0  2  0  0  3  0  0  0  0  0  0
  184.3010  177.9300  141.3130 O   0  0  0  0  0  1  0  0  0  0  0  0
  186.3010  177.9670  140.1860 O   0  0  0  0  0  0  0  0  0  0  0  0
  185.6490  177.6010  141.2000 C   0  0  0  0  0  0  0  0  0  0  0  0
  185.8760  177.2430  143.5530 O   0  0  0  0  0  0  0  0  0  0  0  0
  186.5270  178.4180  143.7600 N   0  0  0  0  0  2  0  0  0  0  0  0
  185.5700  179.3720  144.3030 C   0  0  0  0  0  1  0  0  0  0  0  0
  187.7580  174.8060  140.8320 C   0  0  0  0  0  2  0  0  0  0  0  0
  188.1250  175.2670  139.4960 N   0  0  0  0  0  2  0  0  0  0  0  0
  188.2240  174.0910  138.6460 C   0  0  1  0  0  3  0  0  0  0  0  0
  188.1470  174.4600  137.3020 O   0  0  0  0  0  1  0  0  0  0  0  0
  189.5420  173.3810  138.9060 C   0  0  0  0  0  2  0  0  0  0  0  0
  189.6430  172.1240  138.0720 C   0  0  0  0  0  2  0  0  0  0  0  0
  191.0150  171.9700  137.5820 C   0  0  0  0  0  0  0  0  0  0  0  0
  192.0970  171.8340  137.2000 N   0  0  0  0  0  0  0  0  0  0  0  0
  190.8530  174.1650  142.0020 O   0  0  0  0  0  0  0  0  0  0  0  0
  194.5160  174.5180  142.6050 C   0  0  1  0  0  3  0  0  0  0  0  0
  194.0310  172.3250  141.2380 C   0  0  2  0  0  3  0  0  0  0  0  0
  193.1160  174.9640  142.2070 C   0  0  0  0  0  2  0  0  0  0  0  0
  192.6040  172.8540  141.0440 C   0  0  0  0  0  2  0  0  0  0  0  0
  192.1830  173.7600  142.1940 C   0  0  2  0  0  3  0  0  0  0  0  0
  196.1980  173.2230  141.5400 O   0  0  0  0  0  0  0  0  0  0  0  0
  195.0040  173.3880  141.7140 C   0  0  0  0  0  0  0  0  0  0  0  0
  195.8290  176.4100  141.5290 S   0  0  0  0  0  0  0  0  0  0  0  0
  195.4760  175.6770  142.7130 C   0  0  0  0  0  0  0  0  0  0  0  0
  196.1050  176.0650  144.0210 C   0  0  0  0  0  2  0  0  0  0  0  0
  196.0580  174.8260  146.0730 O   0  0  0  0  0  1  0  0  0  0  0  0
  195.2670  175.5590  145.1850 C   0  0  1  0  0  3  0  0  0  0  0  0
  194.6030  176.6990  145.8880 C   0  0  0  0  0  0  0  0  0  0  0  0
  193.5040  176.4300  146.8580 C   0  0  0  0  0  1  0  0  0  0  0  0
  194.9240  177.8460  145.6450 O   0  0  0  0  0  0  0  0  0  0  0  0
  194.6010  170.4210  139.9430 O   0  0  0  0  0  0  0  0  0  0  0  0
  194.4940  171.6360  139.9910 C   0  0  0  0  0  3  0  0  0  0  0  0
  1  8  1  0  0  0  0
  1  7  1  0  0  0  0
  1  6  1  1  0  0  0
  2  7  1  0  0  0  0
  3 12  1  6  0  0  0
  3  9  1  0  0  0  0
  3  5  1  0  0  0  0
  3  8  1  0  0  0  0
  5  4  1  6  0  0  0
  7 11  1  1  0  0  0
  8  7  1  0  0  0  0
  9  5  1  0  0  0  0
  9  2  1  0  0  0  0
 11 10  2  0  0  0  0
 12 13  1  0  0  0  0
 13 14  1  0  0  0  0
 14 18  1  0  0  0  0
 16 17  2  0  0  0  0
 17 15  1  0  0  0  0
 17 14  1  0  0  0  0
 18 19  1  0  0  0  0
 19 20  1  0  0  0  0
 21 12  1  0  0  0  0
 22 21  1  0  0  0  0
 23 25  1  0  0  0  0
 23 22  1  0  0  0  0
 24 23  1  0  0  0  0
 26 25  1  0  0  0  0
 27 26  1  0  0  0  0
 28 27  3  0  0  0  0
 29 34  1  0  0  0  0
 29  9  1  0  0  0  0
 30 38  1  0  0  0  0
 31 36  1  0  0  0  0
 32 30  1  0  0  0  0
 33 31  1  0  0  0  0
 33 34  1  0  0  0  0
 34 32  1  0  0  0  0
 35 36  2  0  0  0  0
 36 30  1  0  0  0  0
 37 38  2  0  0  0  0
 38 39  1  0  0  0  0
 39 41  1  0  0  0  0
 41 42  1  0  0  0  0
 41 40  1  0  0  0  0
 42 43  1  0  0  0  0
 44 42  2  0  0  0  0
 45 46  2  0  0  0  0
 46 31  1  0  0  0  0
M  END
>  <MODEL>
8

>  <REMARK>
 VINA RESULT:      -4.4      2.586      5.223
  Name = 
  20 active torsions:
  status: ('A' for Active; 'I' for Inactive)
    1  A    between atoms: C_2  and  C_16
    2  A    between atoms: C_2  and  N_22
    3  A    between atoms: C_3  and  C_30
    4  A    between atoms: C_4  and  C_7
    5  A    between atoms: C_4  and  C_11
    6  A    between atoms: C_5  and  C_21
    7  A    between atoms: C_7  and  N_22
    8  A    between atoms: C_9  and  O_23
    9  A    between atoms: C_9  and  C_25
   10  A    between atoms: C_9  and  C_27
   11  A    between atoms: C_10  and  C_35
   12  A    between atoms: C_11  and  C_26
   13  A    between atoms: N_15  and  O_23
   14  A    between atoms: C_16  and  C_27
   15  A    between atoms: C_16  and  C_32
   16  A    between atoms: C_18  and  C_39
   17  A    between atoms: C_19  and  C_21
   18  A    between atoms: C_19  and  C_30
   19  A    between atoms: O_20  and  C_42
   20  A    between atoms: O_20  and  C_46
                            x       y       z     vdW  Elec       q    Type
                         _______ _______ _______ _____ _____    ______ ____

>  <TORSDO>
F 20

$$$$
=
 OpenBabel11062422493D

 46 49  0  0  1  0  0  0  0  0999 V2000
  193.3880  175.9940  144.0160 C   0  0  1  0  0  3  0  0  0  0  0  0
  192.9700  173.6650  142.9680 C   0  0  0  0  0  2  0  0  0  0  0  0
  191.4510  174.5480  144.7240 C   0  0  1  0  0  0  0  0  0  0  0  0
  189.7410  172.5650  144.8270 C   0  0  0  0  0  1  0  0  0  0  0  0
  191.1910  173.0260  144.8070 C   0  0  1  0  0  3  0  0  0  0  0  0
  194.4140  176.7540  144.5790 O   0  0  0  0  0  1  0  0  0  0  0  0
  193.7750  174.5310  143.9140 C   0  0  2  0  0  0  0  0  0  0  0  0
  192.8870  174.9830  145.0530 C   0  0  1  0  0  3  0  0  0  0  0  0
  191.5310  173.6740  143.4630 C   0  0  2  0  0  0  0  0  0  0  0  0
  195.7740  173.3050  143.6650 O   0  0  0  0  0  0  0  0  0  0  0  0
  195.1370  174.0880  144.3510 C   0  0  0  0  0  3  0  0  0  0  0  0
  190.3490  175.6630  144.6750 C   0  0  2  0  0  3  0  0  0  0  0  0
  189.6300  175.8260  146.0240 C   0  0  0  0  0  2  0  0  0  0  0  0
  190.1040  177.0400  146.7990 C   0  0  2  0  0  3  0  0  0  0  0  0
  191.5610  177.5460  148.7600 O   0  0  0  0  0  1  0  0  0  0  0  0
  191.1670  175.3640  148.1590 O   0  0  0  0  0  0  0  0  0  0  0  0
  190.9670  176.5890  147.9410 C   0  0  0  0  0  0  0  0  0  0  0  0
  188.9980  177.7680  147.2690 O   0  0  0  0  0  0  0  0  0  0  0  0
  187.9400  177.3280  146.5360 N   0  0  0  0  0  2  0  0  0  0  0  0
  186.7270  177.8800  147.1230 C   0  0  0  0  0  1  0  0  0  0  0  0
  189.3250  175.5960  143.5370 C   0  0  0  0  0  2  0  0  0  0  0  0
  189.2190  176.8750  142.8410 N   0  0  0  0  0  2  0  0  0  0  0  0
  187.8830  176.9440  142.2680 C   0  0  1  0  0  3  0  0  0  0  0  0
  187.3000  175.6750  142.2520 O   0  0  0  0  0  1  0  0  0  0  0  0
  187.0230  177.8920  143.0860 C   0  0  0  0  0  2  0  0  0  0  0  0
  185.7490  177.2070  143.5260 C   0  0  0  0  0  2  0  0  0  0  0  0
  184.6060  177.8080  142.8330 C   0  0  0  0  0  0  0  0  0  0  0  0
  183.7130  178.2870  142.2760 N   0  0  0  0  0  0  0  0  0  0  0  0
  190.5070  173.9510  142.5310 O   0  0  0  0  0  0  0  0  0  0  0  0
  190.4490  173.3030  138.8590 C   0  0  1  0  0  3  0  0  0  0  0  0
  191.1800  171.1320  140.1510 C   0  0  2  0  0  3  0  0  0  0  0  0
  189.9290  173.8110  140.1970 C   0  0  0  0  0  2  0  0  0  0  0  0
  190.7370  171.8420  141.4370 C   0  0  0  0  0  2  0  0  0  0  0  0
  190.8620  173.3550  141.3120 C   0  0  2  0  0  3  0  0  0  0  0  0
  190.5990  171.1550  137.8580 O   0  0  0  0  0  0  0  0  0  0  0  0
  190.6600  171.7980  138.8900 C   0  0  0  0  0  0  0  0  0  0  0  0
  188.1930  173.9340  137.8730 S   0  0  0  0  0  0  0  0  0  0  0  0
  189.6110  173.7860  137.7000 C   0  0  0  0  0  0  0  0  0  0  0  0
  190.2150  174.0800  136.3570 C   0  0  0  0  0  2  0  0  0  0  0  0
  192.4730  173.3990  135.9280 O   0  0  0  0  0  1  0  0  0  0  0  0
  191.6930  174.4090  136.4980 C   0  0  1  0  0  3  0  0  0  0  0  0
  191.9990  175.7300  135.8690 C   0  0  0  0  0  0  0  0  0  0  0  0
  193.3070  176.3910  136.1390 C   0  0  0  0  0  1  0  0  0  0  0  0
  191.1750  176.2880  135.1710 O   0  0  0  0  0  0  0  0  0  0  0  0
  190.4340  169.1740  141.2620 O   0  0  0  0  0  0  0  0  0  0  0  0
  190.8260  169.6780  140.2220 C   0  0  0  0  0  3  0  0  0  0  0  0
  1  6  1  1  0  0  0
  1  8  1  0  0  0  0
  2  9  1  0  0  0  0
  2  7  1  0  0  0  0
  3 12  1  1  0  0  0
  3  5  1  0  0  0  0
  3  8  1  0  0  0  0
  5  4  1  6  0  0  0
  7  1  1  0  0  0  0
  7 11  1  1  0  0  0
  7  8  1  0  0  0  0
  9  3  1  0  0  0  0
  9  5  1  0  0  0  0
 10 11  2  0  0  0  0
 12 13  1  0  0  0  0
 13 14  1  0  0  0  0
 14 18  1  0  0  0  0
 14 17  1  0  0  0  0
 17 16  2  0  0  0  0
 17 15  1  0  0  0  0
 19 20  1  0  0  0  0
 19 18  1  0  0  0  0
 21 12  1  0  0  0  0
 22 21  1  0  0  0  0
 23 22  1  0  0  0  0
 23 25  1  0  0  0  0
 24 23  1  0  0  0  0
 25 26  1  0  0  0  0
 27 26  1  0  0  0  0
 28 27  3  0  0  0  0
 29  9  1  0  0  0  0
 30 36  1  0  0  0  0
 30 32  1  0  0  0  0
 31 46  1  0  0  0  0
 31 33  1  0  0  0  0
 32 34  1  0  0  0  0
 34 33  1  0  0  0  0
 34 29  1  0  0  0  0
 35 36  2  0  0  0  0
 36 31  1  0  0  0  0
 38 37  2  0  0  0  0
 38 30  1  0  0  0  0
 39 41  1  0  0  0  0
 39 38  1  0  0  0  0
 40 41  1  0  0  0  0
 42 43  1  0  0  0  0
 42 41  1  0  0  0  0
 44 42  2  0  0  0  0
 46 45  2  0  0  0  0
M  END
>  <MODEL>
9

>  <REMARK>
 VINA RESULT:      -4.4      2.676      5.654
  Name = 
  20 active torsions:
  status: ('A' for Active; 'I' for Inactive)
    1  A    between atoms: C_2  and  C_16
    2  A    between atoms: C_2  and  N_22
    3  A    between atoms: C_3  and  C_30
    4  A    between atoms: C_4  and  C_7
    5  A    between atoms: C_4  and  C_11
    6  A    between atoms: C_5  and  C_21
    7  A    between atoms: C_7  and  N_22
    8  A    between atoms: C_9  and  O_23
    9  A    between atoms: C_9  and  C_25
   10  A    between atoms: C_9  and  C_27
   11  A    between atoms: C_10  and  C_35
   12  A    between atoms: C_11  and  C_26
   13  A    between atoms: N_15  and  O_23
   14  A    between atoms: C_16  and  C_27
   15  A    between atoms: C_16  and  C_32
   16  A    between atoms: C_18  and  C_39
   17  A    between atoms: C_19  and  C_21
   18  A    between atoms: C_19  and  C_30
   19  A    between atoms: O_20  and  C_42
   20  A    between atoms: O_20  and  C_46
                            x       y       z     vdW  Elec       q    Type
                         _______ _______ _______ _____ _____    ______ ____

>  <TORSDO>
F 20

$$$$
