=
 OpenBabel11072409393D

 25 27  0  0  1  0  0  0  0  0999 V2000
  185.0570  178.5430  144.4330 C   0  0  1  0  0  3  0  0  0  0  0  0
  186.2680  177.8700  143.8400 C   0  0  1  0  0  3  0  0  0  0  0  0
  186.1650  178.1840  142.3810 C   0  0  2  0  0  3  0  0  0  0  0  0
  184.7080  177.9420  142.0730 C   0  0  0  0  0  2  0  0  0  0  0  0
  183.9900  178.4050  143.3420 C   0  0  0  0  0  2  0  0  0  0  0  0
  188.6140  177.4610  142.1280 C   0  0  2  0  0  3  0  0  0  0  0  0
  189.2050  178.6120  141.6060 O   0  0  0  0  0  1  0  0  0  0  0  0
  187.1850  177.3670  141.6520 C   0  0  0  0  0  0  0  0  0  0  0  0
  186.8970  176.7150  140.6610 O   0  0  0  0  0  0  0  0  0  0  0  0
  187.6250  178.3290  144.3520 C   0  0  0  0  0  2  0  0  0  0  0  0
  188.7170  177.4770  143.6720 C   0  0  1  0  0  3  0  0  0  0  0  0
  188.6740  176.1680  144.1620 O   0  0  0  0  0  0  0  0  0  0  0  0
  189.6880  174.8460  147.5540 C   0  0  0  0  0  2  0  0  0  0  0  0
  191.0620  176.7590  148.0380 O   0  0  0  0  0  1  0  0  0  0  0  0
  191.3150  175.5150  145.1650 O   0  0  0  0  0  0  0  0  0  0  0  0
  191.1110  175.4200  147.6450 C   0  0  2  0  0  3  0  0  0  0  0  0
  191.9860  175.2630  146.3830 C   0  0  0  0  0  2  0  0  0  0  0  0
  189.2430  176.2360  145.4350 C   0  0  1  0  0  3  0  0  0  0  0  0
  189.0260  174.9030  146.1730 C   0  0  0  0  0  2  0  0  0  0  0  0
  190.6020  176.6200  145.3340 O   0  0  0  0  0  0  0  0  0  0  0  0
  184.6270  177.8170  145.6990 C   0  0  0  0  0  2  0  0  0  0  0  0
  184.9290  178.6470  146.9390 C   0  0  0  0  0  2  0  0  0  0  0  0
  186.1140  178.1040  147.6630 C   0  0  0  0  0  0  0  0  0  0  0  0
  186.9530  178.9590  148.3640 O   0  0  0  0  0  1  0  0  0  0  0  0
  186.3720  176.8730  147.6140 O   0  0  0  0  0  0  0  0  0  0  0  0
  1 21  1  1  0  0  0
  2 10  1  1  0  0  0
  2  1  1  0  0  0  0
  3  4  1  6  0  0  0
  3  2  1  0  0  0  0
  4  5  1  0  0  0  0
  5  1  1  0  0  0  0
  6  7  1  6  0  0  0
  6 11  1  0  0  0  0
  8  6  1  0  0  0  0
  8  3  1  0  0  0  0
  9  8  2  0  0  0  0
 11 12  1  1  0  0  0
 11 10  1  0  0  0  0
 13 16  1  0  0  0  0
 15 20  1  0  0  0  0
 15 17  1  0  0  0  0
 16 14  1  6  0  0  0
 17 16  1  0  0  0  0
 18 12  1  6  0  0  0
 18 19  1  0  0  0  0
 19 13  1  0  0  0  0
 20 18  1  0  0  0  0
 21 22  1  0  0  0  0
 22 23  1  0  0  0  0
 23 24  1  0  0  0  0
 25 23  2  0  0  0  0
M  END
>  <MODEL>
1

>  <REMARK>
 VINA RESULT:      -7.1      0.000      0.000
  Name = 
  5 active torsions:
  status: ('A' for Active; 'I' for Inactive)
    1  A    between atoms: C_1  and  C_2
    2  A    between atoms: C_2  and  C_19
    3  A    between atoms: O_5  and  C_16
    4  A    between atoms: O_5  and  C_24
    5  A    between atoms: C_7  and  C_19
                            x       y       z     vdW  Elec       q    Type
                         _______ _______ _______ _____ _____    ______ ____

>  <TORSDO>
F 5

$$$$
=
 OpenBabel11072409393D

 25 27  0  0  1  0  0  0  0  0999 V2000
  184.8680  177.5920  143.2710 C   0  0  1  0  0  3  0  0  0  0  0  0
  185.8370  177.6980  144.4200 C   0  0  1  0  0  3  0  0  0  0  0  0
  184.9770  178.1290  145.5660 C   0  0  2  0  0  3  0  0  0  0  0  0
  184.1080  179.2060  144.9650 C   0  0  0  0  0  2  0  0  0  0  0  0
  183.8580  178.7130  143.5380 C   0  0  0  0  0  2  0  0  0  0  0  0
  186.8880  177.4760  147.1490 C   0  0  2  0  0  3  0  0  0  0  0  0
  186.2740  176.5300  147.9710 O   0  0  0  0  0  1  0  0  0  0  0  0
  185.8690  178.4990  146.7090 C   0  0  0  0  0  0  0  0  0  0  0  0
  185.7310  179.5460  147.3200 O   0  0  0  0  0  0  0  0  0  0  0  0
  186.5790  176.4280  144.8070 C   0  0  0  0  0  2  0  0  0  0  0  0
  187.5600  176.7650  145.9500 C   0  0  1  0  0  3  0  0  0  0  0  0
  188.6080  177.5530  145.4630 O   0  0  0  0  0  0  0  0  0  0  0  0
  192.1140  176.5430  144.4750 C   0  0  0  0  0  2  0  0  0  0  0  0
  191.9310  174.3840  145.5180 O   0  0  0  0  0  1  0  0  0  0  0  0
  190.8620  176.8480  147.1470 O   0  0  0  0  0  0  0  0  0  0  0  0
  192.4810  175.6580  145.6760 C   0  0  2  0  0  3  0  0  0  0  0  0
  192.1280  176.2260  147.0680 C   0  0  0  0  0  2  0  0  0  0  0  0
  189.6770  176.6700  145.2900 C   0  0  1  0  0  3  0  0  0  0  0  0
  190.8570  177.4060  144.6330 C   0  0  0  0  0  2  0  0  0  0  0  0
  189.9990  176.0570  146.5240 O   0  0  0  0  0  0  0  0  0  0  0  0
  185.5950  177.8280  141.9550 C   0  0  0  0  0  2  0  0  0  0  0  0
  186.8670  178.6380  142.1660 C   0  0  0  0  0  2  0  0  0  0  0  0
  188.0610  177.8760  141.7030 C   0  0  0  0  0  0  0  0  0  0  0  0
  187.9200  176.5740  141.2440 O   0  0  0  0  0  0  0  0  0  0  0  0
  189.2030  178.4020  141.7570 O   0  0  0  0  0  1  0  0  0  0  0  0
  1 21  1  6  0  0  0
  1  5  1  0  0  0  0
  1  2  1  0  0  0  0
  2 10  1  1  0  0  0
  2  3  1  0  0  0  0
  3  4  1  6  0  0  0
  3  8  1  0  0  0  0
  5  4  1  0  0  0  0
  6  7  1  1  0  0  0
  8  6  1  0  0  0  0
  8  9  2  0  0  0  0
 10 11  1  0  0  0  0
 11 12  1  6  0  0  0
 11  6  1  0  0  0  0
 13 19  1  0  0  0  0
 13 16  1  0  0  0  0
 16 14  1  6  0  0  0
 16 17  1  0  0  0  0
 17 15  1  0  0  0  0
 18 12  1  1  0  0  0
 18 20  1  0  0  0  0
 19 18  1  0  0  0  0
 20 15  1  0  0  0  0
 21 22  1  0  0  0  0
 23 25  1  0  0  0  0
 23 22  1  0  0  0  0
 24 23  2  0  0  0  0
M  END
>  <MODEL>
2

>  <REMARK>
 VINA RESULT:      -6.9      1.327      4.223
  Name = 
  5 active torsions:
  status: ('A' for Active; 'I' for Inactive)
    1  A    between atoms: C_1  and  C_2
    2  A    between atoms: C_2  and  C_19
    3  A    between atoms: O_5  and  C_16
    4  A    between atoms: O_5  and  C_24
    5  A    between atoms: C_7  and  C_19
                            x       y       z     vdW  Elec       q    Type
                         _______ _______ _______ _____ _____    ______ ____

>  <TORSDO>
F 5

$$$$
=
 OpenBabel11072409393D

 25 27  0  0  1  0  0  0  0  0999 V2000
  185.0880  178.0030  143.7510 C   0  0  1  0  0  3  0  0  0  0  0  0
  186.3280  177.8650  144.5960 C   0  0  1  0  0  3  0  0  0  0  0  0
  185.7920  177.7530  145.9890 C   0  0  2  0  0  3  0  0  0  0  0  0
  184.7310  178.8250  146.0430 C   0  0  0  0  0  2  0  0  0  0  0  0
  184.1270  178.8040  144.6360 C   0  0  0  0  0  2  0  0  0  0  0  0
  188.0990  176.9080  146.7280 C   0  0  2  0  0  3  0  0  0  0  0  0
  187.7910  175.6600  147.2730 O   0  0  0  0  0  1  0  0  0  0  0  0
  186.9410  177.8520  146.9430 C   0  0  0  0  0  0  0  0  0  0  0  0
  186.9160  178.6020  147.9050 O   0  0  0  0  0  0  0  0  0  0  0  0
  187.2200  176.6670  144.3100 C   0  0  0  0  0  2  0  0  0  0  0  0
  188.4560  176.7470  145.2310 C   0  0  1  0  0  3  0  0  0  0  0  0
  189.2830  177.8010  144.8280 O   0  0  0  0  0  0  0  0  0  0  0  0
  191.9750  175.1500  144.8370 C   0  0  0  0  0  2  0  0  0  0  0  0
  193.7560  176.7660  144.8780 O   0  0  0  0  0  1  0  0  0  0  0  0
  191.3840  177.3090  142.8910 O   0  0  0  0  0  0  0  0  0  0  0  0
  193.0690  175.8820  144.0440 C   0  0  2  0  0  3  0  0  0  0  0  0
  192.6030  176.6060  142.7620 C   0  0  0  0  0  2  0  0  0  0  0  0
  190.5850  177.3110  144.9520 C   0  0  1  0  0  3  0  0  0  0  0  0
  190.5790  175.7800  144.8000 C   0  0  0  0  0  2  0  0  0  0  0  0
  191.4370  177.9740  144.0370 O   0  0  0  0  0  0  0  0  0  0  0  0
  185.4100  178.7710  142.4770 C   0  0  0  0  0  2  0  0  0  0  0  0
  185.1960  177.9060  141.2430 C   0  0  0  0  0  2  0  0  0  0  0  0
  186.4820  177.6800  140.5260 C   0  0  0  0  0  0  0  0  0  0  0  0
  187.6880  177.9500  141.1590 O   0  0  0  0  0  1  0  0  0  0  0  0
  186.4770  177.2720  139.3350 O   0  0  0  0  0  0  0  0  0  0  0  0
  1 21  1  6  0  0  0
  1  2  1  0  0  0  0
  1  5  1  0  0  0  0
  2 10  1  6  0  0  0
  2  3  1  0  0  0  0
  3  4  1  1  0  0  0
  3  8  1  0  0  0  0
  5  4  1  0  0  0  0
  6  8  1  0  0  0  0
  6  7  1  6  0  0  0
  8  9  2  0  0  0  0
 10 11  1  0  0  0  0
 11 12  1  6  0  0  0
 11  6  1  0  0  0  0
 15 20  1  0  0  0  0
 16 13  1  0  0  0  0
 16 14  1  1  0  0  0
 17 15  1  0  0  0  0
 17 16  1  0  0  0  0
 18 12  1  6  0  0  0
 19 13  1  0  0  0  0
 19 18  1  0  0  0  0
 20 18  1  0  0  0  0
 22 21  1  0  0  0  0
 23 24  1  0  0  0  0
 23 22  1  0  0  0  0
 25 23  2  0  0  0  0
M  END
>  <MODEL>
3

>  <REMARK>
 VINA RESULT:      -6.9      1.806      4.440
  Name = 
  5 active torsions:
  status: ('A' for Active; 'I' for Inactive)
    1  A    between atoms: C_1  and  C_2
    2  A    between atoms: C_2  and  C_19
    3  A    between atoms: O_5  and  C_16
    4  A    between atoms: O_5  and  C_24
    5  A    between atoms: C_7  and  C_19
                            x       y       z     vdW  Elec       q    Type
                         _______ _______ _______ _____ _____    ______ ____

>  <TORSDO>
F 5

$$$$
=
 OpenBabel11072409393D

 25 27  0  0  1  0  0  0  0  0999 V2000
  186.5840  177.9580  145.9080 C   0  0  1  0  0  3  0  0  0  0  0  0
  186.3530  177.4320  144.5150 C   0  0  1  0  0  3  0  0  0  0  0  0
  185.3660  178.3970  143.9360 C   0  0  2  0  0  3  0  0  0  0  0  0
  184.3650  178.5850  145.0490 C   0  0  0  0  0  2  0  0  0  0  0  0
  185.2210  178.5290  146.3160 C   0  0  0  0  0  2  0  0  0  0  0  0
  185.9190  177.4540  141.6150 C   0  0  2  0  0  3  0  0  0  0  0  0
  186.3540  178.5910  140.9340 O   0  0  0  0  0  1  0  0  0  0  0  0
  184.8770  177.8430  142.6340 C   0  0  0  0  0  0  0  0  0  0  0  0
  183.6880  177.7830  142.3680 O   0  0  0  0  0  0  0  0  0  0  0  0
  187.5670  177.3580  143.6030 C   0  0  0  0  0  2  0  0  0  0  0  0
  187.1300  176.7380  142.2580 C   0  0  1  0  0  3  0  0  0  0  0  0
  186.8390  175.3810  142.4310 O   0  0  0  0  0  0  0  0  0  0  0  0
  189.0490  172.3840  141.7850 C   0  0  0  0  0  2  0  0  0  0  0  0
  190.9590  173.7400  141.2410 O   0  0  0  0  0  1  0  0  0  0  0  0
  188.2050  174.5950  139.9960 O   0  0  0  0  0  0  0  0  0  0  0  0
  189.9500  172.9560  140.6790 C   0  0  2  0  0  3  0  0  0  0  0  0
  189.2310  173.7310  139.5540 C   0  0  0  0  0  2  0  0  0  0  0  0
  188.0450  174.7160  142.1980 C   0  0  1  0  0  3  0  0  0  0  0  0
  187.7960  173.2000  142.1220 C   0  0  0  0  0  2  0  0  0  0  0  0
  188.6750  175.2520  141.0480 O   0  0  0  0  0  0  0  0  0  0  0  0
  186.9860  176.8180  146.8330 C   0  0  0  0  0  2  0  0  0  0  0  0
  188.5010  176.6900  146.9220 C   0  0  0  0  0  2  0  0  0  0  0  0
  188.9250  175.2780  146.7070 C   0  0  0  0  0  0  0  0  0  0  0  0
  189.3450  174.8610  145.4510 O   0  0  0  0  0  0  0  0  0  0  0  0
  188.8750  174.4530  147.6570 O   0  0  0  0  0  1  0  0  0  0  0  0
  1  5  1  0  0  0  0
  1 21  1  1  0  0  0
  2 10  1  6  0  0  0
  2  1  1  0  0  0  0
  3  2  1  0  0  0  0
  3  4  1  1  0  0  0
  4  5  1  0  0  0  0
  6  7  1  1  0  0  0
  6 11  1  0  0  0  0
  6  8  1  0  0  0  0
  8  3  1  0  0  0  0
  9  8  2  0  0  0  0
 11 12  1  1  0  0  0
 11 10  1  0  0  0  0
 13 19  1  0  0  0  0
 15 20  1  0  0  0  0
 16 14  1  1  0  0  0
 16 13  1  0  0  0  0
 17 15  1  0  0  0  0
 17 16  1  0  0  0  0
 18 12  1  6  0  0  0
 19 18  1  0  0  0  0
 20 18  1  0  0  0  0
 21 22  1  0  0  0  0
 23 22  1  0  0  0  0
 23 25  1  0  0  0  0
 24 23  2  0  0  0  0
M  END
>  <MODEL>
4

>  <REMARK>
 VINA RESULT:      -6.7      2.686      4.322
  Name = 
  5 active torsions:
  status: ('A' for Active; 'I' for Inactive)
    1  A    between atoms: C_1  and  C_2
    2  A    between atoms: C_2  and  C_19
    3  A    between atoms: O_5  and  C_16
    4  A    between atoms: O_5  and  C_24
    5  A    between atoms: C_7  and  C_19
                            x       y       z     vdW  Elec       q    Type
                         _______ _______ _______ _____ _____    ______ ____

>  <TORSDO>
F 5

$$$$
=
 OpenBabel11072409393D

 25 27  0  0  1  0  0  0  0  0999 V2000
  184.9920  178.6460  144.7390 C   0  0  1  0  0  3  0  0  0  0  0  0
  186.0240  177.8960  143.9360 C   0  0  1  0  0  3  0  0  0  0  0  0
  185.8700  178.4570  142.5580 C   0  0  2  0  0  3  0  0  0  0  0  0
  184.3740  178.5000  142.3620 C   0  0  0  0  0  2  0  0  0  0  0  0
  183.8400  178.8580  143.7510 C   0  0  0  0  0  2  0  0  0  0  0  0
  188.1340  177.4090  141.9590 C   0  0  2  0  0  3  0  0  0  0  0  0
  188.8740  178.5220  141.5590 O   0  0  0  0  0  1  0  0  0  0  0  0
  186.6800  177.6200  141.6170 C   0  0  0  0  0  0  0  0  0  0  0  0
  186.2140  177.1910  140.5750 O   0  0  0  0  0  0  0  0  0  0  0  0
  187.4720  178.0470  144.3750 C   0  0  0  0  0  2  0  0  0  0  0  0
  188.3510  177.1570  143.4700 C   0  0  1  0  0  3  0  0  0  0  0  0
  188.1200  175.8080  143.7620 O   0  0  0  0  0  0  0  0  0  0  0  0
  190.9450  173.9450  145.4460 C   0  0  0  0  0  2  0  0  0  0  0  0
  192.1760  173.6870  143.3960 O   0  0  0  0  0  1  0  0  0  0  0  0
  189.0890  173.1170  143.2840 O   0  0  0  0  0  0  0  0  0  0  0  0
  191.3600  173.0070  144.3010 C   0  0  2  0  0  3  0  0  0  0  0  0
  190.2080  172.2970  143.5570 C   0  0  0  0  0  2  0  0  0  0  0  0
  189.3900  175.2320  143.8500 C   0  0  1  0  0  3  0  0  0  0  0  0
  189.6080  174.6740  145.2680 C   0  0  0  0  0  2  0  0  0  0  0  0
  189.5540  174.2700  142.8240 O   0  0  0  0  0  0  0  0  0  0  0  0
  184.5370  177.8000  145.9200 C   0  0  0  0  0  2  0  0  0  0  0  0
  184.8610  178.4810  147.2420 C   0  0  0  0  0  2  0  0  0  0  0  0
  186.1910  178.0410  147.7520 C   0  0  0  0  0  0  0  0  0  0  0  0
  186.6010  176.7260  147.5780 O   0  0  0  0  0  0  0  0  0  0  0  0
  186.9300  178.8520  148.3670 O   0  0  0  0  0  1  0  0  0  0  0  0
  1 21  1  1  0  0  0
  2 10  1  1  0  0  0
  2  1  1  0  0  0  0
  3  4  1  6  0  0  0
  3  2  1  0  0  0  0
  4  5  1  0  0  0  0
  5  1  1  0  0  0  0
  6  7  1  1  0  0  0
  6 11  1  0  0  0  0
  8  6  1  0  0  0  0
  8  3  1  0  0  0  0
  9  8  2  0  0  0  0
 11 12  1  6  0  0  0
 11 10  1  0  0  0  0
 15 17  1  0  0  0  0
 16 14  1  6  0  0  0
 16 13  1  0  0  0  0
 17 16  1  0  0  0  0
 18 12  1  1  0  0  0
 18 19  1  0  0  0  0
 19 13  1  0  0  0  0
 20 15  1  0  0  0  0
 20 18  1  0  0  0  0
 21 22  1  0  0  0  0
 22 23  1  0  0  0  0
 23 25  1  0  0  0  0
 24 23  2  0  0  0  0
M  END
>  <MODEL>
5

>  <REMARK>
 VINA RESULT:      -6.7      1.560      2.212
  Name = 
  5 active torsions:
  status: ('A' for Active; 'I' for Inactive)
    1  A    between atoms: C_1  and  C_2
    2  A    between atoms: C_2  and  C_19
    3  A    between atoms: O_5  and  C_16
    4  A    between atoms: O_5  and  C_24
    5  A    between atoms: C_7  and  C_19
                            x       y       z     vdW  Elec       q    Type
                         _______ _______ _______ _____ _____    ______ ____

>  <TORSDO>
F 5

$$$$
=
 OpenBabel11072409393D

 25 27  0  0  1  0  0  0  0  0999 V2000
  186.6750  176.5640  142.0300 C   0  0  1  0  0  3  0  0  0  0  0  0
  186.6250  177.2590  143.3660 C   0  0  1  0  0  3  0  0  0  0  0  0
  185.3060  177.9660  143.3440 C   0  0  2  0  0  3  0  0  0  0  0  0
  185.2570  178.5750  141.9640 C   0  0  0  0  0  2  0  0  0  0  0  0
  185.9500  177.5300  141.0860 C   0  0  0  0  0  2  0  0  0  0  0  0
  185.5210  178.2880  145.8810 C   0  0  2  0  0  3  0  0  0  0  0  0
  184.3700  177.6580  146.3530 O   0  0  0  0  0  1  0  0  0  0  0  0
  185.2480  178.8870  144.5230 C   0  0  0  0  0  0  0  0  0  0  0  0
  184.9130  180.0550  144.4100 O   0  0  0  0  0  0  0  0  0  0  0  0
  186.6920  176.3730  144.6000 C   0  0  0  0  0  2  0  0  0  0  0  0
  186.6920  177.2780  145.8510 C   0  0  1  0  0  3  0  0  0  0  0  0
  187.9090  177.9620  145.9440 O   0  0  0  0  0  0  0  0  0  0  0  0
  191.2290  176.6020  144.7560 C   0  0  0  0  0  2  0  0  0  0  0  0
  190.9860  174.5550  145.9940 O   0  0  0  0  0  1  0  0  0  0  0  0
  190.2490  177.2180  147.4870 O   0  0  0  0  0  0  0  0  0  0  0  0
  191.6380  175.7890  145.9940 C   0  0  2  0  0  3  0  0  0  0  0  0
  191.4550  176.4930  147.3560 C   0  0  0  0  0  2  0  0  0  0  0  0
  188.8910  176.9860  145.7580 C   0  0  1  0  0  3  0  0  0  0  0  0
  190.0570  177.5720  144.9430 C   0  0  0  0  0  2  0  0  0  0  0  0
  189.2790  176.4500  147.0100 O   0  0  0  0  0  0  0  0  0  0  0  0
  188.1210  176.3740  141.5970 C   0  0  0  0  0  2  0  0  0  0  0  0
  188.3440  174.9850  141.0160 C   0  0  0  0  0  2  0  0  0  0  0  0
  188.2950  173.9500  142.0870 C   0  0  0  0  0  0  0  0  0  0  0  0
  189.0620  174.1010  143.2350 O   0  0  0  0  0  1  0  0  0  0  0  0
  187.5830  172.9230  141.9400 O   0  0  0  0  0  0  0  0  0  0  0  0
  1 21  1  6  0  0  0
  1  2  1  0  0  0  0
  2 10  1  1  0  0  0
  3  4  1  6  0  0  0
  3  2  1  0  0  0  0
  3  8  1  0  0  0  0
  5  4  1  0  0  0  0
  5  1  1  0  0  0  0
  6  7  1  6  0  0  0
  8  6  1  0  0  0  0
  9  8  2  0  0  0  0
 10 11  1  0  0  0  0
 11  6  1  0  0  0  0
 11 12  1  6  0  0  0
 13 19  1  0  0  0  0
 13 16  1  0  0  0  0
 16 14  1  1  0  0  0
 16 17  1  0  0  0  0
 17 15  1  0  0  0  0
 18 12  1  1  0  0  0
 18 20  1  0  0  0  0
 19 18  1  0  0  0  0
 20 15  1  0  0  0  0
 22 21  1  0  0  0  0
 22 23  1  0  0  0  0
 23 24  1  0  0  0  0
 25 23  2  0  0  0  0
M  END
>  <MODEL>
6

>  <REMARK>
 VINA RESULT:      -6.5      2.078      4.295
  Name = 
  5 active torsions:
  status: ('A' for Active; 'I' for Inactive)
    1  A    between atoms: C_1  and  C_2
    2  A    between atoms: C_2  and  C_19
    3  A    between atoms: O_5  and  C_16
    4  A    between atoms: O_5  and  C_24
    5  A    between atoms: C_7  and  C_19
                            x       y       z     vdW  Elec       q    Type
                         _______ _______ _______ _____ _____    ______ ____

>  <TORSDO>
F 5

$$$$
=
 OpenBabel11072409393D

 25 27  0  0  1  0  0  0  0  0999 V2000
  191.8550  175.8990  143.6700 C   0  0  1  0  0  3  0  0  0  0  0  0
  190.7660  176.1360  144.6840 C   0  0  1  0  0  3  0  0  0  0  0  0
  191.4530  175.9150  145.9940 C   0  0  2  0  0  3  0  0  0  0  0  0
  192.2640  174.6640  145.7590 C   0  0  0  0  0  2  0  0  0  0  0  0
  192.7100  174.7950  144.3010 C   0  0  0  0  0  2  0  0  0  0  0  0
  189.4650  177.0600  147.1450 C   0  0  2  0  0  3  0  0  0  0  0  0
  190.0840  178.1200  147.8090 O   0  0  0  0  0  1  0  0  0  0  0  0
  190.4130  175.8880  147.0710 C   0  0  0  0  0  0  0  0  0  0  0  0
  190.3780  175.0020  147.9090 O   0  0  0  0  0  0  0  0  0  0  0  0
  190.1230  177.5140  144.6870 C   0  0  0  0  0  2  0  0  0  0  0  0
  188.9990  177.5260  145.7450 C   0  0  1  0  0  3  0  0  0  0  0  0
  187.9310  176.7310  145.3150 O   0  0  0  0  0  0  0  0  0  0  0  0
  184.8620  177.7360  143.3510 C   0  0  0  0  0  2  0  0  0  0  0  0
  184.9640  180.0190  144.1010 O   0  0  0  0  0  1  0  0  0  0  0  0
  185.4030  177.7870  146.2670 O   0  0  0  0  0  0  0  0  0  0  0  0
  184.2900  178.8110  144.2890 C   0  0  2  0  0  3  0  0  0  0  0  0
  184.2490  178.4460  145.7890 C   0  0  0  0  0  2  0  0  0  0  0  0
  187.0120  177.6250  144.7600 C   0  0  1  0  0  3  0  0  0  0  0  0
  185.9680  176.8510  143.9360 C   0  0  0  0  0  2  0  0  0  0  0  0
  186.4530  178.4340  145.7790 O   0  0  0  0  0  0  0  0  0  0  0  0
  191.2490  175.4240  142.3580 C   0  0  0  0  0  2  0  0  0  0  0  0
  190.1310  174.4190  142.6000 C   0  0  0  0  0  2  0  0  0  0  0  0
  188.8550  174.8910  141.9910 C   0  0  0  0  0  0  0  0  0  0  0  0
  188.6680  176.2410  141.7280 O   0  0  0  0  0  0  0  0  0  0  0  0
  187.9340  174.0700  141.7420 O   0  0  0  0  0  1  0  0  0  0  0  0
  1 21  1  6  0  0  0
  1  5  1  0  0  0  0
  1  2  1  0  0  0  0
  2 10  1  1  0  0  0
  2  3  1  0  0  0  0
  3  4  1  6  0  0  0
  3  8  1  0  0  0  0
  5  4  1  0  0  0  0
  6  7  1  6  0  0  0
  8  6  1  0  0  0  0
  8  9  2  0  0  0  0
 10 11  1  0  0  0  0
 11 12  1  6  0  0  0
 11  6  1  0  0  0  0
 13 19  1  0  0  0  0
 13 16  1  0  0  0  0
 16 14  1  1  0  0  0
 16 17  1  0  0  0  0
 17 15  1  0  0  0  0
 18 12  1  1  0  0  0
 18 20  1  0  0  0  0
 19 18  1  0  0  0  0
 20 15  1  0  0  0  0
 21 22  1  0  0  0  0
 23 22  1  0  0  0  0
 24 23  2  0  0  0  0
 25 23  1  0  0  0  0
M  END
>  <MODEL>
7

>  <REMARK>
 VINA RESULT:      -6.3      2.155      6.626
  Name = 
  5 active torsions:
  status: ('A' for Active; 'I' for Inactive)
    1  A    between atoms: C_1  and  C_2
    2  A    between atoms: C_2  and  C_19
    3  A    between atoms: O_5  and  C_16
    4  A    between atoms: O_5  and  C_24
    5  A    between atoms: C_7  and  C_19
                            x       y       z     vdW  Elec       q    Type
                         _______ _______ _______ _____ _____    ______ ____

>  <TORSDO>
F 5

$$$$
=
 OpenBabel11072409393D

 25 27  0  0  1  0  0  0  0  0999 V2000
  188.2920  176.6320  146.2640 C   0  0  1  0  0  3  0  0  0  0  0  0
  187.7580  176.4390  144.8680 C   0  0  1  0  0  3  0  0  0  0  0  0
  186.8060  177.5800  144.6960 C   0  0  2  0  0  3  0  0  0  0  0  0
  186.0450  177.6010  145.9990 C   0  0  0  0  0  2  0  0  0  0  0  0
  187.0990  177.2060  147.0370 C   0  0  0  0  0  2  0  0  0  0  0  0
  186.8260  177.1190  142.1720 C   0  0  2  0  0  3  0  0  0  0  0  0
  187.2650  178.3390  141.6560 O   0  0  0  0  0  1  0  0  0  0  0  0
  186.0330  177.3600  143.4330 C   0  0  0  0  0  0  0  0  0  0  0  0
  184.8170  177.4520  143.3990 O   0  0  0  0  0  0  0  0  0  0  0  0
  188.7760  176.4680  143.7380 C   0  0  0  0  0  2  0  0  0  0  0  0
  188.0390  176.1890  142.4100 C   0  0  1  0  0  3  0  0  0  0  0  0
  187.6250  174.8530  142.3670 O   0  0  0  0  0  0  0  0  0  0  0  0
  189.7910  171.7750  142.0280 C   0  0  0  0  0  2  0  0  0  0  0  0
  191.3380  172.8610  140.5420 O   0  0  0  0  0  1  0  0  0  0  0  0
  188.2780  173.3180  139.9950 O   0  0  0  0  0  0  0  0  0  0  0  0
  190.2780  171.9540  140.5810 C   0  0  2  0  0  3  0  0  0  0  0  0
  189.1990  172.3430  139.5480 C   0  0  0  0  0  2  0  0  0  0  0  0
  188.7610  174.1320  141.9920 C   0  0  1  0  0  3  0  0  0  0  0  0
  188.6290  172.6730  142.4640 C   0  0  0  0  0  2  0  0  0  0  0  0
  188.9790  174.2670  140.6000 O   0  0  0  0  0  0  0  0  0  0  0  0
  188.7140  175.2920  146.8490 C   0  0  0  0  0  2  0  0  0  0  0  0
  190.1240  175.3600  147.4180 C   0  0  0  0  0  2  0  0  0  0  0  0
  191.1360  175.3610  146.3250 C   0  0  0  0  0  0  0  0  0  0  0  0
  192.0270  176.4200  146.2030 O   0  0  0  0  0  1  0  0  0  0  0  0
  191.1650  174.4180  145.4910 O   0  0  0  0  0  0  0  0  0  0  0  0
  1 21  1  1  0  0  0
  1  5  1  0  0  0  0
  2 10  1  6  0  0  0
  2  1  1  0  0  0  0
  3  2  1  0  0  0  0
  3  4  1  1  0  0  0
  4  5  1  0  0  0  0
  6  7  1  1  0  0  0
  6 11  1  0  0  0  0
  6  8  1  0  0  0  0
  8  3  1  0  0  0  0
  9  8  2  0  0  0  0
 11 12  1  1  0  0  0
 11 10  1  0  0  0  0
 13 19  1  0  0  0  0
 15 20  1  0  0  0  0
 16 14  1  1  0  0  0
 16 13  1  0  0  0  0
 17 15  1  0  0  0  0
 17 16  1  0  0  0  0
 18 12  1  6  0  0  0
 18 19  1  0  0  0  0
 20 18  1  0  0  0  0
 21 22  1  0  0  0  0
 23 22  1  0  0  0  0
 24 23  1  0  0  0  0
 25 23  2  0  0  0  0
M  END
>  <MODEL>
8

>  <REMARK>
 VINA RESULT:      -6.3      2.969      4.984
  Name = 
  5 active torsions:
  status: ('A' for Active; 'I' for Inactive)
    1  A    between atoms: C_1  and  C_2
    2  A    between atoms: C_2  and  C_19
    3  A    between atoms: O_5  and  C_16
    4  A    between atoms: O_5  and  C_24
    5  A    between atoms: C_7  and  C_19
                            x       y       z     vdW  Elec       q    Type
                         _______ _______ _______ _____ _____    ______ ____

>  <TORSDO>
F 5

$$$$
=
 OpenBabel11072409393D

 25 27  0  0  1  0  0  0  0  0999 V2000
  188.8050  176.3890  146.3770 C   0  0  1  0  0  3  0  0  0  0  0  0
  189.2450  176.3050  144.9380 C   0  0  1  0  0  3  0  0  0  0  0  0
  190.6050  175.6870  145.0230 C   0  0  2  0  0  3  0  0  0  0  0  0
  191.2560  176.4290  146.1640 C   0  0  0  0  0  2  0  0  0  0  0  0
  190.1040  176.6670  147.1420 C   0  0  0  0  0  2  0  0  0  0  0  0
  190.4660  175.2170  142.5040 C   0  0  2  0  0  3  0  0  0  0  0  0
  190.6200  173.8300  142.4580 O   0  0  0  0  0  1  0  0  0  0  0  0
  191.2440  175.7720  143.6720 C   0  0  0  0  0  0  0  0  0  0  0  0
  192.3780  176.1950  143.5220 O   0  0  0  0  0  0  0  0  0  0  0  0
  188.3780  175.4720  144.0060 C   0  0  0  0  0  2  0  0  0  0  0  0
  188.9610  175.5700  142.5800 C   0  0  1  0  0  3  0  0  0  0  0  0
  188.7520  176.8540  142.0670 O   0  0  0  0  0  0  0  0  0  0  0  0
  186.0030  179.2110  143.1490 C   0  0  0  0  0  2  0  0  0  0  0  0
  184.2920  177.5380  142.9170 O   0  0  0  0  0  1  0  0  0  0  0  0
  186.4090  177.7410  140.6050 O   0  0  0  0  0  0  0  0  0  0  0  0
  184.8410  178.6660  142.3040 C   0  0  2  0  0  3  0  0  0  0  0  0
  185.1630  178.3690  140.8230 C   0  0  0  0  0  2  0  0  0  0  0  0
  187.4620  177.2030  142.4730 C   0  0  1  0  0  3  0  0  0  0  0  0
  187.4020  178.7110  142.7740 C   0  0  0  0  0  2  0  0  0  0  0  0
  186.5210  176.7740  141.5060 O   0  0  0  0  0  0  0  0  0  0  0  0
  187.8220  177.5370  146.5540 C   0  0  0  0  0  2  0  0  0  0  0  0
  186.3840  177.0540  146.4330 C   0  0  0  0  0  2  0  0  0  0  0  0
  185.4280  178.1560  146.7360 C   0  0  0  0  0  0  0  0  0  0  0  0
  184.0720  177.9880  146.4930 O   0  0  0  0  0  0  0  0  0  0  0  0
  185.8530  179.2540  147.1820 O   0  0  0  0  0  1  0  0  0  0  0  0
  1 21  1  6  0  0  0
  1  5  1  0  0  0  0
  2 10  1  6  0  0  0
  2  3  1  0  0  0  0
  2  1  1  0  0  0  0
  3  4  1  1  0  0  0
  4  5  1  0  0  0  0
  6  7  1  1  0  0  0
  6 11  1  0  0  0  0
  6  8  1  0  0  0  0
  8  3  1  0  0  0  0
  9  8  2  0  0  0  0
 11 12  1  1  0  0  0
 11 10  1  0  0  0  0
 15 17  1  0  0  0  0
 15 20  1  0  0  0  0
 16 14  1  1  0  0  0
 16 13  1  0  0  0  0
 17 16  1  0  0  0  0
 18 12  1  6  0  0  0
 18 19  1  0  0  0  0
 19 13  1  0  0  0  0
 20 18  1  0  0  0  0
 22 21  1  0  0  0  0
 22 23  1  0  0  0  0
 23 25  1  0  0  0  0
 24 23  2  0  0  0  0
M  END
>  <MODEL>
9

>  <REMARK>
 VINA RESULT:      -6.3      1.897      5.470
  Name = 
  5 active torsions:
  status: ('A' for Active; 'I' for Inactive)
    1  A    between atoms: C_1  and  C_2
    2  A    between atoms: C_2  and  C_19
    3  A    between atoms: O_5  and  C_16
    4  A    between atoms: O_5  and  C_24
    5  A    between atoms: C_7  and  C_19
                            x       y       z     vdW  Elec       q    Type
                         _______ _______ _______ _____ _____    ______ ____

>  <TORSDO>
F 5

$$$$
