=
 OpenBabel11062421413D

 41 44  0  0  1  0  0  0  0  0999 V2000
  188.9690  176.3930  146.1560 N   0  0  0  0  0  0  0  0  0  0  0  0
  189.9500  173.8550  143.5660 C   0  0  0  0  0  3  0  0  0  0  0  0
  189.5600  174.4220  144.7800 C   0  0  0  0  0  3  0  0  0  0  0  0
  189.5830  176.6180  143.7670 C   0  0  0  0  0  3  0  0  0  0  0  0
  189.9780  176.0540  142.5520 C   0  0  0  0  0  3  0  0  0  0  0  0
  190.1650  174.6720  142.4500 C   0  0  0  0  0  0  0  0  0  0  0  0
  189.3730  175.8120  144.8980 C   0  0  0  0  0  0  0  0  0  0  0  0
  190.5550  174.0650  141.1440 C   0  0  0  0  0  2  0  0  0  0  0  0
  189.3810  173.3270  140.5090 C   0  0  2  0  0  3  0  0  0  0  0  0
  189.5620  171.9510  140.6500 O   0  0  0  0  0  1  0  0  0  0  0  0
  186.7570  175.5500  137.1170 O   0  0  0  0  0  0  0  0  0  0  0  0
  190.1510  173.3460  138.2520 O   0  0  0  0  0  0  0  0  0  0  0  0
  189.2450  173.6780  139.0630 C   0  0  0  0  0  0  0  0  0  0  0  0
  188.0950  174.4150  138.6360 N   0  0  0  0  0  2  0  0  0  0  0  0
  189.0070  174.7840  135.9740 S   0  0  0  0  0  1  0  0  0  0  0  0
  187.8390  174.9450  137.3280 C   0  0  0  0  0  0  0  0  0  0  0  0
  187.5980  176.2870  146.6500 C   0  0  0  0  0  2  0  0  0  0  0  0
  185.3300  177.2870  146.5320 C   0  0  2  0  0  3  0  0  0  0  0  0
  186.1690  178.1010  143.0190 C   0  0  1  0  0  3  0  0  0  0  0  0
  186.8250  177.5710  146.3730 C   0  0  2  0  0  3  0  0  0  0  0  0
  185.8630  178.7180  144.3450 C   0  0  0  0  0  2  0  0  0  0  0  0
  185.8320  176.7330  143.1120 O   0  0  0  0  0  0  0  0  0  0  0  0
  185.9270  177.4740  145.1500 C   0  0  2  0  0  0  0  0  0  0  0  0
  186.1170  176.3420  144.3540 O   0  0  0  0  0  0  0  0  0  0  0  0
  184.6220  178.5360  147.0200 C   0  0  0  0  0  1  0  0  0  0  0  0
  185.3500  178.7720  141.9320 C   0  0  0  0  0  2  0  0  0  0  0  0
  184.0670  177.9940  141.6940 C   0  0  0  0  0  1  0  0  0  0  0  0
  189.9530  177.0120  147.0370 C   0  0  0  0  0  2  0  0  0  0  0  0
  190.8780  175.9550  147.6080 C   0  0  0  0  0  2  0  0  0  0  0  0
  192.3130  176.2900  147.2390 C   0  0  0  0  0  2  0  0  0  0  0  0
  192.9340  175.1720  146.4130 C   0  0  0  0  0  2  0  0  0  0  0  0
  193.1180  175.5760  145.0240 N   0  0  0  0  0  0  0  0  0  0  0  0
  193.0260  176.9920  144.6840 C   0  0  0  0  0  1  0  0  0  0  0  0
  193.4090  174.5920  144.0190 C   0  0  0  0  0  0  0  0  0  0  0  0
  193.3470  173.3660  144.3010 O   0  0  0  0  0  0  0  0  0  0  0  0
  193.8480  174.9970  142.6470 C   0  0  0  0  0  2  0  0  0  0  0  0
  196.9870  176.6350  143.1280 C   0  0  0  0  0  2  0  0  0  0  0  0
  197.1540  175.4320  143.9300 N   0  0  0  0  0  2  0  0  0  0  0  0
  195.8510  176.3790  142.1780 C   0  0  0  0  0  2  0  0  0  0  0  0
  195.3650  175.0140  142.5650 C   0  0  1  0  0  3  0  0  0  0  0  0
  195.9440  174.7210  143.8640 N   0  0  0  0  0  2  0  0  0  0  0  0
  1 17  1  0  0  0  0
  1 28  1  0  0  0  0
  2  3  1  0  0  0  0
  3  7  2  0  0  0  0
  4  7  1  0  0  0  0
  5  4  2  0  0  0  0
  6  5  1  0  0  0  0
  6  2  2  0  0  0  0
  7  1  1  0  0  0  0
  8  6  1  0  0  0  0
  9 10  1  6  0  0  0
  9  8  1  0  0  0  0
 11 16  2  0  0  0  0
 12 13  2  0  0  0  0
 13  9  1  0  0  0  0
 14 13  1  0  0  0  0
 15 16  1  0  0  0  0
 16 14  1  0  0  0  0
 18 25  1  1  0  0  0
 19 26  1  6  0  0  0
 19 22  1  0  0  0  0
 19 21  1  0  0  0  0
 20 18  1  0  0  0  0
 20 17  1  6  0  0  0
 22 24  1  0  0  0  0
 23 21  1  6  0  0  0
 23 20  1  0  0  0  0
 23 18  1  0  0  0  0
 24 23  1  0  0  0  0
 27 26  1  0  0  0  0
 28 29  1  0  0  0  0
 30 29  1  0  0  0  0
 31 30  1  0  0  0  0
 32 31  1  0  0  0  0
 33 32  1  0  0  0  0
 34 35  2  0  0  0  0
 34 32  1  0  0  0  0
 36 34  1  0  0  0  0
 37 38  1  0  0  0  0
 39 40  1  0  0  0  0
 39 37  1  0  0  0  0
 40 36  1  1  0  0  0
 40 41  1  0  0  0  0
 41 38  1  0  0  0  0
M  END
>  <MODEL>
1

>  <REMARK>
 VINA RESULT:      -6.9      0.000      0.000
  Name = 
  14 active torsions:
  status: ('A' for Active; 'I' for Inactive)
    1  A    between atoms: C_3  and  C_13
    2  A    between atoms: C_3  and  C_25
    3  A    between atoms: C_4  and  C_8
    4  A    between atoms: C_4  and  C_24
    5  A    between atoms: C_5  and  C_6
    6  A    between atoms: C_8  and  C_36
    7  A    between atoms: N_10  and  C_13
    8  A    between atoms: C_12  and  C_35
    9  A    between atoms: N_18  and  C_35
   10  A    between atoms: N_18  and  C_38
   11  A    between atoms: N_18  and  C_41
   12  A    between atoms: C_25  and  C_38
   13  A    between atoms: C_31  and  C_39
   14  A    between atoms: C_32  and  C_39
                            x       y       z     vdW  Elec       q    Type
                         _______ _______ _______ _____ _____    ______ ____

>  <TORSDO>
F 14

$$$$
=
 OpenBabel11062421413D

 41 44  0  0  1  0  0  0  0  0999 V2000
  189.0060  176.1410  146.3280 N   0  0  0  0  0  0  0  0  0  0  0  0
  190.0980  172.9280  144.7180 C   0  0  0  0  0  3  0  0  0  0  0  0
  189.6480  173.8430  145.6710 C   0  0  0  0  0  3  0  0  0  0  0  0
  189.7570  175.6140  144.0280 C   0  0  0  0  0  3  0  0  0  0  0  0
  190.2130  174.7020  143.0740 C   0  0  0  0  0  3  0  0  0  0  0  0
  190.3870  173.3580  143.4180 C   0  0  0  0  0  0  0  0  0  0  0  0
  189.4730  175.1990  145.3400 C   0  0  0  0  0  0  0  0  0  0  0  0
  190.8430  172.3760  142.3910 C   0  0  0  0  0  2  0  0  0  0  0  0
  190.6410  172.9220  140.9810 C   0  0  2  0  0  3  0  0  0  0  0  0
  189.6640  172.1740  140.3250 O   0  0  0  0  0  1  0  0  0  0  0  0
  194.4200  175.4160  139.2970 O   0  0  0  0  0  0  0  0  0  0  0  0
  192.3450  171.7900  139.7550 O   0  0  0  0  0  0  0  0  0  0  0  0
  191.9180  172.8870  140.2040 C   0  0  0  0  0  0  0  0  0  0  0  0
  192.6450  174.1050  140.0140 N   0  0  0  0  0  2  0  0  0  0  0  0
  194.8920  172.8690  138.7990 S   0  0  0  0  0  1  0  0  0  0  0  0
  193.9350  174.2610  139.4070 C   0  0  0  0  0  0  0  0  0  0  0  0
  187.6330  176.1180  146.8280 C   0  0  0  0  0  2  0  0  0  0  0  0
  185.4160  177.2110  146.6090 C   0  0  2  0  0  3  0  0  0  0  0  0
  186.4480  177.9960  143.1420 C   0  0  1  0  0  3  0  0  0  0  0  0
  186.9270  177.4330  146.5200 C   0  0  2  0  0  3  0  0  0  0  0  0
  186.1070  178.6220  144.4540 C   0  0  0  0  0  2  0  0  0  0  0  0
  186.0530  176.6430  143.2130 O   0  0  0  0  0  0  0  0  0  0  0  0
  186.0830  177.3750  145.2560 C   0  0  2  0  0  0  0  0  0  0  0  0
  186.2640  176.2380  144.4660 O   0  0  0  0  0  0  0  0  0  0  0  0
  184.7370  178.4870  147.0680 C   0  0  0  0  0  1  0  0  0  0  0  0
  185.7090  178.7020  142.0200 C   0  0  0  0  0  2  0  0  0  0  0  0
  185.7660  177.8640  140.7540 C   0  0  0  0  0  1  0  0  0  0  0  0
  189.9300  177.0820  146.9510 C   0  0  0  0  0  2  0  0  0  0  0  0
  190.9180  176.3370  147.8280 C   0  0  0  0  0  2  0  0  0  0  0  0
  192.3240  176.5430  147.2890 C   0  0  0  0  0  2  0  0  0  0  0  0
  192.8370  175.2750  146.6210 C   0  0  0  0  0  2  0  0  0  0  0  0
  193.2380  175.5260  145.2400 N   0  0  0  0  0  0  0  0  0  0  0  0
  193.1060  176.8760  144.7040 C   0  0  0  0  0  1  0  0  0  0  0  0
  193.7760  174.4610  144.4400 C   0  0  0  0  0  0  0  0  0  0  0  0
  193.7540  173.2770  144.8700 O   0  0  0  0  0  0  0  0  0  0  0  0
  194.4240  174.7400  143.1210 C   0  0  0  0  0  2  0  0  0  0  0  0
  197.6870  175.3700  141.8100 C   0  0  0  0  0  2  0  0  0  0  0  0
  197.6640  176.2400  142.9770 N   0  0  0  0  0  2  0  0  0  0  0  0
  196.5970  174.3530  141.9940 C   0  0  0  0  0  2  0  0  0  0  0  0
  195.9350  174.7690  143.2750 C   0  0  1  0  0  3  0  0  0  0  0  0
  196.3880  176.1200  143.5550 N   0  0  0  0  0  2  0  0  0  0  0  0
  1 17  1  0  0  0  0
  1 28  1  0  0  0  0
  2  3  1  0  0  0  0
  4  7  1  0  0  0  0
  5  6  1  0  0  0  0
  5  4  2  0  0  0  0
  6  2  2  0  0  0  0
  7  3  2  0  0  0  0
  7  1  1  0  0  0  0
  8  6  1  0  0  0  0
  9 10  1  6  0  0  0
  9  8  1  0  0  0  0
 11 16  2  0  0  0  0
 12 13  2  0  0  0  0
 13  9  1  0  0  0  0
 14 13  1  0  0  0  0
 15 16  1  0  0  0  0
 16 14  1  0  0  0  0
 18 25  1  1  0  0  0
 19 26  1  6  0  0  0
 19 22  1  0  0  0  0
 19 21  1  0  0  0  0
 20 18  1  0  0  0  0
 20 17  1  6  0  0  0
 22 24  1  0  0  0  0
 23 21  1  6  0  0  0
 23 20  1  0  0  0  0
 23 18  1  0  0  0  0
 24 23  1  0  0  0  0
 27 26  1  0  0  0  0
 28 29  1  0  0  0  0
 30 29  1  0  0  0  0
 31 30  1  0  0  0  0
 32 31  1  0  0  0  0
 33 32  1  0  0  0  0
 34 35  2  0  0  0  0
 34 32  1  0  0  0  0
 36 34  1  0  0  0  0
 37 39  1  0  0  0  0
 37 38  1  0  0  0  0
 38 41  1  0  0  0  0
 39 40  1  0  0  0  0
 40 36  1  6  0  0  0
 40 41  1  0  0  0  0
M  END
>  <MODEL>
2

>  <REMARK>
 VINA RESULT:      -6.8      1.992      2.365
  Name = 
  14 active torsions:
  status: ('A' for Active; 'I' for Inactive)
    1  A    between atoms: C_3  and  C_13
    2  A    between atoms: C_3  and  C_25
    3  A    between atoms: C_4  and  C_8
    4  A    between atoms: C_4  and  C_24
    5  A    between atoms: C_5  and  C_6
    6  A    between atoms: C_8  and  C_36
    7  A    between atoms: N_10  and  C_13
    8  A    between atoms: C_12  and  C_35
    9  A    between atoms: N_18  and  C_35
   10  A    between atoms: N_18  and  C_38
   11  A    between atoms: N_18  and  C_41
   12  A    between atoms: C_25  and  C_38
   13  A    between atoms: C_31  and  C_39
   14  A    between atoms: C_32  and  C_39
                            x       y       z     vdW  Elec       q    Type
                         _______ _______ _______ _____ _____    ______ ____

>  <TORSDO>
F 14

$$$$
=
 OpenBabel11062421413D

 41 44  0  0  1  0  0  0  0  0999 V2000
  192.3170  174.9920  144.6560 N   0  0  0  0  0  0  0  0  0  0  0  0
  190.6480  177.8810  142.9290 C   0  0  0  0  0  3  0  0  0  0  0  0
  191.5720  177.1320  143.6590 C   0  0  0  0  0  3  0  0  0  0  0  0
  190.1950  175.1630  143.3900 C   0  0  0  0  0  3  0  0  0  0  0  0
  189.2660  175.9110  142.6640 C   0  0  0  0  0  3  0  0  0  0  0  0
  189.4890  177.2720  142.4350 C   0  0  0  0  0  0  0  0  0  0  0  0
  191.3570  175.7630  143.9020 C   0  0  0  0  0  0  0  0  0  0  0  0
  188.5130  178.0650  141.6310 C   0  0  0  0  0  2  0  0  0  0  0  0
  187.2840  177.2330  141.2820 C   0  0  2  0  0  3  0  0  0  0  0  0
  187.0390  177.3120  139.9120 O   0  0  0  0  0  1  0  0  0  0  0  0
  185.5290  180.2960  144.5800 O   0  0  0  0  0  0  0  0  0  0  0  0
  184.9580  177.1910  141.8060 O   0  0  0  0  0  0  0  0  0  0  0  0
  186.0860  177.7010  142.0430 C   0  0  0  0  0  0  0  0  0  0  0  0
  186.2440  178.7470  143.0070 N   0  0  0  0  0  2  0  0  0  0  0  0
  183.4690  179.0290  143.5300 S   0  0  0  0  0  1  0  0  0  0  0  0
  185.2100  179.4100  143.7480 C   0  0  0  0  0  0  0  0  0  0  0  0
  192.3310  174.9950  146.1170 C   0  0  0  0  0  2  0  0  0  0  0  0
  191.4190  176.1200  148.1320 C   0  0  2  0  0  3  0  0  0  0  0  0
  188.3960  176.7370  146.0860 C   0  0  1  0  0  3  0  0  0  0  0  0
  191.7800  176.3090  146.6570 C   0  0  2  0  0  3  0  0  0  0  0  0
  189.5230  177.4250  146.7840 C   0  0  0  0  0  2  0  0  0  0  0  0
  188.3930  175.3960  146.5260 O   0  0  0  0  0  0  0  0  0  0  0  0
  190.3240  176.2140  147.0860 C   0  0  2  0  0  0  0  0  0  0  0  0
  189.6650  175.0400  146.7130 O   0  0  0  0  0  0  0  0  0  0  0  0
  191.6090  177.4270  148.8770 C   0  0  0  0  0  1  0  0  0  0  0  0
  187.0810  177.4090  146.4330 C   0  0  0  0  0  2  0  0  0  0  0  0
  185.9210  176.5830  145.9030 C   0  0  0  0  0  1  0  0  0  0  0  0
  193.2370  174.0860  143.9780 C   0  0  0  0  0  2  0  0  0  0  0  0
  193.3200  172.7720  144.7300 C   0  0  0  0  0  2  0  0  0  0  0  0
  192.3110  171.7950  144.1500 C   0  0  0  0  0  2  0  0  0  0  0  0
  192.7230  171.3620  142.7490 C   0  0  0  0  0  2  0  0  0  0  0  0
  191.5640  171.2110  141.8760 N   0  0  0  0  0  0  0  0  0  0  0  0
  190.8160  169.9590  141.9090 C   0  0  0  0  0  1  0  0  0  0  0  0
  191.1580  172.2920  141.0220 C   0  0  0  0  0  0  0  0  0  0  0  0
  191.8910  173.3100  140.9030 O   0  0  0  0  0  0  0  0  0  0  0  0
  189.8410  172.2620  140.3130 C   0  0  0  0  0  2  0  0  0  0  0  0
  189.2470  174.0280  137.2640 C   0  0  0  0  0  2  0  0  0  0  0  0
  188.1190  174.4550  138.0790 N   0  0  0  0  0  2  0  0  0  0  0  0
  190.2860  173.4790  138.2000 C   0  0  0  0  0  2  0  0  0  0  0  0
  189.6280  173.5550  139.5470 C   0  0  1  0  0  3  0  0  0  0  0  0
  188.2130  173.7720  139.3040 N   0  0  0  0  0  2  0  0  0  0  0  0
  1 17  1  0  0  0  0
  2  3  1  0  0  0  0
  3  7  2  0  0  0  0
  4  7  1  0  0  0  0
  5  4  2  0  0  0  0
  6  5  1  0  0  0  0
  6  2  2  0  0  0  0
  7  1  1  0  0  0  0
  8  6  1  0  0  0  0
  9 10  1  6  0  0  0
  9  8  1  0  0  0  0
  9 13  1  0  0  0  0
 12 13  2  0  0  0  0
 13 14  1  0  0  0  0
 14 16  1  0  0  0  0
 15 16  1  0  0  0  0
 16 11  2  0  0  0  0
 18 25  1  1  0  0  0
 19 26  1  1  0  0  0
 19 22  1  0  0  0  0
 19 21  1  0  0  0  0
 20 17  1  6  0  0  0
 20 23  1  0  0  0  0
 20 18  1  0  0  0  0
 22 24  1  0  0  0  0
 23 21  1  6  0  0  0
 23 18  1  0  0  0  0
 24 23  1  0  0  0  0
 27 26  1  0  0  0  0
 28  1  1  0  0  0  0
 28 29  1  0  0  0  0
 30 29  1  0  0  0  0
 31 30  1  0  0  0  0
 32 33  1  0  0  0  0
 32 31  1  0  0  0  0
 34 32  1  0  0  0  0
 35 34  2  0  0  0  0
 36 34  1  0  0  0  0
 37 38  1  0  0  0  0
 37 39  1  0  0  0  0
 38 41  1  0  0  0  0
 39 40  1  0  0  0  0
 40 36  1  6  0  0  0
 41 40  1  0  0  0  0
M  END
>  <MODEL>
3

>  <REMARK>
 VINA RESULT:      -6.6      2.784      6.011
  Name = 
  14 active torsions:
  status: ('A' for Active; 'I' for Inactive)
    1  A    between atoms: C_3  and  C_13
    2  A    between atoms: C_3  and  C_25
    3  A    between atoms: C_4  and  C_8
    4  A    between atoms: C_4  and  C_24
    5  A    between atoms: C_5  and  C_6
    6  A    between atoms: C_8  and  C_36
    7  A    between atoms: N_10  and  C_13
    8  A    between atoms: C_12  and  C_35
    9  A    between atoms: N_18  and  C_35
   10  A    between atoms: N_18  and  C_38
   11  A    between atoms: N_18  and  C_41
   12  A    between atoms: C_25  and  C_38
   13  A    between atoms: C_31  and  C_39
   14  A    between atoms: C_32  and  C_39
                            x       y       z     vdW  Elec       q    Type
                         _______ _______ _______ _____ _____    ______ ____

>  <TORSDO>
F 14

$$$$
=
 OpenBabel11062421413D

 41 44  0  0  1  0  0  0  0  0999 V2000
  188.9810  176.3360  146.1550 N   0  0  0  0  0  0  0  0  0  0  0  0
  190.1940  173.1420  144.5920 C   0  0  0  0  0  3  0  0  0  0  0  0
  189.6450  174.0410  145.5080 C   0  0  0  0  0  3  0  0  0  0  0  0
  190.0190  175.8580  143.9580 C   0  0  0  0  0  3  0  0  0  0  0  0
  190.5750  174.9630  143.0420 C   0  0  0  0  0  3  0  0  0  0  0  0
  190.6660  173.6040  143.3570 C   0  0  0  0  0  0  0  0  0  0  0  0
  189.5510  175.4110  145.2040 C   0  0  0  0  0  0  0  0  0  0  0  0
  191.2290  172.6410  142.3660 C   0  0  0  0  0  2  0  0  0  0  0  0
  190.1240  171.8260  141.7040 C   0  0  2  0  0  3  0  0  0  0  0  0
  190.3710  170.4660  141.8890 O   0  0  0  0  0  1  0  0  0  0  0  0
  189.7680  170.0730  137.2160 O   0  0  0  0  0  0  0  0  0  0  0  0
  189.9780  173.3320  139.8610 O   0  0  0  0  0  0  0  0  0  0  0  0
  190.0310  172.1330  140.2440 C   0  0  0  0  0  0  0  0  0  0  0  0
  189.9720  171.0490  139.3120 N   0  0  0  0  0  2  0  0  0  0  0  0
  189.4950  172.6910  137.0470 S   0  0  0  0  0  1  0  0  0  0  0  0
  189.7650  171.1310  137.8950 C   0  0  0  0  0  0  0  0  0  0  0  0
  187.5760  176.2690  146.5480 C   0  0  0  0  0  2  0  0  0  0  0  0
  185.3280  177.2340  146.1310 C   0  0  2  0  0  3  0  0  0  0  0  0
  186.5070  177.7820  142.6640 C   0  0  1  0  0  3  0  0  0  0  0  0
  186.8310  177.5190  146.0970 C   0  0  2  0  0  3  0  0  0  0  0  0
  186.0700  178.4960  143.9010 C   0  0  0  0  0  2  0  0  0  0  0  0
  186.1670  176.4220  142.8290 O   0  0  0  0  0  0  0  0  0  0  0  0
  186.0580  177.3190  144.8030 C   0  0  2  0  0  0  0  0  0  0  0  0
  186.3290  176.1310  144.1210 O   0  0  0  0  0  0  0  0  0  0  0  0
  184.5720  178.5090  146.4470 C   0  0  0  0  0  1  0  0  0  0  0  0
  185.7980  178.3590  141.4530 C   0  0  0  0  0  2  0  0  0  0  0  0
  186.2520  177.6380  140.1950 C   0  0  0  0  0  1  0  0  0  0  0  0
  189.8250  177.3030  146.8470 C   0  0  0  0  0  2  0  0  0  0  0  0
  190.7610  176.5870  147.8010 C   0  0  0  0  0  2  0  0  0  0  0  0
  192.1950  176.7700  147.3320 C   0  0  0  0  0  2  0  0  0  0  0  0
  192.7340  175.4810  146.7280 C   0  0  0  0  0  2  0  0  0  0  0  0
  193.9210  175.7280  145.9170 N   0  0  0  0  0  0  0  0  0  0  0  0
  194.4400  177.0880  145.8270 C   0  0  0  0  0  1  0  0  0  0  0  0
  194.5750  174.6410  145.2450 C   0  0  0  0  0  0  0  0  0  0  0  0
  194.0370  173.5020  145.2180 O   0  0  0  0  0  0  0  0  0  0  0  0
  195.9240  174.8190  144.6220 C   0  0  0  0  0  2  0  0  0  0  0  0
  194.2880  176.1600  141.7430 C   0  0  0  0  0  2  0  0  0  0  0  0
  195.6520  176.6340  141.5560 N   0  0  0  0  0  2  0  0  0  0  0  0
  194.3440  175.0230  142.7230 C   0  0  0  0  0  2  0  0  0  0  0  0
  195.7910  174.9640  143.1160 C   0  0  1  0  0  3  0  0  0  0  0  0
  196.3910  176.2100  142.6730 N   0  0  0  0  0  2  0  0  0  0  0  0
  1 17  1  0  0  0  0
  1 28  1  0  0  0  0
  2  3  1  0  0  0  0
  4  7  1  0  0  0  0
  5  6  1  0  0  0  0
  5  4  2  0  0  0  0
  6  2  2  0  0  0  0
  7  3  2  0  0  0  0
  7  1  1  0  0  0  0
  8  6  1  0  0  0  0
  9 10  1  6  0  0  0
  9  8  1  0  0  0  0
 11 16  2  0  0  0  0
 12 13  2  0  0  0  0
 13  9  1  0  0  0  0
 14 13  1  0  0  0  0
 15 16  1  0  0  0  0
 16 14  1  0  0  0  0
 18 25  1  6  0  0  0
 19 26  1  6  0  0  0
 19 22  1  0  0  0  0
 19 21  1  0  0  0  0
 20 18  1  0  0  0  0
 20 17  1  1  0  0  0
 22 24  1  0  0  0  0
 23 21  1  6  0  0  0
 23 20  1  0  0  0  0
 23 18  1  0  0  0  0
 24 23  1  0  0  0  0
 27 26  1  0  0  0  0
 28 29  1  0  0  0  0
 30 29  1  0  0  0  0
 31 30  1  0  0  0  0
 32 31  1  0  0  0  0
 33 32  1  0  0  0  0
 34 32  1  0  0  0  0
 35 34  2  0  0  0  0
 36 34  1  0  0  0  0
 37 39  1  0  0  0  0
 38 37  1  0  0  0  0
 38 41  1  0  0  0  0
 39 40  1  0  0  0  0
 40 36  1  1  0  0  0
 41 40  1  0  0  0  0
M  END
>  <MODEL>
4

>  <REMARK>
 VINA RESULT:      -6.5      1.653      1.982
  Name = 
  14 active torsions:
  status: ('A' for Active; 'I' for Inactive)
    1  A    between atoms: C_3  and  C_13
    2  A    between atoms: C_3  and  C_25
    3  A    between atoms: C_4  and  C_8
    4  A    between atoms: C_4  and  C_24
    5  A    between atoms: C_5  and  C_6
    6  A    between atoms: C_8  and  C_36
    7  A    between atoms: N_10  and  C_13
    8  A    between atoms: C_12  and  C_35
    9  A    between atoms: N_18  and  C_35
   10  A    between atoms: N_18  and  C_38
   11  A    between atoms: N_18  and  C_41
   12  A    between atoms: C_25  and  C_38
   13  A    between atoms: C_31  and  C_39
   14  A    between atoms: C_32  and  C_39
                            x       y       z     vdW  Elec       q    Type
                         _______ _______ _______ _____ _____    ______ ____

>  <TORSDO>
F 14

$$$$
=
 OpenBabel11062421413D

 41 44  0  0  1  0  0  0  0  0999 V2000
  189.1480  176.0660  145.6380 N   0  0  0  0  0  0  0  0  0  0  0  0
  189.3470  173.7430  142.6910 C   0  0  0  0  0  3  0  0  0  0  0  0
  189.1060  174.8800  143.4660 C   0  0  0  0  0  3  0  0  0  0  0  0
  189.9410  173.7290  145.4220 C   0  0  0  0  0  3  0  0  0  0  0  0
  190.1780  172.5890  144.6510 C   0  0  0  0  0  3  0  0  0  0  0  0
  189.8790  172.5930  143.2850 C   0  0  0  0  0  0  0  0  0  0  0  0
  189.3980  174.8880  144.8410 C   0  0  0  0  0  0  0  0  0  0  0  0
  190.1630  171.3870  142.4540 C   0  0  0  0  0  2  0  0  0  0  0  0
  190.8570  171.7690  141.1510 C   0  0  2  0  0  3  0  0  0  0  0  0
  190.0170  171.4890  140.0730 O   0  0  0  0  0  1  0  0  0  0  0  0
  193.8290  169.4020  138.1660 O   0  0  0  0  0  0  0  0  0  0  0  0
  192.9310  170.9310  141.9770 O   0  0  0  0  0  0  0  0  0  0  0  0
  192.1490  171.0340  140.9950 C   0  0  0  0  0  0  0  0  0  0  0  0
  192.4820  170.4860  139.7150 N   0  0  0  0  0  2  0  0  0  0  0  0
  195.1020  169.6870  140.4590 S   0  0  0  0  0  1  0  0  0  0  0  0
  193.7120  169.8540  139.3340 C   0  0  0  0  0  0  0  0  0  0  0  0
  187.9410  176.2080  146.4470 C   0  0  0  0  0  2  0  0  0  0  0  0
  185.8050  177.4610  146.6100 C   0  0  2  0  0  3  0  0  0  0  0  0
  186.1110  177.9180  142.9490 C   0  0  1  0  0  3  0  0  0  0  0  0
  187.2720  177.5520  146.1850 C   0  0  2  0  0  3  0  0  0  0  0  0
  186.1040  178.6590  144.2450 C   0  0  0  0  0  2  0  0  0  0  0  0
  185.6520  176.6100  143.2170 O   0  0  0  0  0  0  0  0  0  0  0  0
  186.1720  177.4770  145.1380 C   0  0  2  0  0  0  0  0  0  0  0  0
  186.1030  176.2760  144.4270 O   0  0  0  0  0  0  0  0  0  0  0  0
  185.3280  178.8170  147.0910 C   0  0  0  0  0  1  0  0  0  0  0  0
  185.1940  178.6040  141.9530 C   0  0  0  0  0  2  0  0  0  0  0  0
  185.4850  178.1010  140.5480 C   0  0  0  0  0  1  0  0  0  0  0  0
  190.1580  177.1120  145.7510 C   0  0  0  0  0  2  0  0  0  0  0  0
  190.1610  177.9690  144.5000 C   0  0  0  0  0  2  0  0  0  0  0  0
  191.4340  177.7080  143.7130 C   0  0  0  0  0  2  0  0  0  0  0  0
  192.4770  177.0230  144.5860 C   0  0  0  0  0  2  0  0  0  0  0  0
  192.8380  175.7130  144.0550 N   0  0  0  0  0  0  0  0  0  0  0  0
  192.6750  175.4630  142.6270 C   0  0  0  0  0  1  0  0  0  0  0  0
  193.3670  174.7020  144.9270 C   0  0  0  0  0  0  0  0  0  0  0  0
  193.3710  174.8840  146.1740 O   0  0  0  0  0  0  0  0  0  0  0  0
  193.9770  173.4510  144.3770 C   0  0  0  0  0  2  0  0  0  0  0  0
  195.3750  170.3920  145.5830 C   0  0  0  0  0  2  0  0  0  0  0  0
  196.3920  171.3580  145.9740 N   0  0  0  0  0  2  0  0  0  0  0  0
  194.1120  171.1620  145.3190 C   0  0  0  0  0  2  0  0  0  0  0  0
  194.5230  172.5940  145.5060 C   0  0  1  0  0  3  0  0  0  0  0  0
  195.9740  172.6120  145.4980 N   0  0  0  0  0  2  0  0  0  0  0  0
  1 28  1  0  0  0  0
  1 17  1  0  0  0  0
  2  6  2  0  0  0  0
  2  3  1  0  0  0  0
  3  7  2  0  0  0  0
  5  4  2  0  0  0  0
  6  5  1  0  0  0  0
  7  4  1  0  0  0  0
  7  1  1  0  0  0  0
  8  6  1  0  0  0  0
  9 10  1  6  0  0  0
  9  8  1  0  0  0  0
 11 16  2  0  0  0  0
 13  9  1  0  0  0  0
 13 12  2  0  0  0  0
 14 13  1  0  0  0  0
 16 14  1  0  0  0  0
 16 15  1  0  0  0  0
 18 25  1  6  0  0  0
 19 26  1  6  0  0  0
 19 22  1  0  0  0  0
 19 21  1  0  0  0  0
 20 17  1  1  0  0  0
 20 18  1  0  0  0  0
 22 24  1  0  0  0  0
 23 21  1  6  0  0  0
 23 20  1  0  0  0  0
 23 18  1  0  0  0  0
 24 23  1  0  0  0  0
 27 26  1  0  0  0  0
 29 28  1  0  0  0  0
 30 29  1  0  0  0  0
 30 31  1  0  0  0  0
 32 31  1  0  0  0  0
 32 34  1  0  0  0  0
 33 32  1  0  0  0  0
 34 35  2  0  0  0  0
 36 34  1  0  0  0  0
 37 38  1  0  0  0  0
 39 40  1  0  0  0  0
 39 37  1  0  0  0  0
 40 36  1  6  0  0  0
 41 40  1  0  0  0  0
 41 38  1  0  0  0  0
M  END
>  <MODEL>
5

>  <REMARK>
 VINA RESULT:      -6.5      2.780      3.713
  Name = 
  14 active torsions:
  status: ('A' for Active; 'I' for Inactive)
    1  A    between atoms: C_3  and  C_13
    2  A    between atoms: C_3  and  C_25
    3  A    between atoms: C_4  and  C_8
    4  A    between atoms: C_4  and  C_24
    5  A    between atoms: C_5  and  C_6
    6  A    between atoms: C_8  and  C_36
    7  A    between atoms: N_10  and  C_13
    8  A    between atoms: C_12  and  C_35
    9  A    between atoms: N_18  and  C_35
   10  A    between atoms: N_18  and  C_38
   11  A    between atoms: N_18  and  C_41
   12  A    between atoms: C_25  and  C_38
   13  A    between atoms: C_31  and  C_39
   14  A    between atoms: C_32  and  C_39
                            x       y       z     vdW  Elec       q    Type
                         _______ _______ _______ _____ _____    ______ ____

>  <TORSDO>
F 14

$$$$
=
 OpenBabel11062421413D

 41 44  0  0  1  0  0  0  0  0999 V2000
  188.9040  175.1370  142.7740 N   0  0  0  0  0  0  0  0  0  0  0  0
  191.3150  172.3610  142.0010 C   0  0  0  0  0  3  0  0  0  0  0  0
  190.1440  173.0370  142.3510 C   0  0  0  0  0  3  0  0  0  0  0  0
  191.2910  175.1530  142.1130 C   0  0  0  0  0  3  0  0  0  0  0  0
  192.4640  174.4790  141.7680 C   0  0  0  0  0  3  0  0  0  0  0  0
  192.4790  173.0820  141.7150 C   0  0  0  0  0  0  0  0  0  0  0  0
  190.1170  174.4420  142.4140 C   0  0  0  0  0  0  0  0  0  0  0  0
  193.7230  172.3620  141.3140 C   0  0  0  0  0  2  0  0  0  0  0  0
  194.6650  172.1900  142.5010 C   0  0  2  0  0  3  0  0  0  0  0  0
  193.9280  171.8630  143.6390 O   0  0  0  0  0  1  0  0  0  0  0  0
  196.9480  175.9780  140.5580 O   0  0  0  0  0  0  0  0  0  0  0  0
  195.6740  173.8140  143.9270 O   0  0  0  0  0  0  0  0  0  0  0  0
  195.4540  173.4360  142.7460 C   0  0  0  0  0  0  0  0  0  0  0  0
  195.9180  174.1920  141.6220 N   0  0  0  0  0  2  0  0  0  0  0  0
  196.9100  176.3550  143.1680 S   0  0  0  0  0  1  0  0  0  0  0  0
  196.5820  175.4630  141.6450 C   0  0  0  0  0  0  0  0  0  0  0  0
  188.7390  175.7740  144.0780 C   0  0  0  0  0  2  0  0  0  0  0  0
  189.3490  175.7440  146.4840 C   0  0  2  0  0  3  0  0  0  0  0  0
  192.8610  175.7600  145.3120 C   0  0  1  0  0  3  0  0  0  0  0  0
  189.4910  175.0000  145.1540 C   0  0  2  0  0  3  0  0  0  0  0  0
  191.8510  174.9340  146.0380 C   0  0  0  0  0  2  0  0  0  0  0  0
  192.3300  177.0650  145.2070 O   0  0  0  0  0  0  0  0  0  0  0  0
  190.6670  175.7730  145.7320 C   0  0  2  0  0  0  0  0  0  0  0  0
  191.0120  176.9400  145.0470 O   0  0  0  0  0  0  0  0  0  0  0  0
  189.3690  174.7510  147.6290 C   0  0  0  0  0  1  0  0  0  0  0  0
  194.1660  175.7850  146.0860 C   0  0  0  0  0  2  0  0  0  0  0  0
  194.5320  177.2170  146.4410 C   0  0  0  0  0  1  0  0  0  0  0  0
  187.8390  175.3260  141.7960 C   0  0  0  0  0  2  0  0  0  0  0  0
  186.6960  176.1060  142.4160 C   0  0  0  0  0  2  0  0  0  0  0  0
  186.2880  177.2310  141.4800 C   0  0  0  0  0  2  0  0  0  0  0  0
  186.2470  178.5610  142.2210 C   0  0  0  0  0  2  0  0  0  0  0  0
  185.0460  178.6770  143.0410 N   0  0  0  0  0  0  0  0  0  0  0  0
  183.7610  178.2990  142.4630 C   0  0  0  0  0  1  0  0  0  0  0  0
  185.1400  179.1320  144.3990 C   0  0  0  0  0  0  0  0  0  0  0  0
  186.2310  179.5850  144.8370 O   0  0  0  0  0  0  0  0  0  0  0  0
  183.9760  179.0210  145.3330 C   0  0  0  0  0  2  0  0  0  0  0  0
  186.2190  176.7910  146.9940 C   0  0  0  0  0  2  0  0  0  0  0  0
  185.9620  177.7800  148.0310 N   0  0  0  0  0  2  0  0  0  0  0  0
  185.1200  176.9190  145.9780 C   0  0  0  0  0  2  0  0  0  0  0  0
  184.3090  178.0790  146.4770 C   0  0  1  0  0  3  0  0  0  0  0  0
  185.1220  178.7560  147.4700 N   0  0  0  0  0  2  0  0  0  0  0  0
  1 17  1  0  0  0  0
  2  3  1  0  0  0  0
  3  7  2  0  0  0  0
  4  7  1  0  0  0  0
  5  4  2  0  0  0  0
  6  5  1  0  0  0  0
  6  2  2  0  0  0  0
  7  1  1  0  0  0  0
  8  6  1  0  0  0  0
  8  9  1  0  0  0  0
  9 13  1  0  0  0  0
  9 10  1  1  0  0  0
 11 16  2  0  0  0  0
 13 12  2  0  0  0  0
 14 16  1  0  0  0  0
 14 13  1  0  0  0  0
 16 15  1  0  0  0  0
 18 25  1  1  0  0  0
 19 21  1  0  0  0  0
 19 26  1  1  0  0  0
 20 17  1  6  0  0  0
 20 23  1  0  0  0  0
 20 18  1  0  0  0  0
 22 19  1  0  0  0  0
 23 21  1  1  0  0  0
 23 18  1  0  0  0  0
 24 22  1  0  0  0  0
 24 23  1  0  0  0  0
 26 27  1  0  0  0  0
 28 29  1  0  0  0  0
 28  1  1  0  0  0  0
 30 31  1  0  0  0  0
 30 29  1  0  0  0  0
 31 32  1  0  0  0  0
 32 34  1  0  0  0  0
 33 32  1  0  0  0  0
 34 35  2  0  0  0  0
 34 36  1  0  0  0  0
 37 38  1  0  0  0  0
 39 40  1  0  0  0  0
 39 37  1  0  0  0  0
 40 36  1  6  0  0  0
 40 41  1  0  0  0  0
 41 38  1  0  0  0  0
M  END
>  <MODEL>
6

>  <REMARK>
 VINA RESULT:      -6.5      3.274      7.912
  Name = 
  14 active torsions:
  status: ('A' for Active; 'I' for Inactive)
    1  A    between atoms: C_3  and  C_13
    2  A    between atoms: C_3  and  C_25
    3  A    between atoms: C_4  and  C_8
    4  A    between atoms: C_4  and  C_24
    5  A    between atoms: C_5  and  C_6
    6  A    between atoms: C_8  and  C_36
    7  A    between atoms: N_10  and  C_13
    8  A    between atoms: C_12  and  C_35
    9  A    between atoms: N_18  and  C_35
   10  A    between atoms: N_18  and  C_38
   11  A    between atoms: N_18  and  C_41
   12  A    between atoms: C_25  and  C_38
   13  A    between atoms: C_31  and  C_39
   14  A    between atoms: C_32  and  C_39
                            x       y       z     vdW  Elec       q    Type
                         _______ _______ _______ _____ _____    ______ ____

>  <TORSDO>
F 14

$$$$
=
 OpenBabel11062421413D

 41 44  0  0  1  0  0  0  0  0999 V2000
  192.9980  175.7750  144.8670 N   0  0  0  0  0  0  0  0  0  0  0  0
  190.1480  173.5270  143.8990 C   0  0  0  0  0  3  0  0  0  0  0  0
  191.2140  174.0790  144.6120 C   0  0  0  0  0  3  0  0  0  0  0  0
  191.4840  175.7720  142.9070 C   0  0  0  0  0  3  0  0  0  0  0  0
  190.4220  175.2190  142.1890 C   0  0  0  0  0  3  0  0  0  0  0  0
  189.7540  174.0940  142.6810 C   0  0  0  0  0  0  0  0  0  0  0  0
  191.8980  175.2070  144.1250 C   0  0  0  0  0  0  0  0  0  0  0  0
  188.5980  173.5220  141.9320 C   0  0  0  0  0  2  0  0  0  0  0  0
  188.9880  173.1790  140.4980 C   0  0  2  0  0  3  0  0  0  0  0  0
  187.8990  172.6070  139.8400 O   0  0  0  0  0  1  0  0  0  0  0  0
  190.7860  168.9190  141.8990 O   0  0  0  0  0  0  0  0  0  0  0  0
  191.1750  172.5370  139.7960 O   0  0  0  0  0  0  0  0  0  0  0  0
  190.1520  172.2410  140.4680 C   0  0  0  0  0  0  0  0  0  0  0  0
  190.0620  171.0050  141.1850 N   0  0  0  0  0  2  0  0  0  0  0  0
  192.5140  169.9660  140.2030 S   0  0  0  0  0  1  0  0  0  0  0  0
  191.0110  169.9310  141.1870 C   0  0  0  0  0  0  0  0  0  0  0  0
  194.3820  175.3800  144.6170 C   0  0  0  0  0  2  0  0  0  0  0  0
  196.1000  173.6260  144.9750 C   0  0  2  0  0  3  0  0  0  0  0  0
  193.3670  171.2070  144.3570 C   0  0  1  0  0  3  0  0  0  0  0  0
  194.7580  174.1720  145.4660 C   0  0  2  0  0  3  0  0  0  0  0  0
  194.3150  171.6910  145.4040 C   0  0  0  0  0  2  0  0  0  0  0  0
  193.8060  171.7370  143.1240 O   0  0  0  0  0  0  0  0  0  0  0  0
  194.8160  172.8780  144.6700 C   0  0  2  0  0  0  0  0  0  0  0  0
  194.3030  172.9490  143.3730 O   0  0  0  0  0  0  0  0  0  0  0  0
  196.8560  173.0090  146.1350 C   0  0  0  0  0  1  0  0  0  0  0  0
  193.3740  169.6900  144.3110 C   0  0  0  0  0  2  0  0  0  0  0  0
  194.7620  169.1890  143.9490 C   0  0  0  0  0  1  0  0  0  0  0  0
  192.7710  176.8570  145.8180 C   0  0  0  0  0  2  0  0  0  0  0  0
  192.8160  176.3210  147.2360 C   0  0  0  0  0  2  0  0  0  0  0  0
  191.4110  175.9450  147.6760 C   0  0  0  0  0  2  0  0  0  0  0  0
  190.4070  177.0050  147.2420 C   0  0  0  0  0  2  0  0  0  0  0  0
  189.2950  176.4150  146.5050 N   0  0  0  0  0  0  0  0  0  0  0  0
  188.6240  175.2450  147.0610 C   0  0  0  0  0  1  0  0  0  0  0  0
  188.8590  176.9990  145.2680 C   0  0  0  0  0  0  0  0  0  0  0  0
  189.5330  177.9190  144.7340 O   0  0  0  0  0  0  0  0  0  0  0  0
  187.5760  176.5760  144.6260 C   0  0  0  0  0  2  0  0  0  0  0  0
  185.2990  177.7360  142.1290 C   0  0  0  0  0  2  0  0  0  0  0  0
  185.4550  178.9210  142.9610 N   0  0  0  0  0  2  0  0  0  0  0  0
  186.4580  176.8290  142.4280 C   0  0  0  0  0  2  0  0  0  0  0  0
  187.1980  177.5450  143.5190 C   0  0  1  0  0  3  0  0  0  0  0  0
  186.3000  178.5670  144.0270 N   0  0  0  0  0  2  0  0  0  0  0  0
  1 28  1  0  0  0  0
  2  3  1  0  0  0  0
  4  7  1  0  0  0  0
  5  6  1  0  0  0  0
  5  4  2  0  0  0  0
  6  2  2  0  0  0  0
  7  3  2  0  0  0  0
  7  1  1  0  0  0  0
  8  6  1  0  0  0  0
  9 10  1  1  0  0  0
  9  8  1  0  0  0  0
 12 13  2  0  0  0  0
 13  9  1  0  0  0  0
 13 14  1  0  0  0  0
 14 16  1  0  0  0  0
 15 16  1  0  0  0  0
 16 11  2  0  0  0  0
 17  1  1  0  0  0  0
 18 20  1  0  0  0  0
 18 25  1  1  0  0  0
 19 26  1  6  0  0  0
 19 21  1  0  0  0  0
 20 17  1  6  0  0  0
 22 24  1  0  0  0  0
 22 19  1  0  0  0  0
 23 18  1  0  0  0  0
 23 21  1  1  0  0  0
 23 20  1  0  0  0  0
 24 23  1  0  0  0  0
 27 26  1  0  0  0  0
 28 29  1  0  0  0  0
 29 30  1  0  0  0  0
 31 30  1  0  0  0  0
 32 33  1  0  0  0  0
 32 31  1  0  0  0  0
 34 32  1  0  0  0  0
 35 34  2  0  0  0  0
 36 34  1  0  0  0  0
 37 39  1  0  0  0  0
 37 38  1  0  0  0  0
 38 41  1  0  0  0  0
 39 40  1  0  0  0  0
 40 41  1  0  0  0  0
 40 36  1  1  0  0  0
M  END
>  <MODEL>
7

>  <REMARK>
 VINA RESULT:      -6.4      2.798      7.459
  Name = 
  14 active torsions:
  status: ('A' for Active; 'I' for Inactive)
    1  A    between atoms: C_3  and  C_13
    2  A    between atoms: C_3  and  C_25
    3  A    between atoms: C_4  and  C_8
    4  A    between atoms: C_4  and  C_24
    5  A    between atoms: C_5  and  C_6
    6  A    between atoms: C_8  and  C_36
    7  A    between atoms: N_10  and  C_13
    8  A    between atoms: C_12  and  C_35
    9  A    between atoms: N_18  and  C_35
   10  A    between atoms: N_18  and  C_38
   11  A    between atoms: N_18  and  C_41
   12  A    between atoms: C_25  and  C_38
   13  A    between atoms: C_31  and  C_39
   14  A    between atoms: C_32  and  C_39
                            x       y       z     vdW  Elec       q    Type
                         _______ _______ _______ _____ _____    ______ ____

>  <TORSDO>
F 14

$$$$
=
 OpenBabel11062421413D

 41 44  0  0  1  0  0  0  0  0999 V2000
  192.2050  175.0770  146.3080 N   0  0  0  0  0  0  0  0  0  0  0  0
  190.8970  174.7580  142.8010 C   0  0  0  0  0  3  0  0  0  0  0  0
  191.6500  175.1800  143.8980 C   0  0  0  0  0  3  0  0  0  0  0  0
  190.4250  173.6620  145.3270 C   0  0  0  0  0  3  0  0  0  0  0  0
  189.6670  173.2420  144.2330 C   0  0  0  0  0  3  0  0  0  0  0  0
  189.8980  173.7910  142.9690 C   0  0  0  0  0  0  0  0  0  0  0  0
  191.4230  174.6390  145.1770 C   0  0  0  0  0  0  0  0  0  0  0  0
  189.1110  173.3200  141.7920 C   0  0  0  0  0  2  0  0  0  0  0  0
  189.2350  174.2920  140.6230 C   0  0  2  0  0  3  0  0  0  0  0  0
  188.1280  175.1400  140.6010 O   0  0  0  0  0  1  0  0  0  0  0  0
  192.1590  172.3210  137.3210 O   0  0  0  0  0  0  0  0  0  0  0  0
  188.2950  173.2000  138.7230 O   0  0  0  0  0  0  0  0  0  0  0  0
  189.3420  173.5600  139.3250 C   0  0  0  0  0  0  0  0  0  0  0  0
  190.6420  173.2560  138.8080 N   0  0  0  0  0  2  0  0  0  0  0  0
  189.6910  171.6720  136.6530 S   0  0  0  0  0  1  0  0  0  0  0  0
  190.9540  172.4680  137.6510 C   0  0  0  0  0  0  0  0  0  0  0  0
  193.6140  175.4400  146.1780 C   0  0  0  0  0  2  0  0  0  0  0  0
  195.8820  174.5200  145.7680 C   0  0  2  0  0  3  0  0  0  0  0  0
  195.1490  175.0420  142.1770 C   0  0  1  0  0  3  0  0  0  0  0  0
  194.3920  174.3330  145.4760 C   0  0  2  0  0  3  0  0  0  0  0  0
  195.4130  173.9840  143.1980 C   0  0  0  0  0  2  0  0  0  0  0  0
  195.4860  176.2800  142.7670 O   0  0  0  0  0  0  0  0  0  0  0  0
  195.3280  174.8540  144.3960 C   0  0  2  0  0  0  0  0  0  0  0  0
  195.1640  176.1990  144.0590 O   0  0  0  0  0  0  0  0  0  0  0  0
  196.5720  173.1700  145.7900 C   0  0  0  0  0  1  0  0  0  0  0  0
  195.9980  174.7980  140.9440 C   0  0  0  0  0  2  0  0  0  0  0  0
  197.2420  175.6710  140.9900 C   0  0  0  0  0  1  0  0  0  0  0  0
  191.5770  175.2840  147.6080 C   0  0  0  0  0  2  0  0  0  0  0  0
  191.4120  176.7680  147.8750 C   0  0  0  0  0  2  0  0  0  0  0  0
  189.9730  177.1710  147.6000 C   0  0  0  0  0  2  0  0  0  0  0  0
  189.8070  177.6280  146.1570 C   0  0  0  0  0  2  0  0  0  0  0  0
  188.6770  176.9640  145.5160 N   0  0  0  0  0  0  0  0  0  0  0  0
  187.8110  176.1120  146.3240 C   0  0  0  0  0  1  0  0  0  0  0  0
  188.4150  177.1730  144.1200 C   0  0  0  0  0  0  0  0  0  0  0  0
  189.2470  177.7970  143.4090 O   0  0  0  0  0  0  0  0  0  0  0  0
  187.1330  176.7160  143.4990 C   0  0  0  0  0  2  0  0  0  0  0  0
  184.4890  178.2670  141.6630 C   0  0  0  0  0  2  0  0  0  0  0  0
  183.9980  178.3660  143.0300 N   0  0  0  0  0  2  0  0  0  0  0  0
  185.9690  178.0180  141.7410 C   0  0  0  0  0  2  0  0  0  0  0  0
  186.2330  177.9060  143.2140 C   0  0  1  0  0  3  0  0  0  0  0  0
  184.9420  177.7290  143.8540 N   0  0  0  0  0  2  0  0  0  0  0  0
  1 28  1  0  0  0  0
  2  6  2  0  0  0  0
  2  3  1  0  0  0  0
  3  7  2  0  0  0  0
  5  4  2  0  0  0  0
  6  5  1  0  0  0  0
  7  4  1  0  0  0  0
  7  1  1  0  0  0  0
  8  6  1  0  0  0  0
  9 10  1  6  0  0  0
  9  8  1  0  0  0  0
 11 16  2  0  0  0  0
 12 13  2  0  0  0  0
 13  9  1  0  0  0  0
 14 13  1  0  0  0  0
 15 16  1  0  0  0  0
 16 14  1  0  0  0  0
 17  1  1  0  0  0  0
 18 25  1  6  0  0  0
 19 26  1  6  0  0  0
 19 22  1  0  0  0  0
 19 21  1  0  0  0  0
 20 18  1  0  0  0  0
 20 17  1  1  0  0  0
 22 24  1  0  0  0  0
 23 21  1  6  0  0  0
 23 20  1  0  0  0  0
 23 18  1  0  0  0  0
 24 23  1  0  0  0  0
 26 27  1  0  0  0  0
 28 29  1  0  0  0  0
 30 29  1  0  0  0  0
 31 30  1  0  0  0  0
 32 31  1  0  0  0  0
 32 33  1  0  0  0  0
 34 32  1  0  0  0  0
 35 34  2  0  0  0  0
 36 34  1  0  0  0  0
 37 39  1  0  0  0  0
 37 38  1  0  0  0  0
 38 41  1  0  0  0  0
 39 40  1  0  0  0  0
 40 36  1  6  0  0  0
 40 41  1  0  0  0  0
M  END
>  <MODEL>
8

>  <REMARK>
 VINA RESULT:      -6.4      2.290      7.316
  Name = 
  14 active torsions:
  status: ('A' for Active; 'I' for Inactive)
    1  A    between atoms: C_3  and  C_13
    2  A    between atoms: C_3  and  C_25
    3  A    between atoms: C_4  and  C_8
    4  A    between atoms: C_4  and  C_24
    5  A    between atoms: C_5  and  C_6
    6  A    between atoms: C_8  and  C_36
    7  A    between atoms: N_10  and  C_13
    8  A    between atoms: C_12  and  C_35
    9  A    between atoms: N_18  and  C_35
   10  A    between atoms: N_18  and  C_38
   11  A    between atoms: N_18  and  C_41
   12  A    between atoms: C_25  and  C_38
   13  A    between atoms: C_31  and  C_39
   14  A    between atoms: C_32  and  C_39
                            x       y       z     vdW  Elec       q    Type
                         _______ _______ _______ _____ _____    ______ ____

>  <TORSDO>
F 14

$$$$
=
 OpenBabel11062421413D

 41 44  0  0  1  0  0  0  0  0999 V2000
  189.1800  176.1900  145.6930 N   0  0  0  0  0  0  0  0  0  0  0  0
  190.2170  172.7730  144.5240 C   0  0  0  0  0  3  0  0  0  0  0  0
  190.0560  173.9040  145.3270 C   0  0  0  0  0  3  0  0  0  0  0  0
  188.7950  174.9800  143.5660 C   0  0  0  0  0  3  0  0  0  0  0  0
  188.9590  173.8520  142.7590 C   0  0  0  0  0  3  0  0  0  0  0  0
  189.6720  172.7480  143.2350 C   0  0  0  0  0  0  0  0  0  0  0  0
  189.3450  175.0230  144.8580 C   0  0  0  0  0  0  0  0  0  0  0  0
  189.8200  171.5300  142.3850 C   0  0  0  0  0  2  0  0  0  0  0  0
  190.9950  171.6700  141.4240 C   0  0  2  0  0  3  0  0  0  0  0  0
  191.6440  172.8840  141.6510 O   0  0  0  0  0  1  0  0  0  0  0  0
  188.1910  173.5590  137.9730 O   0  0  0  0  0  0  0  0  0  0  0  0
  191.0370  170.7340  139.2310 O   0  0  0  0  0  0  0  0  0  0  0  0
  190.5370  171.5960  140.0030 C   0  0  0  0  0  0  0  0  0  0  0  0
  189.5580  172.5320  139.5420 N   0  0  0  0  0  2  0  0  0  0  0  0
  189.7050  171.7310  136.8230 S   0  0  0  0  0  1  0  0  0  0  0  0
  189.0800  172.6990  138.2000 C   0  0  0  0  0  0  0  0  0  0  0  0
  188.0110  176.3650  146.5510 C   0  0  0  0  0  2  0  0  0  0  0  0
  185.9050  177.6560  146.7960 C   0  0  2  0  0  3  0  0  0  0  0  0
  186.0050  177.9970  143.1110 C   0  0  1  0  0  3  0  0  0  0  0  0
  187.3460  177.7110  146.2850 C   0  0  2  0  0  3  0  0  0  0  0  0
  186.0820  178.7770  144.3820 C   0  0  0  0  0  2  0  0  0  0  0  0
  185.5450  176.7040  143.4460 O   0  0  0  0  0  0  0  0  0  0  0  0
  186.1870  177.6210  145.3060 C   0  0  2  0  0  0  0  0  0  0  0  0
  186.0600  176.4010  144.6380 O   0  0  0  0  0  0  0  0  0  0  0  0
  185.4750  179.0330  147.2620 C   0  0  0  0  0  1  0  0  0  0  0  0
  185.0410  178.6660  142.1490 C   0  0  0  0  0  2  0  0  0  0  0  0
  185.3680  178.2590  140.7210 C   0  0  0  0  0  1  0  0  0  0  0  0
  190.2410  177.1850  145.7940 C   0  0  0  0  0  2  0  0  0  0  0  0
  190.4060  177.9060  144.4710 C   0  0  0  0  0  2  0  0  0  0  0  0
  191.7620  177.5610  143.8760 C   0  0  0  0  0  2  0  0  0  0  0  0
  192.7460  177.1660  144.9680 C   0  0  0  0  0  2  0  0  0  0  0  0
  193.5090  175.9800  144.5930 N   0  0  0  0  0  0  0  0  0  0  0  0
  194.0910  175.9110  143.2580 C   0  0  0  0  0  1  0  0  0  0  0  0
  193.6990  174.9160  145.5390 C   0  0  0  0  0  0  0  0  0  0  0  0
  193.0770  174.9280  146.6340 O   0  0  0  0  0  0  0  0  0  0  0  0
  194.6770  173.8150  145.2750 C   0  0  0  0  0  2  0  0  0  0  0  0
  194.6430  170.6210  143.6750 C   0  0  0  0  0  2  0  0  0  0  0  0
  194.1690  170.2890  145.0110 N   0  0  0  0  0  2  0  0  0  0  0  0
  194.4630  172.1020  143.4970 C   0  0  0  0  0  2  0  0  0  0  0  0
  193.9480  172.5600  144.8300 C   0  0  1  0  0  3  0  0  0  0  0  0
  194.1920  171.4750  145.7630 N   0  0  0  0  0  2  0  0  0  0  0  0
  1 28  1  0  0  0  0
  1 17  1  0  0  0  0
  2  3  1  0  0  0  0
  4  7  1  0  0  0  0
  5  6  1  0  0  0  0
  5  4  2  0  0  0  0
  6  2  2  0  0  0  0
  7  3  2  0  0  0  0
  7  1  1  0  0  0  0
  8  6  1  0  0  0  0
  9 10  1  6  0  0  0
  9  8  1  0  0  0  0
 11 16  2  0  0  0  0
 12 13  2  0  0  0  0
 13  9  1  0  0  0  0
 14 13  1  0  0  0  0
 15 16  1  0  0  0  0
 16 14  1  0  0  0  0
 18 25  1  6  0  0  0
 19 26  1  6  0  0  0
 19 22  1  0  0  0  0
 19 21  1  0  0  0  0
 20 17  1  1  0  0  0
 20 18  1  0  0  0  0
 22 24  1  0  0  0  0
 23 21  1  6  0  0  0
 23 20  1  0  0  0  0
 23 18  1  0  0  0  0
 24 23  1  0  0  0  0
 27 26  1  0  0  0  0
 29 28  1  0  0  0  0
 30 29  1  0  0  0  0
 30 31  1  0  0  0  0
 32 31  1  0  0  0  0
 32 34  1  0  0  0  0
 33 32  1  0  0  0  0
 34 35  2  0  0  0  0
 36 34  1  0  0  0  0
 37 38  1  0  0  0  0
 38 41  1  0  0  0  0
 39 37  1  0  0  0  0
 39 40  1  0  0  0  0
 40 36  1  1  0  0  0
 40 41  1  0  0  0  0
M  END
>  <MODEL>
9

>  <REMARK>
 VINA RESULT:      -6.3      1.970      2.616
  Name = 
  14 active torsions:
  status: ('A' for Active; 'I' for Inactive)
    1  A    between atoms: C_3  and  C_13
    2  A    between atoms: C_3  and  C_25
    3  A    between atoms: C_4  and  C_8
    4  A    between atoms: C_4  and  C_24
    5  A    between atoms: C_5  and  C_6
    6  A    between atoms: C_8  and  C_36
    7  A    between atoms: N_10  and  C_13
    8  A    between atoms: C_12  and  C_35
    9  A    between atoms: N_18  and  C_35
   10  A    between atoms: N_18  and  C_38
   11  A    between atoms: N_18  and  C_41
   12  A    between atoms: C_25  and  C_38
   13  A    between atoms: C_31  and  C_39
   14  A    between atoms: C_32  and  C_39
                            x       y       z     vdW  Elec       q    Type
                         _______ _______ _______ _____ _____    ______ ____

>  <TORSDO>
F 14

$$$$
