=
 OpenBabel11062418213D

 49 54  0  0  1  0  0  0  0  0999 V2000
  191.7430  172.7110  144.6230 N   0  0  0  0  0  0  0  0  0  0  0  0
  191.2600  174.0320  144.2230 C   0  0  0  0  0  2  0  0  0  0  0  0
  189.1200  174.9080  147.3080 N   0  0  0  0  0  2  0  0  0  0  0  0
  189.2450  175.6490  144.5380 C   0  0  0  0  0  0  0  0  0  0  0  0
  188.1400  175.7970  146.7620 C   0  0  0  0  0  0  0  0  0  0  0  0
  187.4120  177.2120  144.8330 C   0  0  0  0  0  3  0  0  0  0  0  0
  190.3690  174.6480  146.5960 C   0  0  2  0  0  3  0  0  0  0  0  0
  188.2670  176.2390  145.3590 C   0  0  0  0  0  0  0  0  0  0  0  0
  187.1740  176.1720  147.4730 O   0  0  0  0  0  0  0  0  0  0  0  0
  188.4790  176.9920  142.7080 N   0  0  0  0  0  0  0  0  0  0  0  0
  189.3170  176.0390  143.1950 C   0  0  0  0  0  3  0  0  0  0  0  0
  191.3440  175.7800  146.8920 C   0  0  0  0  0  1  0  0  0  0  0  0
  187.5400  177.5890  143.4950 C   0  0  0  0  0  0  0  0  0  0  0  0
  190.0830  174.5130  145.0870 C   0  0  2  0  0  3  0  0  0  0  0  0
  186.5970  178.6030  142.9270 C   0  0  2  0  0  3  0  0  0  0  0  0
  185.3480  178.6890  143.7940 C   0  0  0  0  0  2  0  0  0  0  0  0
  185.5570  179.6360  144.9650 C   0  0  0  0  0  2  0  0  0  0  0  0
  184.6620  179.3330  145.9910 O   0  0  0  0  0  1  0  0  0  0  0  0
  186.2280  178.2810  141.4820 C   0  0  0  0  0  2  0  0  0  0  0  0
  184.8070  177.8360  141.3950 C   0  0  0  0  0  3  0  0  0  0  0  0
  183.9780  178.4380  140.5500 C   0  0  0  0  0  3  0  0  0  0  0  0
  182.5610  177.9920  140.4530 C   0  0  0  0  0  2  0  0  0  0  0  0
  181.8930  178.3040  141.6370 O   0  0  0  0  0  0  0  0  0  0  0  0
  180.5430  178.2450  141.3020 C   0  0  0  0  0  2  0  0  0  0  0  0
  180.2820  179.1430  140.2650 O   0  0  0  0  0  1  0  0  0  0  0  0
  193.1750  172.7750  144.9470 C   0  0  0  0  0  2  0  0  0  0  0  0
  196.2920  174.0530  144.7340 C   0  0  1  0  0  3  0  0  0  0  0  0
  194.8840  174.5760  145.0090 C   0  0  2  0  0  3  0  0  0  0  0  0
  193.9670  173.7820  144.1010 C   0  0  1  0  0  3  0  0  0  0  0  0
  194.9070  173.0490  143.1640 C   0  0  0  0  0  2  0  0  0  0  0  0
  196.9520  173.6300  146.0330 C   0  0  0  0  0  1  0  0  0  0  0  0
  196.1870  172.9020  143.8440 N   0  0  0  0  0  2  0  0  0  0  0  0
  193.4980  176.4610  144.0050 C   0  0  0  0  0  1  0  0  0  0  0  0
  195.9680  176.6050  144.0370 C   0  0  0  0  0  1  0  0  0  0  0  0
  194.7570  176.0970  144.7920 C   0  0  0  0  0  0  0  0  0  0  0  0
  194.7110  176.7430  146.0310 O   0  0  0  0  0  1  0  0  0  0  0  0
  191.5410  171.7920  143.5100 C   0  0  0  0  0  2  0  0  0  0  0  0
  191.1710  172.5540  142.2450 C   0  0  0  0  0  2  0  0  0  0  0  0
  190.7950  170.1240  139.7120 C   0  0  0  0  0  2  0  0  0  0  0  0
  189.0390  173.3790  139.0990 C   0  0  1  0  0  0  0  0  0  0  0  0
  188.3790  172.8760  142.7360 F   0  0  0  0  0  0  0  0  0  0  0  0
  190.0970  171.8450  141.4070 C   0  0  2  0  0  3  0  0  0  0  0  0
  188.2260  173.8560  138.0720 O   0  0  0  0  0  1  0  0  0  0  0  0
  191.9190  171.0730  139.8220 N   0  0  0  0  0  2  0  0  0  0  0  0
  190.5290  171.5330  139.9660 C   0  0  1  0  0  0  0  0  0  0  0  0
  190.0090  172.3050  138.7470 C   0  0  2  0  0  3  0  0  0  0  0  0
  190.3930  173.6610  138.8320 O   0  0  0  0  0  0  0  0  0  0  0  0
  188.6690  173.7490  140.5350 C   0  0  0  0  0  2  0  0  0  0  0  0
  188.7250  172.5250  141.4440 C   0  0  2  0  0  3  0  0  0  0  0  0
  1 26  1  0  0  0  0
  2  1  1  0  0  0  0
  4 14  1  0  0  0  0
  4  8  1  0  0  0  0
  5  3  1  0  0  0  0
  5  9  2  0  0  0  0
  6  8  2  0  0  0  0
  7 12  1  6  0  0  0
  7  3  1  0  0  0  0
  8  5  1  0  0  0  0
 10 11  1  0  0  0  0
 10 13  2  0  0  0  0
 11  4  2  0  0  0  0
 13  6  1  0  0  0  0
 14  2  1  6  0  0  0
 14  7  1  0  0  0  0
 15 19  1  6  0  0  0
 15 13  1  0  0  0  0
 15 16  1  0  0  0  0
 16 17  1  0  0  0  0
 17 18  1  0  0  0  0
 20 19  1  0  0  0  0
 21 20  2  0  0  0  0
 22 21  1  0  0  0  0
 22 23  1  0  0  0  0
 24 23  1  0  0  0  0
 25 24  1  0  0  0  0
 27 28  1  0  0  0  0
 27 31  1  1  0  0  0
 28 35  1  6  0  0  0
 29 26  1  1  0  0  0
 29 28  1  0  0  0  0
 30 32  1  0  0  0  0
 30 29  1  0  0  0  0
 32 27  1  0  0  0  0
 33 35  1  0  0  0  0
 34 35  1  0  0  0  0
 35 36  1  0  0  0  0
 37  1  1  0  0  0  0
 38 37  1  0  0  0  0
 39 44  1  0  0  0  0
 40 43  1  6  0  0  0
 40 48  1  0  0  0  0
 42 49  1  0  0  0  0
 42 38  1  6  0  0  0
 44 45  1  0  0  0  0
 45 39  1  6  0  0  0
 45 42  1  0  0  0  0
 46 47  1  1  0  0  0
 46 40  1  0  0  0  0
 46 45  1  0  0  0  0
 47 40  1  0  0  0  0
 48 49  1  0  0  0  0
 49 41  1  1  0  0  0
M  END
>  <MODEL>
1

>  <REMARK>
 VINA RESULT:      -7.5      0.000      0.000
  Name = 
  16 active torsions:
  status: ('A' for Active; 'I' for Inactive)
    1  A    between atoms: C_1  and  C_24
    2  A    between atoms: C_1  and  C_31
    3  A    between atoms: O_4  and  C_12
    4  A    between atoms: O_4  and  C_36
    5  A    between atoms: C_8  and  N_23
    6  A    between atoms: C_8  and  C_27
    7  A    between atoms: C_10  and  N_23
    8  A    between atoms: C_10  and  C_47
    9  A    between atoms: C_13  and  N_23
   10  A    between atoms: C_13  and  C_34
   11  A    between atoms: C_15  and  C_38
   12  A    between atoms: C_16  and  C_27
   13  A    between atoms: C_20  and  C_29
   14  A    between atoms: C_24  and  C_38
   15  A    between atoms: C_24  and  C_46
   16  A    between atoms: C_33  and  C_36
                            x       y       z     vdW  Elec       q    Type
                         _______ _______ _______ _____ _____    ______ ____

>  <TORSDO>
F 16

$$$$
=
 OpenBabel11062418213D

 49 54  0  0  1  0  0  0  0  0999 V2000
  194.5460  174.7990  142.4650 N   0  0  0  0  0  0  0  0  0  0  0  0
  194.0260  176.0590  142.9950 C   0  0  0  0  0  2  0  0  0  0  0  0
  193.3740  175.6580  146.7740 N   0  0  0  0  0  2  0  0  0  0  0  0
  191.9100  176.4880  144.4490 C   0  0  0  0  0  0  0  0  0  0  0  0
  191.9850  175.9880  146.8840 C   0  0  0  0  0  0  0  0  0  0  0  0
  189.9510  176.9590  145.8020 C   0  0  0  0  0  3  0  0  0  0  0  0
  194.1440  176.0650  145.6010 C   0  0  2  0  0  3  0  0  0  0  0  0
  191.2660  176.4970  145.7000 C   0  0  0  0  0  0  0  0  0  0  0  0
  191.3900  175.8180  147.9780 O   0  0  0  0  0  0  0  0  0  0  0  0
  189.9210  177.3750  143.4510 N   0  0  0  0  0  0  0  0  0  0  0  0
  191.1960  176.9230  143.3250 C   0  0  0  0  0  3  0  0  0  0  0  0
  194.5820  177.5120  145.7820 C   0  0  0  0  0  1  0  0  0  0  0  0
  189.2890  177.4090  144.6580 C   0  0  0  0  0  0  0  0  0  0  0  0
  193.2890  175.8740  144.3320 C   0  0  2  0  0  3  0  0  0  0  0  0
  187.8690  177.8670  144.7670 C   0  0  2  0  0  3  0  0  0  0  0  0
  187.0790  176.8970  145.6350 C   0  0  0  0  0  2  0  0  0  0  0  0
  186.4190  177.6160  146.8000 C   0  0  0  0  0  2  0  0  0  0  0  0
  186.2280  176.7330  147.8630 O   0  0  0  0  0  1  0  0  0  0  0  0
  187.2180  178.0130  143.3950 C   0  0  0  0  0  2  0  0  0  0  0  0
  185.8630  178.6220  143.5240 C   0  0  0  0  0  3  0  0  0  0  0  0
  184.8230  178.0520  142.9250 C   0  0  0  0  0  3  0  0  0  0  0  0
  183.4670  178.6510  143.0570 C   0  0  0  0  0  2  0  0  0  0  0  0
  182.7510  178.4470  141.8780 O   0  0  0  0  0  0  0  0  0  0  0  0
  183.7270  178.2010  140.9160 C   0  0  0  0  0  2  0  0  0  0  0  0
  183.1460  177.5640  139.8170 O   0  0  0  0  0  1  0  0  0  0  0  0
  196.0130  174.8430  142.4090 C   0  0  0  0  0  2  0  0  0  0  0  0
  196.0030  171.4780  142.6710 C   0  0  1  0  0  3  0  0  0  0  0  0
  195.6890  172.6710  143.5700 C   0  0  2  0  0  3  0  0  0  0  0  0
  196.7080  173.7340  143.2110 C   0  0  1  0  0  3  0  0  0  0  0  0
  197.7140  173.0110  142.3380 C   0  0  0  0  0  2  0  0  0  0  0  0
  194.7580  171.0540  141.9160 C   0  0  0  0  0  1  0  0  0  0  0  0
  197.0360  171.8790  141.7220 N   0  0  0  0  0  2  0  0  0  0  0  0
  194.3100  172.3240  145.6810 C   0  0  0  0  0  1  0  0  0  0  0  0
  196.5750  173.3110  145.8150 C   0  0  0  0  0  1  0  0  0  0  0  0
  195.7100  172.3150  145.0690 C   0  0  0  0  0  0  0  0  0  0  0  0
  196.2630  171.0420  145.2390 O   0  0  0  0  0  1  0  0  0  0  0  0
  194.0170  174.6140  141.1190 C   0  0  0  0  0  2  0  0  0  0  0  0
  192.4950  174.6560  141.1300 C   0  0  0  0  0  2  0  0  0  0  0  0
  191.4230  172.1010  138.9430 C   0  0  0  0  0  2  0  0  0  0  0  0
  188.9110  173.1920  141.5030 C   0  0  1  0  0  0  0  0  0  0  0  0
  192.0460  173.1750  143.5260 F   0  0  0  0  0  0  0  0  0  0  0  0
  191.8540  173.2610  141.1320 C   0  0  2  0  0  3  0  0  0  0  0  0
  187.6130  172.7890  141.8120 O   0  0  0  0  0  1  0  0  0  0  0  0
  191.3500  173.5480  138.6630 N   0  0  0  0  0  2  0  0  0  0  0  0
  190.8990  173.0070  139.9550 C   0  0  1  0  0  0  0  0  0  0  0  0
  189.3730  172.9680  140.1050 C   0  0  2  0  0  3  0  0  0  0  0  0
  188.8970  174.2220  140.5440 O   0  0  0  0  0  0  0  0  0  0  0  0
  189.8510  173.5280  142.6610 C   0  0  0  0  0  2  0  0  0  0  0  0
  191.2130  172.8680  142.4660 C   0  0  2  0  0  3  0  0  0  0  0  0
  1  2  1  0  0  0  0
  3  5  1  0  0  0  0
  4  8  1  0  0  0  0
  5  9  2  0  0  0  0
  7 12  1  1  0  0  0
  7  3  1  0  0  0  0
  8  6  2  0  0  0  0
  8  5  1  0  0  0  0
 10 13  2  0  0  0  0
 11 10  1  0  0  0  0
 11  4  2  0  0  0  0
 13 15  1  0  0  0  0
 13  6  1  0  0  0  0
 14  2  1  6  0  0  0
 14  4  1  0  0  0  0
 14  7  1  0  0  0  0
 15 19  1  6  0  0  0
 15 16  1  0  0  0  0
 16 17  1  0  0  0  0
 17 18  1  0  0  0  0
 19 20  1  0  0  0  0
 21 22  1  0  0  0  0
 21 20  2  0  0  0  0
 23 22  1  0  0  0  0
 24 23  1  0  0  0  0
 25 24  1  0  0  0  0
 26  1  1  0  0  0  0
 27 31  1  6  0  0  0
 27 28  1  0  0  0  0
 28 35  1  1  0  0  0
 29 26  1  6  0  0  0
 29 28  1  0  0  0  0
 30 29  1  0  0  0  0
 32 30  1  0  0  0  0
 32 27  1  0  0  0  0
 35 36  1  0  0  0  0
 35 33  1  0  0  0  0
 35 34  1  0  0  0  0
 37 38  1  0  0  0  0
 37  1  1  0  0  0  0
 40 43  1  1  0  0  0
 40 48  1  0  0  0  0
 42 38  1  1  0  0  0
 42 49  1  0  0  0  0
 44 39  1  0  0  0  0
 44 45  1  0  0  0  0
 45 39  1  6  0  0  0
 45 46  1  0  0  0  0
 45 42  1  0  0  0  0
 46 47  1  6  0  0  0
 46 40  1  0  0  0  0
 47 40  1  0  0  0  0
 49 48  1  0  0  0  0
 49 41  1  1  0  0  0
M  END
>  <MODEL>
2

>  <REMARK>
 VINA RESULT:      -7.2      2.159      3.270
  Name = 
  16 active torsions:
  status: ('A' for Active; 'I' for Inactive)
    1  A    between atoms: C_1  and  C_24
    2  A    between atoms: C_1  and  C_31
    3  A    between atoms: O_4  and  C_12
    4  A    between atoms: O_4  and  C_36
    5  A    between atoms: C_8  and  N_23
    6  A    between atoms: C_8  and  C_27
    7  A    between atoms: C_10  and  N_23
    8  A    between atoms: C_10  and  C_47
    9  A    between atoms: C_13  and  N_23
   10  A    between atoms: C_13  and  C_34
   11  A    between atoms: C_15  and  C_38
   12  A    between atoms: C_16  and  C_27
   13  A    between atoms: C_20  and  C_29
   14  A    between atoms: C_24  and  C_38
   15  A    between atoms: C_24  and  C_46
   16  A    between atoms: C_33  and  C_36
                            x       y       z     vdW  Elec       q    Type
                         _______ _______ _______ _____ _____    ______ ____

>  <TORSDO>
F 16

$$$$
=
 OpenBabel11062418213D

 49 54  0  0  1  0  0  0  0  0999 V2000
  193.1680  175.1380  143.0670 N   0  0  0  0  0  0  0  0  0  0  0  0
  192.0050  176.0200  143.1630 C   0  0  0  0  0  2  0  0  0  0  0  0
  190.7660  174.6920  146.5630 N   0  0  0  0  0  2  0  0  0  0  0  0
  189.8400  176.4920  144.5280 C   0  0  0  0  0  0  0  0  0  0  0  0
  189.4720  175.2940  146.6770 C   0  0  0  0  0  0  0  0  0  0  0  0
  187.8510  176.9960  145.8230 C   0  0  0  0  0  3  0  0  0  0  0  0
  191.7590  175.2300  145.6360 C   0  0  2  0  0  3  0  0  0  0  0  0
  189.0440  176.2850  145.6700 C   0  0  0  0  0  0  0  0  0  0  0  0
  188.7080  174.9570  147.6170 O   0  0  0  0  0  0  0  0  0  0  0  0
  188.2330  178.0790  143.7300 N   0  0  0  0  0  0  0  0  0  0  0  0
  189.3940  177.3950  143.5550 C   0  0  0  0  0  3  0  0  0  0  0  0
  192.4540  176.4130  146.2980 C   0  0  0  0  0  1  0  0  0  0  0  0
  187.4610  177.9060  144.8390 C   0  0  0  0  0  0  0  0  0  0  0  0
  191.0680  175.6300  144.3170 C   0  0  2  0  0  3  0  0  0  0  0  0
  186.1630  178.6350  144.9900 C   0  0  2  0  0  3  0  0  0  0  0  0
  185.8230  178.7850  146.4670 C   0  0  0  0  0  2  0  0  0  0  0  0
  184.4860  178.1370  146.7900 C   0  0  0  0  0  2  0  0  0  0  0  0
  184.6360  176.7530  146.8880 O   0  0  0  0  0  1  0  0  0  0  0  0
  185.0320  177.9300  144.2460 C   0  0  0  0  0  2  0  0  0  0  0  0
  184.8200  178.5560  142.9090 C   0  0  0  0  0  3  0  0  0  0  0  0
  185.0280  177.8450  141.8070 C   0  0  0  0  0  3  0  0  0  0  0  0
  184.8090  178.4630  140.4700 C   0  0  0  0  0  2  0  0  0  0  0  0
  185.2180  177.5740  139.4750 O   0  0  0  0  0  0  0  0  0  0  0  0
  186.6010  177.5100  139.6120 C   0  0  0  0  0  2  0  0  0  0  0  0
  187.0540  176.2630  139.1770 O   0  0  0  0  0  1  0  0  0  0  0  0
  194.3810  175.9290  142.8190 C   0  0  0  0  0  2  0  0  0  0  0  0
  197.4240  174.6820  143.5780 C   0  0  1  0  0  3  0  0  0  0  0  0
  195.9970  174.5460  144.1020 C   0  0  2  0  0  3  0  0  0  0  0  0
  195.3830  175.9260  143.9820 C   0  0  1  0  0  3  0  0  0  0  0  0
  196.5560  176.8320  143.6620 C   0  0  0  0  0  2  0  0  0  0  0  0
  197.6800  173.6520  142.4950 C   0  0  0  0  0  1  0  0  0  0  0  0
  197.5840  176.0210  143.0240 N   0  0  0  0  0  2  0  0  0  0  0  0
  197.3190  173.6180  146.0700 C   0  0  0  0  0  1  0  0  0  0  0  0
  195.0480  172.7690  145.5780 C   0  0  0  0  0  1  0  0  0  0  0  0
  195.9360  173.9960  145.5410 C   0  0  0  0  0  0  0  0  0  0  0  0
  195.3830  174.9620  146.3870 O   0  0  0  0  0  1  0  0  0  0  0  0
  192.9570  174.2190  141.9550 C   0  0  0  0  0  2  0  0  0  0  0  0
  191.5250  174.3120  141.4460 C   0  0  0  0  0  2  0  0  0  0  0  0
  190.2680  172.2470  138.8740 C   0  0  0  0  0  2  0  0  0  0  0  0
  187.9750  172.7630  141.7950 C   0  0  1  0  0  0  0  0  0  0  0  0
  191.2610  172.3670  143.5160 F   0  0  0  0  0  0  0  0  0  0  0  0
  190.8790  172.9390  141.2130 C   0  0  2  0  0  3  0  0  0  0  0  0
  186.7030  172.2920  142.1160 O   0  0  0  0  0  1  0  0  0  0  0  0
  190.1800  173.7200  138.9030 N   0  0  0  0  0  2  0  0  0  0  0  0
  189.8310  172.9210  140.0890 C   0  0  1  0  0  0  0  0  0  0  0  0
  188.3220  172.8360  140.3480 C   0  0  2  0  0  3  0  0  0  0  0  0
  187.8890  173.9680  141.0710 O   0  0  0  0  0  0  0  0  0  0  0  0
  189.0060  172.8650  142.9190 C   0  0  0  0  0  2  0  0  0  0  0  0
  190.3440  172.2750  142.4850 C   0  0  2  0  0  3  0  0  0  0  0  0
  1  2  1  0  0  0  0
  3  5  1  0  0  0  0
  4  8  1  0  0  0  0
  5  9  2  0  0  0  0
  7 12  1  1  0  0  0
  7  3  1  0  0  0  0
  8  6  2  0  0  0  0
  8  5  1  0  0  0  0
 10 13  2  0  0  0  0
 11 10  1  0  0  0  0
 11  4  2  0  0  0  0
 13 15  1  0  0  0  0
 13  6  1  0  0  0  0
 14  2  1  6  0  0  0
 14  4  1  0  0  0  0
 14  7  1  0  0  0  0
 15 19  1  6  0  0  0
 15 16  1  0  0  0  0
 16 17  1  0  0  0  0
 17 18  1  0  0  0  0
 20 19  1  0  0  0  0
 21 20  2  0  0  0  0
 22 21  1  0  0  0  0
 23 24  1  0  0  0  0
 23 22  1  0  0  0  0
 25 24  1  0  0  0  0
 26  1  1  0  0  0  0
 27 31  1  6  0  0  0
 27 28  1  0  0  0  0
 28 35  1  1  0  0  0
 29 26  1  6  0  0  0
 29 28  1  0  0  0  0
 30 29  1  0  0  0  0
 32 27  1  0  0  0  0
 32 30  1  0  0  0  0
 35 34  1  0  0  0  0
 35 33  1  0  0  0  0
 35 36  1  0  0  0  0
 37  1  1  0  0  0  0
 38 37  1  0  0  0  0
 39 44  1  0  0  0  0
 40 43  1  1  0  0  0
 40 48  1  0  0  0  0
 42 38  1  1  0  0  0
 42 49  1  0  0  0  0
 44 45  1  0  0  0  0
 45 39  1  6  0  0  0
 45 46  1  0  0  0  0
 45 42  1  0  0  0  0
 46 47  1  1  0  0  0
 46 40  1  0  0  0  0
 47 40  1  0  0  0  0
 49 48  1  0  0  0  0
 49 41  1  1  0  0  0
M  END
>  <MODEL>
3

>  <REMARK>
 VINA RESULT:      -7.2      2.067      2.952
  Name = 
  16 active torsions:
  status: ('A' for Active; 'I' for Inactive)
    1  A    between atoms: C_1  and  C_24
    2  A    between atoms: C_1  and  C_31
    3  A    between atoms: O_4  and  C_12
    4  A    between atoms: O_4  and  C_36
    5  A    between atoms: C_8  and  N_23
    6  A    between atoms: C_8  and  C_27
    7  A    between atoms: C_10  and  N_23
    8  A    between atoms: C_10  and  C_47
    9  A    between atoms: C_13  and  N_23
   10  A    between atoms: C_13  and  C_34
   11  A    between atoms: C_15  and  C_38
   12  A    between atoms: C_16  and  C_27
   13  A    between atoms: C_20  and  C_29
   14  A    between atoms: C_24  and  C_38
   15  A    between atoms: C_24  and  C_46
   16  A    between atoms: C_33  and  C_36
                            x       y       z     vdW  Elec       q    Type
                         _______ _______ _______ _____ _____    ______ ____

>  <TORSDO>
F 16

$$$$
=
 OpenBabel11062418213D

 49 54  0  0  1  0  0  0  0  0999 V2000
  192.5000  173.9680  143.4370 N   0  0  0  0  0  0  0  0  0  0  0  0
  191.6280  175.1290  143.2630 C   0  0  0  0  0  2  0  0  0  0  0  0
  189.8560  175.0960  146.6870 N   0  0  0  0  0  2  0  0  0  0  0  0
  189.3590  176.1280  144.0550 C   0  0  0  0  0  0  0  0  0  0  0  0
  188.6170  175.7530  146.3990 C   0  0  0  0  0  0  0  0  0  0  0  0
  187.2740  177.1240  144.7970 C   0  0  0  0  0  3  0  0  0  0  0  0
  191.0020  175.2440  145.7920 C   0  0  2  0  0  3  0  0  0  0  0  0
  188.4100  176.3560  145.0680 C   0  0  0  0  0  0  0  0  0  0  0  0
  187.7130  175.7890  147.2730 O   0  0  0  0  0  0  0  0  0  0  0  0
  188.0130  177.4100  142.5440 N   0  0  0  0  0  0  0  0  0  0  0  0
  189.1210  176.6610  142.7820 C   0  0  0  0  0  3  0  0  0  0  0  0
  191.7100  176.5520  146.1190 C   0  0  0  0  0  1  0  0  0  0  0  0
  187.0940  177.6580  143.5190 C   0  0  0  0  0  0  0  0  0  0  0  0
  190.5210  175.1960  144.3280 C   0  0  2  0  0  3  0  0  0  0  0  0
  185.8570  178.4470  143.2240 C   0  0  2  0  0  3  0  0  0  0  0  0
  184.7600  178.0770  144.2120 C   0  0  0  0  0  2  0  0  0  0  0  0
  184.4990  179.2090  145.1920 C   0  0  0  0  0  2  0  0  0  0  0  0
  184.6310  178.7480  146.5030 O   0  0  0  0  0  1  0  0  0  0  0  0
  185.3840  178.2350  141.7890 C   0  0  0  0  0  2  0  0  0  0  0  0
  183.8940  178.1980  141.7330 C   0  0  0  0  0  3  0  0  0  0  0  0
  183.2780  178.1760  140.5570 C   0  0  0  0  0  3  0  0  0  0  0  0
  181.7910  178.1310  140.4950 C   0  0  0  0  0  2  0  0  0  0  0  0
  181.2660  179.2780  141.0900 O   0  0  0  0  0  0  0  0  0  0  0  0
  180.2480  178.8090  141.9150 C   0  0  0  0  0  2  0  0  0  0  0  0
  179.1960  178.3330  141.1290 O   0  0  0  0  0  1  0  0  0  0  0  0
  193.8830  174.3180  143.0860 C   0  0  0  0  0  2  0  0  0  0  0  0
  197.0890  175.1320  143.7550 C   0  0  1  0  0  3  0  0  0  0  0  0
  196.1760  173.9260  143.9570 C   0  0  2  0  0  3  0  0  0  0  0  0
  194.8130  174.4970  144.2940 C   0  0  1  0  0  3  0  0  0  0  0  0
  195.0720  175.9700  144.5390 C   0  0  0  0  0  2  0  0  0  0  0  0
  197.7810  175.0410  142.4080 C   0  0  0  0  0  1  0  0  0  0  0  0
  196.2720  176.3400  143.8020 N   0  0  0  0  0  2  0  0  0  0  0  0
  197.7740  172.0200  144.4970 C   0  0  0  0  0  1  0  0  0  0  0  0
  195.5430  172.1200  145.5620 C   0  0  0  0  0  1  0  0  0  0  0  0
  196.6930  172.9560  145.0370 C   0  0  0  0  0  0  0  0  0  0  0  0
  197.2270  173.6860  146.1030 O   0  0  0  0  0  1  0  0  0  0  0  0
  192.0330  172.9070  142.5530 C   0  0  0  0  0  2  0  0  0  0  0  0
  191.4060  173.4940  141.2950 C   0  0  0  0  0  2  0  0  0  0  0  0
  191.0740  170.7330  139.1200 C   0  0  0  0  0  2  0  0  0  0  0  0
  188.9070  173.6870  138.3210 C   0  0  1  0  0  0  0  0  0  0  0  0
  188.6540  173.5890  142.0420 F   0  0  0  0  0  0  0  0  0  0  0  0
  190.3460  172.5770  140.6670 C   0  0  2  0  0  3  0  0  0  0  0  0
  187.9530  173.9430  137.3390 O   0  0  0  0  0  1  0  0  0  0  0  0
  192.0880  171.7980  138.9960 N   0  0  0  0  0  2  0  0  0  0  0  0
  190.6740  172.1290  139.2330 C   0  0  1  0  0  0  0  0  0  0  0  0
  189.9570  172.6810  137.9960 C   0  0  2  0  0  3  0  0  0  0  0  0
  190.1890  174.0690  137.8800 O   0  0  0  0  0  0  0  0  0  0  0  0
  188.6350  174.1980  139.7360 C   0  0  0  0  0  2  0  0  0  0  0  0
  188.9150  173.1130  140.7700 C   0  0  2  0  0  3  0  0  0  0  0  0
  2  1  1  0  0  0  0
  4 14  1  0  0  0  0
  4  8  1  0  0  0  0
  5  3  1  0  0  0  0
  5  9  2  0  0  0  0
  6  8  2  0  0  0  0
  7 12  1  1  0  0  0
  7  3  1  0  0  0  0
  8  5  1  0  0  0  0
 10 11  1  0  0  0  0
 10 13  2  0  0  0  0
 11  4  2  0  0  0  0
 13  6  1  0  0  0  0
 14  2  1  6  0  0  0
 14  7  1  0  0  0  0
 15 19  1  6  0  0  0
 15 13  1  0  0  0  0
 15 16  1  0  0  0  0
 16 17  1  0  0  0  0
 17 18  1  0  0  0  0
 20 19  1  0  0  0  0
 21 20  2  0  0  0  0
 22 21  1  0  0  0  0
 22 23  1  0  0  0  0
 23 24  1  0  0  0  0
 25 24  1  0  0  0  0
 26  1  1  0  0  0  0
 27 31  1  6  0  0  0
 27 32  1  0  0  0  0
 27 28  1  0  0  0  0
 28 29  1  0  0  0  0
 28 35  1  1  0  0  0
 29 26  1  6  0  0  0
 29 30  1  0  0  0  0
 32 30  1  0  0  0  0
 33 35  1  0  0  0  0
 35 34  1  0  0  0  0
 35 36  1  0  0  0  0
 37  1  1  0  0  0  0
 38 37  1  0  0  0  0
 40 43  1  6  0  0  0
 40 48  1  0  0  0  0
 42 49  1  0  0  0  0
 42 38  1  6  0  0  0
 44 39  1  0  0  0  0
 44 45  1  0  0  0  0
 45 39  1  1  0  0  0
 45 42  1  0  0  0  0
 46 47  1  6  0  0  0
 46 40  1  0  0  0  0
 46 45  1  0  0  0  0
 47 40  1  0  0  0  0
 48 49  1  0  0  0  0
 49 41  1  1  0  0  0
M  END
>  <MODEL>
4

>  <REMARK>
 VINA RESULT:      -7.0      1.355      1.923
  Name = 
  16 active torsions:
  status: ('A' for Active; 'I' for Inactive)
    1  A    between atoms: C_1  and  C_24
    2  A    between atoms: C_1  and  C_31
    3  A    between atoms: O_4  and  C_12
    4  A    between atoms: O_4  and  C_36
    5  A    between atoms: C_8  and  N_23
    6  A    between atoms: C_8  and  C_27
    7  A    between atoms: C_10  and  N_23
    8  A    between atoms: C_10  and  C_47
    9  A    between atoms: C_13  and  N_23
   10  A    between atoms: C_13  and  C_34
   11  A    between atoms: C_15  and  C_38
   12  A    between atoms: C_16  and  C_27
   13  A    between atoms: C_20  and  C_29
   14  A    between atoms: C_24  and  C_38
   15  A    between atoms: C_24  and  C_46
   16  A    between atoms: C_33  and  C_36
                            x       y       z     vdW  Elec       q    Type
                         _______ _______ _______ _____ _____    ______ ____

>  <TORSDO>
F 16

$$$$
=
 OpenBabel11062418213D

 49 54  0  0  1  0  0  0  0  0999 V2000
  194.1070  175.4440  142.9160 N   0  0  0  0  0  0  0  0  0  0  0  0
  193.0820  176.4010  143.3300 C   0  0  0  0  0  2  0  0  0  0  0  0
  192.0460  174.9040  146.7280 N   0  0  0  0  0  2  0  0  0  0  0  0
  190.8540  176.5130  144.6710 C   0  0  0  0  0  0  0  0  0  0  0  0
  190.6680  175.2830  146.8250 C   0  0  0  0  0  0  0  0  0  0  0  0
  188.7950  176.6850  145.9440 C   0  0  0  0  0  3  0  0  0  0  0  0
  192.9440  175.5950  145.8070 C   0  0  2  0  0  3  0  0  0  0  0  0
  190.0920  176.1830  145.8060 C   0  0  0  0  0  0  0  0  0  0  0  0
  189.9620  174.8290  147.7600 O   0  0  0  0  0  0  0  0  0  0  0  0
  189.0130  177.8050  143.8460 N   0  0  0  0  0  0  0  0  0  0  0  0
  190.2740  177.3240  143.6870 C   0  0  0  0  0  3  0  0  0  0  0  0
  193.4250  176.8810  146.4660 C   0  0  0  0  0  1  0  0  0  0  0  0
  188.2690  177.5120  144.9490 C   0  0  0  0  0  0  0  0  0  0  0  0
  192.2100  175.8670  144.4780 C   0  0  2  0  0  3  0  0  0  0  0  0
  186.8660  178.0150  145.0830 C   0  0  2  0  0  3  0  0  0  0  0  0
  186.5880  178.3920  146.5310 C   0  0  0  0  0  2  0  0  0  0  0  0
  185.4350  177.5790  147.0980 C   0  0  0  0  0  2  0  0  0  0  0  0
  185.8750  176.8070  148.1730 O   0  0  0  0  0  1  0  0  0  0  0  0
  185.8510  176.9880  144.5890 C   0  0  0  0  0  2  0  0  0  0  0  0
  185.6840  177.0910  143.1100 C   0  0  0  0  0  3  0  0  0  0  0  0
  185.3370  178.2510  142.5640 C   0  0  0  0  0  3  0  0  0  0  0  0
  185.1770  178.3610  141.0890 C   0  0  0  0  0  2  0  0  0  0  0  0
  185.5510  177.1580  140.4890 O   0  0  0  0  0  0  0  0  0  0  0  0
  186.6260  177.4950  139.6720 C   0  0  0  0  0  2  0  0  0  0  0  0
  187.7010  177.9060  140.4630 O   0  0  0  0  0  1  0  0  0  0  0  0
  195.4360  176.0670  142.9830 C   0  0  0  0  0  2  0  0  0  0  0  0
  197.1160  173.1400  142.9470 C   0  0  1  0  0  3  0  0  0  0  0  0
  196.0810  173.8250  143.8360 C   0  0  2  0  0  3  0  0  0  0  0  0
  196.4510  175.2950  143.8380 C   0  0  1  0  0  3  0  0  0  0  0  0
  197.8190  175.3390  143.1870 C   0  0  0  0  0  2  0  0  0  0  0  0
  196.4200  172.3300  141.8700 C   0  0  0  0  0  1  0  0  0  0  0  0
  197.9410  174.1700  142.3270 N   0  0  0  0  0  2  0  0  0  0  0  0
  197.1430  172.2210  145.5030 C   0  0  0  0  0  1  0  0  0  0  0  0
  194.6900  172.5390  145.4630 C   0  0  0  0  0  1  0  0  0  0  0  0
  196.0220  173.2300  145.2580 C   0  0  0  0  0  0  0  0  0  0  0  0
  196.1330  174.2570  146.1990 O   0  0  0  0  0  1  0  0  0  0  0  0
  193.8330  175.0430  141.5410 C   0  0  0  0  0  2  0  0  0  0  0  0
  192.9390  173.8110  141.5100 C   0  0  0  0  0  2  0  0  0  0  0  0
  189.4550  174.3100  141.7920 C   0  0  0  0  0  2  0  0  0  0  0  0
  190.5080  171.5320  139.5050 C   0  0  1  0  0  0  0  0  0  0  0  0
  193.0370  174.1460  138.6790 F   0  0  0  0  0  0  0  0  0  0  0  0
  191.6770  174.0040  140.6560 C   0  0  2  0  0  3  0  0  0  0  0  0
  189.8120  170.6340  138.6970 O   0  0  0  0  0  1  0  0  0  0  0  0
  190.2750  173.4920  142.7060 N   0  0  0  0  0  2  0  0  0  0  0  0
  190.4140  173.3590  141.2460 C   0  0  1  0  0  0  0  0  0  0  0  0
  189.7810  172.0800  140.6850 C   0  0  2  0  0  3  0  0  0  0  0  0
  190.6850  171.0020  140.7980 O   0  0  0  0  0  0  0  0  0  0  0  0
  191.8110  172.1200  138.9650 C   0  0  0  0  0  2  0  0  0  0  0  0
  191.8570  173.6290  139.1810 C   0  0  2  0  0  3  0  0  0  0  0  0
  1 26  1  0  0  0  0
  1  2  1  0  0  0  0
  3  5  1  0  0  0  0
  4  8  1  0  0  0  0
  5  9  2  0  0  0  0
  7 12  1  1  0  0  0
  7  3  1  0  0  0  0
  8  6  2  0  0  0  0
  8  5  1  0  0  0  0
 10 13  2  0  0  0  0
 11 10  1  0  0  0  0
 11  4  2  0  0  0  0
 13 15  1  0  0  0  0
 13  6  1  0  0  0  0
 14  2  1  6  0  0  0
 14  4  1  0  0  0  0
 14  7  1  0  0  0  0
 15 19  1  1  0  0  0
 15 16  1  0  0  0  0
 16 17  1  0  0  0  0
 17 18  1  0  0  0  0
 20 19  1  0  0  0  0
 21 20  2  0  0  0  0
 22 21  1  0  0  0  0
 23 22  1  0  0  0  0
 24 25  1  0  0  0  0
 24 23  1  0  0  0  0
 27 31  1  6  0  0  0
 27 28  1  0  0  0  0
 28 29  1  0  0  0  0
 28 35  1  1  0  0  0
 29 26  1  6  0  0  0
 30 29  1  0  0  0  0
 32 27  1  0  0  0  0
 32 30  1  0  0  0  0
 35 34  1  0  0  0  0
 35 33  1  0  0  0  0
 35 36  1  0  0  0  0
 37  1  1  0  0  0  0
 38 37  1  0  0  0  0
 39 44  1  0  0  0  0
 40 43  1  6  0  0  0
 40 46  1  0  0  0  0
 40 47  1  0  0  0  0
 42 45  1  0  0  0  0
 42 38  1  1  0  0  0
 45 39  1  6  0  0  0
 45 44  1  0  0  0  0
 46 47  1  1  0  0  0
 46 45  1  0  0  0  0
 48 49  1  0  0  0  0
 48 40  1  0  0  0  0
 49 41  1  1  0  0  0
 49 42  1  0  0  0  0
M  END
>  <MODEL>
5

>  <REMARK>
 VINA RESULT:      -7.0      2.396      3.495
  Name = 
  16 active torsions:
  status: ('A' for Active; 'I' for Inactive)
    1  A    between atoms: C_1  and  C_24
    2  A    between atoms: C_1  and  C_31
    3  A    between atoms: O_4  and  C_12
    4  A    between atoms: O_4  and  C_36
    5  A    between atoms: C_8  and  N_23
    6  A    between atoms: C_8  and  C_27
    7  A    between atoms: C_10  and  N_23
    8  A    between atoms: C_10  and  C_47
    9  A    between atoms: C_13  and  N_23
   10  A    between atoms: C_13  and  C_34
   11  A    between atoms: C_15  and  C_38
   12  A    between atoms: C_16  and  C_27
   13  A    between atoms: C_20  and  C_29
   14  A    between atoms: C_24  and  C_38
   15  A    between atoms: C_24  and  C_46
   16  A    between atoms: C_33  and  C_36
                            x       y       z     vdW  Elec       q    Type
                         _______ _______ _______ _____ _____    ______ ____

>  <TORSDO>
F 16

$$$$
=
 OpenBabel11062418213D

 49 54  0  0  1  0  0  0  0  0999 V2000
  193.3140  173.4160  145.2720 N   0  0  0  0  0  0  0  0  0  0  0  0
  192.7120  174.7170  144.9830 C   0  0  0  0  0  2  0  0  0  0  0  0
  189.9050  175.1910  147.5830 N   0  0  0  0  0  2  0  0  0  0  0  0
  190.2560  175.5500  144.7570 C   0  0  0  0  0  0  0  0  0  0  0  0
  188.7980  175.5980  146.7710 C   0  0  0  0  0  0  0  0  0  0  0  0
  187.9920  176.3960  144.5430 C   0  0  0  0  0  3  0  0  0  0  0  0
  191.2730  175.2930  147.0810 C   0  0  2  0  0  3  0  0  0  0  0  0
  189.0130  175.8640  145.3350 C   0  0  0  0  0  0  0  0  0  0  0  0
  187.6550  175.7020  147.2830 O   0  0  0  0  0  0  0  0  0  0  0  0
  189.4220  176.2810  142.6340 N   0  0  0  0  0  0  0  0  0  0  0  0
  190.4280  175.7570  143.3820 C   0  0  0  0  0  3  0  0  0  0  0  0
  191.7580  176.7240  147.2740 C   0  0  0  0  0  1  0  0  0  0  0  0
  188.2180  176.6100  143.1820 C   0  0  0  0  0  0  0  0  0  0  0  0
  191.3120  174.8650  145.6000 C   0  0  2  0  0  3  0  0  0  0  0  0
  187.1090  177.1430  142.3310 C   0  0  2  0  0  3  0  0  0  0  0  0
  187.3060  176.7000  140.8870 C   0  0  0  0  0  2  0  0  0  0  0  0
  186.4650  177.5370  139.9370 C   0  0  0  0  0  2  0  0  0  0  0  0
  186.5000  176.9880  138.6550 O   0  0  0  0  0  1  0  0  0  0  0  0
  187.0130  178.6630  142.4190 C   0  0  0  0  0  2  0  0  0  0  0  0
  186.0460  179.0630  143.4830 C   0  0  0  0  0  3  0  0  0  0  0  0
  184.9280  178.3670  143.6540 C   0  0  0  0  0  3  0  0  0  0  0  0
  183.9640  178.7570  144.7200 C   0  0  0  0  0  2  0  0  0  0  0  0
  184.6640  179.2540  145.8200 O   0  0  0  0  0  0  0  0  0  0  0  0
  184.4880  178.2910  146.8090 C   0  0  0  0  0  2  0  0  0  0  0  0
  185.6030  178.2790  147.6500 O   0  0  0  0  0  1  0  0  0  0  0  0
  194.6030  173.2920  144.5780 C   0  0  0  0  0  2  0  0  0  0  0  0
  197.6500  171.9280  144.0760 C   0  0  1  0  0  3  0  0  0  0  0  0
  196.2420  171.4340  144.3990 C   0  0  2  0  0  3  0  0  0  0  0  0
  195.6510  172.4650  145.3380 C   0  0  1  0  0  3  0  0  0  0  0  0
  196.8260  173.3420  145.7230 C   0  0  0  0  0  2  0  0  0  0  0  0
  197.8430  172.0020  142.5740 C   0  0  0  0  0  1  0  0  0  0  0  0
  197.8120  173.2570  144.6550 N   0  0  0  0  0  2  0  0  0  0  0  0
  194.9710  169.7530  145.8290 C   0  0  0  0  0  1  0  0  0  0  0  0
  197.4440  169.8240  145.8830 C   0  0  0  0  0  1  0  0  0  0  0  0
  196.2280  170.0130  144.9990 C   0  0  0  0  0  0  0  0  0  0  0  0
  196.2850  169.0710  143.9680 O   0  0  0  0  0  1  0  0  0  0  0  0
  192.4100  172.3750  144.7990 C   0  0  0  0  0  2  0  0  0  0  0  0
  192.1080  172.5600  143.3180 C   0  0  0  0  0  2  0  0  0  0  0  0
  192.1260  169.5670  141.4460 C   0  0  0  0  0  2  0  0  0  0  0  0
  189.7370  172.2010  140.2560 C   0  0  1  0  0  0  0  0  0  0  0  0
  189.3290  172.4710  143.9550 F   0  0  0  0  0  0  0  0  0  0  0  0
  191.1650  171.4860  142.7560 C   0  0  2  0  0  3  0  0  0  0  0  0
  188.8070  172.2600  139.2200 O   0  0  0  0  0  1  0  0  0  0  0  0
  193.0430  170.7050  141.2410 N   0  0  0  0  0  2  0  0  0  0  0  0
  191.5950  170.9220  141.3930 C   0  0  1  0  0  0  0  0  0  0  0  0
  190.8870  171.2710  140.0780 C   0  0  2  0  0  3  0  0  0  0  0  0
  190.9970  172.6540  139.8200 O   0  0  0  0  0  0  0  0  0  0  0  0
  189.3560  172.8300  141.5960 C   0  0  0  0  0  2  0  0  0  0  0  0
  189.6880  171.8910  142.7520 C   0  0  2  0  0  3  0  0  0  0  0  0
  2  1  1  0  0  0  0
  4  8  1  0  0  0  0
  4 14  1  0  0  0  0
  5  9  2  0  0  0  0
  5  3  1  0  0  0  0
  6  8  2  0  0  0  0
  7 12  1  6  0  0  0
  7  3  1  0  0  0  0
  8  5  1  0  0  0  0
 10 13  2  0  0  0  0
 10 11  1  0  0  0  0
 11  4  2  0  0  0  0
 13  6  1  0  0  0  0
 14  2  1  6  0  0  0
 14  7  1  0  0  0  0
 15 16  1  6  0  0  0
 15 19  1  0  0  0  0
 15 13  1  0  0  0  0
 17 16  1  0  0  0  0
 18 17  1  0  0  0  0
 19 20  1  0  0  0  0
 20 21  2  0  0  0  0
 21 22  1  0  0  0  0
 22 23  1  0  0  0  0
 23 24  1  0  0  0  0
 24 25  1  0  0  0  0
 26  1  1  0  0  0  0
 27 31  1  6  0  0  0
 27 28  1  0  0  0  0
 27 32  1  0  0  0  0
 28 35  1  1  0  0  0
 28 29  1  0  0  0  0
 29 26  1  6  0  0  0
 29 30  1  0  0  0  0
 32 30  1  0  0  0  0
 35 33  1  0  0  0  0
 35 34  1  0  0  0  0
 36 35  1  0  0  0  0
 37  1  1  0  0  0  0
 38 37  1  0  0  0  0
 40 43  1  6  0  0  0
 40 48  1  0  0  0  0
 42 38  1  6  0  0  0
 44 45  1  0  0  0  0
 44 39  1  0  0  0  0
 45 39  1  1  0  0  0
 45 42  1  0  0  0  0
 46 47  1  6  0  0  0
 46 40  1  0  0  0  0
 46 45  1  0  0  0  0
 47 40  1  0  0  0  0
 48 49  1  0  0  0  0
 49 42  1  0  0  0  0
 49 41  1  1  0  0  0
M  END
>  <MODEL>
6

>  <REMARK>
 VINA RESULT:      -7.0      2.304      3.594
  Name = 
  16 active torsions:
  status: ('A' for Active; 'I' for Inactive)
    1  A    between atoms: C_1  and  C_24
    2  A    between atoms: C_1  and  C_31
    3  A    between atoms: O_4  and  C_12
    4  A    between atoms: O_4  and  C_36
    5  A    between atoms: C_8  and  N_23
    6  A    between atoms: C_8  and  C_27
    7  A    between atoms: C_10  and  N_23
    8  A    between atoms: C_10  and  C_47
    9  A    between atoms: C_13  and  N_23
   10  A    between atoms: C_13  and  C_34
   11  A    between atoms: C_15  and  C_38
   12  A    between atoms: C_16  and  C_27
   13  A    between atoms: C_20  and  C_29
   14  A    between atoms: C_24  and  C_38
   15  A    between atoms: C_24  and  C_46
   16  A    between atoms: C_33  and  C_36
                            x       y       z     vdW  Elec       q    Type
                         _______ _______ _______ _____ _____    ______ ____

>  <TORSDO>
F 16

$$$$
=
 OpenBabel11062418213D

 49 54  0  0  1  0  0  0  0  0999 V2000
  193.3970  173.7800  144.0680 N   0  0  0  0  0  0  0  0  0  0  0  0
  192.9220  175.1010  144.4760 C   0  0  0  0  0  2  0  0  0  0  0  0
  190.4670  174.9370  147.4440 N   0  0  0  0  0  2  0  0  0  0  0  0
  190.4080  175.7390  144.6890 C   0  0  0  0  0  0  0  0  0  0  0  0
  189.2360  175.3600  146.8500 C   0  0  0  0  0  0  0  0  0  0  0  0
  188.0830  176.4040  144.8920 C   0  0  0  0  0  3  0  0  0  0  0  0
  191.7450  175.2320  146.8000 C   0  0  2  0  0  3  0  0  0  0  0  0
  189.2360  175.8530  145.4590 C   0  0  0  0  0  0  0  0  0  0  0  0
  188.1680  175.2850  147.5090 O   0  0  0  0  0  0  0  0  0  0  0  0
  189.2450  176.7000  142.8280 N   0  0  0  0  0  0  0  0  0  0  0  0
  190.3770  176.1610  143.3540 C   0  0  0  0  0  3  0  0  0  0  0  0
  192.1530  176.6560  147.1560 C   0  0  0  0  0  1  0  0  0  0  0  0
  188.1080  176.8370  143.5650 C   0  0  0  0  0  0  0  0  0  0  0  0
  191.6120  175.0320  145.2770 C   0  0  2  0  0  3  0  0  0  0  0  0
  186.8590  177.3890  142.9520 C   0  0  2  0  0  3  0  0  0  0  0  0
  186.8590  177.1250  141.4530 C   0  0  0  0  0  2  0  0  0  0  0  0
  185.7190  177.8600  140.7670 C   0  0  0  0  0  2  0  0  0  0  0  0
  185.5700  177.3990  139.4580 O   0  0  0  0  0  1  0  0  0  0  0  0
  186.7060  178.8800  143.2360 C   0  0  0  0  0  2  0  0  0  0  0  0
  185.8870  179.0950  144.4640 C   0  0  0  0  0  3  0  0  0  0  0  0
  184.9140  178.2430  144.7660 C   0  0  0  0  0  3  0  0  0  0  0  0
  184.0990  178.4480  145.9950 C   0  0  0  0  0  2  0  0  0  0  0  0
  184.8860  179.0440  146.9810 O   0  0  0  0  0  0  0  0  0  0  0  0
  185.5480  177.9810  147.5890 C   0  0  0  0  0  2  0  0  0  0  0  0
  186.9040  178.2860  147.7100 O   0  0  0  0  0  1  0  0  0  0  0  0
  194.1480  173.8800  142.8100 C   0  0  0  0  0  2  0  0  0  0  0  0
  195.6630  170.9460  143.5090 C   0  0  1  0  0  3  0  0  0  0  0  0
  195.6580  172.3650  144.0720 C   0  0  2  0  0  3  0  0  0  0  0  0
  195.5610  173.2830  142.8700 C   0  0  1  0  0  3  0  0  0  0  0  0
  195.7930  172.3720  141.6810 C   0  0  0  0  0  2  0  0  0  0  0  0
  194.5780  170.1200  144.1710 C   0  0  0  0  0  1  0  0  0  0  0  0
  195.4110  171.0220  142.0740 N   0  0  0  0  0  2  0  0  0  0  0  0
  196.5400  173.5440  146.1490 C   0  0  0  0  0  1  0  0  0  0  0  0
  197.9410  173.3770  144.1170 C   0  0  0  0  0  1  0  0  0  0  0  0
  196.8910  172.6680  144.9480 C   0  0  0  0  0  0  0  0  0  0  0  0
  197.4370  171.4690  145.4140 O   0  0  0  0  0  1  0  0  0  0  0  0
  192.2380  172.9170  143.8690 C   0  0  0  0  0  2  0  0  0  0  0  0
  191.7880  172.9510  142.4150 C   0  0  0  0  0  2  0  0  0  0  0  0
  191.2940  169.8410  140.8180 C   0  0  0  0  0  2  0  0  0  0  0  0
  188.9310  172.5700  139.8030 C   0  0  1  0  0  0  0  0  0  0  0  0
  189.1490  173.1340  143.4840 F   0  0  0  0  0  0  0  0  0  0  0  0
  190.6940  171.9200  142.0990 C   0  0  2  0  0  3  0  0  0  0  0  0
  187.8520  172.6310  138.9230 O   0  0  0  0  0  1  0  0  0  0  0  0
  192.2420  170.8830  140.3790 N   0  0  0  0  0  2  0  0  0  0  0  0
  190.8570  171.2280  140.7370 C   0  0  1  0  0  0  0  0  0  0  0  0
  189.9700  171.5390  139.5250 C   0  0  2  0  0  3  0  0  0  0  0  0
  190.1320  172.8870  139.1390 O   0  0  0  0  0  0  0  0  0  0  0  0
  188.8180  173.3210  141.1290 C   0  0  0  0  0  2  0  0  0  0  0  0
  189.2670  172.4420  142.2920 C   0  0  2  0  0  3  0  0  0  0  0  0
  1  2  1  0  0  0  0
  4 14  1  0  0  0  0
  4  8  1  0  0  0  0
  5  3  1  0  0  0  0
  5  9  2  0  0  0  0
  6  8  2  0  0  0  0
  7 12  1  6  0  0  0
  7  3  1  0  0  0  0
  8  5  1  0  0  0  0
 10 11  1  0  0  0  0
 10 13  2  0  0  0  0
 11  4  2  0  0  0  0
 13  6  1  0  0  0  0
 14  2  1  6  0  0  0
 14  7  1  0  0  0  0
 15 16  1  6  0  0  0
 15 19  1  0  0  0  0
 15 13  1  0  0  0  0
 17 16  1  0  0  0  0
 18 17  1  0  0  0  0
 19 20  1  0  0  0  0
 20 21  2  0  0  0  0
 21 22  1  0  0  0  0
 22 23  1  0  0  0  0
 23 24  1  0  0  0  0
 24 25  1  0  0  0  0
 26  1  1  0  0  0  0
 27 28  1  0  0  0  0
 27 31  1  1  0  0  0
 28 35  1  6  0  0  0
 29 26  1  6  0  0  0
 29 28  1  0  0  0  0
 30 32  1  0  0  0  0
 30 29  1  0  0  0  0
 32 27  1  0  0  0  0
 34 35  1  0  0  0  0
 35 36  1  0  0  0  0
 35 33  1  0  0  0  0
 37  1  1  0  0  0  0
 38 37  1  0  0  0  0
 40 43  1  6  0  0  0
 40 48  1  0  0  0  0
 42 49  1  0  0  0  0
 42 38  1  6  0  0  0
 44 45  1  0  0  0  0
 44 39  1  0  0  0  0
 45 39  1  1  0  0  0
 45 42  1  0  0  0  0
 46 47  1  6  0  0  0
 46 40  1  0  0  0  0
 46 45  1  0  0  0  0
 47 40  1  0  0  0  0
 48 49  1  0  0  0  0
 49 41  1  1  0  0  0
M  END
>  <MODEL>
7

>  <REMARK>
 VINA RESULT:      -7.0      2.038      3.321
  Name = 
  16 active torsions:
  status: ('A' for Active; 'I' for Inactive)
    1  A    between atoms: C_1  and  C_24
    2  A    between atoms: C_1  and  C_31
    3  A    between atoms: O_4  and  C_12
    4  A    between atoms: O_4  and  C_36
    5  A    between atoms: C_8  and  N_23
    6  A    between atoms: C_8  and  C_27
    7  A    between atoms: C_10  and  N_23
    8  A    between atoms: C_10  and  C_47
    9  A    between atoms: C_13  and  N_23
   10  A    between atoms: C_13  and  C_34
   11  A    between atoms: C_15  and  C_38
   12  A    between atoms: C_16  and  C_27
   13  A    between atoms: C_20  and  C_29
   14  A    between atoms: C_24  and  C_38
   15  A    between atoms: C_24  and  C_46
   16  A    between atoms: C_33  and  C_36
                            x       y       z     vdW  Elec       q    Type
                         _______ _______ _______ _____ _____    ______ ____

>  <TORSDO>
F 16

$$$$
=
 OpenBabel11062418213D

 49 54  0  0  1  0  0  0  0  0999 V2000
  194.3340  175.6390  144.0030 N   0  0  0  0  0  0  0  0  0  0  0  0
  193.4760  176.6480  144.6230 C   0  0  0  0  0  2  0  0  0  0  0  0
  191.2170  174.9120  147.2210 N   0  0  0  0  0  2  0  0  0  0  0  0
  190.8960  176.6630  144.9690 C   0  0  0  0  0  0  0  0  0  0  0  0
  189.9050  175.2820  146.7860 C   0  0  0  0  0  0  0  0  0  0  0  0
  188.4960  176.7410  145.3230 C   0  0  0  0  0  3  0  0  0  0  0  0
  192.3880  175.6680  146.7810 C   0  0  2  0  0  3  0  0  0  0  0  0
  189.7550  176.2510  145.6820 C   0  0  0  0  0  0  0  0  0  0  0  0
  188.8980  174.7610  147.3290 O   0  0  0  0  0  0  0  0  0  0  0  0
  189.4980  178.0080  143.5640 N   0  0  0  0  0  0  0  0  0  0  0  0
  190.7320  177.5400  143.8900 C   0  0  0  0  0  3  0  0  0  0  0  0
  192.5290  176.9030  147.6600 C   0  0  0  0  0  1  0  0  0  0  0  0
  188.3850  177.6370  144.2580 C   0  0  0  0  0  0  0  0  0  0  0  0
  192.2350  176.0330  145.2910 C   0  0  2  0  0  3  0  0  0  0  0  0
  187.0310  178.1280  143.8530 C   0  0  2  0  0  3  0  0  0  0  0  0
  185.9720  177.5460  144.7800 C   0  0  0  0  0  2  0  0  0  0  0  0
  185.2260  178.6450  145.5180 C   0  0  0  0  0  2  0  0  0  0  0  0
  184.5230  179.4400  144.6110 O   0  0  0  0  0  1  0  0  0  0  0  0
  186.7200  177.7860  142.3990 C   0  0  0  0  0  2  0  0  0  0  0  0
  187.0190  176.3510  142.1260 C   0  0  0  0  0  3  0  0  0  0  0  0
  187.8590  176.0250  141.1510 C   0  0  0  0  0  3  0  0  0  0  0  0
  188.1670  174.5940  140.8800 C   0  0  0  0  0  2  0  0  0  0  0  0
  187.9470  173.8440  142.0360 O   0  0  0  0  0  0  0  0  0  0  0  0
  188.9740  172.9030  142.0410 C   0  0  0  0  0  2  0  0  0  0  0  0
  188.6970  171.9200  142.9930 O   0  0  0  0  0  1  0  0  0  0  0  0
  195.4870  175.3570  144.8690 C   0  0  0  0  0  2  0  0  0  0  0  0
  196.7350  172.2780  144.2740 C   0  0  1  0  0  3  0  0  0  0  0  0
  195.3560  172.9240  144.3890 C   0  0  2  0  0  3  0  0  0  0  0  0
  195.4780  173.9540  145.4930 C   0  0  1  0  0  3  0  0  0  0  0  0
  196.8190  173.6620  146.1350 C   0  0  0  0  0  2  0  0  0  0  0  0
  197.2240  172.3500  142.8400 C   0  0  0  0  0  1  0  0  0  0  0  0
  197.6560  173.0060  145.1400 N   0  0  0  0  0  2  0  0  0  0  0  0
  194.6010  170.9330  145.7840 C   0  0  0  0  0  1  0  0  0  0  0  0
  193.9640  171.1010  143.4000 C   0  0  0  0  0  1  0  0  0  0  0  0
  194.2350  171.9000  144.6590 C   0  0  0  0  0  0  0  0  0  0  0  0
  193.0630  172.5730  145.0120 O   0  0  0  0  0  1  0  0  0  0  0  0
  194.8060  176.1600  142.7260 C   0  0  0  0  0  2  0  0  0  0  0  0
  193.8480  175.7810  141.6050 C   0  0  0  0  0  2  0  0  0  0  0  0
  196.1720  173.8620  139.7670 C   0  0  0  0  0  2  0  0  0  0  0  0
  192.6210  173.6650  138.5810 C   0  0  1  0  0  0  0  0  0  0  0  0
  192.1530  173.5880  142.2810 F   0  0  0  0  0  0  0  0  0  0  0  0
  194.0800  174.3600  141.0690 C   0  0  2  0  0  3  0  0  0  0  0  0
  191.9850  172.9660  137.5570 O   0  0  0  0  0  1  0  0  0  0  0  0
  195.8750  175.2880  139.5370 N   0  0  0  0  0  2  0  0  0  0  0  0
  194.7880  174.3110  139.7060 C   0  0  1  0  0  0  0  0  0  0  0  0
  194.0700  173.9610  138.3980 C   0  0  2  0  0  3  0  0  0  0  0  0
  193.0700  174.9180  138.1220 O   0  0  0  0  0  0  0  0  0  0  0  0
  191.8930  173.7940  139.9190 C   0  0  0  0  0  2  0  0  0  0  0  0
  192.8290  173.4750  141.0800 C   0  0  2  0  0  3  0  0  0  0  0  0
  1  2  1  0  0  0  0
  1 26  1  0  0  0  0
  4 14  1  0  0  0  0
  4  8  1  0  0  0  0
  5  3  1  0  0  0  0
  5  9  2  0  0  0  0
  6  8  2  0  0  0  0
  7  3  1  0  0  0  0
  7 12  1  1  0  0  0
  8  5  1  0  0  0  0
 10 11  1  0  0  0  0
 10 13  2  0  0  0  0
 11  4  2  0  0  0  0
 13  6  1  0  0  0  0
 14  2  1  1  0  0  0
 14  7  1  0  0  0  0
 15 19  1  6  0  0  0
 15 13  1  0  0  0  0
 15 16  1  0  0  0  0
 16 17  1  0  0  0  0
 18 17  1  0  0  0  0
 20 19  1  0  0  0  0
 21 20  2  0  0  0  0
 22 21  1  0  0  0  0
 22 23  1  0  0  0  0
 23 24  1  0  0  0  0
 24 25  1  0  0  0  0
 27 31  1  6  0  0  0
 27 28  1  0  0  0  0
 27 32  1  0  0  0  0
 28 35  1  1  0  0  0
 28 29  1  0  0  0  0
 29 26  1  6  0  0  0
 29 30  1  0  0  0  0
 32 30  1  0  0  0  0
 34 35  1  0  0  0  0
 35 36  1  0  0  0  0
 35 33  1  0  0  0  0
 37  1  1  0  0  0  0
 38 37  1  0  0  0  0
 40 43  1  6  0  0  0
 40 48  1  0  0  0  0
 42 49  1  0  0  0  0
 42 38  1  6  0  0  0
 44 45  1  0  0  0  0
 44 39  1  0  0  0  0
 45 39  1  1  0  0  0
 45 42  1  0  0  0  0
 46 47  1  6  0  0  0
 46 40  1  0  0  0  0
 46 45  1  0  0  0  0
 47 40  1  0  0  0  0
 48 49  1  0  0  0  0
 49 41  1  1  0  0  0
M  END
>  <MODEL>
8

>  <REMARK>
 VINA RESULT:      -6.8      2.643      4.224
  Name = 
  16 active torsions:
  status: ('A' for Active; 'I' for Inactive)
    1  A    between atoms: C_1  and  C_24
    2  A    between atoms: C_1  and  C_31
    3  A    between atoms: O_4  and  C_12
    4  A    between atoms: O_4  and  C_36
    5  A    between atoms: C_8  and  N_23
    6  A    between atoms: C_8  and  C_27
    7  A    between atoms: C_10  and  N_23
    8  A    between atoms: C_10  and  C_47
    9  A    between atoms: C_13  and  N_23
   10  A    between atoms: C_13  and  C_34
   11  A    between atoms: C_15  and  C_38
   12  A    between atoms: C_16  and  C_27
   13  A    between atoms: C_20  and  C_29
   14  A    between atoms: C_24  and  C_38
   15  A    between atoms: C_24  and  C_46
   16  A    between atoms: C_33  and  C_36
                            x       y       z     vdW  Elec       q    Type
                         _______ _______ _______ _____ _____    ______ ____

>  <TORSDO>
F 16

$$$$
=
 OpenBabel11062418213D

 49 54  0  0  1  0  0  0  0  0999 V2000
  191.5780  171.4560  142.6960 N   0  0  0  0  0  0  0  0  0  0  0  0
  190.3060  171.8790  143.2800 C   0  0  0  0  0  2  0  0  0  0  0  0
  188.8220  174.5680  140.9500 N   0  0  0  0  0  2  0  0  0  0  0  0
  189.3050  174.2330  143.7600 C   0  0  0  0  0  0  0  0  0  0  0  0
  188.5390  175.6400  141.8570 C   0  0  0  0  0  0  0  0  0  0  0  0
  188.3100  176.3960  144.2290 C   0  0  0  0  0  3  0  0  0  0  0  0
  189.0140  173.2070  141.4440 C   0  0  2  0  0  3  0  0  0  0  0  0
  188.7090  175.4240  143.3070 C   0  0  0  0  0  0  0  0  0  0  0  0
  188.1730  176.7550  141.4080 O   0  0  0  0  0  0  0  0  0  0  0  0
  189.1080  175.0230  146.0130 N   0  0  0  0  0  0  0  0  0  0  0  0
  189.5090  174.0660  145.1350 C   0  0  0  0  0  3  0  0  0  0  0  0
  187.6480  172.5660  141.6520 C   0  0  0  0  0  1  0  0  0  0  0  0
  188.5090  176.1730  145.5930 C   0  0  0  0  0  0  0  0  0  0  0  0
  189.8400  173.2430  142.7460 C   0  0  2  0  0  3  0  0  0  0  0  0
  188.1170  177.2340  146.5720 C   0  0  2  0  0  3  0  0  0  0  0  0
  189.2780  177.5250  147.5130 C   0  0  0  0  0  2  0  0  0  0  0  0
  190.6110  177.3990  146.7940 C   0  0  0  0  0  2  0  0  0  0  0  0
  191.5480  176.7830  147.6240 O   0  0  0  0  0  1  0  0  0  0  0  0
  186.8720  176.8390  147.3610 C   0  0  0  0  0  2  0  0  0  0  0  0
  185.7440  177.7640  147.0510 C   0  0  0  0  0  3  0  0  0  0  0  0
  185.2350  177.7970  145.8240 C   0  0  0  0  0  3  0  0  0  0  0  0
  184.1040  178.7120  145.5120 C   0  0  0  0  0  2  0  0  0  0  0  0
  184.0880  178.9820  144.1430 O   0  0  0  0  0  0  0  0  0  0  0  0
  185.2690  179.6830  143.9120 C   0  0  0  0  0  2  0  0  0  0  0  0
  185.9700  179.0810  142.8660 O   0  0  0  0  0  1  0  0  0  0  0  0
  191.4200  170.1580  142.0270 C   0  0  0  0  0  2  0  0  0  0  0  0
  193.9970  170.9300  139.9900 C   0  0  1  0  0  3  0  0  0  0  0  0
  192.5690  171.4170  140.2210 C   0  0  2  0  0  3  0  0  0  0  0  0
  191.7580  170.1750  140.5300 C   0  0  1  0  0  3  0  0  0  0  0  0
  192.6870  169.0260  140.1930 C   0  0  0  0  0  2  0  0  0  0  0  0
  194.9570  171.6930  140.8830 C   0  0  0  0  0  1  0  0  0  0  0  0
  194.0550  169.5090  140.3130 N   0  0  0  0  0  2  0  0  0  0  0  0
  192.8340  172.0040  137.7580 C   0  0  0  0  0  1  0  0  0  0  0  0
  191.9810  173.6860  139.3590 C   0  0  0  0  0  1  0  0  0  0  0  0
  192.0040  172.2080  139.0240 C   0  0  0  0  0  0  0  0  0  0  0  0
  190.6920  171.7960  138.7700 O   0  0  0  0  0  1  0  0  0  0  0  0
  192.5570  171.3280  143.7690 C   0  0  0  0  0  2  0  0  0  0  0  0
  192.7250  172.6530  144.5020 C   0  0  0  0  0  2  0  0  0  0  0  0
  196.2450  172.8860  144.6280 C   0  0  0  0  0  2  0  0  0  0  0  0
  194.3900  176.0590  145.3700 C   0  0  1  0  0  0  0  0  0  0  0  0
  192.3830  174.6930  142.5370 F   0  0  0  0  0  0  0  0  0  0  0  0
  193.8960  173.4910  143.9680 C   0  0  2  0  0  3  0  0  0  0  0  0
  194.7890  177.3590  145.6750 O   0  0  0  0  0  1  0  0  0  0  0  0
  195.3810  172.4500  145.7410 N   0  0  0  0  0  2  0  0  0  0  0  0
  195.0560  173.6560  144.9620 C   0  0  1  0  0  0  0  0  0  0  0  0
  195.3410  174.9640  145.7100 C   0  0  2  0  0  3  0  0  0  0  0  0
  194.2510  175.2940  146.5440 O   0  0  0  0  0  0  0  0  0  0  0  0
  193.1860  175.8770  144.4470 C   0  0  0  0  0  2  0  0  0  0  0  0
  193.4790  174.8380  143.3690 C   0  0  2  0  0  3  0  0  0  0  0  0
  1  2  1  0  0  0  0
  1 37  1  0  0  0  0
  3  7  1  0  0  0  0
  3  5  1  0  0  0  0
  4 11  1  0  0  0  0
  5  8  1  0  0  0  0
  6 13  2  0  0  0  0
  7 12  1  1  0  0  0
  7 14  1  0  0  0  0
  8  4  2  0  0  0  0
  8  6  1  0  0  0  0
  9  5  2  0  0  0  0
 11 10  2  0  0  0  0
 13 10  1  0  0  0  0
 13 15  1  0  0  0  0
 14  2  1  1  0  0  0
 14  4  1  0  0  0  0
 15 19  1  1  0  0  0
 15 16  1  0  0  0  0
 17 16  1  0  0  0  0
 17 18  1  0  0  0  0
 20 19  1  0  0  0  0
 21 20  2  0  0  0  0
 22 21  1  0  0  0  0
 23 22  1  0  0  0  0
 24 23  1  0  0  0  0
 25 24  1  0  0  0  0
 26  1  1  0  0  0  0
 27 28  1  0  0  0  0
 27 32  1  0  0  0  0
 27 31  1  1  0  0  0
 28 35  1  6  0  0  0
 28 29  1  0  0  0  0
 29 26  1  1  0  0  0
 30 32  1  0  0  0  0
 30 29  1  0  0  0  0
 33 35  1  0  0  0  0
 35 34  1  0  0  0  0
 36 35  1  0  0  0  0
 37 38  1  0  0  0  0
 39 44  1  0  0  0  0
 40 43  1  1  0  0  0
 40 46  1  0  0  0  0
 40 47  1  0  0  0  0
 42 38  1  1  0  0  0
 42 45  1  0  0  0  0
 45 39  1  6  0  0  0
 45 46  1  0  0  0  0
 45 44  1  0  0  0  0
 46 47  1  1  0  0  0
 48 40  1  0  0  0  0
 49 41  1  1  0  0  0
 49 42  1  0  0  0  0
 49 48  1  0  0  0  0
M  END
>  <MODEL>
9

>  <REMARK>
 VINA RESULT:      -6.7      2.366      5.887
  Name = 
  16 active torsions:
  status: ('A' for Active; 'I' for Inactive)
    1  A    between atoms: C_1  and  C_24
    2  A    between atoms: C_1  and  C_31
    3  A    between atoms: O_4  and  C_12
    4  A    between atoms: O_4  and  C_36
    5  A    between atoms: C_8  and  N_23
    6  A    between atoms: C_8  and  C_27
    7  A    between atoms: C_10  and  N_23
    8  A    between atoms: C_10  and  C_47
    9  A    between atoms: C_13  and  N_23
   10  A    between atoms: C_13  and  C_34
   11  A    between atoms: C_15  and  C_38
   12  A    between atoms: C_16  and  C_27
   13  A    between atoms: C_20  and  C_29
   14  A    between atoms: C_24  and  C_38
   15  A    between atoms: C_24  and  C_46
   16  A    between atoms: C_33  and  C_36
                            x       y       z     vdW  Elec       q    Type
                         _______ _______ _______ _____ _____    ______ ____

>  <TORSDO>
F 16

$$$$
