=
 OpenBabel11062420363D

 32 35  0  0  1  0  0  0  0  0999 V2000
  187.8970  174.3730  141.7430 N   0  0  0  0  0  2  0  0  0  0  0  0
  190.9030  172.1550  140.1180 S   0  0  0  0  0  0  0  0  0  0  0  0
  190.5360  170.9630  141.4030 C   0  0  0  0  0  0  0  0  0  0  0  0
  190.9040  176.1390  145.4410 C   0  0  0  0  0  0  0  0  0  0  0  0
  189.3100  173.0250  140.3140 C   0  0  0  0  0  2  0  0  0  0  0  0
  187.6520  175.3450  142.7650 C   0  0  0  0  0  0  0  0  0  0  0  0
  186.5370  175.9270  142.8040 O   0  0  0  0  0  0  0  0  0  0  0  0
  189.9720  171.3900  142.6410 N   0  0  0  0  0  2  0  0  0  0  0  0
  188.8990  172.3780  142.7010 C   0  0  0  0  0  2  0  0  0  0  0  0
  189.1060  173.5550  141.7380 C   0  0  2  0  0  0  0  0  0  0  0  0
  189.6380  176.6460  145.7830 C   0  0  0  0  0  0  0  0  0  0  0  0
  188.7360  175.6650  143.7300 C   0  0  0  0  0  0  0  0  0  0  0  0
  188.5400  176.4100  144.9180 C   0  0  0  0  0  0  0  0  0  0  0  0
  190.8100  169.7490  141.2250 O   0  0  0  0  0  0  0  0  0  0  0  0
  190.3030  174.4170  142.1790 C   0  0  0  0  0  2  0  0  0  0  0  0
  188.1850  177.8670  147.2990 C   0  0  0  0  0  3  0  0  0  0  0  0
  187.2780  176.9110  145.2740 C   0  0  0  0  0  3  0  0  0  0  0  0
  189.4480  177.3760  146.9670 C   0  0  0  0  0  3  0  0  0  0  0  0
  190.0250  175.1700  143.4510 C   0  0  0  0  0  0  0  0  0  0  0  0
  187.0910  177.6350  146.4550 C   0  0  0  0  0  0  0  0  0  0  0  0
  191.0570  175.4250  144.2960 N   0  0  0  0  0  0  0  0  0  0  0  0
  192.0980  176.3380  146.3240 C   0  0  0  0  0  2  0  0  0  0  0  0
  193.0850  175.1870  146.1770 C   0  0  0  0  0  2  0  0  0  0  0  0
  194.5240  175.6700  146.2830 C   0  0  0  0  0  2  0  0  0  0  0  0
  194.5520  177.0590  146.4220 O   0  0  0  0  0  1  0  0  0  0  0  0
  185.8130  178.1110  146.7610 O   0  0  0  0  0  0  0  0  0  0  0  0
  184.6470  177.7150  146.0510 C   0  0  0  0  0  2  0  0  0  0  0  0
  183.9490  178.8510  145.6130 O   0  0  0  0  0  0  0  0  0  0  0  0
  182.8940  179.2750  143.6160 F   0  0  0  0  0  0  0  0  0  0  0  0
  185.0620  179.8820  143.8830 F   0  0  0  0  0  0  0  0  0  0  0  0
  184.0970  178.9440  144.2180 C   0  0  0  0  0  0  0  0  0  0  0  0
  184.5020  177.7160  143.7340 F   0  0  0  0  0  0  0  0  0  0  0  0
  1  6  1  0  0  0  0
  2  5  1  0  0  0  0
  2  3  1  0  0  0  0
  3  8  1  0  0  0  0
  4 11  1  0  0  0  0
  4 22  1  0  0  0  0
  6  7  2  0  0  0  0
  6 12  1  0  0  0  0
  8  9  1  0  0  0  0
 10  5  1  6  0  0  0
 10  1  1  0  0  0  0
 10 15  1  0  0  0  0
 10  9  1  0  0  0  0
 11 18  1  0  0  0  0
 12 13  1  0  0  0  0
 13 17  1  0  0  0  0
 13 11  2  0  0  0  0
 14  3  2  0  0  0  0
 15 19  1  0  0  0  0
 17 20  2  0  0  0  0
 18 16  2  0  0  0  0
 19 12  2  0  0  0  0
 19 21  1  0  0  0  0
 20 26  1  0  0  0  0
 20 16  1  0  0  0  0
 21  4  2  0  0  0  0
 23 24  1  0  0  0  0
 23 22  1  0  0  0  0
 24 25  1  0  0  0  0
 27 26  1  0  0  0  0
 28 27  1  0  0  0  0
 29 31  1  0  0  0  0
 30 31  1  0  0  0  0
 31 28  1  0  0  0  0
 32 31  1  0  0  0  0
M  END
>  <MODEL>
1

>  <REMARK>
 VINA RESULT:      -7.6      0.000      0.000
  Name = 
  7 active torsions:
  status: ('A' for Active; 'I' for Inactive)
    1  A    between atoms: C_6  and  C_8
    2  A    between atoms: C_7  and  O_11
    3  A    between atoms: C_8  and  C_24
    4  A    between atoms: O_11  and  C_16
    5  A    between atoms: C_16  and  O_19
    6  A    between atoms: O_19  and  C_29
    7  A    between atoms: C_20  and  C_24
                            x       y       z     vdW  Elec       q    Type
                         _______ _______ _______ _____ _____    ______ ____

>  <TORSDO>
F 7

$$$$
=
 OpenBabel11062420363D

 32 35  0  0  1  0  0  0  0  0999 V2000
  190.7980  176.4700  146.0390 N   0  0  0  0  0  2  0  0  0  0  0  0
  193.8600  173.8260  145.5500 S   0  0  0  0  0  0  0  0  0  0  0  0
  194.6000  175.0820  144.5100 C   0  0  0  0  0  0  0  0  0  0  0  0
  188.7200  175.2250  141.5700 C   0  0  0  0  0  0  0  0  0  0  0  0
  192.6960  174.9980  146.3300 C   0  0  0  0  0  2  0  0  0  0  0  0
  189.5710  176.8830  145.4290 C   0  0  0  0  0  0  0  0  0  0  0  0
  188.8080  177.6640  146.0550 O   0  0  0  0  0  0  0  0  0  0  0  0
  193.7770  176.0200  143.8180 N   0  0  0  0  0  2  0  0  0  0  0  0
  192.6310  176.6600  144.4550 C   0  0  0  0  0  2  0  0  0  0  0  0
  191.7940  175.6950  145.3060 C   0  0  2  0  0  0  0  0  0  0  0  0
  187.9240  176.2960  142.0100 C   0  0  0  0  0  0  0  0  0  0  0  0
  189.2160  176.3500  144.0880 C   0  0  0  0  0  0  0  0  0  0  0  0
  188.1710  176.8660  143.2840 C   0  0  0  0  0  0  0  0  0  0  0  0
  195.8480  175.1160  144.3630 O   0  0  0  0  0  0  0  0  0  0  0  0
  191.0780  174.6630  144.4150 C   0  0  0  0  0  2  0  0  0  0  0  0
  186.1170  177.8800  141.6500 C   0  0  0  0  0  3  0  0  0  0  0  0
  187.3770  177.9430  143.7100 C   0  0  0  0  0  3  0  0  0  0  0  0
  186.8950  176.8100  141.2060 C   0  0  0  0  0  3  0  0  0  0  0  0
  189.9890  175.2850  143.5850 C   0  0  0  0  0  0  0  0  0  0  0  0
  186.3550  178.4540  142.9060 C   0  0  0  0  0  0  0  0  0  0  0  0
  189.7170  174.7560  142.3650 N   0  0  0  0  0  0  0  0  0  0  0  0
  188.5210  174.5940  140.2260 C   0  0  0  0  0  2  0  0  0  0  0  0
  188.5100  173.0740  140.3290 C   0  0  0  0  0  2  0  0  0  0  0  0
  188.4160  172.4240  138.9570 C   0  0  0  0  0  2  0  0  0  0  0  0
  188.1630  173.3930  137.9850 O   0  0  0  0  0  1  0  0  0  0  0  0
  185.5950  179.5280  143.3780 O   0  0  0  0  0  0  0  0  0  0  0  0
  185.3780  179.7750  144.7610 C   0  0  0  0  0  2  0  0  0  0  0  0
  184.3460  178.9510  145.2340 O   0  0  0  0  0  0  0  0  0  0  0  0
  183.9600  178.4280  147.4390 F   0  0  0  0  0  0  0  0  0  0  0  0
  184.9770  176.9120  146.0950 F   0  0  0  0  0  0  0  0  0  0  0  0
  184.8200  178.2620  146.3650 C   0  0  0  0  0  0  0  0  0  0  0  0
  186.0530  178.7790  146.7120 F   0  0  0  0  0  0  0  0  0  0  0  0
  2  5  1  0  0  0  0
  3  2  1  0  0  0  0
  4 11  2  0  0  0  0
  4 21  1  0  0  0  0
  6  1  1  0  0  0  0
  6  7  2  0  0  0  0
  8  9  1  0  0  0  0
  8  3  1  0  0  0  0
  9 10  1  0  0  0  0
 10 15  1  6  0  0  0
 10  1  1  0  0  0  0
 10  5  1  0  0  0  0
 11 13  1  0  0  0  0
 12  6  1  0  0  0  0
 13 17  1  0  0  0  0
 13 12  2  0  0  0  0
 14  3  2  0  0  0  0
 16 20  1  0  0  0  0
 18 16  2  0  0  0  0
 18 11  1  0  0  0  0
 19 12  1  0  0  0  0
 19 15  1  0  0  0  0
 20 26  1  0  0  0  0
 20 17  2  0  0  0  0
 21 19  2  0  0  0  0
 22 23  1  0  0  0  0
 22  4  1  0  0  0  0
 24 23  1  0  0  0  0
 25 24  1  0  0  0  0
 26 27  1  0  0  0  0
 27 28  1  0  0  0  0
 28 31  1  0  0  0  0
 30 31  1  0  0  0  0
 31 32  1  0  0  0  0
 31 29  1  0  0  0  0
M  END
>  <MODEL>
2

>  <REMARK>
 VINA RESULT:      -7.5      2.541      5.347
  Name = 
  7 active torsions:
  status: ('A' for Active; 'I' for Inactive)
    1  A    between atoms: C_6  and  C_8
    2  A    between atoms: C_7  and  O_11
    3  A    between atoms: C_8  and  C_24
    4  A    between atoms: O_11  and  C_16
    5  A    between atoms: C_16  and  O_19
    6  A    between atoms: O_19  and  C_29
    7  A    between atoms: C_20  and  C_24
                            x       y       z     vdW  Elec       q    Type
                         _______ _______ _______ _____ _____    ______ ____

>  <TORSDO>
F 7

$$$$
=
 OpenBabel11062420363D

 32 35  0  0  1  0  0  0  0  0999 V2000
  190.9640  177.4270  143.0010 N   0  0  0  0  0  2  0  0  0  0  0  0
  193.3770  176.1110  146.0090 S   0  0  0  0  0  0  0  0  0  0  0  0
  192.8050  174.4720  145.5690 C   0  0  0  0  0  0  0  0  0  0  0  0
  186.8100  177.1510  145.9180 C   0  0  0  0  0  0  0  0  0  0  0  0
  192.8290  176.8490  144.4310 C   0  0  0  0  0  2  0  0  0  0  0  0
  189.6120  177.8190  142.7440 C   0  0  0  0  0  0  0  0  0  0  0  0
  189.3280  178.3570  141.6420 O   0  0  0  0  0  0  0  0  0  0  0  0
  191.5230  174.2940  144.9710 N   0  0  0  0  0  2  0  0  0  0  0  0
  191.0300  175.1800  143.9210 C   0  0  0  0  0  2  0  0  0  0  0  0
  191.3270  176.6610  144.1900 C   0  0  2  0  0  0  0  0  0  0  0  0
  186.2970  177.4870  144.6530 C   0  0  0  0  0  0  0  0  0  0  0  0
  188.5870  177.6120  143.8000 C   0  0  0  0  0  0  0  0  0  0  0  0
  187.1930  177.7230  143.5810 C   0  0  0  0  0  0  0  0  0  0  0  0
  193.5240  173.4710  145.8190 O   0  0  0  0  0  0  0  0  0  0  0  0
  190.5100  177.1730  145.3900 C   0  0  0  0  0  2  0  0  0  0  0  0
  184.4150  177.9140  143.1770 C   0  0  0  0  0  3  0  0  0  0  0  0
  186.6700  178.0480  142.3190 C   0  0  0  0  0  3  0  0  0  0  0  0
  184.9130  177.5880  144.4390 C   0  0  0  0  0  3  0  0  0  0  0  0
  189.0400  177.2560  145.0870 C   0  0  0  0  0  0  0  0  0  0  0  0
  185.2920  178.1450  142.1080 C   0  0  0  0  0  0  0  0  0  0  0  0
  188.1530  177.0480  146.0930 N   0  0  0  0  0  0  0  0  0  0  0  0
  185.9130  176.8700  147.0840 C   0  0  0  0  0  2  0  0  0  0  0  0
  186.0250  177.9660  148.1370 C   0  0  0  0  0  2  0  0  0  0  0  0
  185.7460  179.3390  147.5440 C   0  0  0  0  0  2  0  0  0  0  0  0
  186.3590  180.3270  148.3160 O   0  0  0  0  0  1  0  0  0  0  0  0
  184.8240  178.4710  140.8320 O   0  0  0  0  0  0  0  0  0  0  0  0
  183.5430  178.0850  140.3530 C   0  0  0  0  0  2  0  0  0  0  0  0
  182.6370  179.1450  140.5120 O   0  0  0  0  0  0  0  0  0  0  0  0
  181.3950  177.8100  141.9120 F   0  0  0  0  0  0  0  0  0  0  0  0
  180.4170  179.5980  140.9180 F   0  0  0  0  0  0  0  0  0  0  0  0
  181.3670  178.5990  140.7730 C   0  0  0  0  0  0  0  0  0  0  0  0
  181.0000  177.8060  139.7040 F   0  0  0  0  0  0  0  0  0  0  0  0
  1 10  1  0  0  0  0
  3 14  2  0  0  0  0
  3  2  1  0  0  0  0
  4 21  1  0  0  0  0
  4 22  1  0  0  0  0
  5  2  1  0  0  0  0
  6  1  1  0  0  0  0
  6 12  1  0  0  0  0
  7  6  2  0  0  0  0
  8  3  1  0  0  0  0
  9  8  1  0  0  0  0
 10  9  1  6  0  0  0
 10  5  1  0  0  0  0
 10 15  1  0  0  0  0
 11  4  2  0  0  0  0
 12 19  1  0  0  0  0
 13 12  2  0  0  0  0
 13 11  1  0  0  0  0
 16 18  2  0  0  0  0
 17 13  1  0  0  0  0
 18 11  1  0  0  0  0
 19 15  1  0  0  0  0
 19 21  2  0  0  0  0
 20 17  2  0  0  0  0
 20 16  1  0  0  0  0
 22 23  1  0  0  0  0
 24 23  1  0  0  0  0
 24 25  1  0  0  0  0
 26 20  1  0  0  0  0
 27 28  1  0  0  0  0
 27 26  1  0  0  0  0
 28 31  1  0  0  0  0
 31 30  1  0  0  0  0
 31 29  1  0  0  0  0
 32 31  1  0  0  0  0
M  END
>  <MODEL>
3

>  <REMARK>
 VINA RESULT:      -7.2      3.274      5.312
  Name = 
  7 active torsions:
  status: ('A' for Active; 'I' for Inactive)
    1  A    between atoms: C_6  and  C_8
    2  A    between atoms: C_7  and  O_11
    3  A    between atoms: C_8  and  C_24
    4  A    between atoms: O_11  and  C_16
    5  A    between atoms: C_16  and  O_19
    6  A    between atoms: O_19  and  C_29
    7  A    between atoms: C_20  and  C_24
                            x       y       z     vdW  Elec       q    Type
                         _______ _______ _______ _____ _____    ______ ____

>  <TORSDO>
F 7

$$$$
=
 OpenBabel11062420363D

 32 35  0  0  1  0  0  0  0  0999 V2000
  188.3760  174.0340  141.6620 N   0  0  0  0  0  2  0  0  0  0  0  0
  191.0070  171.6100  139.7120 S   0  0  0  0  0  0  0  0  0  0  0  0
  190.6880  170.4350  141.0240 C   0  0  0  0  0  0  0  0  0  0  0  0
  191.8920  175.5160  145.0200 C   0  0  0  0  0  0  0  0  0  0  0  0
  189.5180  172.5990  140.0830 C   0  0  0  0  0  2  0  0  0  0  0  0
  188.3190  175.0090  142.7080 C   0  0  0  0  0  0  0  0  0  0  0  0
  187.2640  175.6750  142.8700 O   0  0  0  0  0  0  0  0  0  0  0  0
  190.2950  170.8890  142.3180 N   0  0  0  0  0  2  0  0  0  0  0  0
  189.3150  171.9560  142.4980 C   0  0  0  0  0  2  0  0  0  0  0  0
  189.5090  173.1250  141.5230 C   0  0  2  0  0  0  0  0  0  0  0  0
  190.7140  176.1150  145.4990 C   0  0  0  0  0  0  0  0  0  0  0  0
  189.5220  175.2330  143.5520 C   0  0  0  0  0  0  0  0  0  0  0  0
  189.5140  175.9750  144.7570 C   0  0  0  0  0  0  0  0  0  0  0  0
  190.8450  169.2050  140.8130 O   0  0  0  0  0  0  0  0  0  0  0  0
  190.8100  173.8870  141.8350 C   0  0  0  0  0  2  0  0  0  0  0  0
  189.5320  177.4250  147.1680 C   0  0  0  0  0  3  0  0  0  0  0  0
  188.3400  176.5690  145.2490 C   0  0  0  0  0  3  0  0  0  0  0  0
  190.7090  176.8420  146.6990 C   0  0  0  0  0  3  0  0  0  0  0  0
  190.7310  174.6430  143.1330 C   0  0  0  0  0  0  0  0  0  0  0  0
  188.3390  177.2900  146.4460 C   0  0  0  0  0  0  0  0  0  0  0  0
  191.8640  174.8070  143.8620 N   0  0  0  0  0  0  0  0  0  0  0  0
  193.1860  175.6100  145.7700 C   0  0  0  0  0  2  0  0  0  0  0  0
  194.1160  176.6330  145.1300 C   0  0  0  0  0  2  0  0  0  0  0  0
  195.2810  175.9590  144.4200 C   0  0  0  0  0  2  0  0  0  0  0  0
  196.1110  176.9220  143.8440 O   0  0  0  0  0  1  0  0  0  0  0  0
  187.1420  177.8600  146.8900 O   0  0  0  0  0  0  0  0  0  0  0  0
  185.9840  177.9700  146.0730 C   0  0  0  0  0  2  0  0  0  0  0  0
  185.7250  179.3210  145.7970 O   0  0  0  0  0  0  0  0  0  0  0  0
  184.3680  178.8510  144.0030 F   0  0  0  0  0  0  0  0  0  0  0  0
  185.5380  180.7930  144.0370 F   0  0  0  0  0  0  0  0  0  0  0  0
  185.5460  179.4570  144.4090 C   0  0  0  0  0  0  0  0  0  0  0  0
  186.5980  178.8360  143.7650 F   0  0  0  0  0  0  0  0  0  0  0  0
  1  6  1  0  0  0  0
  2  5  1  0  0  0  0
  2  3  1  0  0  0  0
  3  8  1  0  0  0  0
  4 11  1  0  0  0  0
  4 22  1  0  0  0  0
  6  7  2  0  0  0  0
  6 12  1  0  0  0  0
  8  9  1  0  0  0  0
 10  5  1  6  0  0  0
 10  1  1  0  0  0  0
 10 15  1  0  0  0  0
 10  9  1  0  0  0  0
 11 18  1  0  0  0  0
 12 13  1  0  0  0  0
 13 17  1  0  0  0  0
 13 11  2  0  0  0  0
 14  3  2  0  0  0  0
 15 19  1  0  0  0  0
 17 20  2  0  0  0  0
 18 16  2  0  0  0  0
 19 12  2  0  0  0  0
 19 21  1  0  0  0  0
 20 26  1  0  0  0  0
 20 16  1  0  0  0  0
 21  4  2  0  0  0  0
 23 22  1  0  0  0  0
 24 23  1  0  0  0  0
 25 24  1  0  0  0  0
 27 26  1  0  0  0  0
 28 27  1  0  0  0  0
 29 31  1  0  0  0  0
 30 31  1  0  0  0  0
 31 28  1  0  0  0  0
 32 31  1  0  0  0  0
M  END
>  <MODEL>
4

>  <REMARK>
 VINA RESULT:      -7.2      1.166      1.339
  Name = 
  7 active torsions:
  status: ('A' for Active; 'I' for Inactive)
    1  A    between atoms: C_6  and  C_8
    2  A    between atoms: C_7  and  O_11
    3  A    between atoms: C_8  and  C_24
    4  A    between atoms: O_11  and  C_16
    5  A    between atoms: C_16  and  O_19
    6  A    between atoms: O_19  and  C_29
    7  A    between atoms: C_20  and  C_24
                            x       y       z     vdW  Elec       q    Type
                         _______ _______ _______ _____ _____    ______ ____

>  <TORSDO>
F 7

$$$$
=
 OpenBabel11062420363D

 32 35  0  0  1  0  0  0  0  0999 V2000
  189.9710  172.0560  141.9110 N   0  0  0  0  0  2  0  0  0  0  0  0
  189.5660  172.0590  137.8560 S   0  0  0  0  0  0  0  0  0  0  0  0
  191.1180  172.9520  137.8380 C   0  0  0  0  0  0  0  0  0  0  0  0
  188.2330  176.8160  142.3070 C   0  0  0  0  0  0  0  0  0  0  0  0
  189.7970  171.4700  139.5690 C   0  0  0  0  0  2  0  0  0  0  0  0
  189.6830  172.8550  143.0630 C   0  0  0  0  0  0  0  0  0  0  0  0
  189.8330  172.3560  144.2090 O   0  0  0  0  0  0  0  0  0  0  0  0
  191.4970  173.7610  138.9500 N   0  0  0  0  0  2  0  0  0  0  0  0
  191.3150  173.3150  140.3270 C   0  0  0  0  0  2  0  0  0  0  0  0
  189.9660  172.6220  140.5660 C   0  0  2  0  0  0  0  0  0  0  0  0
  188.6230  176.5030  143.6210 C   0  0  0  0  0  0  0  0  0  0  0  0
  189.1810  174.2400  142.8730 C   0  0  0  0  0  0  0  0  0  0  0  0
  189.1000  175.2000  143.9110 C   0  0  0  0  0  0  0  0  0  0  0  0
  191.8620  172.8910  136.8250 O   0  0  0  0  0  0  0  0  0  0  0  0
  188.8070  173.6280  140.4430 C   0  0  0  0  0  2  0  0  0  0  0  0
  188.9460  177.1400  145.9430 C   0  0  0  0  0  3  0  0  0  0  0  0
  189.4960  174.9000  145.2240 C   0  0  0  0  0  3  0  0  0  0  0  0
  188.5490  177.4610  144.6450 C   0  0  0  0  0  3  0  0  0  0  0  0
  188.7910  174.6200  141.5730 C   0  0  0  0  0  0  0  0  0  0  0  0
  189.4240  175.8570  146.2400 C   0  0  0  0  0  0  0  0  0  0  0  0
  188.3270  175.8730  141.3340 N   0  0  0  0  0  0  0  0  0  0  0  0
  187.7400  178.1810  141.9350 C   0  0  0  0  0  2  0  0  0  0  0  0
  186.2650  178.1460  141.5550 C   0  0  0  0  0  2  0  0  0  0  0  0
  185.3730  178.3940  142.7620 C   0  0  0  0  0  2  0  0  0  0  0  0
  185.7740  179.5580  143.4210 O   0  0  0  0  0  1  0  0  0  0  0  0
  189.8320  175.5060  147.5300 O   0  0  0  0  0  0  0  0  0  0  0  0
  191.1980  175.4170  147.9150 C   0  0  0  0  0  2  0  0  0  0  0  0
  191.8570  176.6170  147.6060 O   0  0  0  0  0  0  0  0  0  0  0  0
  192.5620  176.7390  145.4220 F   0  0  0  0  0  0  0  0  0  0  0  0
  194.0800  176.9260  147.0960 F   0  0  0  0  0  0  0  0  0  0  0  0
  192.8940  176.3250  146.7020 C   0  0  0  0  0  0  0  0  0  0  0  0
  193.0890  174.9580  146.6800 F   0  0  0  0  0  0  0  0  0  0  0  0
  1  6  1  0  0  0  0
  2  5  1  0  0  0  0
  3  2  1  0  0  0  0
  3  8  1  0  0  0  0
  4 11  1  0  0  0  0
  6  7  2  0  0  0  0
  8  9  1  0  0  0  0
  9 10  1  0  0  0  0
 10  5  1  6  0  0  0
 10  1  1  0  0  0  0
 11 13  2  0  0  0  0
 11 18  1  0  0  0  0
 12  6  1  0  0  0  0
 12 13  1  0  0  0  0
 13 17  1  0  0  0  0
 14  3  2  0  0  0  0
 15 10  1  0  0  0  0
 15 19  1  0  0  0  0
 16 20  1  0  0  0  0
 17 20  2  0  0  0  0
 18 16  2  0  0  0  0
 19 12  2  0  0  0  0
 20 26  1  0  0  0  0
 21 19  1  0  0  0  0
 21  4  2  0  0  0  0
 22  4  1  0  0  0  0
 23 22  1  0  0  0  0
 23 24  1  0  0  0  0
 24 25  1  0  0  0  0
 26 27  1  0  0  0  0
 28 27  1  0  0  0  0
 29 31  1  0  0  0  0
 31 30  1  0  0  0  0
 31 28  1  0  0  0  0
 32 31  1  0  0  0  0
M  END
>  <MODEL>
5

>  <REMARK>
 VINA RESULT:      -7.0      3.706      5.778
  Name = 
  7 active torsions:
  status: ('A' for Active; 'I' for Inactive)
    1  A    between atoms: C_6  and  C_8
    2  A    between atoms: C_7  and  O_11
    3  A    between atoms: C_8  and  C_24
    4  A    between atoms: O_11  and  C_16
    5  A    between atoms: C_16  and  O_19
    6  A    between atoms: O_19  and  C_29
    7  A    between atoms: C_20  and  C_24
                            x       y       z     vdW  Elec       q    Type
                         _______ _______ _______ _____ _____    ______ ____

>  <TORSDO>
F 7

$$$$
=
 OpenBabel11062420363D

 32 35  0  0  1  0  0  0  0  0999 V2000
  188.2180  175.1390  140.6730 N   0  0  0  0  0  2  0  0  0  0  0  0
  191.4110  172.6380  141.0630 S   0  0  0  0  0  0  0  0  0  0  0  0
  190.2370  171.4620  141.7300 C   0  0  0  0  0  0  0  0  0  0  0  0
  188.3700  176.4540  145.5810 C   0  0  0  0  0  0  0  0  0  0  0  0
  190.1120  173.6780  140.3100 C   0  0  0  0  0  2  0  0  0  0  0  0
  187.4590  176.1040  141.4080 C   0  0  0  0  0  0  0  0  0  0  0  0
  186.6090  176.8080  140.8020 O   0  0  0  0  0  0  0  0  0  0  0  0
  189.0550  171.9170  142.3850 N   0  0  0  0  0  2  0  0  0  0  0  0
  188.2540  173.0180  141.8580 C   0  0  0  0  0  2  0  0  0  0  0  0
  189.1020  174.1890  141.3430 C   0  0  2  0  0  0  0  0  0  0  0  0
  187.2090  177.0910  145.1110 C   0  0  0  0  0  0  0  0  0  0  0  0
  187.7210  176.2740  142.8610 C   0  0  0  0  0  0  0  0  0  0  0  0
  186.8790  177.0040  143.7350 C   0  0  0  0  0  0  0  0  0  0  0  0
  190.4730  170.2290  141.6490 O   0  0  0  0  0  0  0  0  0  0  0  0
  189.8180  174.8980  142.5060 C   0  0  0  0  0  2  0  0  0  0  0  0
  185.2200  178.4280  145.5060 C   0  0  0  0  0  3  0  0  0  0  0  0
  185.7120  177.6360  143.2770 C   0  0  0  0  0  3  0  0  0  0  0  0
  186.3740  177.8060  145.9830 C   0  0  0  0  0  3  0  0  0  0  0  0
  188.8620  175.6440  143.3960 C   0  0  0  0  0  0  0  0  0  0  0  0
  184.8810  178.3440  144.1490 C   0  0  0  0  0  0  0  0  0  0  0  0
  189.1540  175.7580  144.7170 N   0  0  0  0  0  0  0  0  0  0  0  0
  188.7610  176.4920  147.0270 C   0  0  0  0  0  2  0  0  0  0  0  0
  190.0350  177.3040  147.2290 C   0  0  0  0  0  2  0  0  0  0  0  0
  191.2690  176.4140  147.2210 C   0  0  0  0  0  2  0  0  0  0  0  0
  191.0530  175.2900  148.0210 O   0  0  0  0  0  1  0  0  0  0  0  0
  183.7300  178.9540  143.6400 O   0  0  0  0  0  0  0  0  0  0  0  0
  183.1630  178.6130  142.3820 C   0  0  0  0  0  2  0  0  0  0  0  0
  181.7760  178.8160  142.4150 O   0  0  0  0  0  0  0  0  0  0  0  0
  180.9290  179.7910  140.5150 F   0  0  0  0  0  0  0  0  0  0  0  0
  182.1910  177.9160  140.3380 F   0  0  0  0  0  0  0  0  0  0  0  0
  181.2700  178.5940  141.1220 C   0  0  0  0  0  0  0  0  0  0  0  0
  180.1320  177.8170  141.2210 F   0  0  0  0  0  0  0  0  0  0  0  0
  1 10  1  0  0  0  0
  1  6  1  0  0  0  0
  2  3  1  0  0  0  0
  3  8  1  0  0  0  0
  4 22  1  0  0  0  0
  5  2  1  0  0  0  0
  6 12  1  0  0  0  0
  7  6  2  0  0  0  0
  9  8  1  0  0  0  0
 10  5  1  6  0  0  0
 10  9  1  0  0  0  0
 10 15  1  0  0  0  0
 11  4  1  0  0  0  0
 11 18  1  0  0  0  0
 12 19  2  0  0  0  0
 12 13  1  0  0  0  0
 13 11  2  0  0  0  0
 14  3  2  0  0  0  0
 15 19  1  0  0  0  0
 16 18  2  0  0  0  0
 17 13  1  0  0  0  0
 17 20  2  0  0  0  0
 19 21  1  0  0  0  0
 20 16  1  0  0  0  0
 21  4  2  0  0  0  0
 22 23  1  0  0  0  0
 24 23  1  0  0  0  0
 24 25  1  0  0  0  0
 26 20  1  0  0  0  0
 27 28  1  0  0  0  0
 27 26  1  0  0  0  0
 29 31  1  0  0  0  0
 30 31  1  0  0  0  0
 31 32  1  0  0  0  0
 31 28  1  0  0  0  0
M  END
>  <MODEL>
6

>  <REMARK>
 VINA RESULT:      -6.9      2.105      2.886
  Name = 
  7 active torsions:
  status: ('A' for Active; 'I' for Inactive)
    1  A    between atoms: C_6  and  C_8
    2  A    between atoms: C_7  and  O_11
    3  A    between atoms: C_8  and  C_24
    4  A    between atoms: O_11  and  C_16
    5  A    between atoms: C_16  and  O_19
    6  A    between atoms: O_19  and  C_29
    7  A    between atoms: C_20  and  C_24
                            x       y       z     vdW  Elec       q    Type
                         _______ _______ _______ _____ _____    ______ ____

>  <TORSDO>
F 7

$$$$
=
 OpenBabel11062420363D

 32 35  0  0  1  0  0  0  0  0999 V2000
  188.8880  176.5030  141.6880 N   0  0  0  0  0  2  0  0  0  0  0  0
  191.9740  176.1250  144.3210 S   0  0  0  0  0  0  0  0  0  0  0  0
  191.0800  174.7100  144.9580 C   0  0  0  0  0  0  0  0  0  0  0  0
  185.9500  178.8200  145.1280 C   0  0  0  0  0  0  0  0  0  0  0  0
  191.0310  176.1580  142.7580 C   0  0  0  0  0  2  0  0  0  0  0  0
  187.5910  177.0950  141.5650 C   0  0  0  0  0  0  0  0  0  0  0  0
  187.0280  177.1100  140.4390 O   0  0  0  0  0  0  0  0  0  0  0  0
  189.6590  174.6460  144.8440 N   0  0  0  0  0  2  0  0  0  0  0  0
  188.9640  175.0350  143.6220 C   0  0  0  0  0  2  0  0  0  0  0  0
  189.5240  176.3160  142.9880 C   0  0  2  0  0  0  0  0  0  0  0  0
  185.0910  178.6550  144.0270 C   0  0  0  0  0  0  0  0  0  0  0  0
  186.9610  177.7080  142.7630 C   0  0  0  0  0  0  0  0  0  0  0  0
  185.6000  178.0950  142.8290 C   0  0  0  0  0  0  0  0  0  0  0  0
  191.7040  173.7860  145.5390 O   0  0  0  0  0  0  0  0  0  0  0  0
  189.2300  177.5380  143.8770 C   0  0  0  0  0  2  0  0  0  0  0  0
  182.8980  178.8560  143.0030 C   0  0  0  0  0  3  0  0  0  0  0  0
  184.7330  177.9250  141.7380 C   0  0  0  0  0  3  0  0  0  0  0  0
  183.7420  179.0330  144.1000 C   0  0  0  0  0  3  0  0  0  0  0  0
  187.7670  177.8840  143.9050 C   0  0  0  0  0  0  0  0  0  0  0  0
  183.3880  178.2990  141.8150 C   0  0  0  0  0  0  0  0  0  0  0  0
  187.2490  178.4340  145.0330 N   0  0  0  0  0  0  0  0  0  0  0  0
  185.4660  179.3870  146.4280 C   0  0  0  0  0  2  0  0  0  0  0  0
  184.8980  178.2940  147.3240 C   0  0  0  0  0  2  0  0  0  0  0  0
  185.9880  177.6340  148.1560 C   0  0  0  0  0  2  0  0  0  0  0  0
  186.4070  176.4520  147.5420 O   0  0  0  0  0  1  0  0  0  0  0  0
  182.5680  178.1070  140.7000 O   0  0  0  0  0  0  0  0  0  0  0  0
  181.2560  178.6460  140.6000 C   0  0  0  0  0  2  0  0  0  0  0  0
  180.3630  177.8620  141.3450 O   0  0  0  0  0  0  0  0  0  0  0  0
  178.2280  177.1530  140.8720 F   0  0  0  0  0  0  0  0  0  0  0  0
  178.5340  179.1100  141.9750 F   0  0  0  0  0  0  0  0  0  0  0  0
  179.0540  178.2570  141.0140 C   0  0  0  0  0  0  0  0  0  0  0  0
  179.0880  178.9320  139.8100 F   0  0  0  0  0  0  0  0  0  0  0  0
  1 10  1  0  0  0  0
  2  3  1  0  0  0  0
  3 14  2  0  0  0  0
  4 22  1  0  0  0  0
  5  2  1  0  0  0  0
  6  1  1  0  0  0  0
  6 12  1  0  0  0  0
  7  6  2  0  0  0  0
  8  3  1  0  0  0  0
  9  8  1  0  0  0  0
 10  5  1  6  0  0  0
 10  9  1  0  0  0  0
 10 15  1  0  0  0  0
 11 18  1  0  0  0  0
 11  4  2  0  0  0  0
 12 13  2  0  0  0  0
 12 19  1  0  0  0  0
 13 11  1  0  0  0  0
 15 19  1  0  0  0  0
 16 18  2  0  0  0  0
 17 20  2  0  0  0  0
 17 13  1  0  0  0  0
 19 21  2  0  0  0  0
 20 16  1  0  0  0  0
 21  4  1  0  0  0  0
 22 23  1  0  0  0  0
 23 24  1  0  0  0  0
 25 24  1  0  0  0  0
 26 20  1  0  0  0  0
 27 26  1  0  0  0  0
 27 28  1  0  0  0  0
 29 31  1  0  0  0  0
 31 28  1  0  0  0  0
 31 30  1  0  0  0  0
 32 31  1  0  0  0  0
M  END
>  <MODEL>
7

>  <REMARK>
 VINA RESULT:      -6.7      3.403      5.620
  Name = 
  7 active torsions:
  status: ('A' for Active; 'I' for Inactive)
    1  A    between atoms: C_6  and  C_8
    2  A    between atoms: C_7  and  O_11
    3  A    between atoms: C_8  and  C_24
    4  A    between atoms: O_11  and  C_16
    5  A    between atoms: C_16  and  O_19
    6  A    between atoms: O_19  and  C_29
    7  A    between atoms: C_20  and  C_24
                            x       y       z     vdW  Elec       q    Type
                         _______ _______ _______ _____ _____    ______ ____

>  <TORSDO>
F 7

$$$$
=
 OpenBabel11062420363D

 32 35  0  0  1  0  0  0  0  0999 V2000
  192.6180  176.4100  146.0140 N   0  0  0  0  0  2  0  0  0  0  0  0
  196.0870  174.3530  145.4370 S   0  0  0  0  0  0  0  0  0  0  0  0
  196.2920  175.3740  143.9810 C   0  0  0  0  0  0  0  0  0  0  0  0
  190.1160  173.5780  142.6140 C   0  0  0  0  0  0  0  0  0  0  0  0
  194.8380  175.4610  146.1750 C   0  0  0  0  0  2  0  0  0  0  0  0
  191.2360  176.3970  145.6420 C   0  0  0  0  0  0  0  0  0  0  0  0
  190.4340  177.1680  146.2300 O   0  0  0  0  0  0  0  0  0  0  0  0
  195.1530  175.9060  143.3070 N   0  0  0  0  0  2  0  0  0  0  0  0
  194.0230  176.4770  144.0330 C   0  0  0  0  0  2  0  0  0  0  0  0
  193.6190  175.6560  145.2660 C   0  0  2  0  0  0  0  0  0  0  0  0
  189.1790  174.5640  142.9670 C   0  0  0  0  0  0  0  0  0  0  0  0
  190.7800  175.4470  144.5940 C   0  0  0  0  0  0  0  0  0  0  0  0
  189.5100  175.5090  143.9700 C   0  0  0  0  0  0  0  0  0  0  0  0
  197.4450  175.5960  143.5300 O   0  0  0  0  0  0  0  0  0  0  0  0
  193.0240  174.2990  144.8480 C   0  0  0  0  0  2  0  0  0  0  0  0
  187.0060  175.6150  142.6930 C   0  0  0  0  0  3  0  0  0  0  0  0
  188.5710  176.4960  144.3080 C   0  0  0  0  0  3  0  0  0  0  0  0
  187.9250  174.6270  142.3390 C   0  0  0  0  0  3  0  0  0  0  0  0
  191.6820  174.4450  144.1850 C   0  0  0  0  0  0  0  0  0  0  0  0
  187.3250  176.5570  143.6790 C   0  0  0  0  0  0  0  0  0  0  0  0
  191.3270  173.5490  143.2300 N   0  0  0  0  0  0  0  0  0  0  0  0
  189.8320  172.5650  141.5480 C   0  0  0  0  0  2  0  0  0  0  0  0
  190.1000  171.1510  142.0500 C   0  0  0  0  0  2  0  0  0  0  0  0
  190.9610  170.3670  141.0710 C   0  0  0  0  0  2  0  0  0  0  0  0
  191.1230  171.0920  139.8890 O   0  0  0  0  0  1  0  0  0  0  0  0
  186.4270  177.5610  144.0530 O   0  0  0  0  0  0  0  0  0  0  0  0
  185.6320  177.4920  145.2300 C   0  0  0  0  0  2  0  0  0  0  0  0
  186.0690  178.4510  146.1560 O   0  0  0  0  0  0  0  0  0  0  0  0
  187.8050  178.1380  147.6290 F   0  0  0  0  0  0  0  0  0  0  0  0
  185.6690  178.0400  148.3850 F   0  0  0  0  0  0  0  0  0  0  0  0
  186.5060  177.7770  147.3110 C   0  0  0  0  0  0  0  0  0  0  0  0
  186.4790  176.4190  147.0650 F   0  0  0  0  0  0  0  0  0  0  0  0
  2  5  1  0  0  0  0
  3  2  1  0  0  0  0
  4 11  2  0  0  0  0
  4 21  1  0  0  0  0
  6  1  1  0  0  0  0
  6  7  2  0  0  0  0
  8  3  1  0  0  0  0
  8  9  1  0  0  0  0
 10  9  1  6  0  0  0
 10  1  1  0  0  0  0
 10  5  1  0  0  0  0
 11 13  1  0  0  0  0
 12  6  1  0  0  0  0
 13 17  1  0  0  0  0
 13 12  2  0  0  0  0
 14  3  2  0  0  0  0
 15 10  1  0  0  0  0
 16 20  1  0  0  0  0
 18 16  2  0  0  0  0
 18 11  1  0  0  0  0
 19 12  1  0  0  0  0
 19 15  1  0  0  0  0
 20 26  1  0  0  0  0
 20 17  2  0  0  0  0
 21 19  2  0  0  0  0
 22 23  1  0  0  0  0
 22  4  1  0  0  0  0
 24 23  1  0  0  0  0
 25 24  1  0  0  0  0
 26 27  1  0  0  0  0
 27 28  1  0  0  0  0
 28 31  1  0  0  0  0
 31 29  1  0  0  0  0
 31 30  1  0  0  0  0
 32 31  1  0  0  0  0
M  END
>  <MODEL>
8

>  <REMARK>
 VINA RESULT:      -6.7      2.705      5.545
  Name = 
  7 active torsions:
  status: ('A' for Active; 'I' for Inactive)
    1  A    between atoms: C_6  and  C_8
    2  A    between atoms: C_7  and  O_11
    3  A    between atoms: C_8  and  C_24
    4  A    between atoms: O_11  and  C_16
    5  A    between atoms: C_16  and  O_19
    6  A    between atoms: O_19  and  C_29
    7  A    between atoms: C_20  and  C_24
                            x       y       z     vdW  Elec       q    Type
                         _______ _______ _______ _____ _____    ______ ____

>  <TORSDO>
F 7

$$$$
=
 OpenBabel11062420363D

 32 35  0  0  1  0  0  0  0  0999 V2000
  188.6160  174.6060  140.9180 N   0  0  0  0  0  2  0  0  0  0  0  0
  191.2620  172.7760  138.4160 S   0  0  0  0  0  0  0  0  0  0  0  0
  190.7540  171.2540  139.2110 C   0  0  0  0  0  0  0  0  0  0  0  0
  191.8960  174.5250  144.8000 C   0  0  0  0  0  0  0  0  0  0  0  0
  189.8070  173.7050  139.0130 C   0  0  0  0  0  2  0  0  0  0  0  0
  188.5240  175.1620  142.2330 C   0  0  0  0  0  0  0  0  0  0  0  0
  187.5010  175.8230  142.5490 O   0  0  0  0  0  0  0  0  0  0  0  0
  190.2730  171.2690  140.5540 N   0  0  0  0  0  2  0  0  0  0  0  0
  189.3480  172.2920  141.0320 C   0  0  0  0  0  2  0  0  0  0  0  0
  189.7000  173.7030  140.5430 C   0  0  2  0  0  0  0  0  0  0  0  0
  190.7180  175.0240  145.3820 C   0  0  0  0  0  0  0  0  0  0  0  0
  189.6570  174.9750  143.1770 C   0  0  0  0  0  0  0  0  0  0  0  0
  189.5850  175.2550  144.5630 C   0  0  0  0  0  0  0  0  0  0  0  0
  190.8540  170.1630  138.5940 O   0  0  0  0  0  0  0  0  0  0  0  0
  191.0120  174.1920  141.1840 C   0  0  0  0  0  2  0  0  0  0  0  0
  189.4710  175.7810  147.3240 C   0  0  0  0  0  3  0  0  0  0  0  0
  188.4090  175.7450  145.1550 C   0  0  0  0  0  3  0  0  0  0  0  0
  190.6490  175.2930  146.7580 C   0  0  0  0  0  3  0  0  0  0  0  0
  190.8610  174.4600  142.6560 C   0  0  0  0  0  0  0  0  0  0  0  0
  188.3430  176.0080  146.5260 C   0  0  0  0  0  0  0  0  0  0  0  0
  191.9310  174.2620  143.4680 N   0  0  0  0  0  0  0  0  0  0  0  0
  193.1200  174.2410  145.6160 C   0  0  0  0  0  2  0  0  0  0  0  0
  194.3870  174.5610  144.8330 C   0  0  0  0  0  2  0  0  0  0  0  0
  195.0310  175.8510  145.3180 C   0  0  0  0  0  2  0  0  0  0  0  0
  195.5310  176.5730  144.2330 O   0  0  0  0  0  1  0  0  0  0  0  0
  187.1480  176.4940  147.0640 O   0  0  0  0  0  0  0  0  0  0  0  0
  186.8440  177.8800  147.1530 C   0  0  0  0  0  2  0  0  0  0  0  0
  186.0430  178.2610  146.0650 O   0  0  0  0  0  0  0  0  0  0  0  0
  184.4750  178.6800  147.6930 F   0  0  0  0  0  0  0  0  0  0  0  0
  183.8540  178.7080  145.5130 F   0  0  0  0  0  0  0  0  0  0  0  0
  184.6960  178.1210  146.4450 C   0  0  0  0  0  0  0  0  0  0  0  0
  184.3940  176.7750  146.5120 F   0  0  0  0  0  0  0  0  0  0  0  0
  1  6  1  0  0  0  0
  2  5  1  0  0  0  0
  2  3  1  0  0  0  0
  3  8  1  0  0  0  0
  4 11  1  0  0  0  0
  4 22  1  0  0  0  0
  6  7  2  0  0  0  0
  6 12  1  0  0  0  0
  8  9  1  0  0  0  0
 10  5  1  6  0  0  0
 10  1  1  0  0  0  0
 10  9  1  0  0  0  0
 10 15  1  0  0  0  0
 11 18  1  0  0  0  0
 12 13  1  0  0  0  0
 13 17  1  0  0  0  0
 13 11  2  0  0  0  0
 14  3  2  0  0  0  0
 15 19  1  0  0  0  0
 17 20  2  0  0  0  0
 18 16  2  0  0  0  0
 19 12  2  0  0  0  0
 19 21  1  0  0  0  0
 20 26  1  0  0  0  0
 20 16  1  0  0  0  0
 21  4  2  0  0  0  0
 23 24  1  0  0  0  0
 23 22  1  0  0  0  0
 25 24  1  0  0  0  0
 26 27  1  0  0  0  0
 28 31  1  0  0  0  0
 28 27  1  0  0  0  0
 30 31  1  0  0  0  0
 31 32  1  0  0  0  0
 31 29  1  0  0  0  0
M  END
>  <MODEL>
9

>  <REMARK>
 VINA RESULT:      -6.6      1.719      2.088
  Name = 
  7 active torsions:
  status: ('A' for Active; 'I' for Inactive)
    1  A    between atoms: C_6  and  C_8
    2  A    between atoms: C_7  and  O_11
    3  A    between atoms: C_8  and  C_24
    4  A    between atoms: O_11  and  C_16
    5  A    between atoms: C_16  and  O_19
    6  A    between atoms: O_19  and  C_29
    7  A    between atoms: C_20  and  C_24
                            x       y       z     vdW  Elec       q    Type
                         _______ _______ _______ _____ _____    ______ ____

>  <TORSDO>
F 7

$$$$
