=
 OpenBabel11062422103D

 44 49  0  0  1  0  0  0  0  0999 V2000
  192.8750  176.0290  144.0870 C   0  0  1  0  0  3  0  0  0  0  0  0
  193.5430  173.7750  144.5710 C   0  0  1  0  0  3  0  0  0  0  0  0
  191.7390  175.0320  144.0430 C   0  0  1  0  0  3  0  0  0  0  0  0
  194.0840  175.1620  144.2720 C   0  0  1  0  0  0  0  0  0  0  0  0
  192.1390  173.8140  144.6230 O   0  0  0  0  0  0  0  0  0  0  0  0
  193.8140  175.7900  142.9170 C   0  0  0  0  0  2  0  0  0  0  0  0
  188.1160  176.7940  144.7930 C   0  0  1  0  0  3  0  0  0  0  0  0
  187.0910  177.6750  144.1330 C   0  0  2  0  0  3  0  0  0  0  0  0
  189.4600  176.5460  143.5840 S   0  0  0  0  0  0  0  0  0  0  0  0
  185.8860  179.2840  147.8170 O   0  0  0  0  0  0  0  0  0  0  0  0
  186.0590  175.8030  142.9270 O   0  0  0  0  0  1  0  0  0  0  0  0
  190.9070  176.4790  145.8930 C   0  0  0  0  0  2  0  0  0  0  0  0
  186.3160  178.6110  146.8430 C   0  0  0  0  0  0  0  0  0  0  0  0
  185.5080  178.5760  145.5590 C   0  0  1  0  0  3  0  0  0  0  0  0
  189.7070  176.7670  146.7810 C   0  0  1  0  0  3  0  0  0  0  0  0
  185.8200  177.2760  144.8650 C   0  0  1  0  0  3  0  0  0  0  0  0
  190.4980  175.5900  144.7350 C   0  0  2  0  0  3  0  0  0  0  0  0
  187.5420  177.8630  147.0190 N   0  0  0  0  0  2  0  0  0  0  0  0
  190.1400  177.4810  147.9010 O   0  0  0  0  0  1  0  0  0  0  0  0
  184.0170  178.6320  145.8460 C   0  0  0  0  0  1  0  0  0  0  0  0
  188.6140  177.5560  146.0490 C   0  0  2  0  0  3  0  0  0  0  0  0
  185.9190  177.1220  143.3630 C   0  0  1  0  0  0  0  0  0  0  0  0
  185.1080  178.0840  142.5050 C   0  0  0  0  0  2  0  0  0  0  0  0
  184.6360  177.9550  140.1740 O   0  0  0  0  0  0  0  0  0  0  0  0
  185.5150  177.9860  141.0730 C   0  0  0  0  0  0  0  0  0  0  0  0
  186.8590  177.9430  140.7280 O   0  0  0  0  0  1  0  0  0  0  0  0
  194.9190  175.4070  146.5200 F   0  0  0  0  0  0  0  0  0  0  0  0
  195.1250  175.7880  145.2040 C   0  0  0  0  0  0  0  0  0  0  0  0
  196.3930  175.3940  144.8160 F   0  0  0  0  0  0  0  0  0  0  0  0
  195.0360  177.1650  145.1210 F   0  0  0  0  0  0  0  0  0  0  0  0
  194.0800  172.5710  143.3350 S   0  0  1  0  0  0  0  0  0  0  0  0
  195.1060  171.7150  144.0620 O   0  0  0  0  0  0  0  0  0  0  0  0
  192.6970  171.5030  143.1840 N   0  0  0  0  0  2  0  0  0  0  0  0
  192.3620  170.5340  140.9400 C   0  0  0  0  0  3  0  0  0  0  0  0
  191.6150  170.4430  139.7630 C   0  0  0  0  0  3  0  0  0  0  0  0
  190.7720  172.1270  141.8250 C   0  0  0  0  0  3  0  0  0  0  0  0
  190.0170  172.0450  140.6470 C   0  0  0  0  0  0  0  0  0  0  0  0
  190.4460  171.1960  139.6170 C   0  0  0  0  0  3  0  0  0  0  0  0
  191.9430  171.3780  141.9770 C   0  0  0  0  0  0  0  0  0  0  0  0
  188.7940  172.8460  140.4960 C   0  0  0  0  0  0  0  0  0  0  0  0
  188.3390  173.4940  141.4790 O   0  0  0  0  0  0  0  0  0  0  0  0
  188.1360  172.8760  139.2630 O   0  0  0  0  0  0  0  0  0  0  0  0
  188.2310  173.9670  138.4040 C   0  0  0  0  0  3  0  0  0  0  0  0
  189.1840  174.0240  137.5360 N   0  0  0  0  0  2  0  0  0  0  0  0
  1  6  1  6  0  0  0
  1  4  1  0  0  0  0
  2 31  1  6  0  0  0
  2  5  1  0  0  0  0
  3  1  1  0  0  0  0
  3  5  1  1  0  0  0
  3 17  1  0  0  0  0
  4  2  1  0  0  0  0
  4 28  1  1  0  0  0
  6  4  1  0  0  0  0
  7  9  1  6  0  0  0
  7 21  1  0  0  0  0
  8  7  1  0  0  0  0
  8 16  1  0  0  0  0
  9 17  1  0  0  0  0
 11 22  1  0  0  0  0
 12 15  1  0  0  0  0
 13 18  1  0  0  0  0
 13 10  2  0  0  0  0
 14 20  1  0  0  0  0
 14 13  1  0  0  0  0
 15 19  1  0  0  0  0
 16 14  1  0  0  0  0
 17 12  1  0  0  0  0
 21 15  1  0  0  0  0
 21 18  1  0  0  0  0
 22  8  1  0  0  0  0
 22 16  1  0  0  0  0
 23 22  1  0  0  0  0
 24 25  2  0  0  0  0
 25 23  1  0  0  0  0
 26 25  1  0  0  0  0
 28 27  1  0  0  0  0
 29 28  1  0  0  0  0
 30 28  1  0  0  0  0
 31 32  2  0  0  0  0
 33 31  1  0  0  0  0
 34 39  1  0  0  0  0
 35 34  2  0  0  0  0
 36 39  2  0  0  0  0
 37 36  1  0  0  0  0
 38 35  1  0  0  0  0
 38 37  2  0  0  0  0
 39 33  1  0  0  0  0
 40 37  1  0  0  0  0
 40 41  2  0  0  0  0
 42 40  1  0  0  0  0
 43 42  1  0  0  0  0
 44 43  2  0  0  0  0
M  END
>  <MODEL>
1

>  <REMARK>
 VINA RESULT:      -8.1      0.000      0.000
  Name = 
  10 active torsions:
  status: ('A' for Active; 'I' for Inactive)
    1  A    between atoms: C_2  and  S_28
    2  A    between atoms: O_4  and  C_11
    3  A    between atoms: O_4  and  C_19
    4  A    between atoms: C_11  and  C_32
    5  A    between atoms: C_13  and  C_26
    6  A    between atoms: C_15  and  C_25
    7  A    between atoms: S_28  and  N_35
    8  A    between atoms: C_29  and  C_30
    9  A    between atoms: C_29  and  C_44
   10  A    between atoms: N_35  and  C_39
                            x       y       z     vdW  Elec       q    Type
                         _______ _______ _______ _____ _____    ______ ____

>  <TORSDO>
F 10

$$$$
=
 OpenBabel11062422103D

 44 49  0  0  1  0  0  0  0  0999 V2000
  193.3170  176.2680  143.2180 C   0  0  1  0  0  3  0  0  0  0  0  0
  194.3060  174.1040  143.5370 C   0  0  1  0  0  3  0  0  0  0  0  0
  192.3190  175.1310  143.2020 C   0  0  1  0  0  3  0  0  0  0  0  0
  194.6380  175.5620  143.2730 C   0  0  1  0  0  0  0  0  0  0  0  0
  192.9170  173.9530  143.6900 O   0  0  0  0  0  0  0  0  0  0  0  0
  194.1870  176.2040  141.9740 C   0  0  0  0  0  2  0  0  0  0  0  0
  188.7290  176.7060  144.3930 C   0  0  1  0  0  3  0  0  0  0  0  0
  187.7550  177.7920  144.0260 C   0  0  2  0  0  3  0  0  0  0  0  0
  190.1050  176.8020  143.1990 S   0  0  0  0  0  0  0  0  0  0  0  0
  186.4740  178.1940  148.0030 O   0  0  0  0  0  0  0  0  0  0  0  0
  186.7070  176.4440  142.2630 O   0  0  0  0  0  1  0  0  0  0  0  0
  191.4690  175.9470  145.3980 C   0  0  0  0  0  2  0  0  0  0  0  0
  186.9170  177.8480  146.8750 C   0  0  0  0  0  0  0  0  0  0  0  0
  186.1530  178.2560  145.6290 C   0  0  1  0  0  3  0  0  0  0  0  0
  190.2500  175.9850  146.3040 C   0  0  1  0  0  3  0  0  0  0  0  0
  186.4480  177.2330  144.5640 C   0  0  1  0  0  3  0  0  0  0  0  0
  191.0730  175.4890  144.0080 C   0  0  2  0  0  3  0  0  0  0  0  0
  188.1120  177.0350  146.8310 N   0  0  0  0  0  2  0  0  0  0  0  0
  190.6650  176.2880  147.6030 O   0  0  0  0  0  1  0  0  0  0  0  0
  184.6550  178.2780  145.8850 C   0  0  0  0  0  1  0  0  0  0  0  0
  189.2070  177.0090  145.8370 C   0  0  2  0  0  3  0  0  0  0  0  0
  186.5930  177.5600  143.0940 C   0  0  1  0  0  0  0  0  0  0  0  0
  185.8420  178.7770  142.5700 C   0  0  0  0  0  2  0  0  0  0  0  0
  183.5930  178.0010  142.4550 O   0  0  0  0  0  1  0  0  0  0  0  0
  184.6190  178.3610  141.8230 C   0  0  0  0  0  0  0  0  0  0  0  0
  184.6050  178.3810  140.4350 O   0  0  0  0  0  0  0  0  0  0  0  0
  196.4980  177.0890  143.4120 F   0  0  0  0  0  0  0  0  0  0  0  0
  195.6580  176.2810  144.1600 C   0  0  0  0  0  0  0  0  0  0  0  0
  194.9960  177.0610  145.0920 F   0  0  0  0  0  0  0  0  0  0  0  0
  196.4230  175.3400  144.8240 F   0  0  0  0  0  0  0  0  0  0  0  0
  194.8980  173.0350  142.2050 S   0  0  1  0  0  0  0  0  0  0  0  0
  195.6610  171.9290  142.9190 O   0  0  0  0  0  0  0  0  0  0  0  0
  193.4400  172.2300  141.6550 N   0  0  0  0  0  2  0  0  0  0  0  0
  193.3090  173.0660  139.3380 C   0  0  0  0  0  3  0  0  0  0  0  0
  192.5460  173.5210  138.2600 C   0  0  0  0  0  3  0  0  0  0  0  0
  191.2900  172.7590  140.6340 C   0  0  0  0  0  3  0  0  0  0  0  0
  190.5170  173.2160  139.5590 C   0  0  0  0  0  0  0  0  0  0  0  0
  191.1540  173.5960  138.3690 C   0  0  0  0  0  3  0  0  0  0  0  0
  192.6830  172.6830  140.5310 C   0  0  0  0  0  0  0  0  0  0  0  0
  189.0550  173.3010  139.6850 C   0  0  0  0  0  0  0  0  0  0  0  0
  188.3170  172.9560  138.7200 O   0  0  0  0  0  0  0  0  0  0  0  0
  188.4910  173.7760  140.8720 O   0  0  0  0  0  0  0  0  0  0  0  0
  187.8050  172.9390  141.7490 C   0  0  0  0  0  3  0  0  0  0  0  0
  188.4460  172.3160  142.6800 N   0  0  0  0  0  2  0  0  0  0  0  0
  1  6  1  6  0  0  0
  1  4  1  0  0  0  0
  2 31  1  6  0  0  0
  2  5  1  0  0  0  0
  3  1  1  0  0  0  0
  3  5  1  1  0  0  0
  3 17  1  0  0  0  0
  4  2  1  0  0  0  0
  4 28  1  1  0  0  0
  6  4  1  0  0  0  0
  7  9  1  6  0  0  0
  7 21  1  0  0  0  0
  8  7  1  0  0  0  0
  8 16  1  0  0  0  0
  9 17  1  0  0  0  0
 11 22  1  0  0  0  0
 12 15  1  0  0  0  0
 13 10  2  0  0  0  0
 14 20  1  0  0  0  0
 14 13  1  0  0  0  0
 15 19  1  0  0  0  0
 16 14  1  0  0  0  0
 17 12  1  0  0  0  0
 18 13  1  0  0  0  0
 21 15  1  0  0  0  0
 21 18  1  0  0  0  0
 22  8  1  0  0  0  0
 22 16  1  0  0  0  0
 23 22  1  0  0  0  0
 25 24  1  0  0  0  0
 25 23  1  0  0  0  0
 26 25  2  0  0  0  0
 27 28  1  0  0  0  0
 28 30  1  0  0  0  0
 28 29  1  0  0  0  0
 31 32  2  0  0  0  0
 33 31  1  0  0  0  0
 34 39  1  0  0  0  0
 35 38  1  0  0  0  0
 35 34  2  0  0  0  0
 37 40  1  0  0  0  0
 37 36  1  0  0  0  0
 38 37  2  0  0  0  0
 39 36  2  0  0  0  0
 39 33  1  0  0  0  0
 40 42  1  0  0  0  0
 41 40  2  0  0  0  0
 42 43  1  0  0  0  0
 43 44  2  0  0  0  0
M  END
>  <MODEL>
2

>  <REMARK>
 VINA RESULT:      -8.0      1.540      1.933
  Name = 
  10 active torsions:
  status: ('A' for Active; 'I' for Inactive)
    1  A    between atoms: C_2  and  S_28
    2  A    between atoms: O_4  and  C_11
    3  A    between atoms: O_4  and  C_19
    4  A    between atoms: C_11  and  C_32
    5  A    between atoms: C_13  and  C_26
    6  A    between atoms: C_15  and  C_25
    7  A    between atoms: S_28  and  N_35
    8  A    between atoms: C_29  and  C_30
    9  A    between atoms: C_29  and  C_44
   10  A    between atoms: N_35  and  C_39
                            x       y       z     vdW  Elec       q    Type
                         _______ _______ _______ _____ _____    ______ ____

>  <TORSDO>
F 10

$$$$
=
 OpenBabel11062422103D

 44 49  0  0  1  0  0  0  0  0999 V2000
  191.2140  172.2270  143.0790 C   0  0  1  0  0  3  0  0  0  0  0  0
  191.7270  173.2710  140.9790 C   0  0  1  0  0  3  0  0  0  0  0  0
  191.2940  173.7360  143.1500 C   0  0  1  0  0  3  0  0  0  0  0  0
  191.6650  171.9260  141.6810 C   0  0  1  0  0  0  0  0  0  0  0  0
  191.2940  174.2830  141.8520 O   0  0  0  0  0  0  0  0  0  0  0  0
  192.6000  171.6500  142.8440 C   0  0  0  0  0  2  0  0  0  0  0  0
  188.1080  175.9560  144.4560 C   0  0  1  0  0  3  0  0  0  0  0  0
  187.3770  177.2340  144.1500 C   0  0  2  0  0  3  0  0  0  0  0  0
  189.4710  175.8240  143.2500 S   0  0  0  0  0  0  0  0  0  0  0  0
  186.2190  177.7050  148.1560 O   0  0  0  0  0  0  0  0  0  0  0  0
  186.0690  176.2130  142.3420 O   0  0  0  0  0  1  0  0  0  0  0  0
  190.6370  174.6060  145.3900 C   0  0  0  0  0  2  0  0  0  0  0  0
  186.5770  177.3280  147.0090 C   0  0  0  0  0  0  0  0  0  0  0  0
  185.9090  177.9420  145.7920 C   0  0  1  0  0  3  0  0  0  0  0  0
  189.4550  174.8510  146.3130 C   0  0  1  0  0  3  0  0  0  0  0  0
  185.9840  176.9300  144.6790 C   0  0  1  0  0  3  0  0  0  0  0  0
  190.1510  174.3040  143.9860 C   0  0  2  0  0  3  0  0  0  0  0  0
  187.5800  176.2910  146.9130 N   0  0  0  0  0  2  0  0  0  0  0  0
  189.9280  175.0020  147.6180 O   0  0  0  0  0  1  0  0  0  0  0  0
  184.4480  178.2580  146.0680 C   0  0  0  0  0  1  0  0  0  0  0  0
  188.6430  176.0870  145.9060 C   0  0  2  0  0  3  0  0  0  0  0  0
  186.1890  177.2890  143.2230 C   0  0  1  0  0  0  0  0  0  0  0  0
  185.7020  178.6560  142.7640 C   0  0  0  0  0  2  0  0  0  0  0  0
  184.6980  178.6400  140.6030 O   0  0  0  0  0  0  0  0  0  0  0  0
  184.5340  178.5190  141.8450 C   0  0  0  0  0  0  0  0  0  0  0  0
  183.2710  178.2460  142.3520 O   0  0  0  0  0  1  0  0  0  0  0  0
  191.7180  169.9530  140.2980 F   0  0  0  0  0  0  0  0  0  0  0  0
  190.8870  170.7720  141.0440 C   0  0  0  0  0  0  0  0  0  0  0  0
  190.2810  170.0170  142.0320 F   0  0  0  0  0  0  0  0  0  0  0  0
  189.9110  171.2890  140.2120 F   0  0  0  0  0  0  0  0  0  0  0  0
  193.3960  173.6380  140.3900 S   0  0  1  0  0  0  0  0  0  0  0  0
  193.2420  173.7820  138.8830 O   0  0  0  0  0  0  0  0  0  0  0  0
  193.6610  175.2860  140.9280 N   0  0  0  0  0  2  0  0  0  0  0  0
  195.7700  176.4310  141.5030 C   0  0  0  0  0  3  0  0  0  0  0  0
  196.7550  176.7470  142.4410 C   0  0  0  0  0  3  0  0  0  0  0  0
  194.5740  175.1690  143.1850 C   0  0  0  0  0  3  0  0  0  0  0  0
  195.5590  175.4790  144.1330 C   0  0  0  0  0  0  0  0  0  0  0  0
  196.6500  176.2740  143.7530 C   0  0  0  0  0  3  0  0  0  0  0  0
  194.6740  175.6390  141.8720 C   0  0  0  0  0  0  0  0  0  0  0  0
  195.4470  174.9700  145.5080 C   0  0  0  0  0  0  0  0  0  0  0  0
  196.3750  174.2690  145.9980 O   0  0  0  0  0  0  0  0  0  0  0  0
  194.3050  175.2590  146.2600 O   0  0  0  0  0  0  0  0  0  0  0  0
  193.9260  176.5660  146.5520 C   0  0  0  0  0  3  0  0  0  0  0  0
  192.8960  176.7880  147.2980 N   0  0  0  0  0  2  0  0  0  0  0  0
  1  6  1  1  0  0  0
  1  3  1  0  0  0  0
  2 31  1  1  0  0  0
  2  4  1  0  0  0  0
  2  5  1  0  0  0  0
  3  5  1  6  0  0  0
  3 17  1  0  0  0  0
  4 28  1  6  0  0  0
  4  6  1  0  0  0  0
  4  1  1  0  0  0  0
  7  9  1  6  0  0  0
  7 21  1  0  0  0  0
  8  7  1  0  0  0  0
  8 16  1  0  0  0  0
  9 17  1  0  0  0  0
 11 22  1  0  0  0  0
 12 15  1  0  0  0  0
 13 10  2  0  0  0  0
 14 20  1  0  0  0  0
 14 13  1  0  0  0  0
 15 19  1  0  0  0  0
 16 14  1  0  0  0  0
 17 12  1  0  0  0  0
 18 13  1  0  0  0  0
 21 15  1  0  0  0  0
 21 18  1  0  0  0  0
 22  8  1  0  0  0  0
 22 16  1  0  0  0  0
 23 22  1  0  0  0  0
 24 25  2  0  0  0  0
 25 26  1  0  0  0  0
 25 23  1  0  0  0  0
 27 28  1  0  0  0  0
 28 29  1  0  0  0  0
 30 28  1  0  0  0  0
 31 33  1  0  0  0  0
 32 31  2  0  0  0  0
 33 39  1  0  0  0  0
 34 39  2  0  0  0  0
 34 35  1  0  0  0  0
 35 38  2  0  0  0  0
 36 37  2  0  0  0  0
 37 40  1  0  0  0  0
 38 37  1  0  0  0  0
 39 36  1  0  0  0  0
 40 41  2  0  0  0  0
 40 42  1  0  0  0  0
 42 43  1  0  0  0  0
 43 44  2  0  0  0  0
M  END
>  <MODEL>
3

>  <REMARK>
 VINA RESULT:      -7.8      3.118      5.395
  Name = 
  10 active torsions:
  status: ('A' for Active; 'I' for Inactive)
    1  A    between atoms: C_2  and  S_28
    2  A    between atoms: O_4  and  C_11
    3  A    between atoms: O_4  and  C_19
    4  A    between atoms: C_11  and  C_32
    5  A    between atoms: C_13  and  C_26
    6  A    between atoms: C_15  and  C_25
    7  A    between atoms: S_28  and  N_35
    8  A    between atoms: C_29  and  C_30
    9  A    between atoms: C_29  and  C_44
   10  A    between atoms: N_35  and  C_39
                            x       y       z     vdW  Elec       q    Type
                         _______ _______ _______ _____ _____    ______ ____

>  <TORSDO>
F 10

$$$$
=
 OpenBabel11062422103D

 44 49  0  0  1  0  0  0  0  0999 V2000
  191.0930  172.6820  142.4500 C   0  0  1  0  0  3  0  0  0  0  0  0
  192.6520  174.2340  141.4880 C   0  0  1  0  0  3  0  0  0  0  0  0
  191.5290  173.7780  143.3980 C   0  0  1  0  0  3  0  0  0  0  0  0
  191.9670  172.9000  141.2510 C   0  0  1  0  0  0  0  0  0  0  0  0
  192.1880  174.8000  142.6880 O   0  0  0  0  0  0  0  0  0  0  0  0
  192.2550  171.7390  142.1860 C   0  0  0  0  0  2  0  0  0  0  0  0
  188.2480  175.9480  144.5440 C   0  0  1  0  0  3  0  0  0  0  0  0
  187.5090  177.2120  144.1980 C   0  0  2  0  0  3  0  0  0  0  0  0
  189.6670  175.8330  143.4020 S   0  0  0  0  0  0  0  0  0  0  0  0
  186.1600  177.6790  148.1440 O   0  0  0  0  0  0  0  0  0  0  0  0
  186.3040  176.1590  142.3360 O   0  0  0  0  0  1  0  0  0  0  0  0
  190.7540  174.6450  145.6010 C   0  0  0  0  0  2  0  0  0  0  0  0
  186.5770  177.3040  147.0160 C   0  0  0  0  0  0  0  0  0  0  0  0
  185.9550  177.9010  145.7670 C   0  0  1  0  0  3  0  0  0  0  0  0
  189.5260  174.8740  146.4660 C   0  0  1  0  0  3  0  0  0  0  0  0
  186.0990  176.8860  144.6630 C   0  0  1  0  0  3  0  0  0  0  0  0
  190.3380  174.3290  144.1770 C   0  0  2  0  0  3  0  0  0  0  0  0
  187.6010  176.2840  146.9730 N   0  0  0  0  0  2  0  0  0  0  0  0
  189.9360  175.0390  147.7920 O   0  0  0  0  0  1  0  0  0  0  0  0
  184.4780  178.1920  145.9730 C   0  0  0  0  0  1  0  0  0  0  0  0
  188.7130  176.0940  146.0160 C   0  0  2  0  0  3  0  0  0  0  0  0
  186.3650  177.2410  143.2170 C   0  0  1  0  0  0  0  0  0  0  0  0
  185.8760  178.5980  142.7280 C   0  0  0  0  0  2  0  0  0  0  0  0
  184.8100  178.5250  140.5990 O   0  0  0  0  0  0  0  0  0  0  0  0
  184.6820  178.4430  141.8480 C   0  0  0  0  0  0  0  0  0  0  0  0
  183.4320  178.1970  142.3990 O   0  0  0  0  0  1  0  0  0  0  0  0
  192.1250  172.3840  138.9020 F   0  0  0  0  0  0  0  0  0  0  0  0
  191.2350  172.6460  139.9300 C   0  0  0  0  0  0  0  0  0  0  0  0
  190.3810  171.5670  140.0720 F   0  0  0  0  0  0  0  0  0  0  0  0
  190.4950  173.7660  139.6010 F   0  0  0  0  0  0  0  0  0  0  0  0
  194.4500  174.0580  141.5450 S   0  0  1  0  0  0  0  0  0  0  0  0
  194.9640  175.1200  140.5850 O   0  0  0  0  0  0  0  0  0  0  0  0
  194.8680  174.7030  143.1220 N   0  0  0  0  0  2  0  0  0  0  0  0
  196.4330  174.4610  145.0140 C   0  0  0  0  0  3  0  0  0  0  0  0
  197.0290  173.6630  145.9930 C   0  0  0  0  0  3  0  0  0  0  0  0
  195.1340  172.5650  144.2620 C   0  0  0  0  0  3  0  0  0  0  0  0
  195.7280  171.7560  145.2390 C   0  0  0  0  0  0  0  0  0  0  0  0
  196.6780  172.3150  146.1060 C   0  0  0  0  0  3  0  0  0  0  0  0
  195.4820  173.9140  144.1430 C   0  0  0  0  0  0  0  0  0  0  0  0
  195.3610  170.3360  145.3460 C   0  0  0  0  0  0  0  0  0  0  0  0
  195.5080  169.5700  144.3540 O   0  0  0  0  0  0  0  0  0  0  0  0
  194.8400  169.8470  146.5480 O   0  0  0  0  0  0  0  0  0  0  0  0
  195.3210  168.6820  147.1390 C   0  0  0  0  0  3  0  0  0  0  0  0
  196.4470  168.6940  147.7690 N   0  0  0  0  0  2  0  0  0  0  0  0
  1  6  1  1  0  0  0
  1  3  1  0  0  0  0
  2 31  1  1  0  0  0
  2  5  1  0  0  0  0
  3  5  1  6  0  0  0
  3 17  1  0  0  0  0
  4 28  1  6  0  0  0
  4  2  1  0  0  0  0
  4  6  1  0  0  0  0
  4  1  1  0  0  0  0
  7  9  1  6  0  0  0
  7 21  1  0  0  0  0
  8  7  1  0  0  0  0
  8 16  1  0  0  0  0
  9 17  1  0  0  0  0
 11 22  1  0  0  0  0
 12 15  1  0  0  0  0
 13 10  2  0  0  0  0
 14 20  1  0  0  0  0
 14 13  1  0  0  0  0
 15 19  1  0  0  0  0
 16 14  1  0  0  0  0
 17 12  1  0  0  0  0
 18 13  1  0  0  0  0
 21 15  1  0  0  0  0
 21 18  1  0  0  0  0
 22  8  1  0  0  0  0
 22 16  1  0  0  0  0
 23 22  1  0  0  0  0
 24 25  2  0  0  0  0
 25 26  1  0  0  0  0
 25 23  1  0  0  0  0
 27 28  1  0  0  0  0
 28 29  1  0  0  0  0
 30 28  1  0  0  0  0
 31 33  1  0  0  0  0
 32 31  2  0  0  0  0
 33 39  1  0  0  0  0
 34 35  1  0  0  0  0
 35 38  2  0  0  0  0
 36 37  2  0  0  0  0
 37 40  1  0  0  0  0
 37 38  1  0  0  0  0
 39 36  1  0  0  0  0
 39 34  2  0  0  0  0
 40 42  1  0  0  0  0
 41 40  2  0  0  0  0
 42 43  1  0  0  0  0
 43 44  2  0  0  0  0
M  END
>  <MODEL>
4

>  <REMARK>
 VINA RESULT:      -7.8      3.192      5.506
  Name = 
  10 active torsions:
  status: ('A' for Active; 'I' for Inactive)
    1  A    between atoms: C_2  and  S_28
    2  A    between atoms: O_4  and  C_11
    3  A    between atoms: O_4  and  C_19
    4  A    between atoms: C_11  and  C_32
    5  A    between atoms: C_13  and  C_26
    6  A    between atoms: C_15  and  C_25
    7  A    between atoms: S_28  and  N_35
    8  A    between atoms: C_29  and  C_30
    9  A    between atoms: C_29  and  C_44
   10  A    between atoms: N_35  and  C_39
                            x       y       z     vdW  Elec       q    Type
                         _______ _______ _______ _____ _____    ______ ____

>  <TORSDO>
F 10

$$$$
=
 OpenBabel11062422103D

 44 49  0  0  1  0  0  0  0  0999 V2000
  189.9570  172.1060  142.3510 C   0  0  1  0  0  3  0  0  0  0  0  0
  192.2230  172.7850  141.9460 C   0  0  1  0  0  3  0  0  0  0  0  0
  190.6510  172.6760  143.5680 C   0  0  1  0  0  3  0  0  0  0  0  0
  191.0560  172.0300  141.3350 C   0  0  1  0  0  0  0  0  0  0  0  0
  191.8440  173.3200  143.1890 O   0  0  0  0  0  0  0  0  0  0  0  0
  190.5630  170.7580  141.9990 C   0  0  0  0  0  2  0  0  0  0  0  0
  188.0990  175.7300  144.5390 C   0  0  1  0  0  3  0  0  0  0  0  0
  187.5970  177.0430  144.0030 C   0  0  2  0  0  3  0  0  0  0  0  0
  189.2790  175.0730  143.3130 S   0  0  0  0  0  0  0  0  0  0  0  0
  186.9690  178.5520  147.8680 O   0  0  0  0  0  0  0  0  0  0  0  0
  185.9390  175.9690  142.5460 O   0  0  0  0  0  1  0  0  0  0  0  0
  190.4060  174.1020  145.5970 C   0  0  0  0  0  2  0  0  0  0  0  0
  187.1290  177.8830  146.8130 C   0  0  0  0  0  0  0  0  0  0  0  0
  186.4680  178.3610  145.5330 C   0  0  1  0  0  3  0  0  0  0  0  0
  189.3940  174.7720  146.5110 C   0  0  1  0  0  3  0  0  0  0  0  0
  186.2340  177.1500  144.6680 C   0  0  1  0  0  3  0  0  0  0  0  0
  189.7290  173.6280  144.3250 C   0  0  2  0  0  3  0  0  0  0  0  0
  187.9000  176.6620  146.8900 N   0  0  0  0  0  2  0  0  0  0  0  0
  190.0190  175.0840  147.7200 O   0  0  0  0  0  1  0  0  0  0  0  0
  185.1310  179.0240  145.8190 C   0  0  0  0  0  1  0  0  0  0  0  0
  188.7950  176.0400  145.8900 C   0  0  2  0  0  3  0  0  0  0  0  0
  186.3520  177.1530  143.1590 C   0  0  1  0  0  0  0  0  0  0  0  0
  186.0900  178.4690  142.4390 C   0  0  0  0  0  2  0  0  0  0  0  0
  183.7610  178.2930  141.9720 O   0  0  0  0  0  1  0  0  0  0  0  0
  184.9300  178.3400  141.5100 C   0  0  0  0  0  0  0  0  0  0  0  0
  185.1340  178.2850  140.1380 O   0  0  0  0  0  0  0  0  0  0  0  0
  189.4410  171.6720  139.5820 F   0  0  0  0  0  0  0  0  0  0  0  0
  190.5820  172.3810  139.9220 C   0  0  0  0  0  0  0  0  0  0  0  0
  190.3090  173.7350  139.8450 F   0  0  0  0  0  0  0  0  0  0  0  0
  191.5820  172.0710  139.0190 F   0  0  0  0  0  0  0  0  0  0  0  0
  193.6700  171.7200  142.1490 S   0  0  1  0  0  0  0  0  0  0  0  0
  193.9200  171.1530  140.7600 O   0  0  0  0  0  0  0  0  0  0  0  0
  194.9840  172.8630  142.3620 N   0  0  0  0  0  2  0  0  0  0  0  0
  196.1110  172.9720  144.5550 C   0  0  0  0  0  3  0  0  0  0  0  0
  196.3330  173.6310  145.7660 C   0  0  0  0  0  3  0  0  0  0  0  0
  194.6020  174.7360  143.8740 C   0  0  0  0  0  3  0  0  0  0  0  0
  194.8160  175.4030  145.0880 C   0  0  0  0  0  0  0  0  0  0  0  0
  195.6880  174.8430  146.0330 C   0  0  0  0  0  3  0  0  0  0  0  0
  195.2420  173.5240  143.6020 C   0  0  0  0  0  0  0  0  0  0  0  0
  194.1280  176.6720  145.3650 C   0  0  0  0  0  0  0  0  0  0  0  0
  194.7850  177.6710  145.7680 O   0  0  0  0  0  0  0  0  0  0  0  0
  192.7440  176.7580  145.1910 O   0  0  0  0  0  0  0  0  0  0  0  0
  192.1780  177.3230  144.0510 C   0  0  0  0  0  3  0  0  0  0  0  0
  191.2010  178.1580  144.1610 N   0  0  0  0  0  2  0  0  0  0  0  0
  1  6  1  1  0  0  0
  1  3  1  0  0  0  0
  2 31  1  1  0  0  0
  2  5  1  0  0  0  0
  3  5  1  6  0  0  0
  3 17  1  0  0  0  0
  4 28  1  6  0  0  0
  4  2  1  0  0  0  0
  4  6  1  0  0  0  0
  4  1  1  0  0  0  0
  7  9  1  6  0  0  0
  7 21  1  0  0  0  0
  8  7  1  0  0  0  0
  8 16  1  0  0  0  0
  9 17  1  0  0  0  0
 11 22  1  0  0  0  0
 12 15  1  0  0  0  0
 13 18  1  0  0  0  0
 13 10  2  0  0  0  0
 14 20  1  0  0  0  0
 14 13  1  0  0  0  0
 15 19  1  0  0  0  0
 16 14  1  0  0  0  0
 17 12  1  0  0  0  0
 21 15  1  0  0  0  0
 21 18  1  0  0  0  0
 22  8  1  0  0  0  0
 22 16  1  0  0  0  0
 23 22  1  0  0  0  0
 25 24  1  0  0  0  0
 25 23  1  0  0  0  0
 26 25  2  0  0  0  0
 27 28  1  0  0  0  0
 29 28  1  0  0  0  0
 30 28  1  0  0  0  0
 31 33  1  0  0  0  0
 32 31  2  0  0  0  0
 33 39  1  0  0  0  0
 34 35  1  0  0  0  0
 35 38  2  0  0  0  0
 36 37  2  0  0  0  0
 37 40  1  0  0  0  0
 37 38  1  0  0  0  0
 39 36  1  0  0  0  0
 39 34  2  0  0  0  0
 40 41  2  0  0  0  0
 42 40  1  0  0  0  0
 43 44  2  0  0  0  0
 43 42  1  0  0  0  0
M  END
>  <MODEL>
5

>  <REMARK>
 VINA RESULT:      -7.7      2.983      4.976
  Name = 
  10 active torsions:
  status: ('A' for Active; 'I' for Inactive)
    1  A    between atoms: C_2  and  S_28
    2  A    between atoms: O_4  and  C_11
    3  A    between atoms: O_4  and  C_19
    4  A    between atoms: C_11  and  C_32
    5  A    between atoms: C_13  and  C_26
    6  A    between atoms: C_15  and  C_25
    7  A    between atoms: S_28  and  N_35
    8  A    between atoms: C_29  and  C_30
    9  A    between atoms: C_29  and  C_44
   10  A    between atoms: N_35  and  C_39
                            x       y       z     vdW  Elec       q    Type
                         _______ _______ _______ _____ _____    ______ ____

>  <TORSDO>
F 10

$$$$
=
 OpenBabel11062422103D

 44 49  0  0  1  0  0  0  0  0999 V2000
  191.3260  174.9590  144.0320 C   0  0  1  0  0  3  0  0  0  0  0  0
  189.5370  176.2900  144.9210 C   0  0  1  0  0  3  0  0  0  0  0  0
  190.0010  174.2320  144.1070 C   0  0  1  0  0  3  0  0  0  0  0  0
  191.0430  176.2580  144.7250 C   0  0  1  0  0  0  0  0  0  0  0  0
  188.9580  175.1470  144.3450 O   0  0  0  0  0  0  0  0  0  0  0  0
  191.8620  175.1940  145.4340 C   0  0  0  0  0  2  0  0  0  0  0  0
  190.3280  171.5600  141.0180 C   0  0  1  0  0  3  0  0  0  0  0  0
  191.3370  170.6580  140.3610 C   0  0  2  0  0  3  0  0  0  0  0  0
  191.1820  172.3940  142.3970 S   0  0  0  0  0  0  0  0  0  0  0  0
  189.4390  171.0060  136.6340 O   0  0  0  0  0  0  0  0  0  0  0  0
  191.0260  168.8760  142.0200 O   0  0  0  0  0  1  0  0  0  0  0  0
  189.4390  174.3640  141.6840 C   0  0  0  0  0  2  0  0  0  0  0  0
  189.7900  170.9520  137.8420 C   0  0  0  0  0  0  0  0  0  0  0  0
  190.7140  169.8350  138.2910 C   0  0  1  0  0  3  0  0  0  0  0  0
  188.8670  173.5830  140.5120 C   0  0  1  0  0  3  0  0  0  0  0  0
  190.4460  169.5870  139.7520 C   0  0  1  0  0  3  0  0  0  0  0  0
  189.7480  173.4270  142.8350 C   0  0  2  0  0  3  0  0  0  0  0  0
  189.2520  171.9380  138.7530 N   0  0  0  0  0  2  0  0  0  0  0  0
  188.4770  174.4850  139.5190 O   0  0  0  0  0  1  0  0  0  0  0  0
  190.4430  168.5540  137.5190 C   0  0  0  0  0  1  0  0  0  0  0  0
  189.8680  172.5730  139.9380 C   0  0  2  0  0  3  0  0  0  0  0  0
  191.5150  169.2140  140.7560 C   0  0  1  0  0  0  0  0  0  0  0  0
  192.7390  168.4750  140.2340 C   0  0  0  0  0  2  0  0  0  0  0  0
  194.3400  169.3950  141.7390 O   0  0  0  0  0  1  0  0  0  0  0  0
  193.9860  169.2340  140.5430 C   0  0  0  0  0  0  0  0  0  0  0  0
  194.7630  169.7520  139.5160 O   0  0  0  0  0  0  0  0  0  0  0  0
  191.9140  177.2460  142.7070 F   0  0  0  0  0  0  0  0  0  0  0  0
  191.7490  177.4460  144.0680 C   0  0  0  0  0  0  0  0  0  0  0  0
  191.0060  178.5960  144.2660 F   0  0  0  0  0  0  0  0  0  0  0  0
  192.9940  177.6090  144.6460 F   0  0  0  0  0  0  0  0  0  0  0  0
  189.0960  176.3880  146.6720 S   0  0  1  0  0  0  0  0  0  0  0  0
  189.1540  177.8730  146.9940 O   0  0  0  0  0  0  0  0  0  0  0  0
  187.3770  176.0400  146.6750 N   0  0  0  0  0  2  0  0  0  0  0  0
  185.6920  177.7330  147.2950 C   0  0  0  0  0  3  0  0  0  0  0  0
  184.7210  178.6640  146.9190 C   0  0  0  0  0  3  0  0  0  0  0  0
  186.1090  177.2310  144.9660 C   0  0  0  0  0  3  0  0  0  0  0  0
  185.1350  178.1610  144.5790 C   0  0  0  0  0  0  0  0  0  0  0  0
  184.4430  178.8780  145.5660 C   0  0  0  0  0  3  0  0  0  0  0  0
  186.3910  177.0110  146.3180 C   0  0  0  0  0  0  0  0  0  0  0  0
  184.8420  178.3750  143.1550 C   0  0  0  0  0  0  0  0  0  0  0  0
  183.6550  178.2880  142.7350 O   0  0  0  0  0  0  0  0  0  0  0  0
  185.8860  178.6620  142.2710 O   0  0  0  0  0  0  0  0  0  0  0  0
  186.2320  177.8000  141.2340 C   0  0  0  0  0  3  0  0  0  0  0  0
  187.4630  177.4470  141.0720 N   0  0  0  0  0  2  0  0  0  0  0  0
  1  3  1  0  0  0  0
  1  4  1  0  0  0  0
  1  6  1  1  0  0  0
  2 31  1  1  0  0  0
  3  5  1  6  0  0  0
  4 28  1  6  0  0  0
  4  2  1  0  0  0  0
  4  6  1  0  0  0  0
  5  2  1  0  0  0  0
  7  9  1  1  0  0  0
  8 22  1  0  0  0  0
  8  7  1  0  0  0  0
  9 17  1  0  0  0  0
 10 13  2  0  0  0  0
 12 17  1  0  0  0  0
 13 14  1  0  0  0  0
 13 18  1  0  0  0  0
 14 16  1  0  0  0  0
 15 12  1  0  0  0  0
 16  8  1  0  0  0  0
 16 22  1  0  0  0  0
 17  3  1  0  0  0  0
 18 21  1  0  0  0  0
 19 15  1  0  0  0  0
 20 14  1  0  0  0  0
 21 15  1  0  0  0  0
 21  7  1  0  0  0  0
 22 11  1  0  0  0  0
 23 25  1  0  0  0  0
 23 22  1  0  0  0  0
 25 24  1  0  0  0  0
 26 25  2  0  0  0  0
 27 28  1  0  0  0  0
 28 29  1  0  0  0  0
 28 30  1  0  0  0  0
 31 33  1  0  0  0  0
 31 32  2  0  0  0  0
 35 34  1  0  0  0  0
 36 39  1  0  0  0  0
 37 36  2  0  0  0  0
 37 38  1  0  0  0  0
 38 35  2  0  0  0  0
 39 33  1  0  0  0  0
 39 34  2  0  0  0  0
 40 37  1  0  0  0  0
 41 40  2  0  0  0  0
 42 40  1  0  0  0  0
 43 42  1  0  0  0  0
 44 43  2  0  0  0  0
M  END
>  <MODEL>
6

>  <REMARK>
 VINA RESULT:      -7.5      2.423      8.649
  Name = 
  10 active torsions:
  status: ('A' for Active; 'I' for Inactive)
    1  A    between atoms: C_2  and  S_28
    2  A    between atoms: O_4  and  C_11
    3  A    between atoms: O_4  and  C_19
    4  A    between atoms: C_11  and  C_32
    5  A    between atoms: C_13  and  C_26
    6  A    between atoms: C_15  and  C_25
    7  A    between atoms: S_28  and  N_35
    8  A    between atoms: C_29  and  C_30
    9  A    between atoms: C_29  and  C_44
   10  A    between atoms: N_35  and  C_39
                            x       y       z     vdW  Elec       q    Type
                         _______ _______ _______ _____ _____    ______ ____

>  <TORSDO>
F 10

$$$$
=
 OpenBabel11062422103D

 44 49  0  0  1  0  0  0  0  0999 V2000
  191.5460  175.6640  143.3610 C   0  0  1  0  0  3  0  0  0  0  0  0
  189.5550  175.6760  144.7020 C   0  0  1  0  0  3  0  0  0  0  0  0
  191.0570  174.2840  143.7430 C   0  0  1  0  0  3  0  0  0  0  0  0
  190.6420  176.5740  144.1380 C   0  0  1  0  0  0  0  0  0  0  0  0
  189.7480  174.3580  144.2570 O   0  0  0  0  0  0  0  0  0  0  0  0
  192.0770  176.3790  144.5920 C   0  0  0  0  0  2  0  0  0  0  0  0
  190.7700  172.6520  139.9960 C   0  0  1  0  0  3  0  0  0  0  0  0
  190.0860  172.8800  138.6760 C   0  0  2  0  0  3  0  0  0  0  0  0
  190.2360  173.9940  141.1090 S   0  0  0  0  0  0  0  0  0  0  0  0
  190.0660  168.7740  137.8070 O   0  0  0  0  0  0  0  0  0  0  0  0
  191.7420  174.5390  137.9500 O   0  0  0  0  0  1  0  0  0  0  0  0
  190.5360  171.9880  142.9290 C   0  0  0  0  0  2  0  0  0  0  0  0
  190.2630  169.9520  138.2060 C   0  0  0  0  0  0  0  0  0  0  0  0
  190.1620  171.0920  137.2090 C   0  0  1  0  0  3  0  0  0  0  0  0
  190.8960  170.9460  141.8820 C   0  0  1  0  0  3  0  0  0  0  0  0
  191.0450  172.2060  137.7080 C   0  0  1  0  0  3  0  0  0  0  0  0
  191.1280  173.3320  142.5520 C   0  0  2  0  0  3  0  0  0  0  0  0
  190.6230  170.1520  139.5920 N   0  0  0  0  0  2  0  0  0  0  0  0
  190.4460  169.6980  142.3190 O   0  0  0  0  0  1  0  0  0  0  0  0
  190.6440  170.6640  135.8330 C   0  0  0  0  0  1  0  0  0  0  0  0
  190.2950  171.2660  140.5080 C   0  0  2  0  0  3  0  0  0  0  0  0
  190.7150  173.6760  137.5620 C   0  0  1  0  0  0  0  0  0  0  0  0
  189.8360  174.0830  136.3870 C   0  0  0  0  0  2  0  0  0  0  0  0
  190.5250  175.9250  135.0430 O   0  0  0  0  0  1  0  0  0  0  0  0
  190.6550  174.7010  135.3040 C   0  0  0  0  0  0  0  0  0  0  0  0
  191.5670  173.9340  134.5910 O   0  0  0  0  0  0  0  0  0  0  0  0
  191.2070  178.8310  143.5110 F   0  0  0  0  0  0  0  0  0  0  0  0
  190.2580  177.8340  143.3590 C   0  0  0  0  0  0  0  0  0  0  0  0
  190.1370  177.5310  142.0140 F   0  0  0  0  0  0  0  0  0  0  0  0
  189.0430  178.3020  143.8260 F   0  0  0  0  0  0  0  0  0  0  0  0
  189.5290  175.7180  146.5090 S   0  0  1  0  0  0  0  0  0  0  0  0
  189.9950  177.1230  146.8620 O   0  0  0  0  0  0  0  0  0  0  0  0
  187.8170  175.7540  146.8880 N   0  0  0  0  0  2  0  0  0  0  0  0
  186.5660  177.7580  147.5990 C   0  0  0  0  0  3  0  0  0  0  0  0
  185.7370  178.8380  147.2870 C   0  0  0  0  0  3  0  0  0  0  0  0
  186.5620  177.0850  145.2760 C   0  0  0  0  0  3  0  0  0  0  0  0
  185.7280  178.1640  144.9530 C   0  0  0  0  0  0  0  0  0  0  0  0
  185.3190  179.0410  145.9680 C   0  0  0  0  0  3  0  0  0  0  0  0
  186.9820  176.8760  146.5930 C   0  0  0  0  0  0  0  0  0  0  0  0
  185.2850  178.3650  143.5660 C   0  0  0  0  0  0  0  0  0  0  0  0
  184.0670  178.2250  143.2660 O   0  0  0  0  0  0  0  0  0  0  0  0
  186.2220  178.7020  142.5850 O   0  0  0  0  0  0  0  0  0  0  0  0
  186.4540  177.8900  141.4780 C   0  0  0  0  0  3  0  0  0  0  0  0
  187.0500  176.7540  141.6250 N   0  0  0  0  0  2  0  0  0  0  0  0
  1  3  1  0  0  0  0
  1  4  1  0  0  0  0
  1  6  1  1  0  0  0
  2 31  1  1  0  0  0
  3  5  1  6  0  0  0
  4 28  1  6  0  0  0
  4  6  1  0  0  0  0
  4  2  1  0  0  0  0
  5  2  1  0  0  0  0
  7 21  1  0  0  0  0
  7  9  1  1  0  0  0
  8  7  1  0  0  0  0
  9 17  1  0  0  0  0
 10 13  2  0  0  0  0
 13 18  1  0  0  0  0
 14 16  1  0  0  0  0
 14 13  1  0  0  0  0
 15 19  1  0  0  0  0
 15 12  1  0  0  0  0
 16  8  1  0  0  0  0
 17 12  1  0  0  0  0
 17  3  1  0  0  0  0
 18 21  1  0  0  0  0
 20 14  1  0  0  0  0
 21 15  1  0  0  0  0
 22 16  1  0  0  0  0
 22 11  1  0  0  0  0
 22  8  1  0  0  0  0
 23 22  1  0  0  0  0
 24 25  1  0  0  0  0
 25 23  1  0  0  0  0
 26 25  2  0  0  0  0
 28 27  1  0  0  0  0
 28 30  1  0  0  0  0
 29 28  1  0  0  0  0
 31 32  2  0  0  0  0
 31 33  1  0  0  0  0
 35 34  1  0  0  0  0
 36 39  1  0  0  0  0
 37 36  2  0  0  0  0
 37 38  1  0  0  0  0
 38 35  2  0  0  0  0
 39 33  1  0  0  0  0
 39 34  2  0  0  0  0
 40 37  1  0  0  0  0
 41 40  2  0  0  0  0
 42 40  1  0  0  0  0
 43 44  2  0  0  0  0
 43 42  1  0  0  0  0
M  END
>  <MODEL>
7

>  <REMARK>
 VINA RESULT:      -7.5      3.043      8.213
  Name = 
  10 active torsions:
  status: ('A' for Active; 'I' for Inactive)
    1  A    between atoms: C_2  and  S_28
    2  A    between atoms: O_4  and  C_11
    3  A    between atoms: O_4  and  C_19
    4  A    between atoms: C_11  and  C_32
    5  A    between atoms: C_13  and  C_26
    6  A    between atoms: C_15  and  C_25
    7  A    between atoms: S_28  and  N_35
    8  A    between atoms: C_29  and  C_30
    9  A    between atoms: C_29  and  C_44
   10  A    between atoms: N_35  and  C_39
                            x       y       z     vdW  Elec       q    Type
                         _______ _______ _______ _____ _____    ______ ____

>  <TORSDO>
F 10

$$$$
=
 OpenBabel11062422103D

 44 49  0  0  1  0  0  0  0  0999 V2000
  192.8490  175.8310  144.1450 C   0  0  1  0  0  3  0  0  0  0  0  0
  193.5070  173.6500  144.8990 C   0  0  1  0  0  3  0  0  0  0  0  0
  191.7190  174.8260  144.1700 C   0  0  1  0  0  3  0  0  0  0  0  0
  194.0540  174.9990  144.4680 C   0  0  1  0  0  0  0  0  0  0  0  0
  192.1020  173.6820  144.8960 O   0  0  0  0  0  0  0  0  0  0  0  0
  193.8310  175.4710  143.0430 C   0  0  0  0  0  2  0  0  0  0  0  0
  188.2030  176.8800  144.6260 C   0  0  1  0  0  3  0  0  0  0  0  0
  187.3610  177.9160  143.9320 C   0  0  2  0  0  3  0  0  0  0  0  0
  189.6700  176.6010  143.5790 S   0  0  0  0  0  0  0  0  0  0  0  0
  185.8170  179.3170  147.5750 O   0  0  0  0  0  0  0  0  0  0  0  0
  186.3370  176.2710  142.4250 O   0  0  0  0  0  1  0  0  0  0  0  0
  190.7780  176.1860  146.0340 C   0  0  0  0  0  2  0  0  0  0  0  0
  186.3130  178.6890  146.6020 C   0  0  0  0  0  0  0  0  0  0  0  0
  185.6870  178.8490  145.2280 C   0  0  1  0  0  3  0  0  0  0  0  0
  189.5000  176.5180  146.7870 C   0  0  1  0  0  3  0  0  0  0  0  0
  185.9710  177.5890  144.4540 C   0  0  1  0  0  3  0  0  0  0  0  0
  190.4510  175.4470  144.7510 C   0  0  2  0  0  3  0  0  0  0  0  0
  187.4310  177.8070  146.8570 N   0  0  0  0  0  2  0  0  0  0  0  0
  189.8390  177.0840  148.0180 O   0  0  0  0  0  1  0  0  0  0  0  0
  184.1820  179.0330  145.3280 C   0  0  0  0  0  1  0  0  0  0  0  0
  188.5930  177.4760  146.0040 C   0  0  2  0  0  3  0  0  0  0  0  0
  186.2590  177.5550  142.9690 C   0  0  1  0  0  0  0  0  0  0  0  0
  185.6630  178.6660  142.1150 C   0  0  0  0  0  2  0  0  0  0  0  0
  184.5480  177.9470  140.1360 O   0  0  0  0  0  0  0  0  0  0  0  0
  184.4660  178.1750  141.3710 C   0  0  0  0  0  0  0  0  0  0  0  0
  183.2680  177.9570  142.0370 O   0  0  0  0  0  1  0  0  0  0  0  0
  194.6540  175.7240  146.6870 F   0  0  0  0  0  0  0  0  0  0  0  0
  195.0570  175.7320  145.3620 C   0  0  0  0  0  0  0  0  0  0  0  0
  196.2960  175.1240  145.2660 F   0  0  0  0  0  0  0  0  0  0  0  0
  195.1650  177.0440  144.9390 F   0  0  0  0  0  0  0  0  0  0  0  0
  194.0940  172.3200  143.8230 S   0  0  1  0  0  0  0  0  0  0  0  0
  194.3520  171.1560  144.7680 O   0  0  0  0  0  0  0  0  0  0  0  0
  192.6470  171.8290  142.9630 N   0  0  0  0  0  2  0  0  0  0  0  0
  193.4780  172.5780  140.7630 C   0  0  0  0  0  3  0  0  0  0  0  0
  193.2420  172.8610  139.4160 C   0  0  0  0  0  3  0  0  0  0  0  0
  191.1630  171.9300  141.0310 C   0  0  0  0  0  3  0  0  0  0  0  0
  190.9160  172.2140  139.6810 C   0  0  0  0  0  0  0  0  0  0  0  0
  191.9650  172.6800  138.8760 C   0  0  0  0  0  3  0  0  0  0  0  0
  192.4370  172.1110  141.5770 C   0  0  0  0  0  0  0  0  0  0  0  0
  189.5680  172.0300  139.1230 C   0  0  0  0  0  0  0  0  0  0  0  0
  189.3170  171.0280  138.3980 O   0  0  0  0  0  0  0  0  0  0  0  0
  188.5750  172.9770  139.3900 O   0  0  0  0  0  0  0  0  0  0  0  0
  188.1910  173.9290  138.4500 C   0  0  0  0  0  3  0  0  0  0  0  0
  188.9420  174.1650  137.4270 N   0  0  0  0  0  2  0  0  0  0  0  0
  1  6  1  6  0  0  0
  1  3  1  0  0  0  0
  1  4  1  0  0  0  0
  2 31  1  6  0  0  0
  3 17  1  0  0  0  0
  3  5  1  1  0  0  0
  4  2  1  0  0  0  0
  4 28  1  1  0  0  0
  5  2  1  0  0  0  0
  6  4  1  0  0  0  0
  7  9  1  6  0  0  0
  7 21  1  0  0  0  0
  8 16  1  0  0  0  0
  8  7  1  0  0  0  0
  9 17  1  0  0  0  0
 11 22  1  0  0  0  0
 12 15  1  0  0  0  0
 13 18  1  0  0  0  0
 13 10  2  0  0  0  0
 14 20  1  0  0  0  0
 14 13  1  0  0  0  0
 15 19  1  0  0  0  0
 16 14  1  0  0  0  0
 17 12  1  0  0  0  0
 21 15  1  0  0  0  0
 21 18  1  0  0  0  0
 22  8  1  0  0  0  0
 22 16  1  0  0  0  0
 23 22  1  0  0  0  0
 24 25  2  0  0  0  0
 25 26  1  0  0  0  0
 25 23  1  0  0  0  0
 28 27  1  0  0  0  0
 29 28  1  0  0  0  0
 30 28  1  0  0  0  0
 31 32  2  0  0  0  0
 33 31  1  0  0  0  0
 34 39  1  0  0  0  0
 35 34  2  0  0  0  0
 36 39  2  0  0  0  0
 37 36  1  0  0  0  0
 38 35  1  0  0  0  0
 38 37  2  0  0  0  0
 39 33  1  0  0  0  0
 40 42  1  0  0  0  0
 40 37  1  0  0  0  0
 41 40  2  0  0  0  0
 43 42  1  0  0  0  0
 44 43  2  0  0  0  0
M  END
>  <MODEL>
8

>  <REMARK>
 VINA RESULT:      -7.5      0.985      1.217
  Name = 
  10 active torsions:
  status: ('A' for Active; 'I' for Inactive)
    1  A    between atoms: C_2  and  S_28
    2  A    between atoms: O_4  and  C_11
    3  A    between atoms: O_4  and  C_19
    4  A    between atoms: C_11  and  C_32
    5  A    between atoms: C_13  and  C_26
    6  A    between atoms: C_15  and  C_25
    7  A    between atoms: S_28  and  N_35
    8  A    between atoms: C_29  and  C_30
    9  A    between atoms: C_29  and  C_44
   10  A    between atoms: N_35  and  C_39
                            x       y       z     vdW  Elec       q    Type
                         _______ _______ _______ _____ _____    ______ ____

>  <TORSDO>
F 10

$$$$
=
 OpenBabel11062422103D

 44 49  0  0  1  0  0  0  0  0999 V2000
  192.3540  174.5070  144.9610 C   0  0  1  0  0  3  0  0  0  0  0  0
  190.8050  176.2370  145.5720 C   0  0  1  0  0  3  0  0  0  0  0  0
  190.9080  174.1590  144.6840 C   0  0  1  0  0  3  0  0  0  0  0  0
  192.2570  175.8090  145.6990 C   0  0  1  0  0  0  0  0  0  0  0  0
  190.1050  175.3120  144.7790 O   0  0  0  0  0  0  0  0  0  0  0  0
  192.5940  174.5410  146.4610 C   0  0  0  0  0  2  0  0  0  0  0  0
  191.4930  172.9920  140.8000 C   0  0  1  0  0  3  0  0  0  0  0  0
  192.2730  173.3780  139.5730 C   0  0  2  0  0  3  0  0  0  0  0  0
  191.9320  174.1870  142.1060 S   0  0  0  0  0  0  0  0  0  0  0  0
  189.3160  171.8350  137.0260 O   0  0  0  0  0  0  0  0  0  0  0  0
  194.3060  172.2380  140.3410 O   0  0  0  0  0  1  0  0  0  0  0  0
  189.3460  173.6840  142.8020 C   0  0  0  0  0  2  0  0  0  0  0  0
  190.1160  172.1380  137.9500 C   0  0  0  0  0  0  0  0  0  0  0  0
  191.5770  172.3700  137.6110 C   0  0  1  0  0  3  0  0  0  0  0  0
  189.0930  172.7630  141.6200 C   0  0  1  0  0  3  0  0  0  0  0  0
  192.3820  172.0490  138.8430 C   0  0  1  0  0  3  0  0  0  0  0  0
  190.7600  173.4980  143.3160 C   0  0  2  0  0  3  0  0  0  0  0  0
  189.6050  172.2050  139.3010 N   0  0  0  0  0  2  0  0  0  0  0  0
  187.7500  172.8670  141.2500 O   0  0  0  0  0  1  0  0  0  0  0  0
  192.0300  171.4600  136.4800 C   0  0  0  0  0  1  0  0  0  0  0  0
  189.9920  173.0900  140.4210 C   0  0  2  0  0  3  0  0  0  0  0  0
  193.6290  172.8000  139.2580 C   0  0  1  0  0  0  0  0  0  0  0  0
  194.4490  173.4580  138.1560 C   0  0  0  0  0  2  0  0  0  0  0  0
  193.8750  175.6640  137.4630 O   0  0  0  0  0  0  0  0  0  0  0  0
  194.4530  174.9410  138.3150 C   0  0  0  0  0  0  0  0  0  0  0  0
  195.0810  175.5270  139.4060 O   0  0  0  0  0  1  0  0  0  0  0  0
  194.3300  176.1800  144.5280 F   0  0  0  0  0  0  0  0  0  0  0  0
  193.3720  176.7880  145.3220 C   0  0  0  0  0  0  0  0  0  0  0  0
  192.8360  177.8630  144.6370 F   0  0  0  0  0  0  0  0  0  0  0  0
  193.9790  177.2470  146.4770 F   0  0  0  0  0  0  0  0  0  0  0  0
  190.0120  176.3870  147.1890 S   0  0  1  0  0  0  0  0  0  0  0  0
  189.8840  177.8870  147.4090 O   0  0  0  0  0  0  0  0  0  0  0  0
  188.3610  175.8820  146.8770 N   0  0  0  0  0  2  0  0  0  0  0  0
  186.3170  177.0240  147.6570 C   0  0  0  0  0  3  0  0  0  0  0  0
  185.2750  177.9250  147.4270 C   0  0  0  0  0  3  0  0  0  0  0  0
  187.2160  177.5060  145.4640 C   0  0  0  0  0  3  0  0  0  0  0  0
  186.1720  178.4090  145.2220 C   0  0  0  0  0  0  0  0  0  0  0  0
  185.2020  178.6150  146.2130 C   0  0  0  0  0  3  0  0  0  0  0  0
  187.2930  176.8110  146.6740 C   0  0  0  0  0  0  0  0  0  0  0  0
  186.0970  179.1250  143.9400 C   0  0  0  0  0  0  0  0  0  0  0  0
  185.5650  180.2680  143.8860 O   0  0  0  0  0  0  0  0  0  0  0  0
  186.6080  178.5260  142.7850 O   0  0  0  0  0  0  0  0  0  0  0  0
  185.7990  178.2220  141.6930 C   0  0  0  0  0  3  0  0  0  0  0  0
  186.3110  177.6750  140.6430 N   0  0  0  0  0  2  0  0  0  0  0  0
  1  4  1  0  0  0  0
  1  6  1  1  0  0  0
  2  4  1  0  0  0  0
  2 31  1  1  0  0  0
  3  5  1  6  0  0  0
  3  1  1  0  0  0  0
  4 28  1  6  0  0  0
  4  6  1  0  0  0  0
  5  2  1  0  0  0  0
  7  9  1  1  0  0  0
  8  7  1  0  0  0  0
  9 17  1  0  0  0  0
 10 13  2  0  0  0  0
 12 17  1  0  0  0  0
 13 18  1  0  0  0  0
 14 13  1  0  0  0  0
 14 16  1  0  0  0  0
 15 12  1  0  0  0  0
 16 22  1  0  0  0  0
 16  8  1  0  0  0  0
 17  3  1  0  0  0  0
 18 21  1  0  0  0  0
 19 15  1  0  0  0  0
 20 14  1  0  0  0  0
 21  7  1  0  0  0  0
 21 15  1  0  0  0  0
 22  8  1  0  0  0  0
 22 11  1  0  0  0  0
 23 25  1  0  0  0  0
 23 22  1  0  0  0  0
 24 25  2  0  0  0  0
 25 26  1  0  0  0  0
 27 28  1  0  0  0  0
 28 30  1  0  0  0  0
 29 28  1  0  0  0  0
 31 32  2  0  0  0  0
 33 31  1  0  0  0  0
 35 34  1  0  0  0  0
 36 39  1  0  0  0  0
 37 36  2  0  0  0  0
 37 38  1  0  0  0  0
 38 35  2  0  0  0  0
 39 33  1  0  0  0  0
 39 34  2  0  0  0  0
 40 37  1  0  0  0  0
 41 40  2  0  0  0  0
 42 40  1  0  0  0  0
 43 42  1  0  0  0  0
 44 43  2  0  0  0  0
M  END
>  <MODEL>
9

>  <REMARK>
 VINA RESULT:      -7.4      2.754      8.050
  Name = 
  10 active torsions:
  status: ('A' for Active; 'I' for Inactive)
    1  A    between atoms: C_2  and  S_28
    2  A    between atoms: O_4  and  C_11
    3  A    between atoms: O_4  and  C_19
    4  A    between atoms: C_11  and  C_32
    5  A    between atoms: C_13  and  C_26
    6  A    between atoms: C_15  and  C_25
    7  A    between atoms: S_28  and  N_35
    8  A    between atoms: C_29  and  C_30
    9  A    between atoms: C_29  and  C_44
   10  A    between atoms: N_35  and  C_39
                            x       y       z     vdW  Elec       q    Type
                         _______ _______ _______ _____ _____    ______ ____

>  <TORSDO>
F 10

$$$$
