=
 OpenBabel11062422303D

 43 43  0  0  1  0  0  0  0  0999 V2000
  190.5000  174.2530  142.3390 O   0  0  0  0  0  0  0  0  0  0  0  0
  191.5650  174.7600  142.6590 C   0  0  0  0  0  0  0  0  0  0  0  0
  194.1100  174.5450  142.5430 C   0  0  2  0  0  3  0  0  0  0  0  0
  192.6970  172.9310  144.0780 C   0  0  0  0  0  1  0  0  0  0  0  0
  192.7720  173.8880  142.8990 C   0  0  1  0  0  0  0  0  0  0  0  0
  193.5850  173.3700  141.7060 C   0  0  1  0  0  3  0  0  0  0  0  0
  193.0620  173.8050  140.3570 C   0  0  0  0  0  0  0  0  0  0  0  0
  193.6800  174.7710  139.6680 C   0  0  0  0  0  2  0  0  0  0  0  0
  192.2310  172.8200  139.5980 C   0  0  0  0  0  2  0  0  0  0  0  0
  192.4710  171.4010  140.0860 C   0  0  0  0  0  2  0  0  0  0  0  0
  191.1760  170.6060  140.1290 C   0  0  0  0  0  2  0  0  0  0  0  0
  190.4200  170.7630  142.1960 C   0  0  0  0  0  1  0  0  0  0  0  0
  190.2270  171.2690  140.9110 O   0  0  0  0  0  0  0  0  0  0  0  0
  195.5390  172.7980  143.5300 O   0  0  0  0  0  1  0  0  0  0  0  0
  195.4140  174.1780  143.3080 C   0  0  1  0  0  0  0  0  0  0  0  0
  197.7530  173.9750  142.4770 C   0  0  0  0  0  2  0  0  0  0  0  0
  196.5170  175.8940  141.6550 C   0  0  0  0  0  1  0  0  0  0  0  0
  196.6000  174.6520  142.4830 C   0  0  0  0  0  0  0  0  0  0  0  0
  195.4500  174.9190  144.6520 C   0  0  0  0  0  2  0  0  0  0  0  0
  194.6430  176.2070  144.6770 C   0  0  2  0  0  3  0  0  0  0  0  0
  195.5160  177.2820  144.8570 O   0  0  0  0  0  1  0  0  0  0  0  0
  194.2760  176.9900  146.7220 C   0  0  0  0  0  1  0  0  0  0  0  0
  193.7310  176.1660  145.7360 O   0  0  0  0  0  0  0  0  0  0  0  0
  191.7220  176.2580  142.6630 C   0  0  0  0  0  2  0  0  0  0  0  0
  190.6990  176.9660  143.5480 C   0  0  2  0  0  3  0  0  0  0  0  0
  191.1530  178.2550  143.8320 O   0  0  0  0  0  1  0  0  0  0  0  0
  190.5610  176.1870  144.8480 C   0  0  0  0  0  2  0  0  0  0  0  0
  190.1920  177.1150  146.0010 C   0  0  2  0  0  3  0  0  0  0  0  0
  190.6190  176.5570  147.3210 C   0  0  0  0  0  0  0  0  0  0  0  0
  190.8810  177.3410  148.2690 O   0  0  0  0  0  1  0  0  0  0  0  0
  190.6840  175.1850  147.5240 O   0  0  0  0  0  0  0  0  0  0  0  0
  188.7120  177.5050  145.9880 C   0  0  0  0  0  2  0  0  0  0  0  0
  187.7930  176.2940  146.0480 C   0  0  0  0  0  2  0  0  0  0  0  0
  186.5610  176.6360  146.8610 C   0  0  0  0  0  2  0  0  0  0  0  0
  186.0680  178.3580  146.5610 S   0  0  0  0  0  0  0  0  0  0  0  0
  185.1690  177.9570  145.0350 C   0  0  0  0  0  2  0  0  0  0  0  0
  185.4960  178.9850  143.9670 C   0  0  0  0  0  2  0  0  0  0  0  0
  185.0620  178.4900  142.6310 C   0  0  0  0  0  0  0  0  0  0  0  0
  183.7660  178.2930  142.4030 C   0  0  0  0  0  2  0  0  0  0  0  0
  186.0400  178.2650  141.6070 N   0  0  0  0  0  2  0  0  0  0  0  0
  187.4490  178.0350  141.8940 C   0  0  0  0  0  2  0  0  0  0  0  0
  187.1990  175.6160  142.4240 C   0  0  0  0  0  1  0  0  0  0  0  0
  187.8430  176.6260  141.4940 C   0  0  0  0  0  2  0  0  0  0  0  0
  1  2  2  0  0  0  0
  2 24  1  0  0  0  0
  2  5  1  0  0  0  0
  3  5  1  0  0  0  0
  3 15  1  1  0  0  0
  5  4  1  1  0  0  0
  6  7  1  6  0  0  0
  6  3  1  0  0  0  0
  6  5  1  0  0  0  0
  8  7  2  0  0  0  0
  9 10  1  0  0  0  0
  9  7  1  0  0  0  0
 10 11  1  0  0  0  0
 11 13  1  0  0  0  0
 13 12  1  0  0  0  0
 15 14  1  1  0  0  0
 15 19  1  0  0  0  0
 16 18  2  0  0  0  0
 17 18  1  0  0  0  0
 18 15  1  0  0  0  0
 19 20  1  0  0  0  0
 20 21  1  1  0  0  0
 20 23  1  0  0  0  0
 23 22  1  0  0  0  0
 24 25  1  0  0  0  0
 25 26  1  1  0  0  0
 25 27  1  0  0  0  0
 28 27  1  6  0  0  0
 28 29  1  0  0  0  0
 29 31  2  0  0  0  0
 29 30  1  0  0  0  0
 32 28  1  0  0  0  0
 32 33  1  0  0  0  0
 33 34  1  0  0  0  0
 35 34  1  0  0  0  0
 36 35  1  0  0  0  0
 37 36  1  0  0  0  0
 38 37  1  0  0  0  0
 39 38  2  0  0  0  0
 40 41  1  0  0  0  0
 40 38  1  0  0  0  0
 43 41  1  0  0  0  0
 43 42  1  0  0  0  0
M  END
>  <MODEL>
1

>  <REMARK>
 VINA RESULT:      -4.6      0.000      0.000
  Name = 
  26 active torsions:
  status: ('A' for Active; 'I' for Inactive)
    1  A    between atoms: C_1  and  C_2
    2  A    between atoms: C_1  and  C_12
    3  A    between atoms: C_2  and  C_19
    4  A    between atoms: C_4  and  C_34
    5  A    between atoms: C_5  and  N_30
    6  A    between atoms: C_5  and  C_32
    7  A    between atoms: C_9  and  C_24
    8  A    between atoms: C_9  and  C_29
    9  A    between atoms: C_10  and  C_29
   10  A    between atoms: C_12  and  C_35
   11  A    between atoms: C_13  and  C_36
   12  A    between atoms: C_14  and  C_22
   13  A    between atoms: C_14  and  C_29
   14  A    between atoms: C_15  and  C_22
   15  A    between atoms: C_15  and  S_37
   16  A    between atoms: O_17  and  C_41
   17  A    between atoms: C_19  and  O_21
   18  A    between atoms: C_20  and  C_24
   19  A    between atoms: C_20  and  C_36
   20  A    between atoms: C_25  and  C_34
   21  A    between atoms: C_25  and  C_41
   22  A    between atoms: N_30  and  C_43
   23  A    between atoms: C_31  and  C_32
   24  A    between atoms: C_31  and  S_37
   25  A    between atoms: C_34  and  C_39
   26  A    between atoms: C_40  and  C_43
                            x       y       z     vdW  Elec       q    Type
                         _______ _______ _______ _____ _____    ______ ____

>  <TORSDO>
F 26

$$$$
=
 OpenBabel11062422303D

 43 43  0  0  1  0  0  0  0  0999 V2000
  187.7790  177.1150  141.6090 O   0  0  0  0  0  0  0  0  0  0  0  0
  188.2980  176.3620  142.4210 C   0  0  0  0  0  0  0  0  0  0  0  0
  189.4000  176.0620  144.7080 C   0  0  2  0  0  3  0  0  0  0  0  0
  190.4910  177.6320  142.8910 C   0  0  0  0  0  1  0  0  0  0  0  0
  189.2710  176.9080  143.4360 C   0  0  1  0  0  0  0  0  0  0  0  0
  188.7490  177.4500  144.7730 C   0  0  1  0  0  3  0  0  0  0  0  0
  187.2480  177.3830  144.9330 C   0  0  0  0  0  0  0  0  0  0  0  0
  186.7030  176.6770  145.9280 C   0  0  0  0  0  2  0  0  0  0  0  0
  186.4490  178.4990  144.3400 C   0  0  0  0  0  2  0  0  0  0  0  0
  185.0870  178.0150  143.8680 C   0  0  0  0  0  2  0  0  0  0  0  0
  184.6720  178.7070  142.5790 C   0  0  0  0  0  2  0  0  0  0  0  0
  182.8710  178.2020  141.4080 C   0  0  0  0  0  1  0  0  0  0  0  0
  184.1710  177.7730  141.6680 O   0  0  0  0  0  0  0  0  0  0  0  0
  191.3360  177.2680  145.6390 O   0  0  0  0  0  1  0  0  0  0  0  0
  190.7350  176.0070  145.5040 C   0  0  1  0  0  0  0  0  0  0  0  0
  191.2400  175.7250  147.9270 C   0  0  0  0  0  2  0  0  0  0  0  0
  189.2530  174.5800  147.1360 C   0  0  0  0  0  1  0  0  0  0  0  0
  190.4420  175.4530  146.8890 C   0  0  0  0  0  0  0  0  0  0  0  0
  191.7110  175.0460  144.8100 C   0  0  0  0  0  2  0  0  0  0  0  0
  193.1380  175.5640  144.7170 C   0  0  2  0  0  3  0  0  0  0  0  0
  193.4210  175.8680  143.3840 O   0  0  0  0  0  1  0  0  0  0  0  0
  194.4120  173.8840  144.0220 C   0  0  0  0  0  1  0  0  0  0  0  0
  194.0210  174.5780  145.1680 O   0  0  0  0  0  0  0  0  0  0  0  0
  187.8570  174.9260  142.5150 C   0  0  0  0  0  2  0  0  0  0  0  0
  188.7390  173.9740  141.7100 C   0  0  2  0  0  3  0  0  0  0  0  0
  188.2850  173.9330  140.3910 O   0  0  0  0  0  1  0  0  0  0  0  0
  188.6310  172.5830  142.3190 C   0  0  0  0  0  2  0  0  0  0  0  0
  190.0130  171.9720  142.5280 C   0  0  2  0  0  3  0  0  0  0  0  0
  190.3670  171.8850  143.9780 C   0  0  0  0  0  0  0  0  0  0  0  0
  189.4690  172.0360  144.8450 O   0  0  0  0  0  1  0  0  0  0  0  0
  191.6650  171.5930  144.3750 O   0  0  0  0  0  0  0  0  0  0  0  0
  191.0950  172.6770  141.7080 C   0  0  0  0  0  2  0  0  0  0  0  0
  191.8060  171.7310  140.7510 C   0  0  0  0  0  2  0  0  0  0  0  0
  193.1170  172.3510  140.3100 C   0  0  0  0  0  2  0  0  0  0  0  0
  192.9430  174.1530  140.1680 S   0  0  0  0  0  0  0  0  0  0  0  0
  194.3020  174.3050  138.9720 C   0  0  0  0  0  2  0  0  0  0  0  0
  193.8320  173.8390  137.6060 C   0  0  0  0  0  2  0  0  0  0  0  0
  194.1140  174.8850  136.5840 C   0  0  0  0  0  0  0  0  0  0  0  0
  193.3760  175.9930  136.5700 C   0  0  0  0  0  2  0  0  0  0  0  0
  195.1910  174.6970  135.6570 N   0  0  0  0  0  2  0  0  0  0  0  0
  196.5640  174.4560  136.0770 C   0  0  0  0  0  2  0  0  0  0  0  0
  197.8850  175.3820  137.9720 C   0  0  0  0  0  1  0  0  0  0  0  0
  197.1580  175.7130  136.6830 C   0  0  0  0  0  2  0  0  0  0  0  0
  1  2  2  0  0  0  0
  2 24  1  0  0  0  0
  2  5  1  0  0  0  0
  3  6  1  0  0  0  0
  3 15  1  1  0  0  0
  5  4  1  6  0  0  0
  5  3  1  0  0  0  0
  5  6  1  0  0  0  0
  6  7  1  6  0  0  0
  7  8  2  0  0  0  0
  9  7  1  0  0  0  0
 10  9  1  0  0  0  0
 11 10  1  0  0  0  0
 12 13  1  0  0  0  0
 13 11  1  0  0  0  0
 15 14  1  1  0  0  0
 15 18  1  0  0  0  0
 18 17  1  0  0  0  0
 18 16  2  0  0  0  0
 19 15  1  0  0  0  0
 20 21  1  6  0  0  0
 20 19  1  0  0  0  0
 20 23  1  0  0  0  0
 22 23  1  0  0  0  0
 25 26  1  6  0  0  0
 25 27  1  0  0  0  0
 25 24  1  0  0  0  0
 27 28  1  0  0  0  0
 28 32  1  6  0  0  0
 28 29  1  0  0  0  0
 29 31  2  0  0  0  0
 29 30  1  0  0  0  0
 33 32  1  0  0  0  0
 34 33  1  0  0  0  0
 35 34  1  0  0  0  0
 36 35  1  0  0  0  0
 37 36  1  0  0  0  0
 38 37  1  0  0  0  0
 39 38  2  0  0  0  0
 40 41  1  0  0  0  0
 40 38  1  0  0  0  0
 41 43  1  0  0  0  0
 43 42  1  0  0  0  0
M  END
>  <MODEL>
2

>  <REMARK>
 VINA RESULT:      -4.6      3.397      8.002
  Name = 
  26 active torsions:
  status: ('A' for Active; 'I' for Inactive)
    1  A    between atoms: C_1  and  C_2
    2  A    between atoms: C_1  and  C_12
    3  A    between atoms: C_2  and  C_19
    4  A    between atoms: C_4  and  C_34
    5  A    between atoms: C_5  and  N_30
    6  A    between atoms: C_5  and  C_32
    7  A    between atoms: C_9  and  C_24
    8  A    between atoms: C_9  and  C_29
    9  A    between atoms: C_10  and  C_29
   10  A    between atoms: C_12  and  C_35
   11  A    between atoms: C_13  and  C_36
   12  A    between atoms: C_14  and  C_22
   13  A    between atoms: C_14  and  C_29
   14  A    between atoms: C_15  and  C_22
   15  A    between atoms: C_15  and  S_37
   16  A    between atoms: O_17  and  C_41
   17  A    between atoms: C_19  and  O_21
   18  A    between atoms: C_20  and  C_24
   19  A    between atoms: C_20  and  C_36
   20  A    between atoms: C_25  and  C_34
   21  A    between atoms: C_25  and  C_41
   22  A    between atoms: N_30  and  C_43
   23  A    between atoms: C_31  and  C_32
   24  A    between atoms: C_31  and  S_37
   25  A    between atoms: C_34  and  C_39
   26  A    between atoms: C_40  and  C_43
                            x       y       z     vdW  Elec       q    Type
                         _______ _______ _______ _____ _____    ______ ____

>  <TORSDO>
F 26

$$$$
=
 OpenBabel11062422303D

 43 43  0  0  1  0  0  0  0  0999 V2000
  190.4170  178.0040  143.3410 O   0  0  0  0  0  0  0  0  0  0  0  0
  190.0580  176.8480  143.1700 C   0  0  0  0  0  0  0  0  0  0  0  0
  187.6910  177.5990  143.7810 C   0  0  2  0  0  3  0  0  0  0  0  0
  188.0730  175.6610  142.0340 C   0  0  0  0  0  1  0  0  0  0  0  0
  188.5890  176.5080  143.1850 C   0  0  1  0  0  0  0  0  0  0  0  0
  187.8780  176.2690  144.5230 C   0  0  1  0  0  3  0  0  0  0  0  0
  188.7680  176.4000  145.7370 C   0  0  0  0  0  0  0  0  0  0  0  0
  188.5300  177.3410  146.6550 C   0  0  0  0  0  2  0  0  0  0  0  0
  189.5330  175.1840  146.1560 C   0  0  0  0  0  2  0  0  0  0  0  0
  190.3690  175.4570  147.3960 C   0  0  0  0  0  2  0  0  0  0  0  0
  191.7720  175.9120  147.0260 C   0  0  0  0  0  2  0  0  0  0  0  0
  193.8480  175.3500  146.5350 C   0  0  0  0  0  1  0  0  0  0  0  0
  192.5800  174.8080  146.7430 O   0  0  0  0  0  0  0  0  0  0  0  0
  185.5390  176.5770  143.1550 O   0  0  0  0  0  1  0  0  0  0  0  0
  186.2280  177.7920  143.2900 C   0  0  1  0  0  0  0  0  0  0  0  0
  185.4520  179.9900  144.1670 C   0  0  0  0  0  2  0  0  0  0  0  0
  184.8060  178.0570  145.4820 C   0  0  0  0  0  1  0  0  0  0  0  0
  185.4970  178.6610  144.3010 C   0  0  0  0  0  0  0  0  0  0  0  0
  186.2280  178.5330  141.9450 C   0  0  0  0  0  2  0  0  0  0  0  0
  185.3540  177.8920  140.8790 C   0  0  2  0  0  3  0  0  0  0  0  0
  186.1510  177.5690  139.7780 O   0  0  0  0  0  1  0  0  0  0  0  0
  183.1530  178.1770  140.8110 C   0  0  0  0  0  1  0  0  0  0  0  0
  184.3610  178.7940  140.4850 O   0  0  0  0  0  0  0  0  0  0  0  0
  191.0590  175.7900  142.7910 C   0  0  0  0  0  2  0  0  0  0  0  0
  192.4600  176.0680  143.3310 C   0  0  2  0  0  3  0  0  0  0  0  0
  192.4310  177.2310  144.1040 O   0  0  0  0  0  1  0  0  0  0  0  0
  193.4010  176.2740  142.1530 C   0  0  0  0  0  2  0  0  0  0  0  0
  194.6950  175.4910  142.3480 C   0  0  2  0  0  3  0  0  0  0  0  0
  195.8270  176.3800  142.7530 C   0  0  0  0  0  0  0  0  0  0  0  0
  196.6600  176.7540  141.8890 O   0  0  0  0  0  0  0  0  0  0  0  0
  195.9410  176.8320  144.0610 O   0  0  0  0  0  1  0  0  0  0  0  0
  195.0430  174.6250  141.1350 C   0  0  0  0  0  2  0  0  0  0  0  0
  194.3330  175.0860  139.8710 C   0  0  0  0  0  2  0  0  0  0  0  0
  193.6740  173.8970  139.2000 C   0  0  0  0  0  2  0  0  0  0  0  0
  194.8110  173.1430  138.0010 S   0  0  0  0  0  0  0  0  0  0  0  0
  193.7380  173.5040  136.5820 C   0  0  0  0  0  2  0  0  0  0  0  0
  192.2840  173.4030  137.0060 C   0  0  0  0  0  2  0  0  0  0  0  0
  191.5130  174.5600  136.4690 C   0  0  0  0  0  0  0  0  0  0  0  0
  192.1750  175.6160  136.0000 C   0  0  0  0  0  2  0  0  0  0  0  0
  190.0820  174.5050  136.4360 N   0  0  0  0  0  2  0  0  0  0  0  0
  189.3180  173.4090  137.0180 C   0  0  0  0  0  2  0  0  0  0  0  0
  189.5000  173.4230  139.5000 C   0  0  0  0  0  1  0  0  0  0  0  0
  188.6620  173.8540  138.3110 C   0  0  0  0  0  2  0  0  0  0  0  0
  2  5  1  0  0  0  0
  2  1  2  0  0  0  0
  3 15  1  6  0  0  0
  3  6  1  0  0  0  0
  5  4  1  6  0  0  0
  5  3  1  0  0  0  0
  5  6  1  0  0  0  0
  6  7  1  1  0  0  0
  7  9  1  0  0  0  0
  7  8  2  0  0  0  0
  9 10  1  0  0  0  0
 11 10  1  0  0  0  0
 12 13  1  0  0  0  0
 13 11  1  0  0  0  0
 15 14  1  6  0  0  0
 15 18  1  0  0  0  0
 16 18  2  0  0  0  0
 18 17  1  0  0  0  0
 19 15  1  0  0  0  0
 20 21  1  6  0  0  0
 20 19  1  0  0  0  0
 23 22  1  0  0  0  0
 23 20  1  0  0  0  0
 24  2  1  0  0  0  0
 24 25  1  0  0  0  0
 25 26  1  1  0  0  0
 27 28  1  0  0  0  0
 27 25  1  0  0  0  0
 28 32  1  6  0  0  0
 28 29  1  0  0  0  0
 29 31  1  0  0  0  0
 30 29  2  0  0  0  0
 33 32  1  0  0  0  0
 34 33  1  0  0  0  0
 35 34  1  0  0  0  0
 36 37  1  0  0  0  0
 36 35  1  0  0  0  0
 38 37  1  0  0  0  0
 39 38  2  0  0  0  0
 40 38  1  0  0  0  0
 40 41  1  0  0  0  0
 41 43  1  0  0  0  0
 43 42  1  0  0  0  0
M  END
>  <MODEL>
3

>  <REMARK>
 VINA RESULT:      -4.4      3.449      8.696
  Name = 
  26 active torsions:
  status: ('A' for Active; 'I' for Inactive)
    1  A    between atoms: C_1  and  C_2
    2  A    between atoms: C_1  and  C_12
    3  A    between atoms: C_2  and  C_19
    4  A    between atoms: C_4  and  C_34
    5  A    between atoms: C_5  and  N_30
    6  A    between atoms: C_5  and  C_32
    7  A    between atoms: C_9  and  C_24
    8  A    between atoms: C_9  and  C_29
    9  A    between atoms: C_10  and  C_29
   10  A    between atoms: C_12  and  C_35
   11  A    between atoms: C_13  and  C_36
   12  A    between atoms: C_14  and  C_22
   13  A    between atoms: C_14  and  C_29
   14  A    between atoms: C_15  and  C_22
   15  A    between atoms: C_15  and  S_37
   16  A    between atoms: O_17  and  C_41
   17  A    between atoms: C_19  and  O_21
   18  A    between atoms: C_20  and  C_24
   19  A    between atoms: C_20  and  C_36
   20  A    between atoms: C_25  and  C_34
   21  A    between atoms: C_25  and  C_41
   22  A    between atoms: N_30  and  C_43
   23  A    between atoms: C_31  and  C_32
   24  A    between atoms: C_31  and  S_37
   25  A    between atoms: C_34  and  C_39
   26  A    between atoms: C_40  and  C_43
                            x       y       z     vdW  Elec       q    Type
                         _______ _______ _______ _____ _____    ______ ____

>  <TORSDO>
F 26

$$$$
=
 OpenBabel11062422303D

 43 43  0  0  1  0  0  0  0  0999 V2000
  189.6820  172.1950  143.7000 O   0  0  0  0  0  0  0  0  0  0  0  0
  190.5010  173.0090  143.2990 C   0  0  0  0  0  0  0  0  0  0  0  0
  192.7010  173.4830  142.0850 C   0  0  2  0  0  3  0  0  0  0  0  0
  192.6560  171.9350  144.2190 C   0  0  0  0  0  1  0  0  0  0  0  0
  191.9270  172.5810  143.0530 C   0  0  1  0  0  0  0  0  0  0  0  0
  192.3340  172.0510  141.6720 C   0  0  1  0  0  3  0  0  0  0  0  0
  191.2100  172.0070  140.6630 C   0  0  0  0  0  0  0  0  0  0  0  0
  191.0890  172.9640  139.7380 C   0  0  0  0  0  2  0  0  0  0  0  0
  190.6040  170.6690  140.3750 C   0  0  0  0  0  2  0  0  0  0  0  0
  190.9220  170.2100  138.9610 C   0  0  0  0  0  2  0  0  0  0  0  0
  189.6670  170.1540  138.1050 C   0  0  0  0  0  2  0  0  0  0  0  0
  189.9050  170.9310  136.0530 C   0  0  0  0  0  1  0  0  0  0  0  0
  189.9860  169.7580  136.8030 O   0  0  0  0  0  0  0  0  0  0  0  0
  194.9180  172.4610  142.4110 O   0  0  0  0  0  1  0  0  0  0  0  0
  194.2390  173.6740  142.2200 C   0  0  1  0  0  0  0  0  0  0  0  0
  195.3110  173.6050  139.9730 C   0  0  0  0  0  2  0  0  0  0  0  0
  194.6520  175.8070  140.7460 C   0  0  0  0  0  1  0  0  0  0  0  0
  194.7520  174.3290  140.9480 C   0  0  0  0  0  0  0  0  0  0  0  0
  194.5410  174.6200  143.3910 C   0  0  0  0  0  2  0  0  0  0  0  0
  195.8880  174.3820  144.0550 C   0  0  2  0  0  3  0  0  0  0  0  0
  195.6770  174.0420  145.3930 O   0  0  0  0  0  1  0  0  0  0  0  0
  195.7420  176.5960  144.1380 C   0  0  0  0  0  1  0  0  0  0  0  0
  196.6530  175.5500  143.9870 O   0  0  0  0  0  0  0  0  0  0  0  0
  190.0650  174.3930  142.9000 C   0  0  0  0  0  2  0  0  0  0  0  0
  188.5480  174.5550  142.8580 C   0  0  2  0  0  3  0  0  0  0  0  0
  188.0720  174.1050  141.6250 O   0  0  0  0  0  1  0  0  0  0  0  0
  188.2130  176.0320  143.0130 C   0  0  0  0  0  2  0  0  0  0  0  0
  186.8830  176.3620  142.3420 C   0  0  2  0  0  3  0  0  0  0  0  0
  187.0420  177.3980  141.2760 C   0  0  0  0  0  0  0  0  0  0  0  0
  188.1150  178.0500  141.2020 O   0  0  0  0  0  1  0  0  0  0  0  0
  186.0380  177.6150  140.3420 O   0  0  0  0  0  0  0  0  0  0  0  0
  185.7940  176.7300  143.3510 C   0  0  0  0  0  2  0  0  0  0  0  0
  186.0600  178.0640  144.0310 C   0  0  0  0  0  2  0  0  0  0  0  0
  185.1750  178.1940  145.2550 C   0  0  0  0  0  2  0  0  0  0  0  0
  185.3170  176.7100  146.2930 S   0  0  0  0  0  0  0  0  0  0  0  0
  186.9340  177.1940  146.9630 C   0  0  0  0  0  2  0  0  0  0  0  0
  187.9270  176.0630  146.7610 C   0  0  0  0  0  2  0  0  0  0  0  0
  189.2940  176.6160  146.5460 C   0  0  0  0  0  0  0  0  0  0  0  0
  189.4340  177.7430  145.8510 C   0  0  0  0  0  2  0  0  0  0  0  0
  190.4260  175.9460  147.1140 N   0  0  0  0  0  2  0  0  0  0  0  0
  191.0680  174.8010  146.4840 C   0  0  0  0  0  2  0  0  0  0  0  0
  192.9730  176.3950  146.6490 C   0  0  0  0  0  1  0  0  0  0  0  0
  192.5770  174.9330  146.5670 C   0  0  0  0  0  2  0  0  0  0  0  0
  2  1  2  0  0  0  0
  3 15  1  1  0  0  0
  3  5  1  0  0  0  0
  5  2  1  0  0  0  0
  5  4  1  1  0  0  0
  6  7  1  6  0  0  0
  6  3  1  0  0  0  0
  6  5  1  0  0  0  0
  8  7  2  0  0  0  0
  9  7  1  0  0  0  0
 10  9  1  0  0  0  0
 11 10  1  0  0  0  0
 12 13  1  0  0  0  0
 13 11  1  0  0  0  0
 15 14  1  1  0  0  0
 15 19  1  0  0  0  0
 16 18  2  0  0  0  0
 17 18  1  0  0  0  0
 18 15  1  0  0  0  0
 19 20  1  0  0  0  0
 20 21  1  1  0  0  0
 23 20  1  0  0  0  0
 23 22  1  0  0  0  0
 24  2  1  0  0  0  0
 25 26  1  6  0  0  0
 25 24  1  0  0  0  0
 25 27  1  0  0  0  0
 28 27  1  1  0  0  0
 28 32  1  0  0  0  0
 29 28  1  0  0  0  0
 30 29  1  0  0  0  0
 31 29  2  0  0  0  0
 32 33  1  0  0  0  0
 33 34  1  0  0  0  0
 34 35  1  0  0  0  0
 35 36  1  0  0  0  0
 37 36  1  0  0  0  0
 38 37  1  0  0  0  0
 38 40  1  0  0  0  0
 39 38  2  0  0  0  0
 41 43  1  0  0  0  0
 41 40  1  0  0  0  0
 43 42  1  0  0  0  0
M  END
>  <MODEL>
4

>  <REMARK>
 VINA RESULT:      -4.4      2.403      4.316
  Name = 
  26 active torsions:
  status: ('A' for Active; 'I' for Inactive)
    1  A    between atoms: C_1  and  C_2
    2  A    between atoms: C_1  and  C_12
    3  A    between atoms: C_2  and  C_19
    4  A    between atoms: C_4  and  C_34
    5  A    between atoms: C_5  and  N_30
    6  A    between atoms: C_5  and  C_32
    7  A    between atoms: C_9  and  C_24
    8  A    between atoms: C_9  and  C_29
    9  A    between atoms: C_10  and  C_29
   10  A    between atoms: C_12  and  C_35
   11  A    between atoms: C_13  and  C_36
   12  A    between atoms: C_14  and  C_22
   13  A    between atoms: C_14  and  C_29
   14  A    between atoms: C_15  and  C_22
   15  A    between atoms: C_15  and  S_37
   16  A    between atoms: O_17  and  C_41
   17  A    between atoms: C_19  and  O_21
   18  A    between atoms: C_20  and  C_24
   19  A    between atoms: C_20  and  C_36
   20  A    between atoms: C_25  and  C_34
   21  A    between atoms: C_25  and  C_41
   22  A    between atoms: N_30  and  C_43
   23  A    between atoms: C_31  and  C_32
   24  A    between atoms: C_31  and  S_37
   25  A    between atoms: C_34  and  C_39
   26  A    between atoms: C_40  and  C_43
                            x       y       z     vdW  Elec       q    Type
                         _______ _______ _______ _____ _____    ______ ____

>  <TORSDO>
F 26

$$$$
=
 OpenBabel11062422303D

 43 43  0  0  1  0  0  0  0  0999 V2000
  190.4560  177.6630  143.3760 O   0  0  0  0  0  0  0  0  0  0  0  0
  190.0330  176.5170  143.3260 C   0  0  0  0  0  0  0  0  0  0  0  0
  187.7080  177.4490  143.8350 C   0  0  2  0  0  3  0  0  0  0  0  0
  187.9960  175.3550  142.2580 C   0  0  0  0  0  1  0  0  0  0  0  0
  188.5470  176.2630  143.3450 C   0  0  1  0  0  0  0  0  0  0  0  0
  187.8080  176.1760  144.6860 C   0  0  1  0  0  3  0  0  0  0  0  0
  188.6910  176.3550  145.9000 C   0  0  0  0  0  0  0  0  0  0  0  0
  188.4420  177.3270  146.7830 C   0  0  0  0  0  2  0  0  0  0  0  0
  189.4610  175.1600  146.3650 C   0  0  0  0  0  2  0  0  0  0  0  0
  190.4990  175.5420  147.4080 C   0  0  0  0  0  2  0  0  0  0  0  0
  191.7560  176.0970  146.7570 C   0  0  0  0  0  2  0  0  0  0  0  0
  193.9460  175.9330  146.5390 C   0  0  0  0  0  1  0  0  0  0  0  0
  192.8180  175.2020  146.9120 O   0  0  0  0  0  0  0  0  0  0  0  0
  185.5500  176.4880  143.1370 O   0  0  0  0  0  1  0  0  0  0  0  0
  186.2630  177.6840  143.3070 C   0  0  1  0  0  0  0  0  0  0  0  0
  184.8470  178.0190  145.3280 C   0  0  0  0  0  2  0  0  0  0  0  0
  185.5310  180.0470  144.1860 C   0  0  0  0  0  1  0  0  0  0  0  0
  185.5260  178.5570  144.3090 C   0  0  0  0  0  0  0  0  0  0  0  0
  186.3180  178.4420  141.9730 C   0  0  0  0  0  2  0  0  0  0  0  0
  185.4680  177.8300  140.8710 C   0  0  2  0  0  3  0  0  0  0  0  0
  186.3040  177.4430  139.8210 O   0  0  0  0  0  1  0  0  0  0  0  0
  183.2940  178.2110  140.6330 C   0  0  0  0  0  1  0  0  0  0  0  0
  184.5500  178.7780  140.4100 O   0  0  0  0  0  0  0  0  0  0  0  0
  190.9770  175.3680  143.0890 C   0  0  0  0  0  2  0  0  0  0  0  0
  192.4470  175.7710  143.1810 C   0  0  2  0  0  3  0  0  0  0  0  0
  192.5330  177.1420  143.4320 O   0  0  0  0  0  1  0  0  0  0  0  0
  193.1190  175.4630  141.8510 C   0  0  0  0  0  2  0  0  0  0  0  0
  194.3300  174.5570  142.0490 C   0  0  2  0  0  3  0  0  0  0  0  0
  195.6130  175.3180  141.9560 C   0  0  0  0  0  0  0  0  0  0  0  0
  196.6970  174.7410  142.2280 O   0  0  0  0  0  1  0  0  0  0  0  0
  195.6260  176.6400  141.5280 O   0  0  0  0  0  0  0  0  0  0  0  0
  194.3080  173.3400  141.1230 C   0  0  0  0  0  2  0  0  0  0  0  0
  192.9730  173.1760  140.4120 C   0  0  0  0  0  2  0  0  0  0  0  0
  192.5370  171.7270  140.4830 C   0  0  0  0  0  2  0  0  0  0  0  0
  193.9410  170.6710  140.9430 S   0  0  0  0  0  0  0  0  0  0  0  0
  193.0030  169.7790  142.2160 C   0  0  0  0  0  2  0  0  0  0  0  0
  192.2910  170.7750  143.1140 C   0  0  0  0  0  2  0  0  0  0  0  0
  193.2070  171.2320  144.1970 C   0  0  0  0  0  0  0  0  0  0  0  0
  192.9940  172.4150  144.7680 C   0  0  0  0  0  2  0  0  0  0  0  0
  194.2760  170.3800  144.6270 N   0  0  0  0  0  2  0  0  0  0  0  0
  194.8280  170.4190  145.9740 C   0  0  0  0  0  2  0  0  0  0  0  0
  197.2350  169.7870  145.9710 C   0  0  0  0  0  1  0  0  0  0  0  0
  196.2520  170.9410  145.9440 C   0  0  0  0  0  2  0  0  0  0  0  0
  2  5  1  0  0  0  0
  2  1  2  0  0  0  0
  3 15  1  6  0  0  0
  3  6  1  0  0  0  0
  5  4  1  6  0  0  0
  5  3  1  0  0  0  0
  5  6  1  0  0  0  0
  6  7  1  1  0  0  0
  7  9  1  0  0  0  0
  7  8  2  0  0  0  0
  9 10  1  0  0  0  0
 11 13  1  0  0  0  0
 11 10  1  0  0  0  0
 12 13  1  0  0  0  0
 15 14  1  6  0  0  0
 15 18  1  0  0  0  0
 17 18  1  0  0  0  0
 18 16  2  0  0  0  0
 19 15  1  0  0  0  0
 20 21  1  6  0  0  0
 20 19  1  0  0  0  0
 23 22  1  0  0  0  0
 23 20  1  0  0  0  0
 24 25  1  0  0  0  0
 24  2  1  0  0  0  0
 25 26  1  6  0  0  0
 27 28  1  0  0  0  0
 27 25  1  0  0  0  0
 28 32  1  6  0  0  0
 29 28  1  0  0  0  0
 29 30  1  0  0  0  0
 31 29  2  0  0  0  0
 33 34  1  0  0  0  0
 33 32  1  0  0  0  0
 34 35  1  0  0  0  0
 35 36  1  0  0  0  0
 36 37  1  0  0  0  0
 37 38  1  0  0  0  0
 38 40  1  0  0  0  0
 38 39  2  0  0  0  0
 40 41  1  0  0  0  0
 43 42  1  0  0  0  0
 43 41  1  0  0  0  0
M  END
>  <MODEL>
5

>  <REMARK>
 VINA RESULT:      -4.3      3.596      9.160
  Name = 
  26 active torsions:
  status: ('A' for Active; 'I' for Inactive)
    1  A    between atoms: C_1  and  C_2
    2  A    between atoms: C_1  and  C_12
    3  A    between atoms: C_2  and  C_19
    4  A    between atoms: C_4  and  C_34
    5  A    between atoms: C_5  and  N_30
    6  A    between atoms: C_5  and  C_32
    7  A    between atoms: C_9  and  C_24
    8  A    between atoms: C_9  and  C_29
    9  A    between atoms: C_10  and  C_29
   10  A    between atoms: C_12  and  C_35
   11  A    between atoms: C_13  and  C_36
   12  A    between atoms: C_14  and  C_22
   13  A    between atoms: C_14  and  C_29
   14  A    between atoms: C_15  and  C_22
   15  A    between atoms: C_15  and  S_37
   16  A    between atoms: O_17  and  C_41
   17  A    between atoms: C_19  and  O_21
   18  A    between atoms: C_20  and  C_24
   19  A    between atoms: C_20  and  C_36
   20  A    between atoms: C_25  and  C_34
   21  A    between atoms: C_25  and  C_41
   22  A    between atoms: N_30  and  C_43
   23  A    between atoms: C_31  and  C_32
   24  A    between atoms: C_31  and  S_37
   25  A    between atoms: C_34  and  C_39
   26  A    between atoms: C_40  and  C_43
                            x       y       z     vdW  Elec       q    Type
                         _______ _______ _______ _____ _____    ______ ____

>  <TORSDO>
F 26

$$$$
=
 OpenBabel11062422303D

 43 43  0  0  1  0  0  0  0  0999 V2000
  188.5440  176.3280  141.7300 O   0  0  0  0  0  0  0  0  0  0  0  0
  189.0360  175.7630  142.6960 C   0  0  0  0  0  0  0  0  0  0  0  0
  190.1670  175.8910  144.9850 C   0  0  2  0  0  3  0  0  0  0  0  0
  191.1860  177.1670  142.9140 C   0  0  0  0  0  1  0  0  0  0  0  0
  189.9970  176.5050  143.5900 C   0  0  1  0  0  0  0  0  0  0  0  0
  189.4680  177.2480  144.8240 C   0  0  1  0  0  3  0  0  0  0  0  0
  187.9720  177.1570  145.0150 C   0  0  0  0  0  0  0  0  0  0  0  0
  187.4600  176.6050  146.1190 C   0  0  0  0  0  2  0  0  0  0  0  0
  187.1280  178.1350  144.2600 C   0  0  0  0  0  2  0  0  0  0  0  0
  185.7680  177.5460  143.9200 C   0  0  0  0  0  2  0  0  0  0  0  0
  184.6490  178.5250  144.2340 C   0  0  0  0  0  2  0  0  0  0  0  0
  184.1490  178.3660  146.3770 C   0  0  0  0  0  1  0  0  0  0  0  0
  184.8730  179.1380  145.4690 O   0  0  0  0  0  0  0  0  0  0  0  0
  192.2600  177.1340  145.3620 O   0  0  0  0  0  1  0  0  0  0  0  0
  191.5110  176.0170  145.7590 C   0  0  1  0  0  0  0  0  0  0  0  0
  191.2300  175.0720  148.0470 C   0  0  0  0  0  2  0  0  0  0  0  0
  190.8350  177.4570  147.8490 C   0  0  0  0  0  1  0  0  0  0  0  0
  191.1960  176.1390  147.2420 C   0  0  0  0  0  0  0  0  0  0  0  0
  192.3440  174.7430  145.5580 C   0  0  0  0  0  2  0  0  0  0  0  0
  193.5050  174.9020  144.5900 C   0  0  2  0  0  3  0  0  0  0  0  0
  193.1660  174.2970  143.3770 O   0  0  0  0  0  1  0  0  0  0  0  0
  195.2200  175.2310  145.9610 C   0  0  0  0  0  1  0  0  0  0  0  0
  194.6400  174.2810  145.1180 O   0  0  0  0  0  0  0  0  0  0  0  0
  188.5730  174.3860  143.0880 C   0  0  0  0  0  2  0  0  0  0  0  0
  188.6630  173.3740  141.9480 C   0  0  2  0  0  3  0  0  0  0  0  0
  187.4410  172.7080  141.8280 O   0  0  0  0  0  1  0  0  0  0  0  0
  189.7520  172.3650  142.2800 C   0  0  0  0  0  2  0  0  0  0  0  0
  190.7150  172.1980  141.1090 C   0  0  2  0  0  3  0  0  0  0  0  0
  192.0000  171.5650  141.5340 C   0  0  0  0  0  0  0  0  0  0  0  0
  193.0450  171.7760  140.8660 O   0  0  0  0  0  0  0  0  0  0  0  0
  192.0630  170.7850  142.6820 O   0  0  0  0  0  1  0  0  0  0  0  0
  190.9360  173.5040  140.3430 C   0  0  0  0  0  2  0  0  0  0  0  0
  190.7660  173.3310  138.8410 C   0  0  0  0  0  2  0  0  0  0  0  0
  189.3760  173.7770  138.4360 C   0  0  0  0  0  2  0  0  0  0  0  0
  189.3010  174.0480  136.6410 S   0  0  0  0  0  0  0  0  0  0  0  0
  190.9250  173.2910  136.3430 C   0  0  0  0  0  2  0  0  0  0  0  0
  190.7680  172.1010  135.4140 C   0  0  0  0  0  2  0  0  0  0  0  0
  191.6030  170.9640  135.8930 C   0  0  0  0  0  0  0  0  0  0  0  0
  192.9280  171.0460  135.7890 C   0  0  0  0  0  2  0  0  0  0  0  0
  190.9730  169.8220  136.4850 N   0  0  0  0  0  2  0  0  0  0  0  0
  189.8540  169.9260  137.4110 C   0  0  0  0  0  2  0  0  0  0  0  0
  191.7270  169.0480  138.7950 C   0  0  0  0  0  1  0  0  0  0  0  0
  190.2550  169.4110  138.7810 C   0  0  0  0  0  2  0  0  0  0  0  0
  1  2  2  0  0  0  0
  2 24  1  0  0  0  0
  2  5  1  0  0  0  0
  3 15  1  1  0  0  0
  5  4  1  6  0  0  0
  5  6  1  0  0  0  0
  5  3  1  0  0  0  0
  6  3  1  0  0  0  0
  6  7  1  6  0  0  0
  7  8  2  0  0  0  0
  9  7  1  0  0  0  0
 10 11  1  0  0  0  0
 10  9  1  0  0  0  0
 11 13  1  0  0  0  0
 13 12  1  0  0  0  0
 15 14  1  6  0  0  0
 15 18  1  0  0  0  0
 18 17  1  0  0  0  0
 18 16  2  0  0  0  0
 19 15  1  0  0  0  0
 20 21  1  6  0  0  0
 20 23  1  0  0  0  0
 20 19  1  0  0  0  0
 23 22  1  0  0  0  0
 25 26  1  1  0  0  0
 25 27  1  0  0  0  0
 25 24  1  0  0  0  0
 28 32  1  1  0  0  0
 28 29  1  0  0  0  0
 28 27  1  0  0  0  0
 29 31  1  0  0  0  0
 30 29  2  0  0  0  0
 33 32  1  0  0  0  0
 34 33  1  0  0  0  0
 35 34  1  0  0  0  0
 36 35  1  0  0  0  0
 37 38  1  0  0  0  0
 37 36  1  0  0  0  0
 38 40  1  0  0  0  0
 39 38  2  0  0  0  0
 40 41  1  0  0  0  0
 41 43  1  0  0  0  0
 43 42  1  0  0  0  0
M  END
>  <MODEL>
6

>  <REMARK>
 VINA RESULT:      -4.3      3.410      7.960
  Name = 
  26 active torsions:
  status: ('A' for Active; 'I' for Inactive)
    1  A    between atoms: C_1  and  C_2
    2  A    between atoms: C_1  and  C_12
    3  A    between atoms: C_2  and  C_19
    4  A    between atoms: C_4  and  C_34
    5  A    between atoms: C_5  and  N_30
    6  A    between atoms: C_5  and  C_32
    7  A    between atoms: C_9  and  C_24
    8  A    between atoms: C_9  and  C_29
    9  A    between atoms: C_10  and  C_29
   10  A    between atoms: C_12  and  C_35
   11  A    between atoms: C_13  and  C_36
   12  A    between atoms: C_14  and  C_22
   13  A    between atoms: C_14  and  C_29
   14  A    between atoms: C_15  and  C_22
   15  A    between atoms: C_15  and  S_37
   16  A    between atoms: O_17  and  C_41
   17  A    between atoms: C_19  and  O_21
   18  A    between atoms: C_20  and  C_24
   19  A    between atoms: C_20  and  C_36
   20  A    between atoms: C_25  and  C_34
   21  A    between atoms: C_25  and  C_41
   22  A    between atoms: N_30  and  C_43
   23  A    between atoms: C_31  and  C_32
   24  A    between atoms: C_31  and  S_37
   25  A    between atoms: C_34  and  C_39
   26  A    between atoms: C_40  and  C_43
                            x       y       z     vdW  Elec       q    Type
                         _______ _______ _______ _____ _____    ______ ____

>  <TORSDO>
F 26

$$$$
=
 OpenBabel11062422303D

 43 43  0  0  1  0  0  0  0  0999 V2000
  187.5480  177.0870  140.9560 O   0  0  0  0  0  0  0  0  0  0  0  0
  188.1530  176.4360  141.7960 C   0  0  0  0  0  0  0  0  0  0  0  0
  188.7780  176.4250  144.2750 C   0  0  2  0  0  3  0  0  0  0  0  0
  190.1320  177.8990  142.5580 C   0  0  0  0  0  1  0  0  0  0  0  0
  188.8670  177.1410  142.9220 C   0  0  1  0  0  0  0  0  0  0  0  0
  188.0550  177.7620  144.0650 C   0  0  1  0  0  3  0  0  0  0  0  0
  186.5590  177.5990  143.9310 C   0  0  0  0  0  0  0  0  0  0  0  0
  185.8960  176.7440  144.7160 C   0  0  0  0  0  2  0  0  0  0  0  0
  185.8000  178.7410  143.3330 C   0  0  0  0  0  2  0  0  0  0  0  0
  184.3290  178.6880  143.7150 C   0  0  0  0  0  2  0  0  0  0  0  0
  183.4580  178.3710  142.5100 C   0  0  0  0  0  2  0  0  0  0  0  0
  183.3060  178.1390  140.3200 C   0  0  0  0  0  1  0  0  0  0  0  0
  184.2190  178.4100  141.3380 O   0  0  0  0  0  0  0  0  0  0  0  0
  190.5730  177.7830  145.2760 O   0  0  0  0  0  1  0  0  0  0  0  0
  189.9240  176.5400  145.3210 C   0  0  1  0  0  0  0  0  0  0  0  0
  188.9790  175.1350  147.1470 C   0  0  0  0  0  2  0  0  0  0  0  0
  189.1030  177.5110  147.6180 C   0  0  0  0  0  1  0  0  0  0  0  0
  189.3260  176.3480  146.7050 C   0  0  0  0  0  0  0  0  0  0  0  0
  190.9480  175.4190  145.0910 C   0  0  0  0  0  2  0  0  0  0  0  0
  192.3240  175.7000  145.6750 C   0  0  2  0  0  3  0  0  0  0  0  0
  193.2440  175.8020  144.6290 O   0  0  0  0  0  1  0  0  0  0  0  0
  193.5650  173.8620  145.7660 C   0  0  0  0  0  1  0  0  0  0  0  0
  192.6940  174.6510  146.5200 O   0  0  0  0  0  0  0  0  0  0  0  0
  188.0610  174.9330  141.8030 C   0  0  0  0  0  2  0  0  0  0  0  0
  188.8960  174.2750  140.7080 C   0  0  2  0  0  3  0  0  0  0  0  0
  188.1840  174.3060  139.5070 O   0  0  0  0  0  1  0  0  0  0  0  0
  189.1540  172.8270  141.0990 C   0  0  0  0  0  2  0  0  0  0  0  0
  190.6480  172.5210  141.0990 C   0  0  2  0  0  3  0  0  0  0  0  0
  191.2440  172.6710  142.4620 C   0  0  0  0  0  0  0  0  0  0  0  0
  190.6440  172.1890  143.4570 O   0  0  0  0  0  1  0  0  0  0  0  0
  192.4740  173.2940  142.6340 O   0  0  0  0  0  0  0  0  0  0  0  0
  191.4100  173.3210  140.0410 C   0  0  0  0  0  2  0  0  0  0  0  0
  192.5670  172.5360  139.4420 C   0  0  0  0  0  2  0  0  0  0  0  0
  193.5940  173.4990  138.8800 C   0  0  0  0  0  2  0  0  0  0  0  0
  194.6380  172.6590  137.6550 S   0  0  0  0  0  0  0  0  0  0  0  0
  196.0790  173.7120  137.9910 C   0  0  0  0  0  2  0  0  0  0  0  0
  195.6210  175.0100  138.6310 C   0  0  0  0  0  2  0  0  0  0  0  0
  196.6240  175.4660  139.6350 C   0  0  0  0  0  0  0  0  0  0  0  0
  197.9160  175.2470  139.4040 C   0  0  0  0  0  2  0  0  0  0  0  0
  196.1850  176.1580  140.8100 N   0  0  0  0  0  2  0  0  0  0  0  0
  195.1760  175.6230  141.7140 C   0  0  0  0  0  2  0  0  0  0  0  0
  196.9310  175.0920  143.3970 C   0  0  0  0  0  1  0  0  0  0  0  0
  195.7750  174.5370  142.5870 C   0  0  0  0  0  2  0  0  0  0  0  0
  1  2  2  0  0  0  0
  2 24  1  0  0  0  0
  2  5  1  0  0  0  0
  3 15  1  1  0  0  0
  5  4  1  6  0  0  0
  5  6  1  0  0  0  0
  5  3  1  0  0  0  0
  6  7  1  6  0  0  0
  6  3  1  0  0  0  0
  7  8  2  0  0  0  0
  9 10  1  0  0  0  0
  9  7  1  0  0  0  0
 11 10  1  0  0  0  0
 12 13  1  0  0  0  0
 13 11  1  0  0  0  0
 15 14  1  6  0  0  0
 15 18  1  0  0  0  0
 18 16  2  0  0  0  0
 18 17  1  0  0  0  0
 19 15  1  0  0  0  0
 19 20  1  0  0  0  0
 20 21  1  6  0  0  0
 20 23  1  0  0  0  0
 22 23  1  0  0  0  0
 25 26  1  6  0  0  0
 25 27  1  0  0  0  0
 25 24  1  0  0  0  0
 27 28  1  0  0  0  0
 28 32  1  6  0  0  0
 28 29  1  0  0  0  0
 29 31  2  0  0  0  0
 29 30  1  0  0  0  0
 33 32  1  0  0  0  0
 34 33  1  0  0  0  0
 35 36  1  0  0  0  0
 35 34  1  0  0  0  0
 36 37  1  0  0  0  0
 37 38  1  0  0  0  0
 38 40  1  0  0  0  0
 39 38  2  0  0  0  0
 40 41  1  0  0  0  0
 41 43  1  0  0  0  0
 43 42  1  0  0  0  0
M  END
>  <MODEL>
7

>  <REMARK>
 VINA RESULT:      -4.2      3.411      8.432
  Name = 
  26 active torsions:
  status: ('A' for Active; 'I' for Inactive)
    1  A    between atoms: C_1  and  C_2
    2  A    between atoms: C_1  and  C_12
    3  A    between atoms: C_2  and  C_19
    4  A    between atoms: C_4  and  C_34
    5  A    between atoms: C_5  and  N_30
    6  A    between atoms: C_5  and  C_32
    7  A    between atoms: C_9  and  C_24
    8  A    between atoms: C_9  and  C_29
    9  A    between atoms: C_10  and  C_29
   10  A    between atoms: C_12  and  C_35
   11  A    between atoms: C_13  and  C_36
   12  A    between atoms: C_14  and  C_22
   13  A    between atoms: C_14  and  C_29
   14  A    between atoms: C_15  and  C_22
   15  A    between atoms: C_15  and  S_37
   16  A    between atoms: O_17  and  C_41
   17  A    between atoms: C_19  and  O_21
   18  A    between atoms: C_20  and  C_24
   19  A    between atoms: C_20  and  C_36
   20  A    between atoms: C_25  and  C_34
   21  A    between atoms: C_25  and  C_41
   22  A    between atoms: N_30  and  C_43
   23  A    between atoms: C_31  and  C_32
   24  A    between atoms: C_31  and  S_37
   25  A    between atoms: C_34  and  C_39
   26  A    between atoms: C_40  and  C_43
                            x       y       z     vdW  Elec       q    Type
                         _______ _______ _______ _____ _____    ______ ____

>  <TORSDO>
F 26

$$$$
=
 OpenBabel11062422303D

 43 43  0  0  1  0  0  0  0  0999 V2000
  190.8180  172.0830  141.9580 O   0  0  0  0  0  0  0  0  0  0  0  0
  191.5590  172.5690  142.8000 C   0  0  0  0  0  0  0  0  0  0  0  0
  193.9000  173.0070  143.7310 C   0  0  2  0  0  3  0  0  0  0  0  0
  193.1870  170.5800  142.9840 C   0  0  0  0  0  1  0  0  0  0  0  0
  192.9820  172.0840  142.9200 C   0  0  1  0  0  0  0  0  0  0  0  0
  194.1080  172.8540  142.2180 C   0  0  1  0  0  3  0  0  0  0  0  0
  193.6490  174.0660  141.4420 C   0  0  0  0  0  0  0  0  0  0  0  0
  192.9000  173.9250  140.3440 C   0  0  0  0  0  2  0  0  0  0  0  0
  193.5740  175.3630  142.1840 C   0  0  0  0  0  2  0  0  0  0  0  0
  194.3020  176.4700  141.4380 C   0  0  0  0  0  2  0  0  0  0  0  0
  195.7800  176.1500  141.2790 C   0  0  0  0  0  2  0  0  0  0  0  0
  196.9250  176.5670  143.1190 C   0  0  0  0  0  1  0  0  0  0  0  0
  196.5570  177.1320  141.8990 O   0  0  0  0  0  0  0  0  0  0  0  0
  196.0330  171.7760  143.7360 O   0  0  0  0  0  1  0  0  0  0  0  0
  195.0960  172.4360  144.5450 C   0  0  1  0  0  0  0  0  0  0  0  0
  197.1050  173.5830  145.4670 C   0  0  0  0  0  2  0  0  0  0  0  0
  195.0100  174.7750  145.7350 C   0  0  0  0  0  1  0  0  0  0  0  0
  195.7860  173.5910  145.2520 C   0  0  0  0  0  0  0  0  0  0  0  0
  194.5760  171.4700  145.6190 C   0  0  0  0  0  2  0  0  0  0  0  0
  195.3920  170.1940  145.7590 C   0  0  2  0  0  3  0  0  0  0  0  0
  194.5630  169.1810  146.2480 O   0  0  0  0  0  1  0  0  0  0  0  0
  196.8050  169.1390  147.1090 C   0  0  0  0  0  1  0  0  0  0  0  0
  196.4420  170.4090  146.6560 O   0  0  0  0  0  0  0  0  0  0  0  0
  191.1090  173.7540  143.6130 C   0  0  0  0  0  2  0  0  0  0  0  0
  190.6610  173.3780  145.0230 C   0  0  2  0  0  3  0  0  0  0  0  0
  189.6520  172.4170  144.9430 O   0  0  0  0  0  1  0  0  0  0  0  0
  190.1110  174.6230  145.7050 C   0  0  0  0  0  2  0  0  0  0  0  0
  191.1550  175.7350  145.7300 C   0  0  2  0  0  3  0  0  0  0  0  0
  191.7050  175.9480  147.1040 C   0  0  0  0  0  0  0  0  0  0  0  0
  192.6590  176.7490  147.2710 O   0  0  0  0  0  0  0  0  0  0  0  0
  191.1440  175.3060  148.2010 O   0  0  0  0  0  1  0  0  0  0  0  0
  190.6420  177.0330  145.1030 C   0  0  0  0  0  2  0  0  0  0  0  0
  189.2290  177.3750  145.5510 C   0  0  0  0  0  2  0  0  0  0  0  0
  188.4340  177.8880  144.3670 C   0  0  0  0  0  2  0  0  0  0  0  0
  187.3330  176.5870  143.7390 S   0  0  0  0  0  0  0  0  0  0  0  0
  186.4220  177.7220  142.6530 C   0  0  0  0  0  2  0  0  0  0  0  0
  184.9970  177.8710  143.1550 C   0  0  0  0  0  2  0  0  0  0  0  0
  184.9170  178.9870  144.1400 C   0  0  0  0  0  0  0  0  0  0  0  0
  185.5730  180.1180  143.8900 C   0  0  0  0  0  2  0  0  0  0  0  0
  184.1120  178.8370  145.3160 N   0  0  0  0  0  2  0  0  0  0  0  0
  184.4550  177.9270  146.3990 C   0  0  0  0  0  2  0  0  0  0  0  0
  186.0460  177.5130  148.2670 C   0  0  0  0  0  1  0  0  0  0  0  0
  185.7980  178.3010  146.9960 C   0  0  0  0  0  2  0  0  0  0  0  0
  1  2  2  0  0  0  0
  2  5  1  0  0  0  0
  2 24  1  0  0  0  0
  3 15  1  1  0  0  0
  5  4  1  1  0  0  0
  5  3  1  0  0  0  0
  6  7  1  6  0  0  0
  6  5  1  0  0  0  0
  6  3  1  0  0  0  0
  7  9  1  0  0  0  0
  8  7  2  0  0  0  0
 10  9  1  0  0  0  0
 11 10  1  0  0  0  0
 11 13  1  0  0  0  0
 13 12  1  0  0  0  0
 15 14  1  6  0  0  0
 15 18  1  0  0  0  0
 15 19  1  0  0  0  0
 18 16  2  0  0  0  0
 18 17  1  0  0  0  0
 19 20  1  0  0  0  0
 20 21  1  1  0  0  0
 20 23  1  0  0  0  0
 23 22  1  0  0  0  0
 24 25  1  0  0  0  0
 25 26  1  6  0  0  0
 25 27  1  0  0  0  0
 27 28  1  0  0  0  0
 28 32  1  1  0  0  0
 28 29  1  0  0  0  0
 29 30  2  0  0  0  0
 29 31  1  0  0  0  0
 32 33  1  0  0  0  0
 34 33  1  0  0  0  0
 35 34  1  0  0  0  0
 36 37  1  0  0  0  0
 36 35  1  0  0  0  0
 37 38  1  0  0  0  0
 38 40  1  0  0  0  0
 39 38  2  0  0  0  0
 40 41  1  0  0  0  0
 41 43  1  0  0  0  0
 43 42  1  0  0  0  0
M  END
>  <MODEL>
8

>  <REMARK>
 VINA RESULT:      -4.2      2.322      4.323
  Name = 
  26 active torsions:
  status: ('A' for Active; 'I' for Inactive)
    1  A    between atoms: C_1  and  C_2
    2  A    between atoms: C_1  and  C_12
    3  A    between atoms: C_2  and  C_19
    4  A    between atoms: C_4  and  C_34
    5  A    between atoms: C_5  and  N_30
    6  A    between atoms: C_5  and  C_32
    7  A    between atoms: C_9  and  C_24
    8  A    between atoms: C_9  and  C_29
    9  A    between atoms: C_10  and  C_29
   10  A    between atoms: C_12  and  C_35
   11  A    between atoms: C_13  and  C_36
   12  A    between atoms: C_14  and  C_22
   13  A    between atoms: C_14  and  C_29
   14  A    between atoms: C_15  and  C_22
   15  A    between atoms: C_15  and  S_37
   16  A    between atoms: O_17  and  C_41
   17  A    between atoms: C_19  and  O_21
   18  A    between atoms: C_20  and  C_24
   19  A    between atoms: C_20  and  C_36
   20  A    between atoms: C_25  and  C_34
   21  A    between atoms: C_25  and  C_41
   22  A    between atoms: N_30  and  C_43
   23  A    between atoms: C_31  and  C_32
   24  A    between atoms: C_31  and  S_37
   25  A    between atoms: C_34  and  C_39
   26  A    between atoms: C_40  and  C_43
                            x       y       z     vdW  Elec       q    Type
                         _______ _______ _______ _____ _____    ______ ____

>  <TORSDO>
F 26

$$$$
=
 OpenBabel11062422303D

 43 43  0  0  1  0  0  0  0  0999 V2000
  190.0100  171.1670  142.3820 O   0  0  0  0  0  0  0  0  0  0  0  0
  190.8170  171.9460  142.8660 C   0  0  0  0  0  0  0  0  0  0  0  0
  193.1520  172.9870  142.7930 C   0  0  2  0  0  3  0  0  0  0  0  0
  192.8530  170.3870  143.1170 C   0  0  0  0  0  1  0  0  0  0  0  0
  192.2950  171.7230  142.6580 C   0  0  1  0  0  0  0  0  0  0  0  0
  192.9860  172.3150  141.4240 C   0  0  1  0  0  3  0  0  0  0  0  0
  192.0700  173.0870  140.5030 C   0  0  0  0  0  0  0  0  0  0  0  0
  192.1520  174.4190  140.4250 C   0  0  0  0  0  2  0  0  0  0  0  0
  191.4910  172.3480  139.3390 C   0  0  0  0  0  2  0  0  0  0  0  0
  190.2500  173.0430  138.8040 C   0  0  0  0  0  2  0  0  0  0  0  0
  188.9840  172.3180  139.2320 C   0  0  0  0  0  2  0  0  0  0  0  0
  188.3010  173.9380  137.8990 C   0  0  0  0  0  1  0  0  0  0  0  0
  187.8570  173.0720  138.8980 O   0  0  0  0  0  0  0  0  0  0  0  0
  195.3460  171.8710  142.7080 O   0  0  0  0  0  1  0  0  0  0  0  0
  194.6190  172.9110  143.3060 C   0  0  1  0  0  0  0  0  0  0  0  0
  196.5790  174.2740  142.5960 C   0  0  0  0  0  2  0  0  0  0  0  0
  194.5690  175.5300  143.1160 C   0  0  0  0  0  1  0  0  0  0  0  0
  195.3020  174.2320  142.9910 C   0  0  0  0  0  0  0  0  0  0  0  0
  194.6250  172.7300  144.8300 C   0  0  0  0  0  2  0  0  0  0  0  0
  195.4830  171.5740  145.3190 C   0  0  2  0  0  3  0  0  0  0  0  0
  194.6750  170.6830  146.0300 O   0  0  0  0  0  1  0  0  0  0  0  0
  197.5700  172.3300  145.3190 C   0  0  0  0  0  1  0  0  0  0  0  0
  196.4880  172.0620  146.1590 O   0  0  0  0  0  0  0  0  0  0  0  0
  190.3470  173.2100  143.5340 C   0  0  0  0  0  2  0  0  0  0  0  0
  190.1460  173.0540  145.0400 C   0  0  2  0  0  3  0  0  0  0  0  0
  189.3500  171.9330  145.2820 O   0  0  0  0  0  1  0  0  0  0  0  0
  189.4380  174.2940  145.5660 C   0  0  0  0  0  2  0  0  0  0  0  0
  189.8190  175.5250  144.7510 C   0  0  2  0  0  3  0  0  0  0  0  0
  190.7280  176.4350  145.5130 C   0  0  0  0  0  0  0  0  0  0  0  0
  191.5970  177.1020  144.8950 O   0  0  0  0  0  0  0  0  0  0  0  0
  190.5920  176.5870  146.8870 O   0  0  0  0  0  1  0  0  0  0  0  0
  188.5980  176.2590  144.1920 C   0  0  0  0  0  2  0  0  0  0  0  0
  188.5160  176.1770  142.6750 C   0  0  0  0  0  2  0  0  0  0  0  0
  188.5490  177.5750  142.0910 C   0  0  0  0  0  2  0  0  0  0  0  0
  187.0930  177.8510  141.0420 S   0  0  0  0  0  0  0  0  0  0  0  0
  186.1630  178.6930  142.3550 C   0  0  0  0  0  2  0  0  0  0  0  0
  185.0710  177.7740  142.8740 C   0  0  0  0  0  2  0  0  0  0  0  0
  184.9420  177.9160  144.3510 C   0  0  0  0  0  0  0  0  0  0  0  0
  184.4650  179.0530  144.8520 C   0  0  0  0  0  2  0  0  0  0  0  0
  185.3010  176.8210  145.2020 N   0  0  0  0  0  2  0  0  0  0  0  0
  185.1680  176.8670  146.6520 C   0  0  0  0  0  2  0  0  0  0  0  0
  186.5580  178.5100  147.9020 C   0  0  0  0  0  1  0  0  0  0  0  0
  186.5170  177.1200  147.2960 C   0  0  0  0  0  2  0  0  0  0  0  0
  1  2  2  0  0  0  0
  2 24  1  0  0  0  0
  3 15  1  1  0  0  0
  5  3  1  0  0  0  0
  5  2  1  0  0  0  0
  5  4  1  1  0  0  0
  6  7  1  6  0  0  0
  6  5  1  0  0  0  0
  6  3  1  0  0  0  0
  8  7  2  0  0  0  0
  9  7  1  0  0  0  0
 10 11  1  0  0  0  0
 10  9  1  0  0  0  0
 12 13  1  0  0  0  0
 13 11  1  0  0  0  0
 15 14  1  6  0  0  0
 15 19  1  0  0  0  0
 16 18  2  0  0  0  0
 18 17  1  0  0  0  0
 18 15  1  0  0  0  0
 19 20  1  0  0  0  0
 20 21  1  1  0  0  0
 20 23  1  0  0  0  0
 22 23  1  0  0  0  0
 24 25  1  0  0  0  0
 25 26  1  6  0  0  0
 25 27  1  0  0  0  0
 28 32  1  1  0  0  0
 28 29  1  0  0  0  0
 28 27  1  0  0  0  0
 29 31  1  0  0  0  0
 30 29  2  0  0  0  0
 33 32  1  0  0  0  0
 34 33  1  0  0  0  0
 35 34  1  0  0  0  0
 35 36  1  0  0  0  0
 36 37  1  0  0  0  0
 37 38  1  0  0  0  0
 38 39  2  0  0  0  0
 38 40  1  0  0  0  0
 40 41  1  0  0  0  0
 41 43  1  0  0  0  0
 43 42  1  0  0  0  0
M  END
>  <MODEL>
9

>  <REMARK>
 VINA RESULT:      -4.2      2.276      3.643
  Name = 
  26 active torsions:
  status: ('A' for Active; 'I' for Inactive)
    1  A    between atoms: C_1  and  C_2
    2  A    between atoms: C_1  and  C_12
    3  A    between atoms: C_2  and  C_19
    4  A    between atoms: C_4  and  C_34
    5  A    between atoms: C_5  and  N_30
    6  A    between atoms: C_5  and  C_32
    7  A    between atoms: C_9  and  C_24
    8  A    between atoms: C_9  and  C_29
    9  A    between atoms: C_10  and  C_29
   10  A    between atoms: C_12  and  C_35
   11  A    between atoms: C_13  and  C_36
   12  A    between atoms: C_14  and  C_22
   13  A    between atoms: C_14  and  C_29
   14  A    between atoms: C_15  and  C_22
   15  A    between atoms: C_15  and  S_37
   16  A    between atoms: O_17  and  C_41
   17  A    between atoms: C_19  and  O_21
   18  A    between atoms: C_20  and  C_24
   19  A    between atoms: C_20  and  C_36
   20  A    between atoms: C_25  and  C_34
   21  A    between atoms: C_25  and  C_41
   22  A    between atoms: N_30  and  C_43
   23  A    between atoms: C_31  and  C_32
   24  A    between atoms: C_31  and  S_37
   25  A    between atoms: C_34  and  C_39
   26  A    between atoms: C_40  and  C_43
                            x       y       z     vdW  Elec       q    Type
                         _______ _______ _______ _____ _____    ______ ____

>  <TORSDO>
F 26

$$$$
