=
 OpenBabel11062422023D

 35 39  0  0  1  0  0  0  0  0999 V2000
  187.3320  178.2110  144.6150 C   0  0  1  0  0  3  0  0  0  0  0  0
  188.3530  177.4920  142.6000 C   0  0  2  0  0  3  0  0  0  0  0  0
  186.6130  177.8610  140.1090 O   0  0  0  0  0  1  0  0  0  0  0  0
  187.7370  176.1170  142.3680 C   0  0  1  0  0  3  0  0  0  0  0  0
  186.4990  176.2350  141.7030 O   0  0  0  0  0  0  0  0  0  0  0  0
  186.2850  177.6040  141.4430 C   0  0  1  0  0  0  0  0  0  0  0  0
  188.6770  177.7660  144.0500 C   0  0  2  0  0  3  0  0  0  0  0  0
  186.5930  178.7860  143.5620 O   0  0  0  0  0  0  0  0  0  0  0  0
  187.2130  178.4220  142.3390 C   0  0  1  0  0  3  0  0  0  0  0  0
  190.5500  176.2610  144.0370 C   0  0  0  0  0  2  0  0  0  0  0  0
  190.6700  176.2310  146.8110 C   0  0  0  0  0  2  0  0  0  0  0  0
  192.0080  176.4630  146.0820 C   0  0  2  0  0  3  0  0  0  0  0  0
  191.8270  176.8760  144.6170 C   0  0  0  0  0  2  0  0  0  0  0  0
  189.3160  176.6430  144.7630 N   0  0  1  0  0  0  0  0  0  0  0  0
  189.5740  177.0640  146.1550 C   0  0  0  0  0  2  0  0  0  0  0  0
  194.5310  174.4500  144.6220 C   0  0  0  0  0  2  0  0  0  0  0  0
  195.2270  175.5280  145.4030 C   0  0  0  0  0  2  0  0  0  0  0  0
  192.9580  175.3440  146.2040 N   0  0  1  0  0  0  0  0  0  0  0  0
  193.0640  174.6600  144.9150 C   0  0  2  0  0  3  0  0  0  0  0  0
  194.2980  175.8200  146.5600 C   0  0  0  0  0  2  0  0  0  0  0  0
  192.3610  173.3130  144.9680 C   0  0  0  0  0  2  0  0  0  0  0  0
  193.3750  172.1850  144.9500 C   0  0  0  0  0  1  0  0  0  0  0  0
  184.8360  177.9470  141.6530 C   0  0  0  0  0  0  0  0  0  0  0  0
  184.2460  177.5820  142.7040 O   0  0  0  0  0  1  0  0  0  0  0  0
  184.1300  178.6470  140.6810 O   0  0  0  0  0  0  0  0  0  0  0  0
  188.6750  175.1660  141.6230 C   0  0  0  0  0  2  0  0  0  0  0  0
  188.8530  173.0010  142.6160 O   0  0  0  0  0  1  0  0  0  0  0  0
  188.1880  173.7190  141.6220 C   0  0  2  0  0  3  0  0  0  0  0  0
  188.2880  173.9890  139.2350 O   0  0  0  0  0  1  0  0  0  0  0  0
  188.4090  173.0550  140.2680 C   0  0  0  0  0  2  0  0  0  0  0  0
  186.5250  177.0630  145.2280 C   0  0  0  0  0  2  0  0  0  0  0  0
  184.4660  177.9450  146.4620 C   0  0  0  0  0  2  0  0  0  0  0  0
  185.5820  178.9440  146.7570 C   0  0  0  0  0  2  0  0  0  0  0  0
  185.8980  177.4850  146.5440 C   0  0  0  0  0  0  0  0  0  0  0  0
  186.1920  176.7610  147.6990 O   0  0  0  0  0  1  0  0  0  0  0  0
  1 31  1  6  0  0  0
  2  7  1  0  0  0  0
  3  6  1  0  0  0  0
  4  2  1  0  0  0  0
  5  4  1  0  0  0  0
  6 23  1  0  0  0  0
  6  5  1  0  0  0  0
  6  9  1  0  0  0  0
  7  1  1  0  0  0  0
  7 14  1  0  0  0  0
  8  1  1  0  0  0  0
  9  2  1  0  0  0  0
  9  8  1  0  0  0  0
 10 13  1  0  0  0  0
 10 14  1  0  0  0  0
 12 18  1  0  0  0  0
 12 11  1  0  0  0  0
 13 12  1  0  0  0  0
 14 15  1  0  0  0  0
 15 11  1  0  0  0  0
 16 19  1  0  0  0  0
 16 17  1  0  0  0  0
 17 20  1  0  0  0  0
 18 20  1  0  0  0  0
 19 21  1  0  0  0  0
 19 18  1  0  0  0  0
 22 21  1  0  0  0  0
 23 24  1  0  0  0  0
 25 23  2  0  0  0  0
 26  4  1  0  0  0  0
 28 26  1  0  0  0  0
 28 27  1  0  0  0  0
 29 30  1  0  0  0  0
 30 28  1  0  0  0  0
 31 34  1  0  0  0  0
 32 34  1  0  0  0  0
 32 33  1  0  0  0  0
 34 33  1  0  0  0  0
 34 35  1  0  0  0  0
M  END
>  <MODEL>
1

>  <REMARK>
 VINA RESULT:      -7.6      0.000      0.000
  Name = 
  9 active torsions:
  status: ('A' for Active; 'I' for Inactive)
    1  A    between atoms: C_2  and  C_16
    2  A    between atoms: C_2  and  C_17
    3  A    between atoms: C_4  and  C_19
    4  A    between atoms: C_5  and  C_25
    5  A    between atoms: C_10  and  C_27
    6  A    between atoms: C_13  and  N_15
    7  A    between atoms: C_16  and  C_29
    8  A    between atoms: C_19  and  C_23
    9  A    between atoms: N_24  and  C_26
                            x       y       z     vdW  Elec       q    Type
                         _______ _______ _______ _____ _____    ______ ____

>  <TORSDO>
F 9

$$$$
=
 OpenBabel11062422023D

 35 39  0  0  1  0  0  0  0  0999 V2000
  191.3790  174.9510  142.1680 C   0  0  1  0  0  3  0  0  0  0  0  0
  191.8600  176.6380  143.7630 C   0  0  2  0  0  3  0  0  0  0  0  0
  194.7770  176.6970  144.6870 O   0  0  0  0  0  1  0  0  0  0  0  0
  191.8480  175.8810  145.0860 C   0  0  1  0  0  3  0  0  0  0  0  0
  193.1040  175.2880  145.3290 O   0  0  0  0  0  0  0  0  0  0  0  0
  193.9560  175.6480  144.2650 C   0  0  1  0  0  0  0  0  0  0  0  0
  190.7740  176.1960  142.8100 C   0  0  2  0  0  3  0  0  0  0  0  0
  192.7810  175.0930  142.1930 O   0  0  0  0  0  0  0  0  0  0  0  0
  193.1020  176.1380  143.0980 C   0  0  1  0  0  3  0  0  0  0  0  0
  188.9840  177.2980  143.9700 C   0  0  0  0  0  2  0  0  0  0  0  0
  187.0740  175.6910  142.7540 C   0  0  0  0  0  2  0  0  0  0  0  0
  186.7870  177.2050  142.7390 C   0  0  2  0  0  3  0  0  0  0  0  0
  188.0290  178.0520  143.0390 C   0  0  0  0  0  2  0  0  0  0  0  0
  189.4500  176.0000  143.4300 N   0  0  1  0  0  0  0  0  0  0  0  0
  188.5380  175.4390  142.4120 C   0  0  0  0  0  2  0  0  0  0  0  0
  185.5290  179.2100  145.3740 C   0  0  0  0  0  2  0  0  0  0  0  0
  185.2220  179.9290  144.0910 C   0  0  0  0  0  2  0  0  0  0  0  0
  185.6520  177.6080  143.5870 N   0  0  1  0  0  0  0  0  0  0  0  0
  186.1400  177.9000  144.9350 C   0  0  2  0  0  3  0  0  0  0  0  0
  185.0130  178.8250  143.0780 C   0  0  0  0  0  2  0  0  0  0  0  0
  185.7260  176.8010  145.9000 C   0  0  0  0  0  2  0  0  0  0  0  0
  186.6570  176.7680  147.0970 C   0  0  0  0  0  1  0  0  0  0  0  0
  194.8280  174.4820  143.8880 C   0  0  0  0  0  0  0  0  0  0  0  0
  194.5510  173.3260  144.3020 O   0  0  0  0  0  1  0  0  0  0  0  0
  195.9580  174.6730  143.1010 O   0  0  0  0  0  0  0  0  0  0  0  0
  191.4130  176.7550  146.2640 C   0  0  0  0  0  2  0  0  0  0  0  0
  191.2750  175.6380  148.3700 O   0  0  0  0  0  1  0  0  0  0  0  0
  190.5210  176.0190  147.2610 C   0  0  2  0  0  3  0  0  0  0  0  0
  188.9310  174.2320  147.4990 O   0  0  0  0  0  1  0  0  0  0  0  0
  189.8710  174.7930  146.6300 C   0  0  0  0  0  2  0  0  0  0  0  0
  190.9920  173.6540  142.8840 C   0  0  0  0  0  2  0  0  0  0  0  0
  189.6530  171.5690  142.2460 C   0  0  0  0  0  2  0  0  0  0  0  0
  191.1140  171.1270  142.2790 C   0  0  0  0  0  2  0  0  0  0  0  0
  190.7510  172.5360  141.8850 C   0  0  0  0  0  0  0  0  0  0  0  0
  190.8290  172.8160  140.5210 O   0  0  0  0  0  1  0  0  0  0  0  0
  1  8  1  0  0  0  0
  1  7  1  0  0  0  0
  1 31  1  1  0  0  0
  2  4  1  0  0  0  0
  4  5  1  0  0  0  0
  4 26  1  0  0  0  0
  6  3  1  0  0  0  0
  6  5  1  0  0  0  0
  7 14  1  0  0  0  0
  7  2  1  0  0  0  0
  8  9  1  0  0  0  0
  9  2  1  0  0  0  0
  9  6  1  0  0  0  0
 12 11  1  0  0  0  0
 12 13  1  0  0  0  0
 12 18  1  0  0  0  0
 13 10  1  0  0  0  0
 14 10  1  0  0  0  0
 15 11  1  0  0  0  0
 15 14  1  0  0  0  0
 17 16  1  0  0  0  0
 18 19  1  0  0  0  0
 19 16  1  0  0  0  0
 19 21  1  0  0  0  0
 20 18  1  0  0  0  0
 20 17  1  0  0  0  0
 21 22  1  0  0  0  0
 23  6  1  0  0  0  0
 23 24  1  0  0  0  0
 25 23  2  0  0  0  0
 26 28  1  0  0  0  0
 28 27  1  0  0  0  0
 30 28  1  0  0  0  0
 30 29  1  0  0  0  0
 32 33  1  0  0  0  0
 34 32  1  0  0  0  0
 34 33  1  0  0  0  0
 34 31  1  0  0  0  0
 35 34  1  0  0  0  0
M  END
>  <MODEL>
2

>  <REMARK>
 VINA RESULT:      -7.4      3.240      7.780
  Name = 
  9 active torsions:
  status: ('A' for Active; 'I' for Inactive)
    1  A    between atoms: C_2  and  C_16
    2  A    between atoms: C_2  and  C_17
    3  A    between atoms: C_4  and  C_19
    4  A    between atoms: C_5  and  C_25
    5  A    between atoms: C_10  and  C_27
    6  A    between atoms: C_13  and  N_15
    7  A    between atoms: C_16  and  C_29
    8  A    between atoms: C_19  and  C_23
    9  A    between atoms: N_24  and  C_26
                            x       y       z     vdW  Elec       q    Type
                         _______ _______ _______ _____ _____    ______ ____

>  <TORSDO>
F 9

$$$$
=
 OpenBabel11062422023D

 35 39  0  0  1  0  0  0  0  0999 V2000
  189.4130  177.4710  144.2020 C   0  0  1  0  0  3  0  0  0  0  0  0
  189.6110  176.5060  142.0460 C   0  0  2  0  0  3  0  0  0  0  0  0
  187.1070  176.7870  140.3090 O   0  0  0  0  0  1  0  0  0  0  0  0
  188.9000  175.1660  142.1970 C   0  0  1  0  0  3  0  0  0  0  0  0
  187.5110  175.3180  142.0050 O   0  0  0  0  0  0  0  0  0  0  0  0
  187.2720  176.6710  141.6920 C   0  0  1  0  0  0  0  0  0  0  0  0
  190.4460  176.8790  143.2490 C   0  0  2  0  0  3  0  0  0  0  0  0
  188.3670  178.0060  143.4240 O   0  0  0  0  0  0  0  0  0  0  0  0
  188.4910  177.4930  142.1070 C   0  0  1  0  0  3  0  0  0  0  0  0
  192.2130  175.3250  142.7710 C   0  0  0  0  0  2  0  0  0  0  0  0
  193.1510  175.4360  145.3820 C   0  0  0  0  0  2  0  0  0  0  0  0
  194.2150  175.5920  144.2780 C   0  0  2  0  0  3  0  0  0  0  0  0
  193.6120  175.9330  142.9110 C   0  0  0  0  0  2  0  0  0  0  0  0
  191.2550  175.7780  143.8050 N   0  0  1  0  0  0  0  0  0  0  0  0
  191.9190  176.2630  145.0320 C   0  0  0  0  0  2  0  0  0  0  0  0
  197.4020  174.2110  144.9710 C   0  0  0  0  0  2  0  0  0  0  0  0
  196.4790  173.7570  146.0670 C   0  0  0  0  0  2  0  0  0  0  0  0
  195.1460  174.4550  144.1800 N   0  0  1  0  0  0  0  0  0  0  0  0
  196.5080  174.9620  144.0130 C   0  0  2  0  0  3  0  0  0  0  0  0
  195.1260  173.6440  145.4010 C   0  0  0  0  0  2  0  0  0  0  0  0
  196.9890  174.7350  142.5890 C   0  0  0  0  0  2  0  0  0  0  0  0
  196.5480  173.3710  142.0920 C   0  0  0  0  0  1  0  0  0  0  0  0
  186.0100  177.1380  142.3640 C   0  0  0  0  0  0  0  0  0  0  0  0
  185.3540  178.0980  141.8790 O   0  0  0  0  0  0  0  0  0  0  0  0
  185.5690  176.5320  143.5350 O   0  0  0  0  0  1  0  0  0  0  0  0
  189.4700  174.0870  141.2740 C   0  0  0  0  0  2  0  0  0  0  0  0
  189.5800  172.7630  143.2590 O   0  0  0  0  0  1  0  0  0  0  0  0
  189.4070  172.6860  141.8770 C   0  0  2  0  0  3  0  0  0  0  0  0
  191.4570  172.5160  140.6340 O   0  0  0  0  0  1  0  0  0  0  0  0
  190.4640  171.7690  141.2730 C   0  0  0  0  0  2  0  0  0  0  0  0
  188.8370  176.4440  145.1810 C   0  0  0  0  0  2  0  0  0  0  0  0
  187.2970  176.4050  147.2230 C   0  0  0  0  0  2  0  0  0  0  0  0
  187.0180  177.7320  146.5210 C   0  0  0  0  0  2  0  0  0  0  0  0
  188.3920  177.1130  146.4680 C   0  0  0  0  0  0  0  0  0  0  0  0
  189.3490  177.7080  147.2900 O   0  0  0  0  0  1  0  0  0  0  0  0
  1 31  1  1  0  0  0
  2  9  1  0  0  0  0
  2  4  1  0  0  0  0
  2  7  1  0  0  0  0
  3  6  1  0  0  0  0
  5  4  1  0  0  0  0
  6  5  1  0  0  0  0
  6  9  1  0  0  0  0
  6 23  1  0  0  0  0
  7 14  1  0  0  0  0
  7  1  1  0  0  0  0
  8  1  1  0  0  0  0
  9  8  1  0  0  0  0
 10 13  1  0  0  0  0
 10 14  1  0  0  0  0
 12 11  1  0  0  0  0
 13 12  1  0  0  0  0
 14 15  1  0  0  0  0
 15 11  1  0  0  0  0
 16 17  1  0  0  0  0
 18 12  1  0  0  0  0
 18 20  1  0  0  0  0
 19 18  1  0  0  0  0
 19 16  1  0  0  0  0
 20 17  1  0  0  0  0
 21 19  1  0  0  0  0
 22 21  1  0  0  0  0
 23 25  1  0  0  0  0
 24 23  2  0  0  0  0
 26 28  1  0  0  0  0
 26  4  1  0  0  0  0
 28 27  1  0  0  0  0
 29 30  1  0  0  0  0
 30 28  1  0  0  0  0
 31 34  1  0  0  0  0
 33 32  1  0  0  0  0
 34 33  1  0  0  0  0
 34 32  1  0  0  0  0
 34 35  1  0  0  0  0
M  END
>  <MODEL>
3

>  <REMARK>
 VINA RESULT:      -6.9      1.936      2.642
  Name = 
  9 active torsions:
  status: ('A' for Active; 'I' for Inactive)
    1  A    between atoms: C_2  and  C_16
    2  A    between atoms: C_2  and  C_17
    3  A    between atoms: C_4  and  C_19
    4  A    between atoms: C_5  and  C_25
    5  A    between atoms: C_10  and  C_27
    6  A    between atoms: C_13  and  N_15
    7  A    between atoms: C_16  and  C_29
    8  A    between atoms: C_19  and  C_23
    9  A    between atoms: N_24  and  C_26
                            x       y       z     vdW  Elec       q    Type
                         _______ _______ _______ _____ _____    ______ ____

>  <TORSDO>
F 9

$$$$
=
 OpenBabel11062422023D

 35 39  0  0  1  0  0  0  0  0999 V2000
  192.1420  174.4630  145.3630 C   0  0  1  0  0  3  0  0  0  0  0  0
  190.2430  173.4250  144.3960 C   0  0  2  0  0  3  0  0  0  0  0  0
  190.8790  170.9140  142.7640 O   0  0  0  0  0  1  0  0  0  0  0  0
  190.2740  173.9150  142.9530 C   0  0  1  0  0  3  0  0  0  0  0  0
  191.1210  173.1020  142.1710 O   0  0  0  0  0  0  0  0  0  0  0  0
  191.6140  172.0780  143.0050 C   0  0  1  0  0  0  0  0  0  0  0  0
  190.6170  174.4900  145.3990 C   0  0  2  0  0  3  0  0  0  0  0  0
  192.5390  173.1620  144.9930 O   0  0  0  0  0  0  0  0  0  0  0  0
  191.4080  172.4910  144.4610 C   0  0  1  0  0  3  0  0  0  0  0  0
  188.5350  175.6570  145.1250 C   0  0  0  0  0  2  0  0  0  0  0  0
  189.5310  177.9290  146.3720 C   0  0  0  0  0  2  0  0  0  0  0  0
  188.1540  177.4420  146.8620 C   0  0  2  0  0  3  0  0  0  0  0  0
  187.8500  175.9970  146.4520 C   0  0  0  0  0  2  0  0  0  0  0  0
  190.0080  175.8120  145.1520 N   0  0  1  0  0  0  0  0  0  0  0  0
  190.4700  176.7390  146.2050 C   0  0  0  0  0  2  0  0  0  0  0  0
  184.8070  177.8430  145.7720 C   0  0  0  0  0  2  0  0  0  0  0  0
  184.7910  177.9150  147.2730 C   0  0  0  0  0  2  0  0  0  0  0  0
  187.0410  178.3390  146.5070 N   0  0  1  0  0  0  0  0  0  0  0  0
  186.2710  177.7420  145.4150 C   0  0  2  0  0  3  0  0  0  0  0  0
  186.1260  178.5260  147.6370 C   0  0  0  0  0  2  0  0  0  0  0  0
  186.5260  178.4880  144.1150 C   0  0  0  0  0  2  0  0  0  0  0  0
  185.5690  179.6560  143.9770 C   0  0  0  0  0  1  0  0  0  0  0  0
  193.0580  171.8050  142.6850 C   0  0  0  0  0  0  0  0  0  0  0  0
  193.7190  172.6270  141.9970 O   0  0  0  0  0  0  0  0  0  0  0  0
  193.6670  170.6350  143.1240 O   0  0  0  0  0  1  0  0  0  0  0  0
  188.8800  174.0170  142.3320 C   0  0  0  0  0  2  0  0  0  0  0  0
  187.8390  175.9010  141.2990 O   0  0  0  0  0  1  0  0  0  0  0  0
  188.8290  174.9370  141.1150 C   0  0  2  0  0  3  0  0  0  0  0  0
  188.1820  172.8430  140.1270 O   0  0  0  0  0  1  0  0  0  0  0  0
  188.5600  174.1560  139.8340 C   0  0  0  0  0  2  0  0  0  0  0  0
  192.7410  175.4710  144.3790 C   0  0  0  0  0  2  0  0  0  0  0  0
  194.4320  175.8200  146.2670 C   0  0  0  0  0  2  0  0  0  0  0  0
  194.3650  177.1510  145.5220 C   0  0  0  0  0  2  0  0  0  0  0  0
  194.1520  175.8520  144.7870 C   0  0  0  0  0  0  0  0  0  0  0  0
  195.2240  175.4250  144.0020 O   0  0  0  0  0  1  0  0  0  0  0  0
  1 31  1  6  0  0  0
  1  7  1  0  0  0  0
  2  9  1  0  0  0  0
  2  7  1  0  0  0  0
  3  6  1  0  0  0  0
  4  2  1  0  0  0  0
  5  4  1  0  0  0  0
  5  6  1  0  0  0  0
  6  9  1  0  0  0  0
  8  1  1  0  0  0  0
  9  8  1  0  0  0  0
 10 14  1  0  0  0  0
 10 13  1  0  0  0  0
 11 12  1  0  0  0  0
 13 12  1  0  0  0  0
 14  7  1  0  0  0  0
 14 15  1  0  0  0  0
 15 11  1  0  0  0  0
 16 17  1  0  0  0  0
 17 20  1  0  0  0  0
 18 12  1  0  0  0  0
 18 20  1  0  0  0  0
 19 16  1  0  0  0  0
 19 18  1  0  0  0  0
 21 19  1  0  0  0  0
 22 21  1  0  0  0  0
 23  6  1  0  0  0  0
 23 25  1  0  0  0  0
 24 23  2  0  0  0  0
 26  4  1  0  0  0  0
 28 27  1  0  0  0  0
 28 26  1  0  0  0  0
 30 29  1  0  0  0  0
 30 28  1  0  0  0  0
 31 34  1  0  0  0  0
 33 32  1  0  0  0  0
 34 33  1  0  0  0  0
 34 32  1  0  0  0  0
 35 34  1  0  0  0  0
M  END
>  <MODEL>
4

>  <REMARK>
 VINA RESULT:      -6.8      2.459      7.191
  Name = 
  9 active torsions:
  status: ('A' for Active; 'I' for Inactive)
    1  A    between atoms: C_2  and  C_16
    2  A    between atoms: C_2  and  C_17
    3  A    between atoms: C_4  and  C_19
    4  A    between atoms: C_5  and  C_25
    5  A    between atoms: C_10  and  C_27
    6  A    between atoms: C_13  and  N_15
    7  A    between atoms: C_16  and  C_29
    8  A    between atoms: C_19  and  C_23
    9  A    between atoms: N_24  and  C_26
                            x       y       z     vdW  Elec       q    Type
                         _______ _______ _______ _____ _____    ______ ____

>  <TORSDO>
F 9

$$$$
=
 OpenBabel11062422023D

 35 39  0  0  1  0  0  0  0  0999 V2000
  191.9240  174.8470  142.5310 C   0  0  1  0  0  3  0  0  0  0  0  0
  192.9180  176.4210  143.9980 C   0  0  2  0  0  3  0  0  0  0  0  0
  195.9420  176.0880  144.3350 O   0  0  0  0  0  1  0  0  0  0  0  0
  193.0650  175.6400  145.3000 C   0  0  1  0  0  3  0  0  0  0  0  0
  194.2570  174.8870  145.2930 O   0  0  0  0  0  0  0  0  0  0  0  0
  194.9260  175.1620  144.0830 C   0  0  1  0  0  0  0  0  0  0  0  0
  191.6210  176.1430  143.2760 C   0  0  2  0  0  3  0  0  0  0  0  0
  193.3110  174.8090  142.2810 O   0  0  0  0  0  0  0  0  0  0  0  0
  193.9320  175.7830  143.1040 C   0  0  1  0  0  3  0  0  0  0  0  0
  190.1870  177.4610  144.6820 C   0  0  0  0  0  2  0  0  0  0  0  0
  187.9480  175.9950  143.9420 C   0  0  0  0  0  2  0  0  0  0  0  0
  187.7970  177.5280  143.8900 C   0  0  2  0  0  3  0  0  0  0  0  0
  189.1410  178.2630  143.9020 C   0  0  0  0  0  2  0  0  0  0  0  0
  190.4280  176.1020  144.1430 N   0  0  1  0  0  0  0  0  0  0  0  0
  189.2930  175.5890  143.3490 C   0  0  0  0  0  2  0  0  0  0  0  0
  185.1040  177.0220  146.1350 C   0  0  0  0  0  2  0  0  0  0  0  0
  186.3710  176.8440  146.9230 C   0  0  0  0  0  2  0  0  0  0  0  0
  186.8840  178.0730  144.9100 N   0  0  1  0  0  0  0  0  0  0  0  0
  185.5700  177.4470  144.7630 C   0  0  2  0  0  3  0  0  0  0  0  0
  187.3610  177.7780  146.2640 C   0  0  0  0  0  2  0  0  0  0  0  0
  184.5740  178.4320  144.1740 C   0  0  0  0  0  2  0  0  0  0  0  0
  185.1920  179.8140  144.0740 C   0  0  0  0  0  1  0  0  0  0  0  0
  195.5510  173.9040  143.5450 C   0  0  0  0  0  0  0  0  0  0  0  0
  195.0880  172.7790  143.8710 O   0  0  0  0  0  1  0  0  0  0  0  0
  196.6570  173.9700  142.7040 O   0  0  0  0  0  0  0  0  0  0  0  0
  192.9830  176.5340  146.5380 C   0  0  0  0  0  2  0  0  0  0  0  0
  191.2930  174.9360  147.0780 O   0  0  0  0  0  1  0  0  0  0  0  0
  192.0220  176.0050  147.5990 C   0  0  2  0  0  3  0  0  0  0  0  0
  191.5340  177.6560  149.2760 O   0  0  0  0  0  1  0  0  0  0  0  0
  191.0710  177.0930  148.0850 C   0  0  0  0  0  2  0  0  0  0  0  0
  191.5190  173.5930  143.3100 C   0  0  0  0  0  2  0  0  0  0  0  0
  190.5010  172.8790  141.0740 C   0  0  0  0  0  2  0  0  0  0  0  0
  189.6980  172.1450  142.1450 C   0  0  0  0  0  2  0  0  0  0  0  0
  191.1560  172.4620  142.3650 C   0  0  0  0  0  0  0  0  0  0  0  0
  192.0300  171.3830  142.2300 O   0  0  0  0  0  1  0  0  0  0  0  0
  1  7  1  0  0  0  0
  1 31  1  1  0  0  0
  2  4  1  0  0  0  0
  4 26  1  0  0  0  0
  5  4  1  0  0  0  0
  6  3  1  0  0  0  0
  6  5  1  0  0  0  0
  7  2  1  0  0  0  0
  7 14  1  0  0  0  0
  8  1  1  0  0  0  0
  8  9  1  0  0  0  0
  9  2  1  0  0  0  0
  9  6  1  0  0  0  0
 12 13  1  0  0  0  0
 12 11  1  0  0  0  0
 12 18  1  0  0  0  0
 13 10  1  0  0  0  0
 14 10  1  0  0  0  0
 15 11  1  0  0  0  0
 15 14  1  0  0  0  0
 16 17  1  0  0  0  0
 18 20  1  0  0  0  0
 19 18  1  0  0  0  0
 19 16  1  0  0  0  0
 20 17  1  0  0  0  0
 21 19  1  0  0  0  0
 22 21  1  0  0  0  0
 23 24  1  0  0  0  0
 23  6  1  0  0  0  0
 25 23  2  0  0  0  0
 26 28  1  0  0  0  0
 27 28  1  0  0  0  0
 28 30  1  0  0  0  0
 30 29  1  0  0  0  0
 32 33  1  0  0  0  0
 32 34  1  0  0  0  0
 33 34  1  0  0  0  0
 34 31  1  0  0  0  0
 35 34  1  0  0  0  0
M  END
>  <MODEL>
5

>  <REMARK>
 VINA RESULT:      -6.8      3.756      8.093
  Name = 
  9 active torsions:
  status: ('A' for Active; 'I' for Inactive)
    1  A    between atoms: C_2  and  C_16
    2  A    between atoms: C_2  and  C_17
    3  A    between atoms: C_4  and  C_19
    4  A    between atoms: C_5  and  C_25
    5  A    between atoms: C_10  and  C_27
    6  A    between atoms: C_13  and  N_15
    7  A    between atoms: C_16  and  C_29
    8  A    between atoms: C_19  and  C_23
    9  A    between atoms: N_24  and  C_26
                            x       y       z     vdW  Elec       q    Type
                         _______ _______ _______ _____ _____    ______ ____

>  <TORSDO>
F 9

$$$$
=
 OpenBabel11062422023D

 35 39  0  0  1  0  0  0  0  0999 V2000
  193.6960  175.6620  144.6820 C   0  0  1  0  0  3  0  0  0  0  0  0
  192.4970  173.7680  145.4550 C   0  0  2  0  0  3  0  0  0  0  0  0
  194.2330  171.2940  145.9390 O   0  0  0  0  0  1  0  0  0  0  0  0
  192.3150  172.9320  144.1930 C   0  0  1  0  0  3  0  0  0  0  0  0
  193.4500  172.1250  143.9660 O   0  0  0  0  0  0  0  0  0  0  0  0
  194.3490  172.3480  145.0290 C   0  0  1  0  0  0  0  0  0  0  0  0
  192.3290  175.2510  145.2200 C   0  0  2  0  0  3  0  0  0  0  0  0
  194.6510  174.7680  145.2090 O   0  0  0  0  0  0  0  0  0  0  0  0
  193.9600  173.6460  145.7350 C   0  0  1  0  0  3  0  0  0  0  0  0
  189.9420  175.1090  144.9930 C   0  0  0  0  0  2  0  0  0  0  0  0
  189.8080  177.6100  143.7950 C   0  0  0  0  0  2  0  0  0  0  0  0
  188.8070  177.3570  144.9390 C   0  0  2  0  0  3  0  0  0  0  0  0
  189.1890  176.1590  145.8150 C   0  0  0  0  0  2  0  0  0  0  0  0
  191.1840  175.6140  144.3630 N   0  0  1  0  0  0  0  0  0  0  0  0
  191.1830  177.0810  144.1860 C   0  0  0  0  0  2  0  0  0  0  0  0
  185.6780  178.9370  144.4270 C   0  0  0  0  0  2  0  0  0  0  0  0
  186.4090  178.9760  143.1150 C   0  0  0  0  0  2  0  0  0  0  0  0
  187.4040  177.2660  144.4980 N   0  0  1  0  0  0  0  0  0  0  0  0
  186.5790  178.1370  145.3360 C   0  0  2  0  0  3  0  0  0  0  0  0
  187.2520  177.7200  143.1120 C   0  0  0  0  0  2  0  0  0  0  0  0
  185.7300  177.3090  146.2880 C   0  0  0  0  0  2  0  0  0  0  0  0
  184.3870  177.9750  146.5160 C   0  0  0  0  0  1  0  0  0  0  0  0
  195.7600  172.3780  144.5100 C   0  0  0  0  0  0  0  0  0  0  0  0
  195.9780  172.3680  143.2700 O   0  0  0  0  0  0  0  0  0  0  0  0
  196.8350  172.3920  145.3920 O   0  0  0  0  0  1  0  0  0  0  0  0
  191.0370  172.0910  144.2190 C   0  0  0  0  0  2  0  0  0  0  0  0
  190.5310  170.7280  142.3250 O   0  0  0  0  0  1  0  0  0  0  0  0
  190.3480  172.0030  142.8600 C   0  0  2  0  0  3  0  0  0  0  0  0
  189.8980  173.9970  141.5950 O   0  0  0  0  0  1  0  0  0  0  0  0
  190.8840  173.0520  141.8930 C   0  0  0  0  0  2  0  0  0  0  0  0
  193.7750  175.6390  143.1540 C   0  0  0  0  0  2  0  0  0  0  0  0
  195.2020  176.5810  141.2510 C   0  0  0  0  0  2  0  0  0  0  0  0
  195.8610  175.2620  141.6460 C   0  0  0  0  0  2  0  0  0  0  0  0
  195.1410  176.0950  142.6760 C   0  0  0  0  0  0  0  0  0  0  0  0
  195.9630  176.8090  143.5500 O   0  0  0  0  0  1  0  0  0  0  0  0
  1 31  1  6  0  0  0
  1  8  1  0  0  0  0
  1  7  1  0  0  0  0
  2  9  1  0  0  0  0
  4 26  1  0  0  0  0
  4  2  1  0  0  0  0
  5  4  1  0  0  0  0
  5  6  1  0  0  0  0
  6  9  1  0  0  0  0
  6  3  1  0  0  0  0
  7  2  1  0  0  0  0
  8  9  1  0  0  0  0
 10 13  1  0  0  0  0
 11 15  1  0  0  0  0
 11 12  1  0  0  0  0
 12 13  1  0  0  0  0
 14 10  1  0  0  0  0
 14  7  1  0  0  0  0
 15 14  1  0  0  0  0
 16 19  1  0  0  0  0
 17 16  1  0  0  0  0
 18 12  1  0  0  0  0
 18 19  1  0  0  0  0
 19 21  1  0  0  0  0
 20 17  1  0  0  0  0
 20 18  1  0  0  0  0
 21 22  1  0  0  0  0
 23  6  1  0  0  0  0
 23 25  1  0  0  0  0
 24 23  2  0  0  0  0
 27 28  1  0  0  0  0
 28 26  1  0  0  0  0
 29 30  1  0  0  0  0
 30 28  1  0  0  0  0
 32 33  1  0  0  0  0
 32 34  1  0  0  0  0
 33 34  1  0  0  0  0
 34 31  1  0  0  0  0
 34 35  1  0  0  0  0
M  END
>  <MODEL>
6

>  <REMARK>
 VINA RESULT:      -6.8      3.403      8.208
  Name = 
  9 active torsions:
  status: ('A' for Active; 'I' for Inactive)
    1  A    between atoms: C_2  and  C_16
    2  A    between atoms: C_2  and  C_17
    3  A    between atoms: C_4  and  C_19
    4  A    between atoms: C_5  and  C_25
    5  A    between atoms: C_10  and  C_27
    6  A    between atoms: C_13  and  N_15
    7  A    between atoms: C_16  and  C_29
    8  A    between atoms: C_19  and  C_23
    9  A    between atoms: N_24  and  C_26
                            x       y       z     vdW  Elec       q    Type
                         _______ _______ _______ _____ _____    ______ ____

>  <TORSDO>
F 9

$$$$
=
 OpenBabel11062422023D

 35 39  0  0  1  0  0  0  0  0999 V2000
  189.5520  177.5210  144.4060 C   0  0  1  0  0  3  0  0  0  0  0  0
  189.6420  176.6150  142.2180 C   0  0  2  0  0  3  0  0  0  0  0  0
  187.1480  177.1590  140.5290 O   0  0  0  0  0  1  0  0  0  0  0  0
  188.8240  175.3340  142.3360 C   0  0  1  0  0  3  0  0  0  0  0  0
  187.4500  175.6060  142.1710 O   0  0  0  0  0  0  0  0  0  0  0  0
  187.3200  176.9850  141.9050 C   0  0  1  0  0  0  0  0  0  0  0  0
  190.5200  176.8780  143.4190 C   0  0  2  0  0  3  0  0  0  0  0  0
  188.5440  178.1670  143.6620 O   0  0  0  0  0  0  0  0  0  0  0  0
  188.6080  177.6880  142.3270 C   0  0  1  0  0  3  0  0  0  0  0  0
  192.1840  175.2300  142.8840 C   0  0  0  0  0  2  0  0  0  0  0  0
  193.0830  175.1420  145.5100 C   0  0  0  0  0  2  0  0  0  0  0  0
  194.1730  175.2800  144.4290 C   0  0  2  0  0  3  0  0  0  0  0  0
  193.6190  175.7310  143.0740 C   0  0  0  0  0  2  0  0  0  0  0  0
  191.2410  175.6960  143.9280 N   0  0  1  0  0  0  0  0  0  0  0  0
  191.9170  176.0700  145.1870 C   0  0  0  0  0  2  0  0  0  0  0  0
  194.9860  171.9880  145.4540 C   0  0  0  0  0  2  0  0  0  0  0  0
  194.0820  171.8650  144.2600 C   0  0  0  0  0  2  0  0  0  0  0  0
  195.0250  174.0870  144.2840 N   0  0  1  0  0  0  0  0  0  0  0  0
  195.2210  173.4730  145.5970 C   0  0  2  0  0  3  0  0  0  0  0  0
  194.3940  173.0840  143.4210 C   0  0  0  0  0  2  0  0  0  0  0  0
  196.6380  173.7150  146.0920 C   0  0  0  0  0  2  0  0  0  0  0  0
  197.6040  173.7720  144.9240 C   0  0  0  0  0  1  0  0  0  0  0  0
  186.1100  177.5320  142.6100 C   0  0  0  0  0  0  0  0  0  0  0  0
  185.5120  176.8350  143.4720 O   0  0  0  0  0  1  0  0  0  0  0  0
  185.6270  178.7980  142.3010 O   0  0  0  0  0  0  0  0  0  0  0  0
  189.2910  174.2420  141.3710 C   0  0  0  0  0  2  0  0  0  0  0  0
  187.6530  172.5220  141.6140 O   0  0  0  0  0  1  0  0  0  0  0  0
  188.9880  172.8310  141.8680 C   0  0  2  0  0  3  0  0  0  0  0  0
  190.5790  172.2240  143.5650 O   0  0  0  0  0  1  0  0  0  0  0  0
  189.2780  172.6890  143.3580 C   0  0  0  0  0  2  0  0  0  0  0  0
  188.9050  176.5130  145.3600 C   0  0  0  0  0  2  0  0  0  0  0  0
  187.1970  176.4810  147.2650 C   0  0  0  0  0  2  0  0  0  0  0  0
  186.9120  177.7570  146.4760 C   0  0  0  0  0  2  0  0  0  0  0  0
  188.3150  177.2140  146.5700 C   0  0  0  0  0  0  0  0  0  0  0  0
  189.1650  177.8990  147.4390 O   0  0  0  0  0  1  0  0  0  0  0  0
  1 31  1  1  0  0  0
  2  9  1  0  0  0  0
  2  4  1  0  0  0  0
  2  7  1  0  0  0  0
  3  6  1  0  0  0  0
  5  4  1  0  0  0  0
  6  5  1  0  0  0  0
  6  9  1  0  0  0  0
  6 23  1  0  0  0  0
  7 14  1  0  0  0  0
  7  1  1  0  0  0  0
  8  1  1  0  0  0  0
  9  8  1  0  0  0  0
 10 13  1  0  0  0  0
 10 14  1  0  0  0  0
 12 11  1  0  0  0  0
 13 12  1  0  0  0  0
 14 15  1  0  0  0  0
 15 11  1  0  0  0  0
 16 19  1  0  0  0  0
 17 16  1  0  0  0  0
 18 12  1  0  0  0  0
 18 19  1  0  0  0  0
 19 21  1  0  0  0  0
 20 17  1  0  0  0  0
 20 18  1  0  0  0  0
 22 21  1  0  0  0  0
 23 24  1  0  0  0  0
 25 23  2  0  0  0  0
 26 28  1  0  0  0  0
 26  4  1  0  0  0  0
 27 28  1  0  0  0  0
 28 30  1  0  0  0  0
 30 29  1  0  0  0  0
 31 34  1  0  0  0  0
 33 34  1  0  0  0  0
 33 32  1  0  0  0  0
 34 32  1  0  0  0  0
 34 35  1  0  0  0  0
M  END
>  <MODEL>
7

>  <REMARK>
 VINA RESULT:      -6.7      1.724      2.688
  Name = 
  9 active torsions:
  status: ('A' for Active; 'I' for Inactive)
    1  A    between atoms: C_2  and  C_16
    2  A    between atoms: C_2  and  C_17
    3  A    between atoms: C_4  and  C_19
    4  A    between atoms: C_5  and  C_25
    5  A    between atoms: C_10  and  C_27
    6  A    between atoms: C_13  and  N_15
    7  A    between atoms: C_16  and  C_29
    8  A    between atoms: C_19  and  C_23
    9  A    between atoms: N_24  and  C_26
                            x       y       z     vdW  Elec       q    Type
                         _______ _______ _______ _____ _____    ______ ____

>  <TORSDO>
F 9

$$$$
=
 OpenBabel11062422023D

 35 39  0  0  1  0  0  0  0  0999 V2000
  191.4160  174.4210  141.5000 C   0  0  1  0  0  3  0  0  0  0  0  0
  193.0170  175.0830  143.1180 C   0  0  2  0  0  3  0  0  0  0  0  0
  195.7780  173.8160  142.7440 O   0  0  0  0  0  1  0  0  0  0  0  0
  193.0270  173.9140  144.0970 C   0  0  1  0  0  3  0  0  0  0  0  0
  193.8960  172.8990  143.6470 O   0  0  0  0  0  0  0  0  0  0  0  0
  194.4930  173.3500  142.4520 C   0  0  1  0  0  0  0  0  0  0  0  0
  191.6340  175.4340  142.6200 C   0  0  2  0  0  3  0  0  0  0  0  0
  192.6800  174.0750  140.9810 O   0  0  0  0  0  0  0  0  0  0  0  0
  193.6680  174.5110  141.9010 C   0  0  1  0  0  3  0  0  0  0  0  0
  190.8220  176.6190  144.5440 C   0  0  0  0  0  2  0  0  0  0  0  0
  188.1810  176.0390  143.9090 C   0  0  0  0  0  2  0  0  0  0  0  0
  188.4830  177.5100  144.2550 C   0  0  2  0  0  3  0  0  0  0  0  0
  189.9770  177.8460  144.1900 C   0  0  0  0  0  2  0  0  0  0  0  0
  190.5890  175.4530  143.6600 N   0  0  1  0  0  0  0  0  0  0  0  0
  189.2710  175.4910  142.9940 C   0  0  0  0  0  2  0  0  0  0  0  0
  185.9670  177.1590  146.7230 C   0  0  0  0  0  2  0  0  0  0  0  0
  187.1580  176.3760  147.1970 C   0  0  0  0  0  2  0  0  0  0  0  0
  187.8930  177.9580  145.5290 N   0  0  1  0  0  0  0  0  0  0  0  0
  186.4370  177.8300  145.4550 C   0  0  2  0  0  3  0  0  0  0  0  0
  188.3500  177.1280  146.6480 C   0  0  0  0  0  2  0  0  0  0  0  0
  185.7890  179.2000  145.3380 C   0  0  0  0  0  2  0  0  0  0  0  0
  185.5810  179.5650  143.8800 C   0  0  0  0  0  1  0  0  0  0  0  0
  194.6090  172.2130  141.4750 C   0  0  0  0  0  0  0  0  0  0  0  0
  195.4220  172.2850  140.5160 O   0  0  0  0  0  0  0  0  0  0  0  0
  193.8050  171.0860  141.6060 O   0  0  0  0  0  1  0  0  0  0  0  0
  193.3700  174.3410  145.5250 C   0  0  0  0  0  2  0  0  0  0  0  0
  195.6890  174.5190  146.0690 O   0  0  0  0  0  1  0  0  0  0  0  0
  194.5950  175.2490  145.6030 C   0  0  2  0  0  3  0  0  0  0  0  0
  194.4150  177.6390  145.7870 O   0  0  0  0  0  1  0  0  0  0  0  0
  194.3460  176.4470  146.5120 C   0  0  0  0  0  2  0  0  0  0  0  0
  190.6990  173.1510  141.9670 C   0  0  0  0  0  2  0  0  0  0  0  0
  189.4030  173.4440  139.7800 C   0  0  0  0  0  2  0  0  0  0  0  0
  188.4590  172.7010  140.7230 C   0  0  0  0  0  2  0  0  0  0  0  0
  189.9510  172.4990  140.8190 C   0  0  0  0  0  0  0  0  0  0  0  0
  190.4270  171.2990  140.2920 O   0  0  0  0  0  1  0  0  0  0  0  0
  1 31  1  1  0  0  0
  1  7  1  0  0  0  0
  2  4  1  0  0  0  0
  4 26  1  0  0  0  0
  5  4  1  0  0  0  0
  6  3  1  0  0  0  0
  6  5  1  0  0  0  0
  7  2  1  0  0  0  0
  7 14  1  0  0  0  0
  8  1  1  0  0  0  0
  8  9  1  0  0  0  0
  9  6  1  0  0  0  0
  9  2  1  0  0  0  0
 11 12  1  0  0  0  0
 12 18  1  0  0  0  0
 13 12  1  0  0  0  0
 13 10  1  0  0  0  0
 14 10  1  0  0  0  0
 15 14  1  0  0  0  0
 15 11  1  0  0  0  0
 16 17  1  0  0  0  0
 18 20  1  0  0  0  0
 19 18  1  0  0  0  0
 19 16  1  0  0  0  0
 20 17  1  0  0  0  0
 21 19  1  0  0  0  0
 22 21  1  0  0  0  0
 23 25  1  0  0  0  0
 23  6  1  0  0  0  0
 24 23  2  0  0  0  0
 26 28  1  0  0  0  0
 28 27  1  0  0  0  0
 28 30  1  0  0  0  0
 29 30  1  0  0  0  0
 32 33  1  0  0  0  0
 32 34  1  0  0  0  0
 33 34  1  0  0  0  0
 34 31  1  0  0  0  0
 35 34  1  0  0  0  0
M  END
>  <MODEL>
8

>  <REMARK>
 VINA RESULT:      -6.6      3.825      7.931
  Name = 
  9 active torsions:
  status: ('A' for Active; 'I' for Inactive)
    1  A    between atoms: C_2  and  C_16
    2  A    between atoms: C_2  and  C_17
    3  A    between atoms: C_4  and  C_19
    4  A    between atoms: C_5  and  C_25
    5  A    between atoms: C_10  and  C_27
    6  A    between atoms: C_13  and  N_15
    7  A    between atoms: C_16  and  C_29
    8  A    between atoms: C_19  and  C_23
    9  A    between atoms: N_24  and  C_26
                            x       y       z     vdW  Elec       q    Type
                         _______ _______ _______ _____ _____    ______ ____

>  <TORSDO>
F 9

$$$$
=
 OpenBabel11062422023D

 35 39  0  0  1  0  0  0  0  0999 V2000
  192.5340  174.6230  145.1030 C   0  0  1  0  0  3  0  0  0  0  0  0
  191.2810  173.3150  143.5740 C   0  0  2  0  0  3  0  0  0  0  0  0
  192.7340  170.8130  142.5760 O   0  0  0  0  0  1  0  0  0  0  0  0
  191.8440  173.7260  142.2180 C   0  0  1  0  0  3  0  0  0  0  0  0
  193.0010  172.9790  141.9160 O   0  0  0  0  0  0  0  0  0  0  0  0
  193.2060  172.0670  142.9720 C   0  0  1  0  0  0  0  0  0  0  0  0
  191.1260  174.4710  144.5340 C   0  0  2  0  0  3  0  0  0  0  0  0
  193.1590  173.3610  145.0470 O   0  0  0  0  0  0  0  0  0  0  0  0
  192.3980  172.5310  144.1820 C   0  0  1  0  0  3  0  0  0  0  0  0
  189.1260  175.4490  143.6340 C   0  0  0  0  0  2  0  0  0  0  0  0
  189.7750  177.9510  144.6490 C   0  0  0  0  0  2  0  0  0  0  0  0
  188.3360  177.4690  144.9160 C   0  0  2  0  0  3  0  0  0  0  0  0
  188.1620  175.9600  144.7090 C   0  0  0  0  0  2  0  0  0  0  0  0
  190.5550  175.6950  143.9410 N   0  0  1  0  0  0  0  0  0  0  0  0
  190.7550  176.8090  144.8900 C   0  0  0  0  0  2  0  0  0  0  0  0
  185.1540  177.5440  143.3620 C   0  0  0  0  0  2  0  0  0  0  0  0
  184.9690  178.0480  144.7650 C   0  0  0  0  0  2  0  0  0  0  0  0
  187.3050  178.2270  144.1870 N   0  0  1  0  0  0  0  0  0  0  0  0
  186.6440  177.3410  143.2280 C   0  0  2  0  0  3  0  0  0  0  0  0
  186.2750  178.7360  145.0970 C   0  0  0  0  0  2  0  0  0  0  0  0
  187.0750  177.6770  141.8090 C   0  0  0  0  0  2  0  0  0  0  0  0
  185.9190  178.2790  141.0330 C   0  0  0  0  0  1  0  0  0  0  0  0
  194.6750  171.9510  143.2720 C   0  0  0  0  0  0  0  0  0  0  0  0
  195.1060  170.9790  143.9480 O   0  0  0  0  0  1  0  0  0  0  0  0
  195.5640  172.9240  142.8300 O   0  0  0  0  0  0  0  0  0  0  0  0
  190.8120  173.6270  141.0930 C   0  0  0  0  0  2  0  0  0  0  0  0
  190.0480  171.4220  140.5880 O   0  0  0  0  0  1  0  0  0  0  0  0
  189.7530  172.5570  141.3430 C   0  0  2  0  0  3  0  0  0  0  0  0
  188.4290  174.2300  140.2340 O   0  0  0  0  0  1  0  0  0  0  0  0
  188.3560  173.0610  140.9960 C   0  0  0  0  0  2  0  0  0  0  0  0
  193.3860  175.6400  144.3400 C   0  0  0  0  0  2  0  0  0  0  0  0
  194.2640  176.3170  146.6450 C   0  0  0  0  0  2  0  0  0  0  0  0
  194.5420  177.5090  145.7330 C   0  0  0  0  0  2  0  0  0  0  0  0
  194.5590  176.1050  145.1830 C   0  0  0  0  0  0  0  0  0  0  0  0
  195.8260  175.5740  144.9360 O   0  0  0  0  0  1  0  0  0  0  0  0
  1 31  1  6  0  0  0
  2  9  1  0  0  0  0
  2  7  1  0  0  0  0
  3  6  1  0  0  0  0
  4  2  1  0  0  0  0
  5  4  1  0  0  0  0
  5  6  1  0  0  0  0
  6 23  1  0  0  0  0
  6  9  1  0  0  0  0
  7  1  1  0  0  0  0
  8  1  1  0  0  0  0
  9  8  1  0  0  0  0
 10 14  1  0  0  0  0
 10 13  1  0  0  0  0
 11 15  1  0  0  0  0
 11 12  1  0  0  0  0
 13 12  1  0  0  0  0
 14  7  1  0  0  0  0
 14 15  1  0  0  0  0
 16 17  1  0  0  0  0
 17 20  1  0  0  0  0
 18 12  1  0  0  0  0
 18 20  1  0  0  0  0
 19 16  1  0  0  0  0
 19 18  1  0  0  0  0
 21 19  1  0  0  0  0
 22 21  1  0  0  0  0
 23 24  1  0  0  0  0
 25 23  2  0  0  0  0
 26 28  1  0  0  0  0
 26  4  1  0  0  0  0
 27 28  1  0  0  0  0
 29 30  1  0  0  0  0
 30 28  1  0  0  0  0
 31 34  1  0  0  0  0
 33 32  1  0  0  0  0
 34 33  1  0  0  0  0
 34 32  1  0  0  0  0
 35 34  1  0  0  0  0
M  END
>  <MODEL>
9

>  <REMARK>
 VINA RESULT:      -6.5      2.903      7.498
  Name = 
  9 active torsions:
  status: ('A' for Active; 'I' for Inactive)
    1  A    between atoms: C_2  and  C_16
    2  A    between atoms: C_2  and  C_17
    3  A    between atoms: C_4  and  C_19
    4  A    between atoms: C_5  and  C_25
    5  A    between atoms: C_10  and  C_27
    6  A    between atoms: C_13  and  N_15
    7  A    between atoms: C_16  and  C_29
    8  A    between atoms: C_19  and  C_23
    9  A    between atoms: N_24  and  C_26
                            x       y       z     vdW  Elec       q    Type
                         _______ _______ _______ _____ _____    ______ ____

>  <TORSDO>
F 9

$$$$
