=
 OpenBabel11062422193D

 41 46  0  0  1  0  0  0  0  0999 V2000
  189.9460  175.7980  147.3410 C   0  0  0  0  0  2  0  0  0  0  0  0
  192.2700  175.5050  145.5120 C   0  0  0  0  0  0  0  0  0  0  0  0
  188.9340  176.3770  143.9670 C   0  0  0  0  0  2  0  0  0  0  0  0
  186.3650  177.0550  144.5770 C   0  0  1  0  0  0  0  0  0  0  0  0
  192.4170  176.2590  146.8050 C   0  0  0  0  0  2  0  0  0  0  0  0
  189.6720  176.9790  146.4160 C   0  0  2  0  0  3  0  0  0  0  0  0
  188.2060  177.4650  146.5710 C   0  0  0  0  0  2  0  0  0  0  0  0
  187.8240  177.3340  144.3250 C   0  0  1  0  0  3  0  0  0  0  0  0
  191.3900  175.8130  147.8520 C   0  0  0  0  0  2  0  0  0  0  0  0
  190.1080  176.7100  144.9180 C   0  0  1  0  0  3  0  0  0  0  0  0
  191.2020  175.6850  144.7170 C   0  0  0  0  0  3  0  0  0  0  0  0
  187.3750  176.6340  145.6180 C   0  0  2  0  0  3  0  0  0  0  0  0
  193.2570  174.4170  145.1570 C   0  0  1  0  0  3  0  0  0  0  0  0
  193.3890  174.1000  143.7510 C   0  0  2  0  0  3  0  0  0  0  0  0
  195.5610  175.6440  144.3500 N   0  0  0  0  0  0  0  0  0  0  0  0
  194.4740  174.9660  144.4010 C   0  0  0  0  0  0  0  0  0  0  0  0
  197.7260  176.5040  143.1200 O   0  0  0  0  0  0  0  0  0  0  0  0
  196.7430  174.2120  142.2370 N   0  0  0  0  0  1  0  0  0  0  0  0
  196.4290  175.7840  142.8790 S   0  0  0  0  0  0  0  0  0  0  0  0
  195.6080  176.5660  141.8950 O   0  0  0  0  0  0  0  0  0  0  0  0
  192.6170  174.9730  142.7570 C   0  0  0  0  0  2  0  0  0  0  0  0
  192.1050  174.1730  141.5590 C   0  0  2  0  0  3  0  0  0  0  0  0
  190.4040  172.7140  142.6620 C   0  0  0  0  0  3  0  0  0  0  0  0
  189.6470  174.2760  140.9740 C   0  0  0  0  0  3  0  0  0  0  0  0
  188.3350  173.8260  141.1440 C   0  0  0  0  0  3  0  0  0  0  0  0
  188.0570  172.8210  142.0740 C   0  0  0  0  0  3  0  0  0  0  0  0
  190.6880  173.7240  141.7360 C   0  0  0  0  0  0  0  0  0  0  0  0
  189.0910  172.2650  142.8340 C   0  0  0  0  0  3  0  0  0  0  0  0
  192.9480  173.0950  141.2720 O   0  0  0  0  0  0  0  0  0  0  0  0
  193.7610  173.5460  140.3400 O   0  0  0  0  0  1  0  0  0  0  0  0
  184.9770  179.1540  143.8010 C   0  0  1  0  0  3  0  0  0  0  0  0
  185.4410  178.2530  144.8970 C   0  0  2  0  0  0  0  0  0  0  0  0
  186.0360  179.5080  144.6680 O   0  0  0  0  0  0  0  0  0  0  0  0
  183.3440  178.8380  145.9350 F   0  0  0  0  0  0  0  0  0  0  0  0
  184.3390  176.9110  146.5280 F   0  0  0  0  0  0  0  0  0  0  0  0
  184.5660  178.2230  146.1580 C   0  0  0  0  0  0  0  0  0  0  0  0
  185.2050  178.8790  147.1930 F   0  0  0  0  0  0  0  0  0  0  0  0
  185.5390  178.8270  142.4260 C   0  0  0  0  0  2  0  0  0  0  0  0
  184.4980  178.4800  141.5670 O   0  0  0  0  0  1  0  0  0  0  0  0
  186.4760  176.1100  142.6230 F   0  0  0  0  0  0  0  0  0  0  0  0
  185.8530  176.0180  143.7880 O   0  0  0  0  0  0  0  0  0  0  0  0
  1  9  1  0  0  0  0
  2  5  1  0  0  0  0
  4 41  1  6  0  0  0
  4 32  1  0  0  0  0
  4 12  1  0  0  0  0
  5  9  1  0  0  0  0
  6  7  1  6  0  0  0
  6  1  1  0  0  0  0
  8  3  1  6  0  0  0
  8  4  1  0  0  0  0
  8 12  1  0  0  0  0
 10  3  1  6  0  0  0
 10  6  1  0  0  0  0
 11 10  1  0  0  0  0
 11  2  2  0  0  0  0
 12  7  1  1  0  0  0
 13  2  1  6  0  0  0
 14 21  1  6  0  0  0
 14 16  1  0  0  0  0
 14 13  1  0  0  0  0
 15 16  2  0  0  0  0
 16 13  1  0  0  0  0
 18 19  1  0  0  0  0
 19 17  2  0  0  0  0
 19 15  1  0  0  0  0
 20 19  2  0  0  0  0
 22 27  1  0  0  0  0
 22 21  1  1  0  0  0
 23 28  1  0  0  0  0
 24 25  2  0  0  0  0
 24 27  1  0  0  0  0
 25 26  1  0  0  0  0
 26 28  2  0  0  0  0
 27 23  2  0  0  0  0
 29 22  1  0  0  0  0
 30 29  1  0  0  0  0
 31 38  1  6  0  0  0
 31 33  1  0  0  0  0
 31 32  1  0  0  0  0
 32 36  1  1  0  0  0
 33 32  1  0  0  0  0
 34 36  1  0  0  0  0
 36 35  1  0  0  0  0
 36 37  1  0  0  0  0
 39 38  1  0  0  0  0
 40 41  1  0  0  0  0
M  END
>  <MODEL>
1

>  <REMARK>
 VINA RESULT:      -8.4      0.000      0.000
  Name = 
  10 active torsions:
  status: ('A' for Active; 'I' for Inactive)
    1  A    between atoms: C_2  and  C_19
    2  A    between atoms: C_5  and  C_8
    3  A    between atoms: C_6  and  C_15
    4  A    between atoms: C_6  and  O_22
    5  A    between atoms: O_14  and  C_33
    6  A    between atoms: C_15  and  C_36
    7  A    between atoms: C_30  and  C_38
    8  A    between atoms: S_31  and  N_35
    9  A    between atoms: C_33  and  C_34
   10  A    between atoms: C_33  and  C_38
                            x       y       z     vdW  Elec       q    Type
                         _______ _______ _______ _____ _____    ______ ____

>  <TORSDO>
F 10

$$$$
=
 OpenBabel11062422193D

 41 46  0  0  1  0  0  0  0  0999 V2000
  190.1260  175.5240  147.3320 C   0  0  0  0  0  2  0  0  0  0  0  0
  192.7390  176.1540  146.0650 C   0  0  0  0  0  0  0  0  0  0  0  0
  189.6100  177.1200  144.1810 C   0  0  0  0  0  2  0  0  0  0  0  0
  186.8940  177.2440  144.3930 C   0  0  1  0  0  0  0  0  0  0  0  0
  192.5260  176.4230  147.5290 C   0  0  0  0  0  2  0  0  0  0  0  0
  189.8010  176.9140  146.7940 C   0  0  2  0  0  3  0  0  0  0  0  0
  188.2670  177.1430  146.7680 C   0  0  0  0  0  2  0  0  0  0  0  0
  188.2990  177.7590  144.5710 C   0  0  1  0  0  3  0  0  0  0  0  0
  191.4360  175.5250  148.1270 C   0  0  0  0  0  2  0  0  0  0  0  0
  190.5260  177.2340  145.4230 C   0  0  1  0  0  3  0  0  0  0  0  0
  191.8060  176.4750  145.1530 C   0  0  0  0  0  3  0  0  0  0  0  0
  187.7740  176.6070  145.4420 C   0  0  2  0  0  3  0  0  0  0  0  0
  193.9540  175.3780  145.6090 C   0  0  1  0  0  3  0  0  0  0  0  0
  193.7010  174.1260  144.9290 C   0  0  2  0  0  3  0  0  0  0  0  0
  194.3050  175.9110  142.9520 N   0  0  0  0  0  0  0  0  0  0  0  0
  194.0770  175.3450  144.0800 C   0  0  0  0  0  0  0  0  0  0  0  0
  194.9300  175.7370  140.3990 O   0  0  0  0  0  0  0  0  0  0  0  0
  194.8810  173.4460  141.7230 N   0  0  0  0  0  1  0  0  0  0  0  0
  194.1970  175.0160  141.4940 S   0  0  0  0  0  0  0  0  0  0  0  0
  192.7520  174.8740  141.1090 O   0  0  0  0  0  0  0  0  0  0  0  0
  192.2420  173.7690  144.6300 C   0  0  0  0  0  2  0  0  0  0  0  0
  192.1190  172.6050  143.6470 C   0  0  2  0  0  3  0  0  0  0  0  0
  189.8470  173.5380  143.1860 C   0  0  0  0  0  3  0  0  0  0  0  0
  190.7980  171.9970  141.5780 C   0  0  0  0  0  3  0  0  0  0  0  0
  189.6460  172.1040  140.7940 C   0  0  0  0  0  3  0  0  0  0  0  0
  188.5960  172.9300  141.2040 C   0  0  0  0  0  3  0  0  0  0  0  0
  190.9050  172.7180  142.7780 C   0  0  0  0  0  0  0  0  0  0  0  0
  188.6960  173.6470  142.4000 C   0  0  0  0  0  3  0  0  0  0  0  0
  192.1550  171.3750  144.3120 O   0  0  0  0  0  0  0  0  0  0  0  0
  193.2560  170.7960  143.8810 O   0  0  0  0  0  1  0  0  0  0  0  0
  185.0380  179.0460  143.8960 C   0  0  1  0  0  3  0  0  0  0  0  0
  185.7270  178.1420  144.8650 C   0  0  2  0  0  0  0  0  0  0  0  0
  186.0090  179.5210  144.8070 O   0  0  0  0  0  0  0  0  0  0  0  0
  184.8790  176.3690  146.2630 F   0  0  0  0  0  0  0  0  0  0  0  0
  185.4970  178.3030  147.2300 F   0  0  0  0  0  0  0  0  0  0  0  0
  184.9160  177.7460  146.1060 C   0  0  0  0  0  0  0  0  0  0  0  0
  183.6200  178.2100  145.9930 F   0  0  0  0  0  0  0  0  0  0  0  0
  185.6230  179.0390  142.4930 C   0  0  0  0  0  2  0  0  0  0  0  0
  184.6800  178.5430  141.5960 O   0  0  0  0  0  1  0  0  0  0  0  0
  185.6270  175.7740  143.4150 F   0  0  0  0  0  0  0  0  0  0  0  0
  186.7210  176.4950  143.2230 O   0  0  0  0  0  0  0  0  0  0  0  0
  1  9  1  0  0  0  0
  2  5  1  0  0  0  0
  4 41  1  6  0  0  0
  4  8  1  0  0  0  0
  4 32  1  0  0  0  0
  4 12  1  0  0  0  0
  5  9  1  0  0  0  0
  6  7  1  6  0  0  0
  6  1  1  0  0  0  0
  8  3  1  6  0  0  0
  8 12  1  0  0  0  0
 10  3  1  6  0  0  0
 10  6  1  0  0  0  0
 11 10  1  0  0  0  0
 11  2  2  0  0  0  0
 12  7  1  1  0  0  0
 13  2  1  6  0  0  0
 14 21  1  6  0  0  0
 14 13  1  0  0  0  0
 15 16  2  0  0  0  0
 16 14  1  0  0  0  0
 16 13  1  0  0  0  0
 17 19  2  0  0  0  0
 19 18  1  0  0  0  0
 19 15  1  0  0  0  0
 20 19  2  0  0  0  0
 22 29  1  0  0  0  0
 22 21  1  1  0  0  0
 24 27  2  0  0  0  0
 25 26  2  0  0  0  0
 25 24  1  0  0  0  0
 26 28  1  0  0  0  0
 27 23  1  0  0  0  0
 27 22  1  0  0  0  0
 28 23  2  0  0  0  0
 30 29  1  0  0  0  0
 31 38  1  6  0  0  0
 31 33  1  0  0  0  0
 31 32  1  0  0  0  0
 32 36  1  1  0  0  0
 33 32  1  0  0  0  0
 36 34  1  0  0  0  0
 36 35  1  0  0  0  0
 37 36  1  0  0  0  0
 39 38  1  0  0  0  0
 41 40  1  0  0  0  0
M  END
>  <MODEL>
2

>  <REMARK>
 VINA RESULT:      -8.1      1.356      1.821
  Name = 
  10 active torsions:
  status: ('A' for Active; 'I' for Inactive)
    1  A    between atoms: C_2  and  C_19
    2  A    between atoms: C_5  and  C_8
    3  A    between atoms: C_6  and  C_15
    4  A    between atoms: C_6  and  O_22
    5  A    between atoms: O_14  and  C_33
    6  A    between atoms: C_15  and  C_36
    7  A    between atoms: C_30  and  C_38
    8  A    between atoms: S_31  and  N_35
    9  A    between atoms: C_33  and  C_34
   10  A    between atoms: C_33  and  C_38
                            x       y       z     vdW  Elec       q    Type
                         _______ _______ _______ _____ _____    ______ ____

>  <TORSDO>
F 10

$$$$
=
 OpenBabel11062422193D

 41 46  0  0  1  0  0  0  0  0999 V2000
  191.7970  175.6210  146.6450 C   0  0  0  0  0  2  0  0  0  0  0  0
  189.6970  176.4930  144.7320 C   0  0  0  0  0  0  0  0  0  0  0  0
  192.9750  175.2890  143.2910 C   0  0  0  0  0  2  0  0  0  0  0  0
  195.3570  174.1430  143.9630 C   0  0  1  0  0  0  0  0  0  0  0  0
  189.3360  175.6250  145.9060 C   0  0  0  0  0  2  0  0  0  0  0  0
  191.9630  174.5280  145.5940 C   0  0  2  0  0  3  0  0  0  0  0  0
  193.3210  173.8000  145.7730 C   0  0  0  0  0  2  0  0  0  0  0  0
  193.8970  174.1320  143.5890 C   0  0  1  0  0  3  0  0  0  0  0  0
  190.3310  175.7760  147.0620 C   0  0  0  0  0  2  0  0  0  0  0  0
  191.6930  175.0380  144.1190 C   0  0  1  0  0  3  0  0  0  0  0  0
  190.7850  176.2400  143.9870 C   0  0  0  0  0  3  0  0  0  0  0  0
  194.3420  174.5940  144.9870 C   0  0  2  0  0  3  0  0  0  0  0  0
  188.9160  177.7590  144.4610 C   0  0  1  0  0  3  0  0  0  0  0  0
  187.6720  177.6070  143.7390 C   0  0  2  0  0  3  0  0  0  0  0  0
  186.9530  177.9210  146.3540 N   0  0  0  0  0  0  0  0  0  0  0  0
  187.6050  177.8090  145.2560 C   0  0  0  0  0  0  0  0  0  0  0  0
  184.6990  178.5650  147.5570 O   0  0  0  0  0  0  0  0  0  0  0  0
  184.6190  178.5440  144.9120 N   0  0  0  0  0  1  0  0  0  0  0  0
  185.2400  177.8360  146.3600 S   0  0  0  0  0  0  0  0  0  0  0  0
  184.8190  176.3960  146.4270 O   0  0  0  0  0  0  0  0  0  0  0  0
  187.2080  176.1810  143.4280 C   0  0  0  0  0  2  0  0  0  0  0  0
  187.4900  175.7810  141.9800 C   0  0  2  0  0  3  0  0  0  0  0  0
  188.3940  173.6030  142.8040 C   0  0  0  0  0  3  0  0  0  0  0  0
  189.4690  174.6380  140.8970 C   0  0  0  0  0  3  0  0  0  0  0  0
  190.3820  173.5820  140.8360 C   0  0  0  0  0  3  0  0  0  0  0  0
  190.2990  172.5340  141.7580 C   0  0  0  0  0  3  0  0  0  0  0  0
  188.4670  174.6510  141.8800 C   0  0  0  0  0  0  0  0  0  0  0  0
  189.3050  172.5440  142.7410 C   0  0  0  0  0  3  0  0  0  0  0  0
  187.9060  176.8810  141.2230 O   0  0  0  0  0  0  0  0  0  0  0  0
  186.9380  177.0710  140.3510 O   0  0  0  0  0  1  0  0  0  0  0  0
  196.4760  171.9590  143.0080 C   0  0  1  0  0  3  0  0  0  0  0  0
  196.0600  172.7840  144.1810 C   0  0  2  0  0  0  0  0  0  0  0  0
  195.3070  171.6760  143.7490 O   0  0  0  0  0  0  0  0  0  0  0  0
  197.9410  171.7370  145.2700 F   0  0  0  0  0  0  0  0  0  0  0  0
  197.2240  173.7260  146.0340 F   0  0  0  0  0  0  0  0  0  0  0  0
  196.8200  172.5220  145.4890 C   0  0  0  0  0  0  0  0  0  0  0  0
  195.9990  171.8720  146.3910 F   0  0  0  0  0  0  0  0  0  0  0  0
  196.0890  172.5360  141.6550 C   0  0  0  0  0  2  0  0  0  0  0  0
  196.2830  171.5740  140.6650 O   0  0  0  0  0  1  0  0  0  0  0  0
  196.1210  176.1600  144.2250 F   0  0  0  0  0  0  0  0  0  0  0  0
  196.0800  175.1710  143.3460 O   0  0  0  0  0  0  0  0  0  0  0  0
  1  9  1  0  0  0  0
  2  5  1  0  0  0  0
  4 41  1  6  0  0  0
  4 32  1  0  0  0  0
  4 12  1  0  0  0  0
  5  9  1  0  0  0  0
  6  7  1  6  0  0  0
  6  1  1  0  0  0  0
  8  3  1  6  0  0  0
  8  4  1  0  0  0  0
  8 12  1  0  0  0  0
 10  3  1  1  0  0  0
 10  6  1  0  0  0  0
 11 10  1  0  0  0  0
 11  2  2  0  0  0  0
 12  7  1  1  0  0  0
 13  2  1  1  0  0  0
 13 16  1  0  0  0  0
 14 21  1  1  0  0  0
 14 13  1  0  0  0  0
 14 16  1  0  0  0  0
 15 19  1  0  0  0  0
 16 15  2  0  0  0  0
 18 19  1  0  0  0  0
 19 20  2  0  0  0  0
 19 17  2  0  0  0  0
 22 21  1  1  0  0  0
 24 27  1  0  0  0  0
 25 24  2  0  0  0  0
 25 26  1  0  0  0  0
 26 28  2  0  0  0  0
 27 22  1  0  0  0  0
 27 23  2  0  0  0  0
 28 23  1  0  0  0  0
 29 22  1  0  0  0  0
 30 29  1  0  0  0  0
 31 38  1  6  0  0  0
 31 33  1  0  0  0  0
 31 32  1  0  0  0  0
 32 36  1  1  0  0  0
 33 32  1  0  0  0  0
 34 36  1  0  0  0  0
 36 35  1  0  0  0  0
 36 37  1  0  0  0  0
 39 38  1  0  0  0  0
 41 40  1  0  0  0  0
M  END
>  <MODEL>
3

>  <REMARK>
 VINA RESULT:      -8.1      4.988      8.740
  Name = 
  10 active torsions:
  status: ('A' for Active; 'I' for Inactive)
    1  A    between atoms: C_2  and  C_19
    2  A    between atoms: C_5  and  C_8
    3  A    between atoms: C_6  and  C_15
    4  A    between atoms: C_6  and  O_22
    5  A    between atoms: O_14  and  C_33
    6  A    between atoms: C_15  and  C_36
    7  A    between atoms: C_30  and  C_38
    8  A    between atoms: S_31  and  N_35
    9  A    between atoms: C_33  and  C_34
   10  A    between atoms: C_33  and  C_38
                            x       y       z     vdW  Elec       q    Type
                         _______ _______ _______ _____ _____    ______ ____

>  <TORSDO>
F 10

$$$$
=
 OpenBabel11062422193D

 41 46  0  0  1  0  0  0  0  0999 V2000
  192.1740  175.8010  146.5760 C   0  0  0  0  0  2  0  0  0  0  0  0
  189.7830  176.4640  144.9410 C   0  0  0  0  0  0  0  0  0  0  0  0
  192.6990  174.8310  143.1800 C   0  0  0  0  0  2  0  0  0  0  0  0
  195.1280  173.6700  143.6130 C   0  0  1  0  0  0  0  0  0  0  0  0
  189.6190  175.8330  146.2960 C   0  0  0  0  0  2  0  0  0  0  0  0
  192.1090  174.5370  145.7240 C   0  0  2  0  0  3  0  0  0  0  0  0
  193.4550  173.7670  145.7870 C   0  0  0  0  0  2  0  0  0  0  0  0
  193.6250  173.6860  143.5130 C   0  0  1  0  0  3  0  0  0  0  0  0
  190.8160  176.1160  147.2110 C   0  0  0  0  0  2  0  0  0  0  0  0
  191.5850  174.8040  144.2540 C   0  0  1  0  0  3  0  0  0  0  0  0
  190.7060  176.0210  144.0710 C   0  0  0  0  0  3  0  0  0  0  0  0
  194.3350  174.3500  144.7030 C   0  0  2  0  0  3  0  0  0  0  0  0
  189.0040  177.7120  144.5900 C   0  0  1  0  0  3  0  0  0  0  0  0
  187.7880  177.5200  143.8310 C   0  0  2  0  0  3  0  0  0  0  0  0
  186.9720  177.9340  146.4040 N   0  0  0  0  0  0  0  0  0  0  0  0
  187.6640  177.7830  145.3350 C   0  0  0  0  0  0  0  0  0  0  0  0
  184.6730  178.5750  147.5200 O   0  0  0  0  0  0  0  0  0  0  0  0
  184.6840  178.5200  144.8740 N   0  0  0  0  0  1  0  0  0  0  0  0
  185.2610  177.8350  146.3520 S   0  0  0  0  0  0  0  0  0  0  0  0
  184.8490  176.3930  146.4230 O   0  0  0  0  0  0  0  0  0  0  0  0
  187.3450  176.0790  143.5620 C   0  0  0  0  0  2  0  0  0  0  0  0
  187.5350  175.6760  142.1000 C   0  0  2  0  0  3  0  0  0  0  0  0
  188.3770  173.4530  142.8690 C   0  0  0  0  0  3  0  0  0  0  0  0
  189.3980  174.4470  140.9120 C   0  0  0  0  0  3  0  0  0  0  0  0
  190.2550  173.3490  140.8000 C   0  0  0  0  0  3  0  0  0  0  0  0
  190.1720  172.3020  141.7220 C   0  0  0  0  0  3  0  0  0  0  0  0
  188.4510  174.5010  141.9460 C   0  0  0  0  0  0  0  0  0  0  0  0
  189.2330  172.3540  142.7570 C   0  0  0  0  0  3  0  0  0  0  0  0
  187.9640  176.7600  141.3270 O   0  0  0  0  0  0  0  0  0  0  0  0
  186.9940  176.9540  140.4580 O   0  0  0  0  0  1  0  0  0  0  0  0
  196.9670  172.2880  144.8960 C   0  0  1  0  0  3  0  0  0  0  0  0
  195.8190  172.3260  143.9420 C   0  0  2  0  0  0  0  0  0  0  0  0
  197.1520  172.2460  143.4960 O   0  0  0  0  0  0  0  0  0  0  0  0
  195.9100  169.9410  143.5960 F   0  0  0  0  0  0  0  0  0  0  0  0
  194.2750  170.7800  144.8920 F   0  0  0  0  0  0  0  0  0  0  0  0
  195.0470  171.0110  143.7690 C   0  0  0  0  0  0  0  0  0  0  0  0
  194.2200  171.0900  142.6640 F   0  0  0  0  0  0  0  0  0  0  0  0
  197.4020  173.6470  145.4220 C   0  0  0  0  0  2  0  0  0  0  0  0
  197.1400  173.7250  146.7880 O   0  0  0  0  0  1  0  0  0  0  0  0
  195.8860  175.6870  143.3350 F   0  0  0  0  0  0  0  0  0  0  0  0
  195.7550  174.5300  142.7040 O   0  0  0  0  0  0  0  0  0  0  0  0
  1  9  1  0  0  0  0
  2  5  1  0  0  0  0
  4 41  1  6  0  0  0
  4 32  1  0  0  0  0
  4 12  1  0  0  0  0
  5  9  1  0  0  0  0
  6  7  1  6  0  0  0
  6  1  1  0  0  0  0
  8  3  1  6  0  0  0
  8  4  1  0  0  0  0
  8 12  1  0  0  0  0
 10  3  1  6  0  0  0
 10  6  1  0  0  0  0
 11 10  1  0  0  0  0
 11  2  2  0  0  0  0
 12  7  1  1  0  0  0
 13  2  1  1  0  0  0
 13 16  1  0  0  0  0
 14 21  1  1  0  0  0
 14 13  1  0  0  0  0
 14 16  1  0  0  0  0
 16 15  2  0  0  0  0
 18 19  1  0  0  0  0
 19 15  1  0  0  0  0
 19 20  2  0  0  0  0
 19 17  2  0  0  0  0
 22 21  1  1  0  0  0
 24 27  1  0  0  0  0
 25 24  2  0  0  0  0
 25 26  1  0  0  0  0
 26 28  2  0  0  0  0
 27 22  1  0  0  0  0
 27 23  2  0  0  0  0
 28 23  1  0  0  0  0
 29 22  1  0  0  0  0
 30 29  1  0  0  0  0
 31 38  1  6  0  0  0
 32 36  1  6  0  0  0
 32 31  1  0  0  0  0
 33 32  1  0  0  0  0
 33 31  1  0  0  0  0
 34 36  1  0  0  0  0
 36 35  1  0  0  0  0
 37 36  1  0  0  0  0
 38 39  1  0  0  0  0
 41 40  1  0  0  0  0
M  END
>  <MODEL>
4

>  <REMARK>
 VINA RESULT:      -7.9      4.965      8.716
  Name = 
  10 active torsions:
  status: ('A' for Active; 'I' for Inactive)
    1  A    between atoms: C_2  and  C_19
    2  A    between atoms: C_5  and  C_8
    3  A    between atoms: C_6  and  C_15
    4  A    between atoms: C_6  and  O_22
    5  A    between atoms: O_14  and  C_33
    6  A    between atoms: C_15  and  C_36
    7  A    between atoms: C_30  and  C_38
    8  A    between atoms: S_31  and  N_35
    9  A    between atoms: C_33  and  C_34
   10  A    between atoms: C_33  and  C_38
                            x       y       z     vdW  Elec       q    Type
                         _______ _______ _______ _____ _____    ______ ____

>  <TORSDO>
F 10

$$$$
=
 OpenBabel11062422193D

 41 46  0  0  1  0  0  0  0  0999 V2000
  191.2050  173.4820  141.7990 C   0  0  0  0  0  2  0  0  0  0  0  0
  188.9450  175.2640  142.5410 C   0  0  0  0  0  0  0  0  0  0  0  0
  192.1940  175.6940  144.4220 C   0  0  0  0  0  2  0  0  0  0  0  0
  194.7930  174.8740  144.4900 C   0  0  1  0  0  0  0  0  0  0  0  0
  189.2550  174.9990  141.0930 C   0  0  0  0  0  2  0  0  0  0  0  0
  191.9750  174.7890  141.9640 C   0  0  2  0  0  3  0  0  0  0  0  0
  193.4960  174.5120  142.0970 C   0  0  0  0  0  2  0  0  0  0  0  0
  193.6480  175.7330  144.0200 C   0  0  1  0  0  3  0  0  0  0  0  0
  189.9830  173.6660  140.8940 C   0  0  0  0  0  2  0  0  0  0  0  0
  191.3850  175.7180  143.1020 C   0  0  1  0  0  3  0  0  0  0  0  0
  189.9210  175.5270  143.4260 C   0  0  0  0  0  3  0  0  0  0  0  0
  193.7620  174.2680  143.5660 C   0  0  2  0  0  3  0  0  0  0  0  0
  187.5340  175.0910  143.0550 C   0  0  1  0  0  3  0  0  0  0  0  0
  187.0730  176.0700  144.0150 C   0  0  2  0  0  3  0  0  0  0  0  0
  185.9420  176.8010  141.6390 N   0  0  0  0  0  0  0  0  0  0  0  0
  186.6010  176.2050  142.5630 C   0  0  0  0  0  0  0  0  0  0  0  0
  185.9510  179.3290  142.3840 O   0  0  0  0  0  0  0  0  0  0  0  0
  184.1040  178.6660  140.6080 N   0  0  0  0  0  1  0  0  0  0  0  0
  185.0280  178.2080  141.9940 S   0  0  0  0  0  0  0  0  0  0  0  0
  184.0980  177.9170  143.1360 O   0  0  0  0  0  0  0  0  0  0  0  0
  188.0040  177.2460  144.3230 C   0  0  0  0  0  2  0  0  0  0  0  0
  188.0040  177.6140  145.8070 C   0  0  2  0  0  3  0  0  0  0  0  0
  190.1980  177.4870  146.9940 C   0  0  0  0  0  3  0  0  0  0  0  0
  188.8390  175.4860  146.8880 C   0  0  0  0  0  3  0  0  0  0  0  0
  189.8150  174.7830  147.6000 C   0  0  0  0  0  3  0  0  0  0  0  0
  190.9820  175.4330  148.0110 C   0  0  0  0  0  3  0  0  0  0  0  0
  189.0250  176.8430  146.5860 C   0  0  0  0  0  0  0  0  0  0  0  0
  191.1740  176.7850  147.7080 C   0  0  0  0  0  3  0  0  0  0  0  0
  186.7280  177.4720  146.3630 O   0  0  0  0  0  0  0  0  0  0  0  0
  186.1520  178.6410  146.1750 O   0  0  0  0  0  1  0  0  0  0  0  0
  197.0560  174.0480  143.4260 C   0  0  1  0  0  3  0  0  0  0  0  0
  196.2010  175.1660  143.9210 C   0  0  2  0  0  0  0  0  0  0  0  0
  197.2500  174.6360  144.6960 O   0  0  0  0  0  0  0  0  0  0  0  0
  195.8650  176.7650  142.1460 F   0  0  0  0  0  0  0  0  0  0  0  0
  196.1080  177.5240  144.2480 F   0  0  0  0  0  0  0  0  0  0  0  0
  196.5170  176.5560  143.3510 C   0  0  0  0  0  0  0  0  0  0  0  0
  197.8770  176.6840  143.1420 F   0  0  0  0  0  0  0  0  0  0  0  0
  196.4540  172.6620  143.5990 C   0  0  0  0  0  2  0  0  0  0  0  0
  197.4570  171.7570  143.9450 O   0  0  0  0  0  1  0  0  0  0  0  0
  194.8250  175.6090  146.5350 F   0  0  0  0  0  0  0  0  0  0  0  0
  194.6880  174.4940  145.8330 O   0  0  0  0  0  0  0  0  0  0  0  0
  2 11  2  0  0  0  0
  4 41  1  1  0  0  0
  5  2  1  0  0  0  0
  6  1  1  1  0  0  0
  6  7  1  0  0  0  0
  6 10  1  0  0  0  0
  8  3  1  1  0  0  0
  8  4  1  0  0  0  0
  9  5  1  0  0  0  0
  9  1  1  0  0  0  0
 10 11  1  1  0  0  0
 10  3  1  0  0  0  0
 12  7  1  6  0  0  0
 12  8  1  0  0  0  0
 12  4  1  0  0  0  0
 13  2  1  6  0  0  0
 13 14  1  0  0  0  0
 14 21  1  6  0  0  0
 15 19  1  0  0  0  0
 15 16  2  0  0  0  0
 16 13  1  0  0  0  0
 16 14  1  0  0  0  0
 18 19  1  0  0  0  0
 19 17  2  0  0  0  0
 19 20  2  0  0  0  0
 22 21  1  6  0  0  0
 22 29  1  0  0  0  0
 22 27  1  0  0  0  0
 23 28  1  0  0  0  0
 24 25  2  0  0  0  0
 25 26  1  0  0  0  0
 27 24  1  0  0  0  0
 27 23  2  0  0  0  0
 28 26  2  0  0  0  0
 30 29  1  0  0  0  0
 31 38  1  1  0  0  0
 31 32  1  0  0  0  0
 31 33  1  0  0  0  0
 32 36  1  6  0  0  0
 32  4  1  0  0  0  0
 32 33  1  0  0  0  0
 34 36  1  0  0  0  0
 36 35  1  0  0  0  0
 37 36  1  0  0  0  0
 38 39  1  0  0  0  0
 41 40  1  0  0  0  0
M  END
>  <MODEL>
5

>  <REMARK>
 VINA RESULT:      -7.8      4.872      9.192
  Name = 
  10 active torsions:
  status: ('A' for Active; 'I' for Inactive)
    1  A    between atoms: C_2  and  C_19
    2  A    between atoms: C_5  and  C_8
    3  A    between atoms: C_6  and  C_15
    4  A    between atoms: C_6  and  O_22
    5  A    between atoms: O_14  and  C_33
    6  A    between atoms: C_15  and  C_36
    7  A    between atoms: C_30  and  C_38
    8  A    between atoms: S_31  and  N_35
    9  A    between atoms: C_33  and  C_34
   10  A    between atoms: C_33  and  C_38
                            x       y       z     vdW  Elec       q    Type
                         _______ _______ _______ _____ _____    ______ ____

>  <TORSDO>
F 10

$$$$
=
 OpenBabel11062422193D

 41 46  0  0  1  0  0  0  0  0999 V2000
  188.2900  174.9830  141.4480 C   0  0  0  0  0  2  0  0  0  0  0  0
  191.0610  174.9510  142.5210 C   0  0  0  0  0  0  0  0  0  0  0  0
  188.7740  177.7260  143.6820 C   0  0  0  0  0  2  0  0  0  0  0  0
  186.1970  178.6090  143.5750 C   0  0  1  0  0  0  0  0  0  0  0  0
  190.2690  173.6750  142.4350 C   0  0  0  0  0  2  0  0  0  0  0  0
  187.9880  175.3440  142.8990 C   0  0  2  0  0  3  0  0  0  0  0  0
  186.5630  175.9440  143.0270 C   0  0  0  0  0  2  0  0  0  0  0  0
  187.3340  177.7890  144.1270 C   0  0  1  0  0  3  0  0  0  0  0  0
  189.1840  173.7430  141.3550 C   0  0  0  0  0  2  0  0  0  0  0  0
  189.1220  176.2220  143.5700 C   0  0  1  0  0  3  0  0  0  0  0  0
  190.5070  176.0860  142.9790 C   0  0  0  0  0  3  0  0  0  0  0  0
  186.6970  177.4300  142.7740 C   0  0  2  0  0  3  0  0  0  0  0  0
  192.4600  175.0120  141.9510 C   0  0  1  0  0  3  0  0  0  0  0  0
  193.5340  174.6210  142.8380 C   0  0  2  0  0  3  0  0  0  0  0  0
  193.1370  172.4740  141.1980 N   0  0  0  0  0  0  0  0  0  0  0  0
  193.0730  173.6150  141.7780 C   0  0  0  0  0  0  0  0  0  0  0  0
  194.3050  170.1570  140.7410 O   0  0  0  0  0  0  0  0  0  0  0  0
  195.8430  172.0200  141.8210 N   0  0  0  0  0  1  0  0  0  0  0  0
  194.2760  171.3010  141.7150 S   0  0  0  0  0  0  0  0  0  0  0  0
  193.8740  170.7870  143.0680 O   0  0  0  0  0  0  0  0  0  0  0  0
  193.1480  174.0730  144.2150 C   0  0  0  0  0  2  0  0  0  0  0  0
  193.2580  175.1300  145.3130 C   0  0  2  0  0  3  0  0  0  0  0  0
  191.0180  174.3360  146.0810 C   0  0  0  0  0  3  0  0  0  0  0  0
  191.6410  176.6270  146.5520 C   0  0  0  0  0  3  0  0  0  0  0  0
  190.4080  176.8360  147.1760 C   0  0  0  0  0  3  0  0  0  0  0  0
  189.4800  175.7930  147.2540 C   0  0  0  0  0  3  0  0  0  0  0  0
  191.9530  175.3740  146.0050 C   0  0  0  0  0  0  0  0  0  0  0  0
  189.7850  174.5430  146.7070 C   0  0  0  0  0  3  0  0  0  0  0  0
  193.8000  176.3210  144.8170 O   0  0  0  0  0  0  0  0  0  0  0  0
  194.9380  176.4630  145.4630 O   0  0  0  0  0  1  0  0  0  0  0  0
  183.5850  178.2960  143.4420 C   0  0  1  0  0  3  0  0  0  0  0  0
  184.8170  178.4930  144.2620 C   0  0  2  0  0  0  0  0  0  0  0  0
  183.9430  179.5570  143.9710 O   0  0  0  0  0  0  0  0  0  0  0  0
  184.8250  176.6480  145.8170 F   0  0  0  0  0  0  0  0  0  0  0  0
  185.7670  178.5900  146.4450 F   0  0  0  0  0  0  0  0  0  0  0  0
  184.7320  178.0270  145.7230 C   0  0  0  0  0  0  0  0  0  0  0  0
  183.5300  178.4250  146.2770 F   0  0  0  0  0  0  0  0  0  0  0  0
  183.8150  178.2960  141.9390 C   0  0  0  0  0  2  0  0  0  0  0  0
  182.6190  178.0120  141.2830 O   0  0  0  0  0  1  0  0  0  0  0  0
  185.9630  180.7510  143.8530 F   0  0  0  0  0  0  0  0  0  0  0  0
  186.5960  179.8640  143.1010 O   0  0  0  0  0  0  0  0  0  0  0  0
  2 11  2  0  0  0  0
  4 41  1  6  0  0  0
  4  8  1  0  0  0  0
  4 32  1  0  0  0  0
  5  2  1  0  0  0  0
  6  1  1  6  0  0  0
  6  7  1  0  0  0  0
  6 10  1  0  0  0  0
  8  3  1  6  0  0  0
  9  1  1  0  0  0  0
  9  5  1  0  0  0  0
 10 11  1  6  0  0  0
 10  3  1  0  0  0  0
 12  7  1  1  0  0  0
 12  4  1  0  0  0  0
 12  8  1  0  0  0  0
 13  2  1  1  0  0  0
 13 14  1  0  0  0  0
 14 21  1  1  0  0  0
 15 19  1  0  0  0  0
 15 16  2  0  0  0  0
 16 13  1  0  0  0  0
 16 14  1  0  0  0  0
 17 19  2  0  0  0  0
 19 18  1  0  0  0  0
 19 20  2  0  0  0  0
 22 21  1  6  0  0  0
 22 27  1  0  0  0  0
 23 28  1  0  0  0  0
 24 25  2  0  0  0  0
 25 26  1  0  0  0  0
 27 23  2  0  0  0  0
 27 24  1  0  0  0  0
 28 26  2  0  0  0  0
 29 22  1  0  0  0  0
 29 30  1  0  0  0  0
 31 38  1  6  0  0  0
 31 33  1  0  0  0  0
 31 32  1  0  0  0  0
 32 36  1  1  0  0  0
 33 32  1  0  0  0  0
 36 34  1  0  0  0  0
 36 37  1  0  0  0  0
 36 35  1  0  0  0  0
 39 38  1  0  0  0  0
 41 40  1  0  0  0  0
M  END
>  <MODEL>
6

>  <REMARK>
 VINA RESULT:      -7.6      2.064      4.133
  Name = 
  10 active torsions:
  status: ('A' for Active; 'I' for Inactive)
    1  A    between atoms: C_2  and  C_19
    2  A    between atoms: C_5  and  C_8
    3  A    between atoms: C_6  and  C_15
    4  A    between atoms: C_6  and  O_22
    5  A    between atoms: O_14  and  C_33
    6  A    between atoms: C_15  and  C_36
    7  A    between atoms: C_30  and  C_38
    8  A    between atoms: S_31  and  N_35
    9  A    between atoms: C_33  and  C_34
   10  A    between atoms: C_33  and  C_38
                            x       y       z     vdW  Elec       q    Type
                         _______ _______ _______ _____ _____    ______ ____

>  <TORSDO>
F 10

$$$$
=
 OpenBabel11062422193D

 41 46  0  0  1  0  0  0  0  0999 V2000
  190.8470  176.1880  145.7510 C   0  0  0  0  0  2  0  0  0  0  0  0
  192.5890  176.3810  143.3510 C   0  0  0  0  0  0  0  0  0  0  0  0
  188.8660  176.7700  142.8380 C   0  0  0  0  0  2  0  0  0  0  0  0
  186.4960  176.9800  144.1710 C   0  0  1  0  0  0  0  0  0  0  0  0
  192.9780  177.0790  144.6250 C   0  0  0  0  0  2  0  0  0  0  0  0
  190.1590  177.3560  145.0490 C   0  0  2  0  0  3  0  0  0  0  0  0
  188.7400  177.5830  145.6340 C   0  0  0  0  0  2  0  0  0  0  0  0
  187.7720  177.5100  143.5680 C   0  0  1  0  0  3  0  0  0  0  0  0
  192.3580  176.4150  145.8590 C   0  0  0  0  0  2  0  0  0  0  0  0
  190.1970  177.2410  143.4710 C   0  0  1  0  0  3  0  0  0  0  0  0
  191.3280  176.4240  142.8890 C   0  0  0  0  0  3  0  0  0  0  0  0
  187.8060  176.6780  144.8610 C   0  0  2  0  0  3  0  0  0  0  0  0
  193.5850  175.4910  142.6440 C   0  0  1  0  0  3  0  0  0  0  0  0
  193.5690  174.0900  143.0050 C   0  0  2  0  0  3  0  0  0  0  0  0
  192.2520  174.2340  140.6170 N   0  0  0  0  0  0  0  0  0  0  0  0
  192.9000  174.5030  141.6890 C   0  0  0  0  0  0  0  0  0  0  0  0
  191.5540  172.4720  138.7870 O   0  0  0  0  0  0  0  0  0  0  0  0
  193.0380  171.5360  140.7690 N   0  0  0  0  0  1  0  0  0  0  0  0
  191.7920  172.6200  140.2630 S   0  0  0  0  0  0  0  0  0  0  0  0
  190.5240  172.2960  141.0010 O   0  0  0  0  0  0  0  0  0  0  0  0
  192.4730  173.6240  143.9690 C   0  0  0  0  0  2  0  0  0  0  0  0
  192.9960  172.6310  145.0060 C   0  0  2  0  0  3  0  0  0  0  0  0
  195.3270  171.7340  145.0850 C   0  0  0  0  0  3  0  0  0  0  0  0
  194.9620  174.0290  145.7630 C   0  0  0  0  0  3  0  0  0  0  0  0
  196.3270  174.1680  146.0330 C   0  0  0  0  0  3  0  0  0  0  0  0
  197.1920  173.0890  145.8260 C   0  0  0  0  0  3  0  0  0  0  0  0
  194.4570  172.8110  145.2830 C   0  0  0  0  0  0  0  0  0  0  0  0
  196.6920  171.8720  145.3520 C   0  0  0  0  0  3  0  0  0  0  0  0
  192.7090  171.3140  144.6360 O   0  0  0  0  0  0  0  0  0  0  0  0
  191.5450  171.3870  144.0240 O   0  0  0  0  0  1  0  0  0  0  0  0
  184.6410  178.8410  143.9970 C   0  0  1  0  0  3  0  0  0  0  0  0
  185.5350  177.9910  144.8380 C   0  0  2  0  0  0  0  0  0  0  0  0
  185.8390  179.3370  144.5590 O   0  0  0  0  0  0  0  0  0  0  0  0
  185.0510  176.4150  146.5990 F   0  0  0  0  0  0  0  0  0  0  0  0
  185.9550  178.4000  147.1470 F   0  0  0  0  0  0  0  0  0  0  0  0
  185.0790  177.7650  146.2860 C   0  0  0  0  0  0  0  0  0  0  0  0
  183.8120  178.2850  146.4700 F   0  0  0  0  0  0  0  0  0  0  0  0
  184.8210  178.6660  142.4980 C   0  0  0  0  0  2  0  0  0  0  0  0
  183.6660  178.1130  141.9500 O   0  0  0  0  0  1  0  0  0  0  0  0
  186.3160  176.0980  142.1930 F   0  0  0  0  0  0  0  0  0  0  0  0
  185.9420  175.9160  143.4500 O   0  0  0  0  0  0  0  0  0  0  0  0
  1  9  1  0  0  0  0
  2  5  1  0  0  0  0
  4 41  1  6  0  0  0
  4 32  1  0  0  0  0
  4 12  1  0  0  0  0
  5  9  1  0  0  0  0
  6  7  1  1  0  0  0
  6  1  1  0  0  0  0
  8  3  1  6  0  0  0
  8  4  1  0  0  0  0
  8 12  1  0  0  0  0
 10  3  1  1  0  0  0
 10  6  1  0  0  0  0
 11  2  2  0  0  0  0
 11 10  1  0  0  0  0
 12  7  1  1  0  0  0
 13 14  1  0  0  0  0
 13  2  1  1  0  0  0
 14 21  1  1  0  0  0
 15 16  2  0  0  0  0
 16 13  1  0  0  0  0
 16 14  1  0  0  0  0
 17 19  2  0  0  0  0
 19 15  1  0  0  0  0
 19 18  1  0  0  0  0
 19 20  2  0  0  0  0
 22 21  1  6  0  0  0
 22 27  1  0  0  0  0
 23 27  2  0  0  0  0
 23 28  1  0  0  0  0
 24 25  2  0  0  0  0
 26 25  1  0  0  0  0
 27 24  1  0  0  0  0
 28 26  2  0  0  0  0
 29 22  1  0  0  0  0
 30 29  1  0  0  0  0
 31 38  1  6  0  0  0
 31 33  1  0  0  0  0
 31 32  1  0  0  0  0
 32 36  1  1  0  0  0
 33 32  1  0  0  0  0
 36 37  1  0  0  0  0
 36 34  1  0  0  0  0
 36 35  1  0  0  0  0
 39 38  1  0  0  0  0
 40 41  1  0  0  0  0
M  END
>  <MODEL>
7

>  <REMARK>
 VINA RESULT:      -7.5      2.694      4.111
  Name = 
  10 active torsions:
  status: ('A' for Active; 'I' for Inactive)
    1  A    between atoms: C_2  and  C_19
    2  A    between atoms: C_5  and  C_8
    3  A    between atoms: C_6  and  C_15
    4  A    between atoms: C_6  and  O_22
    5  A    between atoms: O_14  and  C_33
    6  A    between atoms: C_15  and  C_36
    7  A    between atoms: C_30  and  C_38
    8  A    between atoms: S_31  and  N_35
    9  A    between atoms: C_33  and  C_34
   10  A    between atoms: C_33  and  C_38
                            x       y       z     vdW  Elec       q    Type
                         _______ _______ _______ _____ _____    ______ ____

>  <TORSDO>
F 10

$$$$
=
 OpenBabel11062422193D

 41 46  0  0  1  0  0  0  0  0999 V2000
  190.7520  176.5900  146.2270 C   0  0  0  0  0  2  0  0  0  0  0  0
  192.0540  174.3210  144.8180 C   0  0  0  0  0  0  0  0  0  0  0  0
  188.5470  175.2470  143.7610 C   0  0  0  0  0  2  0  0  0  0  0  0
  186.5820  177.1010  144.1300 C   0  0  1  0  0  0  0  0  0  0  0  0
  192.8270  175.5820  145.0940 C   0  0  0  0  0  2  0  0  0  0  0  0
  190.3020  176.9030  144.8040 C   0  0  2  0  0  3  0  0  0  0  0  0
  189.1170  177.9050  144.8150 C   0  0  0  0  0  2  0  0  0  0  0  0
  187.8350  176.5510  143.4980 C   0  0  1  0  0  3  0  0  0  0  0  0
  192.2640  176.3510  146.2940 C   0  0  0  0  0  2  0  0  0  0  0  0
  190.0430  175.6050  143.9350 C   0  0  1  0  0  3  0  0  0  0  0  0
  190.7940  174.3620  144.3540 C   0  0  0  0  0  3  0  0  0  0  0  0
  187.8560  177.0780  144.9420 C   0  0  2  0  0  3  0  0  0  0  0  0
  192.6380  172.9800  145.2010 C   0  0  1  0  0  3  0  0  0  0  0  0
  193.0320  172.1140  144.1120 C   0  0  2  0  0  3  0  0  0  0  0  0
  195.3560  173.2040  145.0420 N   0  0  0  0  0  0  0  0  0  0  0  0
  194.1300  172.8800  144.8570 C   0  0  0  0  0  0  0  0  0  0  0  0
  197.9340  172.9930  144.5430 O   0  0  0  0  0  0  0  0  0  0  0  0
  196.5000  170.8170  144.0880 N   0  0  0  0  0  1  0  0  0  0  0  0
  196.5880  172.5410  144.0510 S   0  0  0  0  0  0  0  0  0  0  0  0
  196.3940  173.0160  142.6400 O   0  0  0  0  0  0  0  0  0  0  0  0
  192.9360  172.6790  142.6920 C   0  0  0  0  0  2  0  0  0  0  0  0
  192.1670  171.7540  141.7480 C   0  0  2  0  0  3  0  0  0  0  0  0
  189.7320  172.0270  142.2350 C   0  0  0  0  0  3  0  0  0  0  0  0
  190.6160  173.0390  140.2210 C   0  0  0  0  0  3  0  0  0  0  0  0
  189.3420  173.5170  139.9010 C   0  0  0  0  0  3  0  0  0  0  0  0
  188.2630  173.2520  140.7500 C   0  0  0  0  0  3  0  0  0  0  0  0
  190.8170  172.2950  141.3930 C   0  0  0  0  0  0  0  0  0  0  0  0
  188.4580  172.5070  141.9170 C   0  0  0  0  0  3  0  0  0  0  0  0
  192.0750  170.4610  142.2720 O   0  0  0  0  0  0  0  0  0  0  0  0
  192.7030  169.7020  141.3980 O   0  0  0  0  0  1  0  0  0  0  0  0
  185.7170  178.6600  142.1910 C   0  0  1  0  0  3  0  0  0  0  0  0
  186.0580  178.4680  143.6320 C   0  0  2  0  0  0  0  0  0  0  0  0
  186.9320  179.1250  142.7440 O   0  0  0  0  0  0  0  0  0  0  0  0
  185.8790  179.2760  145.8980 F   0  0  0  0  0  0  0  0  0  0  0  0
  185.5770  180.7290  144.2090 F   0  0  0  0  0  0  0  0  0  0  0  0
  185.3720  179.4250  144.6170 C   0  0  0  0  0  0  0  0  0  0  0  0
  184.0130  179.1730  144.6520 F   0  0  0  0  0  0  0  0  0  0  0  0
  185.9950  177.4550  141.3060 C   0  0  0  0  0  2  0  0  0  0  0  0
  185.3730  177.6300  140.0710 O   0  0  0  0  0  1  0  0  0  0  0  0
  185.3160  176.3360  145.7220 F   0  0  0  0  0  0  0  0  0  0  0  0
  185.6460  176.1140  144.4590 O   0  0  0  0  0  0  0  0  0  0  0  0
  1  9  1  0  0  0  0
  2  5  1  0  0  0  0
  4 41  1  1  0  0  0
  4 12  1  0  0  0  0
  5  9  1  0  0  0  0
  6  7  1  1  0  0  0
  6  1  1  0  0  0  0
  8  3  1  1  0  0  0
  8  4  1  0  0  0  0
  8 12  1  0  0  0  0
 10  3  1  1  0  0  0
 10 11  1  0  0  0  0
 10  6  1  0  0  0  0
 11  2  2  0  0  0  0
 12  7  1  6  0  0  0
 13  2  1  6  0  0  0
 14 21  1  6  0  0  0
 14 16  1  0  0  0  0
 14 13  1  0  0  0  0
 16 15  2  0  0  0  0
 16 13  1  0  0  0  0
 19 18  1  0  0  0  0
 19 17  2  0  0  0  0
 19 15  1  0  0  0  0
 20 19  2  0  0  0  0
 22 29  1  0  0  0  0
 22 21  1  1  0  0  0
 24 27  1  0  0  0  0
 25 24  2  0  0  0  0
 25 26  1  0  0  0  0
 26 28  2  0  0  0  0
 27 22  1  0  0  0  0
 27 23  2  0  0  0  0
 28 23  1  0  0  0  0
 30 29  1  0  0  0  0
 31 38  1  6  0  0  0
 31 33  1  0  0  0  0
 31 32  1  0  0  0  0
 32  4  1  0  0  0  0
 32 36  1  1  0  0  0
 33 32  1  0  0  0  0
 35 36  1  0  0  0  0
 36 37  1  0  0  0  0
 36 34  1  0  0  0  0
 39 38  1  0  0  0  0
 41 40  1  0  0  0  0
M  END
>  <MODEL>
8

>  <REMARK>
 VINA RESULT:      -7.4      1.932      2.306
  Name = 
  10 active torsions:
  status: ('A' for Active; 'I' for Inactive)
    1  A    between atoms: C_2  and  C_19
    2  A    between atoms: C_5  and  C_8
    3  A    between atoms: C_6  and  C_15
    4  A    between atoms: C_6  and  O_22
    5  A    between atoms: O_14  and  C_33
    6  A    between atoms: C_15  and  C_36
    7  A    between atoms: C_30  and  C_38
    8  A    between atoms: S_31  and  N_35
    9  A    between atoms: C_33  and  C_34
   10  A    between atoms: C_33  and  C_38
                            x       y       z     vdW  Elec       q    Type
                         _______ _______ _______ _____ _____    ______ ____

>  <TORSDO>
F 10

$$$$
=
 OpenBabel11062422193D

 41 46  0  0  1  0  0  0  0  0999 V2000
  188.8650  173.8110  141.1890 C   0  0  0  0  0  2  0  0  0  0  0  0
  191.4910  173.3600  142.5040 C   0  0  0  0  0  0  0  0  0  0  0  0
  189.6630  176.5650  143.3170 C   0  0  0  0  0  2  0  0  0  0  0  0
  187.3050  177.8800  142.9380 C   0  0  1  0  0  0  0  0  0  0  0  0
  190.4900  172.2410  142.4120 C   0  0  0  0  0  2  0  0  0  0  0  0
  188.5210  174.3130  142.5880 C   0  0  2  0  0  3  0  0  0  0  0  0
  187.2230  175.1620  142.5590 C   0  0  0  0  0  2  0  0  0  0  0  0
  188.2270  176.9100  143.6290 C   0  0  1  0  0  3  0  0  0  0  0  0
  189.5230  172.4290  141.2380 C   0  0  0  0  0  2  0  0  0  0  0  0
  189.7390  175.0190  143.3120 C   0  0  1  0  0  3  0  0  0  0  0  0
  191.1180  174.6020  142.8530 C   0  0  0  0  0  3  0  0  0  0  0  0
  187.6440  176.5810  142.2450 C   0  0  2  0  0  3  0  0  0  0  0  0
  192.9180  173.1350  142.0570 C   0  0  1  0  0  3  0  0  0  0  0  0
  193.9320  173.1880  143.0880 C   0  0  2  0  0  3  0  0  0  0  0  0
  193.5350  170.5290  142.6020 N   0  0  0  0  0  0  0  0  0  0  0  0
  193.4850  171.8100  142.5850 C   0  0  0  0  0  0  0  0  0  0  0  0
  195.8980  170.4700  143.7660 O   0  0  0  0  0  0  0  0  0  0  0  0
  193.8780  169.5950  145.2340 N   0  0  0  0  0  1  0  0  0  0  0  0
  194.6020  169.7160  143.6700 S   0  0  0  0  0  0  0  0  0  0  0  0
  194.8720  168.3370  143.1410 O   0  0  0  0  0  0  0  0  0  0  0  0
  193.4560  173.3420  144.5360 C   0  0  0  0  0  2  0  0  0  0  0  0
  193.9620  174.6340  145.1780 C   0  0  2  0  0  3  0  0  0  0  0  0
  193.2680  176.4370  146.7620 C   0  0  0  0  0  3  0  0  0  0  0  0
  191.6980  174.6520  146.3040 C   0  0  0  0  0  3  0  0  0  0  0  0
  190.7750  175.2380  147.1750 C   0  0  0  0  0  3  0  0  0  0  0  0
  191.0990  176.4250  147.8390 C   0  0  0  0  0  3  0  0  0  0  0  0
  192.9480  175.2520  146.0910 C   0  0  0  0  0  0  0  0  0  0  0  0
  192.3450  177.0240  147.6320 C   0  0  0  0  0  3  0  0  0  0  0  0
  194.3960  175.5450  144.2100 O   0  0  0  0  0  0  0  0  0  0  0  0
  195.6160  175.8700  144.5820 O   0  0  0  0  0  1  0  0  0  0  0  0
  184.6970  177.9980  142.5940 C   0  0  1  0  0  3  0  0  0  0  0  0
  185.8770  178.0550  143.5060 C   0  0  2  0  0  0  0  0  0  0  0  0
  185.2260  179.2220  143.0630 O   0  0  0  0  0  0  0  0  0  0  0  0
  184.3730  178.2360  145.3830 F   0  0  0  0  0  0  0  0  0  0  0  0
  185.6000  176.3650  145.1630 F   0  0  0  0  0  0  0  0  0  0  0  0
  185.6020  177.7350  144.9820 C   0  0  0  0  0  0  0  0  0  0  0  0
  186.5840  178.2930  145.7780 F   0  0  0  0  0  0  0  0  0  0  0  0
  185.0370  177.8320  141.1210 C   0  0  0  0  0  2  0  0  0  0  0  0
  184.4230  178.8430  140.3840 O   0  0  0  0  0  1  0  0  0  0  0  0
  188.5730  178.6160  141.3340 F   0  0  0  0  0  0  0  0  0  0  0  0
  187.9610  179.0120  142.4400 O   0  0  0  0  0  0  0  0  0  0  0  0
  1  9  1  0  0  0  0
  2 11  2  0  0  0  0
  4 41  1  6  0  0  0
  4 32  1  0  0  0  0
  4  8  1  0  0  0  0
  5  2  1  0  0  0  0
  6  1  1  6  0  0  0
  6 10  1  0  0  0  0
  7  6  1  0  0  0  0
  8  3  1  6  0  0  0
  9  5  1  0  0  0  0
 10 11  1  6  0  0  0
 10  3  1  0  0  0  0
 12  7  1  1  0  0  0
 12  4  1  0  0  0  0
 12  8  1  0  0  0  0
 13  2  1  1  0  0  0
 13 16  1  0  0  0  0
 13 14  1  0  0  0  0
 14 21  1  1  0  0  0
 15 19  1  0  0  0  0
 16 15  2  0  0  0  0
 16 14  1  0  0  0  0
 19 17  2  0  0  0  0
 19 18  1  0  0  0  0
 20 19  2  0  0  0  0
 22 21  1  6  0  0  0
 22 27  1  0  0  0  0
 23 28  1  0  0  0  0
 24 25  2  0  0  0  0
 25 26  1  0  0  0  0
 27 24  1  0  0  0  0
 27 23  2  0  0  0  0
 28 26  2  0  0  0  0
 29 30  1  0  0  0  0
 29 22  1  0  0  0  0
 31 38  1  6  0  0  0
 31 33  1  0  0  0  0
 31 32  1  0  0  0  0
 32 36  1  1  0  0  0
 33 32  1  0  0  0  0
 36 35  1  0  0  0  0
 36 34  1  0  0  0  0
 36 37  1  0  0  0  0
 39 38  1  0  0  0  0
 40 41  1  0  0  0  0
M  END
>  <MODEL>
9

>  <REMARK>
 VINA RESULT:      -7.2      2.500      4.558
  Name = 
  10 active torsions:
  status: ('A' for Active; 'I' for Inactive)
    1  A    between atoms: C_2  and  C_19
    2  A    between atoms: C_5  and  C_8
    3  A    between atoms: C_6  and  C_15
    4  A    between atoms: C_6  and  O_22
    5  A    between atoms: O_14  and  C_33
    6  A    between atoms: C_15  and  C_36
    7  A    between atoms: C_30  and  C_38
    8  A    between atoms: S_31  and  N_35
    9  A    between atoms: C_33  and  C_34
   10  A    between atoms: C_33  and  C_38
                            x       y       z     vdW  Elec       q    Type
                         _______ _______ _______ _____ _____    ______ ____

>  <TORSDO>
F 10

$$$$
