=
 OpenBabel11062421263D

 31 35  0  0  1  0  0  0  0  0999 V2000
  194.4020  174.0230  145.3340 C   0  0  0  0  0  0  0  0  0  0  0  0
  190.8000  174.9270  146.3160 C   0  0  1  0  0  3  0  0  0  0  0  0
  192.0550  174.7510  145.4680 C   0  0  0  0  0  0  0  0  0  0  0  0
  188.7560  176.6030  145.9890 C   0  0  1  0  0  3  0  0  0  0  0  0
  188.8710  174.6130  141.1120 N   0  0  0  0  0  0  0  0  0  0  0  0
  192.2120  175.3270  144.0630 C   0  0  1  0  0  3  0  0  0  0  0  0
  190.5540  174.3170  142.4520 C   0  0  0  0  0  0  0  0  0  0  0  0
  190.2630  174.4510  141.2040 N   0  0  0  0  0  0  0  0  0  0  0  0
  193.6370  175.8840  143.9070 C   0  0  2  0  0  3  0  0  0  0  0  0
  191.0950  175.7460  147.5750 C   0  0  0  0  0  2  0  0  0  0  0  0
  189.3260  174.3630  143.2150 C   0  0  0  0  0  0  0  0  0  0  0  0
  193.8730  176.3170  142.6000 O   0  0  0  0  0  1  0  0  0  0  0  0
  188.3090  174.5970  142.2540 N   0  0  0  0  0  0  0  0  0  0  0  0
  189.2970  177.3730  147.1980 C   0  0  0  0  0  2  0  0  0  0  0  0
  189.3180  174.8590  144.4110 C   0  0  0  0  0  0  0  0  0  0  0  0
  193.0910  174.0870  146.0110 C   0  0  0  0  0  3  0  0  0  0  0  0
  189.5390  175.3720  145.5850 C   0  0  0  0  0  0  0  0  0  0  0  0
  191.9480  174.2420  142.9980 C   0  0  0  0  0  2  0  0  0  0  0  0
  190.7990  177.2170  147.3530 C   0  0  0  0  0  2  0  0  0  0  0  0
  194.6600  174.8570  144.3130 C   0  0  0  0  0  3  0  0  0  0  0  0
  196.7080  173.4290  146.0220 C   0  0  0  0  0  1  0  0  0  0  0  0
  195.3470  173.0940  145.7820 O   0  0  0  0  0  0  0  0  0  0  0  0
  187.2350  176.3780  146.0900 C   0  0  0  0  0  2  0  0  0  0  0  0
  187.0570  178.4860  144.6460 C   0  0  0  0  0  2  0  0  0  0  0  0
  186.6820  178.5920  143.1780 C   0  0  0  0  0  2  0  0  0  0  0  0
  185.6020  177.0100  141.7830 O   0  0  0  0  0  0  0  0  0  0  0  0
  185.9830  177.3230  142.8980 C   0  0  0  0  0  0  0  0  0  0  0  0
  185.7820  176.4630  144.0830 C   0  0  0  0  0  2  0  0  0  0  0  0
  186.3150  177.2840  145.2490 C   0  0  1  0  0  0  0  0  0  0  0  0
  185.1690  177.7580  146.0380 C   0  0  0  0  0  0  0  0  0  0  0  0
  184.2270  178.1530  146.6800 C   0  0  0  0  0  3  0  0  0  0  0  0
  1 22  1  0  0  0  0
  1 16  1  0  0  0  0
  2 10  1  1  0  0  0
  3 16  2  0  0  0  0
  3  2  1  0  0  0  0
  4 23  1  1  0  0  0
  4 14  1  0  0  0  0
  5  8  1  0  0  0  0
  5 13  2  0  0  0  0
  6 18  1  6  0  0  0
  6  3  1  0  0  0  0
  7 18  1  0  0  0  0
  7 11  1  0  0  0  0
  8  7  2  0  0  0  0
  9 12  1  6  0  0  0
  9  6  1  0  0  0  0
  9 20  1  0  0  0  0
 11 15  2  0  0  0  0
 13 11  1  0  0  0  0
 14 19  1  0  0  0  0
 15 17  2  0  0  0  0
 17  4  1  0  0  0  0
 17  2  1  0  0  0  0
 19 10  1  0  0  0  0
 20  1  2  0  0  0  0
 22 21  1  0  0  0  0
 24 29  1  0  0  0  0
 25 24  1  0  0  0  0
 26 27  2  0  0  0  0
 27 25  1  0  0  0  0
 27 28  1  0  0  0  0
 28 29  1  0  0  0  0
 29 30  1  1  0  0  0
 29 23  1  0  0  0  0
 30 31  3  0  0  0  0
M  END
>  <MODEL>
1

>  <REMARK>
 VINA RESULT:      -7.9      0.000      0.000
  Name = 
  4 active torsions:
  status: ('A' for Active; 'I' for Inactive)
    1  A    between atoms: C_1  and  O_26
    2  A    between atoms: C_4  and  C_30
    3  A    between atoms: C_5  and  C_14
    4  A    between atoms: C_14  and  C_30
                            x       y       z     vdW  Elec       q    Type
                         _______ _______ _______ _____ _____    ______ ____

>  <TORSDO>
F 4

$$$$
=
 OpenBabel11062421263D

 31 35  0  0  1  0  0  0  0  0999 V2000
  194.7210  173.0840  143.9580 C   0  0  0  0  0  0  0  0  0  0  0  0
  191.5410  174.2320  145.7820 C   0  0  1  0  0  3  0  0  0  0  0  0
  192.5460  173.9970  144.6600 C   0  0  0  0  0  0  0  0  0  0  0  0
  189.6430  176.0880  145.9960 C   0  0  1  0  0  3  0  0  0  0  0  0
  188.4500  174.3610  141.1640 N   0  0  0  0  0  0  0  0  0  0  0  0
  192.4300  174.6320  143.2760 C   0  0  1  0  0  3  0  0  0  0  0  0
  190.3590  173.8530  142.0640 C   0  0  0  0  0  0  0  0  0  0  0  0
  189.8040  174.0780  140.9230 N   0  0  0  0  0  0  0  0  0  0  0  0
  193.8270  175.0760  142.8100 C   0  0  2  0  0  3  0  0  0  0  0  0
  192.1930  174.9540  146.9640 C   0  0  0  0  0  2  0  0  0  0  0  0
  189.3500  173.9610  143.0940 C   0  0  0  0  0  0  0  0  0  0  0  0
  193.7970  175.5570  141.4990 O   0  0  0  0  0  1  0  0  0  0  0  0
  188.1660  174.3300  142.4050 N   0  0  0  0  0  0  0  0  0  0  0  0
  190.5170  176.7440  147.0700 C   0  0  0  0  0  2  0  0  0  0  0  0
  189.6630  174.3910  144.2740 C   0  0  0  0  0  0  0  0  0  0  0  0
  193.6120  173.2210  144.9240 C   0  0  0  0  0  3  0  0  0  0  0  0
  190.1940  174.8200  145.3810 C   0  0  0  0  0  0  0  0  0  0  0  0
  191.8280  173.6320  142.2670 C   0  0  0  0  0  2  0  0  0  0  0  0
  191.9930  176.4550  146.8650 C   0  0  0  0  0  2  0  0  0  0  0  0
  194.8150  173.9470  142.9330 C   0  0  0  0  0  3  0  0  0  0  0  0
  195.6790  171.2350  145.3030 C   0  0  0  0  0  1  0  0  0  0  0  0
  195.6520  172.0560  144.1420 O   0  0  0  0  0  0  0  0  0  0  0  0
  188.1720  175.9860  146.4410 C   0  0  0  0  0  2  0  0  0  0  0  0
  185.7370  176.4840  145.8230 C   0  0  0  0  0  2  0  0  0  0  0  0
  184.8140  177.5360  146.4110 C   0  0  0  0  0  2  0  0  0  0  0  0
  185.3440  179.4590  147.6910 O   0  0  0  0  0  0  0  0  0  0  0  0
  185.7330  178.5040  147.0390 C   0  0  0  0  0  0  0  0  0  0  0  0
  187.1660  178.2210  146.8100 C   0  0  0  0  0  2  0  0  0  0  0  0
  187.1750  177.0180  145.8780 C   0  0  1  0  0  0  0  0  0  0  0  0
  187.5820  177.4770  144.5420 C   0  0  0  0  0  0  0  0  0  0  0  0
  187.9210  177.8460  143.4450 C   0  0  0  0  0  3  0  0  0  0  0  0
  1 22  1  0  0  0  0
  1 16  1  0  0  0  0
  2 10  1  1  0  0  0
  3 16  2  0  0  0  0
  3  2  1  0  0  0  0
  4 23  1  1  0  0  0
  4 14  1  0  0  0  0
  5 13  2  0  0  0  0
  6 18  1  6  0  0  0
  6  3  1  0  0  0  0
  7 18  1  0  0  0  0
  7 11  1  0  0  0  0
  8  5  1  0  0  0  0
  8  7  2  0  0  0  0
  9 12  1  6  0  0  0
  9 20  1  0  0  0  0
  9  6  1  0  0  0  0
 11 15  2  0  0  0  0
 13 11  1  0  0  0  0
 15 17  2  0  0  0  0
 17  2  1  0  0  0  0
 17  4  1  0  0  0  0
 19 10  1  0  0  0  0
 19 14  1  0  0  0  0
 20  1  2  0  0  0  0
 22 21  1  0  0  0  0
 24 29  1  0  0  0  0
 24 25  1  0  0  0  0
 25 27  1  0  0  0  0
 27 26  2  0  0  0  0
 28 27  1  0  0  0  0
 29 30  1  6  0  0  0
 29 23  1  0  0  0  0
 29 28  1  0  0  0  0
 31 30  3  0  0  0  0
M  END
>  <MODEL>
2

>  <REMARK>
 VINA RESULT:      -7.3      1.661      2.310
  Name = 
  4 active torsions:
  status: ('A' for Active; 'I' for Inactive)
    1  A    between atoms: C_1  and  O_26
    2  A    between atoms: C_4  and  C_30
    3  A    between atoms: C_5  and  C_14
    4  A    between atoms: C_14  and  C_30
                            x       y       z     vdW  Elec       q    Type
                         _______ _______ _______ _____ _____    ______ ____

>  <TORSDO>
F 4

$$$$
=
 OpenBabel11062421263D

 31 35  0  0  1  0  0  0  0  0999 V2000
  192.0200  173.6640  141.6760 C   0  0  0  0  0  0  0  0  0  0  0  0
  189.3310  176.2980  142.4420 C   0  0  1  0  0  3  0  0  0  0  0  0
  190.3420  175.1770  142.6520 C   0  0  0  0  0  0  0  0  0  0  0  0
  187.1830  176.9340  143.8830 C   0  0  1  0  0  3  0  0  0  0  0  0
  190.6730  176.6950  147.8220 N   0  0  0  0  0  0  0  0  0  0  0  0
  190.4640  174.3820  143.9510 C   0  0  1  0  0  3  0  0  0  0  0  0
  191.1580  175.8510  145.8800 C   0  0  0  0  0  0  0  0  0  0  0  0
  191.3850  175.6940  147.1390 N   0  0  0  0  0  0  0  0  0  0  0  0
  190.6940  172.8990  143.6100 C   0  0  2  0  0  3  0  0  0  0  0  0
  188.3230  175.9330  141.3480 C   0  0  0  0  0  2  0  0  0  0  0  0
  190.2960  176.9990  145.7100 C   0  0  0  0  0  0  0  0  0  0  0  0
  190.9300  172.1440  144.7610 O   0  0  0  0  0  1  0  0  0  0  0  0
  190.0140  177.4410  147.0280 N   0  0  0  0  0  0  0  0  0  0  0  0
  186.3420  176.3880  142.7240 C   0  0  0  0  0  2  0  0  0  0  0  0
  189.4420  177.0370  144.7370 C   0  0  0  0  0  0  0  0  0  0  0  0
  191.1380  174.8480  141.6200 C   0  0  0  0  0  3  0  0  0  0  0  0
  188.6840  176.8770  143.6930 C   0  0  0  0  0  0  0  0  0  0  0  0
  191.6300  174.9160  144.8080 C   0  0  0  0  0  2  0  0  0  0  0  0
  187.0730  175.3110  141.9420 C   0  0  0  0  0  2  0  0  0  0  0  0
  191.8320  172.7450  142.6380 C   0  0  0  0  0  3  0  0  0  0  0  0
  193.8720  174.6040  140.3230 C   0  0  0  0  0  1  0  0  0  0  0  0
  193.0280  173.5290  140.7170 O   0  0  0  0  0  0  0  0  0  0  0  0
  186.6590  178.2970  144.3730 C   0  0  0  0  0  2  0  0  0  0  0  0
  185.8670  176.9850  146.4250 C   0  0  0  0  0  2  0  0  0  0  0  0
  186.1770  177.2500  147.8880 C   0  0  0  0  0  2  0  0  0  0  0  0
  187.0150  179.2130  148.9180 O   0  0  0  0  0  0  0  0  0  0  0  0
  186.6040  178.6620  147.9100 C   0  0  0  0  0  0  0  0  0  0  0  0
  186.4910  179.3540  146.6090 C   0  0  0  0  0  2  0  0  0  0  0  0
  185.8490  178.3300  145.6840 C   0  0  1  0  0  0  0  0  0  0  0  0
  184.4590  178.7390  145.4400 C   0  0  0  0  0  0  0  0  0  0  0  0
  183.3160  179.0670  145.2380 C   0  0  0  0  0  3  0  0  0  0  0  0
  1 20  2  0  0  0  0
  2 10  1  6  0  0  0
  2  3  1  0  0  0  0
  2 17  1  0  0  0  0
  3  6  1  0  0  0  0
  4 23  1  6  0  0  0
  6 18  1  1  0  0  0
  7  8  2  0  0  0  0
  8  5  1  0  0  0  0
  9  6  1  0  0  0  0
  9 12  1  1  0  0  0
 10 19  1  0  0  0  0
 11  7  1  0  0  0  0
 11 13  1  0  0  0  0
 13  5  2  0  0  0  0
 14  4  1  0  0  0  0
 15 11  2  0  0  0  0
 16  1  1  0  0  0  0
 16  3  2  0  0  0  0
 17  4  1  0  0  0  0
 17 15  2  0  0  0  0
 18  7  1  0  0  0  0
 19 14  1  0  0  0  0
 20  9  1  0  0  0  0
 21 22  1  0  0  0  0
 22  1  1  0  0  0  0
 24 25  1  0  0  0  0
 25 27  1  0  0  0  0
 27 26  2  0  0  0  0
 28 27  1  0  0  0  0
 29 23  1  6  0  0  0
 29 24  1  0  0  0  0
 29 28  1  0  0  0  0
 30 29  1  0  0  0  0
 31 30  3  0  0  0  0
M  END
>  <MODEL>
3

>  <REMARK>
 VINA RESULT:      -6.8      3.111      4.605
  Name = 
  4 active torsions:
  status: ('A' for Active; 'I' for Inactive)
    1  A    between atoms: C_1  and  O_26
    2  A    between atoms: C_4  and  C_30
    3  A    between atoms: C_5  and  C_14
    4  A    between atoms: C_14  and  C_30
                            x       y       z     vdW  Elec       q    Type
                         _______ _______ _______ _____ _____    ______ ____

>  <TORSDO>
F 4

$$$$
=
 OpenBabel11062421263D

 31 35  0  0  1  0  0  0  0  0999 V2000
  186.9790  178.5850  147.8380 C   0  0  0  0  0  0  0  0  0  0  0  0
  189.3720  176.4500  145.7250 C   0  0  1  0  0  3  0  0  0  0  0  0
  188.1080  177.1820  146.1620 C   0  0  0  0  0  0  0  0  0  0  0  0
  189.6420  174.3640  144.0900 C   0  0  1  0  0  3  0  0  0  0  0  0
  186.6420  177.3680  140.9700 N   0  0  0  0  0  0  0  0  0  0  0  0
  186.7570  177.0200  145.4700 C   0  0  1  0  0  3  0  0  0  0  0  0
  186.8290  177.8340  143.0830 C   0  0  0  0  0  0  0  0  0  0  0  0
  186.0040  177.9120  142.0970 N   0  0  0  0  0  0  0  0  0  0  0  0
  185.6510  176.9640  146.5380 C   0  0  2  0  0  3  0  0  0  0  0  0
  189.8560  175.4880  146.8130 C   0  0  0  0  0  2  0  0  0  0  0  0
  188.0620  177.2490  142.6030 C   0  0  0  0  0  0  0  0  0  0  0  0
  184.3820  176.9350  145.9550 O   0  0  0  0  0  1  0  0  0  0  0  0
  187.8160  176.9520  141.2380 N   0  0  0  0  0  0  0  0  0  0  0  0
  189.9720  173.5330  145.3340 C   0  0  0  0  0  2  0  0  0  0  0  0
  188.7830  176.5110  143.3850 C   0  0  0  0  0  0  0  0  0  0  0  0
  188.1870  177.9790  147.2420 C   0  0  0  0  0  3  0  0  0  0  0  0
  189.3560  175.8310  144.3330 C   0  0  0  0  0  0  0  0  0  0  0  0
  186.4980  178.1930  144.5000 C   0  0  0  0  0  2  0  0  0  0  0  0
  189.3160  174.0880  146.5860 C   0  0  0  0  0  2  0  0  0  0  0  0
  185.7670  178.1250  147.4880 C   0  0  0  0  0  3  0  0  0  0  0  0
  186.3160  180.7880  148.7620 C   0  0  0  0  0  1  0  0  0  0  0  0
  187.1330  179.6230  148.7630 O   0  0  0  0  0  0  0  0  0  0  0  0
  190.6380  174.0960  142.9450 C   0  0  0  0  0  2  0  0  0  0  0  0
  188.6940  173.1080  141.6010 C   0  0  0  0  0  2  0  0  0  0  0  0
  188.4400  173.2040  140.1070 C   0  0  0  0  0  2  0  0  0  0  0  0
  189.9300  173.7910  138.3600 O   0  0  0  0  0  0  0  0  0  0  0  0
  189.7590  173.5490  139.5430 C   0  0  0  0  0  0  0  0  0  0  0  0
  190.8570  173.5730  140.5320 C   0  0  0  0  0  2  0  0  0  0  0  0
  190.2120  173.1180  141.8340 C   0  0  1  0  0  0  0  0  0  0  0  0
  190.6750  171.7520  142.1210 C   0  0  0  0  0  0  0  0  0  0  0  0
  191.0500  170.6320  142.3640 C   0  0  0  0  0  3  0  0  0  0  0  0
  1 22  1  0  0  0  0
  2  3  1  0  0  0  0
  2 10  1  1  0  0  0
  3 16  2  0  0  0  0
  4 23  1  6  0  0  0
  4 17  1  0  0  0  0
  4 14  1  0  0  0  0
  5 13  2  0  0  0  0
  5  8  1  0  0  0  0
  6 18  1  6  0  0  0
  6  3  1  0  0  0  0
  6  9  1  0  0  0  0
  7 18  1  0  0  0  0
  8  7  2  0  0  0  0
  9 12  1  6  0  0  0
  9 20  1  0  0  0  0
 11  7  1  0  0  0  0
 11 15  2  0  0  0  0
 13 11  1  0  0  0  0
 14 19  1  0  0  0  0
 15 17  2  0  0  0  0
 16  1  1  0  0  0  0
 17  2  1  0  0  0  0
 19 10  1  0  0  0  0
 20  1  2  0  0  0  0
 21 22  1  0  0  0  0
 24 29  1  0  0  0  0
 25 24  1  0  0  0  0
 26 27  2  0  0  0  0
 27 25  1  0  0  0  0
 27 28  1  0  0  0  0
 28 29  1  0  0  0  0
 29 30  1  1  0  0  0
 29 23  1  0  0  0  0
 30 31  3  0  0  0  0
M  END
>  <MODEL>
4

>  <REMARK>
 VINA RESULT:      -6.6      3.180      6.753
  Name = 
  4 active torsions:
  status: ('A' for Active; 'I' for Inactive)
    1  A    between atoms: C_1  and  O_26
    2  A    between atoms: C_4  and  C_30
    3  A    between atoms: C_5  and  C_14
    4  A    between atoms: C_14  and  C_30
                            x       y       z     vdW  Elec       q    Type
                         _______ _______ _______ _____ _____    ______ ____

>  <TORSDO>
F 4

$$$$
=
 OpenBabel11062421263D

 31 35  0  0  1  0  0  0  0  0999 V2000
  191.0730  170.3610  139.6960 C   0  0  0  0  0  0  0  0  0  0  0  0
  190.5970  171.9170  143.1760 C   0  0  1  0  0  3  0  0  0  0  0  0
  190.6750  171.7910  141.6590 C   0  0  0  0  0  0  0  0  0  0  0  0
  190.9150  174.0640  144.7180 C   0  0  1  0  0  3  0  0  0  0  0  0
  187.4420  176.1000  141.3200 N   0  0  0  0  0  0  0  0  0  0  0  0
  190.6550  172.9890  140.7110 C   0  0  1  0  0  3  0  0  0  0  0  0
  188.4740  174.2490  140.8490 C   0  0  0  0  0  0  0  0  0  0  0  0
  187.9620  175.2930  140.2950 N   0  0  0  0  0  0  0  0  0  0  0  0
  191.6730  172.7500  139.5820 C   0  0  2  0  0  3  0  0  0  0  0  0
  191.8830  171.4160  143.8380 C   0  0  0  0  0  2  0  0  0  0  0  0
  188.2700  174.3410  142.2770 C   0  0  0  0  0  0  0  0  0  0  0  0
  191.6110  173.7620  138.6200 O   0  0  0  0  0  1  0  0  0  0  0  0
  187.6300  175.5930  142.4730 N   0  0  0  0  0  0  0  0  0  0  0  0
  192.2520  173.4540  145.1550 C   0  0  0  0  0  2  0  0  0  0  0  0
  189.1380  173.8370  143.0960 C   0  0  0  0  0  0  0  0  0  0  0  0
  190.8120  170.5600  141.1370 C   0  0  0  0  0  3  0  0  0  0  0  0
  190.1110  173.2510  143.7270 C   0  0  0  0  0  0  0  0  0  0  0  0
  189.2440  173.1900  140.1190 C   0  0  0  0  0  2  0  0  0  0  0  0
  192.8500  172.5590  144.0860 C   0  0  0  0  0  2  0  0  0  0  0  0
  191.4570  171.4050  138.9440 C   0  0  0  0  0  3  0  0  0  0  0  0
  191.0960  168.7980  137.7720 C   0  0  0  0  0  1  0  0  0  0  0  0
  190.9180  169.0810  139.1550 O   0  0  0  0  0  0  0  0  0  0  0  0
  190.1020  174.5780  145.9220 C   0  0  0  0  0  2  0  0  0  0  0  0
  190.4470  176.8860  144.8670 C   0  0  0  0  0  2  0  0  0  0  0  0
  189.3950  177.9160  144.4940 C   0  0  0  0  0  2  0  0  0  0  0  0
  187.1380  178.0840  145.1950 O   0  0  0  0  0  0  0  0  0  0  0  0
  188.2180  177.5270  145.2940 C   0  0  0  0  0  0  0  0  0  0  0  0
  188.4580  176.4070  146.2280 C   0  0  0  0  0  2  0  0  0  0  0  0
  189.9430  176.1010  146.0870 C   0  0  1  0  0  0  0  0  0  0  0  0
  190.6260  176.5790  147.2980 C   0  0  0  0  0  0  0  0  0  0  0  0
  191.1920  176.9770  148.2860 C   0  0  0  0  0  3  0  0  0  0  0  0
  1 16  1  0  0  0  0
  2 17  1  0  0  0  0
  2 10  1  1  0  0  0
  3  2  1  0  0  0  0
  4 14  1  0  0  0  0
  4 23  1  1  0  0  0
  5 13  2  0  0  0  0
  6 18  1  6  0  0  0
  6  3  1  0  0  0  0
  7 11  1  0  0  0  0
  8  7  2  0  0  0  0
  8  5  1  0  0  0  0
  9 12  1  6  0  0  0
  9  6  1  0  0  0  0
 10 19  1  0  0  0  0
 11 13  1  0  0  0  0
 11 15  2  0  0  0  0
 15 17  2  0  0  0  0
 16  3  2  0  0  0  0
 17  4  1  0  0  0  0
 18  7  1  0  0  0  0
 19 14  1  0  0  0  0
 20  9  1  0  0  0  0
 20  1  2  0  0  0  0
 21 22  1  0  0  0  0
 22  1  1  0  0  0  0
 24 29  1  0  0  0  0
 25 24  1  0  0  0  0
 25 27  1  0  0  0  0
 26 27  2  0  0  0  0
 27 28  1  0  0  0  0
 29 23  1  6  0  0  0
 29 28  1  0  0  0  0
 29 30  1  0  0  0  0
 30 31  3  0  0  0  0
M  END
>  <MODEL>
5

>  <REMARK>
 VINA RESULT:      -6.6      3.196      5.099
  Name = 
  4 active torsions:
  status: ('A' for Active; 'I' for Inactive)
    1  A    between atoms: C_1  and  O_26
    2  A    between atoms: C_4  and  C_30
    3  A    between atoms: C_5  and  C_14
    4  A    between atoms: C_14  and  C_30
                            x       y       z     vdW  Elec       q    Type
                         _______ _______ _______ _____ _____    ______ ____

>  <TORSDO>
F 4

$$$$
=
 OpenBabel11062421263D

 31 35  0  0  1  0  0  0  0  0999 V2000
  194.8250  175.7250  143.4790 C   0  0  0  0  0  0  0  0  0  0  0  0
  191.1080  176.3130  144.2510 C   0  0  1  0  0  3  0  0  0  0  0  0
  192.3680  175.7390  143.6120 C   0  0  0  0  0  0  0  0  0  0  0  0
  188.6270  176.4360  143.2920 C   0  0  1  0  0  3  0  0  0  0  0  0
  189.5150  171.3210  142.3940 N   0  0  0  0  0  0  0  0  0  0  0  0
  192.3530  174.8320  142.3830 C   0  0  1  0  0  3  0  0  0  0  0  0
  191.1690  172.6540  142.8480 C   0  0  0  0  0  0  0  0  0  0  0  0
  190.8780  171.5880  142.1840 N   0  0  0  0  0  0  0  0  0  0  0  0
  193.5100  175.2330  141.4510 C   0  0  2  0  0  3  0  0  0  0  0  0
  191.0820  177.8400  144.1430 C   0  0  0  0  0  2  0  0  0  0  0  0
  189.9810  173.0990  143.5420 C   0  0  0  0  0  0  0  0  0  0  0  0
  193.6150  174.3580  140.3670 O   0  0  0  0  0  1  0  0  0  0  0  0
  188.9660  172.1900  143.1460 N   0  0  0  0  0  0  0  0  0  0  0  0
  188.8490  177.9440  143.1300 C   0  0  0  0  0  2  0  0  0  0  0  0
  189.7790  174.3610  143.7500 C   0  0  0  0  0  0  0  0  0  0  0  0
  193.5540  176.0890  144.1380 C   0  0  0  0  0  3  0  0  0  0  0  0
  189.7880  175.6560  143.8690 C   0  0  0  0  0  0  0  0  0  0  0  0
  192.4940  173.3530  142.7970 C   0  0  0  0  0  2  0  0  0  0  0  0
  190.3110  178.2880  142.9160 C   0  0  0  0  0  2  0  0  0  0  0  0
  194.8090  175.2910  142.2080 C   0  0  0  0  0  3  0  0  0  0  0  0
  196.5770  174.7880  144.9610 C   0  0  0  0  0  1  0  0  0  0  0  0
  196.0170  175.8510  144.1990 O   0  0  0  0  0  0  0  0  0  0  0  0
  187.2690  176.1270  143.9510 C   0  0  0  0  0  2  0  0  0  0  0  0
  187.1560  178.2900  145.3180 C   0  0  0  0  0  2  0  0  0  0  0  0
  185.9460  178.9200  145.9830 C   0  0  0  0  0  2  0  0  0  0  0  0
  183.8460  177.9570  146.5110 O   0  0  0  0  0  0  0  0  0  0  0  0
  184.9820  177.8080  146.0940 C   0  0  0  0  0  0  0  0  0  0  0  0
  185.5100  176.4980  145.6580 C   0  0  0  0  0  2  0  0  0  0  0  0
  186.9710  176.7660  145.3210 C   0  0  1  0  0  0  0  0  0  0  0  0
  187.8010  176.1700  146.3780 C   0  0  0  0  0  0  0  0  0  0  0  0
  188.4890  175.6800  147.2390 C   0  0  0  0  0  3  0  0  0  0  0  0
  1 16  1  0  0  0  0
  1 22  1  0  0  0  0
  2 10  1  6  0  0  0
  3 16  2  0  0  0  0
  3  2  1  0  0  0  0
  4 17  1  0  0  0  0
  4 23  1  1  0  0  0
  5 13  2  0  0  0  0
  6 18  1  1  0  0  0
  6  3  1  0  0  0  0
  7 11  1  0  0  0  0
  8  5  1  0  0  0  0
  8  7  2  0  0  0  0
  9 12  1  6  0  0  0
  9 20  1  0  0  0  0
  9  6  1  0  0  0  0
 11 15  2  0  0  0  0
 13 11  1  0  0  0  0
 14  4  1  0  0  0  0
 15 17  2  0  0  0  0
 17  2  1  0  0  0  0
 18  7  1  0  0  0  0
 19 14  1  0  0  0  0
 19 10  1  0  0  0  0
 20  1  2  0  0  0  0
 22 21  1  0  0  0  0
 24 29  1  0  0  0  0
 24 25  1  0  0  0  0
 25 27  1  0  0  0  0
 27 26  2  0  0  0  0
 28 27  1  0  0  0  0
 29 23  1  6  0  0  0
 29 28  1  0  0  0  0
 29 30  1  0  0  0  0
 30 31  3  0  0  0  0
M  END
>  <MODEL>
6

>  <REMARK>
 VINA RESULT:      -6.5      2.133      2.852
  Name = 
  4 active torsions:
  status: ('A' for Active; 'I' for Inactive)
    1  A    between atoms: C_1  and  O_26
    2  A    between atoms: C_4  and  C_30
    3  A    between atoms: C_5  and  C_14
    4  A    between atoms: C_14  and  C_30
                            x       y       z     vdW  Elec       q    Type
                         _______ _______ _______ _____ _____    ______ ____

>  <TORSDO>
F 4

$$$$
=
 OpenBabel11062421263D

 31 35  0  0  1  0  0  0  0  0999 V2000
  195.5560  171.3970  145.6970 C   0  0  0  0  0  0  0  0  0  0  0  0
  192.8910  174.0250  144.8330 C   0  0  1  0  0  3  0  0  0  0  0  0
  194.2520  173.3510  144.9650 C   0  0  0  0  0  0  0  0  0  0  0  0
  192.2910  176.6140  144.6550 C   0  0  1  0  0  3  0  0  0  0  0  0
  195.9700  176.4430  140.8870 N   0  0  0  0  0  0  0  0  0  0  0  0
  195.5760  174.0670  144.7050 C   0  0  1  0  0  3  0  0  0  0  0  0
  195.7790  174.8070  142.3020 C   0  0  0  0  0  0  0  0  0  0  0  0
  196.6490  175.4330  141.5880 N   0  0  0  0  0  0  0  0  0  0  0  0
  196.5970  173.6320  145.7710 C   0  0  2  0  0  3  0  0  0  0  0  0
  192.1750  174.0900  146.1850 C   0  0  0  0  0  2  0  0  0  0  0  0
  194.4790  175.3910  142.0570 C   0  0  0  0  0  0  0  0  0  0  0  0
  197.8610  174.1660  145.5110 O   0  0  0  0  0  1  0  0  0  0  0  0
  194.7260  176.4630  141.1600 N   0  0  0  0  0  0  0  0  0  0  0  0
  191.7450  176.5040  146.0830 C   0  0  0  0  0  2  0  0  0  0  0  0
  193.5900  175.4270  142.9970 C   0  0  0  0  0  0  0  0  0  0  0  0
  194.2820  172.0710  145.3730 C   0  0  0  0  0  3  0  0  0  0  0  0
  192.8500  175.3380  144.0620 C   0  0  0  0  0  0  0  0  0  0  0  0
  196.1070  173.7330  143.2950 C   0  0  0  0  0  2  0  0  0  0  0  0
  192.4370  175.4140  146.8790 C   0  0  0  0  0  2  0  0  0  0  0  0
  196.6690  172.1320  145.8610 C   0  0  0  0  0  3  0  0  0  0  0  0
  195.9960  169.3440  147.0150 C   0  0  0  0  0  1  0  0  0  0  0  0
  195.5670  170.0050  145.8310 O   0  0  0  0  0  0  0  0  0  0  0  0
  191.3170  177.3670  143.7290 C   0  0  0  0  0  2  0  0  0  0  0  0
  189.0700  177.3060  144.9560 C   0  0  0  0  0  2  0  0  0  0  0  0
  187.7480  177.9150  144.5270 C   0  0  0  0  0  2  0  0  0  0  0  0
  187.0590  178.6660  142.3880 O   0  0  0  0  0  0  0  0  0  0  0  0
  187.9030  178.1130  143.0730 C   0  0  0  0  0  0  0  0  0  0  0  0
  189.1660  177.5840  142.5170 C   0  0  0  0  0  2  0  0  0  0  0  0
  189.8480  176.9030  143.6950 C   0  0  1  0  0  0  0  0  0  0  0  0
  189.7540  175.4480  143.5010 C   0  0  0  0  0  0  0  0  0  0  0  0
  189.6700  174.2550  143.3470 C   0  0  0  0  0  3  0  0  0  0  0  0
  1 22  1  0  0  0  0
  1 20  2  0  0  0  0
  2  3  1  0  0  0  0
  2 10  1  1  0  0  0
  3 16  2  0  0  0  0
  4 23  1  6  0  0  0
  4 14  1  0  0  0  0
  5 13  2  0  0  0  0
  5  8  1  0  0  0  0
  6 18  1  6  0  0  0
  6  3  1  0  0  0  0
  6  9  1  0  0  0  0
  7 18  1  0  0  0  0
  8  7  2  0  0  0  0
  9 12  1  6  0  0  0
  9 20  1  0  0  0  0
 10 19  1  0  0  0  0
 11  7  1  0  0  0  0
 11 15  2  0  0  0  0
 13 11  1  0  0  0  0
 14 19  1  0  0  0  0
 15 17  2  0  0  0  0
 16  1  1  0  0  0  0
 17  4  1  0  0  0  0
 17  2  1  0  0  0  0
 22 21  1  0  0  0  0
 25 24  1  0  0  0  0
 26 27  2  0  0  0  0
 27 25  1  0  0  0  0
 28 27  1  0  0  0  0
 28 29  1  0  0  0  0
 29 30  1  6  0  0  0
 29 23  1  0  0  0  0
 29 24  1  0  0  0  0
 31 30  3  0  0  0  0
M  END
>  <MODEL>
7

>  <REMARK>
 VINA RESULT:      -6.5      2.708      4.305
  Name = 
  4 active torsions:
  status: ('A' for Active; 'I' for Inactive)
    1  A    between atoms: C_1  and  O_26
    2  A    between atoms: C_4  and  C_30
    3  A    between atoms: C_5  and  C_14
    4  A    between atoms: C_14  and  C_30
                            x       y       z     vdW  Elec       q    Type
                         _______ _______ _______ _____ _____    ______ ____

>  <TORSDO>
F 4

$$$$
=
 OpenBabel11062421263D

 31 35  0  0  1  0  0  0  0  0999 V2000
  185.4670  177.9640  141.4920 C   0  0  0  0  0  0  0  0  0  0  0  0
  188.6370  176.7440  143.2840 C   0  0  1  0  0  3  0  0  0  0  0  0
  187.2800  177.4000  143.0560 C   0  0  0  0  0  0  0  0  0  0  0  0
  190.4620  177.2320  145.1620 C   0  0  1  0  0  3  0  0  0  0  0  0
  186.2730  176.7150  148.3150 N   0  0  0  0  0  0  0  0  0  0  0  0
  186.5840  178.2810  144.0920 C   0  0  1  0  0  3  0  0  0  0  0  0
  186.0040  176.9840  146.1770 C   0  0  0  0  0  0  0  0  0  0  0  0
  185.4430  177.2370  147.3090 N   0  0  0  0  0  0  0  0  0  0  0  0
  185.9410  179.4820  143.3770 C   0  0  2  0  0  3  0  0  0  0  0  0
  189.6860  177.2940  142.3130 C   0  0  0  0  0  2  0  0  0  0  0  0
  187.2250  176.2510  146.4250 C   0  0  0  0  0  0  0  0  0  0  0  0
  185.1900  180.2570  144.2630 O   0  0  0  0  0  1  0  0  0  0  0  0
  187.3190  176.1680  147.8380 N   0  0  0  0  0  0  0  0  0  0  0  0
  191.3110  177.8720  144.0580 C   0  0  0  0  0  2  0  0  0  0  0  0
  188.2450  176.3940  145.6400 C   0  0  0  0  0  0  0  0  0  0  0  0
  186.6910  177.2250  141.8610 C   0  0  0  0  0  3  0  0  0  0  0  0
  189.1270  176.6690  144.7250 C   0  0  0  0  0  0  0  0  0  0  0  0
  185.5070  177.4780  144.8520 C   0  0  0  0  0  2  0  0  0  0  0  0
  190.4610  178.4390  142.9360 C   0  0  0  0  0  2  0  0  0  0  0  0
  185.0880  179.0240  142.2250 C   0  0  0  0  0  3  0  0  0  0  0  0
  183.3800  177.9160  140.1540 C   0  0  0  0  0  1  0  0  0  0  0  0
  184.7350  177.5420  140.3770 O   0  0  0  0  0  0  0  0  0  0  0  0
  191.2930  176.2770  146.0400 C   0  0  0  0  0  2  0  0  0  0  0  0
  192.5950  175.3990  144.0170 C   0  0  0  0  0  2  0  0  0  0  0  0
  193.9810  174.7790  143.9870 C   0  0  0  0  0  2  0  0  0  0  0  0
  195.2640  173.8760  145.7630 O   0  0  0  0  0  0  0  0  0  0  0  0
  194.2070  174.3500  145.3810 C   0  0  0  0  0  0  0  0  0  0  0  0
  193.0460  174.5410  146.2740 C   0  0  0  0  0  2  0  0  0  0  0  0
  191.9400  175.0540  145.3630 C   0  0  1  0  0  0  0  0  0  0  0  0
  190.9630  173.9720  145.1730 C   0  0  0  0  0  0  0  0  0  0  0  0
  190.1570  173.0900  145.0130 C   0  0  0  0  0  3  0  0  0  0  0  0
  1 16  1  0  0  0  0
  1 20  2  0  0  0  0
  2 10  1  6  0  0  0
  2 17  1  0  0  0  0
  3  2  1  0  0  0  0
  3  6  1  0  0  0  0
  4 23  1  6  0  0  0
  6 18  1  6  0  0  0
  7 11  1  0  0  0  0
  7  8  2  0  0  0  0
  8  5  1  0  0  0  0
  9  6  1  0  0  0  0
  9 12  1  1  0  0  0
 10 19  1  0  0  0  0
 11 13  1  0  0  0  0
 13  5  2  0  0  0  0
 14  4  1  0  0  0  0
 15 11  2  0  0  0  0
 16  3  2  0  0  0  0
 17  4  1  0  0  0  0
 17 15  2  0  0  0  0
 18  7  1  0  0  0  0
 19 14  1  0  0  0  0
 20  9  1  0  0  0  0
 21 22  1  0  0  0  0
 22  1  1  0  0  0  0
 24 29  1  0  0  0  0
 25 24  1  0  0  0  0
 25 27  1  0  0  0  0
 27 26  2  0  0  0  0
 27 28  1  0  0  0  0
 29 30  1  6  0  0  0
 29 23  1  0  0  0  0
 29 28  1  0  0  0  0
 31 30  3  0  0  0  0
M  END
>  <MODEL>
8

>  <REMARK>
 VINA RESULT:      -6.5      2.671      7.709
  Name = 
  4 active torsions:
  status: ('A' for Active; 'I' for Inactive)
    1  A    between atoms: C_1  and  O_26
    2  A    between atoms: C_4  and  C_30
    3  A    between atoms: C_5  and  C_14
    4  A    between atoms: C_14  and  C_30
                            x       y       z     vdW  Elec       q    Type
                         _______ _______ _______ _____ _____    ______ ____

>  <TORSDO>
F 4

$$$$
=
 OpenBabel11062421263D

 31 35  0  0  1  0  0  0  0  0999 V2000
  191.0650  171.6400  139.0060 C   0  0  0  0  0  0  0  0  0  0  0  0
  189.9790  174.5460  141.2700 C   0  0  1  0  0  3  0  0  0  0  0  0
  190.5410  173.1970  140.8380 C   0  0  0  0  0  0  0  0  0  0  0  0
  188.9390  175.2780  143.6100 C   0  0  1  0  0  3  0  0  0  0  0  0
  193.3940  173.1250  145.4190 N   0  0  0  0  0  0  0  0  0  0  0  0
  190.8880  172.0750  141.8150 C   0  0  1  0  0  3  0  0  0  0  0  0
  192.7470  172.7470  143.3810 C   0  0  0  0  0  0  0  0  0  0  0  0
  193.3870  172.2040  144.3590 N   0  0  0  0  0  0  0  0  0  0  0  0
  190.4420  170.7310  141.2120 C   0  0  2  0  0  3  0  0  0  0  0  0
  188.5620  174.7520  140.7280 C   0  0  0  0  0  2  0  0  0  0  0  0
  192.3380  174.0740  143.7830 C   0  0  0  0  0  0  0  0  0  0  0  0
  190.8430  169.6580  142.0120 O   0  0  0  0  0  1  0  0  0  0  0  0
  192.7730  174.1980  145.1270 N   0  0  0  0  0  0  0  0  0  0  0  0
  187.5760  175.2910  142.9100 C   0  0  0  0  0  2  0  0  0  0  0  0
  191.2380  174.5840  143.3290 C   0  0  0  0  0  0  0  0  0  0  0  0
  190.6970  172.9740  139.5210 C   0  0  0  0  0  3  0  0  0  0  0  0
  190.1220  174.9060  142.7440 C   0  0  0  0  0  0  0  0  0  0  0  0
  192.4050  172.0510  142.0980 C   0  0  0  0  0  2  0  0  0  0  0  0
  187.5200  174.3210  141.7440 C   0  0  0  0  0  2  0  0  0  0  0  0
  190.9730  170.5710  139.8130 C   0  0  0  0  0  3  0  0  0  0  0  0
  190.6190  171.6390  136.5670 C   0  0  0  0  0  1  0  0  0  0  0  0
  191.4970  171.5250  137.6800 O   0  0  0  0  0  0  0  0  0  0  0  0
  189.1540  176.5420  144.4640 C   0  0  0  0  0  2  0  0  0  0  0  0
  189.4960  175.0170  146.4930 C   0  0  0  0  0  2  0  0  0  0  0  0
  190.4450  175.2080  147.6630 C   0  0  0  0  0  2  0  0  0  0  0  0
  191.5660  177.1650  148.3890 O   0  0  0  0  0  0  0  0  0  0  0  0
  190.7570  176.6500  147.6360 C   0  0  0  0  0  0  0  0  0  0  0  0
  190.0060  177.4170  146.6210 C   0  0  0  0  0  2  0  0  0  0  0  0
  189.0590  176.4030  145.9960 C   0  0  1  0  0  0  0  0  0  0  0  0
  187.6980  176.6910  146.4730 C   0  0  0  0  0  0  0  0  0  0  0  0
  186.5830  176.9360  146.8620 C   0  0  0  0  0  3  0  0  0  0  0  0
  1 16  1  0  0  0  0
  1 20  2  0  0  0  0
  2 10  1  1  0  0  0
  2 17  1  0  0  0  0
  3  2  1  0  0  0  0
  3  6  1  0  0  0  0
  4 23  1  6  0  0  0
  6 18  1  6  0  0  0
  7 11  1  0  0  0  0
  7  8  2  0  0  0  0
  8  5  1  0  0  0  0
  9  6  1  0  0  0  0
  9 12  1  1  0  0  0
 10 19  1  0  0  0  0
 11 13  1  0  0  0  0
 13  5  2  0  0  0  0
 14  4  1  0  0  0  0
 15 11  2  0  0  0  0
 16  3  2  0  0  0  0
 17 15  2  0  0  0  0
 17  4  1  0  0  0  0
 18  7  1  0  0  0  0
 19 14  1  0  0  0  0
 20  9  1  0  0  0  0
 21 22  1  0  0  0  0
 22  1  1  0  0  0  0
 24 25  1  0  0  0  0
 27 25  1  0  0  0  0
 27 26  2  0  0  0  0
 28 27  1  0  0  0  0
 29 23  1  6  0  0  0
 29 30  1  0  0  0  0
 29 24  1  0  0  0  0
 29 28  1  0  0  0  0
 30 31  3  0  0  0  0
M  END
>  <MODEL>
9

>  <REMARK>
 VINA RESULT:      -6.4      3.439      5.834
  Name = 
  4 active torsions:
  status: ('A' for Active; 'I' for Inactive)
    1  A    between atoms: C_1  and  O_26
    2  A    between atoms: C_4  and  C_30
    3  A    between atoms: C_5  and  C_14
    4  A    between atoms: C_14  and  C_30
                            x       y       z     vdW  Elec       q    Type
                         _______ _______ _______ _____ _____    ______ ____

>  <TORSDO>
F 4

$$$$
