=
 OpenBabel11062421153D

 33 34  0  0  1  0  0  0  0  0999 V2000
  188.4780  177.6460  145.4040 C   0  0  0  0  0  2  0  0  0  0  0  0
  188.8770  176.9310  144.1230 C   0  0  2  0  0  3  0  0  0  0  0  0
  189.9760  177.5910  143.5710 O   0  0  0  0  0  1  0  0  0  0  0  0
  187.7190  176.8960  143.1190 C   0  0  2  0  0  3  0  0  0  0  0  0
  186.5210  177.2720  143.7600 O   0  0  0  0  0  0  0  0  0  0  0  0
  186.7290  178.8220  142.0400 O   0  0  0  0  0  1  0  0  0  0  0  0
  185.5630  179.4250  144.0060 C   0  0  0  0  0  1  0  0  0  0  0  0
  185.8840  178.3080  143.0320 C   0  0  2  0  0  0  0  0  0  0  0  0
  183.4790  178.5210  142.9220 O   0  0  0  0  0  1  0  0  0  0  0  0
  184.5720  177.8180  142.4090 C   0  0  0  0  0  2  0  0  0  0  0  0
  187.5500  175.4870  142.5540 C   0  0  0  0  0  2  0  0  0  0  0  0
  188.4380  175.2790  141.4180 N   0  0  0  0  0  2  0  0  0  0  0  0
  189.3000  174.1490  141.7280 C   0  0  0  0  0  2  0  0  0  0  0  0
  187.9540  172.7360  139.8270 O   0  0  0  0  0  1  0  0  0  0  0  0
  190.0670  171.5490  140.8120 O   0  0  0  0  0  1  0  0  0  0  0  0
  190.2720  173.6820  139.0700 O   0  0  0  0  0  0  0  0  0  0  0  0
  189.3570  173.0030  140.3200 P   0  0  0  0  0  0  0  0  0  0  0  0
  188.9090  176.8380  146.6180 C   0  0  0  0  0  2  0  0  0  0  0  0
  188.6460  175.3510  146.4100 C   0  0  0  0  0  2  0  0  0  0  0  0
  191.9440  175.2540  145.6090 C   0  0  1  0  0  3  0  0  0  0  0  0
  194.7050  173.1980  144.7970 O   0  0  0  0  0  0  0  0  0  0  0  0
  190.2200  173.6850  145.3770 C   0  0  1  0  0  3  0  0  0  0  0  0
  191.3700  174.1040  144.8620 C   0  0  2  0  0  3  0  0  0  0  0  0
  192.3900  173.2550  144.3260 N   0  0  0  0  0  0  0  0  0  0  0  0
  189.5730  172.3780  145.0710 C   0  0  0  0  0  1  0  0  0  0  0  0
  191.1550  175.2610  146.9150 C   0  0  0  0  0  2  0  0  0  0  0  0
  189.8830  174.4630  146.6040 C   0  0  1  0  0  3  0  0  0  0  0  0
  192.2330  171.9300  143.7440 C   0  0  0  0  0  1  0  0  0  0  0  0
  193.3360  174.8610  145.7850 N   0  0  0  0  0  0  0  0  0  0  0  0
  193.5730  173.7310  144.9500 C   0  0  0  0  0  0  0  0  0  0  0  0
  194.3620  175.6890  146.4000 C   0  0  0  0  0  2  0  0  0  0  0  0
  195.4490  176.7150  144.4240 C   0  0  0  0  0  1  0  0  0  0  0  0
  194.5330  176.9660  145.6050 C   0  0  0  0  0  2  0  0  0  0  0  0
  1 18  1  0  0  0  0
  2  3  1  6  0  0  0
  2  1  1  0  0  0  0
  4 11  1  1  0  0  0
  4  5  1  0  0  0  0
  4  2  1  0  0  0  0
  6  8  1  0  0  0  0
  8  5  1  0  0  0  0
  8  7  1  1  0  0  0
 10  9  1  0  0  0  0
 10  8  1  0  0  0  0
 12 13  1  0  0  0  0
 12 11  1  0  0  0  0
 14 17  1  0  0  0  0
 16 17  2  0  0  0  0
 17 15  1  0  0  0  0
 17 13  1  0  0  0  0
 19 18  1  0  0  0  0
 20 29  1  0  0  0  0
 20 26  1  1  0  0  0
 21 30  2  0  0  0  0
 22 25  1  1  0  0  0
 22 27  1  0  0  0  0
 23 24  1  1  0  0  0
 23 22  1  0  0  0  0
 23 20  1  0  0  0  0
 24 30  1  0  0  0  0
 27 19  1  6  0  0  0
 27 26  1  0  0  0  0
 28 24  1  0  0  0  0
 29 31  1  0  0  0  0
 30 29  1  0  0  0  0
 32 33  1  0  0  0  0
 33 31  1  0  0  0  0
M  END
>  <MODEL>
1

>  <REMARK>
 VINA RESULT:      -5.7      0.000      0.000
  Name = 
  14 active torsions:
  status: ('A' for Active; 'I' for Inactive)
    1  A    between atoms: C_6  and  C_24
    2  A    between atoms: C_7  and  C_23
    3  A    between atoms: C_7  and  C_27
    4  A    between atoms: C_8  and  O_11
    5  A    between atoms: C_8  and  C_17
    6  A    between atoms: C_8  and  C_29
    7  A    between atoms: N_9  and  C_25
    8  A    between atoms: N_9  and  C_29
    9  A    between atoms: O_11  and  C_33
   10  A    between atoms: C_17  and  C_23
   11  A    between atoms: P_20  and  C_25
   12  A    between atoms: C_22  and  C_33
   13  A    between atoms: C_24  and  N_30
   14  A    between atoms: C_26  and  C_27
                            x       y       z     vdW  Elec       q    Type
                         _______ _______ _______ _____ _____    ______ ____

>  <TORSDO>
F 14

$$$$
=
 OpenBabel11062421153D

 33 34  0  0  1  0  0  0  0  0999 V2000
  191.1270  175.0010  146.4810 C   0  0  0  0  0  2  0  0  0  0  0  0
  190.7770  174.2680  145.1960 C   0  0  2  0  0  3  0  0  0  0  0  0
  189.5830  173.5730  145.3930 O   0  0  0  0  0  1  0  0  0  0  0  0
  191.8930  173.3000  144.7840 C   0  0  2  0  0  3  0  0  0  0  0  0
  192.7420  173.9220  143.8460 O   0  0  0  0  0  0  0  0  0  0  0  0
  194.9990  173.6000  143.3950 O   0  0  0  0  0  1  0  0  0  0  0  0
  194.1560  173.0430  145.5320 C   0  0  0  0  0  1  0  0  0  0  0  0
  194.0610  173.9960  144.3580 C   0  0  2  0  0  0  0  0  0  0  0  0
  194.6690  175.4080  146.2230 O   0  0  0  0  0  1  0  0  0  0  0  0
  194.3790  175.4110  144.8560 C   0  0  0  0  0  2  0  0  0  0  0  0
  191.2970  172.0450  144.1490 C   0  0  0  0  0  2  0  0  0  0  0  0
  191.3360  172.1360  142.6960 N   0  0  0  0  0  2  0  0  0  0  0  0
  189.9930  171.8750  142.1980 C   0  0  0  0  0  2  0  0  0  0  0  0
  190.1470  174.5680  141.8080 O   0  0  0  0  0  1  0  0  0  0  0  0
  187.7220  173.5910  141.9190 O   0  0  0  0  0  1  0  0  0  0  0  0
  189.3560  173.1890  139.7300 O   0  0  0  0  0  0  0  0  0  0  0  0
  189.3190  173.3670  141.4110 P   0  0  0  0  0  0  0  0  0  0  0  0
  191.0540  176.5060  146.2690 C   0  0  0  0  0  2  0  0  0  0  0  0
  190.7250  176.8410  144.8180 C   0  0  0  0  0  2  0  0  0  0  0  0
  187.3400  176.6100  144.8920 C   0  0  1  0  0  3  0  0  0  0  0  0
  184.2890  177.8030  143.5560 O   0  0  0  0  0  0  0  0  0  0  0  0
  188.8220  177.5150  143.3220 C   0  0  1  0  0  3  0  0  0  0  0  0
  187.6350  176.9410  143.4730 C   0  0  2  0  0  3  0  0  0  0  0  0
  186.4510  177.2920  142.7500 N   0  0  0  0  0  0  0  0  0  0  0  0
  189.2670  178.2480  142.1020 C   0  0  0  0  0  1  0  0  0  0  0  0
  188.3780  177.4120  145.6690 C   0  0  0  0  0  2  0  0  0  0  0  0
  189.4780  177.7180  144.6450 C   0  0  1  0  0  3  0  0  0  0  0  0
  186.3600  177.8910  141.4270 C   0  0  0  0  0  1  0  0  0  0  0  0
  185.9830  177.1150  145.0640 N   0  0  0  0  0  0  0  0  0  0  0  0
  185.4740  177.4280  143.7700 C   0  0  0  0  0  0  0  0  0  0  0  0
  185.1890  176.9700  146.2740 C   0  0  0  0  0  2  0  0  0  0  0  0
  185.6940  179.1970  147.2360 C   0  0  0  0  0  1  0  0  0  0  0  0
  184.6050  178.3110  146.6660 C   0  0  0  0  0  2  0  0  0  0  0  0
  2  3  1  1  0  0  0
  2  1  1  0  0  0  0
  4 11  1  6  0  0  0
  4  2  1  0  0  0  0
  5  8  1  0  0  0  0
  5  4  1  0  0  0  0
  6  8  1  0  0  0  0
  8 10  1  0  0  0  0
  8  7  1  1  0  0  0
 10  9  1  0  0  0  0
 12 11  1  0  0  0  0
 13 12  1  0  0  0  0
 16 17  2  0  0  0  0
 17 14  1  0  0  0  0
 17 15  1  0  0  0  0
 17 13  1  0  0  0  0
 18  1  1  0  0  0  0
 19 18  1  0  0  0  0
 20 29  1  0  0  0  0
 20 26  1  1  0  0  0
 21 30  2  0  0  0  0
 22 25  1  1  0  0  0
 22 23  1  0  0  0  0
 22 27  1  0  0  0  0
 23 24  1  1  0  0  0
 23 20  1  0  0  0  0
 24 30  1  0  0  0  0
 27 19  1  1  0  0  0
 27 26  1  0  0  0  0
 28 24  1  0  0  0  0
 29 31  1  0  0  0  0
 30 29  1  0  0  0  0
 31 33  1  0  0  0  0
 33 32  1  0  0  0  0
M  END
>  <MODEL>
2

>  <REMARK>
 VINA RESULT:      -5.7      2.161      6.999
  Name = 
  14 active torsions:
  status: ('A' for Active; 'I' for Inactive)
    1  A    between atoms: C_6  and  C_24
    2  A    between atoms: C_7  and  C_23
    3  A    between atoms: C_7  and  C_27
    4  A    between atoms: C_8  and  O_11
    5  A    between atoms: C_8  and  C_17
    6  A    between atoms: C_8  and  C_29
    7  A    between atoms: N_9  and  C_25
    8  A    between atoms: N_9  and  C_29
    9  A    between atoms: O_11  and  C_33
   10  A    between atoms: C_17  and  C_23
   11  A    between atoms: P_20  and  C_25
   12  A    between atoms: C_22  and  C_33
   13  A    between atoms: C_24  and  N_30
   14  A    between atoms: C_26  and  C_27
                            x       y       z     vdW  Elec       q    Type
                         _______ _______ _______ _____ _____    ______ ____

>  <TORSDO>
F 14

$$$$
=
 OpenBabel11062421153D

 33 34  0  0  1  0  0  0  0  0999 V2000
  190.4790  174.0700  146.3090 C   0  0  0  0  0  2  0  0  0  0  0  0
  189.8810  173.7250  144.9550 C   0  0  2  0  0  3  0  0  0  0  0  0
  189.5900  172.3610  144.9330 O   0  0  0  0  0  1  0  0  0  0  0  0
  190.8420  174.0810  143.8140 C   0  0  2  0  0  3  0  0  0  0  0  0
  190.9750  172.9820  142.9420 O   0  0  0  0  0  0  0  0  0  0  0  0
  191.5270  173.3640  140.7170 O   0  0  0  0  0  1  0  0  0  0  0  0
  189.8680  174.7000  141.7430 C   0  0  0  0  0  1  0  0  0  0  0  0
  190.4870  173.3190  141.6550 C   0  0  2  0  0  0  0  0  0  0  0  0
  188.1880  172.5950  141.8330 O   0  0  0  0  0  1  0  0  0  0  0  0
  189.4060  172.3320  141.2000 C   0  0  0  0  0  2  0  0  0  0  0  0
  192.2200  174.4330  144.3720 C   0  0  0  0  0  2  0  0  0  0  0  0
  192.9270  175.3300  143.4680 N   0  0  0  0  0  2  0  0  0  0  0  0
  194.2880  174.8360  143.3250 C   0  0  0  0  0  2  0  0  0  0  0  0
  196.6750  176.0530  143.8180 O   0  0  0  0  0  0  0  0  0  0  0  0
  195.7160  174.6330  145.7950 O   0  0  0  0  0  1  0  0  0  0  0  0
  194.6280  177.0710  145.0890 O   0  0  0  0  0  1  0  0  0  0  0  0
  195.3840  175.6750  144.5060 P   0  0  0  0  0  0  0  0  0  0  0  0
  189.6230  175.1070  147.0190 C   0  0  0  0  0  2  0  0  0  0  0  0
  190.2950  176.4760  147.0070 C   0  0  0  0  0  2  0  0  0  0  0  0
  187.4650  176.8360  145.1680 C   0  0  1  0  0  3  0  0  0  0  0  0
  185.9010  178.5490  142.4980 O   0  0  0  0  0  0  0  0  0  0  0  0
  189.6840  177.4800  144.7860 C   0  0  1  0  0  3  0  0  0  0  0  0
  188.5510  177.1190  144.1940 C   0  0  2  0  0  3  0  0  0  0  0  0
  188.0440  177.6760  142.9770 N   0  0  0  0  0  0  0  0  0  0  0  0
  190.8350  178.1320  144.1000 C   0  0  0  0  0  1  0  0  0  0  0  0
  187.9850  177.4400  146.4680 C   0  0  0  0  0  2  0  0  0  0  0  0
  189.5000  177.5570  146.2640 C   0  0  1  0  0  3  0  0  0  0  0  0
  188.7990  178.2890  141.8950 C   0  0  0  0  0  1  0  0  0  0  0  0
  186.3340  177.5680  144.6110 N   0  0  0  0  0  0  0  0  0  0  0  0
  186.6920  177.9720  143.2920 C   0  0  0  0  0  0  0  0  0  0  0  0
  184.9860  177.5550  145.1560 C   0  0  0  0  0  2  0  0  0  0  0  0
  184.6620  178.6500  147.3550 C   0  0  0  0  0  1  0  0  0  0  0  0
  184.7040  178.8680  145.8560 C   0  0  0  0  0  2  0  0  0  0  0  0
  1 18  1  0  0  0  0
  2  3  1  1  0  0  0
  2  1  1  0  0  0  0
  4 11  1  1  0  0  0
  4  2  1  0  0  0  0
  5  4  1  0  0  0  0
  6  8  1  0  0  0  0
  8  7  1  1  0  0  0
  8  5  1  0  0  0  0
 10  8  1  0  0  0  0
 10  9  1  0  0  0  0
 12 11  1  0  0  0  0
 13 12  1  0  0  0  0
 13 17  1  0  0  0  0
 14 17  2  0  0  0  0
 17 16  1  0  0  0  0
 17 15  1  0  0  0  0
 19 18  1  0  0  0  0
 20 26  1  1  0  0  0
 21 30  2  0  0  0  0
 22 25  1  6  0  0  0
 22 27  1  0  0  0  0
 23 24  1  6  0  0  0
 23 22  1  0  0  0  0
 23 20  1  0  0  0  0
 24 30  1  0  0  0  0
 27 26  1  0  0  0  0
 27 19  1  1  0  0  0
 28 24  1  0  0  0  0
 29 31  1  0  0  0  0
 29 20  1  0  0  0  0
 30 29  1  0  0  0  0
 31 33  1  0  0  0  0
 33 32  1  0  0  0  0
M  END
>  <MODEL>
3

>  <REMARK>
 VINA RESULT:      -5.7      2.563      6.814
  Name = 
  14 active torsions:
  status: ('A' for Active; 'I' for Inactive)
    1  A    between atoms: C_6  and  C_24
    2  A    between atoms: C_7  and  C_23
    3  A    between atoms: C_7  and  C_27
    4  A    between atoms: C_8  and  O_11
    5  A    between atoms: C_8  and  C_17
    6  A    between atoms: C_8  and  C_29
    7  A    between atoms: N_9  and  C_25
    8  A    between atoms: N_9  and  C_29
    9  A    between atoms: O_11  and  C_33
   10  A    between atoms: C_17  and  C_23
   11  A    between atoms: P_20  and  C_25
   12  A    between atoms: C_22  and  C_33
   13  A    between atoms: C_24  and  N_30
   14  A    between atoms: C_26  and  C_27
                            x       y       z     vdW  Elec       q    Type
                         _______ _______ _______ _____ _____    ______ ____

>  <TORSDO>
F 14

$$$$
=
 OpenBabel11062421153D

 33 34  0  0  1  0  0  0  0  0999 V2000
  193.6040  176.1130  145.7020 C   0  0  0  0  0  2  0  0  0  0  0  0
  193.3740  174.7200  145.1380 C   0  0  2  0  0  3  0  0  0  0  0  0
  193.8720  173.7860  146.0460 O   0  0  0  0  0  1  0  0  0  0  0  0
  194.0540  174.5510  143.7740 C   0  0  2  0  0  3  0  0  0  0  0  0
  194.4810  175.8050  143.2950 O   0  0  0  0  0  0  0  0  0  0  0  0
  196.4220  174.5280  143.2510 O   0  0  0  0  0  1  0  0  0  0  0  0
  196.5890  176.8780  143.4420 C   0  0  0  0  0  1  0  0  0  0  0  0
  195.8190  175.7220  142.8350 C   0  0  2  0  0  0  0  0  0  0  0  0
  194.8810  176.6900  140.8290 O   0  0  0  0  0  1  0  0  0  0  0  0
  195.8860  175.8450  141.3090 C   0  0  0  0  0  2  0  0  0  0  0  0
  193.0780  173.9480  142.7660 C   0  0  0  0  0  2  0  0  0  0  0  0
  191.7150  174.3750  143.0510 N   0  0  0  0  0  2  0  0  0  0  0  0
  191.0750  174.6980  141.7850 C   0  0  0  0  0  2  0  0  0  0  0  0
  189.0170  173.3890  143.0010 O   0  0  0  0  0  1  0  0  0  0  0  0
  189.7550  172.4080  140.6910 O   0  0  0  0  0  0  0  0  0  0  0  0
  188.3520  174.7790  140.8870 O   0  0  0  0  0  1  0  0  0  0  0  0
  189.5080  173.7920  141.6290 P   0  0  0  0  0  0  0  0  0  0  0  0
  192.6040  176.4090  146.8090 C   0  0  0  0  0  2  0  0  0  0  0  0
  191.2130  175.9030  146.4410 C   0  0  0  0  0  2  0  0  0  0  0  0
  188.0710  176.2810  145.2140 C   0  0  1  0  0  3  0  0  0  0  0  0
  185.9510  178.1850  143.1170 O   0  0  0  0  0  0  0  0  0  0  0  0
  190.1450  177.1180  144.5170 C   0  0  1  0  0  3  0  0  0  0  0  0
  188.9380  176.7520  144.1010 C   0  0  2  0  0  3  0  0  0  0  0  0
  188.1840  177.4110  143.0800 N   0  0  0  0  0  0  0  0  0  0  0  0
  191.1140  177.9240  143.7230 C   0  0  0  0  0  1  0  0  0  0  0  0
  188.8010  176.7620  146.4630 C   0  0  0  0  0  2  0  0  0  0  0  0
  190.2420  177.0070  146.0020 C   0  0  1  0  0  3  0  0  0  0  0  0
  188.6900  178.1990  141.9660 C   0  0  0  0  0  1  0  0  0  0  0  0
  186.8230  176.9940  144.9710 N   0  0  0  0  0  0  0  0  0  0  0  0
  186.9040  177.5750  143.6730 C   0  0  0  0  0  0  0  0  0  0  0  0
  185.6040  176.8240  145.7480 C   0  0  0  0  0  2  0  0  0  0  0  0
  184.0800  178.7540  146.0460 C   0  0  0  0  0  1  0  0  0  0  0  0
  185.3350  178.0750  146.5570 C   0  0  0  0  0  2  0  0  0  0  0  0
  1 18  1  0  0  0  0
  2  1  1  0  0  0  0
  2  3  1  1  0  0  0
  4 11  1  6  0  0  0
  4  2  1  0  0  0  0
  5  4  1  0  0  0  0
  8  6  1  0  0  0  0
  8  5  1  0  0  0  0
  8  7  1  1  0  0  0
  9 10  1  0  0  0  0
 10  8  1  0  0  0  0
 11 12  1  0  0  0  0
 13 12  1  0  0  0  0
 15 17  2  0  0  0  0
 16 17  1  0  0  0  0
 17 13  1  0  0  0  0
 17 14  1  0  0  0  0
 19 18  1  0  0  0  0
 20 26  1  1  0  0  0
 21 30  2  0  0  0  0
 22 25  1  1  0  0  0
 22 27  1  0  0  0  0
 23 24  1  1  0  0  0
 23 22  1  0  0  0  0
 23 20  1  0  0  0  0
 24 30  1  0  0  0  0
 27 19  1  6  0  0  0
 27 26  1  0  0  0  0
 28 24  1  0  0  0  0
 29 20  1  0  0  0  0
 29 31  1  0  0  0  0
 30 29  1  0  0  0  0
 31 33  1  0  0  0  0
 32 33  1  0  0  0  0
M  END
>  <MODEL>
4

>  <REMARK>
 VINA RESULT:      -5.7      2.274      6.992
  Name = 
  14 active torsions:
  status: ('A' for Active; 'I' for Inactive)
    1  A    between atoms: C_6  and  C_24
    2  A    between atoms: C_7  and  C_23
    3  A    between atoms: C_7  and  C_27
    4  A    between atoms: C_8  and  O_11
    5  A    between atoms: C_8  and  C_17
    6  A    between atoms: C_8  and  C_29
    7  A    between atoms: N_9  and  C_25
    8  A    between atoms: N_9  and  C_29
    9  A    between atoms: O_11  and  C_33
   10  A    between atoms: C_17  and  C_23
   11  A    between atoms: P_20  and  C_25
   12  A    between atoms: C_22  and  C_33
   13  A    between atoms: C_24  and  N_30
   14  A    between atoms: C_26  and  C_27
                            x       y       z     vdW  Elec       q    Type
                         _______ _______ _______ _____ _____    ______ ____

>  <TORSDO>
F 14

$$$$
=
 OpenBabel11062421153D

 33 34  0  0  1  0  0  0  0  0999 V2000
  193.1280  175.5280  146.2740 C   0  0  0  0  0  2  0  0  0  0  0  0
  194.5330  176.1070  146.2490 C   0  0  2  0  0  3  0  0  0  0  0  0
  194.4450  177.4690  145.9570 O   0  0  0  0  0  1  0  0  0  0  0  0
  195.4100  175.3970  145.2110 C   0  0  2  0  0  3  0  0  0  0  0  0
  194.5970  174.7950  144.2300 O   0  0  0  0  0  0  0  0  0  0  0  0
  193.6880  176.1750  142.5950 O   0  0  0  0  0  1  0  0  0  0  0  0
  195.0110  174.3270  141.9440 C   0  0  0  0  0  1  0  0  0  0  0  0
  194.8050  175.4190  142.9750 C   0  0  2  0  0  0  0  0  0  0  0  0
  196.3140  176.8460  141.7380 O   0  0  0  0  0  1  0  0  0  0  0  0
  196.0580  176.3030  143.0000 C   0  0  0  0  0  2  0  0  0  0  0  0
  196.2520  174.3130  145.8820 C   0  0  0  0  0  2  0  0  0  0  0  0
  196.0800  173.0350  145.2040 N   0  0  0  0  0  2  0  0  0  0  0  0
  196.9370  172.0620  145.8640 C   0  0  0  0  0  2  0  0  0  0  0  0
  196.4710  169.6910  144.6040 O   0  0  0  0  0  0  0  0  0  0  0  0
  194.4600  170.6370  145.9840 O   0  0  0  0  0  1  0  0  0  0  0  0
  196.6810  169.5410  147.2070 O   0  0  0  0  0  1  0  0  0  0  0  0
  196.1350  170.4320  145.8770 P   0  0  0  0  0  0  0  0  0  0  0  0
  192.1910  176.4420  147.0480 C   0  0  0  0  0  2  0  0  0  0  0  0
  190.7320  176.0900  146.7790 C   0  0  0  0  0  2  0  0  0  0  0  0
  187.7390  176.6570  145.2820 C   0  0  1  0  0  3  0  0  0  0  0  0
  185.9760  178.5670  142.8820 O   0  0  0  0  0  0  0  0  0  0  0  0
  189.9310  177.2310  144.6880 C   0  0  1  0  0  3  0  0  0  0  0  0
  188.7260  176.9470  144.2080 C   0  0  2  0  0  3  0  0  0  0  0  0
  188.1160  177.5850  143.0820 N   0  0  0  0  0  0  0  0  0  0  0  0
  191.0300  177.8720  143.9120 C   0  0  0  0  0  1  0  0  0  0  0  0
  188.4230  177.1720  146.5440 C   0  0  0  0  0  2  0  0  0  0  0  0
  189.9110  177.2390  146.1790 C   0  0  1  0  0  3  0  0  0  0  0  0
  188.7770  178.2230  141.9530 C   0  0  0  0  0  1  0  0  0  0  0  0
  186.5890  177.4620  144.8870 N   0  0  0  0  0  0  0  0  0  0  0  0
  186.8210  177.9190  143.5570 C   0  0  0  0  0  0  0  0  0  0  0  0
  185.3080  177.4740  145.5760 C   0  0  0  0  0  2  0  0  0  0  0  0
  185.4490  178.9590  147.5550 C   0  0  0  0  0  1  0  0  0  0  0  0
  185.0250  178.8650  146.1030 C   0  0  0  0  0  2  0  0  0  0  0  0
  1 18  1  0  0  0  0
  2  3  1  6  0  0  0
  2  1  1  0  0  0  0
  4 11  1  1  0  0  0
  4  2  1  0  0  0  0
  5  4  1  0  0  0  0
  6  8  1  0  0  0  0
  8  7  1  6  0  0  0
  8 10  1  0  0  0  0
  8  5  1  0  0  0  0
  9 10  1  0  0  0  0
 12 13  1  0  0  0  0
 12 11  1  0  0  0  0
 13 17  1  0  0  0  0
 14 17  2  0  0  0  0
 17 15  1  0  0  0  0
 17 16  1  0  0  0  0
 19 18  1  0  0  0  0
 20 26  1  1  0  0  0
 21 30  2  0  0  0  0
 22 25  1  6  0  0  0
 22 27  1  0  0  0  0
 23 24  1  1  0  0  0
 23 22  1  0  0  0  0
 23 20  1  0  0  0  0
 24 30  1  0  0  0  0
 27 26  1  0  0  0  0
 27 19  1  1  0  0  0
 28 24  1  0  0  0  0
 29 20  1  0  0  0  0
 29 31  1  0  0  0  0
 30 29  1  0  0  0  0
 31 33  1  0  0  0  0
 33 32  1  0  0  0  0
M  END
>  <MODEL>
5

>  <REMARK>
 VINA RESULT:      -5.7      3.335      8.037
  Name = 
  14 active torsions:
  status: ('A' for Active; 'I' for Inactive)
    1  A    between atoms: C_6  and  C_24
    2  A    between atoms: C_7  and  C_23
    3  A    between atoms: C_7  and  C_27
    4  A    between atoms: C_8  and  O_11
    5  A    between atoms: C_8  and  C_17
    6  A    between atoms: C_8  and  C_29
    7  A    between atoms: N_9  and  C_25
    8  A    between atoms: N_9  and  C_29
    9  A    between atoms: O_11  and  C_33
   10  A    between atoms: C_17  and  C_23
   11  A    between atoms: P_20  and  C_25
   12  A    between atoms: C_22  and  C_33
   13  A    between atoms: C_24  and  N_30
   14  A    between atoms: C_26  and  C_27
                            x       y       z     vdW  Elec       q    Type
                         _______ _______ _______ _____ _____    ______ ____

>  <TORSDO>
F 14

$$$$
=
 OpenBabel11062421153D

 33 34  0  0  1  0  0  0  0  0999 V2000
  190.9620  175.5730  143.2910 C   0  0  0  0  0  2  0  0  0  0  0  0
  191.8280  174.5060  143.9430 C   0  0  2  0  0  3  0  0  0  0  0  0
  191.1090  173.3110  143.9750 O   0  0  0  0  0  1  0  0  0  0  0  0
  192.2430  174.9140  145.3610 C   0  0  2  0  0  3  0  0  0  0  0  0
  191.5250  176.0600  145.7580 O   0  0  0  0  0  0  0  0  0  0  0  0
  191.7650  175.1570  147.8860 O   0  0  0  0  0  1  0  0  0  0  0  0
  189.6860  174.9680  146.7770 C   0  0  0  0  0  1  0  0  0  0  0  0
  190.9050  175.8360  147.0120 C   0  0  2  0  0  0  0  0  0  0  0  0
  191.2540  177.5020  148.7280 O   0  0  0  0  0  1  0  0  0  0  0  0
  190.4450  177.1560  147.6430 C   0  0  0  0  0  2  0  0  0  0  0  0
  193.7370  175.2340  145.4040 C   0  0  0  0  0  2  0  0  0  0  0  0
  194.3660  174.9230  144.1280 N   0  0  0  0  0  2  0  0  0  0  0  0
  195.2160  176.0470  143.7650 C   0  0  0  0  0  2  0  0  0  0  0  0
  197.8000  176.6450  143.1370 O   0  0  0  0  0  1  0  0  0  0  0  0
  196.8290  174.5160  141.9660 O   0  0  0  0  0  0  0  0  0  0  0  0
  197.4860  174.5330  144.6480 O   0  0  0  0  0  1  0  0  0  0  0  0
  196.8890  175.4610  143.3670 P   0  0  0  0  0  0  0  0  0  0  0  0
  190.0080  174.9410  142.2900 C   0  0  0  0  0  2  0  0  0  0  0  0
  188.5740  174.9620  142.8090 C   0  0  0  0  0  2  0  0  0  0  0  0
  185.9080  176.5160  144.2230 C   0  0  1  0  0  3  0  0  0  0  0  0
  183.6660  179.2450  144.0340 O   0  0  0  0  0  0  0  0  0  0  0  0
  186.8750  176.6710  142.0950 C   0  0  1  0  0  3  0  0  0  0  0  0
  185.7370  176.7850  142.7700 C   0  0  2  0  0  3  0  0  0  0  0  0
  184.7290  177.7700  142.5260 N   0  0  0  0  0  0  0  0  0  0  0  0
  187.1040  177.1840  140.7150 C   0  0  0  0  0  1  0  0  0  0  0  0
  187.4190  176.5800  144.4220 C   0  0  0  0  0  2  0  0  0  0  0  0
  188.0050  176.3700  143.0210 C   0  0  1  0  0  3  0  0  0  0  0  0
  184.4390  178.4570  141.2760 C   0  0  0  0  0  1  0  0  0  0  0  0
  185.2030  177.6320  144.8410 N   0  0  0  0  0  0  0  0  0  0  0  0
  184.4600  178.2900  143.8180 C   0  0  0  0  0  0  0  0  0  0  0  0
  185.0060  177.8010  146.2720 C   0  0  0  0  0  2  0  0  0  0  0  0
  186.6920  178.6570  147.8730 C   0  0  0  0  0  1  0  0  0  0  0  0
  185.7470  179.0320  146.7490 C   0  0  0  0  0  2  0  0  0  0  0  0
  1  2  1  0  0  0  0
  2  3  1  1  0  0  0
  2  4  1  0  0  0  0
  4 11  1  6  0  0  0
  4  5  1  0  0  0  0
  5  8  1  0  0  0  0
  8  7  1  6  0  0  0
  8 10  1  0  0  0  0
  8  6  1  0  0  0  0
 10  9  1  0  0  0  0
 12 11  1  0  0  0  0
 13 12  1  0  0  0  0
 14 17  1  0  0  0  0
 15 17  2  0  0  0  0
 17 13  1  0  0  0  0
 17 16  1  0  0  0  0
 18 19  1  0  0  0  0
 18  1  1  0  0  0  0
 20 26  1  6  0  0  0
 20 29  1  0  0  0  0
 22 25  1  1  0  0  0
 22 23  1  0  0  0  0
 22 27  1  0  0  0  0
 23 24  1  1  0  0  0
 23 20  1  0  0  0  0
 24 30  1  0  0  0  0
 27 19  1  1  0  0  0
 27 26  1  0  0  0  0
 28 24  1  0  0  0  0
 29 31  1  0  0  0  0
 30 21  2  0  0  0  0
 30 29  1  0  0  0  0
 31 33  1  0  0  0  0
 33 32  1  0  0  0  0
M  END
>  <MODEL>
6

>  <REMARK>
 VINA RESULT:      -5.5      3.069      7.661
  Name = 
  14 active torsions:
  status: ('A' for Active; 'I' for Inactive)
    1  A    between atoms: C_6  and  C_24
    2  A    between atoms: C_7  and  C_23
    3  A    between atoms: C_7  and  C_27
    4  A    between atoms: C_8  and  O_11
    5  A    between atoms: C_8  and  C_17
    6  A    between atoms: C_8  and  C_29
    7  A    between atoms: N_9  and  C_25
    8  A    between atoms: N_9  and  C_29
    9  A    between atoms: O_11  and  C_33
   10  A    between atoms: C_17  and  C_23
   11  A    between atoms: P_20  and  C_25
   12  A    between atoms: C_22  and  C_33
   13  A    between atoms: C_24  and  N_30
   14  A    between atoms: C_26  and  C_27
                            x       y       z     vdW  Elec       q    Type
                         _______ _______ _______ _____ _____    ______ ____

>  <TORSDO>
F 14

$$$$
=
 OpenBabel11062421153D

 33 34  0  0  1  0  0  0  0  0999 V2000
  190.2050  177.0550  146.2600 C   0  0  0  0  0  2  0  0  0  0  0  0
  188.7420  176.7440  146.5280 C   0  0  2  0  0  3  0  0  0  0  0  0
  188.6550  175.4650  147.0790 O   0  0  0  0  0  1  0  0  0  0  0  0
  187.9090  176.8260  145.2430 C   0  0  2  0  0  3  0  0  0  0  0  0
  186.5720  176.4750  145.5170 O   0  0  0  0  0  0  0  0  0  0  0  0
  185.1660  177.1440  143.7920 O   0  0  0  0  0  1  0  0  0  0  0  0
  186.5020  178.7580  144.8870 C   0  0  0  0  0  1  0  0  0  0  0  0
  185.6970  177.4830  145.0440 C   0  0  2  0  0  0  0  0  0  0  0  0
  183.9690  178.9880  145.8140 O   0  0  0  0  0  1  0  0  0  0  0  0
  184.5660  177.7450  146.0450 C   0  0  0  0  0  2  0  0  0  0  0  0
  188.4630  175.8660  144.1910 C   0  0  0  0  0  2  0  0  0  0  0  0
  188.7770  176.5770  142.9600 N   0  0  0  0  0  2  0  0  0  0  0  0
  187.8840  176.0850  141.9220 C   0  0  0  0  0  2  0  0  0  0  0  0
  188.3330  174.5760  139.6970 O   0  0  0  0  0  0  0  0  0  0  0  0
  187.7670  173.2280  141.8670 O   0  0  0  0  0  1  0  0  0  0  0  0
  190.2120  174.4610  141.5130 O   0  0  0  0  0  1  0  0  0  0  0  0
  188.5550  174.5630  141.1920 P   0  0  0  0  0  0  0  0  0  0  0  0
  191.0980  176.0130  146.9160 C   0  0  0  0  0  2  0  0  0  0  0  0
  192.5690  176.2940  146.6330 C   0  0  0  0  0  2  0  0  0  0  0  0
  195.5630  175.5920  145.1950 C   0  0  1  0  0  3  0  0  0  0  0  0
  197.2530  174.7360  142.2080 O   0  0  0  0  0  0  0  0  0  0  0  0
  193.4910  176.2100  144.2960 C   0  0  1  0  0  3  0  0  0  0  0  0
  194.8040  176.2650  144.1080 C   0  0  2  0  0  3  0  0  0  0  0  0
  195.4610  176.1400  142.8430 N   0  0  0  0  0  0  0  0  0  0  0  0
  192.4660  176.4930  143.2520 C   0  0  0  0  0  1  0  0  0  0  0  0
  194.5010  174.7720  145.9180 C   0  0  0  0  0  2  0  0  0  0  0  0
  193.1700  175.4230  145.5220 C   0  0  1  0  0  3  0  0  0  0  0  0
  194.9280  176.4560  141.5270 C   0  0  0  0  0  1  0  0  0  0  0  0
  196.5170  174.7710  144.4600 N   0  0  0  0  0  0  0  0  0  0  0  0
  196.4790  175.1840  143.0970 C   0  0  0  0  0  0  0  0  0  0  0  0
  197.5590  173.9600  145.0710 C   0  0  0  0  0  2  0  0  0  0  0  0
  196.7790  171.7960  145.9920 C   0  0  0  0  0  1  0  0  0  0  0  0
  197.3170  172.4980  144.7610 C   0  0  0  0  0  2  0  0  0  0  0  0
  1  2  1  0  0  0  0
  1 18  1  0  0  0  0
  2  3  1  6  0  0  0
  4 11  1  6  0  0  0
  4  5  1  0  0  0  0
  4  2  1  0  0  0  0
  6  8  1  0  0  0  0
  8  7  1  6  0  0  0
  8  5  1  0  0  0  0
  8 10  1  0  0  0  0
  9 10  1  0  0  0  0
 12 11  1  0  0  0  0
 13 12  1  0  0  0  0
 14 17  2  0  0  0  0
 17 16  1  0  0  0  0
 17 15  1  0  0  0  0
 17 13  1  0  0  0  0
 19 18  1  0  0  0  0
 20 26  1  6  0  0  0
 21 30  2  0  0  0  0
 22 25  1  6  0  0  0
 22 27  1  0  0  0  0
 23 24  1  6  0  0  0
 23 22  1  0  0  0  0
 23 20  1  0  0  0  0
 24 30  1  0  0  0  0
 27 26  1  0  0  0  0
 27 19  1  1  0  0  0
 28 24  1  0  0  0  0
 29 31  1  0  0  0  0
 29 20  1  0  0  0  0
 30 29  1  0  0  0  0
 33 31  1  0  0  0  0
 33 32  1  0  0  0  0
M  END
>  <MODEL>
7

>  <REMARK>
 VINA RESULT:      -5.5      2.424      3.487
  Name = 
  14 active torsions:
  status: ('A' for Active; 'I' for Inactive)
    1  A    between atoms: C_6  and  C_24
    2  A    between atoms: C_7  and  C_23
    3  A    between atoms: C_7  and  C_27
    4  A    between atoms: C_8  and  O_11
    5  A    between atoms: C_8  and  C_17
    6  A    between atoms: C_8  and  C_29
    7  A    between atoms: N_9  and  C_25
    8  A    between atoms: N_9  and  C_29
    9  A    between atoms: O_11  and  C_33
   10  A    between atoms: C_17  and  C_23
   11  A    between atoms: P_20  and  C_25
   12  A    between atoms: C_22  and  C_33
   13  A    between atoms: C_24  and  N_30
   14  A    between atoms: C_26  and  C_27
                            x       y       z     vdW  Elec       q    Type
                         _______ _______ _______ _____ _____    ______ ____

>  <TORSDO>
F 14

$$$$
=
 OpenBabel11062421153D

 33 34  0  0  1  0  0  0  0  0999 V2000
  186.3190  178.4450  145.5340 C   0  0  0  0  0  2  0  0  0  0  0  0
  185.1360  179.0390  144.7870 C   0  0  2  0  0  3  0  0  0  0  0  0
  183.9680  178.7240  145.4840 O   0  0  0  0  0  1  0  0  0  0  0  0
  185.0570  178.5050  143.3520 C   0  0  2  0  0  3  0  0  0  0  0  0
  186.1860  178.9280  142.6220 O   0  0  0  0  0  0  0  0  0  0  0  0
  186.0780  177.9150  140.5330 O   0  0  0  0  0  1  0  0  0  0  0  0
  186.2710  176.5660  142.4650 C   0  0  0  0  0  1  0  0  0  0  0  0
  186.6630  177.8730  141.8060 C   0  0  2  0  0  0  0  0  0  0  0  0
  188.7270  176.6250  141.6400 O   0  0  0  0  0  1  0  0  0  0  0  0
  188.1910  177.9150  141.6880 C   0  0  0  0  0  2  0  0  0  0  0  0
  183.8010  179.0300  142.6590 C   0  0  0  0  0  2  0  0  0  0  0  0
  183.0370  177.9340  142.0790 N   0  0  0  0  0  2  0  0  0  0  0  0
  182.3620  178.4410  140.8940 C   0  0  0  0  0  2  0  0  0  0  0  0
  179.6920  177.9150  141.0390 O   0  0  0  0  0  1  0  0  0  0  0  0
  180.3130  180.3740  140.3960 O   0  0  0  0  0  0  0  0  0  0  0  0
  180.6330  179.4140  142.9650 O   0  0  0  0  0  1  0  0  0  0  0  0
  180.6920  179.0120  141.3240 P   0  0  0  0  0  0  0  0  0  0  0  0
  185.8740  177.2560  146.3720 C   0  0  0  0  0  2  0  0  0  0  0  0
  187.0690  176.4170  146.8140 C   0  0  0  0  0  2  0  0  0  0  0  0
  189.6860  174.7430  145.4470 C   0  0  1  0  0  3  0  0  0  0  0  0
  193.1290  174.8360  144.6420 O   0  0  0  0  0  0  0  0  0  0  0  0
  189.5740  176.6080  146.8590 C   0  0  1  0  0  3  0  0  0  0  0  0
  190.3160  175.5620  146.5150 C   0  0  2  0  0  3  0  0  0  0  0  0
  191.7440  175.5620  146.4140 N   0  0  0  0  0  0  0  0  0  0  0  0
  190.0590  177.7780  147.6440 C   0  0  0  0  0  1  0  0  0  0  0  0
  188.5890  175.6510  144.9010 C   0  0  0  0  0  2  0  0  0  0  0  0
  188.3490  176.6810  146.0110 C   0  0  1  0  0  3  0  0  0  0  0  0
  192.6870  176.4160  147.1190 C   0  0  0  0  0  1  0  0  0  0  0  0
  190.7810  174.5410  144.5070 N   0  0  0  0  0  0  0  0  0  0  0  0
  191.9810  174.9630  145.1490 C   0  0  0  0  0  0  0  0  0  0  0  0
  190.7050  173.7270  143.3040 C   0  0  0  0  0  2  0  0  0  0  0  0
  188.6450  172.6910  142.3970 C   0  0  0  0  0  1  0  0  0  0  0  0
  189.6860  172.6240  143.4970 C   0  0  0  0  0  2  0  0  0  0  0  0
  1 18  1  0  0  0  0
  2  3  1  1  0  0  0
  2  1  1  0  0  0  0
  4 11  1  6  0  0  0
  4  2  1  0  0  0  0
  5  4  1  0  0  0  0
  6  8  1  0  0  0  0
  8  7  1  1  0  0  0
  8  5  1  0  0  0  0
  9 10  1  0  0  0  0
 10  8  1  0  0  0  0
 12 11  1  0  0  0  0
 13 17  1  0  0  0  0
 13 12  1  0  0  0  0
 14 17  1  0  0  0  0
 15 17  2  0  0  0  0
 17 16  1  0  0  0  0
 18 19  1  0  0  0  0
 20 26  1  6  0  0  0
 20 23  1  0  0  0  0
 21 30  2  0  0  0  0
 22 25  1  6  0  0  0
 23 24  1  6  0  0  0
 23 22  1  0  0  0  0
 24 28  1  0  0  0  0
 26 27  1  0  0  0  0
 27 19  1  1  0  0  0
 27 22  1  0  0  0  0
 29 30  1  0  0  0  0
 29 20  1  0  0  0  0
 30 24  1  0  0  0  0
 31 33  1  0  0  0  0
 31 29  1  0  0  0  0
 32 33  1  0  0  0  0
M  END
>  <MODEL>
8

>  <REMARK>
 VINA RESULT:      -5.5      2.933      5.735
  Name = 
  14 active torsions:
  status: ('A' for Active; 'I' for Inactive)
    1  A    between atoms: C_6  and  C_24
    2  A    between atoms: C_7  and  C_23
    3  A    between atoms: C_7  and  C_27
    4  A    between atoms: C_8  and  O_11
    5  A    between atoms: C_8  and  C_17
    6  A    between atoms: C_8  and  C_29
    7  A    between atoms: N_9  and  C_25
    8  A    between atoms: N_9  and  C_29
    9  A    between atoms: O_11  and  C_33
   10  A    between atoms: C_17  and  C_23
   11  A    between atoms: P_20  and  C_25
   12  A    between atoms: C_22  and  C_33
   13  A    between atoms: C_24  and  N_30
   14  A    between atoms: C_26  and  C_27
                            x       y       z     vdW  Elec       q    Type
                         _______ _______ _______ _____ _____    ______ ____

>  <TORSDO>
F 14

$$$$
=
 OpenBabel11062421153D

 33 34  0  0  1  0  0  0  0  0999 V2000
  191.4010  176.4140  146.1700 C   0  0  0  0  0  2  0  0  0  0  0  0
  192.5940  176.7680  145.2960 C   0  0  2  0  0  3  0  0  0  0  0  0
  192.1590  177.6160  144.2770 O   0  0  0  0  0  1  0  0  0  0  0  0
  193.2420  175.5120  144.7010 C   0  0  2  0  0  3  0  0  0  0  0  0
  194.0820  175.8710  143.6280 O   0  0  0  0  0  0  0  0  0  0  0  0
  195.9810  177.0570  144.2510 O   0  0  0  0  0  1  0  0  0  0  0  0
  196.2110  175.1380  142.8890 C   0  0  0  0  0  1  0  0  0  0  0  0
  195.4400  175.7850  144.0230 C   0  0  2  0  0  0  0  0  0  0  0  0
  196.8630  174.3230  145.3190 O   0  0  0  0  0  1  0  0  0  0  0  0
  195.5960  174.9110  145.2730 C   0  0  0  0  0  2  0  0  0  0  0  0
  192.1680  174.5560  144.1840 C   0  0  0  0  0  2  0  0  0  0  0  0
  192.0520  174.6490  142.7350 N   0  0  0  0  0  2  0  0  0  0  0  0
  190.7160  175.1370  142.4250 C   0  0  0  0  0  2  0  0  0  0  0  0
  188.5850  173.4740  142.7670 O   0  0  0  0  0  1  0  0  0  0  0  0
  190.6530  172.4080  141.5700 O   0  0  0  0  0  1  0  0  0  0  0  0
  189.0150  174.2330  140.3010 O   0  0  0  0  0  0  0  0  0  0  0  0
  189.6910  173.7820  141.7840 P   0  0  0  0  0  0  0  0  0  0  0  0
  190.2250  177.3250  145.8560 C   0  0  0  0  0  2  0  0  0  0  0  0
  189.1120  177.1590  146.8850 C   0  0  0  0  0  2  0  0  0  0  0  0
  187.2320  177.6360  144.0990 C   0  0  1  0  0  3  0  0  0  0  0  0
  183.9630  177.9270  142.7820 O   0  0  0  0  0  0  0  0  0  0  0  0
  186.7410  177.8250  146.3810 C   0  0  1  0  0  3  0  0  0  0  0  0
  186.4330  178.2820  145.1740 C   0  0  2  0  0  3  0  0  0  0  0  0
  185.1130  178.6120  144.7300 N   0  0  0  0  0  0  0  0  0  0  0  0
  185.9150  178.0230  147.6060 C   0  0  0  0  0  1  0  0  0  0  0  0
  187.8410  176.4200  144.7890 C   0  0  0  0  0  2  0  0  0  0  0  0
  187.7630  176.7420  146.2860 C   0  0  1  0  0  3  0  0  0  0  0  0
  183.9800  179.0340  145.5400 C   0  0  0  0  0  1  0  0  0  0  0  0
  186.2200  177.2850  143.1110 N   0  0  0  0  0  0  0  0  0  0  0  0
  185.0130  177.9470  143.4800 C   0  0  0  0  0  0  0  0  0  0  0  0
  186.4960  176.6880  141.8140 C   0  0  0  0  0  2  0  0  0  0  0  0
  186.6780  177.1910  139.3940 C   0  0  0  0  0  1  0  0  0  0  0  0
  186.7390  177.7780  140.7910 C   0  0  0  0  0  2  0  0  0  0  0  0
  2  3  1  6  0  0  0
  2  1  1  0  0  0  0
  4 11  1  6  0  0  0
  4  2  1  0  0  0  0
  5  8  1  0  0  0  0
  5  4  1  0  0  0  0
  8  7  1  6  0  0  0
  8  6  1  0  0  0  0
  8 10  1  0  0  0  0
 10  9  1  0  0  0  0
 12 11  1  0  0  0  0
 13 12  1  0  0  0  0
 15 17  1  0  0  0  0
 16 17  2  0  0  0  0
 17 13  1  0  0  0  0
 17 14  1  0  0  0  0
 18  1  1  0  0  0  0
 18 19  1  0  0  0  0
 20 26  1  1  0  0  0
 20 23  1  0  0  0  0
 21 30  2  0  0  0  0
 22 25  1  6  0  0  0
 23 24  1  6  0  0  0
 23 22  1  0  0  0  0
 24 28  1  0  0  0  0
 26 27  1  0  0  0  0
 27 22  1  0  0  0  0
 27 19  1  6  0  0  0
 29 30  1  0  0  0  0
 29 20  1  0  0  0  0
 30 24  1  0  0  0  0
 31 29  1  0  0  0  0
 32 33  1  0  0  0  0
 33 31  1  0  0  0  0
M  END
>  <MODEL>
9

>  <REMARK>
 VINA RESULT:      -5.5      2.349      7.411
  Name = 
  14 active torsions:
  status: ('A' for Active; 'I' for Inactive)
    1  A    between atoms: C_6  and  C_24
    2  A    between atoms: C_7  and  C_23
    3  A    between atoms: C_7  and  C_27
    4  A    between atoms: C_8  and  O_11
    5  A    between atoms: C_8  and  C_17
    6  A    between atoms: C_8  and  C_29
    7  A    between atoms: N_9  and  C_25
    8  A    between atoms: N_9  and  C_29
    9  A    between atoms: O_11  and  C_33
   10  A    between atoms: C_17  and  C_23
   11  A    between atoms: P_20  and  C_25
   12  A    between atoms: C_22  and  C_33
   13  A    between atoms: C_24  and  N_30
   14  A    between atoms: C_26  and  C_27
                            x       y       z     vdW  Elec       q    Type
                         _______ _______ _______ _____ _____    ______ ____

>  <TORSDO>
F 14

$$$$
