=
 OpenBabel11072409123D

 39 44  0  0  1  0  0  0  0  0999 V2000
  189.5390  174.1800  145.0300 C   0  0  0  0  0  3  0  0  0  0  0  0
  191.5510  175.1970  145.9550 C   0  0  0  0  0  0  0  0  0  0  0  0
  193.8930  173.7790  143.7580 N   0  0  0  0  0  0  0  0  0  0  0  0
  191.6990  173.7120  144.0840 C   0  0  0  0  0  0  0  0  0  0  0  0
  189.5450  175.8020  147.0540 C   0  0  1  0  0  3  0  0  0  0  0  0
  190.3120  173.5020  144.0620 C   0  0  0  0  0  3  0  0  0  0  0  0
  192.3050  174.5280  145.0000 C   0  0  0  0  0  0  0  0  0  0  0  0
  192.0200  176.1070  147.0240 C   0  0  0  0  0  3  0  0  0  0  0  0
  190.1840  175.0270  145.9630 C   0  0  0  0  0  0  0  0  0  0  0  0
  190.7150  176.5760  147.6950 C   0  0  0  0  0  3  0  0  0  0  0  0
  192.7330  173.2490  143.3050 C   0  0  0  0  0  0  0  0  0  0  0  0
  193.6330  174.5660  144.7990 N   0  0  0  0  0  2  0  0  0  0  0  0
  188.5890  176.7440  146.4990 N   0  0  0  0  0  2  0  0  0  0  0  0
  187.1280  178.5670  147.6630 O   0  0  0  0  0  1  0  0  0  0  0  0
  187.2590  176.2670  146.8760 C   0  0  1  0  0  3  0  0  0  0  0  0
  186.4270  177.3560  147.5610 C   0  0  2  0  0  3  0  0  0  0  0  0
  186.1330  176.9680  146.1080 C   0  0  1  0  0  3  0  0  0  0  0  0
  184.4060  177.9000  142.5250 C   0  0  0  0  0  1  0  0  0  0  0  0
  186.6120  177.9890  145.0650 C   0  0  2  0  0  3  0  0  0  0  0  0
  185.9240  179.2510  145.2590 N   0  0  0  0  0  2  0  0  0  0  0  0
  186.3310  177.4960  143.7210 N   0  0  0  0  0  0  0  0  0  0  0  0
  185.6280  178.5050  143.0320 N   0  0  0  0  0  0  0  0  0  0  0  0
  185.2280  179.5030  144.0120 C   0  0  0  0  0  2  0  0  0  0  0  0
  187.6090  177.2270  143.0440 C   0  0  0  0  0  3  0  0  0  0  0  0
  187.9990  178.2970  142.0230 C   0  0  0  0  0  1  0  0  0  0  0  0
  187.5960  175.8580  142.3900 C   0  0  0  0  0  1  0  0  0  0  0  0
  192.6300  172.3150  142.1460 C   0  0  0  0  0  2  0  0  0  0  0  0
  190.0920  171.5000  141.0990 O   0  0  0  0  0  0  0  0  0  0  0  0
  190.6770  172.4640  140.5280 C   0  0  0  0  0  0  0  0  0  0  0  0
  191.9210  172.9500  141.0410 N   0  0  0  0  0  2  0  0  0  0  0  0
  190.0720  173.0980  139.3470 C   0  0  0  0  0  0  0  0  0  0  0  0
  191.0350  174.0450  136.0990 O   0  0  0  0  0  0  0  0  0  0  0  0
  188.5990  173.4440  139.3730 C   0  0  0  0  0  2  0  0  0  0  0  0
  188.1220  174.1840  138.1510 C   0  0  0  0  0  3  0  0  0  0  0  0
  190.2880  173.9290  137.1080 C   0  0  0  0  0  0  0  0  0  0  0  0
  190.8010  173.3080  138.2900 N   0  0  0  0  0  0  0  0  0  0  0  0
  188.8860  174.4100  137.0840 C   0  0  0  0  0  0  0  0  0  0  0  0
  187.3330  176.1090  136.1210 C   0  0  0  0  0  1  0  0  0  0  0  0
  188.3160  175.0910  135.9980 O   0  0  0  0  0  0  0  0  0  0  0  0
  1  9  1  0  0  0  0
  2  9  2  0  0  0  0
  2  8  1  0  0  0  0
  3 12  1  0  0  0  0
  4  7  2  0  0  0  0
  5 13  1  6  0  0  0
  5 10  1  0  0  0  0
  6  4  1  0  0  0  0
  6  1  2  0  0  0  0
  7  2  1  0  0  0  0
  8 10  2  0  0  0  0
  9  5  1  0  0  0  0
 11  3  2  0  0  0  0
 11  4  1  0  0  0  0
 12  7  1  0  0  0  0
 15 13  1  6  0  0  0
 15 16  1  0  0  0  0
 16 14  1  6  0  0  0
 17 19  1  6  0  0  0
 17 15  1  0  0  0  0
 17 16  1  0  0  0  0
 18 22  1  0  0  0  0
 19 20  1  1  0  0  0
 21 19  1  0  0  0  0
 22 21  1  0  0  0  0
 22 23  1  0  0  0  0
 23 20  1  0  0  0  0
 24 21  1  0  0  0  0
 25 24  1  0  0  0  0
 26 24  1  0  0  0  0
 27 11  1  0  0  0  0
 29 30  1  0  0  0  0
 29 28  2  0  0  0  0
 30 27  1  0  0  0  0
 31 33  1  0  0  0  0
 31 29  1  0  0  0  0
 32 35  2  0  0  0  0
 34 33  1  0  0  0  0
 35 36  1  0  0  0  0
 36 31  2  0  0  0  0
 37 35  1  0  0  0  0
 37 34  2  0  0  0  0
 39 38  1  0  0  0  0
 39 37  1  0  0  0  0
M  END
>  <MODEL>
1

>  <REMARK>
 VINA RESULT:      -7.6      0.000      0.000
  Name = 
  8 active torsions:
  status: ('A' for Active; 'I' for Inactive)
    1  A    between atoms: C_3  and  N_33
    2  A    between atoms: C_4  and  C_24
    3  A    between atoms: C_10  and  C_26
    4  A    between atoms: C_12  and  N_13
    5  A    between atoms: N_13  and  C_14
    6  A    between atoms: C_19  and  N_32
    7  A    between atoms: C_19  and  C_36
    8  A    between atoms: C_34  and  O_38
                            x       y       z     vdW  Elec       q    Type
                         _______ _______ _______ _____ _____    ______ ____

>  <TORSDO>
F 8

$$$$
=
 OpenBabel11072409123D

 39 44  0  0  1  0  0  0  0  0999 V2000
  189.5880  174.0560  145.3930 C   0  0  0  0  0  3  0  0  0  0  0  0
  191.6260  175.1400  146.1730 C   0  0  0  0  0  0  0  0  0  0  0  0
  193.9170  173.4540  144.1150 N   0  0  0  0  0  0  0  0  0  0  0  0
  191.7270  173.4550  144.4760 C   0  0  0  0  0  0  0  0  0  0  0  0
  189.6450  175.8910  147.2250 C   0  0  1  0  0  3  0  0  0  0  0  0
  190.3380  173.2630  144.4960 C   0  0  0  0  0  3  0  0  0  0  0  0
  192.3570  174.3590  145.2870 C   0  0  0  0  0  0  0  0  0  0  0  0
  192.1230  176.1550  147.1270 C   0  0  0  0  0  3  0  0  0  0  0  0
  190.2570  174.9910  146.2180 C   0  0  0  0  0  0  0  0  0  0  0  0
  190.8340  176.7150  147.7590 C   0  0  0  0  0  3  0  0  0  0  0  0
  192.7430  172.8940  143.7390 C   0  0  0  0  0  0  0  0  0  0  0  0
  193.6830  174.3550  145.0660 N   0  0  0  0  0  2  0  0  0  0  0  0
  188.6920  176.7790  146.5810 N   0  0  0  0  0  2  0  0  0  0  0  0
  187.1000  178.5210  147.6950 O   0  0  0  0  0  1  0  0  0  0  0  0
  187.3610  176.2480  146.8660 C   0  0  1  0  0  3  0  0  0  0  0  0
  186.4510  177.2900  147.5230 C   0  0  2  0  0  3  0  0  0  0  0  0
  186.2580  176.9280  146.0460 C   0  0  1  0  0  3  0  0  0  0  0  0
  184.7860  177.8100  142.3400 C   0  0  0  0  0  1  0  0  0  0  0  0
  186.7610  177.9910  145.0580 C   0  0  2  0  0  3  0  0  0  0  0  0
  185.9870  179.2080  145.2050 N   0  0  0  0  0  2  0  0  0  0  0  0
  186.6240  177.5020  143.6900 N   0  0  0  0  0  0  0  0  0  0  0  0
  185.9230  178.4780  142.9540 N   0  0  0  0  0  0  0  0  0  0  0  0
  185.3840  179.4370  143.9060 C   0  0  0  0  0  2  0  0  0  0  0  0
  187.9690  177.3170  143.1210 C   0  0  0  0  0  3  0  0  0  0  0  0
  188.2800  178.2690  141.9650 C   0  0  0  0  0  1  0  0  0  0  0  0
  188.1800  175.8790  142.6900 C   0  0  0  0  0  1  0  0  0  0  0  0
  192.6110  171.8390  142.6920 C   0  0  0  0  0  2  0  0  0  0  0  0
  190.0120  171.5650  141.5220 O   0  0  0  0  0  0  0  0  0  0  0  0
  190.8810  172.2090  140.8690 C   0  0  0  0  0  0  0  0  0  0  0  0
  192.1800  172.4250  141.4290 N   0  0  0  0  0  2  0  0  0  0  0  0
  190.5530  172.7530  139.5420 C   0  0  0  0  0  0  0  0  0  0  0  0
  187.8930  174.4560  137.9940 O   0  0  0  0  0  0  0  0  0  0  0  0
  191.5900  172.6820  138.4420 C   0  0  0  0  0  2  0  0  0  0  0  0
  191.1000  173.1720  137.1050 C   0  0  0  0  0  3  0  0  0  0  0  0
  189.0020  173.8630  138.0890 C   0  0  0  0  0  0  0  0  0  0  0  0
  189.3980  173.3210  139.3520 N   0  0  0  0  0  0  0  0  0  0  0  0
  189.9060  173.7340  136.9220 C   0  0  0  0  0  0  0  0  0  0  0  0
  189.9240  175.4460  135.1070 C   0  0  0  0  0  1  0  0  0  0  0  0
  189.5760  174.1720  135.6300 O   0  0  0  0  0  0  0  0  0  0  0  0
  1  9  1  0  0  0  0
  2  9  2  0  0  0  0
  2  8  1  0  0  0  0
  3 12  1  0  0  0  0
  4  6  1  0  0  0  0
  4  7  2  0  0  0  0
  5 13  1  6  0  0  0
  5 10  1  0  0  0  0
  6  1  2  0  0  0  0
  7  2  1  0  0  0  0
  8 10  2  0  0  0  0
  9  5  1  0  0  0  0
 11  3  2  0  0  0  0
 11  4  1  0  0  0  0
 12  7  1  0  0  0  0
 15 13  1  6  0  0  0
 15 16  1  0  0  0  0
 16 14  1  6  0  0  0
 17 19  1  6  0  0  0
 17 15  1  0  0  0  0
 17 16  1  0  0  0  0
 18 22  1  0  0  0  0
 19 20  1  6  0  0  0
 21 19  1  0  0  0  0
 22 21  1  0  0  0  0
 22 23  1  0  0  0  0
 23 20  1  0  0  0  0
 24 21  1  0  0  0  0
 25 24  1  0  0  0  0
 26 24  1  0  0  0  0
 27 11  1  0  0  0  0
 29 30  1  0  0  0  0
 29 28  2  0  0  0  0
 30 27  1  0  0  0  0
 31 29  1  0  0  0  0
 32 35  2  0  0  0  0
 33 31  1  0  0  0  0
 34 33  1  0  0  0  0
 35 36  1  0  0  0  0
 36 31  2  0  0  0  0
 37 34  2  0  0  0  0
 37 35  1  0  0  0  0
 38 39  1  0  0  0  0
 39 37  1  0  0  0  0
M  END
>  <MODEL>
2

>  <REMARK>
 VINA RESULT:      -7.5      0.822      1.215
  Name = 
  8 active torsions:
  status: ('A' for Active; 'I' for Inactive)
    1  A    between atoms: C_3  and  N_33
    2  A    between atoms: C_4  and  C_24
    3  A    between atoms: C_10  and  C_26
    4  A    between atoms: C_12  and  N_13
    5  A    between atoms: N_13  and  C_14
    6  A    between atoms: C_19  and  N_32
    7  A    between atoms: C_19  and  C_36
    8  A    between atoms: C_34  and  O_38
                            x       y       z     vdW  Elec       q    Type
                         _______ _______ _______ _____ _____    ______ ____

>  <TORSDO>
F 8

$$$$
=
 OpenBabel11072409123D

 39 44  0  0  1  0  0  0  0  0999 V2000
  191.4920  173.4190  145.0300 C   0  0  0  0  0  3  0  0  0  0  0  0
  192.3040  175.3380  146.2930 C   0  0  0  0  0  0  0  0  0  0  0  0
  195.7430  174.8830  145.7530 N   0  0  0  0  0  0  0  0  0  0  0  0
  193.8470  173.8700  145.2010 C   0  0  0  0  0  0  0  0  0  0  0  0
  189.9510  175.0950  146.2710 C   0  0  1  0  0  3  0  0  0  0  0  0
  192.8180  173.0540  144.7080 C   0  0  0  0  0  3  0  0  0  0  0  0
  193.6050  174.9750  145.9710 C   0  0  0  0  0  0  0  0  0  0  0  0
  191.8460  176.4810  147.1130 C   0  0  0  0  0  3  0  0  0  0  0  0
  191.2620  174.5700  145.8210 C   0  0  0  0  0  0  0  0  0  0  0  0
  190.3100  176.3850  147.0360 C   0  0  0  0  0  3  0  0  0  0  0  0
  195.2160  173.8360  145.0760 C   0  0  0  0  0  0  0  0  0  0  0  0
  194.7550  175.5850  146.3040 N   0  0  0  0  0  2  0  0  0  0  0  0
  189.1290  175.4290  145.1200 N   0  0  0  0  0  2  0  0  0  0  0  0
  188.8880  175.4160  142.5210 O   0  0  0  0  0  1  0  0  0  0  0  0
  189.7570  176.5800  144.4730 C   0  0  1  0  0  3  0  0  0  0  0  0
  189.6040  176.5430  142.9500 C   0  0  2  0  0  3  0  0  0  0  0  0
  188.7460  177.5020  143.7820 C   0  0  1  0  0  3  0  0  0  0  0  0
  185.4670  179.8910  144.2550 C   0  0  0  0  0  1  0  0  0  0  0  0
  187.2800  177.0740  143.9400 C   0  0  2  0  0  3  0  0  0  0  0  0
  186.6130  177.1110  142.6540 N   0  0  0  0  0  2  0  0  0  0  0  0
  186.5940  177.9770  144.8590 N   0  0  0  0  0  0  0  0  0  0  0  0
  185.4270  178.4380  144.2160 N   0  0  0  0  0  0  0  0  0  0  0  0
  185.5210  178.0520  142.8160 C   0  0  0  0  0  2  0  0  0  0  0  0
  186.2330  177.2280  146.0720 C   0  0  0  0  0  3  0  0  0  0  0  0
  184.7300  177.1970  146.3480 C   0  0  0  0  0  1  0  0  0  0  0  0
  186.9790  177.7640  147.2800 C   0  0  0  0  0  1  0  0  0  0  0  0
  196.0210  172.8260  144.3270 C   0  0  0  0  0  2  0  0  0  0  0  0
  197.7410  174.6700  142.9720 O   0  0  0  0  0  0  0  0  0  0  0  0
  196.8530  174.0890  142.2870 C   0  0  0  0  0  0  0  0  0  0  0  0
  196.0010  173.1160  142.8990 N   0  0  0  0  0  2  0  0  0  0  0  0
  196.7060  174.3980  140.8560 C   0  0  0  0  0  0  0  0  0  0  0  0
  194.1430  175.2910  138.6180 O   0  0  0  0  0  0  0  0  0  0  0  0
  197.9410  174.4370  139.9820 C   0  0  0  0  0  2  0  0  0  0  0  0
  197.6520  174.6560  138.5210 C   0  0  0  0  0  3  0  0  0  0  0  0
  195.3020  174.9720  138.9980 C   0  0  0  0  0  0  0  0  0  0  0  0
  195.5280  174.6720  140.3790 N   0  0  0  0  0  0  0  0  0  0  0  0
  196.4350  174.9170  138.0450 C   0  0  0  0  0  0  0  0  0  0  0  0
  196.8360  176.2450  135.9700 C   0  0  0  0  0  1  0  0  0  0  0  0
  196.3000  175.1270  136.6640 O   0  0  0  0  0  0  0  0  0  0  0  0
  1  9  1  0  0  0  0
  2  8  1  0  0  0  0
  3 12  1  0  0  0  0
  4  7  2  0  0  0  0
  5 13  1  6  0  0  0
  5 10  1  0  0  0  0
  6  1  2  0  0  0  0
  6  4  1  0  0  0  0
  7  2  1  0  0  0  0
  7 12  1  0  0  0  0
  9  5  1  0  0  0  0
  9  2  2  0  0  0  0
 10  8  2  0  0  0  0
 11  4  1  0  0  0  0
 11  3  2  0  0  0  0
 15 13  1  1  0  0  0
 16 14  1  1  0  0  0
 16 17  1  0  0  0  0
 16 15  1  0  0  0  0
 17 19  1  1  0  0  0
 17 15  1  0  0  0  0
 19 20  1  6  0  0  0
 19 21  1  0  0  0  0
 20 23  1  0  0  0  0
 21 24  1  0  0  0  0
 22 18  1  0  0  0  0
 22 21  1  0  0  0  0
 23 22  1  0  0  0  0
 24 25  1  0  0  0  0
 24 26  1  0  0  0  0
 27 11  1  0  0  0  0
 29 30  1  0  0  0  0
 29 28  2  0  0  0  0
 30 27  1  0  0  0  0
 31 29  1  0  0  0  0
 32 35  2  0  0  0  0
 33 31  1  0  0  0  0
 34 33  1  0  0  0  0
 35 36  1  0  0  0  0
 36 31  2  0  0  0  0
 37 34  2  0  0  0  0
 37 35  1  0  0  0  0
 38 39  1  0  0  0  0
 39 37  1  0  0  0  0
M  END
>  <MODEL>
3

>  <REMARK>
 VINA RESULT:      -7.1      3.431      4.843
  Name = 
  8 active torsions:
  status: ('A' for Active; 'I' for Inactive)
    1  A    between atoms: C_3  and  N_33
    2  A    between atoms: C_4  and  C_24
    3  A    between atoms: C_10  and  C_26
    4  A    between atoms: C_12  and  N_13
    5  A    between atoms: N_13  and  C_14
    6  A    between atoms: C_19  and  N_32
    7  A    between atoms: C_19  and  C_36
    8  A    between atoms: C_34  and  O_38
                            x       y       z     vdW  Elec       q    Type
                         _______ _______ _______ _____ _____    ______ ____

>  <TORSDO>
F 8

$$$$
=
 OpenBabel11072409123D

 39 44  0  0  1  0  0  0  0  0999 V2000
  188.8070  175.7630  142.8700 C   0  0  0  0  0  3  0  0  0  0  0  0
  187.8780  175.6540  140.6200 C   0  0  0  0  0  0  0  0  0  0  0  0
  189.0980  172.4880  139.7200 N   0  0  0  0  0  0  0  0  0  0  0  0
  189.1920  173.8450  141.4730 C   0  0  0  0  0  0  0  0  0  0  0  0
  187.3710  177.6400  141.8020 C   0  0  1  0  0  3  0  0  0  0  0  0
  189.3980  174.4910  142.7010 C   0  0  0  0  0  2  0  0  0  0  0  0
  188.4600  174.4030  140.4620 C   0  0  0  0  0  0  0  0  0  0  0  0
  187.0660  176.4190  139.6490 C   0  0  0  0  0  3  0  0  0  0  0  0
  188.0470  176.3200  141.8150 C   0  0  0  0  0  0  0  0  0  0  0  0
  186.6570  177.6790  140.4350 C   0  0  0  0  0  3  0  0  0  0  0  0
  189.5850  172.6250  140.9760 C   0  0  0  0  0  0  0  0  0  0  0  0
  188.4050  173.5790  139.4020 N   0  0  0  0  0  0  0  0  0  0  0  0
  186.3830  177.7000  142.8660 N   0  0  0  0  0  2  0  0  0  0  0  0
  183.8650  178.1320  143.4030 O   0  0  0  0  0  1  0  0  0  0  0  0
  186.0670  179.1130  143.0680 C   0  0  1  0  0  3  0  0  0  0  0  0
  184.5830  179.3360  143.3760 C   0  0  2  0  0  3  0  0  0  0  0  0
  185.6210  179.4260  144.5010 C   0  0  1  0  0  3  0  0  0  0  0  0
  186.8700  179.3090  148.3880 C   0  0  0  0  0  1  0  0  0  0  0  0
  185.6370  178.2200  145.4520 C   0  0  2  0  0  3  0  0  0  0  0  0
  184.4380  178.2180  146.2670 N   0  0  0  0  0  2  0  0  0  0  0  0
  186.8050  178.2920  146.3240 N   0  0  0  0  0  0  0  0  0  0  0  0
  186.3560  178.1640  147.6540 N   0  0  0  0  0  0  0  0  0  0  0  0
  184.9060  178.2910  147.6380 C   0  0  0  0  0  2  0  0  0  0  0  0
  187.7070  177.1780  145.9920 C   0  0  0  0  0  3  0  0  0  0  0  0
  187.6780  176.0410  147.0140 C   0  0  0  0  0  1  0  0  0  0  0  0
  189.1280  177.6730  145.7980 C   0  0  0  0  0  1  0  0  0  0  0  0
  190.4130  171.5980  141.6740 C   0  0  0  0  0  2  0  0  0  0  0  0
  191.5010  171.9760  144.2960 O   0  0  0  0  0  0  0  0  0  0  0  0
  192.2040  172.3460  143.3130 C   0  0  0  0  0  0  0  0  0  0  0  0
  191.7350  172.1310  141.9780 N   0  0  0  0  0  2  0  0  0  0  0  0
  193.5110  172.9800  143.5400 C   0  0  0  0  0  0  0  0  0  0  0  0
  194.9320  175.3490  145.7180 O   0  0  0  0  0  0  0  0  0  0  0  0
  194.6950  172.5400  142.7060 C   0  0  0  0  0  2  0  0  0  0  0  0
  195.9490  173.3350  142.9560 C   0  0  0  0  0  3  0  0  0  0  0  0
  194.8700  174.5410  144.7520 C   0  0  0  0  0  0  0  0  0  0  0  0
  193.6350  173.8730  144.4780 N   0  0  0  0  0  0  0  0  0  0  0  0
  196.0550  174.2610  143.9080 C   0  0  0  0  0  0  0  0  0  0  0  0
  197.7970  175.8730  143.1370 C   0  0  0  0  0  1  0  0  0  0  0  0
  197.2870  174.9160  144.0550 O   0  0  0  0  0  0  0  0  0  0  0  0
  2  9  1  0  0  0  0
  3 11  1  0  0  0  0
  4  6  1  0  0  0  0
  5  9  1  0  0  0  0
  5 13  1  1  0  0  0
  6  1  1  0  0  0  0
  7  2  2  0  0  0  0
  7  4  1  0  0  0  0
  8 10  2  0  0  0  0
  8  2  1  0  0  0  0
  9  1  2  0  0  0  0
 10  5  1  0  0  0  0
 11  4  2  0  0  0  0
 11 27  1  0  0  0  0
 12  3  2  0  0  0  0
 12  7  1  0  0  0  0
 15 13  1  1  0  0  0
 15 16  1  0  0  0  0
 15 17  1  0  0  0  0
 16 14  1  1  0  0  0
 16 17  1  0  0  0  0
 17 19  1  1  0  0  0
 19 20  1  1  0  0  0
 19 21  1  0  0  0  0
 20 23  1  0  0  0  0
 21 22  1  0  0  0  0
 22 18  1  0  0  0  0
 23 22  1  0  0  0  0
 24 21  1  0  0  0  0
 24 25  1  0  0  0  0
 26 24  1  0  0  0  0
 27 30  1  0  0  0  0
 29 31  1  0  0  0  0
 29 28  2  0  0  0  0
 30 29  1  0  0  0  0
 31 36  2  0  0  0  0
 33 34  1  0  0  0  0
 33 31  1  0  0  0  0
 34 37  2  0  0  0  0
 35 32  2  0  0  0  0
 36 35  1  0  0  0  0
 37 39  1  0  0  0  0
 37 35  1  0  0  0  0
 38 39  1  0  0  0  0
M  END
>  <MODEL>
4

>  <REMARK>
 VINA RESULT:      -7.0      2.970      6.223
  Name = 
  8 active torsions:
  status: ('A' for Active; 'I' for Inactive)
    1  A    between atoms: C_3  and  N_33
    2  A    between atoms: C_4  and  C_24
    3  A    between atoms: C_10  and  C_26
    4  A    between atoms: C_12  and  N_13
    5  A    between atoms: N_13  and  C_14
    6  A    between atoms: C_19  and  N_32
    7  A    between atoms: C_19  and  C_36
    8  A    between atoms: C_34  and  O_38
                            x       y       z     vdW  Elec       q    Type
                         _______ _______ _______ _____ _____    ______ ____

>  <TORSDO>
F 8

$$$$
=
 OpenBabel11072409123D

 39 44  0  0  1  0  0  0  0  0999 V2000
  190.6200  177.0960  144.6810 C   0  0  0  0  0  3  0  0  0  0  0  0
  191.1170  175.4530  146.4110 C   0  0  0  0  0  0  0  0  0  0  0  0
  194.6190  175.5110  146.1740 N   0  0  0  0  0  0  0  0  0  0  0  0
  192.8920  176.4950  145.1880 C   0  0  0  0  0  0  0  0  0  0  0  0
  188.8130  175.8770  146.0870 C   0  0  1  0  0  3  0  0  0  0  0  0
  191.9990  177.2570  144.4210 C   0  0  0  0  0  3  0  0  0  0  0  0
  192.4720  175.6180  146.1510 C   0  0  0  0  0  0  0  0  0  0  0  0
  190.4740  174.5560  147.3950 C   0  0  0  0  0  3  0  0  0  0  0  0
  190.2060  176.1900  145.6860 C   0  0  0  0  0  0  0  0  0  0  0  0
  188.9750  174.8840  147.2550 C   0  0  0  0  0  3  0  0  0  0  0  0
  194.2630  176.4090  145.2250 C   0  0  0  0  0  0  0  0  0  0  0  0
  193.5200  175.0240  146.7450 N   0  0  0  0  0  2  0  0  0  0  0  0
  188.1520  177.0810  146.5640 N   0  0  0  0  0  2  0  0  0  0  0  0
  186.7920  179.0260  147.6480 O   0  0  0  0  0  1  0  0  0  0  0  0
  186.8040  176.6880  146.9710 C   0  0  1  0  0  3  0  0  0  0  0  0
  186.0320  177.8480  147.6080 C   0  0  2  0  0  3  0  0  0  0  0  0
  185.7070  177.4070  146.1770 C   0  0  1  0  0  3  0  0  0  0  0  0
  184.0880  178.1250  142.4960 C   0  0  0  0  0  1  0  0  0  0  0  0
  186.2270  178.3530  145.0840 C   0  0  2  0  0  3  0  0  0  0  0  0
  185.5520  179.6330  145.1770 N   0  0  0  0  0  2  0  0  0  0  0  0
  185.9750  177.7770  143.7670 N   0  0  0  0  0  0  0  0  0  0  0  0
  185.3040  178.7470  142.9960 N   0  0  0  0  0  0  0  0  0  0  0  0
  184.8920  179.8120  143.8980 C   0  0  0  0  0  2  0  0  0  0  0  0
  187.2670  177.4490  143.1430 C   0  0  0  0  0  3  0  0  0  0  0  0
  187.6230  178.3530  141.9620 C   0  0  0  0  0  1  0  0  0  0  0  0
  187.3090  175.9920  142.7220 C   0  0  0  0  0  1  0  0  0  0  0  0
  195.2300  177.1630  144.3740 C   0  0  0  0  0  2  0  0  0  0  0  0
  194.1200  176.3770  141.8540 O   0  0  0  0  0  0  0  0  0  0  0  0
  195.2310  175.8740  142.1850 C   0  0  0  0  0  0  0  0  0  0  0  0
  195.8600  176.2720  143.4080 N   0  0  0  0  0  2  0  0  0  0  0  0
  195.8870  174.8940  141.3070 C   0  0  0  0  0  0  0  0  0  0  0  0
  195.8530  171.4160  140.7760 O   0  0  0  0  0  0  0  0  0  0  0  0
  196.8320  175.3870  140.2320 C   0  0  0  0  0  2  0  0  0  0  0  0
  197.5220  174.2860  139.4710 C   0  0  0  0  0  3  0  0  0  0  0  0
  196.2160  172.6160  140.6330 C   0  0  0  0  0  0  0  0  0  0  0  0
  195.6110  173.6300  141.4420 N   0  0  0  0  0  0  0  0  0  0  0  0
  197.2420  172.9940  139.6340 C   0  0  0  0  0  0  0  0  0  0  0  0
  197.4580  171.5430  137.6150 C   0  0  0  0  0  1  0  0  0  0  0  0
  197.9390  172.0650  138.8450 O   0  0  0  0  0  0  0  0  0  0  0  0
  1  9  1  0  0  0  0
  2  8  1  0  0  0  0
  3 12  1  0  0  0  0
  4 11  1  0  0  0  0
  4  7  2  0  0  0  0
  5 13  1  1  0  0  0
  5 10  1  0  0  0  0
  6  1  2  0  0  0  0
  6  4  1  0  0  0  0
  7  2  1  0  0  0  0
  7 12  1  0  0  0  0
  9  5  1  0  0  0  0
  9  2  2  0  0  0  0
 10  8  2  0  0  0  0
 11  3  2  0  0  0  0
 15 13  1  6  0  0  0
 15 16  1  0  0  0  0
 16 14  1  6  0  0  0
 17 19  1  6  0  0  0
 17 15  1  0  0  0  0
 17 16  1  0  0  0  0
 18 22  1  0  0  0  0
 19 20  1  6  0  0  0
 21 19  1  0  0  0  0
 22 21  1  0  0  0  0
 22 23  1  0  0  0  0
 23 20  1  0  0  0  0
 24 21  1  0  0  0  0
 25 24  1  0  0  0  0
 26 24  1  0  0  0  0
 27 11  1  0  0  0  0
 28 29  2  0  0  0  0
 29 30  1  0  0  0  0
 30 27  1  0  0  0  0
 31 36  2  0  0  0  0
 31 29  1  0  0  0  0
 33 31  1  0  0  0  0
 34 37  2  0  0  0  0
 34 33  1  0  0  0  0
 35 32  2  0  0  0  0
 35 36  1  0  0  0  0
 37 35  1  0  0  0  0
 38 39  1  0  0  0  0
 39 37  1  0  0  0  0
M  END
>  <MODEL>
5

>  <REMARK>
 VINA RESULT:      -7.0      3.569      4.755
  Name = 
  8 active torsions:
  status: ('A' for Active; 'I' for Inactive)
    1  A    between atoms: C_3  and  N_33
    2  A    between atoms: C_4  and  C_24
    3  A    between atoms: C_10  and  C_26
    4  A    between atoms: C_12  and  N_13
    5  A    between atoms: N_13  and  C_14
    6  A    between atoms: C_19  and  N_32
    7  A    between atoms: C_19  and  C_36
    8  A    between atoms: C_34  and  O_38
                            x       y       z     vdW  Elec       q    Type
                         _______ _______ _______ _____ _____    ______ ____

>  <TORSDO>
F 8

$$$$
=
 OpenBabel11072409123D

 39 44  0  0  1  0  0  0  0  0999 V2000
  191.7560  175.9980  143.4780 C   0  0  0  0  0  3  0  0  0  0  0  0
  192.8560  174.6980  145.2200 C   0  0  0  0  0  0  0  0  0  0  0  0
  190.9900  175.8430  147.9640 N   0  0  0  0  0  0  0  0  0  0  0  0
  191.0740  176.1960  145.7750 C   0  0  0  0  0  0  0  0  0  0  0  0
  193.7010  174.3400  143.0400 C   0  0  1  0  0  3  0  0  0  0  0  0
  190.9070  176.5910  144.4390 C   0  0  0  0  0  2  0  0  0  0  0  0
  192.0170  175.2830  146.1600 C   0  0  0  0  0  0  0  0  0  0  0  0
  193.9320  173.7070  145.4410 C   0  0  0  0  0  3  0  0  0  0  0  0
  192.7200  175.0490  143.8950 C   0  0  0  0  0  0  0  0  0  0  0  0
  194.4360  173.4000  144.0170 C   0  0  0  0  0  3  0  0  0  0  0  0
  190.4330  176.5360  146.9420 C   0  0  0  0  0  0  0  0  0  0  0  0
  191.9640  175.0730  147.4860 N   0  0  0  0  0  0  0  0  0  0  0  0
  193.0060  173.5490  142.0390 N   0  0  0  0  0  2  0  0  0  0  0  0
  193.6950  171.8490  140.1810 O   0  0  0  0  0  1  0  0  0  0  0  0
  193.2690  174.1780  140.7460 C   0  0  1  0  0  3  0  0  0  0  0  0
  193.6760  173.1580  139.6780 C   0  0  2  0  0  3  0  0  0  0  0  0
  192.2660  173.7610  139.6640 C   0  0  1  0  0  3  0  0  0  0  0  0
  188.2990  173.8190  138.6940 C   0  0  0  0  0  1  0  0  0  0  0  0
  191.1610  172.8120  140.1490 C   0  0  2  0  0  3  0  0  0  0  0  0
  190.9620  171.7500  139.1820 N   0  0  0  0  0  2  0  0  0  0  0  0
  189.9120  173.5470  140.3140 N   0  0  0  0  0  0  0  0  0  0  0  0
  188.9110  172.8580  139.5990 N   0  0  0  0  0  0  0  0  0  0  0  0
  189.5760  171.8640  138.7700 C   0  0  0  0  0  2  0  0  0  0  0  0
  189.5700  173.5780  141.7450 C   0  0  0  0  0  3  0  0  0  0  0  0
  189.0420  172.2460  142.2770 C   0  0  0  0  0  1  0  0  0  0  0  0
  188.5830  174.6910  142.0400 C   0  0  0  0  0  1  0  0  0  0  0  0
  189.3070  177.5040  147.0960 C   0  0  0  0  0  2  0  0  0  0  0  0
  186.4930  177.9350  146.7890 O   0  0  0  0  0  0  0  0  0  0  0  0
  187.1870  177.8350  145.7370 C   0  0  0  0  0  0  0  0  0  0  0  0
  188.6060  177.6750  145.8300 N   0  0  0  0  0  2  0  0  0  0  0  0
  186.5390  177.9020  144.4190 C   0  0  0  0  0  0  0  0  0  0  0  0
  187.4900  177.9220  141.0320 O   0  0  0  0  0  0  0  0  0  0  0  0
  185.0280  177.9110  144.3410 C   0  0  0  0  0  2  0  0  0  0  0  0
  184.4860  178.0900  142.9480 C   0  0  0  0  0  3  0  0  0  0  0  0
  186.7200  177.9840  142.0280 C   0  0  0  0  0  0  0  0  0  0  0  0
  187.2750  177.9090  143.3450 N   0  0  0  0  0  0  0  0  0  0  0  0
  185.2540  178.1150  141.8600 C   0  0  0  0  0  0  0  0  0  0  0  0
  183.2250  178.1450  140.4080 C   0  0  0  0  0  1  0  0  0  0  0  0
  184.6250  178.2640  140.6130 O   0  0  0  0  0  0  0  0  0  0  0  0
  1  9  2  0  0  0  0
  1  6  1  0  0  0  0
  2  8  1  0  0  0  0
  2  7  2  0  0  0  0
  4  7  1  0  0  0  0
  4 11  2  0  0  0  0
  5 13  1  6  0  0  0
  5  9  1  0  0  0  0
  5 10  1  0  0  0  0
  6  4  1  0  0  0  0
  7 12  1  0  0  0  0
  9  2  1  0  0  0  0
 10  8  2  0  0  0  0
 11 27  1  0  0  0  0
 11  3  1  0  0  0  0
 12  3  2  0  0  0  0
 15 13  1  1  0  0  0
 16 14  1  1  0  0  0
 16 15  1  0  0  0  0
 17 16  1  0  0  0  0
 17 19  1  1  0  0  0
 17 15  1  0  0  0  0
 18 22  1  0  0  0  0
 19 20  1  6  0  0  0
 19 21  1  0  0  0  0
 21 24  1  0  0  0  0
 22 21  1  0  0  0  0
 23 20  1  0  0  0  0
 23 22  1  0  0  0  0
 24 26  1  0  0  0  0
 24 25  1  0  0  0  0
 29 30  1  0  0  0  0
 29 28  2  0  0  0  0
 30 27  1  0  0  0  0
 31 29  1  0  0  0  0
 32 35  2  0  0  0  0
 33 31  1  0  0  0  0
 34 33  1  0  0  0  0
 35 36  1  0  0  0  0
 36 31  2  0  0  0  0
 37 35  1  0  0  0  0
 37 34  2  0  0  0  0
 38 39  1  0  0  0  0
 39 37  1  0  0  0  0
M  END
>  <MODEL>
6

>  <REMARK>
 VINA RESULT:      -6.9      2.292      7.037
  Name = 
  8 active torsions:
  status: ('A' for Active; 'I' for Inactive)
    1  A    between atoms: C_3  and  N_33
    2  A    between atoms: C_4  and  C_24
    3  A    between atoms: C_10  and  C_26
    4  A    between atoms: C_12  and  N_13
    5  A    between atoms: N_13  and  C_14
    6  A    between atoms: C_19  and  N_32
    7  A    between atoms: C_19  and  C_36
    8  A    between atoms: C_34  and  O_38
                            x       y       z     vdW  Elec       q    Type
                         _______ _______ _______ _____ _____    ______ ____

>  <TORSDO>
F 8

$$$$
=
 OpenBabel11072409123D

 39 44  0  0  1  0  0  0  0  0999 V2000
  189.7680  174.2030  145.2080 C   0  0  0  0  0  3  0  0  0  0  0  0
  191.6350  175.4000  146.2180 C   0  0  0  0  0  0  0  0  0  0  0  0
  194.2290  173.9880  144.3200 N   0  0  0  0  0  0  0  0  0  0  0  0
  192.0230  173.8080  144.4730 C   0  0  0  0  0  0  0  0  0  0  0  0
  189.5130  175.9500  147.1080 C   0  0  1  0  0  3  0  0  0  0  0  0
  190.6560  173.5120  144.3550 C   0  0  0  0  0  3  0  0  0  0  0  0
  192.5030  174.7180  145.3750 C   0  0  0  0  0  0  0  0  0  0  0  0
  191.9610  176.4040  147.2540 C   0  0  0  0  0  3  0  0  0  0  0  0
  190.2830  175.1460  146.1280 C   0  0  0  0  0  0  0  0  0  0  0  0
  190.5800  176.8350  147.7840 C   0  0  0  0  0  3  0  0  0  0  0  0
  193.1420  173.3600  143.8130 C   0  0  0  0  0  0  0  0  0  0  0  0
  193.8390  174.8240  145.2790 N   0  0  0  0  0  2  0  0  0  0  0  0
  188.5560  176.7930  146.4130 N   0  0  0  0  0  2  0  0  0  0  0  0
  187.2050  178.6410  147.6680 O   0  0  0  0  0  1  0  0  0  0  0  0
  187.2250  176.3550  146.8320 C   0  0  1  0  0  3  0  0  0  0  0  0
  186.4590  177.4580  147.5690 C   0  0  2  0  0  3  0  0  0  0  0  0
  186.0960  177.1110  146.1210 C   0  0  1  0  0  3  0  0  0  0  0  0
  184.4620  177.9250  142.4670 C   0  0  0  0  0  1  0  0  0  0  0  0
  186.5710  178.1370  145.0810 C   0  0  2  0  0  3  0  0  0  0  0  0
  185.8280  179.3730  145.2320 N   0  0  0  0  0  2  0  0  0  0  0  0
  186.3580  177.6140  143.7350 N   0  0  0  0  0  0  0  0  0  0  0  0
  185.6410  178.5850  143.0080 N   0  0  0  0  0  0  0  0  0  0  0  0
  185.1670  179.5800  143.9580 C   0  0  0  0  0  2  0  0  0  0  0  0
  187.6690  177.3880  143.1070 C   0  0  0  0  0  3  0  0  0  0  0  0
  187.9330  178.2870  141.8990 C   0  0  0  0  0  1  0  0  0  0  0  0
  187.8400  175.9300  142.7250 C   0  0  0  0  0  1  0  0  0  0  0  0
  193.1890  172.3480  142.7170 C   0  0  0  0  0  2  0  0  0  0  0  0
  192.0630  174.1100  140.7620 O   0  0  0  0  0  0  0  0  0  0  0  0
  193.2520  173.7230  140.5830 C   0  0  0  0  0  0  0  0  0  0  0  0
  193.8860  172.8870  141.5560 N   0  0  0  0  0  2  0  0  0  0  0  0
  193.9930  174.1470  139.3850 C   0  0  0  0  0  0  0  0  0  0  0  0
  193.4090  176.0390  136.4770 O   0  0  0  0  0  0  0  0  0  0  0  0
  195.4570  173.7870  139.2600 C   0  0  0  0  0  2  0  0  0  0  0  0
  196.0760  174.1810  137.9460 C   0  0  0  0  0  3  0  0  0  0  0  0
  194.0370  175.3000  137.2820 C   0  0  0  0  0  0  0  0  0  0  0  0
  193.3890  174.8590  138.4790 N   0  0  0  0  0  0  0  0  0  0  0  0
  195.4380  174.8940  137.0180 C   0  0  0  0  0  0  0  0  0  0  0  0
  196.8260  176.4420  135.6390 C   0  0  0  0  0  1  0  0  0  0  0  0
  196.1330  175.2190  135.8430 O   0  0  0  0  0  0  0  0  0  0  0  0
  1  9  1  0  0  0  0
  2  8  1  0  0  0  0
  3 12  1  0  0  0  0
  4  7  2  0  0  0  0
  5 13  1  6  0  0  0
  5 10  1  0  0  0  0
  6  4  1  0  0  0  0
  6  1  2  0  0  0  0
  7  2  1  0  0  0  0
  8 10  2  0  0  0  0
  9  2  2  0  0  0  0
  9  5  1  0  0  0  0
 11  3  2  0  0  0  0
 11  4  1  0  0  0  0
 12  7  1  0  0  0  0
 15 13  1  6  0  0  0
 15 16  1  0  0  0  0
 16 14  1  6  0  0  0
 17 19  1  6  0  0  0
 17 15  1  0  0  0  0
 17 16  1  0  0  0  0
 18 22  1  0  0  0  0
 19 20  1  6  0  0  0
 21 19  1  0  0  0  0
 22 21  1  0  0  0  0
 22 23  1  0  0  0  0
 23 20  1  0  0  0  0
 24 21  1  0  0  0  0
 25 24  1  0  0  0  0
 26 24  1  0  0  0  0
 27 11  1  0  0  0  0
 29 28  2  0  0  0  0
 29 30  1  0  0  0  0
 30 27  1  0  0  0  0
 31 29  1  0  0  0  0
 32 35  2  0  0  0  0
 33 31  1  0  0  0  0
 34 33  1  0  0  0  0
 35 36  1  0  0  0  0
 36 31  2  0  0  0  0
 37 35  1  0  0  0  0
 37 34  2  0  0  0  0
 38 39  1  0  0  0  0
 39 37  1  0  0  0  0
M  END
>  <MODEL>
7

>  <REMARK>
 VINA RESULT:      -6.8      2.421      3.135
  Name = 
  8 active torsions:
  status: ('A' for Active; 'I' for Inactive)
    1  A    between atoms: C_3  and  N_33
    2  A    between atoms: C_4  and  C_24
    3  A    between atoms: C_10  and  C_26
    4  A    between atoms: C_12  and  N_13
    5  A    between atoms: N_13  and  C_14
    6  A    between atoms: C_19  and  N_32
    7  A    between atoms: C_19  and  C_36
    8  A    between atoms: C_34  and  O_38
                            x       y       z     vdW  Elec       q    Type
                         _______ _______ _______ _____ _____    ______ ____

>  <TORSDO>
F 8

$$$$
=
 OpenBabel11072409123D

 39 44  0  0  1  0  0  0  0  0999 V2000
  193.2970  176.0170  142.9980 C   0  0  0  0  0  3  0  0  0  0  0  0
  192.2180  176.1020  145.1800 C   0  0  0  0  0  0  0  0  0  0  0  0
  188.9130  175.5510  144.1350 N   0  0  0  0  0  0  0  0  0  0  0  0
  190.9190  175.7360  143.2040 C   0  0  0  0  0  0  0  0  0  0  0  0
  194.5630  176.4100  145.2270 C   0  0  1  0  0  3  0  0  0  0  0  0
  192.0490  175.7980  142.3750 C   0  0  0  0  0  3  0  0  0  0  0  0
  190.9940  175.8850  144.5620 C   0  0  0  0  0  0  0  0  0  0  0  0
  192.4990  176.2950  146.6200 C   0  0  0  0  0  3  0  0  0  0  0  0
  193.3550  176.1610  144.4040 C   0  0  0  0  0  0  0  0  0  0  0  0
  194.0340  176.4110  146.6750 C   0  0  0  0  0  3  0  0  0  0  0  0
  189.5830  175.5220  142.9590 C   0  0  0  0  0  0  0  0  0  0  0  0
  189.7770  175.7730  145.1220 N   0  0  0  0  0  2  0  0  0  0  0  0
  195.5100  175.3210  145.0590 N   0  0  0  0  0  2  0  0  0  0  0  0
  197.9400  174.3720  144.9640 O   0  0  0  0  0  1  0  0  0  0  0  0
  196.1620  175.5240  143.7660 C   0  0  1  0  0  3  0  0  0  0  0  0
  197.5860  174.9610  143.7420 C   0  0  2  0  0  3  0  0  0  0  0  0
  196.4540  174.2100  143.0320 C   0  0  1  0  0  3  0  0  0  0  0  0
  194.1690  171.1670  141.5480 C   0  0  0  0  0  1  0  0  0  0  0  0
  195.9690  172.9490  143.7630 C   0  0  2  0  0  3  0  0  0  0  0  0
  196.8750  171.8480  143.5020 N   0  0  0  0  0  2  0  0  0  0  0  0
  194.6340  172.5880  143.2980 N   0  0  0  0  0  0  0  0  0  0  0  0
  194.6660  171.2320  142.9130 N   0  0  0  0  0  0  0  0  0  0  0  0
  196.0620  170.8250  142.8730 C   0  0  0  0  0  2  0  0  0  0  0  0
  193.6850  172.7700  144.4080 C   0  0  0  0  0  3  0  0  0  0  0  0
  194.1860  172.2080  145.7390 C   0  0  0  0  0  1  0  0  0  0  0  0
  192.3320  172.1780  144.0630 C   0  0  0  0  0  1  0  0  0  0  0  0
  188.9430  175.2960  141.6300 C   0  0  0  0  0  2  0  0  0  0  0  0
  188.2390  178.0610  141.3930 O   0  0  0  0  0  0  0  0  0  0  0  0
  187.2990  177.2310  141.5510 C   0  0  0  0  0  0  0  0  0  0  0  0
  187.5870  175.8310  141.6200 N   0  0  0  0  0  2  0  0  0  0  0  0
  185.9090  177.7010  141.6460 C   0  0  0  0  0  0  0  0  0  0  0  0
  183.6520  178.7150  144.1470 O   0  0  0  0  0  0  0  0  0  0  0  0
  185.1160  177.9130  140.3750 C   0  0  0  0  0  2  0  0  0  0  0  0
  183.6770  178.2910  140.6050 C   0  0  0  0  0  3  0  0  0  0  0  0
  184.0560  178.4160  142.9900 C   0  0  0  0  0  0  0  0  0  0  0  0
  185.4020  177.9660  142.8150 N   0  0  0  0  0  0  0  0  0  0  0  0
  183.1680  178.5400  141.8110 C   0  0  0  0  0  0  0  0  0  0  0  0
  180.7500  178.1510  141.3320 C   0  0  0  0  0  1  0  0  0  0  0  0
  181.8150  178.9060  141.8910 O   0  0  0  0  0  0  0  0  0  0  0  0
  1  9  1  0  0  0  0
  2  8  1  0  0  0  0
  3 12  1  0  0  0  0
  4  7  2  0  0  0  0
  5 13  1  1  0  0  0
  5 10  1  0  0  0  0
  6  1  2  0  0  0  0
  6  4  1  0  0  0  0
  7 12  1  0  0  0  0
  7  2  1  0  0  0  0
  8 10  2  0  0  0  0
  9  2  2  0  0  0  0
  9  5  1  0  0  0  0
 11  4  1  0  0  0  0
 11  3  2  0  0  0  0
 15 13  1  1  0  0  0
 16 15  1  0  0  0  0
 16 14  1  1  0  0  0
 17 16  1  0  0  0  0
 17 19  1  1  0  0  0
 17 15  1  0  0  0  0
 18 22  1  0  0  0  0
 19 20  1  6  0  0  0
 21 19  1  0  0  0  0
 21 24  1  0  0  0  0
 22 21  1  0  0  0  0
 23 22  1  0  0  0  0
 23 20  1  0  0  0  0
 24 25  1  0  0  0  0
 26 24  1  0  0  0  0
 27 11  1  0  0  0  0
 28 29  2  0  0  0  0
 29 30  1  0  0  0  0
 29 31  1  0  0  0  0
 30 27  1  0  0  0  0
 31 36  2  0  0  0  0
 33 34  1  0  0  0  0
 33 31  1  0  0  0  0
 34 37  2  0  0  0  0
 35 32  2  0  0  0  0
 36 35  1  0  0  0  0
 37 39  1  0  0  0  0
 37 35  1  0  0  0  0
 38 39  1  0  0  0  0
M  END
>  <MODEL>
8

>  <REMARK>
 VINA RESULT:      -6.7      3.456      8.084
  Name = 
  8 active torsions:
  status: ('A' for Active; 'I' for Inactive)
    1  A    between atoms: C_3  and  N_33
    2  A    between atoms: C_4  and  C_24
    3  A    between atoms: C_10  and  C_26
    4  A    between atoms: C_12  and  N_13
    5  A    between atoms: N_13  and  C_14
    6  A    between atoms: C_19  and  N_32
    7  A    between atoms: C_19  and  C_36
    8  A    between atoms: C_34  and  O_38
                            x       y       z     vdW  Elec       q    Type
                         _______ _______ _______ _____ _____    ______ ____

>  <TORSDO>
F 8

$$$$
=
 OpenBabel11072409123D

 39 44  0  0  1  0  0  0  0  0999 V2000
  191.9760  175.1190  143.1000 C   0  0  0  0  0  3  0  0  0  0  0  0
  194.1980  176.0440  143.4770 C   0  0  0  0  0  0  0  0  0  0  0  0
  193.8650  176.7920  146.8910 N   0  0  0  0  0  0  0  0  0  0  0  0
  192.6170  175.9290  145.2700 C   0  0  0  0  0  0  0  0  0  0  0  0
  193.7950  175.3170  141.2620 C   0  0  1  0  0  3  0  0  0  0  0  0
  191.6360  175.3530  144.4510 C   0  0  0  0  0  2  0  0  0  0  0  0
  193.8580  176.2690  144.8050 C   0  0  0  0  0  0  0  0  0  0  0  0
  195.4730  176.3480  142.7910 C   0  0  0  0  0  3  0  0  0  0  0  0
  193.2670  175.4700  142.6390 C   0  0  0  0  0  0  0  0  0  0  0  0
  195.2550  175.8010  141.3670 C   0  0  0  0  0  3  0  0  0  0  0  0
  192.6480  176.2710  146.6010 C   0  0  0  0  0  0  0  0  0  0  0  0
  194.6100  176.7910  145.7880 N   0  0  0  0  0  0  0  0  0  0  0  0
  193.7770  173.9160  140.8780 N   0  0  0  0  0  2  0  0  0  0  0  0
  195.2340  171.9160  140.0470 O   0  0  0  0  0  1  0  0  0  0  0  0
  193.9310  173.8750  139.4240 C   0  0  1  0  0  3  0  0  0  0  0  0
  194.7940  172.6950  138.9670 C   0  0  2  0  0  3  0  0  0  0  0  0
  193.2730  172.6450  138.7880 C   0  0  1  0  0  3  0  0  0  0  0  0
  189.6920  170.7450  138.2870 C   0  0  0  0  0  1  0  0  0  0  0  0
  192.5440  171.7270  139.7800 C   0  0  2  0  0  3  0  0  0  0  0  0
  192.8540  170.3410  139.4890 N   0  0  0  0  0  2  0  0  0  0  0  0
  191.1020  171.9250  139.6720 N   0  0  0  0  0  0  0  0  0  0  0  0
  190.5080  170.6600  139.4880 N   0  0  0  0  0  0  0  0  0  0  0  0
  191.5770  169.7140  139.2040 C   0  0  0  0  0  2  0  0  0  0  0  0
  190.6160  172.5270  140.9240 C   0  0  0  0  0  3  0  0  0  0  0  0
  190.0670  171.5060  141.9220 C   0  0  0  0  0  1  0  0  0  0  0  0
  189.5780  173.5960  140.6410 C   0  0  0  0  0  1  0  0  0  0  0  0
  191.5440  176.1110  147.5920 C   0  0  0  0  0  2  0  0  0  0  0  0
  188.9380  175.0420  147.0800 O   0  0  0  0  0  0  0  0  0  0  0  0
  189.1090  176.2790  146.8880 C   0  0  0  0  0  0  0  0  0  0  0  0
  190.3750  176.8790  147.1810 N   0  0  0  0  0  2  0  0  0  0  0  0
  188.0040  177.1060  146.3820 C   0  0  0  0  0  0  0  0  0  0  0  0
  185.1110  178.6660  147.6380 O   0  0  0  0  0  0  0  0  0  0  0  0
  188.0130  177.5380  144.9320 C   0  0  0  0  0  2  0  0  0  0  0  0
  186.7790  178.2880  144.5070 C   0  0  0  0  0  3  0  0  0  0  0  0
  185.9510  178.2820  146.7790 C   0  0  0  0  0  0  0  0  0  0  0  0
  187.0640  177.4860  147.1980 N   0  0  0  0  0  0  0  0  0  0  0  0
  185.8150  178.6530  145.3520 C   0  0  0  0  0  0  0  0  0  0  0  0
  183.9730  178.9720  143.6980 C   0  0  0  0  0  1  0  0  0  0  0  0
  184.7250  179.3710  144.8350 O   0  0  0  0  0  0  0  0  0  0  0  0
  1  6  1  0  0  0  0
  2  7  2  0  0  0  0
  4 11  2  0  0  0  0
  5 13  1  1  0  0  0
  5 10  1  0  0  0  0
  5  9  1  0  0  0  0
  6  4  1  0  0  0  0
  7  4  1  0  0  0  0
  7 12  1  0  0  0  0
  8  2  1  0  0  0  0
  9  1  2  0  0  0  0
  9  2  1  0  0  0  0
 10  8  2  0  0  0  0
 11  3  1  0  0  0  0
 11 27  1  0  0  0  0
 12  3  2  0  0  0  0
 15 13  1  1  0  0  0
 16 15  1  0  0  0  0
 16 14  1  1  0  0  0
 17 16  1  0  0  0  0
 17 15  1  0  0  0  0
 17 19  1  1  0  0  0
 18 22  1  0  0  0  0
 19 20  1  6  0  0  0
 21 19  1  0  0  0  0
 21 24  1  0  0  0  0
 22 21  1  0  0  0  0
 23 22  1  0  0  0  0
 23 20  1  0  0  0  0
 24 25  1  0  0  0  0
 26 24  1  0  0  0  0
 29 28  2  0  0  0  0
 29 30  1  0  0  0  0
 30 27  1  0  0  0  0
 31 29  1  0  0  0  0
 31 36  2  0  0  0  0
 33 31  1  0  0  0  0
 34 33  1  0  0  0  0
 34 37  2  0  0  0  0
 35 36  1  0  0  0  0
 35 32  2  0  0  0  0
 37 35  1  0  0  0  0
 38 39  1  0  0  0  0
 39 37  1  0  0  0  0
M  END
>  <MODEL>
9

>  <REMARK>
 VINA RESULT:      -6.7      2.982      8.420
  Name = 
  8 active torsions:
  status: ('A' for Active; 'I' for Inactive)
    1  A    between atoms: C_3  and  N_33
    2  A    between atoms: C_4  and  C_24
    3  A    between atoms: C_10  and  C_26
    4  A    between atoms: C_12  and  N_13
    5  A    between atoms: N_13  and  C_14
    6  A    between atoms: C_19  and  N_32
    7  A    between atoms: C_19  and  C_36
    8  A    between atoms: C_34  and  O_38
                            x       y       z     vdW  Elec       q    Type
                         _______ _______ _______ _____ _____    ______ ____

>  <TORSDO>
F 8

$$$$
