=
 OpenBabel11072408253D

 34 38  0  0  1  0  0  0  0  0999 V2000
  190.1070  172.8970  142.7400 C   0  0  0  0  0  0  0  0  0  0  0  0
  191.6550  175.0350  145.0420 C   0  0  2  0  0  3  0  0  0  0  0  0
  190.8620  175.9250  144.1930 N   0  0  0  0  0  2  0  0  0  0  0  0
  190.2610  171.1200  141.1810 C   0  0  0  0  0  3  0  0  0  0  0  0
  191.3550  175.8420  142.8230 C   0  0  0  0  0  2  0  0  0  0  0  0
  190.1130  171.5680  142.4540 N   0  0  0  0  0  0  0  0  0  0  0  0
  190.2750  173.8320  141.6960 C   0  0  0  0  0  0  0  0  0  0  0  0
  190.2610  175.3300  141.8780 C   0  0  1  0  0  3  0  0  0  0  0  0
  191.3720  173.5520  144.7420 C   0  0  0  0  0  2  0  0  0  0  0  0
  189.9800  173.3080  144.1710 C   0  0  0  0  0  2  0  0  0  0  0  0
  190.4210  173.3400  140.3970 C   0  0  0  0  0  3  0  0  0  0  0  0
  190.4120  172.0040  140.1630 N   0  0  0  0  0  0  0  0  0  0  0  0
  188.9310  175.8600  142.2000 N   0  0  0  0  0  0  0  0  0  0  0  0
  186.6740  175.9100  142.5390 C   0  0  0  0  0  3  0  0  0  0  0  0
  187.7380  175.1150  142.4250 C   0  0  0  0  0  3  0  0  0  0  0  0
  186.3370  177.9300  141.1740 C   0  0  0  0  0  1  0  0  0  0  0  0
  189.3100  178.1620  141.8270 O   0  0  0  0  0  0  0  0  0  0  0  0
  188.5280  177.2160  142.1180 C   0  0  0  0  0  0  0  0  0  0  0  0
  187.0640  177.3610  142.3880 C   0  0  2  0  0  0  0  0  0  0  0  0
  185.8630  178.7790  146.2830 C   0  0  2  0  0  3  0  0  0  0  0  0
  184.5770  178.4200  147.0020 C   0  0  0  0  0  2  0  0  0  0  0  0
  187.5100  177.5900  144.7770 C   0  0  0  0  0  2  0  0  0  0  0  0
  185.0520  179.1570  145.0420 C   0  0  2  0  0  3  0  0  0  0  0  0
  183.7740  178.7740  145.7610 C   0  0  0  0  0  2  0  0  0  0  0  0
  185.3140  178.2080  143.8740 C   0  0  0  0  0  2  0  0  0  0  0  0
  186.6990  177.5130  146.0780 C   0  0  0  0  0  2  0  0  0  0  0  0
  186.7630  178.1360  143.6170 N   0  0  2  0  0  0  0  0  0  0  0  0
  191.3980  175.3540  146.5220 C   0  0  1  0  0  3  0  0  0  0  0  0
  192.2310  176.8950  148.3260 O   0  0  0  0  0  1  0  0  0  0  0  0
  192.3810  176.3600  147.0520 C   0  0  0  0  0  0  0  0  0  0  0  0
  193.3570  176.7130  146.3380 O   0  0  0  0  0  0  0  0  0  0  0  0
  189.9470  175.7960  146.7620 C   0  0  2  0  0  3  0  0  0  0  0  0
  189.8920  177.0230  147.4260 O   0  0  0  0  0  1  0  0  0  0  0  0
  189.1710  174.7500  147.5430 C   0  0  0  0  0  1  0  0  0  0  0  0
  1 10  1  0  0  0  0
  2 28  1  1  0  0  0
  3  2  1  0  0  0  0
  4  6  2  0  0  0  0
  5  3  1  0  0  0  0
  6  1  1  0  0  0  0
  7  8  1  0  0  0  0
  7  1  2  0  0  0  0
  8 13  1  1  0  0  0
  8  5  1  0  0  0  0
  9  2  1  0  0  0  0
 10  9  1  0  0  0  0
 11  7  1  0  0  0  0
 12 11  2  0  0  0  0
 12  4  1  0  0  0  0
 13 15  1  0  0  0  0
 15 14  2  0  0  0  0
 17 18  2  0  0  0  0
 18 13  1  0  0  0  0
 18 19  1  0  0  0  0
 19 16  1  6  0  0  0
 19 14  1  0  0  0  0
 19 27  1  0  0  0  0
 20 26  1  6  0  0  0
 20 21  1  0  0  0  0
 22 26  1  0  0  0  0
 23 25  1  6  0  0  0
 23 24  1  0  0  0  0
 23 20  1  0  0  0  0
 24 21  1  0  0  0  0
 27 25  1  1  0  0  0
 27 22  1  0  0  0  0
 28 32  1  0  0  0  0
 28 30  1  6  0  0  0
 30 29  1  0  0  0  0
 31 30  2  0  0  0  0
 32 33  1  0  0  0  0
 32 34  1  1  0  0  0
M  END
>  <MODEL>
1

>  <REMARK>
 VINA RESULT:      -8.4      0.000      0.000
  Name = 
  5 active torsions:
  status: ('A' for Active; 'I' for Inactive)
    1  A    between atoms: N_2  and  C_22
    2  A    between atoms: C_5  and  C_15
    3  A    between atoms: C_7  and  C_15
    4  A    between atoms: C_13  and  C_15
    5  A    between atoms: C_33  and  N_34
                            x       y       z     vdW  Elec       q    Type
                         _______ _______ _______ _____ _____    ______ ____

>  <TORSDO>
F 5

$$$$
=
 OpenBabel11072408253D

 34 38  0  0  1  0  0  0  0  0999 V2000
  193.5550  175.4880  143.4290 C   0  0  0  0  0  0  0  0  0  0  0  0
  191.1430  173.2680  142.1960 C   0  0  2  0  0  3  0  0  0  0  0  0
  190.5590  173.7930  143.4310 N   0  0  0  0  0  2  0  0  0  0  0  0
  195.8100  175.9460  143.9940 C   0  0  0  0  0  3  0  0  0  0  0  0
  191.4010  173.4080  144.5580 C   0  0  0  0  0  2  0  0  0  0  0  0
  194.8050  175.8950  143.0820 N   0  0  0  0  0  0  0  0  0  0  0  0
  193.2980  175.0920  144.7600 C   0  0  0  0  0  0  0  0  0  0  0  0
  191.9520  174.6470  145.2760 C   0  0  1  0  0  3  0  0  0  0  0  0
  192.4460  173.9970  141.8220 C   0  0  0  0  0  2  0  0  0  0  0  0
  192.5150  175.4210  142.3590 C   0  0  0  0  0  2  0  0  0  0  0  0
  194.3510  175.1600  145.6750 C   0  0  0  0  0  3  0  0  0  0  0  0
  195.5790  175.5800  145.2810 N   0  0  0  0  0  0  0  0  0  0  0  0
  190.9770  175.7400  145.3650 N   0  0  0  0  0  0  0  0  0  0  0  0
  190.0890  177.8340  145.1690 C   0  0  0  0  0  3  0  0  0  0  0  0
  191.0680  177.0270  144.7610 C   0  0  0  0  0  3  0  0  0  0  0  0
  189.2460  177.8830  147.4810 C   0  0  0  0  0  1  0  0  0  0  0  0
  189.5510  174.8780  147.0380 O   0  0  0  0  0  0  0  0  0  0  0  0
  189.8750  175.8090  146.2530 C   0  0  0  0  0  0  0  0  0  0  0  0
  189.1850  177.1330  146.1540 C   0  0  2  0  0  0  0  0  0  0  0  0
  185.1340  177.7950  144.8210 C   0  0  2  0  0  3  0  0  0  0  0  0
  184.1110  178.6880  145.4970 C   0  0  0  0  0  2  0  0  0  0  0  0
  187.6300  177.8540  144.4170 C   0  0  0  0  0  2  0  0  0  0  0  0
  185.4010  177.1060  146.1610 C   0  0  2  0  0  3  0  0  0  0  0  0
  184.3940  178.0180  146.8310 C   0  0  0  0  0  2  0  0  0  0  0  0
  186.8090  177.3890  146.6810 C   0  0  0  0  0  2  0  0  0  0  0  0
  186.3160  178.6460  144.3500 C   0  0  0  0  0  2  0  0  0  0  0  0
  187.7950  177.0370  145.6440 N   0  0  2  0  0  0  0  0  0  0  0  0
  190.1210  173.3500  141.0530 C   0  0  1  0  0  3  0  0  0  0  0  0
  189.4720  171.9900  139.0410 O   0  0  0  0  0  0  0  0  0  0  0  0
  189.9910  172.0390  140.3300 C   0  0  0  0  0  0  0  0  0  0  0  0
  190.3660  170.9770  140.8920 O   0  0  0  0  0  1  0  0  0  0  0  0
  188.7600  173.8650  141.5480 C   0  0  2  0  0  3  0  0  0  0  0  0
  187.8090  172.8430  141.5720 O   0  0  0  0  0  1  0  0  0  0  0  0
  188.2610  175.0180  140.6960 C   0  0  0  0  0  1  0  0  0  0  0  0
  1  7  1  0  0  0  0
  2 28  1  6  0  0  0
  2  3  1  0  0  0  0
  3  5  1  0  0  0  0
  4 12  2  0  0  0  0
  6  1  2  0  0  0  0
  6  4  1  0  0  0  0
  7  8  1  0  0  0  0
  7 11  2  0  0  0  0
  8  5  1  6  0  0  0
  8 13  1  0  0  0  0
  9  2  1  0  0  0  0
  9 10  1  0  0  0  0
 10  1  1  0  0  0  0
 12 11  1  0  0  0  0
 13 18  1  0  0  0  0
 14 19  1  0  0  0  0
 15 14  2  0  0  0  0
 15 13  1  0  0  0  0
 18 17  2  0  0  0  0
 19 18  1  0  0  0  0
 19 16  1  1  0  0  0
 20 26  1  1  0  0  0
 20 21  1  0  0  0  0
 20 23  1  0  0  0  0
 21 24  1  0  0  0  0
 23 25  1  1  0  0  0
 23 24  1  0  0  0  0
 26 22  1  0  0  0  0
 27 22  1  6  0  0  0
 27 19  1  0  0  0  0
 27 25  1  0  0  0  0
 28 30  1  1  0  0  0
 28 32  1  0  0  0  0
 29 30  2  0  0  0  0
 30 31  1  0  0  0  0
 32 34  1  6  0  0  0
 32 33  1  0  0  0  0
M  END
>  <MODEL>
2

>  <REMARK>
 VINA RESULT:      -8.4      2.784      5.336
  Name = 
  5 active torsions:
  status: ('A' for Active; 'I' for Inactive)
    1  A    between atoms: N_2  and  C_22
    2  A    between atoms: C_5  and  C_15
    3  A    between atoms: C_7  and  C_15
    4  A    between atoms: C_13  and  C_15
    5  A    between atoms: C_33  and  N_34
                            x       y       z     vdW  Elec       q    Type
                         _______ _______ _______ _____ _____    ______ ____

>  <TORSDO>
F 5

$$$$
=
 OpenBabel11072408253D

 34 38  0  0  1  0  0  0  0  0999 V2000
  189.8360  175.7570  146.2890 C   0  0  0  0  0  0  0  0  0  0  0  0
  187.4750  178.0580  145.1090 C   0  0  2  0  0  3  0  0  0  0  0  0
  188.1490  177.5760  143.9040 N   0  0  0  0  0  2  0  0  0  0  0  0
  191.5810  175.2130  147.7970 C   0  0  0  0  0  3  0  0  0  0  0  0
  189.5590  177.9410  143.9670 C   0  0  0  0  0  2  0  0  0  0  0  0
  190.2600  175.2920  147.4950 N   0  0  0  0  0  0  0  0  0  0  0  0
  190.7880  176.1820  145.3370 C   0  0  0  0  0  0  0  0  0  0  0  0
  190.4490  176.6910  143.9570 C   0  0  1  0  0  3  0  0  0  0  0  0
  187.9020  177.2690  146.3600 C   0  0  0  0  0  2  0  0  0  0  0  0
  188.3650  175.8510  146.0490 C   0  0  0  0  0  2  0  0  0  0  0  0
  192.1390  176.0840  145.6760 C   0  0  0  0  0  3  0  0  0  0  0  0
  192.5110  175.6060  146.8900 N   0  0  0  0  0  0  0  0  0  0  0  0
  189.9520  175.6410  143.0600 N   0  0  0  0  0  0  0  0  0  0  0  0
  188.5370  174.0950  142.1560 C   0  0  0  0  0  3  0  0  0  0  0  0
  188.6160  175.1580  142.9560 C   0  0  0  0  0  3  0  0  0  0  0  0
  190.2400  172.3190  142.0870 C   0  0  0  0  0  1  0  0  0  0  0  0
  192.0030  174.8080  142.2360 O   0  0  0  0  0  0  0  0  0  0  0  0
  190.7450  174.7500  142.2960 C   0  0  0  0  0  0  0  0  0  0  0  0
  189.8960  173.7260  141.6090 C   0  0  2  0  0  0  0  0  0  0  0  0
  189.4780  173.2190  137.3440 C   0  0  2  0  0  3  0  0  0  0  0  0
  189.5950  171.9090  136.5890 C   0  0  0  0  0  2  0  0  0  0  0  0
  188.5610  173.9650  139.5800 C   0  0  0  0  0  2  0  0  0  0  0  0
  190.8170  172.9350  138.0260 C   0  0  2  0  0  3  0  0  0  0  0  0
  190.9150  171.6170  137.2840 C   0  0  0  0  0  2  0  0  0  0  0  0
  190.6580  172.6950  139.5260 C   0  0  0  0  0  2  0  0  0  0  0  0
  188.2950  173.1400  138.3120 C   0  0  0  0  0  2  0  0  0  0  0  0
  189.9320  173.8250  140.1290 N   0  0  2  0  0  0  0  0  0  0  0  0
  185.9520  178.0020  144.9190 C   0  0  1  0  0  3  0  0  0  0  0  0
  185.6550  179.4370  146.9610 O   0  0  0  0  0  1  0  0  0  0  0  0
  185.2210  178.3740  146.1790 C   0  0  0  0  0  0  0  0  0  0  0  0
  184.2000  177.7230  146.5220 O   0  0  0  0  0  0  0  0  0  0  0  0
  185.4990  178.8560  143.7260 C   0  0  2  0  0  3  0  0  0  0  0  0
  185.4340  180.2090  144.0640 O   0  0  0  0  0  1  0  0  0  0  0  0
  184.1570  178.3920  143.1890 C   0  0  0  0  0  1  0  0  0  0  0  0
  1  6  1  0  0  0  0
  2 28  1  6  0  0  0
  2  9  1  0  0  0  0
  3  5  1  0  0  0  0
  3  2  1  0  0  0  0
  6  4  2  0  0  0  0
  7 11  1  0  0  0  0
  7  1  2  0  0  0  0
  8 13  1  6  0  0  0
  8  5  1  0  0  0  0
  8  7  1  0  0  0  0
 10  1  1  0  0  0  0
 10  9  1  0  0  0  0
 11 12  2  0  0  0  0
 12  4  1  0  0  0  0
 14 15  2  0  0  0  0
 15 13  1  0  0  0  0
 17 18  2  0  0  0  0
 18 13  1  0  0  0  0
 19 16  1  1  0  0  0
 19 14  1  0  0  0  0
 19 18  1  0  0  0  0
 20 21  1  6  0  0  0
 20 23  1  0  0  0  0
 20 26  1  0  0  0  0
 21 24  1  0  0  0  0
 22 27  1  0  0  0  0
 23 24  1  6  0  0  0
 23 25  1  0  0  0  0
 26 22  1  0  0  0  0
 27 25  1  6  0  0  0
 27 19  1  0  0  0  0
 28 30  1  1  0  0  0
 30 31  2  0  0  0  0
 30 29  1  0  0  0  0
 32 34  1  1  0  0  0
 32 33  1  0  0  0  0
 32 28  1  0  0  0  0
M  END
>  <MODEL>
3

>  <REMARK>
 VINA RESULT:      -7.4      2.535      6.967
  Name = 
  5 active torsions:
  status: ('A' for Active; 'I' for Inactive)
    1  A    between atoms: N_2  and  C_22
    2  A    between atoms: C_5  and  C_15
    3  A    between atoms: C_7  and  C_15
    4  A    between atoms: C_13  and  C_15
    5  A    between atoms: C_33  and  N_34
                            x       y       z     vdW  Elec       q    Type
                         _______ _______ _______ _____ _____    ______ ____

>  <TORSDO>
F 5

$$$$
=
 OpenBabel11072408253D

 34 38  0  0  1  0  0  0  0  0999 V2000
  190.2140  173.8900  142.6890 C   0  0  0  0  0  0  0  0  0  0  0  0
  193.3770  175.1970  143.4300 C   0  0  2  0  0  3  0  0  0  0  0  0
  192.4480  176.2740  143.7710 N   0  0  0  0  0  2  0  0  0  0  0  0
  188.7700  172.7690  141.1820 C   0  0  0  0  0  3  0  0  0  0  0  0
  191.7450  176.6970  142.5650 C   0  0  0  0  0  2  0  0  0  0  0  0
  189.7070  172.7430  142.1630 N   0  0  0  0  0  0  0  0  0  0  0  0
  189.7700  175.1360  142.1930 C   0  0  0  0  0  0  0  0  0  0  0  0
  190.2340  176.4760  142.7080 C   0  0  1  0  0  3  0  0  0  0  0  0
  192.6400  173.8930  143.0760 C   0  0  0  0  0  2  0  0  0  0  0  0
  191.2720  173.7770  143.7370 C   0  0  0  0  0  2  0  0  0  0  0  0
  188.8030  175.1290  141.1860 C   0  0  0  0  0  3  0  0  0  0  0  0
  188.3230  173.9570  140.7000 N   0  0  0  0  0  0  0  0  0  0  0  0
  189.7340  176.7820  144.0530 N   0  0  0  0  0  0  0  0  0  0  0  0
  189.7480  177.4160  146.2460 C   0  0  0  0  0  3  0  0  0  0  0  0
  190.4370  177.4360  145.1050 C   0  0  0  0  0  3  0  0  0  0  0  0
  188.4200  175.4840  146.9940 C   0  0  0  0  0  1  0  0  0  0  0  0
  187.7150  175.5560  144.0250 O   0  0  0  0  0  0  0  0  0  0  0  0
  188.5450  176.2810  144.6380 C   0  0  0  0  0  0  0  0  0  0  0  0
  188.4310  176.6980  146.0710 C   0  0  2  0  0  0  0  0  0  0  0  0
  184.6210  178.7150  146.2630 C   0  0  2  0  0  3  0  0  0  0  0  0
  183.6930  178.9760  145.0920 C   0  0  0  0  0  2  0  0  0  0  0  0
  186.1740  176.8550  146.9870 C   0  0  0  0  0  2  0  0  0  0  0  0
  185.7770  179.3270  145.4700 C   0  0  2  0  0  3  0  0  0  0  0  0
  184.8480  179.5630  144.2970 C   0  0  0  0  0  2  0  0  0  0  0  0
  186.8400  178.2900  145.1120 C   0  0  0  0  0  2  0  0  0  0  0  0
  184.7750  177.2050  146.4600 C   0  0  0  0  0  2  0  0  0  0  0  0
  187.2810  177.5970  146.3350 N   0  0  2  0  0  0  0  0  0  0  0  0
  194.3670  174.9720  144.5830 C   0  0  1  0  0  3  0  0  0  0  0  0
  196.8600  174.6450  144.5660 O   0  0  0  0  0  1  0  0  0  0  0  0
  195.7570  175.4130  144.2150 C   0  0  0  0  0  0  0  0  0  0  0  0
  195.9210  176.4830  143.5730 O   0  0  0  0  0  0  0  0  0  0  0  0
  193.8840  175.6350  145.8810 C   0  0  2  0  0  3  0  0  0  0  0  0
  194.9580  176.0780  146.6560 O   0  0  0  0  0  1  0  0  0  0  0  0
  193.0130  174.6950  146.6940 C   0  0  0  0  0  1  0  0  0  0  0  0
  1 10  1  0  0  0  0
  2  3  1  0  0  0  0
  2 28  1  1  0  0  0
  4  6  1  0  0  0  0
  5  3  1  0  0  0  0
  6  1  2  0  0  0  0
  7  1  1  0  0  0  0
  7  8  1  0  0  0  0
  8  5  1  1  0  0  0
  8 13  1  0  0  0  0
  9  2  1  0  0  0  0
  9 10  1  0  0  0  0
 11  7  2  0  0  0  0
 12  4  2  0  0  0  0
 12 11  1  0  0  0  0
 13 18  1  0  0  0  0
 13 15  1  0  0  0  0
 15 14  2  0  0  0  0
 17 18  2  0  0  0  0
 18 19  1  0  0  0  0
 19 14  1  0  0  0  0
 19 27  1  0  0  0  0
 19 16  1  1  0  0  0
 20 21  1  6  0  0  0
 20 26  1  0  0  0  0
 23 24  1  6  0  0  0
 23 20  1  0  0  0  0
 24 21  1  0  0  0  0
 25 23  1  0  0  0  0
 26 22  1  0  0  0  0
 27 25  1  6  0  0  0
 27 22  1  0  0  0  0
 28 30  1  6  0  0  0
 28 32  1  0  0  0  0
 30 29  1  0  0  0  0
 31 30  2  0  0  0  0
 32 33  1  0  0  0  0
 32 34  1  1  0  0  0
M  END
>  <MODEL>
4

>  <REMARK>
 VINA RESULT:      -7.2      2.088      3.232
  Name = 
  5 active torsions:
  status: ('A' for Active; 'I' for Inactive)
    1  A    between atoms: N_2  and  C_22
    2  A    between atoms: C_5  and  C_15
    3  A    between atoms: C_7  and  C_15
    4  A    between atoms: C_13  and  C_15
    5  A    between atoms: C_33  and  N_34
                            x       y       z     vdW  Elec       q    Type
                         _______ _______ _______ _____ _____    ______ ____

>  <TORSDO>
F 5

$$$$
=
 OpenBabel11072408253D

 34 38  0  0  1  0  0  0  0  0999 V2000
  185.8950  177.2670  143.3090 C   0  0  0  0  0  0  0  0  0  0  0  0
  188.1420  175.6750  141.1460 C   0  0  2  0  0  3  0  0  0  0  0  0
  188.9780  176.1760  142.2370 N   0  0  0  0  0  2  0  0  0  0  0  0
  184.1030  178.7830  143.6390 C   0  0  0  0  0  3  0  0  0  0  0  0
  188.8990  177.6320  142.2690 C   0  0  0  0  0  2  0  0  0  0  0  0
  184.5630  177.5410  143.3390 N   0  0  0  0  0  0  0  0  0  0  0  0
  186.8210  178.2990  143.5790 C   0  0  0  0  0  0  0  0  0  0  0  0
  188.3190  178.1180  143.6040 C   0  0  1  0  0  3  0  0  0  0  0  0
  186.6420  175.8570  141.4410 C   0  0  0  0  0  2  0  0  0  0  0  0
  186.3210  175.8870  142.9310 C   0  0  0  0  0  2  0  0  0  0  0  0
  186.3160  179.5630  143.8880 C   0  0  0  0  0  3  0  0  0  0  0  0
  184.9780  179.7840  143.9120 N   0  0  0  0  0  0  0  0  0  0  0  0
  188.7870  177.3350  144.7530 N   0  0  0  0  0  0  0  0  0  0  0  0
  188.7140  176.0990  146.6700 C   0  0  0  0  0  3  0  0  0  0  0  0
  187.9960  176.5560  145.6450 C   0  0  0  0  0  3  0  0  0  0  0  0
  190.4650  177.4140  147.7930 C   0  0  0  0  0  1  0  0  0  0  0  0
  191.0250  178.0800  144.8670 O   0  0  0  0  0  0  0  0  0  0  0  0
  190.0790  177.3900  145.3320 C   0  0  0  0  0  0  0  0  0  0  0  0
  190.1500  176.5560  146.5720 C   0  0  2  0  0  0  0  0  0  0  0  0
  193.3970  173.8310  145.7630 C   0  0  2  0  0  3  0  0  0  0  0  0
  194.1410  173.7010  144.4480 C   0  0  0  0  0  2  0  0  0  0  0  0
  192.3770  175.7130  147.1090 C   0  0  0  0  0  2  0  0  0  0  0  0
  192.0700  173.6930  145.0130 C   0  0  2  0  0  3  0  0  0  0  0  0
  192.8220  173.5870  143.7020 C   0  0  0  0  0  2  0  0  0  0  0  0
  191.2490  174.9800  145.0580 C   0  0  0  0  0  2  0  0  0  0  0  0
  193.6100  175.2370  146.3290 C   0  0  0  0  0  2  0  0  0  0  0  0
  191.0800  175.4050  146.4580 N   0  0  2  0  0  0  0  0  0  0  0  0
  188.4700  174.2010  140.8660 C   0  0  1  0  0  3  0  0  0  0  0  0
  188.1920  172.5310  139.0060 O   0  0  0  0  0  1  0  0  0  0  0  0
  188.2820  173.8570  139.4140 C   0  0  0  0  0  0  0  0  0  0  0  0
  188.1920  174.7800  138.5620 O   0  0  0  0  0  0  0  0  0  0  0  0
  189.8770  173.8310  141.3600 C   0  0  2  0  0  3  0  0  0  0  0  0
  190.7920  173.7910  140.3060 O   0  0  0  0  0  1  0  0  0  0  0  0
  189.8750  172.5020  142.0940 C   0  0  0  0  0  1  0  0  0  0  0  0
  1  6  2  0  0  0  0
  1  7  1  0  0  0  0
  2 28  1  1  0  0  0
  2  9  1  0  0  0  0
  2  3  1  0  0  0  0
  3  5  1  0  0  0  0
  4 12  2  0  0  0  0
  6  4  1  0  0  0  0
  7  8  1  0  0  0  0
  7 11  2  0  0  0  0
  8  5  1  6  0  0  0
  8 13  1  0  0  0  0
  9 10  1  0  0  0  0
 10  1  1  0  0  0  0
 11 12  1  0  0  0  0
 13 18  1  0  0  0  0
 13 15  1  0  0  0  0
 15 14  2  0  0  0  0
 17 18  2  0  0  0  0
 18 19  1  0  0  0  0
 19 14  1  0  0  0  0
 19 16  1  1  0  0  0
 20 21  1  6  0  0  0
 20 26  1  0  0  0  0
 23 24  1  6  0  0  0
 23 25  1  0  0  0  0
 23 20  1  0  0  0  0
 24 21  1  0  0  0  0
 26 22  1  0  0  0  0
 27 25  1  6  0  0  0
 27 19  1  0  0  0  0
 27 22  1  0  0  0  0
 28 30  1  6  0  0  0
 28 32  1  0  0  0  0
 29 30  1  0  0  0  0
 31 30  2  0  0  0  0
 32 34  1  6  0  0  0
 33 32  1  0  0  0  0
M  END
>  <MODEL>
5

>  <REMARK>
 VINA RESULT:      -7.1      2.290      7.108
  Name = 
  5 active torsions:
  status: ('A' for Active; 'I' for Inactive)
    1  A    between atoms: N_2  and  C_22
    2  A    between atoms: C_5  and  C_15
    3  A    between atoms: C_7  and  C_15
    4  A    between atoms: C_13  and  C_15
    5  A    between atoms: C_33  and  N_34
                            x       y       z     vdW  Elec       q    Type
                         _______ _______ _______ _____ _____    ______ ____

>  <TORSDO>
F 5

$$$$
=
 OpenBabel11072408253D

 34 38  0  0  1  0  0  0  0  0999 V2000
  193.3750  173.7220  143.3180 C   0  0  0  0  0  0  0  0  0  0  0  0
  190.7220  171.9340  141.8930 C   0  0  2  0  0  3  0  0  0  0  0  0
  190.1200  172.6420  143.0230 N   0  0  0  0  0  2  0  0  0  0  0  0
  195.5980  173.7710  144.1360 C   0  0  0  0  0  3  0  0  0  0  0  0
  190.7360  172.1760  144.2600 C   0  0  0  0  0  2  0  0  0  0  0  0
  194.7120  173.8570  143.1110 N   0  0  0  0  0  0  0  0  0  0  0  0
  192.8970  173.4710  144.6230 C   0  0  0  0  0  0  0  0  0  0  0  0
  191.4400  173.3290  144.9880 C   0  0  1  0  0  3  0  0  0  0  0  0
  192.1780  172.3720  141.6500 C   0  0  0  0  0  2  0  0  0  0  0  0
  192.4690  173.7880  142.1320 C   0  0  0  0  0  2  0  0  0  0  0  0
  193.8330  173.3940  145.6560 C   0  0  0  0  0  3  0  0  0  0  0  0
  195.1560  173.5430  145.3990 N   0  0  0  0  0  0  0  0  0  0  0  0
  190.6980  174.5940  144.9100 N   0  0  0  0  0  0  0  0  0  0  0  0
  190.2070  176.7520  144.3550 C   0  0  0  0  0  3  0  0  0  0  0  0
  190.9780  175.7050  144.0640 C   0  0  0  0  0  3  0  0  0  0  0  0
  189.5910  177.3870  146.6520 C   0  0  0  0  0  1  0  0  0  0  0  0
  189.2850  174.3520  146.7870 O   0  0  0  0  0  0  0  0  0  0  0  0
  189.7100  175.0420  145.8210 C   0  0  0  0  0  0  0  0  0  0  0  0
  189.2750  176.4370  145.5010 C   0  0  2  0  0  0  0  0  0  0  0  0
  185.2370  177.6270  144.5520 C   0  0  2  0  0  3  0  0  0  0  0  0
  184.3550  178.5290  145.3930 C   0  0  0  0  0  2  0  0  0  0  0  0
  187.6950  177.4960  143.9720 C   0  0  0  0  0  2  0  0  0  0  0  0
  185.5160  176.7670  145.7850 C   0  0  2  0  0  3  0  0  0  0  0  0
  184.6520  177.6870  146.6230 C   0  0  0  0  0  2  0  0  0  0  0  0
  186.9760  176.8540  146.2270 C   0  0  0  0  0  2  0  0  0  0  0  0
  186.4670  178.4110  144.0890 C   0  0  0  0  0  2  0  0  0  0  0  0
  187.8530  176.5320  145.0880 N   0  0  2  0  0  0  0  0  0  0  0  0
  189.8710  172.1380  140.6300 C   0  0  1  0  0  3  0  0  0  0  0  0
  189.1350  174.5310  140.8640 O   0  0  0  0  0  1  0  0  0  0  0  0
  189.8780  173.5740  140.1830 C   0  0  0  0  0  0  0  0  0  0  0  0
  190.5720  173.9130  139.1890 O   0  0  0  0  0  0  0  0  0  0  0  0
  190.2990  171.1890  139.5010 C   0  0  2  0  0  3  0  0  0  0  0  0
  189.3010  171.0710  138.5310 O   0  0  0  0  0  1  0  0  0  0  0  0
  190.6620  169.8160  140.0380 C   0  0  0  0  0  1  0  0  0  0  0  0
  1  7  1  0  0  0  0
  2 28  1  6  0  0  0
  2  3  1  0  0  0  0
  3  5  1  0  0  0  0
  4 12  2  0  0  0  0
  6  1  2  0  0  0  0
  6  4  1  0  0  0  0
  7  8  1  0  0  0  0
  7 11  2  0  0  0  0
  8  5  1  6  0  0  0
  9  2  1  0  0  0  0
  9 10  1  0  0  0  0
 10  1  1  0  0  0  0
 12 11  1  0  0  0  0
 13  8  1  0  0  0  0
 13 18  1  0  0  0  0
 14 19  1  0  0  0  0
 15 14  2  0  0  0  0
 15 13  1  0  0  0  0
 18 17  2  0  0  0  0
 19 18  1  0  0  0  0
 19 16  1  1  0  0  0
 20 26  1  1  0  0  0
 20 21  1  0  0  0  0
 20 23  1  0  0  0  0
 21 24  1  0  0  0  0
 22 26  1  0  0  0  0
 23 25  1  1  0  0  0
 23 24  1  0  0  0  0
 27 22  1  6  0  0  0
 27 19  1  0  0  0  0
 27 25  1  0  0  0  0
 28 30  1  6  0  0  0
 30 29  1  0  0  0  0
 31 30  2  0  0  0  0
 32 34  1  1  0  0  0
 32 28  1  0  0  0  0
 33 32  1  0  0  0  0
M  END
>  <MODEL>
6

>  <REMARK>
 VINA RESULT:      -7.0      2.656      5.395
  Name = 
  5 active torsions:
  status: ('A' for Active; 'I' for Inactive)
    1  A    between atoms: N_2  and  C_22
    2  A    between atoms: C_5  and  C_15
    3  A    between atoms: C_7  and  C_15
    4  A    between atoms: C_13  and  C_15
    5  A    between atoms: C_33  and  N_34
                            x       y       z     vdW  Elec       q    Type
                         _______ _______ _______ _____ _____    ______ ____

>  <TORSDO>
F 5

$$$$
=
 OpenBabel11072408253D

 34 38  0  0  1  0  0  0  0  0999 V2000
  189.9080  175.7930  145.8800 C   0  0  0  0  0  0  0  0  0  0  0  0
  188.6380  177.7850  143.2950 C   0  0  2  0  0  3  0  0  0  0  0  0
  189.3560  176.7110  142.6090 N   0  0  0  0  0  2  0  0  0  0  0  0
  191.0740  175.6140  147.9350 C   0  0  0  0  0  3  0  0  0  0  0  0
  190.7700  176.7820  142.9610 C   0  0  0  0  0  2  0  0  0  0  0  0
  189.9250  175.8160  147.2390 N   0  0  0  0  0  0  0  0  0  0  0  0
  191.1120  175.5730  145.1750 C   0  0  0  0  0  0  0  0  0  0  0  0
  191.2210  175.4990  143.6710 C   0  0  1  0  0  3  0  0  0  0  0  0
  188.5500  177.5400  144.8120 C   0  0  0  0  0  2  0  0  0  0  0  0
  188.6130  176.0650  145.1880 C   0  0  0  0  0  2  0  0  0  0  0  0
  192.2740  175.3650  145.9190 C   0  0  0  0  0  3  0  0  0  0  0  0
  192.2380  175.3890  147.2740 N   0  0  0  0  0  0  0  0  0  0  0  0
  190.6150  174.2880  143.1070 N   0  0  0  0  0  0  0  0  0  0  0  0
  189.3170  172.4160  142.9610 C   0  0  0  0  0  3  0  0  0  0  0  0
  189.5150  173.5500  143.6310 C   0  0  0  0  0  3  0  0  0  0  0  0
  191.1470  171.0000  142.1210 C   0  0  0  0  0  1  0  0  0  0  0  0
  192.2030  173.7810  141.4340 O   0  0  0  0  0  0  0  0  0  0  0  0
  191.1520  173.4900  142.0660 C   0  0  0  0  0  0  0  0  0  0  0  0
  190.3300  172.2590  141.8520 C   0  0  2  0  0  0  0  0  0  0  0  0
  189.0600  172.7950  137.7620 C   0  0  2  0  0  3  0  0  0  0  0  0
  188.8970  174.1230  137.0480 C   0  0  0  0  0  2  0  0  0  0  0  0
  190.6480  171.8200  139.4720 C   0  0  0  0  0  2  0  0  0  0  0  0
  188.1960  173.3170  138.9110 C   0  0  2  0  0  3  0  0  0  0  0  0
  188.0580  174.6490  138.2020 C   0  0  0  0  0  2  0  0  0  0  0  0
  188.9960  173.4790  140.2020 C   0  0  0  0  0  2  0  0  0  0  0  0
  190.5260  172.6120  138.1620 C   0  0  0  0  0  2  0  0  0  0  0  0
  189.6750  172.2110  140.5210 N   0  0  2  0  0  0  0  0  0  0  0  0
  187.2380  177.9550  142.6850 C   0  0  1  0  0  3  0  0  0  0  0  0
  186.7020  175.5170  142.3850 O   0  0  0  0  0  1  0  0  0  0  0  0
  186.8610  176.7800  141.8270 C   0  0  0  0  0  0  0  0  0  0  0  0
  186.6760  176.9440  140.5920 O   0  0  0  0  0  0  0  0  0  0  0  0
  186.1810  178.2330  143.7650 C   0  0  2  0  0  3  0  0  0  0  0  0
  184.9990  177.5350  143.5110 O   0  0  0  0  0  1  0  0  0  0  0  0
  185.8890  179.7180  143.8860 C   0  0  0  0  0  1  0  0  0  0  0  0
  1  6  1  0  0  0  0
  2 28  1  6  0  0  0
  2  9  1  0  0  0  0
  3  5  1  0  0  0  0
  3  2  1  0  0  0  0
  6  4  2  0  0  0  0
  7  1  2  0  0  0  0
  7 11  1  0  0  0  0
  8  5  1  6  0  0  0
  8  7  1  0  0  0  0
  9 10  1  0  0  0  0
 10  1  1  0  0  0  0
 11 12  2  0  0  0  0
 12  4  1  0  0  0  0
 13 15  1  0  0  0  0
 13  8  1  0  0  0  0
 14 15  2  0  0  0  0
 17 18  2  0  0  0  0
 18 13  1  0  0  0  0
 19 18  1  0  0  0  0
 19 16  1  1  0  0  0
 19 14  1  0  0  0  0
 20 21  1  6  0  0  0
 20 26  1  0  0  0  0
 20 23  1  0  0  0  0
 21 24  1  0  0  0  0
 23 24  1  6  0  0  0
 23 25  1  0  0  0  0
 25 27  1  0  0  0  0
 26 22  1  0  0  0  0
 27 22  1  6  0  0  0
 27 19  1  0  0  0  0
 28 30  1  1  0  0  0
 28 32  1  0  0  0  0
 30 29  1  0  0  0  0
 31 30  2  0  0  0  0
 32 34  1  6  0  0  0
 33 32  1  0  0  0  0
M  END
>  <MODEL>
7

>  <REMARK>
 VINA RESULT:      -7.0      2.602      6.782
  Name = 
  5 active torsions:
  status: ('A' for Active; 'I' for Inactive)
    1  A    between atoms: N_2  and  C_22
    2  A    between atoms: C_5  and  C_15
    3  A    between atoms: C_7  and  C_15
    4  A    between atoms: C_13  and  C_15
    5  A    between atoms: C_33  and  N_34
                            x       y       z     vdW  Elec       q    Type
                         _______ _______ _______ _____ _____    ______ ____

>  <TORSDO>
F 5

$$$$
=
 OpenBabel11072408253D

 34 38  0  0  1  0  0  0  0  0999 V2000
  193.3380  175.7460  144.0530 C   0  0  0  0  0  0  0  0  0  0  0  0
  192.3780  172.9120  142.2320 C   0  0  2  0  0  3  0  0  0  0  0  0
  191.1830  173.2810  142.9910 N   0  0  0  0  0  2  0  0  0  0  0  0
  194.8930  176.8290  145.4760 C   0  0  0  0  0  3  0  0  0  0  0  0
  191.4700  173.1730  144.4160 C   0  0  0  0  0  2  0  0  0  0  0  0
  194.4690  176.4780  144.2340 N   0  0  0  0  0  0  0  0  0  0  0  0
  192.5960  175.3250  145.1780 C   0  0  0  0  0  0  0  0  0  0  0  0
  191.3140  174.5330  145.1100 C   0  0  1  0  0  3  0  0  0  0  0  0
  193.4910  173.9680  142.3640 C   0  0  0  0  0  2  0  0  0  0  0  0
  192.9620  175.3660  142.6580 C   0  0  0  0  0  2  0  0  0  0  0  0
  193.0550  175.7050  146.4410 C   0  0  0  0  0  3  0  0  0  0  0  0
  194.1860  176.4430  146.5690 N   0  0  0  0  0  0  0  0  0  0  0  0
  190.1800  175.3120  144.5970 N   0  0  0  0  0  0  0  0  0  0  0  0
  188.2900  175.8140  143.4210 C   0  0  0  0  0  3  0  0  0  0  0  0
  189.0560  174.8210  143.8730 C   0  0  0  0  0  3  0  0  0  0  0  0
  189.1890  177.9290  142.5400 C   0  0  0  0  0  1  0  0  0  0  0  0
  190.9900  177.4990  144.9670 O   0  0  0  0  0  0  0  0  0  0  0  0
  190.1030  176.7240  144.5190 C   0  0  0  0  0  0  0  0  0  0  0  0
  188.8570  177.1570  143.8130 C   0  0  2  0  0  0  0  0  0  0  0  0
  185.5620  178.5960  146.2000 C   0  0  2  0  0  3  0  0  0  0  0  0
  184.0930  178.5010  145.8370 C   0  0  0  0  0  2  0  0  0  0  0  0
  187.6140  177.1460  145.9140 C   0  0  0  0  0  2  0  0  0  0  0  0
  185.8500  179.2160  144.8320 C   0  0  2  0  0  3  0  0  0  0  0  0
  184.3840  179.0960  144.4690 C   0  0  0  0  0  2  0  0  0  0  0  0
  186.6960  178.2980  143.9520 C   0  0  0  0  0  2  0  0  0  0  0  0
  186.1400  177.1860  146.3420 C   0  0  0  0  0  2  0  0  0  0  0  0
  187.9180  177.9120  144.6800 N   0  0  2  0  0  0  0  0  0  0  0  0
  192.0150  172.6800  140.7580 C   0  0  1  0  0  3  0  0  0  0  0  0
  192.9420  171.3410  138.8420 O   0  0  0  0  0  0  0  0  0  0  0  0
  192.6970  171.4590  140.2050 C   0  0  0  0  0  0  0  0  0  0  0  0
  193.0590  170.5400  140.9860 O   0  0  0  0  0  1  0  0  0  0  0  0
  190.4940  172.6240  140.5520 C   0  0  2  0  0  3  0  0  0  0  0  0
  190.0570  171.3150  140.3400 O   0  0  0  0  0  1  0  0  0  0  0  0
  190.0580  173.5090  139.3980 C   0  0  0  0  0  1  0  0  0  0  0  0
  1  6  2  0  0  0  0
  1  7  1  0  0  0  0
  2 28  1  6  0  0  0
  2  9  1  0  0  0  0
  2  3  1  0  0  0  0
  3  5  1  0  0  0  0
  4 12  2  0  0  0  0
  6  4  1  0  0  0  0
  7 11  2  0  0  0  0
  8  5  1  6  0  0  0
  8  7  1  0  0  0  0
  9 10  1  0  0  0  0
 10  1  1  0  0  0  0
 11 12  1  0  0  0  0
 13  8  1  0  0  0  0
 14 19  1  0  0  0  0
 14 15  2  0  0  0  0
 15 13  1  0  0  0  0
 18 13  1  0  0  0  0
 18 17  2  0  0  0  0
 19 16  1  6  0  0  0
 19 18  1  0  0  0  0
 19 27  1  0  0  0  0
 20 21  1  6  0  0  0
 20 26  1  0  0  0  0
 22 26  1  0  0  0  0
 23 25  1  6  0  0  0
 23 20  1  0  0  0  0
 24 23  1  0  0  0  0
 24 21  1  0  0  0  0
 27 25  1  6  0  0  0
 27 22  1  0  0  0  0
 28 30  1  1  0  0  0
 29 30  2  0  0  0  0
 30 31  1  0  0  0  0
 32 34  1  6  0  0  0
 32 28  1  0  0  0  0
 33 32  1  0  0  0  0
M  END
>  <MODEL>
8

>  <REMARK>
 VINA RESULT:      -6.8      2.944      5.188
  Name = 
  5 active torsions:
  status: ('A' for Active; 'I' for Inactive)
    1  A    between atoms: N_2  and  C_22
    2  A    between atoms: C_5  and  C_15
    3  A    between atoms: C_7  and  C_15
    4  A    between atoms: C_13  and  C_15
    5  A    between atoms: C_33  and  N_34
                            x       y       z     vdW  Elec       q    Type
                         _______ _______ _______ _____ _____    ______ ____

>  <TORSDO>
F 5

$$$$
=
 OpenBabel11072408253D

 34 38  0  0  1  0  0  0  0  0999 V2000
  193.8610  170.8500  144.9040 C   0  0  0  0  0  0  0  0  0  0  0  0
  195.2100  173.8780  143.7720 C   0  0  2  0  0  3  0  0  0  0  0  0
  193.9140  173.7810  143.1000 N   0  0  0  0  0  2  0  0  0  0  0  0
  194.1120  168.5310  145.3170 C   0  0  0  0  0  3  0  0  0  0  0  0
  193.9130  172.6100  142.2310 C   0  0  0  0  0  2  0  0  0  0  0  0
  194.2490  169.8240  145.7070 N   0  0  0  0  0  0  0  0  0  0  0  0
  193.3200  170.5680  143.6310 C   0  0  0  0  0  0  0  0  0  0  0  0
  192.8280  171.6130  142.6590 C   0  0  1  0  0  3  0  0  0  0  0  0
  195.3980  172.7660  144.8190 C   0  0  0  0  0  2  0  0  0  0  0  0
  194.0830  172.2460  145.3880 C   0  0  0  0  0  2  0  0  0  0  0  0
  193.1870  169.2280  143.2610 C   0  0  0  0  0  3  0  0  0  0  0  0
  193.5830  168.2400  144.1020 N   0  0  0  0  0  0  0  0  0  0  0  0
  191.5880  172.2670  143.0920 N   0  0  0  0  0  0  0  0  0  0  0  0
  189.6650  172.6400  144.2630 C   0  0  0  0  0  3  0  0  0  0  0  0
  190.8130  171.9650  144.2490 C   0  0  0  0  0  3  0  0  0  0  0  0
  188.3130  173.0610  142.2500 C   0  0  0  0  0  1  0  0  0  0  0  0
  191.1250  173.5700  141.1770 O   0  0  0  0  0  0  0  0  0  0  0  0
  190.8010  173.1600  142.3240 C   0  0  0  0  0  0  0  0  0  0  0  0
  189.5360  173.5160  143.0400 C   0  0  2  0  0  0  0  0  0  0  0  0
  188.5600  177.3980  144.6550 C   0  0  2  0  0  3  0  0  0  0  0  0
  187.1630  177.9530  144.8500 C   0  0  0  0  0  2  0  0  0  0  0  0
  189.6750  175.1370  144.8600 C   0  0  0  0  0  2  0  0  0  0  0  0
  188.2100  177.0570  143.2050 C   0  0  2  0  0  3  0  0  0  0  0  0
  186.8100  177.5930  143.4170 C   0  0  0  0  0  2  0  0  0  0  0  0
  188.1760  175.5490  142.9630 C   0  0  0  0  0  2  0  0  0  0  0  0
  188.7360  176.1530  145.5280 C   0  0  0  0  0  2  0  0  0  0  0  0
  189.4480  174.9520  143.4060 N   0  0  2  0  0  0  0  0  0  0  0  0
  195.3690  175.2650  144.4110 C   0  0  1  0  0  3  0  0  0  0  0  0
  195.8120  176.1030  142.0820 O   0  0  0  0  0  0  0  0  0  0  0  0
  195.9810  176.2500  143.4540 C   0  0  0  0  0  0  0  0  0  0  0  0
  196.6420  177.2240  143.9000 O   0  0  0  0  0  1  0  0  0  0  0  0
  194.0400  175.7790  144.9840 C   0  0  2  0  0  3  0  0  0  0  0  0
  193.5010  176.7920  144.1880 O   0  0  0  0  0  1  0  0  0  0  0  0
  194.2060  176.2750  146.4100 C   0  0  0  0  0  1  0  0  0  0  0  0
  1 10  1  0  0  0  0
  1  6  1  0  0  0  0
  2 28  1  1  0  0  0
  2  9  1  0  0  0  0
  3  2  1  0  0  0  0
  4  6  2  0  0  0  0
  5  3  1  0  0  0  0
  7  1  2  0  0  0  0
  8  5  1  1  0  0  0
  8 13  1  0  0  0  0
  8  7  1  0  0  0  0
  9 10  1  0  0  0  0
 11  7  1  0  0  0  0
 11 12  2  0  0  0  0
 12  4  1  0  0  0  0
 13 15  1  0  0  0  0
 15 14  2  0  0  0  0
 17 18  2  0  0  0  0
 18 19  1  0  0  0  0
 18 13  1  0  0  0  0
 19 16  1  6  0  0  0
 19 27  1  0  0  0  0
 19 14  1  0  0  0  0
 20 21  1  1  0  0  0
 20 26  1  0  0  0  0
 22 26  1  0  0  0  0
 23 25  1  1  0  0  0
 23 24  1  0  0  0  0
 23 20  1  0  0  0  0
 24 21  1  0  0  0  0
 27 25  1  1  0  0  0
 27 22  1  0  0  0  0
 28 30  1  6  0  0  0
 28 32  1  0  0  0  0
 29 30  2  0  0  0  0
 30 31  1  0  0  0  0
 32 34  1  1  0  0  0
 33 32  1  0  0  0  0
M  END
>  <MODEL>
9

>  <REMARK>
 VINA RESULT:      -6.8      3.234      4.704
  Name = 
  5 active torsions:
  status: ('A' for Active; 'I' for Inactive)
    1  A    between atoms: N_2  and  C_22
    2  A    between atoms: C_5  and  C_15
    3  A    between atoms: C_7  and  C_15
    4  A    between atoms: C_13  and  C_15
    5  A    between atoms: C_33  and  N_34
                            x       y       z     vdW  Elec       q    Type
                         _______ _______ _______ _____ _____    ______ ____

>  <TORSDO>
F 5

$$$$
