=
 OpenBabel11062421023D

 38 41  0  0  1  0  0  0  0  0999 V2000
  186.1920  178.5340  145.8060 C   0  0  0  0  0  0  0  0  0  0  0  0
  192.9990  173.9280  143.1670 C   0  0  0  0  0  2  0  0  0  0  0  0
  183.7060  178.7910  145.4740 C   0  0  0  0  0  1  0  0  0  0  0  0
  185.0780  178.3500  145.0940 C   0  0  0  0  0  0  0  0  0  0  0  0
  192.8640  172.9100  142.0080 C   0  0  2  0  0  3  0  0  0  0  0  0
  187.2470  176.7440  142.7860 N   0  0  0  0  0  0  0  0  0  0  0  0
  191.9960  176.0210  144.1830 C   0  0  0  0  0  2  0  0  0  0  0  0
  186.6060  177.4210  143.8640 C   0  0  0  0  0  0  0  0  0  0  0  0
  188.2420  175.8470  141.2500 C   0  0  2  0  0  3  0  0  0  0  0  0
  190.5930  173.7560  141.4910 C   0  0  0  0  0  0  0  0  0  0  0  0
  187.3420  177.9510  145.0500 C   0  0  2  0  0  3  0  0  0  0  0  0
  191.4580  175.8820  145.5720 C   0  0  0  0  0  0  0  0  0  0  0  0
  191.7270  174.7530  143.3960 C   0  0  1  0  0  3  0  0  0  0  0  0
  185.3380  177.6580  143.8820 N   0  0  0  0  0  0  0  0  0  0  0  0
  191.0530  175.0610  142.0680 C   0  0  0  0  0  2  0  0  0  0  0  0
  190.4010  176.5600  145.9270 C   0  0  0  0  0  0  0  0  0  0  0  0
  188.5380  176.1710  142.5910 N   0  0  0  0  0  2  0  0  0  0  0  0
  191.4520  172.7320  141.4970 C   0  0  0  0  0  3  0  0  0  0  0  0
  186.9410  176.3670  141.4380 N   0  0  0  0  0  0  0  0  0  0  0  0
  189.3400  177.2290  146.2910 C   0  0  0  0  0  3  0  0  0  0  0  0
  188.1710  174.3620  141.0490 C   0  0  0  0  0  3  0  0  0  0  0  0
  187.9890  176.8110  145.8230 C   0  0  0  0  0  2  0  0  0  0  0  0
  189.1870  173.4910  141.1270 C   0  0  0  0  0  3  0  0  0  0  0  0
  191.9260  171.0870  144.0560 O   0  0  0  0  0  0  0  0  0  0  0  0
  192.9470  170.7650  143.3910 C   0  0  0  0  0  0  0  0  0  0  0  0
  193.4560  171.6270  142.3680 N   0  0  0  0  0  2  0  0  0  0  0  0
  193.6510  169.4880  143.6930 C   0  0  0  0  0  2  0  0  0  0  0  0
  194.9340  170.5910  145.6450 C   0  0  0  0  0  1  0  0  0  0  0  0
  193.8300  168.5270  145.8350 O   0  0  0  0  0  0  0  0  0  0  0  0
  194.1100  169.4690  145.1140 C   0  0  0  0  0  0  0  0  0  0  0  0
  185.4010  177.8030  140.2270 C   0  0  0  0  0  1  0  0  0  0  0  0
  186.8400  177.5880  140.6490 C   0  0  0  0  0  2  0  0  0  0  0  0
  186.2480  178.6310  148.2780 C   0  0  0  0  0  2  0  0  0  0  0  0
  186.3490  179.2300  147.0990 C   0  0  0  0  0  3  0  0  0  0  0  0
  192.2440  175.1590  146.6140 C   0  0  0  0  0  2  0  0  0  0  0  0
  193.7290  175.4450  146.4550 C   0  0  0  0  0  2  0  0  0  0  0  0
  194.8230  177.5760  145.7760 C   0  0  0  0  0  1  0  0  0  0  0  0
  194.0400  176.8720  146.8690 C   0  0  0  0  0  2  0  0  0  0  0  0
  1 34  1  0  0  0  0
  2 13  1  0  0  0  0
  4  3  1  0  0  0  0
  4  1  2  0  0  0  0
  5 26  1  1  0  0  0
  5  2  1  0  0  0  0
  6  8  1  0  0  0  0
  7 12  1  0  0  0  0
  8 14  2  0  0  0  0
  8 11  1  0  0  0  0
  9 21  1  1  0  0  0
  9 19  1  0  0  0  0
  9 17  1  0  0  0  0
 10 18  2  0  0  0  0
 10 15  1  0  0  0  0
 11  1  1  0  0  0  0
 11 22  1  1  0  0  0
 12 16  2  0  0  0  0
 12 35  1  0  0  0  0
 13 15  1  6  0  0  0
 13  7  1  0  0  0  0
 14  4  1  0  0  0  0
 16 20  2  0  0  0  0
 17  6  1  0  0  0  0
 18  5  1  0  0  0  0
 19  6  1  0  0  0  0
 21 23  2  0  0  0  0
 22 20  1  0  0  0  0
 23 10  1  0  0  0  0
 25 27  1  0  0  0  0
 25 24  2  0  0  0  0
 26 25  1  0  0  0  0
 27 30  1  0  0  0  0
 30 28  1  0  0  0  0
 30 29  2  0  0  0  0
 31 32  1  0  0  0  0
 32 19  1  0  0  0  0
 34 33  2  0  0  0  0
 36 35  1  0  0  0  0
 36 38  1  0  0  0  0
 37 38  1  0  0  0  0
M  END
>  <MODEL>
1

>  <REMARK>
 VINA RESULT:      -7.5      0.000      0.000
  Name = 
  8 active torsions:
  status: ('A' for Active; 'I' for Inactive)
    1  A    between atoms: C_1  and  C_28
    2  A    between atoms: C_5  and  C_32
    3  A    between atoms: C_5  and  C_38
    4  A    between atoms: C_7  and  N_35
    5  A    between atoms: C_12  and  C_15
    6  A    between atoms: C_12  and  C_20
    7  A    between atoms: C_15  and  C_29
    8  A    between atoms: C_23  and  N_31
                            x       y       z     vdW  Elec       q    Type
                         _______ _______ _______ _____ _____    ______ ____

>  <TORSDO>
F 8

$$$$
=
 OpenBabel11062421023D

 38 41  0  0  1  0  0  0  0  0999 V2000
  186.4320  178.1220  146.6000 C   0  0  0  0  0  0  0  0  0  0  0  0
  193.3200  174.4140  142.9500 C   0  0  0  0  0  2  0  0  0  0  0  0
  183.9130  178.1830  146.5040 C   0  0  0  0  0  1  0  0  0  0  0  0
  185.2750  177.9050  145.9690 C   0  0  0  0  0  0  0  0  0  0  0  0
  193.1630  173.5010  141.7090 C   0  0  2  0  0  3  0  0  0  0  0  0
  187.3480  176.7240  143.3370 N   0  0  0  0  0  0  0  0  0  0  0  0
  192.2480  176.3040  144.2530 C   0  0  0  0  0  2  0  0  0  0  0  0
  186.7550  177.2370  144.5280 C   0  0  0  0  0  0  0  0  0  0  0  0
  188.2670  176.0670  141.6400 C   0  0  2  0  0  3  0  0  0  0  0  0
  190.7920  174.1840  141.4730 C   0  0  0  0  0  0  0  0  0  0  0  0
  187.5510  177.7170  145.6950 C   0  0  2  0  0  3  0  0  0  0  0  0
  191.8530  175.9890  145.6600 C   0  0  0  0  0  0  0  0  0  0  0  0
  192.0110  175.0970  143.3670 C   0  0  1  0  0  3  0  0  0  0  0  0
  185.4790  177.3560  144.6750 N   0  0  0  0  0  0  0  0  0  0  0  0
  191.1960  175.4650  142.1370 C   0  0  0  0  0  2  0  0  0  0  0  0
  190.7810  176.5320  146.1700 C   0  0  0  0  0  0  0  0  0  0  0  0
  188.6570  176.2900  142.9780 N   0  0  0  0  0  2  0  0  0  0  0  0
  191.7290  173.2440  141.3030 C   0  0  0  0  0  3  0  0  0  0  0  0
  186.9500  176.4480  141.9880 N   0  0  0  0  0  0  0  0  0  0  0  0
  189.7070  177.0650  146.6860 C   0  0  0  0  0  3  0  0  0  0  0  0
  188.2990  174.6070  141.2980 C   0  0  0  0  0  3  0  0  0  0  0  0
  188.3570  176.5730  146.2930 C   0  0  0  0  0  2  0  0  0  0  0  0
  189.3850  173.8280  141.2020 C   0  0  0  0  0  3  0  0  0  0  0  0
  196.0190  173.1010  141.4200 O   0  0  0  0  0  0  0  0  0  0  0  0
  195.3040  172.1100  141.7320 C   0  0  0  0  0  0  0  0  0  0  0  0
  193.8890  172.2480  141.8880 N   0  0  0  0  0  2  0  0  0  0  0  0
  195.9360  170.7730  141.9120 C   0  0  0  0  0  2  0  0  0  0  0  0
  196.6700  171.1340  144.3620 C   0  0  0  0  0  1  0  0  0  0  0  0
  195.2450  169.3930  143.6900 O   0  0  0  0  0  0  0  0  0  0  0  0
  195.8950  170.3660  143.3470 C   0  0  0  0  0  0  0  0  0  0  0  0
  185.1940  177.8460  141.0610 C   0  0  0  0  0  1  0  0  0  0  0  0
  186.6780  177.7240  141.3380 C   0  0  0  0  0  2  0  0  0  0  0  0
  186.4730  179.9880  148.2250 C   0  0  0  0  0  2  0  0  0  0  0  0
  186.6500  178.7050  147.9390 C   0  0  0  0  0  3  0  0  0  0  0  0
  192.7870  175.2450  146.5550 C   0  0  0  0  0  2  0  0  0  0  0  0
  194.1860  175.8350  146.4720 C   0  0  0  0  0  2  0  0  0  0  0  0
  196.0300  175.2260  144.9150 C   0  0  0  0  0  1  0  0  0  0  0  0
  195.1910  174.7640  146.0920 C   0  0  0  0  0  2  0  0  0  0  0  0
  1 34  1  0  0  0  0
  2 13  1  0  0  0  0
  4  3  1  0  0  0  0
  4  1  2  0  0  0  0
  5 26  1  1  0  0  0
  5  2  1  0  0  0  0
  6  8  1  0  0  0  0
  7 12  1  0  0  0  0
  8 14  2  0  0  0  0
  8 11  1  0  0  0  0
  9 21  1  1  0  0  0
  9 19  1  0  0  0  0
  9 17  1  0  0  0  0
 10 15  1  0  0  0  0
 11 22  1  1  0  0  0
 11  1  1  0  0  0  0
 12 16  2  0  0  0  0
 12 35  1  0  0  0  0
 13 15  1  6  0  0  0
 13  7  1  0  0  0  0
 14  4  1  0  0  0  0
 16 20  2  0  0  0  0
 17  6  1  0  0  0  0
 18 10  2  0  0  0  0
 18  5  1  0  0  0  0
 19  6  1  0  0  0  0
 22 20  1  0  0  0  0
 23 21  2  0  0  0  0
 23 10  1  0  0  0  0
 24 25  2  0  0  0  0
 25 26  1  0  0  0  0
 25 27  1  0  0  0  0
 27 30  1  0  0  0  0
 30 29  2  0  0  0  0
 30 28  1  0  0  0  0
 31 32  1  0  0  0  0
 32 19  1  0  0  0  0
 34 33  2  0  0  0  0
 36 35  1  0  0  0  0
 37 38  1  0  0  0  0
 38 36  1  0  0  0  0
M  END
>  <MODEL>
2

>  <REMARK>
 VINA RESULT:      -7.4      1.518      1.595
  Name = 
  8 active torsions:
  status: ('A' for Active; 'I' for Inactive)
    1  A    between atoms: C_1  and  C_28
    2  A    between atoms: C_5  and  C_32
    3  A    between atoms: C_5  and  C_38
    4  A    between atoms: C_7  and  N_35
    5  A    between atoms: C_12  and  C_15
    6  A    between atoms: C_12  and  C_20
    7  A    between atoms: C_15  and  C_29
    8  A    between atoms: C_23  and  N_31
                            x       y       z     vdW  Elec       q    Type
                         _______ _______ _______ _____ _____    ______ ____

>  <TORSDO>
F 8

$$$$
=
 OpenBabel11062421023D

 38 41  0  0  1  0  0  0  0  0999 V2000
  196.4050  172.5450  142.8860 C   0  0  0  0  0  0  0  0  0  0  0  0
  188.9250  175.7810  145.7280 C   0  0  0  0  0  2  0  0  0  0  0  0
  197.6290  171.9000  140.7770 C   0  0  0  0  0  1  0  0  0  0  0  0
  196.4220  172.2180  141.5910 C   0  0  0  0  0  0  0  0  0  0  0  0
  187.7490  176.0290  144.7530 C   0  0  2  0  0  3  0  0  0  0  0  0
  192.8990  172.6040  141.8200 N   0  0  0  0  0  0  0  0  0  0  0  0
  191.0380  174.4300  146.0900 C   0  0  0  0  0  2  0  0  0  0  0  0
  194.3110  172.5240  141.9950 C   0  0  0  0  0  0  0  0  0  0  0  0
  190.8680  172.6700  141.6620 C   0  0  2  0  0  3  0  0  0  0  0  0
  188.9440  174.8110  142.9560 C   0  0  0  0  0  0  0  0  0  0  0  0
  194.9870  172.7650  143.3030 C   0  0  2  0  0  3  0  0  0  0  0  0
  192.3080  175.2130  146.1880 C   0  0  0  0  0  0  0  0  0  0  0  0
  190.1140  175.0690  145.0710 C   0  0  1  0  0  3  0  0  0  0  0  0
  195.1140  172.2020  141.0380 N   0  0  0  0  0  0  0  0  0  0  0  0
  189.6210  174.0500  144.0560 C   0  0  0  0  0  2  0  0  0  0  0  0
  193.4150  174.7140  145.7090 C   0  0  0  0  0  0  0  0  0  0  0  0
  191.8220  173.1220  142.5980 N   0  0  0  0  0  2  0  0  0  0  0  0
  188.0800  175.7710  143.2990 C   0  0  0  0  0  3  0  0  0  0  0  0
  191.9250  172.1940  140.8520 N   0  0  0  0  0  0  0  0  0  0  0  0
  194.5260  174.2270  145.2290 C   0  0  0  0  0  3  0  0  0  0  0  0
  190.1850  173.8190  140.9800 C   0  0  0  0  0  3  0  0  0  0  0  0
  194.7630  174.2000  143.7580 C   0  0  0  0  0  2  0  0  0  0  0  0
  189.3470  174.7030  141.5400 C   0  0  0  0  0  3  0  0  0  0  0  0
  185.4720  176.7490  146.3960 O   0  0  0  0  0  0  0  0  0  0  0  0
  186.0640  177.6630  145.7610 C   0  0  0  0  0  0  0  0  0  0  0  0
  187.1930  177.3660  144.9330 N   0  0  0  0  0  2  0  0  0  0  0  0
  185.5660  179.0630  145.8490 C   0  0  0  0  0  2  0  0  0  0  0  0
  184.0250  178.7350  143.8020 C   0  0  0  0  0  1  0  0  0  0  0  0
  185.5220  180.5320  144.0090 O   0  0  0  0  0  0  0  0  0  0  0  0
  185.0660  179.5230  144.5200 C   0  0  0  0  0  0  0  0  0  0  0  0
  192.0470  170.2020  139.4680 C   0  0  0  0  0  1  0  0  0  0  0  0
  191.8680  170.7370  140.8730 C   0  0  0  0  0  2  0  0  0  0  0  0
  197.5840  172.0440  145.0040 C   0  0  0  0  0  2  0  0  0  0  0  0
  197.5440  172.6420  143.8200 C   0  0  0  0  0  3  0  0  0  0  0  0
  192.3670  176.4480  147.0230 C   0  0  0  0  0  2  0  0  0  0  0  0
  191.4810  176.3030  148.2510 C   0  0  0  0  0  2  0  0  0  0  0  0
  191.4650  178.2060  149.8570 C   0  0  0  0  0  1  0  0  0  0  0  0
  190.8370  177.6330  148.5990 C   0  0  0  0  0  2  0  0  0  0  0  0
  1 11  1  0  0  0  0
  1 34  1  0  0  0  0
  3  4  1  0  0  0  0
  4  1  2  0  0  0  0
  5 26  1  6  0  0  0
  5  2  1  0  0  0  0
  6  8  1  0  0  0  0
  6 17  1  0  0  0  0
  7 12  1  0  0  0  0
  8 11  1  0  0  0  0
  9 21  1  6  0  0  0
  9 17  1  0  0  0  0
 10 18  2  0  0  0  0
 10 15  1  0  0  0  0
 11 22  1  6  0  0  0
 12 35  1  0  0  0  0
 13 15  1  6  0  0  0
 13  2  1  0  0  0  0
 13  7  1  0  0  0  0
 14  4  1  0  0  0  0
 14  8  2  0  0  0  0
 16 12  2  0  0  0  0
 18  5  1  0  0  0  0
 19 32  1  0  0  0  0
 19  9  1  0  0  0  0
 19  6  1  0  0  0  0
 20 16  2  0  0  0  0
 21 23  2  0  0  0  0
 22 20  1  0  0  0  0
 23 10  1  0  0  0  0
 25 27  1  0  0  0  0
 25 24  2  0  0  0  0
 26 25  1  0  0  0  0
 28 30  1  0  0  0  0
 29 30  2  0  0  0  0
 30 27  1  0  0  0  0
 31 32  1  0  0  0  0
 34 33  2  0  0  0  0
 35 36  1  0  0  0  0
 36 38  1  0  0  0  0
 38 37  1  0  0  0  0
M  END
>  <MODEL>
3

>  <REMARK>
 VINA RESULT:      -7.0      3.247      8.677
  Name = 
  8 active torsions:
  status: ('A' for Active; 'I' for Inactive)
    1  A    between atoms: C_1  and  C_28
    2  A    between atoms: C_5  and  C_32
    3  A    between atoms: C_5  and  C_38
    4  A    between atoms: C_7  and  N_35
    5  A    between atoms: C_12  and  C_15
    6  A    between atoms: C_12  and  C_20
    7  A    between atoms: C_15  and  C_29
    8  A    between atoms: C_23  and  N_31
                            x       y       z     vdW  Elec       q    Type
                         _______ _______ _______ _____ _____    ______ ____

>  <TORSDO>
F 8

$$$$
=
 OpenBabel11062421023D

 38 41  0  0  1  0  0  0  0  0999 V2000
  195.2920  173.5430  138.8390 C   0  0  0  0  0  0  0  0  0  0  0  0
  189.2840  175.8440  144.5930 C   0  0  0  0  0  2  0  0  0  0  0  0
  195.6380  173.1130  136.3790 C   0  0  0  0  0  1  0  0  0  0  0  0
  194.8260  173.2680  137.6180 C   0  0  0  0  0  0  0  0  0  0  0  0
  187.8020  175.9990  144.1720 C   0  0  2  0  0  3  0  0  0  0  0  0
  191.6570  173.2620  139.2220 N   0  0  0  0  0  0  0  0  0  0  0  0
  191.4750  174.7170  144.0050 C   0  0  0  0  0  2  0  0  0  0  0  0
  193.0260  173.3280  138.8300 C   0  0  0  0  0  0  0  0  0  0  0  0
  189.7300  173.1140  139.8680 C   0  0  2  0  0  3  0  0  0  0  0  0
  188.2950  174.9840  141.9650 C   0  0  0  0  0  0  0  0  0  0  0  0
  194.1390  173.5930  139.7880 C   0  0  2  0  0  3  0  0  0  0  0  0
  192.6100  175.6290  143.6630 C   0  0  0  0  0  0  0  0  0  0  0  0
  190.1750  175.2900  143.4750 C   0  0  1  0  0  3  0  0  0  0  0  0
  193.4130  173.1300  137.6150 N   0  0  0  0  0  0  0  0  0  0  0  0
  189.4110  174.2610  142.6550 C   0  0  0  0  0  2  0  0  0  0  0  0
  193.4780  175.2710  142.7570 C   0  0  0  0  0  0  0  0  0  0  0  0
  190.9330  173.6310  140.3930 N   0  0  0  0  0  2  0  0  0  0  0  0
  187.5560  175.8320  142.6880 C   0  0  0  0  0  3  0  0  0  0  0  0
  190.4200  172.7840  138.6790 N   0  0  0  0  0  0  0  0  0  0  0  0
  194.3480  174.9240  141.8470 C   0  0  0  0  0  3  0  0  0  0  0  0
  188.7390  174.2060  139.5930 C   0  0  0  0  0  3  0  0  0  0  0  0
  193.9900  174.9780  140.4020 C   0  0  0  0  0  2  0  0  0  0  0  0
  188.1160  174.9730  140.5000 C   0  0  0  0  0  3  0  0  0  0  0  0
  186.4830  176.4500  146.7120 O   0  0  0  0  0  0  0  0  0  0  0  0
  186.6090  177.4240  145.9230 C   0  0  0  0  0  0  0  0  0  0  0  0
  187.2510  177.2610  144.6540 N   0  0  0  0  0  2  0  0  0  0  0  0
  186.0580  178.7550  146.3000 C   0  0  0  0  0  2  0  0  0  0  0  0
  185.1720  179.9230  144.1740 C   0  0  0  0  0  1  0  0  0  0  0  0
  183.7840  178.7860  145.6880 O   0  0  0  0  0  0  0  0  0  0  0  0
  184.9210  179.1220  145.4050 C   0  0  0  0  0  0  0  0  0  0  0  0
  190.0640  170.8630  137.2350 C   0  0  0  0  0  1  0  0  0  0  0  0
  190.5010  171.3310  138.6090 C   0  0  0  0  0  2  0  0  0  0  0  0
  197.3670  174.8620  139.1220 C   0  0  0  0  0  2  0  0  0  0  0  0
  196.6940  173.7280  139.2640 C   0  0  0  0  0  3  0  0  0  0  0  0
  192.8870  176.8310  144.5010 C   0  0  0  0  0  2  0  0  0  0  0  0
  192.9350  176.4540  145.9740 C   0  0  0  0  0  2  0  0  0  0  0  0
  195.1240  175.2770  146.1270 C   0  0  0  0  0  1  0  0  0  0  0  0
  194.3580  176.5350  146.4950 C   0  0  0  0  0  2  0  0  0  0  0  0
  1 34  1  0  0  0  0
  1 11  1  0  0  0  0
  3  4  1  0  0  0  0
  4  1  2  0  0  0  0
  5  2  1  0  0  0  0
  5 26  1  6  0  0  0
  6 17  1  0  0  0  0
  8  6  1  0  0  0  0
  8 11  1  0  0  0  0
  9 21  1  6  0  0  0
  9 17  1  0  0  0  0
 10 15  1  0  0  0  0
 10 18  2  0  0  0  0
 11 22  1  6  0  0  0
 12  7  1  0  0  0  0
 12 35  1  0  0  0  0
 13 15  1  1  0  0  0
 13  7  1  0  0  0  0
 13  2  1  0  0  0  0
 14  4  1  0  0  0  0
 14  8  2  0  0  0  0
 16 12  2  0  0  0  0
 18  5  1  0  0  0  0
 19  6  1  0  0  0  0
 19  9  1  0  0  0  0
 20 16  2  0  0  0  0
 21 23  2  0  0  0  0
 22 20  1  0  0  0  0
 23 10  1  0  0  0  0
 25 27  1  0  0  0  0
 25 24  2  0  0  0  0
 26 25  1  0  0  0  0
 28 30  1  0  0  0  0
 30 29  2  0  0  0  0
 30 27  1  0  0  0  0
 31 32  1  0  0  0  0
 32 19  1  0  0  0  0
 33 34  2  0  0  0  0
 35 36  1  0  0  0  0
 36 38  1  0  0  0  0
 37 38  1  0  0  0  0
M  END
>  <MODEL>
4

>  <REMARK>
 VINA RESULT:      -6.8      3.668      8.540
  Name = 
  8 active torsions:
  status: ('A' for Active; 'I' for Inactive)
    1  A    between atoms: C_1  and  C_28
    2  A    between atoms: C_5  and  C_32
    3  A    between atoms: C_5  and  C_38
    4  A    between atoms: C_7  and  N_35
    5  A    between atoms: C_12  and  C_15
    6  A    between atoms: C_12  and  C_20
    7  A    between atoms: C_15  and  C_29
    8  A    between atoms: C_23  and  N_31
                            x       y       z     vdW  Elec       q    Type
                         _______ _______ _______ _____ _____    ______ ____

>  <TORSDO>
F 8

$$$$
=
 OpenBabel11062421023D

 38 41  0  0  1  0  0  0  0  0999 V2000
  185.4210  177.7500  142.7140 C   0  0  0  0  0  0  0  0  0  0  0  0
  192.6480  173.2520  144.1400 C   0  0  0  0  0  2  0  0  0  0  0  0
  184.1360  179.7690  143.5100 C   0  0  0  0  0  1  0  0  0  0  0  0
  185.1460  178.6800  143.6320 C   0  0  0  0  0  0  0  0  0  0  0  0
  193.5710  173.5950  145.3360 C   0  0  2  0  0  3  0  0  0  0  0  0
  187.6540  177.0310  145.5300 N   0  0  0  0  0  0  0  0  0  0  0  0
  190.2750  173.4190  143.2690 C   0  0  0  0  0  2  0  0  0  0  0  0
  186.7080  177.5050  144.5750 C   0  0  0  0  0  0  0  0  0  0  0  0
  188.9760  176.2560  146.8750 C   0  0  2  0  0  3  0  0  0  0  0  0
  191.8580  175.1340  146.2520 C   0  0  0  0  0  0  0  0  0  0  0  0
  186.4830  176.8480  143.2530 C   0  0  2  0  0  3  0  0  0  0  0  0
  190.0910  174.2130  142.0160 C   0  0  0  0  0  0  0  0  0  0  0  0
  191.3440  174.0590  144.1340 C   0  0  1  0  0  3  0  0  0  0  0  0
  185.9470  178.5230  144.7940 N   0  0  0  0  0  0  0  0  0  0  0  0
  190.8500  174.2710  145.5570 C   0  0  0  0  0  2  0  0  0  0  0  0
  189.0060  174.9180  141.8490 C   0  0  0  0  0  0  0  0  0  0  0  0
  188.7370  176.1060  145.4920 N   0  0  0  0  0  2  0  0  0  0  0  0
  193.1510  174.8220  146.1140 C   0  0  0  0  0  3  0  0  0  0  0  0
  187.9360  177.2130  146.9240 N   0  0  0  0  0  0  0  0  0  0  0  0
  187.9260  175.6310  141.6740 C   0  0  0  0  0  3  0  0  0  0  0  0
  190.2930  176.9250  147.1320 C   0  0  0  0  0  3  0  0  0  0  0  0
  187.7460  176.9170  142.4070 C   0  0  0  0  0  2  0  0  0  0  0  0
  191.5120  176.4210  146.8880 C   0  0  0  0  0  3  0  0  0  0  0  0
  194.6750  175.5300  143.4830 O   0  0  0  0  0  0  0  0  0  0  0  0
  195.4510  174.6760  143.9890 C   0  0  0  0  0  0  0  0  0  0  0  0
  194.9620  173.6960  144.9090 N   0  0  0  0  0  2  0  0  0  0  0  0
  196.8900  174.6690  143.6030 C   0  0  0  0  0  2  0  0  0  0  0  0
  197.2740  175.5700  141.2130 C   0  0  0  0  0  1  0  0  0  0  0  0
  197.3850  176.9210  143.1310 O   0  0  0  0  0  0  0  0  0  0  0  0
  197.1890  175.8050  142.6820 C   0  0  0  0  0  0  0  0  0  0  0  0
  185.9330  177.7240  148.1990 C   0  0  0  0  0  1  0  0  0  0  0  0
  186.8360  176.6250  147.6770 C   0  0  0  0  0  2  0  0  0  0  0  0
  185.0670  178.2870  140.3240 C   0  0  0  0  0  2  0  0  0  0  0  0
  184.7900  177.5530  141.3940 C   0  0  0  0  0  3  0  0  0  0  0  0
  191.0240  174.0290  140.8660 C   0  0  0  0  0  2  0  0  0  0  0  0
  190.5520  172.8890  139.9750 C   0  0  0  0  0  2  0  0  0  0  0  0
  188.7130  173.5930  138.4510 C   0  0  0  0  0  1  0  0  0  0  0  0
  190.2130  173.4060  138.5890 C   0  0  0  0  0  2  0  0  0  0  0  0
  1 11  1  0  0  0  0
  1  4  2  0  0  0  0
  2  5  1  0  0  0  0
  3  4  1  0  0  0  0
  4 14  1  0  0  0  0
  5 26  1  6  0  0  0
  5 18  1  0  0  0  0
  6 19  1  0  0  0  0
  8 14  2  0  0  0  0
  8  6  1  0  0  0  0
  9 19  1  0  0  0  0
  9 21  1  6  0  0  0
 10 23  1  0  0  0  0
 11 22  1  6  0  0  0
 11  8  1  0  0  0  0
 12  7  1  0  0  0  0
 13  7  1  6  0  0  0
 13  2  1  0  0  0  0
 13 15  1  0  0  0  0
 15 10  1  0  0  0  0
 16 12  2  0  0  0  0
 17  6  1  0  0  0  0
 17  9  1  0  0  0  0
 18 10  2  0  0  0  0
 19 32  1  0  0  0  0
 20 16  2  0  0  0  0
 20 22  1  0  0  0  0
 23 21  2  0  0  0  0
 24 25  2  0  0  0  0
 25 26  1  0  0  0  0
 27 25  1  0  0  0  0
 28 30  1  0  0  0  0
 30 29  2  0  0  0  0
 30 27  1  0  0  0  0
 32 31  1  0  0  0  0
 33 34  2  0  0  0  0
 34  1  1  0  0  0  0
 35 12  1  0  0  0  0
 36 35  1  0  0  0  0
 37 38  1  0  0  0  0
 38 36  1  0  0  0  0
M  END
>  <MODEL>
5

>  <REMARK>
 VINA RESULT:      -6.7      2.661      5.571
  Name = 
  8 active torsions:
  status: ('A' for Active; 'I' for Inactive)
    1  A    between atoms: C_1  and  C_28
    2  A    between atoms: C_5  and  C_32
    3  A    between atoms: C_5  and  C_38
    4  A    between atoms: C_7  and  N_35
    5  A    between atoms: C_12  and  C_15
    6  A    between atoms: C_12  and  C_20
    7  A    between atoms: C_15  and  C_29
    8  A    between atoms: C_23  and  N_31
                            x       y       z     vdW  Elec       q    Type
                         _______ _______ _______ _____ _____    ______ ____

>  <TORSDO>
F 8

$$$$
=
 OpenBabel11062421023D

 38 41  0  0  1  0  0  0  0  0999 V2000
  185.8640  178.9230  145.0650 C   0  0  0  0  0  0  0  0  0  0  0  0
  193.1430  174.4570  143.8130 C   0  0  0  0  0  2  0  0  0  0  0  0
  183.4180  178.9660  144.4540 C   0  0  0  0  0  1  0  0  0  0  0  0
  184.8430  178.5680  144.2800 C   0  0  0  0  0  0  0  0  0  0  0  0
  193.1880  173.2820  142.8050 C   0  0  2  0  0  3  0  0  0  0  0  0
  187.3300  176.8060  142.4570 N   0  0  0  0  0  0  0  0  0  0  0  0
  191.9300  176.6000  144.4110 C   0  0  0  0  0  2  0  0  0  0  0  0
  186.5420  177.5820  143.3560 C   0  0  0  0  0  0  0  0  0  0  0  0
  188.5290  175.7730  141.1730 C   0  0  2  0  0  3  0  0  0  0  0  0
  190.9450  173.8960  141.9480 C   0  0  0  0  0  0  0  0  0  0  0  0
  187.1170  178.3180  144.5200 C   0  0  2  0  0  3  0  0  0  0  0  0
  191.2530  176.6190  145.7440 C   0  0  0  0  0  0  0  0  0  0  0  0
  191.8130  175.2200  143.7920 C   0  0  1  0  0  3  0  0  0  0  0  0
  185.2690  177.7350  143.2120 N   0  0  0  0  0  0  0  0  0  0  0  0
  191.2720  175.2950  142.3730 C   0  0  0  0  0  2  0  0  0  0  0  0
  190.1300  177.2680  145.8910 C   0  0  0  0  0  0  0  0  0  0  0  0
  188.6610  176.2980  142.4760 N   0  0  0  0  0  2  0  0  0  0  0  0
  191.8500  172.9410  142.1870 C   0  0  0  0  0  3  0  0  0  0  0  0
  187.1900  176.2260  141.1530 N   0  0  0  0  0  0  0  0  0  0  0  0
  189.0040  177.9080  146.0460 C   0  0  0  0  0  3  0  0  0  0  0  0
  188.5570  174.2730  141.1830 C   0  0  0  0  0  3  0  0  0  0  0  0
  187.7340  177.3410  145.5110 C   0  0  0  0  0  2  0  0  0  0  0  0
  189.6020  173.4910  141.4880 C   0  0  0  0  0  3  0  0  0  0  0  0
  196.0230  172.7060  142.9700 O   0  0  0  0  0  0  0  0  0  0  0  0
  195.2140  171.8710  143.4580 C   0  0  0  0  0  0  0  0  0  0  0  0
  193.8020  172.1030  143.4040 N   0  0  0  0  0  2  0  0  0  0  0  0
  195.7290  170.6160  144.0710 C   0  0  0  0  0  2  0  0  0  0  0  0
  193.8090  168.9560  144.5450 C   0  0  0  0  0  1  0  0  0  0  0  0
  194.6240  170.4690  146.1450 O   0  0  0  0  0  0  0  0  0  0  0  0
  194.7200  170.0400  145.0070 C   0  0  0  0  0  0  0  0  0  0  0  0
  186.1890  176.9280  139.0550 C   0  0  0  0  0  1  0  0  0  0  0  0
  187.1130  177.3180  140.1900 C   0  0  0  0  0  2  0  0  0  0  0  0
  185.6050  179.3710  147.4860 C   0  0  0  0  0  2  0  0  0  0  0  0
  185.8440  179.7990  146.2530 C   0  0  0  0  0  3  0  0  0  0  0  0
  191.9570  176.1000  146.9530 C   0  0  0  0  0  2  0  0  0  0  0  0
  190.9850  175.3620  147.8600 C   0  0  0  0  0  2  0  0  0  0  0  0
  188.6460  174.5370  147.6380 C   0  0  0  0  0  1  0  0  0  0  0  0
  190.0400  174.5050  147.0370 C   0  0  0  0  0  2  0  0  0  0  0  0
  1 34  1  0  0  0  0
  4  3  1  0  0  0  0
  4  1  2  0  0  0  0
  5 26  1  1  0  0  0
  5  2  1  0  0  0  0
  6 17  1  0  0  0  0
  6  8  1  0  0  0  0
  7 12  1  0  0  0  0
  8 11  1  0  0  0  0
  9 21  1  1  0  0  0
  9 17  1  0  0  0  0
 10 18  2  0  0  0  0
 10 15  1  0  0  0  0
 11  1  1  0  0  0  0
 11 22  1  1  0  0  0
 12 16  2  0  0  0  0
 12 35  1  0  0  0  0
 13 15  1  6  0  0  0
 13  2  1  0  0  0  0
 13  7  1  0  0  0  0
 14  8  2  0  0  0  0
 14  4  1  0  0  0  0
 16 20  2  0  0  0  0
 18  5  1  0  0  0  0
 19  9  1  0  0  0  0
 19  6  1  0  0  0  0
 21 23  2  0  0  0  0
 22 20  1  0  0  0  0
 23 10  1  0  0  0  0
 24 25  2  0  0  0  0
 25 27  1  0  0  0  0
 26 25  1  0  0  0  0
 27 30  1  0  0  0  0
 28 30  1  0  0  0  0
 30 29  2  0  0  0  0
 31 32  1  0  0  0  0
 32 19  1  0  0  0  0
 34 33  2  0  0  0  0
 35 36  1  0  0  0  0
 38 37  1  0  0  0  0
 38 36  1  0  0  0  0
M  END
>  <MODEL>
6

>  <REMARK>
 VINA RESULT:      -6.6      1.372      1.948
  Name = 
  8 active torsions:
  status: ('A' for Active; 'I' for Inactive)
    1  A    between atoms: C_1  and  C_28
    2  A    between atoms: C_5  and  C_32
    3  A    between atoms: C_5  and  C_38
    4  A    between atoms: C_7  and  N_35
    5  A    between atoms: C_12  and  C_15
    6  A    between atoms: C_12  and  C_20
    7  A    between atoms: C_15  and  C_29
    8  A    between atoms: C_23  and  N_31
                            x       y       z     vdW  Elec       q    Type
                         _______ _______ _______ _____ _____    ______ ____

>  <TORSDO>
F 8

$$$$
=
 OpenBabel11062421023D

 38 41  0  0  1  0  0  0  0  0999 V2000
  196.2890  171.0410  143.7990 C   0  0  0  0  0  0  0  0  0  0  0  0
  188.8500  175.3810  144.3870 C   0  0  0  0  0  2  0  0  0  0  0  0
  197.8940  170.0500  142.1270 C   0  0  0  0  0  1  0  0  0  0  0  0
  196.5790  170.5840  142.5790 C   0  0  0  0  0  0  0  0  0  0  0  0
  187.9960  175.6600  143.1260 C   0  0  2  0  0  3  0  0  0  0  0  0
  193.1950  171.3900  141.8650 N   0  0  0  0  0  0  0  0  0  0  0  0
  190.6050  173.8420  145.3740 C   0  0  0  0  0  2  0  0  0  0  0  0
  194.4960  171.1680  142.4030 C   0  0  0  0  0  0  0  0  0  0  0  0
  191.2940  171.6710  141.1850 C   0  0  2  0  0  3  0  0  0  0  0  0
  189.4200  174.1370  141.7880 C   0  0  0  0  0  0  0  0  0  0  0  0
  194.8550  171.4630  143.8210 C   0  0  2  0  0  3  0  0  0  0  0  0
  191.9050  174.4810  145.7410 C   0  0  0  0  0  0  0  0  0  0  0  0
  190.0570  174.4750  144.1100 C   0  0  1  0  0  3  0  0  0  0  0  0
  195.4590  170.6600  141.7100 N   0  0  0  0  0  0  0  0  0  0  0  0
  189.6950  173.4200  143.0750 C   0  0  0  0  0  2  0  0  0  0  0  0
  193.0180  173.8130  145.5990 C   0  0  0  0  0  0  0  0  0  0  0  0
  192.0400  172.1040  142.3010 N   0  0  0  0  0  2  0  0  0  0  0  0
  188.6370  175.2190  141.8290 C   0  0  0  0  0  3  0  0  0  0  0  0
  192.4430  170.9970  140.7100 N   0  0  0  0  0  0  0  0  0  0  0  0
  194.1370  173.1560  145.4560 C   0  0  0  0  0  3  0  0  0  0  0  0
  190.9640  172.8140  140.2720 C   0  0  0  0  0  3  0  0  0  0  0  0
  194.7230  172.9530  144.1010 C   0  0  0  0  0  2  0  0  0  0  0  0
  190.1410  173.8400  140.5340 C   0  0  0  0  0  3  0  0  0  0  0  0
  185.3150  176.7170  143.4360 O   0  0  0  0  0  0  0  0  0  0  0  0
  186.2570  177.5280  143.2260 C   0  0  0  0  0  0  0  0  0  0  0  0
  187.6000  177.0630  143.0640 N   0  0  0  0  0  2  0  0  0  0  0  0
  185.9640  178.9840  143.1150 C   0  0  0  0  0  2  0  0  0  0  0  0
  185.7320  179.4340  145.6480 C   0  0  0  0  0  1  0  0  0  0  0  0
  183.9950  179.8030  144.1110 O   0  0  0  0  0  0  0  0  0  0  0  0
  185.1470  179.4410  144.2770 C   0  0  0  0  0  0  0  0  0  0  0  0
  192.7350  168.8580  139.5970 C   0  0  0  0  0  1  0  0  0  0  0  0
  192.1850  169.5660  140.8180 C   0  0  0  0  0  2  0  0  0  0  0  0
  196.8160  170.6590  146.1880 C   0  0  0  0  0  2  0  0  0  0  0  0
  197.1640  171.1020  144.9870 C   0  0  0  0  0  3  0  0  0  0  0  0
  191.9240  175.7800  146.4740 C   0  0  0  0  0  2  0  0  0  0  0  0
  192.9020  176.7460  145.8220 C   0  0  0  0  0  2  0  0  0  0  0  0
  191.5710  177.8790  144.0500 C   0  0  0  0  0  1  0  0  0  0  0  0
  192.6390  176.8380  144.3300 C   0  0  0  0  0  2  0  0  0  0  0  0
  1 11  1  0  0  0  0
  1 34  1  0  0  0  0
  3  4  1  0  0  0  0
  4  1  2  0  0  0  0
  5 26  1  6  0  0  0
  5  2  1  0  0  0  0
  6 17  1  0  0  0  0
  6  8  1  0  0  0  0
  7 12  1  0  0  0  0
  8 11  1  0  0  0  0
  9 21  1  6  0  0  0
  9 17  1  0  0  0  0
 10 18  2  0  0  0  0
 10 15  1  0  0  0  0
 11 22  1  6  0  0  0
 12 35  1  0  0  0  0
 13 15  1  6  0  0  0
 13  2  1  0  0  0  0
 13  7  1  0  0  0  0
 14  8  2  0  0  0  0
 14  4  1  0  0  0  0
 16 12  2  0  0  0  0
 18  5  1  0  0  0  0
 19 32  1  0  0  0  0
 19  9  1  0  0  0  0
 19  6  1  0  0  0  0
 20 16  2  0  0  0  0
 21 23  2  0  0  0  0
 22 20  1  0  0  0  0
 23 10  1  0  0  0  0
 25 24  2  0  0  0  0
 26 25  1  0  0  0  0
 27 25  1  0  0  0  0
 27 30  1  0  0  0  0
 29 30  2  0  0  0  0
 30 28  1  0  0  0  0
 31 32  1  0  0  0  0
 34 33  2  0  0  0  0
 36 35  1  0  0  0  0
 37 38  1  0  0  0  0
 38 36  1  0  0  0  0
M  END
>  <MODEL>
7

>  <REMARK>
 VINA RESULT:      -6.5      3.098      8.853
  Name = 
  8 active torsions:
  status: ('A' for Active; 'I' for Inactive)
    1  A    between atoms: C_1  and  C_28
    2  A    between atoms: C_5  and  C_32
    3  A    between atoms: C_5  and  C_38
    4  A    between atoms: C_7  and  N_35
    5  A    between atoms: C_12  and  C_15
    6  A    between atoms: C_12  and  C_20
    7  A    between atoms: C_15  and  C_29
    8  A    between atoms: C_23  and  N_31
                            x       y       z     vdW  Elec       q    Type
                         _______ _______ _______ _____ _____    ______ ____

>  <TORSDO>
F 8

$$$$
=
 OpenBabel11062421023D

 38 41  0  0  1  0  0  0  0  0999 V2000
  187.3590  176.6470  144.0940 C   0  0  0  0  0  0  0  0  0  0  0  0
  194.7450  173.1170  141.3580 C   0  0  0  0  0  2  0  0  0  0  0  0
  186.4480  178.5480  145.4770 C   0  0  0  0  0  1  0  0  0  0  0  0
  187.4990  177.5940  145.0260 C   0  0  0  0  0  0  0  0  0  0  0  0
  196.1100  173.6380  141.8720 C   0  0  2  0  0  3  0  0  0  0  0  0
  190.8240  176.3690  145.2570 N   0  0  0  0  0  0  0  0  0  0  0  0
  192.2770  172.9530  141.9030 C   0  0  0  0  0  2  0  0  0  0  0  0
  189.4610  176.6690  144.9660 C   0  0  0  0  0  0  0  0  0  0  0  0
  192.7480  175.8370  145.6700 C   0  0  2  0  0  3  0  0  0  0  0  0
  194.9690  175.0220  143.5820 C   0  0  0  0  0  0  0  0  0  0  0  0
  188.6530  175.9100  143.9670 C   0  0  2  0  0  3  0  0  0  0  0  0
  191.3490  173.6410  140.9540 C   0  0  0  0  0  0  0  0  0  0  0  0
  193.5470  173.7650  142.0630 C   0  0  1  0  0  3  0  0  0  0  0  0
  188.8100  177.6030  145.5710 N   0  0  0  0  0  0  0  0  0  0  0  0
  193.8680  174.0060  143.5300 C   0  0  0  0  0  2  0  0  0  0  0  0
  190.2600  174.2030  141.4050 C   0  0  0  0  0  0  0  0  0  0  0  0
  191.8290  175.5750  144.6320 N   0  0  0  0  0  2  0  0  0  0  0  0
  196.0150  174.8540  142.7660 C   0  0  0  0  0  3  0  0  0  0  0  0
  191.7810  176.6680  146.2810 N   0  0  0  0  0  0  0  0  0  0  0  0
  189.1730  174.7740  141.8470 C   0  0  0  0  0  3  0  0  0  0  0  0
  193.8980  176.6690  145.1850 C   0  0  0  0  0  3  0  0  0  0  0  0
  189.2450  176.0720  142.5750 C   0  0  0  0  0  2  0  0  0  0  0  0
  194.8500  176.2960  144.3180 C   0  0  0  0  0  3  0  0  0  0  0  0
  195.8840  175.6980  139.8460 O   0  0  0  0  0  0  0  0  0  0  0  0
  196.8670  174.9110  139.7910 C   0  0  0  0  0  0  0  0  0  0  0  0
  197.0300  173.8740  140.7640 N   0  0  0  0  0  2  0  0  0  0  0  0
  197.8560  175.0410  138.6850 C   0  0  0  0  0  2  0  0  0  0  0  0
  196.8810  175.7990  136.4170 C   0  0  0  0  0  1  0  0  0  0  0  0
  196.9580  173.5530  137.0970 O   0  0  0  0  0  0  0  0  0  0  0  0
  197.2200  174.7110  137.3760 C   0  0  0  0  0  0  0  0  0  0  0  0
  191.4110  176.9770  148.6610 C   0  0  0  0  0  1  0  0  0  0  0  0
  191.3430  176.0040  147.5030 C   0  0  0  0  0  2  0  0  0  0  0  0
  185.6660  177.0360  142.3310 C   0  0  0  0  0  2  0  0  0  0  0  0
  186.1530  176.2960  143.3190 C   0  0  0  0  0  3  0  0  0  0  0  0
  191.5360  173.4950  139.4810 C   0  0  0  0  0  2  0  0  0  0  0  0
  191.8990  172.0610  139.1300 C   0  0  0  0  0  2  0  0  0  0  0  0
  193.5260  173.4460  137.8520 C   0  0  0  0  0  1  0  0  0  0  0  0
  193.0830  172.0320  138.1800 C   0  0  0  0  0  2  0  0  0  0  0  0
  1  4  2  0  0  0  0
  2  5  1  0  0  0  0
  4  3  1  0  0  0  0
  4 14  1  0  0  0  0
  5 26  1  6  0  0  0
  5 18  1  0  0  0  0
  6 19  1  0  0  0  0
  7 13  1  0  0  0  0
  8  6  1  0  0  0  0
  8 14  2  0  0  0  0
  9 21  1  6  0  0  0
  9 19  1  0  0  0  0
 10 23  1  0  0  0  0
 11 22  1  6  0  0  0
 11  1  1  0  0  0  0
 11  8  1  0  0  0  0
 12 16  2  0  0  0  0
 12  7  1  0  0  0  0
 13  2  1  1  0  0  0
 13 15  1  0  0  0  0
 15 10  1  0  0  0  0
 16 20  2  0  0  0  0
 17  6  1  0  0  0  0
 17  9  1  0  0  0  0
 18 10  2  0  0  0  0
 19 32  1  0  0  0  0
 20 22  1  0  0  0  0
 23 21  2  0  0  0  0
 25 24  2  0  0  0  0
 25 26  1  0  0  0  0
 27 25  1  0  0  0  0
 28 30  1  0  0  0  0
 29 30  2  0  0  0  0
 30 27  1  0  0  0  0
 32 31  1  0  0  0  0
 33 34  2  0  0  0  0
 34  1  1  0  0  0  0
 35 12  1  0  0  0  0
 36 35  1  0  0  0  0
 37 38  1  0  0  0  0
 38 36  1  0  0  0  0
M  END
>  <MODEL>
8

>  <REMARK>
 VINA RESULT:      -6.4      3.612      6.355
  Name = 
  8 active torsions:
  status: ('A' for Active; 'I' for Inactive)
    1  A    between atoms: C_1  and  C_28
    2  A    between atoms: C_5  and  C_32
    3  A    between atoms: C_5  and  C_38
    4  A    between atoms: C_7  and  N_35
    5  A    between atoms: C_12  and  C_15
    6  A    between atoms: C_12  and  C_20
    7  A    between atoms: C_15  and  C_29
    8  A    between atoms: C_23  and  N_31
                            x       y       z     vdW  Elec       q    Type
                         _______ _______ _______ _____ _____    ______ ____

>  <TORSDO>
F 8

$$$$
=
 OpenBabel11062421023D

 38 41  0  0  1  0  0  0  0  0999 V2000
  186.6360  177.2570  146.1930 C   0  0  0  0  0  0  0  0  0  0  0  0
  191.9310  173.6950  140.3820 C   0  0  0  0  0  2  0  0  0  0  0  0
  186.5540  178.9950  148.0180 C   0  0  0  0  0  1  0  0  0  0  0  0
  187.2320  178.0510  147.0870 C   0  0  0  0  0  0  0  0  0  0  0  0
  193.4380  174.0500  140.3620 C   0  0  2  0  0  3  0  0  0  0  0  0
  190.2240  176.5980  145.8420 N   0  0  0  0  0  0  0  0  0  0  0  0
  189.8650  173.6100  141.8460 C   0  0  0  0  0  2  0  0  0  0  0  0
  188.8990  177.0220  146.1520 C   0  0  0  0  0  0  0  0  0  0  0  0
  192.0840  175.8930  145.3960 C   0  0  2  0  0  3  0  0  0  0  0  0
  193.2140  175.2450  142.5220 C   0  0  0  0  0  0  0  0  0  0  0  0
  187.6860  176.4660  145.4840 C   0  0  2  0  0  3  0  0  0  0  0  0
  188.7270  174.4840  141.4240 C   0  0  0  0  0  0  0  0  0  0  0  0
  191.1820  174.3090  141.5710 C   0  0  1  0  0  3  0  0  0  0  0  0
  188.6430  177.9000  147.0620 N   0  0  0  0  0  0  0  0  0  0  0  0
  192.0710  174.3190  142.8050 C   0  0  0  0  0  2  0  0  0  0  0  0
  187.9700  175.0430  142.3280 C   0  0  0  0  0  0  0  0  0  0  0  0
  190.8110  175.8390  144.7880 N   0  0  0  0  0  2  0  0  0  0  0  0
  193.8360  175.1300  141.3440 C   0  0  0  0  0  3  0  0  0  0  0  0
  191.5300  176.6870  146.4260 N   0  0  0  0  0  0  0  0  0  0  0  0
  187.2110  175.6130  143.2250 C   0  0  0  0  0  3  0  0  0  0  0  0
  193.0430  176.7110  144.5830 C   0  0  0  0  0  3  0  0  0  0  0  0
  187.7070  176.7870  143.9960 C   0  0  0  0  0  2  0  0  0  0  0  0
  193.5360  176.4060  143.3740 C   0  0  0  0  0  3  0  0  0  0  0  0
  196.0760  173.6100  139.2450 O   0  0  0  0  0  0  0  0  0  0  0  0
  195.1980  174.1410  138.5140 C   0  0  0  0  0  0  0  0  0  0  0  0
  193.8780  174.3830  139.0120 N   0  0  0  0  0  2  0  0  0  0  0  0
  195.5450  174.5480  137.1240 C   0  0  0  0  0  2  0  0  0  0  0  0
  193.7400  173.7240  135.4700 C   0  0  0  0  0  1  0  0  0  0  0  0
  195.7160  172.5360  135.9120 O   0  0  0  0  0  0  0  0  0  0  0  0
  195.0540  173.5330  136.1450 C   0  0  0  0  0  0  0  0  0  0  0  0
  191.5700  176.7960  148.8520 C   0  0  0  0  0  1  0  0  0  0  0  0
  191.5260  175.8850  147.6420 C   0  0  0  0  0  2  0  0  0  0  0  0
  184.3570  178.1100  145.7390 C   0  0  0  0  0  2  0  0  0  0  0  0
  185.1910  177.0970  145.9300 C   0  0  0  0  0  3  0  0  0  0  0  0
  188.3120  174.5380  139.9920 C   0  0  0  0  0  2  0  0  0  0  0  0
  188.3110  173.1440  139.3850 C   0  0  0  0  0  2  0  0  0  0  0  0
  188.2020  174.5980  137.3660 C   0  0  0  0  0  1  0  0  0  0  0  0
  188.5570  173.2180  137.8890 C   0  0  0  0  0  2  0  0  0  0  0  0
  1  4  2  0  0  0  0
  4  3  1  0  0  0  0
  5 26  1  6  0  0  0
  5  2  1  0  0  0  0
  5 18  1  0  0  0  0
  6  8  1  0  0  0  0
  6 19  1  0  0  0  0
  8 14  2  0  0  0  0
  9 21  1  6  0  0  0
  9 19  1  0  0  0  0
 10 15  1  0  0  0  0
 10 23  1  0  0  0  0
 11 22  1  6  0  0  0
 11  8  1  0  0  0  0
 11  1  1  0  0  0  0
 12  7  1  0  0  0  0
 12 16  2  0  0  0  0
 13  2  1  6  0  0  0
 13  7  1  0  0  0  0
 13 15  1  0  0  0  0
 14  4  1  0  0  0  0
 16 20  2  0  0  0  0
 17  9  1  0  0  0  0
 17  6  1  0  0  0  0
 18 10  2  0  0  0  0
 19 32  1  0  0  0  0
 20 22  1  0  0  0  0
 23 21  2  0  0  0  0
 25 26  1  0  0  0  0
 25 24  2  0  0  0  0
 27 25  1  0  0  0  0
 28 30  1  0  0  0  0
 29 30  2  0  0  0  0
 30 27  1  0  0  0  0
 32 31  1  0  0  0  0
 33 34  2  0  0  0  0
 34  1  1  0  0  0  0
 35 12  1  0  0  0  0
 36 35  1  0  0  0  0
 37 38  1  0  0  0  0
 38 36  1  0  0  0  0
M  END
>  <MODEL>
9

>  <REMARK>
 VINA RESULT:      -6.3      3.365      6.220
  Name = 
  8 active torsions:
  status: ('A' for Active; 'I' for Inactive)
    1  A    between atoms: C_1  and  C_28
    2  A    between atoms: C_5  and  C_32
    3  A    between atoms: C_5  and  C_38
    4  A    between atoms: C_7  and  N_35
    5  A    between atoms: C_12  and  C_15
    6  A    between atoms: C_12  and  C_20
    7  A    between atoms: C_15  and  C_29
    8  A    between atoms: C_23  and  N_31
                            x       y       z     vdW  Elec       q    Type
                         _______ _______ _______ _____ _____    ______ ____

>  <TORSDO>
F 8

$$$$
