=
 OpenBabel11072409343D

 63 71  0  0  1  0  0  0  0  0999 V2000
  194.4920  174.9490  142.4600 C   0  0  2  0  0  3  0  0  0  0  0  0
  195.3400  172.7730  143.3250 C   0  0  2  0  0  3  0  0  0  0  0  0
  196.1960  170.8290  144.0700 O   0  0  0  0  0  0  0  0  0  0  0  0
  195.5870  170.0110  146.1640 N   0  0  0  0  0  1  0  0  0  0  0  0
  195.1720  171.7580  144.4240 C   0  0  2  0  0  0  0  0  0  0  0  0
  194.4960  169.2980  144.1390 F   0  0  0  0  0  0  0  0  0  0  0  0
  194.4220  173.9300  143.5990 C   0  0  2  0  0  3  0  0  0  0  0  0
  194.0890  171.9660  143.3040 C   0  0  1  0  0  0  0  0  0  0  0  0
  193.2840  173.1080  143.4970 O   0  0  0  0  0  0  0  0  0  0  0  0
  195.1590  170.3040  144.8090 C   0  0  1  0  0  0  0  0  0  0  0  0
  192.6480  171.0500  141.3700 C   0  0  1  0  0  3  0  0  0  0  0  0
  193.5560  170.0430  141.7810 O   0  0  0  0  0  0  0  0  0  0  0  0
  194.0140  171.3680  141.8700 C   0  0  2  0  0  0  0  0  0  0  0  0
  196.9190  172.6520  138.8860 C   0  0  0  0  0  0  0  0  0  0  0  0
  195.7590  173.4880  139.2440 C   0  0  0  0  0  0  0  0  0  0  0  0
  196.5510  175.2000  137.6960 C   0  0  0  0  0  3  0  0  0  0  0  0
  194.8510  173.0130  140.1940 O   0  0  0  0  0  0  0  0  0  0  0  0
  197.0690  171.4740  139.4920 C   0  0  0  0  0  3  0  0  0  0  0  0
  196.3650  169.6890  141.1570 C   0  0  0  0  0  1  0  0  0  0  0  0
  197.6250  174.4920  137.3300 C   0  0  0  0  0  3  0  0  0  0  0  0
  196.0990  171.0020  140.5020 C   0  0  0  0  0  0  0  0  0  0  0  0
  195.0320  171.7710  140.8240 C   0  0  0  0  0  0  0  0  0  0  0  0
  197.9320  173.1230  137.8810 C   0  0  0  0  0  2  0  0  0  0  0  0
  195.5860  174.6830  138.6820 C   0  0  0  0  0  3  0  0  0  0  0  0
  192.5610  171.0510  139.9660 O   0  0  0  0  0  0  0  0  0  0  0  0
  189.6340  171.8730  137.9610 O   0  0  0  0  0  1  0  0  0  0  0  0
  191.3530  171.6940  139.6380 C   0  0  1  0  0  0  0  0  0  0  0  0
  191.5680  172.9640  138.8470 C   0  0  0  0  0  2  0  0  0  0  0  0
  191.0120  171.7270  138.1530 C   0  0  2  0  0  3  0  0  0  0  0  0
  190.2440  171.7890  140.6930 C   0  0  0  0  0  2  0  0  0  0  0  0
  188.5790  173.5000  140.7150 O   0  0  0  0  0  1  0  0  0  0  0  0
  189.9150  173.2350  141.0240 C   0  0  0  0  0  2  0  0  0  0  0  0
  196.1010  176.2340  143.9280 O   0  0  0  0  0  1  0  0  0  0  0  0
  196.1330  176.7700  141.5560 C   0  0  0  0  0  2  0  0  0  0  0  0
  196.8290  175.5650  141.8250 O   0  0  0  0  0  0  0  0  0  0  0  0
  195.7210  175.8570  142.6390 C   0  0  2  0  0  0  0  0  0  0  0  0
  193.1790  175.7160  142.3200 C   0  0  0  0  0  2  0  0  0  0  0  0
  193.0270  176.6540  143.5040 C   0  0  0  0  0  2  0  0  0  0  0  0
  191.6180  178.5030  144.0130 O   0  0  0  0  0  0  0  0  0  0  0  0
  191.7340  177.3840  143.4460 C   0  0  0  0  0  0  0  0  0  0  0  0
  190.6300  176.7920  142.7640 N   0  0  0  0  0  2  0  0  0  0  0  0
  189.3170  177.4200  142.7270 C   0  0  0  0  0  2  0  0  0  0  0  0
  188.5060  176.8630  141.5660 C   0  0  0  0  0  2  0  0  0  0  0  0
  187.2210  177.5440  141.4620 N   0  0  0  0  0  2  0  0  0  0  0  0
  187.0350  178.3270  142.6730 C   0  0  0  0  0  2  0  0  0  0  0  0
  185.5990  178.8250  142.7370 C   0  0  1  0  0  3  0  0  0  0  0  0
  184.8480  178.2330  141.7190 O   0  0  0  0  0  1  0  0  0  0  0  0
  183.5570  178.7600  144.0180 O   0  0  0  0  0  1  0  0  0  0  0  0
  184.9390  178.5600  144.0900 C   0  0  1  0  0  3  0  0  0  0  0  0
  185.2380  177.1570  144.5890 C   0  0  0  0  0  2  0  0  0  0  0  0
  185.1090  177.1110  145.9880 O   0  0  0  0  0  0  0  0  0  0  0  0
  186.2910  177.6280  146.5700 C   0  0  1  0  0  3  0  0  0  0  0  0
  185.9950  179.4640  147.7720 C   0  0  0  0  0  1  0  0  0  0  0  0
  186.0590  178.0740  147.8780 O   0  0  0  0  0  0  0  0  0  0  0  0
  187.4660  176.6440  146.5180 C   0  0  2  0  0  3  0  0  0  0  0  0
  187.4430  175.8050  147.6320 O   0  0  0  0  0  1  0  0  0  0  0  0
  188.7860  177.3950  146.4730 C   0  0  0  0  0  2  0  0  0  0  0  0
  189.9220  176.4310  146.4610 C   0  0  0  0  0  0  0  0  0  0  0  0
  189.8280  175.2460  145.7200 C   0  0  0  0  0  3  0  0  0  0  0  0
  192.1600  175.8170  147.1590 C   0  0  0  0  0  3  0  0  0  0  0  0
  192.0620  174.6300  146.4250 C   0  0  0  0  0  3  0  0  0  0  0  0
  191.0910  176.7150  147.1790 C   0  0  0  0  0  3  0  0  0  0  0  0
  190.8970  174.3450  145.7040 C   0  0  0  0  0  3  0  0  0  0  0  0
  1 37  1  1  0  0  0
  1 36  1  0  0  0  0
  1  7  1  0  0  0  0
  2  7  1  0  0  0  0
  2  5  1  0  0  0  0
  3  5  1  0  0  0  0
  3 10  1  0  0  0  0
  5 10  1  0  0  0  0
  6 10  1  0  0  0  0
  8  2  1  0  0  0  0
  8  9  1  0  0  0  0
  8  5  1  0  0  0  0
  9  7  1  0  0  0  0
 10  4  1  0  0  0  0
 11 12  1  0  0  0  0
 11 13  1  0  0  0  0
 12 13  1  0  0  0  0
 13  8  1  0  0  0  0
 14 15  1  0  0  0  0
 14 18  2  0  0  0  0
 15 17  1  0  0  0  0
 16 24  1  0  0  0  0
 17 22  1  0  0  0  0
 18 21  1  0  0  0  0
 20 16  2  0  0  0  0
 20 23  1  0  0  0  0
 21 22  2  0  0  0  0
 21 19  1  0  0  0  0
 22 13  1  0  0  0  0
 23 14  1  0  0  0  0
 24 15  2  0  0  0  0
 25 11  1  0  0  0  0
 26 29  1  0  0  0  0
 27 25  1  0  0  0  0
 27 30  1  0  0  0  0
 28 27  1  0  0  0  0
 29 28  1  0  0  0  0
 29 27  1  0  0  0  0
 30 32  1  0  0  0  0
 31 32  1  0  0  0  0
 34 35  1  0  0  0  0
 34 36  1  0  0  0  0
 35 36  1  0  0  0  0
 36 33  1  0  0  0  0
 37 38  1  0  0  0  0
 40 38  1  0  0  0  0
 40 39  2  0  0  0  0
 41 40  1  0  0  0  0
 42 41  1  0  0  0  0
 43 42  1  0  0  0  0
 44 43  1  0  0  0  0
 44 45  1  0  0  0  0
 45 46  1  0  0  0  0
 46 49  1  0  0  0  0
 47 46  1  0  0  0  0
 48 49  1  0  0  0  0
 49 50  1  0  0  0  0
 50 51  1  0  0  0  0
 51 52  1  0  0  0  0
 52 54  1  0  0  0  0
 53 54  1  0  0  0  0
 55 52  1  0  0  0  0
 55 56  1  0  0  0  0
 57 55  1  0  0  0  0
 58 57  1  0  0  0  0
 58 62  1  0  0  0  0
 59 58  2  0  0  0  0
 60 62  2  0  0  0  0
 61 60  1  0  0  0  0
 63 59  1  0  0  0  0
 63 61  2  0  0  0  0
M  END
>  <MODEL>
1

>  <REMARK>
 VINA RESULT:      -5.7      0.000      0.000
  Name = 
  24 active torsions:
  status: ('A' for Active; 'I' for Inactive)
    1  A    between atoms: O_3  and  C_44
    2  A    between atoms: O_3  and  C_47
    3  A    between atoms: C_6  and  C_7
    4  A    between atoms: C_6  and  C_28
    5  A    between atoms: C_11  and  C_60
    6  A    between atoms: C_21  and  C_38
    7  A    between atoms: C_21  and  C_46
    8  A    between atoms: O_23  and  C_27
    9  A    between atoms: O_23  and  C_33
   10  A    between atoms: O_24  and  C_44
   11  A    between atoms: C_28  and  C_44
   12  A    between atoms: C_31  and  C_32
   13  A    between atoms: C_31  and  C_37
   14  A    between atoms: C_31  and  C_63
   15  A    between atoms: C_33  and  C_48
   16  A    between atoms: C_34  and  C_48
   17  A    between atoms: C_36  and  C_62
   18  A    between atoms: C_37  and  C_60
   19  A    between atoms: C_38  and  C_47
   20  A    between atoms: N_39  and  C_45
   21  A    between atoms: C_45  and  C_50
   22  A    between atoms: C_46  and  N_52
   23  A    between atoms: C_49  and  C_62
   24  A    between atoms: C_50  and  N_52
                            x       y       z     vdW  Elec       q    Type
                         _______ _______ _______ _____ _____    ______ ____

>  <TORSDO>
F 24

$$$$
=
 OpenBabel11072409343D

 63 71  0  0  1  0  0  0  0  0999 V2000
  194.7910  174.5470  141.6750 C   0  0  2  0  0  3  0  0  0  0  0  0
  195.7800  172.2660  141.8170 C   0  0  2  0  0  3  0  0  0  0  0  0
  196.7550  170.2390  141.9030 O   0  0  0  0  0  0  0  0  0  0  0  0
  196.4950  168.8960  143.7880 N   0  0  0  0  0  1  0  0  0  0  0  0
  195.7960  171.0020  142.6340 C   0  0  2  0  0  0  0  0  0  0  0  0
  195.0980  168.6620  141.8400 F   0  0  0  0  0  0  0  0  0  0  0  0
  194.9100  173.2730  142.5140 C   0  0  2  0  0  3  0  0  0  0  0  0
  194.5460  171.4330  141.7840 C   0  0  1  0  0  0  0  0  0  0  0  0
  193.7760  172.4510  142.3830 O   0  0  0  0  0  0  0  0  0  0  0  0
  195.8530  169.4990  142.6340 C   0  0  1  0  0  0  0  0  0  0  0  0
  192.8050  171.1670  139.8980 C   0  0  1  0  0  3  0  0  0  0  0  0
  193.6080  170.0010  139.9480 O   0  0  0  0  0  0  0  0  0  0  0  0
  194.2460  171.2100  140.2740 C   0  0  2  0  0  0  0  0  0  0  0  0
  196.9760  172.8610  137.3050 C   0  0  0  0  0  0  0  0  0  0  0  0
  195.9810  173.7040  137.9940 C   0  0  0  0  0  0  0  0  0  0  0  0
  196.8330  175.6460  136.7860 C   0  0  0  0  0  3  0  0  0  0  0  0
  195.1200  173.1130  138.9220 O   0  0  0  0  0  0  0  0  0  0  0  0
  197.0270  171.5630  137.6030 C   0  0  0  0  0  3  0  0  0  0  0  0
  196.2640  169.5130  138.8950 C   0  0  0  0  0  1  0  0  0  0  0  0
  197.7590  174.9380  136.1310 C   0  0  0  0  0  3  0  0  0  0  0  0
  196.1120  170.9660  138.5970 C   0  0  0  0  0  0  0  0  0  0  0  0
  195.1960  171.7430  139.2230 C   0  0  0  0  0  0  0  0  0  0  0  0
  197.9340  173.4510  136.3100 C   0  0  0  0  0  2  0  0  0  0  0  0
  195.9140  175.0120  137.7470 C   0  0  0  0  0  3  0  0  0  0  0  0
  192.5760  171.5170  138.5550 O   0  0  0  0  0  0  0  0  0  0  0  0
  189.9830  173.6510  137.1490 O   0  0  0  0  0  1  0  0  0  0  0  0
  191.3860  172.2680  138.5320 C   0  0  1  0  0  0  0  0  0  0  0  0
  191.6080  173.7170  138.9000 C   0  0  0  0  0  2  0  0  0  0  0  0
  191.3120  173.3420  137.4530 C   0  0  2  0  0  3  0  0  0  0  0  0
  190.1050  171.6600  139.1130 C   0  0  0  0  0  2  0  0  0  0  0  0
  188.3770  172.9470  140.1410 O   0  0  0  0  0  1  0  0  0  0  0  0
  189.6480  172.4100  140.3540 C   0  0  0  0  0  2  0  0  0  0  0  0
  196.5170  175.4720  143.2740 O   0  0  0  0  0  1  0  0  0  0  0  0
  196.0900  176.7770  141.2670 C   0  0  0  0  0  2  0  0  0  0  0  0
  196.9210  175.6610  140.9940 O   0  0  0  0  0  0  0  0  0  0  0  0
  195.9520  175.5040  141.9990 C   0  0  2  0  0  0  0  0  0  0  0  0
  193.4110  175.1850  141.8280 C   0  0  0  0  0  2  0  0  0  0  0  0
  193.1740  175.5030  143.2930 C   0  0  0  0  0  2  0  0  0  0  0  0
  191.2720  176.5270  144.2920 O   0  0  0  0  0  0  0  0  0  0  0  0
  191.7210  175.5770  143.5960 C   0  0  0  0  0  0  0  0  0  0  0  0
  190.8550  174.5530  143.1100 N   0  0  0  0  0  2  0  0  0  0  0  0
  189.4340  174.5280  143.4260 C   0  0  0  0  0  2  0  0  0  0  0  0
  188.7270  175.6850  142.7350 C   0  0  0  0  0  2  0  0  0  0  0  0
  187.4880  176.0170  143.4270 N   0  0  0  0  0  2  0  0  0  0  0  0
  186.5210  176.4400  142.4260 C   0  0  0  0  0  2  0  0  0  0  0  0
  186.6160  177.9470  142.2370 C   0  0  1  0  0  3  0  0  0  0  0  0
  186.9720  178.2350  140.9190 O   0  0  0  0  0  1  0  0  0  0  0  0
  184.2540  177.7710  142.6900 O   0  0  0  0  0  1  0  0  0  0  0  0
  185.3190  178.6720  142.5950 C   0  0  1  0  0  3  0  0  0  0  0  0
  185.4580  179.4530  143.8900 C   0  0  0  0  0  2  0  0  0  0  0  0
  186.4020  178.8280  144.7240 O   0  0  0  0  0  0  0  0  0  0  0  0
  185.8610  178.7310  146.0290 C   0  0  1  0  0  3  0  0  0  0  0  0
  185.0370  176.6890  146.2690 C   0  0  0  0  0  1  0  0  0  0  0  0
  184.6590  178.0100  146.0260 O   0  0  0  0  0  0  0  0  0  0  0  0
  186.8510  178.1570  147.0480 C   0  0  2  0  0  3  0  0  0  0  0  0
  186.7150  178.8090  148.2740 O   0  0  0  0  0  1  0  0  0  0  0  0
  188.2780  178.3090  146.5460 C   0  0  0  0  0  2  0  0  0  0  0  0
  189.0840  177.1170  146.9340 C   0  0  0  0  0  0  0  0  0  0  0  0
  190.3820  177.2820  147.4350 C   0  0  0  0  0  3  0  0  0  0  0  0
  189.2920  174.7160  147.1840 C   0  0  0  0  0  3  0  0  0  0  0  0
  190.5900  174.8800  147.6770 C   0  0  0  0  0  3  0  0  0  0  0  0
  188.5400  175.8320  146.8100 C   0  0  0  0  0  3  0  0  0  0  0  0
  191.1350  176.1630  147.8040 C   0  0  0  0  0  3  0  0  0  0  0  0
  1 37  1  1  0  0  0
  1 36  1  0  0  0  0
  1  7  1  0  0  0  0
  2  7  1  0  0  0  0
  2  5  1  0  0  0  0
  3  5  1  0  0  0  0
  3 10  1  0  0  0  0
  5 10  1  0  0  0  0
  6 10  1  0  0  0  0
  8  2  1  0  0  0  0
  8  9  1  0  0  0  0
  8  5  1  0  0  0  0
  9  7  1  0  0  0  0
 10  4  1  0  0  0  0
 11 12  1  0  0  0  0
 11 13  1  0  0  0  0
 12 13  1  0  0  0  0
 13  8  1  0  0  0  0
 14 18  2  0  0  0  0
 14 15  1  0  0  0  0
 15 17  1  0  0  0  0
 16 24  1  0  0  0  0
 17 22  1  0  0  0  0
 18 21  1  0  0  0  0
 20 23  1  0  0  0  0
 20 16  2  0  0  0  0
 21 19  1  0  0  0  0
 21 22  2  0  0  0  0
 22 13  1  0  0  0  0
 23 14  1  0  0  0  0
 24 15  2  0  0  0  0
 25 11  1  0  0  0  0
 26 29  1  0  0  0  0
 27 25  1  0  0  0  0
 27 28  1  0  0  0  0
 27 30  1  0  0  0  0
 29 27  1  0  0  0  0
 29 28  1  0  0  0  0
 30 32  1  0  0  0  0
 31 32  1  0  0  0  0
 34 36  1  0  0  0  0
 35 34  1  0  0  0  0
 35 36  1  0  0  0  0
 36 33  1  0  0  0  0
 37 38  1  0  0  0  0
 38 40  1  0  0  0  0
 40 39  2  0  0  0  0
 41 42  1  0  0  0  0
 41 40  1  0  0  0  0
 43 42  1  0  0  0  0
 43 44  1  0  0  0  0
 45 44  1  0  0  0  0
 46 45  1  0  0  0  0
 46 49  1  0  0  0  0
 47 46  1  0  0  0  0
 49 48  1  0  0  0  0
 49 50  1  0  0  0  0
 50 51  1  0  0  0  0
 51 52  1  0  0  0  0
 52 55  1  0  0  0  0
 54 52  1  0  0  0  0
 54 53  1  0  0  0  0
 55 56  1  0  0  0  0
 57 58  1  0  0  0  0
 57 55  1  0  0  0  0
 58 59  1  0  0  0  0
 59 63  2  0  0  0  0
 60 61  2  0  0  0  0
 61 63  1  0  0  0  0
 62 58  2  0  0  0  0
 62 60  1  0  0  0  0
M  END
>  <MODEL>
2

>  <REMARK>
 VINA RESULT:      -5.2      1.521      1.884
  Name = 
  24 active torsions:
  status: ('A' for Active; 'I' for Inactive)
    1  A    between atoms: O_3  and  C_44
    2  A    between atoms: O_3  and  C_47
    3  A    between atoms: C_6  and  C_7
    4  A    between atoms: C_6  and  C_28
    5  A    between atoms: C_11  and  C_60
    6  A    between atoms: C_21  and  C_38
    7  A    between atoms: C_21  and  C_46
    8  A    between atoms: O_23  and  C_27
    9  A    between atoms: O_23  and  C_33
   10  A    between atoms: O_24  and  C_44
   11  A    between atoms: C_28  and  C_44
   12  A    between atoms: C_31  and  C_32
   13  A    between atoms: C_31  and  C_37
   14  A    between atoms: C_31  and  C_63
   15  A    between atoms: C_33  and  C_48
   16  A    between atoms: C_34  and  C_48
   17  A    between atoms: C_36  and  C_62
   18  A    between atoms: C_37  and  C_60
   19  A    between atoms: C_38  and  C_47
   20  A    between atoms: N_39  and  C_45
   21  A    between atoms: C_45  and  C_50
   22  A    between atoms: C_46  and  N_52
   23  A    between atoms: C_49  and  C_62
   24  A    between atoms: C_50  and  N_52
                            x       y       z     vdW  Elec       q    Type
                         _______ _______ _______ _____ _____    ______ ____

>  <TORSDO>
F 24

$$$$
=
 OpenBabel11072409343D

 63 71  0  0  1  0  0  0  0  0999 V2000
  192.8210  172.5320  140.5840 C   0  0  2  0  0  3  0  0  0  0  0  0
  194.5790  171.3560  139.2700 C   0  0  2  0  0  3  0  0  0  0  0  0
  196.2290  170.3020  138.1600 O   0  0  0  0  0  0  0  0  0  0  0  0
  195.7410  168.4720  136.8040 N   0  0  0  0  0  1  0  0  0  0  0  0
  194.8020  170.3250  138.1970 C   0  0  2  0  0  0  0  0  0  0  0  0
  195.9380  170.7060  135.9260 F   0  0  0  0  0  0  0  0  0  0  0  0
  193.1070  171.4310  139.5610 C   0  0  2  0  0  3  0  0  0  0  0  0
  194.1820  171.7350  137.8860 C   0  0  1  0  0  0  0  0  0  0  0  0
  192.8240  171.8500  138.2480 O   0  0  0  0  0  0  0  0  0  0  0  0
  195.6070  169.9040  136.9970 C   0  0  1  0  0  0  0  0  0  0  0  0
  194.1890  174.0140  136.6760 C   0  0  1  0  0  3  0  0  0  0  0  0
  195.3530  173.2960  136.3060 O   0  0  0  0  0  0  0  0  0  0  0  0
  194.8880  173.0950  137.6170 C   0  0  2  0  0  0  0  0  0  0  0  0
  197.1670  174.9640  140.8270 C   0  0  0  0  0  0  0  0  0  0  0  0
  195.6920  174.9810  140.8150 C   0  0  1  0  0  3  0  0  0  0  0  0
  195.7180  176.1610  142.9510 C   0  0  0  0  0  3  0  0  0  0  0  0
  195.0180  174.3820  139.7480 O   0  0  0  0  0  0  0  0  0  0  0  0
  197.8070  174.3630  139.8230 C   0  0  0  0  0  3  0  0  0  0  0  0
  197.8630  173.0460  137.6510 C   0  0  0  0  0  1  0  0  0  0  0  0
  197.0530  176.1760  143.0230 C   0  0  0  0  0  3  0  0  0  0  0  0
  197.0670  173.7270  138.7140 C   0  0  0  0  0  0  0  0  0  0  0  0
  195.7140  173.7510  138.7030 C   0  0  0  0  0  0  0  0  0  0  0  0
  197.9390  175.5810  141.9580 C   0  0  0  0  0  3  0  0  0  0  0  0
  195.0140  175.5470  141.8110 C   0  0  0  0  0  3  0  0  0  0  0  0
  194.5220  175.3650  136.8770 O   0  0  0  0  0  0  0  0  0  0  0  0
  193.1190  178.0150  134.8110 O   0  0  0  0  0  1  0  0  0  0  0  0
  194.1850  176.0440  135.6910 C   0  0  1  0  0  0  0  0  0  0  0  0
  192.8110  175.6740  135.1820 C   0  0  0  0  0  2  0  0  0  0  0  0
  193.0400  177.0420  135.8130 C   0  0  2  0  0  3  0  0  0  0  0  0
  195.2420  176.2030  134.5930 C   0  0  0  0  0  2  0  0  0  0  0  0
  196.4480  178.2460  134.8620 O   0  0  0  0  0  1  0  0  0  0  0  0
  196.4980  176.8750  135.1240 C   0  0  0  0  0  2  0  0  0  0  0  0
  192.0440  170.8030  142.2590 O   0  0  0  0  0  1  0  0  0  0  0  0
  193.0790  172.8070  143.1700 C   0  0  0  0  0  2  0  0  0  0  0  0
  194.0500  171.9040  142.6670 O   0  0  0  0  0  0  0  0  0  0  0  0
  192.8100  171.9420  142.0060 C   0  0  2  0  0  0  0  0  0  0  0  0
  191.5480  173.2990  140.2320 C   0  0  0  0  0  2  0  0  0  0  0  0
  190.3950  172.3190  140.1210 C   0  0  0  0  0  2  0  0  0  0  0  0
  188.0580  172.6600  139.8230 O   0  0  0  0  0  0  0  0  0  0  0  0
  189.1030  172.9730  140.4540 C   0  0  0  0  0  0  0  0  0  0  0  0
  189.0690  173.9710  141.4740 N   0  0  0  0  0  2  0  0  0  0  0  0
  187.8520  174.6990  141.8030 C   0  0  0  0  0  2  0  0  0  0  0  0
  187.9920  176.1580  141.3930 C   0  0  0  0  0  2  0  0  0  0  0  0
  186.7090  176.6960  140.9600 N   0  0  0  0  0  2  0  0  0  0  0  0
  186.7430  178.1370  141.1570 C   0  0  0  0  0  2  0  0  0  0  0  0
  185.6140  178.5460  142.0910 C   0  0  1  0  0  3  0  0  0  0  0  0
  184.7150  177.4880  142.2380 O   0  0  0  0  0  1  0  0  0  0  0  0
  185.4450  180.1500  143.8830 O   0  0  0  0  0  1  0  0  0  0  0  0
  186.1140  178.9970  143.4640 C   0  0  1  0  0  3  0  0  0  0  0  0
  185.9580  177.8970  144.5000 C   0  0  0  0  0  2  0  0  0  0  0  0
  186.4700  178.3310  145.7360 O   0  0  0  0  0  0  0  0  0  0  0  0
  187.5120  177.4570  146.1270 C   0  0  1  0  0  3  0  0  0  0  0  0
  186.2850  176.8880  147.8810 C   0  0  0  0  0  1  0  0  0  0  0  0
  187.0100  176.3470  146.8180 O   0  0  0  0  0  0  0  0  0  0  0  0
  188.4070  177.0280  144.9590 C   0  0  2  0  0  3  0  0  0  0  0  0
  188.6740  175.6610  145.0310 O   0  0  0  0  0  1  0  0  0  0  0  0
  189.7140  177.8040  144.9780 C   0  0  0  0  0  2  0  0  0  0  0  0
  190.7940  176.9690  145.5760 C   0  0  0  0  0  0  0  0  0  0  0  0
  190.7780  176.6790  146.9460 C   0  0  0  0  0  3  0  0  0  0  0  0
  192.8240  175.6700  145.3230 C   0  0  0  0  0  3  0  0  0  0  0  0
  192.8120  175.3880  146.6930 C   0  0  0  0  0  3  0  0  0  0  0  0
  191.8180  176.4620  144.7650 C   0  0  0  0  0  3  0  0  0  0  0  0
  191.7890  175.8900  147.5040 C   0  0  0  0  0  3  0  0  0  0  0  0
  1 37  1  6  0  0  0
  1 36  1  0  0  0  0
  2  7  1  0  0  0  0
  3  5  1  0  0  0  0
  4 10  1  0  0  0  0
  5  2  1  0  0  0  0
  6 10  1  0  0  0  0
  7  1  1  0  0  0  0
  8  5  1  0  0  0  0
  8  9  1  0  0  0  0
  8  2  1  0  0  0  0
  9  7  1  0  0  0  0
 10  3  1  0  0  0  0
 10  5  1  0  0  0  0
 11 25  1  0  0  0  0
 11 13  1  0  0  0  0
 12 11  1  0  0  0  0
 12 13  1  0  0  0  0
 13  8  1  0  0  0  0
 13 22  1  0  0  0  0
 14 23  1  0  0  0  0
 15 14  1  0  0  0  0
 15 24  1  0  0  0  0
 16 20  1  0  0  0  0
 17 15  1  0  0  0  0
 18 14  2  0  0  0  0
 19 21  1  0  0  0  0
 21 18  1  0  0  0  0
 22 21  2  0  0  0  0
 22 17  1  0  0  0  0
 23 20  2  0  0  0  0
 24 16  2  0  0  0  0
 26 29  1  0  0  0  0
 27 29  1  0  0  0  0
 27 25  1  0  0  0  0
 28 27  1  0  0  0  0
 28 29  1  0  0  0  0
 30 32  1  0  0  0  0
 30 27  1  0  0  0  0
 31 32  1  0  0  0  0
 35 34  1  0  0  0  0
 36 33  1  0  0  0  0
 36 35  1  0  0  0  0
 36 34  1  0  0  0  0
 38 37  1  0  0  0  0
 38 40  1  0  0  0  0
 39 40  2  0  0  0  0
 40 41  1  0  0  0  0
 41 42  1  0  0  0  0
 43 42  1  0  0  0  0
 44 45  1  0  0  0  0
 44 43  1  0  0  0  0
 45 46  1  0  0  0  0
 46 47  1  0  0  0  0
 46 49  1  0  0  0  0
 49 48  1  0  0  0  0
 49 50  1  0  0  0  0
 50 51  1  0  0  0  0
 51 52  1  0  0  0  0
 52 54  1  0  0  0  0
 54 53  1  0  0  0  0
 55 57  1  0  0  0  0
 55 56  1  0  0  0  0
 55 52  1  0  0  0  0
 57 58  1  0  0  0  0
 58 59  1  0  0  0  0
 59 63  2  0  0  0  0
 60 61  2  0  0  0  0
 61 63  1  0  0  0  0
 62 60  1  0  0  0  0
 62 58  2  0  0  0  0
M  END
>  <MODEL>
3

>  <REMARK>
 VINA RESULT:      -4.9      2.928      4.933
  Name = 
  24 active torsions:
  status: ('A' for Active; 'I' for Inactive)
    1  A    between atoms: O_3  and  C_44
    2  A    between atoms: O_3  and  C_47
    3  A    between atoms: C_6  and  C_7
    4  A    between atoms: C_6  and  C_28
    5  A    between atoms: C_11  and  C_60
    6  A    between atoms: C_21  and  C_38
    7  A    between atoms: C_21  and  C_46
    8  A    between atoms: O_23  and  C_27
    9  A    between atoms: O_23  and  C_33
   10  A    between atoms: O_24  and  C_44
   11  A    between atoms: C_28  and  C_44
   12  A    between atoms: C_31  and  C_32
   13  A    between atoms: C_31  and  C_37
   14  A    between atoms: C_31  and  C_63
   15  A    between atoms: C_33  and  C_48
   16  A    between atoms: C_34  and  C_48
   17  A    between atoms: C_36  and  C_62
   18  A    between atoms: C_37  and  C_60
   19  A    between atoms: C_38  and  C_47
   20  A    between atoms: N_39  and  C_45
   21  A    between atoms: C_45  and  C_50
   22  A    between atoms: C_46  and  N_52
   23  A    between atoms: C_49  and  C_62
   24  A    between atoms: C_50  and  N_52
                            x       y       z     vdW  Elec       q    Type
                         _______ _______ _______ _____ _____    ______ ____

>  <TORSDO>
F 24

$$$$
=
 OpenBabel11072409343D

 63 71  0  0  1  0  0  0  0  0999 V2000
  191.0570  170.4050  140.4900 C   0  0  2  0  0  3  0  0  0  0  0  0
  192.2530  170.7010  142.6540 C   0  0  2  0  0  3  0  0  0  0  0  0
  193.2630  171.0310  144.6380 O   0  0  0  0  0  0  0  0  0  0  0  0
  194.2410  169.2410  145.7630 N   0  0  0  0  0  1  0  0  0  0  0  0
  193.1400  170.0060  143.6520 C   0  0  2  0  0  0  0  0  0  0  0  0
  195.5100  170.7130  144.3410 F   0  0  0  0  0  0  0  0  0  0  0  0
  191.8870  169.7200  141.5770 C   0  0  2  0  0  3  0  0  0  0  0  0
  193.6540  170.4290  142.2290 C   0  0  1  0  0  0  0  0  0  0  0  0
  193.2320  169.5700  141.1940 O   0  0  0  0  0  0  0  0  0  0  0  0
  194.2950  170.1190  144.6090 C   0  0  1  0  0  0  0  0  0  0  0  0
  194.6210  172.7520  142.8040 C   0  0  1  0  0  3  0  0  0  0  0  0
  193.4250  172.9240  142.0640 O   0  0  0  0  0  0  0  0  0  0  0  0
  194.2030  171.8000  141.7370 C   0  0  2  0  0  0  0  0  0  0  0  0
  196.3200  172.1900  137.9480 C   0  0  0  0  0  0  0  0  0  0  0  0
  195.0700  172.9270  138.2150 C   0  0  0  0  0  0  0  0  0  0  0  0
  195.2550  173.9760  136.0190 C   0  0  0  0  0  3  0  0  0  0  0  0
  194.4260  172.7450  139.4410 O   0  0  0  0  0  0  0  0  0  0  0  0
  196.8000  171.3840  138.8950 C   0  0  0  0  0  3  0  0  0  0  0  0
  196.7320  170.3260  141.2050 C   0  0  0  0  0  1  0  0  0  0  0  0
  196.3920  173.3410  135.7180 C   0  0  0  0  0  3  0  0  0  0  0  0
  196.1040  171.2200  140.1880 C   0  0  0  0  0  0  0  0  0  0  0  0
  194.9540  171.8930  140.4260 C   0  0  0  0  0  0  0  0  0  0  0  0
  197.0580  172.3610  136.6510 C   0  0  0  0  0  2  0  0  0  0  0  0
  194.5700  173.7630  137.3060 C   0  0  0  0  0  3  0  0  0  0  0  0
  195.5770  173.6850  142.3660 O   0  0  0  0  0  0  0  0  0  0  0  0
  195.2060  176.7100  144.3580 O   0  0  0  0  0  1  0  0  0  0  0  0
  195.8020  174.5650  143.4400 C   0  0  1  0  0  0  0  0  0  0  0  0
  196.9170  175.5470  143.1620 C   0  0  0  0  0  2  0  0  0  0  0  0
  195.4720  176.0280  143.1670 C   0  0  2  0  0  3  0  0  0  0  0  0
  195.7860  174.0200  144.8730 C   0  0  0  0  0  2  0  0  0  0  0  0
  196.9980  172.6890  146.4420 O   0  0  0  0  0  1  0  0  0  0  0  0
  197.1220  173.3980  145.2450 C   0  0  0  0  0  2  0  0  0  0  0  0
  192.3830  170.5420  138.3410 O   0  0  0  0  0  1  0  0  0  0  0  0
  190.4900  169.0160  138.3500 C   0  0  0  0  0  2  0  0  0  0  0  0
  191.6080  168.4600  139.0210 O   0  0  0  0  0  0  0  0  0  0  0  0
  191.4410  169.8530  139.1050 C   0  0  2  0  0  0  0  0  0  0  0  0
  191.1580  171.9260  140.5910 C   0  0  0  0  0  2  0  0  0  0  0  0
  189.8260  172.5360  140.1940 C   0  0  0  0  0  2  0  0  0  0  0  0
  189.2200  172.8870  142.4690 O   0  0  0  0  0  0  0  0  0  0  0  0
  189.2610  173.3540  141.2990 C   0  0  0  0  0  0  0  0  0  0  0  0
  188.7500  174.6550  141.0120 N   0  0  0  0  0  2  0  0  0  0  0  0
  188.1220  175.4800  142.0330 C   0  0  0  0  0  2  0  0  0  0  0  0
  188.7780  176.8530  142.0680 C   0  0  0  0  0  2  0  0  0  0  0  0
  188.0290  177.8030  141.2550 N   0  0  0  0  0  2  0  0  0  0  0  0
  186.6210  177.4490  141.3430 C   0  0  0  0  0  2  0  0  0  0  0  0
  185.8390  178.6250  141.9090 C   0  0  1  0  0  3  0  0  0  0  0  0
  184.5200  178.5780  141.4550 O   0  0  0  0  0  1  0  0  0  0  0  0
  185.4150  179.9110  143.9040 O   0  0  0  0  0  1  0  0  0  0  0  0
  185.8610  178.6720  143.4370 C   0  0  1  0  0  3  0  0  0  0  0  0
  185.0230  177.5560  144.0390 C   0  0  0  0  0  2  0  0  0  0  0  0
  185.8460  176.6920  144.7840 O   0  0  0  0  0  0  0  0  0  0  0  0
  186.1080  177.2870  146.0410 C   0  0  1  0  0  3  0  0  0  0  0  0
  184.7360  178.3680  147.4020 C   0  0  0  0  0  1  0  0  0  0  0  0
  185.0410  177.0910  146.9270 O   0  0  0  0  0  0  0  0  0  0  0  0
  187.4350  176.8270  146.6570 C   0  0  2  0  0  3  0  0  0  0  0  0
  188.1200  177.9160  147.1960 O   0  0  0  0  0  1  0  0  0  0  0  0
  188.3000  176.1470  145.6090 C   0  0  0  0  0  2  0  0  0  0  0  0
  189.6970  176.0140  146.1100 C   0  0  0  0  0  0  0  0  0  0  0  0
  189.9480  175.3640  147.3240 C   0  0  0  0  0  3  0  0  0  0  0  0
  192.0740  176.3940  145.8220 C   0  0  0  0  0  3  0  0  0  0  0  0
  192.3220  175.7510  147.0390 C   0  0  0  0  0  3  0  0  0  0  0  0
  190.7620  176.5280  145.3580 C   0  0  0  0  0  3  0  0  0  0  0  0
  191.2610  175.2340  147.7890 C   0  0  0  0  0  3  0  0  0  0  0  0
  1 37  1  6  0  0  0
  1  7  1  0  0  0  0
  2  5  1  0  0  0  0
  5 10  1  0  0  0  0
  5  3  1  0  0  0  0
  6 10  1  0  0  0  0
  7  2  1  0  0  0  0
  8  2  1  0  0  0  0
  8  5  1  0  0  0  0
  9  7  1  0  0  0  0
  9  8  1  0  0  0  0
 10  3  1  0  0  0  0
 10  4  1  0  0  0  0
 12 11  1  0  0  0  0
 13 12  1  0  0  0  0
 13  8  1  0  0  0  0
 13 11  1  0  0  0  0
 14 15  1  0  0  0  0
 14 18  2  0  0  0  0
 15 17  1  0  0  0  0
 16 24  1  0  0  0  0
 17 22  1  0  0  0  0
 18 21  1  0  0  0  0
 20 16  2  0  0  0  0
 20 23  1  0  0  0  0
 21 22  2  0  0  0  0
 21 19  1  0  0  0  0
 22 13  1  0  0  0  0
 23 14  1  0  0  0  0
 24 15  2  0  0  0  0
 25 11  1  0  0  0  0
 25 27  1  0  0  0  0
 27 30  1  0  0  0  0
 28 29  1  0  0  0  0
 28 27  1  0  0  0  0
 29 27  1  0  0  0  0
 29 26  1  0  0  0  0
 30 32  1  0  0  0  0
 32 31  1  0  0  0  0
 33 36  1  0  0  0  0
 34 35  1  0  0  0  0
 34 36  1  0  0  0  0
 35 36  1  0  0  0  0
 36  1  1  0  0  0  0
 38 37  1  0  0  0  0
 38 40  1  0  0  0  0
 40 39  2  0  0  0  0
 41 40  1  0  0  0  0
 41 42  1  0  0  0  0
 42 43  1  0  0  0  0
 44 45  1  0  0  0  0
 44 43  1  0  0  0  0
 45 46  1  0  0  0  0
 46 49  1  0  0  0  0
 47 46  1  0  0  0  0
 49 48  1  0  0  0  0
 49 50  1  0  0  0  0
 50 51  1  0  0  0  0
 51 52  1  0  0  0  0
 52 55  1  0  0  0  0
 52 54  1  0  0  0  0
 54 53  1  0  0  0  0
 55 56  1  0  0  0  0
 57 58  1  0  0  0  0
 57 55  1  0  0  0  0
 58 59  1  0  0  0  0
 59 63  2  0  0  0  0
 60 61  2  0  0  0  0
 61 63  1  0  0  0  0
 62 60  1  0  0  0  0
 62 58  2  0  0  0  0
M  END
>  <MODEL>
4

>  <REMARK>
 VINA RESULT:      -4.8      1.649      4.341
  Name = 
  24 active torsions:
  status: ('A' for Active; 'I' for Inactive)
    1  A    between atoms: O_3  and  C_44
    2  A    between atoms: O_3  and  C_47
    3  A    between atoms: C_6  and  C_7
    4  A    between atoms: C_6  and  C_28
    5  A    between atoms: C_11  and  C_60
    6  A    between atoms: C_21  and  C_38
    7  A    between atoms: C_21  and  C_46
    8  A    between atoms: O_23  and  C_27
    9  A    between atoms: O_23  and  C_33
   10  A    between atoms: O_24  and  C_44
   11  A    between atoms: C_28  and  C_44
   12  A    between atoms: C_31  and  C_32
   13  A    between atoms: C_31  and  C_37
   14  A    between atoms: C_31  and  C_63
   15  A    between atoms: C_33  and  C_48
   16  A    between atoms: C_34  and  C_48
   17  A    between atoms: C_36  and  C_62
   18  A    between atoms: C_37  and  C_60
   19  A    between atoms: C_38  and  C_47
   20  A    between atoms: N_39  and  C_45
   21  A    between atoms: C_45  and  C_50
   22  A    between atoms: C_46  and  N_52
   23  A    between atoms: C_49  and  C_62
   24  A    between atoms: C_50  and  N_52
                            x       y       z     vdW  Elec       q    Type
                         _______ _______ _______ _____ _____    ______ ____

>  <TORSDO>
F 24

$$$$
=
 OpenBabel11072409343D

 63 71  0  0  1  0  0  0  0  0999 V2000
  191.9180  171.1070  140.0160 C   0  0  2  0  0  3  0  0  0  0  0  0
  192.8150  171.2060  142.3370 C   0  0  2  0  0  3  0  0  0  0  0  0
  193.5570  171.3630  144.4570 O   0  0  0  0  0  0  0  0  0  0  0  0
  194.2360  169.4520  145.6010 N   0  0  0  0  0  1  0  0  0  0  0  0
  193.5000  170.3980  143.4060 C   0  0  2  0  0  0  0  0  0  0  0  0
  195.7940  170.8830  144.4520 F   0  0  0  0  0  0  0  0  0  0  0  0
  192.5350  170.3080  141.1660 C   0  0  2  0  0  3  0  0  0  0  0  0
  194.2390  170.8450  142.0930 C   0  0  1  0  0  0  0  0  0  0  0  0
  193.9070  170.0710  140.9630 O   0  0  0  0  0  0  0  0  0  0  0  0
  194.5150  170.3750  144.5170 C   0  0  1  0  0  0  0  0  0  0  0  0
  195.4050  172.3500  140.3510 C   0  0  1  0  0  3  0  0  0  0  0  0
  196.3070  172.0970  141.4140 O   0  0  0  0  0  0  0  0  0  0  0  0
  194.9480  172.1900  141.7600 C   0  0  2  0  0  0  0  0  0  0  0  0
  193.6800  175.8140  143.8210 C   0  0  0  0  0  0  0  0  0  0  0  0
  192.8610  175.2030  142.7570 C   0  0  1  0  0  3  0  0  0  0  0  0
  191.1740  176.9330  143.1020 C   0  0  0  0  0  3  0  0  0  0  0  0
  193.3300  174.0520  142.1190 O   0  0  0  0  0  0  0  0  0  0  0  0
  194.8370  175.2380  144.1460 C   0  0  0  0  0  3  0  0  0  0  0  0
  196.5920  173.4150  143.9170 C   0  0  0  0  0  1  0  0  0  0  0  0
  191.8670  177.5330  144.0760 C   0  0  0  0  0  3  0  0  0  0  0  0
  195.3030  174.0140  143.4630 C   0  0  0  0  0  0  0  0  0  0  0  0
  194.5510  173.4590  142.4830 C   0  0  0  0  0  0  0  0  0  0  0  0
  193.2140  177.0440  144.5470 C   0  0  0  0  0  3  0  0  0  0  0  0
  191.6860  175.7320  142.4190 C   0  0  0  0  0  3  0  0  0  0  0  0
  195.5160  173.6960  139.9580 O   0  0  0  0  0  0  0  0  0  0  0  0
  197.4760  172.7310  137.0460 O   0  0  0  0  0  1  0  0  0  0  0  0
  195.9170  173.6900  138.6100 C   0  0  1  0  0  0  0  0  0  0  0  0
  197.0090  174.6950  138.3250 C   0  0  0  0  0  2  0  0  0  0  0  0
  197.3400  173.2090  138.3530 C   0  0  2  0  0  3  0  0  0  0  0  0
  194.8520  173.5880  137.5120 C   0  0  0  0  0  2  0  0  0  0  0  0
  194.4080  175.6650  136.4210 O   0  0  0  0  0  1  0  0  0  0  0  0
  193.9850  174.8360  137.4620 C   0  0  0  0  0  2  0  0  0  0  0  0
  193.3360  170.7990  137.9450 O   0  0  0  0  0  1  0  0  0  0  0  0
  191.1110  169.8180  137.8910 C   0  0  0  0  0  2  0  0  0  0  0  0
  192.0110  169.0220  138.6430 O   0  0  0  0  0  0  0  0  0  0  0  0
  192.2100  170.4120  138.6740 C   0  0  2  0  0  0  0  0  0  0  0  0
  192.3580  172.5690  140.0570 C   0  0  0  0  0  2  0  0  0  0  0  0
  191.3150  173.4180  139.3540 C   0  0  0  0  0  2  0  0  0  0  0  0
  189.0990  172.6340  138.9800 O   0  0  0  0  0  0  0  0  0  0  0  0
  189.9450  173.0670  139.8080 C   0  0  0  0  0  0  0  0  0  0  0  0
  189.5970  173.2490  141.1800 N   0  0  0  0  0  2  0  0  0  0  0  0
  188.2540  172.9900  141.6770 C   0  0  0  0  0  2  0  0  0  0  0  0
  187.5430  174.3040  141.9670 C   0  0  0  0  0  2  0  0  0  0  0  0
  188.2550  175.4200  141.3570 N   0  0  0  0  0  2  0  0  0  0  0  0
  187.3140  176.5190  141.2110 C   0  0  0  0  0  2  0  0  0  0  0  0
  187.4500  177.4610  142.3980 C   0  0  1  0  0  3  0  0  0  0  0  0
  188.1840  178.5880  142.0250 O   0  0  0  0  0  1  0  0  0  0  0  0
  185.0520  177.4740  142.1450 O   0  0  0  0  0  1  0  0  0  0  0  0
  186.0990  177.8880  142.9730 C   0  0  1  0  0  3  0  0  0  0  0  0
  185.8980  177.3480  144.3780 C   0  0  0  0  0  2  0  0  0  0  0  0
  185.5040  178.3900  145.2370 O   0  0  0  0  0  0  0  0  0  0  0  0
  186.3400  178.3770  146.3790 C   0  0  1  0  0  3  0  0  0  0  0  0
  186.2180  179.8120  148.0620 C   0  0  0  0  0  1  0  0  0  0  0  0
  185.6130  178.6660  147.5420 O   0  0  0  0  0  0  0  0  0  0  0  0
  187.1330  177.0740  146.5280 C   0  0  2  0  0  3  0  0  0  0  0  0
  186.5620  176.2700  147.5150 O   0  0  0  0  0  1  0  0  0  0  0  0
  188.5800  177.3710  146.8880 C   0  0  0  0  0  2  0  0  0  0  0  0
  189.4470  176.2200  146.5080 C   0  0  0  0  0  0  0  0  0  0  0  0
  190.6570  176.0030  147.1780 C   0  0  0  0  0  3  0  0  0  0  0  0
  189.8520  174.2610  145.1410 C   0  0  0  0  0  3  0  0  0  0  0  0
  191.0640  174.0490  145.8050 C   0  0  0  0  0  3  0  0  0  0  0  0
  189.0440  175.3460  145.4900 C   0  0  0  0  0  3  0  0  0  0  0  0
  191.4660  174.9190  146.8250 C   0  0  0  0  0  3  0  0  0  0  0  0
  1 37  1  6  0  0  0
  1  7  1  0  0  0  0
  2  5  1  0  0  0  0
  3 10  1  0  0  0  0
  5  3  1  0  0  0  0
  5 10  1  0  0  0  0
  6 10  1  0  0  0  0
  7  2  1  0  0  0  0
  8  2  1  0  0  0  0
  8  5  1  0  0  0  0
  9  7  1  0  0  0  0
  9  8  1  0  0  0  0
 10  4  1  0  0  0  0
 11 12  1  0  0  0  0
 11 13  1  0  0  0  0
 12 13  1  0  0  0  0
 13  8  1  0  0  0  0
 13 22  1  0  0  0  0
 14 18  2  0  0  0  0
 14 23  1  0  0  0  0
 15 14  1  0  0  0  0
 16 20  1  0  0  0  0
 17 22  1  0  0  0  0
 17 15  1  0  0  0  0
 20 23  2  0  0  0  0
 21 19  1  0  0  0  0
 21 18  1  0  0  0  0
 22 21  2  0  0  0  0
 24 15  1  0  0  0  0
 24 16  2  0  0  0  0
 25 11  1  0  0  0  0
 26 29  1  0  0  0  0
 27 25  1  0  0  0  0
 28 29  1  0  0  0  0
 28 27  1  0  0  0  0
 29 27  1  0  0  0  0
 30 27  1  0  0  0  0
 31 32  1  0  0  0  0
 32 30  1  0  0  0  0
 33 36  1  0  0  0  0
 34 35  1  0  0  0  0
 34 36  1  0  0  0  0
 35 36  1  0  0  0  0
 36  1  1  0  0  0  0
 38 40  1  0  0  0  0
 38 37  1  0  0  0  0
 39 40  2  0  0  0  0
 40 41  1  0  0  0  0
 41 42  1  0  0  0  0
 42 43  1  0  0  0  0
 44 43  1  0  0  0  0
 45 44  1  0  0  0  0
 45 46  1  0  0  0  0
 46 49  1  0  0  0  0
 47 46  1  0  0  0  0
 48 49  1  0  0  0  0
 49 50  1  0  0  0  0
 50 51  1  0  0  0  0
 51 52  1  0  0  0  0
 52 55  1  0  0  0  0
 52 54  1  0  0  0  0
 54 53  1  0  0  0  0
 55 57  1  0  0  0  0
 55 56  1  0  0  0  0
 58 57  1  0  0  0  0
 58 59  1  0  0  0  0
 60 62  1  0  0  0  0
 60 61  2  0  0  0  0
 61 63  1  0  0  0  0
 62 58  2  0  0  0  0
 63 59  2  0  0  0  0
M  END
>  <MODEL>
5

>  <REMARK>
 VINA RESULT:      -4.7      1.644      4.729
  Name = 
  24 active torsions:
  status: ('A' for Active; 'I' for Inactive)
    1  A    between atoms: O_3  and  C_44
    2  A    between atoms: O_3  and  C_47
    3  A    between atoms: C_6  and  C_7
    4  A    between atoms: C_6  and  C_28
    5  A    between atoms: C_11  and  C_60
    6  A    between atoms: C_21  and  C_38
    7  A    between atoms: C_21  and  C_46
    8  A    between atoms: O_23  and  C_27
    9  A    between atoms: O_23  and  C_33
   10  A    between atoms: O_24  and  C_44
   11  A    between atoms: C_28  and  C_44
   12  A    between atoms: C_31  and  C_32
   13  A    between atoms: C_31  and  C_37
   14  A    between atoms: C_31  and  C_63
   15  A    between atoms: C_33  and  C_48
   16  A    between atoms: C_34  and  C_48
   17  A    between atoms: C_36  and  C_62
   18  A    between atoms: C_37  and  C_60
   19  A    between atoms: C_38  and  C_47
   20  A    between atoms: N_39  and  C_45
   21  A    between atoms: C_45  and  C_50
   22  A    between atoms: C_46  and  N_52
   23  A    between atoms: C_49  and  C_62
   24  A    between atoms: C_50  and  N_52
                            x       y       z     vdW  Elec       q    Type
                         _______ _______ _______ _____ _____    ______ ____

>  <TORSDO>
F 24

$$$$
=
 OpenBabel11072409343D

 63 71  0  0  1  0  0  0  0  0999 V2000
  193.1160  174.3380  144.3510 C   0  0  2  0  0  3  0  0  0  0  0  0
  192.1020  175.1880  146.4600 C   0  0  2  0  0  3  0  0  0  0  0  0
  191.1920  175.8660  148.4050 O   0  0  0  0  0  0  0  0  0  0  0  0
  191.7650  177.9370  149.3030 N   0  0  0  0  0  1  0  0  0  0  0  0
  191.9730  176.4040  147.3380 C   0  0  2  0  0  0  0  0  0  0  0  0
  189.7980  177.6230  147.9500 F   0  0  0  0  0  0  0  0  0  0  0  0
  193.0240  175.5170  145.3210 C   0  0  2  0  0  3  0  0  0  0  0  0
  191.2780  176.3110  145.9320 C   0  0  1  0  0  0  0  0  0  0  0  0
  192.1560  176.5190  144.8490 O   0  0  0  0  0  0  0  0  0  0  0  0
  191.0890  177.2290  148.2330 C   0  0  1  0  0  0  0  0  0  0  0  0
  188.7810  175.9320  146.4610 C   0  0  1  0  0  3  0  0  0  0  0  0
  189.4330  174.6760  146.4070 O   0  0  0  0  0  0  0  0  0  0  0  0
  189.9180  175.6660  145.5360 C   0  0  2  0  0  0  0  0  0  0  0  0
  188.8230  175.0100  141.3700 C   0  0  0  0  0  0  0  0  0  0  0  0
  188.9040  173.8960  142.3320 C   0  0  0  0  0  0  0  0  0  0  0  0
  188.1910  172.3620  140.5730 C   0  0  0  0  0  3  0  0  0  0  0  0
  189.2800  174.1660  143.6500 O   0  0  0  0  0  0  0  0  0  0  0  0
  189.1000  176.2430  141.7950 C   0  0  0  0  0  3  0  0  0  0  0  0
  189.7400  177.9160  143.5970 C   0  0  0  0  0  1  0  0  0  0  0  0
  188.0960  173.3280  139.6530 C   0  0  0  0  0  3  0  0  0  0  0  0
  189.4840  176.5010  143.1980 C   0  0  0  0  0  0  0  0  0  0  0  0
  189.5620  175.4750  144.0770 C   0  0  0  0  0  0  0  0  0  0  0  0
  188.4100  174.7740  139.9440 C   0  0  0  0  0  2  0  0  0  0  0  0
  188.6100  172.6520  141.9550 C   0  0  0  0  0  3  0  0  0  0  0  0
  187.5260  175.8320  145.8340 O   0  0  0  0  0  0  0  0  0  0  0  0
  186.0810  178.3570  148.0230 O   0  0  0  0  0  1  0  0  0  0  0  0
  186.8100  176.9930  146.1780 C   0  0  1  0  0  0  0  0  0  0  0  0
  185.3490  176.7160  146.4470 C   0  0  0  0  0  2  0  0  0  0  0  0
  186.2830  177.0370  147.6070 C   0  0  2  0  0  3  0  0  0  0  0  0
  187.0730  178.2910  145.4060 C   0  0  0  0  0  2  0  0  0  0  0  0
  185.4340  179.7280  144.4310 O   0  0  0  0  0  1  0  0  0  0  0  0
  186.0600  178.4880  144.2900 C   0  0  0  0  0  2  0  0  0  0  0  0
  192.1780  174.7890  142.0460 O   0  0  0  0  0  1  0  0  0  0  0  0
  194.5990  174.8580  142.2630 C   0  0  0  0  0  2  0  0  0  0  0  0
  194.0000  176.0450  142.7540 O   0  0  0  0  0  0  0  0  0  0  0  0
  193.2730  174.8520  142.9080 C   0  0  2  0  0  0  0  0  0  0  0  0
  191.9430  173.3770  144.5330 C   0  0  0  0  0  2  0  0  0  0  0  0
  192.4770  171.9600  144.6340 C   0  0  0  0  0  2  0  0  0  0  0  0
  191.6830  171.4580  142.4470 O   0  0  0  0  0  0  0  0  0  0  0  0
  192.6130  171.3430  143.2890 C   0  0  0  0  0  0  0  0  0  0  0  0
  193.7940  170.6040  142.9770 N   0  0  0  0  0  2  0  0  0  0  0  0
  193.9630  169.9180  141.7050 C   0  0  0  0  0  2  0  0  0  0  0  0
  195.2450  170.3810  141.0290 C   0  0  0  0  0  2  0  0  0  0  0  0
  194.9770  170.8340  139.6710 N   0  0  0  0  0  2  0  0  0  0  0  0
  195.0420  172.2870  139.6670 C   0  0  0  0  0  2  0  0  0  0  0  0
  195.5360  172.7670  138.3100 C   0  0  1  0  0  3  0  0  0  0  0  0
  195.5550  171.7000  137.4100 O   0  0  0  0  0  1  0  0  0  0  0  0
  194.9650  175.1070  138.4140 O   0  0  0  0  0  1  0  0  0  0  0  0
  194.6950  173.9100  137.7430 C   0  0  1  0  0  3  0  0  0  0  0  0
  194.9270  174.0850  136.2520 C   0  0  0  0  0  2  0  0  0  0  0  0
  193.7590  173.7430  135.5460 O   0  0  0  0  0  0  0  0  0  0  0  0
  192.7500  174.6870  135.8530 C   0  0  1  0  0  3  0  0  0  0  0  0
  192.9780  176.8790  135.6350 C   0  0  0  0  0  1  0  0  0  0  0  0
  192.7150  175.7180  134.9060 O   0  0  0  0  0  0  0  0  0  0  0  0
  191.3680  174.0500  136.0350 C   0  0  2  0  0  3  0  0  0  0  0  0
  190.3810  174.8720  135.4890 O   0  0  0  0  0  1  0  0  0  0  0  0
  191.0800  173.8180  137.5090 C   0  0  0  0  0  2  0  0  0  0  0  0
  190.8150  172.3720  137.7550 C   0  0  0  0  0  0  0  0  0  0  0  0
  191.4160  171.7240  138.8410 C   0  0  0  0  0  3  0  0  0  0  0  0
  189.6980  170.3100  137.1440 C   0  0  0  0  0  3  0  0  0  0  0  0
  190.3050  169.6620  138.2240 C   0  0  0  0  0  3  0  0  0  0  0  0
  189.9550  171.6630  136.9070 C   0  0  0  0  0  3  0  0  0  0  0  0
  191.1620  170.3690  139.0740 C   0  0  0  0  0  3  0  0  0  0  0  0
  1 37  1  6  0  0  0
  1  7  1  0  0  0  0
  2  5  1  0  0  0  0
  5 10  1  0  0  0  0
  5  3  1  0  0  0  0
  6 10  1  0  0  0  0
  7  2  1  0  0  0  0
  8  2  1  0  0  0  0
  8  5  1  0  0  0  0
  9  7  1  0  0  0  0
  9  8  1  0  0  0  0
 10  3  1  0  0  0  0
 10  4  1  0  0  0  0
 12 11  1  0  0  0  0
 13  8  1  0  0  0  0
 13 12  1  0  0  0  0
 13 11  1  0  0  0  0
 14 18  2  0  0  0  0
 14 15  1  0  0  0  0
 15 17  1  0  0  0  0
 16 24  1  0  0  0  0
 17 22  1  0  0  0  0
 18 21  1  0  0  0  0
 20 23  1  0  0  0  0
 20 16  2  0  0  0  0
 21 19  1  0  0  0  0
 21 22  2  0  0  0  0
 22 13  1  0  0  0  0
 23 14  1  0  0  0  0
 24 15  2  0  0  0  0
 25 27  1  0  0  0  0
 25 11  1  0  0  0  0
 27 28  1  0  0  0  0
 27 29  1  0  0  0  0
 28 29  1  0  0  0  0
 29 26  1  0  0  0  0
 30 27  1  0  0  0  0
 32 31  1  0  0  0  0
 32 30  1  0  0  0  0
 33 36  1  0  0  0  0
 34 35  1  0  0  0  0
 34 36  1  0  0  0  0
 35 36  1  0  0  0  0
 36  1  1  0  0  0  0
 37 38  1  0  0  0  0
 39 40  2  0  0  0  0
 40 38  1  0  0  0  0
 41 40  1  0  0  0  0
 42 41  1  0  0  0  0
 43 42  1  0  0  0  0
 44 43  1  0  0  0  0
 45 44  1  0  0  0  0
 46 45  1  0  0  0  0
 47 46  1  0  0  0  0
 49 46  1  0  0  0  0
 49 48  1  0  0  0  0
 50 49  1  0  0  0  0
 51 52  1  0  0  0  0
 51 50  1  0  0  0  0
 52 55  1  0  0  0  0
 54 53  1  0  0  0  0
 54 52  1  0  0  0  0
 55 57  1  0  0  0  0
 56 55  1  0  0  0  0
 57 58  1  0  0  0  0
 58 59  1  0  0  0  0
 59 63  2  0  0  0  0
 60 61  2  0  0  0  0
 61 63  1  0  0  0  0
 62 60  1  0  0  0  0
 62 58  2  0  0  0  0
M  END
>  <MODEL>
6

>  <REMARK>
 VINA RESULT:      -4.5      2.806      9.312
  Name = 
  24 active torsions:
  status: ('A' for Active; 'I' for Inactive)
    1  A    between atoms: O_3  and  C_44
    2  A    between atoms: O_3  and  C_47
    3  A    between atoms: C_6  and  C_7
    4  A    between atoms: C_6  and  C_28
    5  A    between atoms: C_11  and  C_60
    6  A    between atoms: C_21  and  C_38
    7  A    between atoms: C_21  and  C_46
    8  A    between atoms: O_23  and  C_27
    9  A    between atoms: O_23  and  C_33
   10  A    between atoms: O_24  and  C_44
   11  A    between atoms: C_28  and  C_44
   12  A    between atoms: C_31  and  C_32
   13  A    between atoms: C_31  and  C_37
   14  A    between atoms: C_31  and  C_63
   15  A    between atoms: C_33  and  C_48
   16  A    between atoms: C_34  and  C_48
   17  A    between atoms: C_36  and  C_62
   18  A    between atoms: C_37  and  C_60
   19  A    between atoms: C_38  and  C_47
   20  A    between atoms: N_39  and  C_45
   21  A    between atoms: C_45  and  C_50
   22  A    between atoms: C_46  and  N_52
   23  A    between atoms: C_49  and  C_62
   24  A    between atoms: C_50  and  N_52
                            x       y       z     vdW  Elec       q    Type
                         _______ _______ _______ _____ _____    ______ ____

>  <TORSDO>
F 24

$$$$
=
 OpenBabel11072409343D

 63 71  0  0  1  0  0  0  0  0999 V2000
  192.0900  174.0300  142.4780 C   0  0  2  0  0  3  0  0  0  0  0  0
  192.9780  171.8050  143.1570 C   0  0  2  0  0  3  0  0  0  0  0  0
  193.8730  169.8310  143.7670 O   0  0  0  0  0  0  0  0  0  0  0  0
  192.8290  168.5280  145.3910 N   0  0  0  0  0  1  0  0  0  0  0  0
  192.6620  170.5660  143.9500 C   0  0  2  0  0  0  0  0  0  0  0  0
  192.4730  168.1740  143.0360 F   0  0  0  0  0  0  0  0  0  0  0  0
  191.8570  172.7870  143.3390 C   0  0  2  0  0  3  0  0  0  0  0  0
  191.9200  170.9110  142.6090 C   0  0  1  0  0  0  0  0  0  0  0  0
  190.9310  171.9070  142.7480 O   0  0  0  0  0  0  0  0  0  0  0  0
  192.7610  169.0670  144.0460 C   0  0  1  0  0  0  0  0  0  0  0  0
  191.2300  170.4840  140.1600 C   0  0  1  0  0  3  0  0  0  0  0  0
  191.9820  169.3770  140.6230 O   0  0  0  0  0  0  0  0  0  0  0  0
  192.3430  170.6330  141.1380 C   0  0  2  0  0  0  0  0  0  0  0  0
  196.0330  172.3960  139.6300 C   0  0  0  0  0  0  0  0  0  0  0  0
  194.8080  173.1990  139.8050 C   0  0  0  0  0  0  0  0  0  0  0  0
  196.0310  175.1740  139.0590 C   0  0  0  0  0  3  0  0  0  0  0  0
  193.6500  172.5720  140.2730 O   0  0  0  0  0  0  0  0  0  0  0  0
  195.9960  171.1000  139.9390 C   0  0  0  0  0  3  0  0  0  0  0  0
  194.8200  169.0190  140.8000 C   0  0  0  0  0  1  0  0  0  0  0  0
  197.1740  174.5040  138.8830 C   0  0  0  0  0  3  0  0  0  0  0  0
  194.7600  170.4660  140.4440 C   0  0  0  0  0  0  0  0  0  0  0  0
  193.6370  171.2050  140.5970 C   0  0  0  0  0  0  0  0  0  0  0  0
  197.3070  173.0240  139.1420 C   0  0  0  0  0  2  0  0  0  0  0  0
  194.8080  174.5030  139.5330 C   0  0  0  0  0  3  0  0  0  0  0  0
  191.6120  170.7860  138.8400 O   0  0  0  0  0  0  0  0  0  0  0  0
  189.5590  173.3690  137.3000 O   0  0  0  0  0  1  0  0  0  0  0  0
  190.4820  171.3400  138.2110 C   0  0  1  0  0  0  0  0  0  0  0  0
  189.4930  171.9170  139.1970 C   0  0  0  0  0  2  0  0  0  0  0  0
  190.3370  172.8520  138.3410 C   0  0  2  0  0  3  0  0  0  0  0  0
  189.8390  170.5960  137.0350 C   0  0  0  0  0  2  0  0  0  0  0  0
  190.4600  168.4010  137.7390 O   0  0  0  0  0  1  0  0  0  0  0  0
  190.6000  169.3230  136.7010 C   0  0  0  0  0  2  0  0  0  0  0  0
  193.0590  174.9510  144.6250 O   0  0  0  0  0  1  0  0  0  0  0  0
  193.2450  176.3670  142.6560 C   0  0  0  0  0  2  0  0  0  0  0  0
  194.2150  175.3340  142.6460 O   0  0  0  0  0  0  0  0  0  0  0  0
  192.9740  175.0380  143.2340 C   0  0  2  0  0  0  0  0  0  0  0  0
  190.7700  174.6210  141.9880 C   0  0  0  0  0  2  0  0  0  0  0  0
  190.1520  175.4420  143.1050 C   0  0  0  0  0  2  0  0  0  0  0  0
  189.9230  177.8100  143.0320 O   0  0  0  0  0  0  0  0  0  0  0  0
  189.5510  176.6950  142.5780 C   0  0  0  0  0  0  0  0  0  0  0  0
  188.5390  176.6150  141.5750 N   0  0  0  0  0  2  0  0  0  0  0  0
  187.8610  177.7970  141.0650 C   0  0  0  0  0  2  0  0  0  0  0  0
  186.5090  177.4120  140.4820 C   0  0  0  0  0  2  0  0  0  0  0  0
  185.4600  177.5470  141.4850 N   0  0  0  0  0  2  0  0  0  0  0  0
  185.5800  178.8690  142.0780 C   0  0  0  0  0  2  0  0  0  0  0  0
  184.5040  179.0460  143.1390 C   0  0  1  0  0  3  0  0  0  0  0  0
  183.6680  177.9280  143.1560 O   0  0  0  0  0  1  0  0  0  0  0  0
  185.1960  180.6520  144.7980 O   0  0  0  0  0  1  0  0  0  0  0  0
  185.0800  179.2850  144.5340 C   0  0  1  0  0  3  0  0  0  0  0  0
  184.2370  178.6160  145.6060 C   0  0  0  0  0  2  0  0  0  0  0  0
  184.8220  178.8180  146.8690 O   0  0  0  0  0  0  0  0  0  0  0  0
  186.1690  178.3850  146.8190 C   0  0  1  0  0  3  0  0  0  0  0  0
  186.2250  179.9430  148.3910 C   0  0  0  0  0  1  0  0  0  0  0  0
  186.8720  178.7830  147.9630 O   0  0  0  0  0  0  0  0  0  0  0  0
  186.3070  176.8770  146.5780 C   0  0  2  0  0  3  0  0  0  0  0  0
  186.6590  176.2290  147.7620 O   0  0  0  0  0  1  0  0  0  0  0  0
  187.3570  176.6030  145.5150 C   0  0  0  0  0  2  0  0  0  0  0  0
  188.6460  176.2180  146.1580 C   0  0  0  0  0  0  0  0  0  0  0  0
  188.9530  174.8670  146.3580 C   0  0  0  0  0  3  0  0  0  0  0  0
  190.7680  176.8480  147.1420 C   0  0  0  0  0  3  0  0  0  0  0  0
  191.0710  175.4990  147.3490 C   0  0  0  0  0  3  0  0  0  0  0  0
  189.5560  177.2090  146.5500 C   0  0  0  0  0  3  0  0  0  0  0  0
  190.1650  174.5080  146.9560 C   0  0  0  0  0  3  0  0  0  0  0  0
  1 37  1  1  0  0  0
  1 36  1  0  0  0  0
  1  7  1  0  0  0  0
  2  7  1  0  0  0  0
  2  5  1  0  0  0  0
  3  5  1  0  0  0  0
  3 10  1  0  0  0  0
  5 10  1  0  0  0  0
  6 10  1  0  0  0  0
  8  9  1  0  0  0  0
  8  2  1  0  0  0  0
  8  5  1  0  0  0  0
  9  7  1  0  0  0  0
 10  4  1  0  0  0  0
 11 12  1  0  0  0  0
 11 13  1  0  0  0  0
 12 13  1  0  0  0  0
 13  8  1  0  0  0  0
 14 15  1  0  0  0  0
 14 18  2  0  0  0  0
 15 17  1  0  0  0  0
 16 24  1  0  0  0  0
 17 22  1  0  0  0  0
 18 21  1  0  0  0  0
 20 16  2  0  0  0  0
 20 23  1  0  0  0  0
 21 22  2  0  0  0  0
 21 19  1  0  0  0  0
 22 13  1  0  0  0  0
 23 14  1  0  0  0  0
 24 15  2  0  0  0  0
 25 11  1  0  0  0  0
 26 29  1  0  0  0  0
 27 29  1  0  0  0  0
 27 25  1  0  0  0  0
 27 28  1  0  0  0  0
 29 28  1  0  0  0  0
 30 27  1  0  0  0  0
 32 30  1  0  0  0  0
 32 31  1  0  0  0  0
 34 36  1  0  0  0  0
 35 34  1  0  0  0  0
 35 36  1  0  0  0  0
 36 33  1  0  0  0  0
 37 38  1  0  0  0  0
 40 39  2  0  0  0  0
 40 38  1  0  0  0  0
 41 40  1  0  0  0  0
 42 41  1  0  0  0  0
 43 42  1  0  0  0  0
 43 44  1  0  0  0  0
 44 45  1  0  0  0  0
 45 46  1  0  0  0  0
 46 47  1  0  0  0  0
 46 49  1  0  0  0  0
 49 48  1  0  0  0  0
 49 50  1  0  0  0  0
 50 51  1  0  0  0  0
 52 51  1  0  0  0  0
 52 54  1  0  0  0  0
 54 53  1  0  0  0  0
 55 52  1  0  0  0  0
 55 56  1  0  0  0  0
 57 58  1  0  0  0  0
 57 55  1  0  0  0  0
 58 59  2  0  0  0  0
 58 62  1  0  0  0  0
 59 63  1  0  0  0  0
 60 61  1  0  0  0  0
 62 60  2  0  0  0  0
 63 61  2  0  0  0  0
M  END
>  <MODEL>
7

>  <REMARK>
 VINA RESULT:      -4.5      1.717      2.322
  Name = 
  24 active torsions:
  status: ('A' for Active; 'I' for Inactive)
    1  A    between atoms: O_3  and  C_44
    2  A    between atoms: O_3  and  C_47
    3  A    between atoms: C_6  and  C_7
    4  A    between atoms: C_6  and  C_28
    5  A    between atoms: C_11  and  C_60
    6  A    between atoms: C_21  and  C_38
    7  A    between atoms: C_21  and  C_46
    8  A    between atoms: O_23  and  C_27
    9  A    between atoms: O_23  and  C_33
   10  A    between atoms: O_24  and  C_44
   11  A    between atoms: C_28  and  C_44
   12  A    between atoms: C_31  and  C_32
   13  A    between atoms: C_31  and  C_37
   14  A    between atoms: C_31  and  C_63
   15  A    between atoms: C_33  and  C_48
   16  A    between atoms: C_34  and  C_48
   17  A    between atoms: C_36  and  C_62
   18  A    between atoms: C_37  and  C_60
   19  A    between atoms: C_38  and  C_47
   20  A    between atoms: N_39  and  C_45
   21  A    between atoms: C_45  and  C_50
   22  A    between atoms: C_46  and  N_52
   23  A    between atoms: C_49  and  C_62
   24  A    between atoms: C_50  and  N_52
                            x       y       z     vdW  Elec       q    Type
                         _______ _______ _______ _____ _____    ______ ____

>  <TORSDO>
F 24

$$$$
=
 OpenBabel11072409343D

 63 71  0  0  1  0  0  0  0  0999 V2000
  191.3320  176.1080  145.2340 C   0  0  2  0  0  3  0  0  0  0  0  0
  189.1630  176.4780  146.4010 C   0  0  2  0  0  3  0  0  0  0  0  0
  187.2100  176.7210  147.4940 O   0  0  0  0  0  0  0  0  0  0  0  0
  186.6820  178.7510  148.5040 N   0  0  0  0  0  1  0  0  0  0  0  0
  188.2890  177.5310  147.0270 C   0  0  2  0  0  0  0  0  0  0  0  0
  185.9150  178.1770  146.2950 F   0  0  0  0  0  0  0  0  0  0  0  0
  190.4450  177.1230  145.9590 C   0  0  2  0  0  3  0  0  0  0  0  0
  188.5190  177.4500  145.4750 C   0  0  1  0  0  0  0  0  0  0  0  0
  189.7640  177.9620  145.0580 O   0  0  0  0  0  0  0  0  0  0  0  0
  186.8920  178.0400  147.2580 C   0  0  1  0  0  0  0  0  0  0  0  0
  186.5230  177.1310  143.8700 C   0  0  1  0  0  3  0  0  0  0  0  0
  186.5510  176.0510  144.7860 O   0  0  0  0  0  0  0  0  0  0  0  0
  187.7970  176.5770  144.4070 C   0  0  2  0  0  0  0  0  0  0  0  0
  190.0350  173.9900  141.7080 C   0  0  0  0  0  0  0  0  0  0  0  0
  189.3190  173.4500  142.8790 C   0  0  0  0  0  0  0  0  0  0  0  0
  190.0130  171.2020  142.2310 C   0  0  0  0  0  3  0  0  0  0  0  0
  188.6360  174.3330  143.7190 O   0  0  0  0  0  0  0  0  0  0  0  0
  189.9940  175.3030  141.4840 C   0  0  0  0  0  3  0  0  0  0  0  0
  189.2300  177.6630  142.0360 C   0  0  0  0  0  1  0  0  0  0  0  0
  190.6780  171.6270  141.1510 C   0  0  0  0  0  3  0  0  0  0  0  0
  189.2540  176.2120  142.3830 C   0  0  0  0  0  0  0  0  0  0  0  0
  188.6020  175.7130  143.4600 C   0  0  0  0  0  0  0  0  0  0  0  0
  190.7740  173.0820  140.7660 C   0  0  0  0  0  2  0  0  0  0  0  0
  189.3120  172.1410  143.1240 C   0  0  0  0  0  3  0  0  0  0  0  0
  186.2080  176.6460  142.5890 O   0  0  0  0  0  0  0  0  0  0  0  0
  183.9030  177.9820  140.1070 O   0  0  0  0  0  1  0  0  0  0  0  0
  185.2470  177.5210  142.0510 C   0  0  1  0  0  0  0  0  0  0  0  0
  185.8680  178.6650  141.2830 C   0  0  0  0  0  2  0  0  0  0  0  0
  185.1620  177.5450  140.5300 C   0  0  2  0  0  3  0  0  0  0  0  0
  184.0360  177.9180  142.9030 C   0  0  0  0  0  2  0  0  0  0  0  0
  184.4040  179.6220  144.5350 O   0  0  0  0  0  1  0  0  0  0  0  0
  184.0350  179.4080  143.2060 C   0  0  0  0  0  2  0  0  0  0  0  0
  191.9660  175.2170  147.5140 O   0  0  0  0  0  1  0  0  0  0  0  0
  192.2640  173.7010  145.6370 C   0  0  0  0  0  2  0  0  0  0  0  0
  190.9050  173.7790  146.0290 O   0  0  0  0  0  0  0  0  0  0  0  0
  191.6790  174.9420  146.1770 C   0  0  2  0  0  0  0  0  0  0  0  0
  192.5560  176.7820  144.6180 C   0  0  0  0  0  2  0  0  0  0  0  0
  193.6420  176.8930  145.6730 C   0  0  0  0  0  2  0  0  0  0  0  0
  195.6330  178.1610  145.3630 O   0  0  0  0  0  0  0  0  0  0  0  0
  194.9700  177.1360  145.0510 C   0  0  0  0  0  0  0  0  0  0  0  0
  195.4660  176.2090  144.0870 N   0  0  0  0  0  2  0  0  0  0  0  0
  196.7270  176.4200  143.3900 C   0  0  0  0  0  2  0  0  0  0  0  0
  196.4620  176.7920  141.9370 C   0  0  0  0  0  2  0  0  0  0  0  0
  197.2700  175.9730  141.0420 N   0  0  0  0  0  2  0  0  0  0  0  0
  196.3690  175.3210  140.1050 C   0  0  0  0  0  2  0  0  0  0  0  0
  196.6850  173.8330  140.0540 C   0  0  1  0  0  3  0  0  0  0  0  0
  197.0040  173.3740  141.3340 O   0  0  0  0  0  1  0  0  0  0  0  0
  195.6720  172.8650  138.0920 O   0  0  0  0  0  1  0  0  0  0  0  0
  195.5380  173.0030  139.4770 C   0  0  1  0  0  3  0  0  0  0  0  0
  195.4560  171.6350  140.1320 C   0  0  0  0  0  2  0  0  0  0  0  0
  194.1790  171.4500  140.6910 O   0  0  0  0  0  0  0  0  0  0  0  0
  194.0170  170.0810  141.0100 C   0  0  1  0  0  3  0  0  0  0  0  0
  194.3980  168.5460  139.4590 C   0  0  0  0  0  1  0  0  0  0  0  0
  195.0360  169.3040  140.4430 O   0  0  0  0  0  0  0  0  0  0  0  0
  193.8970  169.8250  142.5170 C   0  0  2  0  0  3  0  0  0  0  0  0
  192.8350  168.9590  142.7780 O   0  0  0  0  0  1  0  0  0  0  0  0
  193.6830  171.1330  143.2620 C   0  0  0  0  0  2  0  0  0  0  0  0
  194.7710  171.3360  144.2590 C   0  0  0  0  0  0  0  0  0  0  0  0
  195.0960  170.3160  145.1610 C   0  0  0  0  0  3  0  0  0  0  0  0
  196.5080  172.7320  145.2130 C   0  0  0  0  0  3  0  0  0  0  0  0
  196.8260  171.7150  146.1190 C   0  0  0  0  0  3  0  0  0  0  0  0
  195.4800  172.5450  144.2850 C   0  0  0  0  0  3  0  0  0  0  0  0
  196.1220  170.5060  146.0920 C   0  0  0  0  0  3  0  0  0  0  0  0
  1 37  1  1  0  0  0
  1  7  1  0  0  0  0
  1 36  1  0  0  0  0
  2  5  1  0  0  0  0
  5 10  1  0  0  0  0
  5  3  1  0  0  0  0
  6 10  1  0  0  0  0
  7  2  1  0  0  0  0
  8  2  1  0  0  0  0
  8  5  1  0  0  0  0
  9  8  1  0  0  0  0
  9  7  1  0  0  0  0
 10  3  1  0  0  0  0
 10  4  1  0  0  0  0
 11 13  1  0  0  0  0
 11 12  1  0  0  0  0
 13 12  1  0  0  0  0
 13  8  1  0  0  0  0
 14 15  1  0  0  0  0
 15 24  2  0  0  0  0
 15 17  1  0  0  0  0
 16 24  1  0  0  0  0
 18 14  2  0  0  0  0
 18 21  1  0  0  0  0
 19 21  1  0  0  0  0
 20 16  2  0  0  0  0
 21 22  2  0  0  0  0
 22 17  1  0  0  0  0
 22 13  1  0  0  0  0
 23 20  1  0  0  0  0
 23 14  1  0  0  0  0
 25 11  1  0  0  0  0
 26 29  1  0  0  0  0
 27 25  1  0  0  0  0
 27 30  1  0  0  0  0
 28 27  1  0  0  0  0
 29 28  1  0  0  0  0
 29 27  1  0  0  0  0
 30 32  1  0  0  0  0
 32 31  1  0  0  0  0
 34 35  1  0  0  0  0
 34 36  1  0  0  0  0
 35 36  1  0  0  0  0
 36 33  1  0  0  0  0
 37 38  1  0  0  0  0
 40 39  2  0  0  0  0
 40 38  1  0  0  0  0
 41 40  1  0  0  0  0
 42 41  1  0  0  0  0
 43 42  1  0  0  0  0
 44 43  1  0  0  0  0
 45 44  1  0  0  0  0
 46 45  1  0  0  0  0
 46 47  1  0  0  0  0
 48 49  1  0  0  0  0
 49 46  1  0  0  0  0
 49 50  1  0  0  0  0
 50 51  1  0  0  0  0
 51 52  1  0  0  0  0
 52 55  1  0  0  0  0
 53 54  1  0  0  0  0
 54 52  1  0  0  0  0
 55 56  1  0  0  0  0
 55 57  1  0  0  0  0
 57 58  1  0  0  0  0
 58 62  2  0  0  0  0
 58 59  1  0  0  0  0
 59 63  2  0  0  0  0
 60 61  2  0  0  0  0
 62 60  1  0  0  0  0
 63 61  1  0  0  0  0
M  END
>  <MODEL>
8

>  <REMARK>
 VINA RESULT:      -4.5      2.796      9.093
  Name = 
  24 active torsions:
  status: ('A' for Active; 'I' for Inactive)
    1  A    between atoms: O_3  and  C_44
    2  A    between atoms: O_3  and  C_47
    3  A    between atoms: C_6  and  C_7
    4  A    between atoms: C_6  and  C_28
    5  A    between atoms: C_11  and  C_60
    6  A    between atoms: C_21  and  C_38
    7  A    between atoms: C_21  and  C_46
    8  A    between atoms: O_23  and  C_27
    9  A    between atoms: O_23  and  C_33
   10  A    between atoms: O_24  and  C_44
   11  A    between atoms: C_28  and  C_44
   12  A    between atoms: C_31  and  C_32
   13  A    between atoms: C_31  and  C_37
   14  A    between atoms: C_31  and  C_63
   15  A    between atoms: C_33  and  C_48
   16  A    between atoms: C_34  and  C_48
   17  A    between atoms: C_36  and  C_62
   18  A    between atoms: C_37  and  C_60
   19  A    between atoms: C_38  and  C_47
   20  A    between atoms: N_39  and  C_45
   21  A    between atoms: C_45  and  C_50
   22  A    between atoms: C_46  and  N_52
   23  A    between atoms: C_49  and  C_62
   24  A    between atoms: C_50  and  N_52
                            x       y       z     vdW  Elec       q    Type
                         _______ _______ _______ _____ _____    ______ ____

>  <TORSDO>
F 24

$$$$
=
 OpenBabel11072409343D

 63 71  0  0  1  0  0  0  0  0999 V2000
  191.9230  175.0480  145.2830 C   0  0  2  0  0  3  0  0  0  0  0  0
  191.9860  173.0870  143.7510 C   0  0  2  0  0  3  0  0  0  0  0  0
  192.1280  171.3480  142.3270 O   0  0  0  0  0  0  0  0  0  0  0  0
  191.5670  169.2040  143.0420 N   0  0  0  0  0  1  0  0  0  0  0  0
  191.6040  171.6360  143.6230 C   0  0  2  0  0  0  0  0  0  0  0  0
  190.0000  170.6260  141.8920 F   0  0  0  0  0  0  0  0  0  0  0  0
  191.6340  173.5530  145.1340 C   0  0  2  0  0  3  0  0  0  0  0  0
  190.5320  172.7850  143.6350 C   0  0  1  0  0  0  0  0  0  0  0  0
  190.2670  173.3020  144.9190 O   0  0  0  0  0  0  0  0  0  0  0  0
  191.0900  170.5390  142.7320 C   0  0  1  0  0  0  0  0  0  0  0  0
  189.2270  174.8760  142.8690 C   0  0  1  0  0  3  0  0  0  0  0  0
  188.6290  173.7270  142.2940 O   0  0  0  0  0  0  0  0  0  0  0  0
  190.0230  173.6810  142.4690 C   0  0  2  0  0  0  0  0  0  0  0  0
  192.4770  174.0650  138.8880 C   0  0  0  0  0  0  0  0  0  0  0  0
  192.9280  174.5830  140.1930 C   0  0  0  0  0  0  0  0  0  0  0  0
  195.0230  175.2840  139.1580 C   0  0  0  0  0  3  0  0  0  0  0  0
  192.0880  174.4470  141.3010 O   0  0  0  0  0  0  0  0  0  0  0  0
  191.2840  173.4730  138.8140 C   0  0  0  0  0  3  0  0  0  0  0  0
  189.1200  172.6240  139.8380 C   0  0  0  0  0  1  0  0  0  0  0  0
  194.6750  174.8330  137.9480 C   0  0  0  0  0  3  0  0  0  0  0  0
  190.4220  173.3330  140.0050 C   0  0  0  0  0  0  0  0  0  0  0  0
  190.8380  173.8150  141.2000 C   0  0  0  0  0  0  0  0  0  0  0  0
  193.3480  174.1730  137.6690 C   0  0  0  0  0  2  0  0  0  0  0  0
  194.1230  175.1570  140.3170 C   0  0  0  0  0  3  0  0  0  0  0  0
  189.2640  175.9070  141.9140 O   0  0  0  0  0  0  0  0  0  0  0  0
  186.1820  177.6510  141.0690 O   0  0  0  0  0  1  0  0  0  0  0  0
  188.1210  176.6980  142.1310 C   0  0  1  0  0  0  0  0  0  0  0  0
  188.3740  178.1660  141.8710 C   0  0  0  0  0  2  0  0  0  0  0  0
  187.5370  177.3580  140.8870 C   0  0  2  0  0  3  0  0  0  0  0  0
  187.2370  176.4170  143.3510 C   0  0  0  0  0  2  0  0  0  0  0  0
  187.3560  177.8960  145.2220 O   0  0  0  0  0  1  0  0  0  0  0  0
  186.7390  177.7070  143.9840 C   0  0  0  0  0  2  0  0  0  0  0  0
  189.8930  176.4880  145.7320 O   0  0  0  0  0  1  0  0  0  0  0  0
  191.2920  175.9600  147.6490 C   0  0  0  0  0  2  0  0  0  0  0  0
  190.4580  174.8690  147.2990 O   0  0  0  0  0  0  0  0  0  0  0  0
  190.9110  175.6870  146.2510 C   0  0  2  0  0  0  0  0  0  0  0  0
  191.9880  175.7390  143.9220 C   0  0  0  0  0  2  0  0  0  0  0  0
  193.0060  176.8620  143.9870 C   0  0  0  0  0  2  0  0  0  0  0  0
  194.5090  177.0210  145.8260 O   0  0  0  0  0  0  0  0  0  0  0  0
  194.2150  176.4460  144.7440 C   0  0  0  0  0  0  0  0  0  0  0  0
  195.0430  175.4090  144.2190 N   0  0  0  0  0  2  0  0  0  0  0  0
  196.2770  175.0000  144.8740 C   0  0  0  0  0  2  0  0  0  0  0  0
  196.0190  173.7890  145.7590 C   0  0  0  0  0  2  0  0  0  0  0  0
  196.6900  172.6100  145.2280 N   0  0  0  0  0  2  0  0  0  0  0  0
  195.6660  171.6900  144.7590 C   0  0  0  0  0  2  0  0  0  0  0  0
  196.3200  170.3880  144.3190 C   0  0  1  0  0  3  0  0  0  0  0  0
  195.9930  169.3700  145.2160 O   0  0  0  0  0  1  0  0  0  0  0  0
  194.8410  169.0950  142.9210 O   0  0  0  0  0  1  0  0  0  0  0  0
  195.9250  169.9770  142.9010 C   0  0  1  0  0  3  0  0  0  0  0  0
  195.5970  171.1860  142.0420 C   0  0  0  0  0  2  0  0  0  0  0  0
  196.2700  171.0920  140.8100 O   0  0  0  0  0  0  0  0  0  0  0  0
  195.3730  171.4470  139.7750 C   0  0  1  0  0  3  0  0  0  0  0  0
  197.3650  172.1620  139.1240 C   0  0  0  0  0  1  0  0  0  0  0  0
  196.0540  171.9920  138.6780 O   0  0  0  0  0  0  0  0  0  0  0  0
  194.4630  170.2900  139.3460 C   0  0  2  0  0  3  0  0  0  0  0  0
  195.1580  169.0820  139.4040 O   0  0  0  0  0  1  0  0  0  0  0  0
  193.9480  170.5150  137.9340 C   0  0  0  0  0  2  0  0  0  0  0  0
  192.4850  170.2370  137.8740 C   0  0  0  0  0  0  0  0  0  0  0  0
  191.8650  169.5210  138.9050 C   0  0  0  0  0  3  0  0  0  0  0  0
  190.3540  170.4530  136.7400 C   0  0  0  0  0  3  0  0  0  0  0  0
  189.7370  169.7320  137.7670 C   0  0  0  0  0  3  0  0  0  0  0  0
  191.7280  170.7040  136.7910 C   0  0  0  0  0  3  0  0  0  0  0  0
  190.4910  169.2680  138.8500 C   0  0  0  0  0  3  0  0  0  0  0  0
  1 37  1  6  0  0  0
  1 36  1  0  0  0  0
  2  7  1  0  0  0  0
  3 10  1  0  0  0  0
  3  5  1  0  0  0  0
  5  8  1  0  0  0  0
  5  2  1  0  0  0  0
  6 10  1  0  0  0  0
  7  1  1  0  0  0  0
  8  2  1  0  0  0  0
  8  9  1  0  0  0  0
  9  7  1  0  0  0  0
 10  4  1  0  0  0  0
 10  5  1  0  0  0  0
 12 13  1  0  0  0  0
 12 11  1  0  0  0  0
 13 11  1  0  0  0  0
 13  8  1  0  0  0  0
 14 15  1  0  0  0  0
 15 24  2  0  0  0  0
 15 17  1  0  0  0  0
 16 24  1  0  0  0  0
 18 14  2  0  0  0  0
 18 21  1  0  0  0  0
 19 21  1  0  0  0  0
 20 16  2  0  0  0  0
 21 22  2  0  0  0  0
 22 17  1  0  0  0  0
 22 13  1  0  0  0  0
 23 20  1  0  0  0  0
 23 14  1  0  0  0  0
 25 27  1  0  0  0  0
 25 11  1  0  0  0  0
 27 30  1  0  0  0  0
 28 27  1  0  0  0  0
 29 26  1  0  0  0  0
 29 28  1  0  0  0  0
 29 27  1  0  0  0  0
 30 32  1  0  0  0  0
 32 31  1  0  0  0  0
 33 36  1  0  0  0  0
 35 34  1  0  0  0  0
 36 35  1  0  0  0  0
 36 34  1  0  0  0  0
 37 38  1  0  0  0  0
 38 40  1  0  0  0  0
 40 39  2  0  0  0  0
 41 40  1  0  0  0  0
 41 42  1  0  0  0  0
 42 43  1  0  0  0  0
 44 43  1  0  0  0  0
 45 44  1  0  0  0  0
 46 45  1  0  0  0  0
 46 47  1  0  0  0  0
 49 48  1  0  0  0  0
 49 46  1  0  0  0  0
 50 49  1  0  0  0  0
 51 50  1  0  0  0  0
 52 51  1  0  0  0  0
 54 53  1  0  0  0  0
 54 52  1  0  0  0  0
 55 56  1  0  0  0  0
 55 52  1  0  0  0  0
 57 55  1  0  0  0  0
 58 57  1  0  0  0  0
 58 59  1  0  0  0  0
 60 62  1  0  0  0  0
 60 61  2  0  0  0  0
 61 63  1  0  0  0  0
 62 58  2  0  0  0  0
 63 59  2  0  0  0  0
M  END
>  <MODEL>
9

>  <REMARK>
 VINA RESULT:      -4.4      2.569      8.389
  Name = 
  24 active torsions:
  status: ('A' for Active; 'I' for Inactive)
    1  A    between atoms: O_3  and  C_44
    2  A    between atoms: O_3  and  C_47
    3  A    between atoms: C_6  and  C_7
    4  A    between atoms: C_6  and  C_28
    5  A    between atoms: C_11  and  C_60
    6  A    between atoms: C_21  and  C_38
    7  A    between atoms: C_21  and  C_46
    8  A    between atoms: O_23  and  C_27
    9  A    between atoms: O_23  and  C_33
   10  A    between atoms: O_24  and  C_44
   11  A    between atoms: C_28  and  C_44
   12  A    between atoms: C_31  and  C_32
   13  A    between atoms: C_31  and  C_37
   14  A    between atoms: C_31  and  C_63
   15  A    between atoms: C_33  and  C_48
   16  A    between atoms: C_34  and  C_48
   17  A    between atoms: C_36  and  C_62
   18  A    between atoms: C_37  and  C_60
   19  A    between atoms: C_38  and  C_47
   20  A    between atoms: N_39  and  C_45
   21  A    between atoms: C_45  and  C_50
   22  A    between atoms: C_46  and  N_52
   23  A    between atoms: C_49  and  C_62
   24  A    between atoms: C_50  and  N_52
                            x       y       z     vdW  Elec       q    Type
                         _______ _______ _______ _____ _____    ______ ____

>  <TORSDO>
F 24

$$$$
