=
 OpenBabel11072409013D

 47 51  0  0  1  0  0  0  0  0999 V2000
  187.8890  177.2270  144.4200 C   0  0  2  0  0  3  0  0  0  0  0  0
  185.6430  179.2980  143.8850 C   0  0  0  0  0  2  0  0  0  0  0  0
  187.2140  178.1370  145.4640 C   0  0  1  0  0  3  0  0  0  0  0  0
  185.6640  176.9060  143.0050 C   0  0  0  0  0  2  0  0  0  0  0  0
  185.1080  178.3220  142.8410 C   0  0  1  0  0  3  0  0  0  0  0  0
  187.1920  176.8510  143.0920 C   0  0  1  0  0  3  0  0  0  0  0  0
  185.7850  178.6210  145.2360 C   0  0  0  0  0  2  0  0  0  0  0  0
  187.1880  176.6240  145.6210 C   0  0  2  0  0  3  0  0  0  0  0  0
  183.7170  178.2790  142.9080 O   0  0  0  0  0  1  0  0  0  0  0  0
  188.2190  176.2020  146.6490 C   0  0  0  0  0  2  0  0  0  0  0  0
  189.4040  175.8540  145.9970 O   0  0  0  0  0  0  0  0  0  0  0  0
  190.4280  176.1240  146.9080 C   0  0  2  0  0  3  0  0  0  0  0  0
  190.1940  177.3480  147.5400 O   0  0  0  0  0  1  0  0  0  0  0  0
  191.7790  176.1450  146.1960 C   0  0  0  0  0  2  0  0  0  0  0  0
  191.8790  177.6550  144.3330 O   0  0  0  0  0  1  0  0  0  0  0  0
  191.6500  176.3230  144.6820 C   0  0  1  0  0  3  0  0  0  0  0  0
  192.0040  174.2650  143.3180 C   0  0  0  0  0  0  0  0  0  0  0  0
  197.6810  175.9740  143.0740 N   0  0  0  0  0  1  0  0  0  0  0  0
  193.9740  175.7390  143.9030 C   0  0  0  0  0  0  0  0  0  0  0  0
  196.3220  176.0010  143.4970 C   0  0  0  0  0  0  0  0  0  0  0  0
  195.1160  175.0040  142.8900 S   0  0  0  0  0  0  0  0  0  0  0  0
  195.8510  176.8620  144.4210 N   0  0  0  0  0  0  0  0  0  0  0  0
  192.5620  175.4390  143.9470 N   0  0  0  0  0  0  0  0  0  0  0  0
  192.7440  173.3130  142.9550 O   0  0  0  0  0  0  0  0  0  0  0  0
  194.5460  176.7200  144.6420 N   0  0  0  0  0  0  0  0  0  0  0  0
  190.5320  174.1460  143.0850 C   0  0  0  0  0  2  0  0  0  0  0  0
  189.9940  172.9340  143.7710 C   0  0  0  0  0  0  0  0  0  0  0  0
  190.1670  172.7840  144.9690 O   0  0  0  0  0  0  0  0  0  0  0  0
  190.3000  170.9190  142.3740 C   0  0  0  0  0  1  0  0  0  0  0  0
  189.2930  171.8790  142.9780 C   0  0  0  0  0  2  0  0  0  0  0  0
  187.9990  177.6510  141.6650 S   0  0  0  0  0  0  0  0  0  0  0  0
  187.3800  176.4190  140.4800 C   0  0  0  0  0  2  0  0  0  0  0  0
  188.0470  175.1810  140.6810 O   0  0  0  0  0  0  0  0  0  0  0  0
  189.5230  172.9250  137.4620 C   0  0  0  0  0  3  0  0  0  0  0  0
  190.0780  172.7430  138.7380 C   0  0  0  0  0  0  0  0  0  0  0  0
  188.4890  173.8430  137.2680 C   0  0  0  0  0  3  0  0  0  0  0  0
  188.0040  174.5870  138.3470 C   0  0  0  0  0  3  0  0  0  0  0  0
  189.5880  173.4910  139.8130 C   0  0  0  0  0  3  0  0  0  0  0  0
  188.5490  174.4170  139.6240 C   0  0  0  0  0  0  0  0  0  0  0  0
  191.1470  171.8190  138.9590 N   0  0  0  0  0  2  0  0  0  0  0  0
  193.4350  170.7060  139.7850 S   0  0  0  0  0  0  0  0  0  0  0  0
  192.4300  172.1980  139.5320 C   0  0  1  0  0  3  0  0  0  0  0  0
  194.3300  173.7990  139.2980 C   0  0  0  0  0  2  0  0  0  0  0  0
  195.2590  172.8250  139.8620 N   0  0  0  0  0  2  0  0  0  0  0  0
  195.6240  171.0090  141.7560 S   0  0  0  0  0  0  0  0  0  0  0  0
  193.1700  173.1240  138.5750 C   0  0  0  0  0  2  0  0  0  0  0  0
  194.8030  171.6240  140.4880 C   0  0  0  0  0  0  0  0  0  0  0  0
  1  3  1  0  0  0  0
  1  8  1  0  0  0  0
  2  7  1  0  0  0  0
  3  8  1  0  0  0  0
  4  6  1  0  0  0  0
  5  9  1  0  0  0  0
  5  4  1  0  0  0  0
  5  2  1  0  0  0  0
  6  1  1  0  0  0  0
  7  3  1  0  0  0  0
  8 10  1  0  0  0  0
 11 10  1  0  0  0  0
 11 12  1  0  0  0  0
 12 13  1  0  0  0  0
 14 12  1  0  0  0  0
 15 16  1  0  0  0  0
 16 14  1  0  0  0  0
 17 23  1  0  0  0  0
 18 20  1  0  0  0  0
 19 23  1  0  0  0  0
 19 25  2  0  0  0  0
 20 22  2  0  0  0  0
 21 20  1  0  0  0  0
 21 19  1  0  0  0  0
 22 25  1  0  0  0  0
 23 16  1  0  0  0  0
 24 17  2  0  0  0  0
 26 17  1  0  0  0  0
 26 27  1  0  0  0  0
 27 28  2  0  0  0  0
 29 30  1  0  0  0  0
 30 27  1  0  0  0  0
 31  6  1  0  0  0  0
 32 33  1  0  0  0  0
 32 31  1  0  0  0  0
 34 35  1  0  0  0  0
 35 40  1  0  0  0  0
 35 38  2  0  0  0  0
 36 34  2  0  0  0  0
 36 37  1  0  0  0  0
 37 39  2  0  0  0  0
 39 38  1  0  0  0  0
 39 33  1  0  0  0  0
 40 42  1  0  0  0  0
 41 47  1  0  0  0  0
 42 41  1  0  0  0  0
 43 44  1  0  0  0  0
 44 47  1  0  0  0  0
 46 43  1  0  0  0  0
 46 42  1  0  0  0  0
 47 45  2  0  0  0  0
M  END
>  <MODEL>
1

>  <REMARK>
 VINA RESULT:      -6.6      0.000      0.000
  Name = 
  15 active torsions:
  status: ('A' for Active; 'I' for Inactive)
    1  A    between atoms: C_1  and  C_41
    2  A    between atoms: C_4  and  N_44
    3  A    between atoms: C_7  and  N_44
    4  A    between atoms: O_8  and  C_11
    5  A    between atoms: O_8  and  C_40
    6  A    between atoms: C_11  and  S_26
    7  A    between atoms: C_13  and  C_41
    8  A    between atoms: C_13  and  C_42
    9  A    between atoms: C_15  and  C_34
   10  A    between atoms: C_15  and  N_36
   11  A    between atoms: C_21  and  C_34
   12  A    between atoms: C_21  and  O_39
   13  A    between atoms: C_24  and  C_38
   14  A    between atoms: C_24  and  O_39
   15  A    between atoms: S_26  and  C_30
                            x       y       z     vdW  Elec       q    Type
                         _______ _______ _______ _____ _____    ______ ____

>  <TORSDO>
F 15

$$$$
=
 OpenBabel11072409013D

 47 51  0  0  1  0  0  0  0  0999 V2000
  194.5880  174.5380  144.7780 C   0  0  2  0  0  3  0  0  0  0  0  0
  195.7000  171.7100  144.1600 C   0  0  0  0  0  2  0  0  0  0  0  0
  193.7630  173.2540  144.5730 C   0  0  1  0  0  3  0  0  0  0  0  0
  196.5930  173.2670  145.9690 C   0  0  0  0  0  2  0  0  0  0  0  0
  196.8770  172.0680  145.0630 C   0  0  1  0  0  3  0  0  0  0  0  0
  196.0690  174.4950  145.2190 C   0  0  1  0  0  3  0  0  0  0  0  0
  194.3820  171.8960  144.8900 C   0  0  0  0  0  2  0  0  0  0  0  0
  193.6560  174.0470  145.8670 C   0  0  2  0  0  3  0  0  0  0  0  0
  197.2150  170.9680  145.8500 O   0  0  0  0  0  1  0  0  0  0  0  0
  192.3840  174.8710  145.8550 C   0  0  0  0  0  2  0  0  0  0  0  0
  192.6230  176.0950  146.4830 O   0  0  0  0  0  0  0  0  0  0  0  0
  191.3660  176.5770  146.8570 C   0  0  2  0  0  3  0  0  0  0  0  0
  191.0730  176.1820  148.1650 O   0  0  0  0  0  1  0  0  0  0  0  0
  190.2950  176.0640  145.8960 C   0  0  0  0  0  2  0  0  0  0  0  0
  190.3740  178.0670  144.5760 O   0  0  0  0  0  1  0  0  0  0  0  0
  189.5050  177.1920  145.2300 C   0  0  1  0  0  3  0  0  0  0  0  0
  187.1180  177.0270  144.5260 C   0  0  0  0  0  0  0  0  0  0  0  0
  189.1700  173.8010  139.9880 N   0  0  0  0  0  1  0  0  0  0  0  0
  188.9030  175.8190  143.2040 C   0  0  0  0  0  0  0  0  0  0  0  0
  189.2240  174.5090  141.2220 C   0  0  0  0  0  0  0  0  0  0  0  0
  187.9420  175.3670  141.8850 S   0  0  0  0  0  0  0  0  0  0  0  0
  190.3340  174.5890  141.9820 N   0  0  0  0  0  0  0  0  0  0  0  0
  188.4990  176.6770  144.2940 N   0  0  0  0  0  0  0  0  0  0  0  0
  186.1860  176.3820  143.9770 O   0  0  0  0  0  0  0  0  0  0  0  0
  190.1570  175.3220  143.0800 N   0  0  0  0  0  0  0  0  0  0  0  0
  186.7550  178.1630  145.4290 C   0  0  0  0  0  2  0  0  0  0  0  0
  186.0070  177.6610  146.6200 C   0  0  0  0  0  0  0  0  0  0  0  0
  186.4770  176.7640  147.3010 O   0  0  0  0  0  0  0  0  0  0  0  0
  184.0140  178.7880  145.6940 C   0  0  0  0  0  1  0  0  0  0  0  0
  184.6600  178.2200  146.9430 C   0  0  0  0  0  2  0  0  0  0  0  0
  197.1830  175.0130  143.8700 S   0  0  0  0  0  0  0  0  0  0  0  0
  196.1320  176.4130  143.3850 C   0  0  0  0  0  2  0  0  0  0  0  0
  196.5110  176.8750  142.0950 O   0  0  0  0  0  0  0  0  0  0  0  0
  195.8540  174.6520  138.5940 C   0  0  0  0  0  3  0  0  0  0  0  0
  194.7560  175.0340  139.3810 C   0  0  0  0  0  0  0  0  0  0  0  0
  197.1490  175.0140  138.9720 C   0  0  0  0  0  3  0  0  0  0  0  0
  197.3560  175.7550  140.1380 C   0  0  0  0  0  3  0  0  0  0  0  0
  194.9700  175.7750  140.5470 C   0  0  0  0  0  3  0  0  0  0  0  0
  196.2700  176.1400  140.9320 C   0  0  0  0  0  0  0  0  0  0  0  0
  193.4210  174.6640  139.0230 N   0  0  0  0  0  2  0  0  0  0  0  0
  192.3910  172.3620  138.1320 S   0  0  0  0  0  0  0  0  0  0  0  0
  192.7570  173.4700  139.5240 C   0  0  1  0  0  3  0  0  0  0  0  0
  192.8770  171.7040  141.2840 C   0  0  0  0  0  2  0  0  0  0  0  0
  192.2190  170.7420  140.4060 N   0  0  0  0  0  2  0  0  0  0  0  0
  190.2600  170.3740  138.6600 S   0  0  0  0  0  0  0  0  0  0  0  0
  193.6740  172.7380  140.4970 C   0  0  0  0  0  2  0  0  0  0  0  0
  191.6040  171.1400  139.1800 C   0  0  0  0  0  0  0  0  0  0  0  0
  1  6  1  0  0  0  0
  1  8  1  0  0  0  0
  2  7  1  0  0  0  0
  2  5  1  0  0  0  0
  3  1  1  0  0  0  0
  3  7  1  0  0  0  0
  3  8  1  0  0  0  0
  5  9  1  0  0  0  0
  5  4  1  0  0  0  0
  6  4  1  0  0  0  0
 10  8  1  0  0  0  0
 10 11  1  0  0  0  0
 11 12  1  0  0  0  0
 12 13  1  0  0  0  0
 14 12  1  0  0  0  0
 15 16  1  0  0  0  0
 16 14  1  0  0  0  0
 17 26  1  0  0  0  0
 18 20  1  0  0  0  0
 19 23  1  0  0  0  0
 20 21  1  0  0  0  0
 20 22  2  0  0  0  0
 21 19  1  0  0  0  0
 22 25  1  0  0  0  0
 23 17  1  0  0  0  0
 23 16  1  0  0  0  0
 24 17  2  0  0  0  0
 25 19  2  0  0  0  0
 26 27  1  0  0  0  0
 27 30  1  0  0  0  0
 27 28  2  0  0  0  0
 29 30  1  0  0  0  0
 31  6  1  0  0  0  0
 32 31  1  0  0  0  0
 33 32  1  0  0  0  0
 34 36  2  0  0  0  0
 34 35  1  0  0  0  0
 35 38  2  0  0  0  0
 36 37  1  0  0  0  0
 37 39  2  0  0  0  0
 38 39  1  0  0  0  0
 39 33  1  0  0  0  0
 40 35  1  0  0  0  0
 40 42  1  0  0  0  0
 41 47  1  0  0  0  0
 41 42  1  0  0  0  0
 42 46  1  0  0  0  0
 44 43  1  0  0  0  0
 45 47  2  0  0  0  0
 46 43  1  0  0  0  0
 47 44  1  0  0  0  0
M  END
>  <MODEL>
2

>  <REMARK>
 VINA RESULT:      -6.4      2.812      7.364
  Name = 
  15 active torsions:
  status: ('A' for Active; 'I' for Inactive)
    1  A    between atoms: C_1  and  C_41
    2  A    between atoms: C_4  and  N_44
    3  A    between atoms: C_7  and  N_44
    4  A    between atoms: O_8  and  C_11
    5  A    between atoms: O_8  and  C_40
    6  A    between atoms: C_11  and  S_26
    7  A    between atoms: C_13  and  C_41
    8  A    between atoms: C_13  and  C_42
    9  A    between atoms: C_15  and  C_34
   10  A    between atoms: C_15  and  N_36
   11  A    between atoms: C_21  and  C_34
   12  A    between atoms: C_21  and  O_39
   13  A    between atoms: C_24  and  C_38
   14  A    between atoms: C_24  and  O_39
   15  A    between atoms: S_26  and  C_30
                            x       y       z     vdW  Elec       q    Type
                         _______ _______ _______ _____ _____    ______ ____

>  <TORSDO>
F 15

$$$$
=
 OpenBabel11072409013D

 47 51  0  0  1  0  0  0  0  0999 V2000
  188.8900  175.9390  142.0470 C   0  0  2  0  0  3  0  0  0  0  0  0
  186.6620  176.9600  143.9470 C   0  0  0  0  0  2  0  0  0  0  0  0
  187.5640  175.2250  142.3700 C   0  0  1  0  0  3  0  0  0  0  0  0
  187.8150  178.3650  142.1600 C   0  0  0  0  0  2  0  0  0  0  0  0
  187.0070  178.3640  143.4590 C   0  0  1  0  0  3  0  0  0  0  0  0
  189.0550  177.4680  142.2060 C   0  0  1  0  0  3  0  0  0  0  0  0
  186.3430  176.0440  142.7790 C   0  0  0  0  0  2  0  0  0  0  0  0
  187.9230  175.5830  140.9360 C   0  0  2  0  0  3  0  0  0  0  0  0
  185.8350  179.0960  143.2700 O   0  0  0  0  0  1  0  0  0  0  0  0
  188.4170  174.3460  140.2120 C   0  0  0  0  0  2  0  0  0  0  0  0
  188.9470  173.4500  141.1420 O   0  0  0  0  0  0  0  0  0  0  0  0
  190.1990  173.0840  140.6390 C   0  0  2  0  0  3  0  0  0  0  0  0
  190.1190  171.8330  140.0230 O   0  0  0  0  0  1  0  0  0  0  0  0
  191.2340  173.0570  141.7620 C   0  0  0  0  0  2  0  0  0  0  0  0
  190.2960  171.4170  143.2420 O   0  0  0  0  0  1  0  0  0  0  0  0
  190.6170  172.7710  143.1320 C   0  0  1  0  0  3  0  0  0  0  0  0
  190.9900  174.1070  145.2050 C   0  0  0  0  0  0  0  0  0  0  0  0
  196.3650  171.5940  145.2900 N   0  0  0  0  0  1  0  0  0  0  0  0
  192.8570  172.6710  144.2820 C   0  0  0  0  0  0  0  0  0  0  0  0
  195.0840  171.9290  144.7670 C   0  0  0  0  0  0  0  0  0  0  0  0
  193.9160  172.8030  145.5970 S   0  0  0  0  0  0  0  0  0  0  0  0
  194.6590  171.5480  143.5460 N   0  0  0  0  0  0  0  0  0  0  0  0
  191.5040  173.1770  144.2280 N   0  0  0  0  0  0  0  0  0  0  0  0
  191.7680  174.7370  145.9690 O   0  0  0  0  0  0  0  0  0  0  0  0
  193.4200  171.9560  143.2790 N   0  0  0  0  0  0  0  0  0  0  0  0
  189.5210  174.3530  145.3320 C   0  0  0  0  0  2  0  0  0  0  0  0
  189.2130  174.9910  146.6470 C   0  0  0  0  0  0  0  0  0  0  0  0
  189.2400  174.3240  147.6690 O   0  0  0  0  0  0  0  0  0  0  0  0
  189.9480  177.2640  147.2760 C   0  0  0  0  0  1  0  0  0  0  0  0
  188.8190  176.4310  146.7010 C   0  0  0  0  0  2  0  0  0  0  0  0
  190.1580  177.8790  143.5990 S   0  0  0  0  0  0  0  0  0  0  0  0
  191.5460  176.9110  142.9360 C   0  0  0  0  0  2  0  0  0  0  0  0
  192.6460  176.9690  143.8340 O   0  0  0  0  0  0  0  0  0  0  0  0
  196.2790  174.9690  143.1760 C   0  0  0  0  0  3  0  0  0  0  0  0
  195.3100  174.9850  142.1600 C   0  0  0  0  0  0  0  0  0  0  0  0
  196.0360  175.6160  144.3900 C   0  0  0  0  0  3  0  0  0  0  0  0
  194.8240  176.2800  144.5970 C   0  0  0  0  0  3  0  0  0  0  0  0
  194.1000  175.6500  142.3750 C   0  0  0  0  0  3  0  0  0  0  0  0
  193.8500  176.3020  143.5930 C   0  0  0  0  0  0  0  0  0  0  0  0
  195.5300  174.3180  140.9140 N   0  0  0  0  0  2  0  0  0  0  0  0
  194.2710  174.5130  138.5610 S   0  0  0  0  0  0  0  0  0  0  0  0
  194.4730  173.6660  140.1550 C   0  0  1  0  0  3  0  0  0  0  0  0
  193.6240  171.4380  139.4160 C   0  0  0  0  0  2  0  0  0  0  0  0
  193.0370  172.0270  138.2160 N   0  0  0  0  0  2  0  0  0  0  0  0
  191.6560  174.0680  137.2460 S   0  0  0  0  0  0  0  0  0  0  0  0
  194.8480  172.2140  139.8880 C   0  0  0  0  0  2  0  0  0  0  0  0
  192.9320  173.4410  138.0460 C   0  0  0  0  0  0  0  0  0  0  0  0
  1  6  1  0  0  0  0
  1  3  1  0  0  0  0
  3  7  1  0  0  0  0
  4  6  1  0  0  0  0
  4  5  1  0  0  0  0
  5  2  1  0  0  0  0
  6 31  1  0  0  0  0
  7  2  1  0  0  0  0
  8  1  1  0  0  0  0
  8  3  1  0  0  0  0
  9  5  1  0  0  0  0
 10  8  1  0  0  0  0
 10 11  1  0  0  0  0
 12 11  1  0  0  0  0
 12 14  1  0  0  0  0
 13 12  1  0  0  0  0
 14 16  1  0  0  0  0
 16 15  1  0  0  0  0
 16 23  1  0  0  0  0
 17 26  1  0  0  0  0
 17 24  2  0  0  0  0
 19 21  1  0  0  0  0
 20 18  1  0  0  0  0
 20 21  1  0  0  0  0
 22 20  2  0  0  0  0
 23 19  1  0  0  0  0
 23 17  1  0  0  0  0
 25 22  1  0  0  0  0
 25 19  2  0  0  0  0
 26 27  1  0  0  0  0
 27 30  1  0  0  0  0
 27 28  2  0  0  0  0
 30 29  1  0  0  0  0
 32 31  1  0  0  0  0
 32 33  1  0  0  0  0
 34 36  1  0  0  0  0
 35 38  1  0  0  0  0
 35 34  2  0  0  0  0
 36 37  2  0  0  0  0
 38 39  2  0  0  0  0
 39 33  1  0  0  0  0
 39 37  1  0  0  0  0
 40 35  1  0  0  0  0
 41 42  1  0  0  0  0
 42 40  1  0  0  0  0
 43 46  1  0  0  0  0
 44 43  1  0  0  0  0
 45 47  2  0  0  0  0
 46 42  1  0  0  0  0
 47 44  1  0  0  0  0
 47 41  1  0  0  0  0
M  END
>  <MODEL>
3

>  <REMARK>
 VINA RESULT:      -6.4      2.314      5.196
  Name = 
  15 active torsions:
  status: ('A' for Active; 'I' for Inactive)
    1  A    between atoms: C_1  and  C_41
    2  A    between atoms: C_4  and  N_44
    3  A    between atoms: C_7  and  N_44
    4  A    between atoms: O_8  and  C_11
    5  A    between atoms: O_8  and  C_40
    6  A    between atoms: C_11  and  S_26
    7  A    between atoms: C_13  and  C_41
    8  A    between atoms: C_13  and  C_42
    9  A    between atoms: C_15  and  C_34
   10  A    between atoms: C_15  and  N_36
   11  A    between atoms: C_21  and  C_34
   12  A    between atoms: C_21  and  O_39
   13  A    between atoms: C_24  and  C_38
   14  A    between atoms: C_24  and  O_39
   15  A    between atoms: S_26  and  C_30
                            x       y       z     vdW  Elec       q    Type
                         _______ _______ _______ _____ _____    ______ ____

>  <TORSDO>
F 15

$$$$
=
 OpenBabel11072409013D

 47 51  0  0  1  0  0  0  0  0999 V2000
  187.6640  176.9790  144.5170 C   0  0  2  0  0  3  0  0  0  0  0  0
  185.3640  176.6370  146.5700 C   0  0  0  0  0  2  0  0  0  0  0  0
  186.1540  177.0860  144.2280 C   0  0  1  0  0  3  0  0  0  0  0  0
  187.4530  178.0480  146.9400 C   0  0  0  0  0  2  0  0  0  0  0  0
  186.2870  177.3000  147.5870 C   0  0  1  0  0  3  0  0  0  0  0  0
  188.2420  177.2060  145.9330 C   0  0  1  0  0  3  0  0  0  0  0  0
  185.1990  177.5100  145.3390 C   0  0  0  0  0  2  0  0  0  0  0  0
  187.0870  178.2500  143.9280 C   0  0  2  0  0  3  0  0  0  0  0  0
  185.5560  178.1850  148.3770 O   0  0  0  0  0  1  0  0  0  0  0  0
  187.3790  178.2960  142.4410 C   0  0  0  0  0  2  0  0  0  0  0  0
  188.1800  177.2050  142.0960 O   0  0  0  0  0  0  0  0  0  0  0  0
  187.8060  176.8630  140.7930 C   0  0  2  0  0  3  0  0  0  0  0  0
  186.7740  177.6980  140.3580 O   0  0  0  0  0  1  0  0  0  0  0  0
  187.3660  175.4020  140.7350 C   0  0  0  0  0  2  0  0  0  0  0  0
  187.5350  173.3170  141.9130 O   0  0  0  0  0  1  0  0  0  0  0  0
  188.2330  174.4850  141.5990 C   0  0  1  0  0  3  0  0  0  0  0  0
  190.7240  174.3940  141.6830 C   0  0  0  0  0  0  0  0  0  0  0  0
  190.3510  172.0400  136.2490 N   0  0  0  0  0  1  0  0  0  0  0  0
  189.5100  173.6520  139.5920 C   0  0  0  0  0  0  0  0  0  0  0  0
  189.8860  172.6680  137.4390 C   0  0  0  0  0  0  0  0  0  0  0  0
  190.8360  172.9690  138.7910 S   0  0  0  0  0  0  0  0  0  0  0  0
  188.6110  173.0650  137.6180 N   0  0  0  0  0  0  0  0  0  0  0  0
  189.5060  174.1580  140.9460 N   0  0  0  0  0  0  0  0  0  0  0  0
  191.8360  174.4450  141.0950 O   0  0  0  0  0  0  0  0  0  0  0  0
  188.4010  173.6070  138.8160 N   0  0  0  0  0  0  0  0  0  0  0  0
  190.6980  174.5890  143.1660 C   0  0  0  0  0  2  0  0  0  0  0  0
  191.0920  173.3290  143.8630 C   0  0  0  0  0  0  0  0  0  0  0  0
  192.1450  173.2750  144.4760 O   0  0  0  0  0  0  0  0  0  0  0  0
  189.4960  171.8810  145.0710 C   0  0  0  0  0  1  0  0  0  0  0  0
  190.2220  172.1190  143.7600 C   0  0  0  0  0  2  0  0  0  0  0  0
  188.8580  175.6510  146.6610 S   0  0  0  0  0  0  0  0  0  0  0  0
  190.4550  176.3740  147.1390 C   0  0  0  0  0  2  0  0  0  0  0  0
  191.1270  176.8640  145.9860 O   0  0  0  0  0  0  0  0  0  0  0  0
  195.0890  175.7820  145.1160 C   0  0  0  0  0  3  0  0  0  0  0  0
  194.2610  176.2420  144.0810 C   0  0  0  0  0  0  0  0  0  0  0  0
  194.6000  175.6900  146.4210 C   0  0  0  0  0  3  0  0  0  0  0  0
  193.2800  176.0550  146.6990 C   0  0  0  0  0  3  0  0  0  0  0  0
  192.9410  176.6040  144.3670 C   0  0  0  0  0  3  0  0  0  0  0  0
  192.4430  176.5140  145.6760 C   0  0  0  0  0  0  0  0  0  0  0  0
  194.7340  176.3320  142.7340 N   0  0  0  0  0  2  0  0  0  0  0  0
  195.3040  173.8300  141.9770 S   0  0  0  0  0  0  0  0  0  0  0  0
  195.8470  175.5460  142.2210 C   0  0  1  0  0  3  0  0  0  0  0  0
  197.6600  175.5300  140.5060 C   0  0  0  0  0  2  0  0  0  0  0  0
  197.6360  174.0710  140.4510 N   0  0  0  0  0  2  0  0  0  0  0  0
  197.4970  171.8420  141.8750 S   0  0  0  0  0  0  0  0  0  0  0  0
  196.2990  176.1060  140.8780 C   0  0  0  0  0  2  0  0  0  0  0  0
  196.9170  173.2940  141.4090 C   0  0  0  0  0  0  0  0  0  0  0  0
  1  6  1  0  0  0  0
  2  5  1  0  0  0  0
  3  1  1  0  0  0  0
  3  7  1  0  0  0  0
  4  5  1  0  0  0  0
  5  9  1  0  0  0  0
  6 31  1  0  0  0  0
  6  4  1  0  0  0  0
  7  2  1  0  0  0  0
  8  3  1  0  0  0  0
  8  1  1  0  0  0  0
 10  8  1  0  0  0  0
 11 10  1  0  0  0  0
 12 11  1  0  0  0  0
 13 12  1  0  0  0  0
 14 12  1  0  0  0  0
 14 16  1  0  0  0  0
 16 15  1  0  0  0  0
 17 26  1  0  0  0  0
 18 20  1  0  0  0  0
 19 23  1  0  0  0  0
 20 22  2  0  0  0  0
 20 21  1  0  0  0  0
 21 19  1  0  0  0  0
 22 25  1  0  0  0  0
 23 16  1  0  0  0  0
 23 17  1  0  0  0  0
 24 17  2  0  0  0  0
 25 19  2  0  0  0  0
 26 27  1  0  0  0  0
 27 28  2  0  0  0  0
 30 27  1  0  0  0  0
 30 29  1  0  0  0  0
 31 32  1  0  0  0  0
 33 32  1  0  0  0  0
 34 36  1  0  0  0  0
 35 38  1  0  0  0  0
 35 34  2  0  0  0  0
 36 37  2  0  0  0  0
 38 39  2  0  0  0  0
 39 33  1  0  0  0  0
 39 37  1  0  0  0  0
 40 35  1  0  0  0  0
 41 42  1  0  0  0  0
 42 40  1  0  0  0  0
 43 46  1  0  0  0  0
 44 43  1  0  0  0  0
 44 47  1  0  0  0  0
 46 42  1  0  0  0  0
 47 45  2  0  0  0  0
 47 41  1  0  0  0  0
M  END
>  <MODEL>
4

>  <REMARK>
 VINA RESULT:      -6.3      2.225      5.953
  Name = 
  15 active torsions:
  status: ('A' for Active; 'I' for Inactive)
    1  A    between atoms: C_1  and  C_41
    2  A    between atoms: C_4  and  N_44
    3  A    between atoms: C_7  and  N_44
    4  A    between atoms: O_8  and  C_11
    5  A    between atoms: O_8  and  C_40
    6  A    between atoms: C_11  and  S_26
    7  A    between atoms: C_13  and  C_41
    8  A    between atoms: C_13  and  C_42
    9  A    between atoms: C_15  and  C_34
   10  A    between atoms: C_15  and  N_36
   11  A    between atoms: C_21  and  C_34
   12  A    between atoms: C_21  and  O_39
   13  A    between atoms: C_24  and  C_38
   14  A    between atoms: C_24  and  O_39
   15  A    between atoms: S_26  and  C_30
                            x       y       z     vdW  Elec       q    Type
                         _______ _______ _______ _____ _____    ______ ____

>  <TORSDO>
F 15

$$$$
=
 OpenBabel11072409013D

 47 51  0  0  1  0  0  0  0  0999 V2000
  191.1740  171.7100  141.1050 C   0  0  2  0  0  3  0  0  0  0  0  0
  188.7940  172.2830  139.2020 C   0  0  0  0  0  2  0  0  0  0  0  0
  191.1000  171.3750  139.6040 C   0  0  1  0  0  3  0  0  0  0  0  0
  189.7820  173.9570  140.8510 C   0  0  0  0  0  2  0  0  0  0  0  0
  188.5700  173.5620  140.0040 C   0  0  1  0  0  3  0  0  0  0  0  0
  190.3090  172.8250  141.7370 C   0  0  1  0  0  3  0  0  0  0  0  0
  190.2180  172.2120  138.6830 C   0  0  0  0  0  2  0  0  0  0  0  0
  192.2080  172.2650  140.1470 C   0  0  2  0  0  3  0  0  0  0  0  0
  188.2530  174.6080  139.1400 O   0  0  0  0  0  1  0  0  0  0  0  0
  193.4900  171.4650  140.2670 C   0  0  0  0  0  2  0  0  0  0  0  0
  194.3440  172.0980  141.1730 O   0  0  0  0  0  0  0  0  0  0  0  0
  194.6940  173.3110  140.5730 C   0  0  2  0  0  3  0  0  0  0  0  0
  195.7960  173.1280  139.7340 O   0  0  0  0  0  1  0  0  0  0  0  0
  195.0080  174.3570  141.6400 C   0  0  0  0  0  2  0  0  0  0  0  0
  197.1590  175.3640  141.9910 O   0  0  0  0  0  1  0  0  0  0  0  0
  196.4140  174.2060  142.2250 C   0  0  1  0  0  3  0  0  0  0  0  0
  196.0160  174.9660  144.5670 C   0  0  0  0  0  0  0  0  0  0  0  0
  197.2410  169.3630  146.0910 N   0  0  0  0  0  1  0  0  0  0  0  0
  196.7400  172.5830  144.1250 C   0  0  0  0  0  0  0  0  0  0  0  0
  197.1250  170.4910  145.2300 C   0  0  0  0  0  0  0  0  0  0  0  0
  196.4940  171.9780  145.6880 S   0  0  0  0  0  0  0  0  0  0  0  0
  197.4880  170.4730  143.9320 N   0  0  0  0  0  0  0  0  0  0  0  0
  196.3800  173.9030  143.6610 N   0  0  0  0  0  0  0  0  0  0  0  0
  196.2700  174.8810  145.7970 O   0  0  0  0  0  0  0  0  0  0  0  0
  197.2680  171.6330  143.3170 N   0  0  0  0  0  0  0  0  0  0  0  0
  195.3330  176.2000  144.0700 C   0  0  0  0  0  2  0  0  0  0  0  0
  194.3950  176.7270  145.1050 C   0  0  0  0  0  0  0  0  0  0  0  0
  194.7330  177.6600  145.8150 O   0  0  0  0  0  0  0  0  0  0  0  0
  192.7390  175.9930  146.7850 C   0  0  0  0  0  1  0  0  0  0  0  0
  193.0660  176.0760  145.3060 C   0  0  0  0  0  2  0  0  0  0  0  0
  189.0180  172.1350  142.8240 S   0  0  0  0  0  0  0  0  0  0  0  0
  190.0680  172.2020  144.3050 C   0  0  0  0  0  2  0  0  0  0  0  0
  190.5290  173.5310  144.5080 O   0  0  0  0  0  0  0  0  0  0  0  0
  188.1810  176.4680  146.3770 C   0  0  0  0  0  3  0  0  0  0  0  0
  188.5040  176.6090  145.0180 C   0  0  0  0  0  0  0  0  0  0  0  0
  188.6330  175.3590  147.0950 C   0  0  0  0  0  3  0  0  0  0  0  0
  189.4120  174.3870  146.4630 C   0  0  0  0  0  3  0  0  0  0  0  0
  189.2840  175.6330  144.3920 C   0  0  0  0  0  3  0  0  0  0  0  0
  189.7430  174.5170  145.1100 C   0  0  0  0  0  0  0  0  0  0  0  0
  188.0650  177.7430  144.2640 N   0  0  0  0  0  2  0  0  0  0  0  0
  185.7920  178.8310  143.3670 S   0  0  0  0  0  0  0  0  0  0  0  0
  187.1520  177.6500  143.1340 C   0  0  1  0  0  3  0  0  0  0  0  0
  187.0560  177.5750  140.6410 C   0  0  0  0  0  2  0  0  0  0  0  0
  185.7340  178.1940  140.6440 N   0  0  0  0  0  2  0  0  0  0  0  0
  183.3510  178.2310  141.8010 S   0  0  0  0  0  0  0  0  0  0  0  0
  187.8850  178.0040  141.8460 C   0  0  0  0  0  2  0  0  0  0  0  0
  184.9780  178.3480  141.8460 C   0  0  0  0  0  0  0  0  0  0  0  0
  1  6  1  0  0  0  0
  2  5  1  0  0  0  0
  3  8  1  0  0  0  0
  3  1  1  0  0  0  0
  4  6  1  0  0  0  0
  5  4  1  0  0  0  0
  6 31  1  0  0  0  0
  7  2  1  0  0  0  0
  7  3  1  0  0  0  0
  8 10  1  0  0  0  0
  8  1  1  0  0  0  0
  9  5  1  0  0  0  0
 10 11  1  0  0  0  0
 12 11  1  0  0  0  0
 12 14  1  0  0  0  0
 13 12  1  0  0  0  0
 14 16  1  0  0  0  0
 15 16  1  0  0  0  0
 16 23  1  0  0  0  0
 17 24  2  0  0  0  0
 19 21  1  0  0  0  0
 20 21  1  0  0  0  0
 20 18  1  0  0  0  0
 22 20  2  0  0  0  0
 23 19  1  0  0  0  0
 23 17  1  0  0  0  0
 25 22  1  0  0  0  0
 25 19  2  0  0  0  0
 26 17  1  0  0  0  0
 26 27  1  0  0  0  0
 27 30  1  0  0  0  0
 27 28  2  0  0  0  0
 30 29  1  0  0  0  0
 31 32  1  0  0  0  0
 32 33  1  0  0  0  0
 33 39  1  0  0  0  0
 34 36  1  0  0  0  0
 35 34  2  0  0  0  0
 37 36  2  0  0  0  0
 38 35  1  0  0  0  0
 38 39  2  0  0  0  0
 39 37  1  0  0  0  0
 40 35  1  0  0  0  0
 42 41  1  0  0  0  0
 42 40  1  0  0  0  0
 43 44  1  0  0  0  0
 43 46  1  0  0  0  0
 44 47  1  0  0  0  0
 45 47  2  0  0  0  0
 46 42  1  0  0  0  0
 47 41  1  0  0  0  0
M  END
>  <MODEL>
5

>  <REMARK>
 VINA RESULT:      -6.3      3.146      7.716
  Name = 
  15 active torsions:
  status: ('A' for Active; 'I' for Inactive)
    1  A    between atoms: C_1  and  C_41
    2  A    between atoms: C_4  and  N_44
    3  A    between atoms: C_7  and  N_44
    4  A    between atoms: O_8  and  C_11
    5  A    between atoms: O_8  and  C_40
    6  A    between atoms: C_11  and  S_26
    7  A    between atoms: C_13  and  C_41
    8  A    between atoms: C_13  and  C_42
    9  A    between atoms: C_15  and  C_34
   10  A    between atoms: C_15  and  N_36
   11  A    between atoms: C_21  and  C_34
   12  A    between atoms: C_21  and  O_39
   13  A    between atoms: C_24  and  C_38
   14  A    between atoms: C_24  and  O_39
   15  A    between atoms: S_26  and  C_30
                            x       y       z     vdW  Elec       q    Type
                         _______ _______ _______ _____ _____    ______ ____

>  <TORSDO>
F 15

$$$$
=
 OpenBabel11072409013D

 47 51  0  0  1  0  0  0  0  0999 V2000
  187.8460  177.2230  144.9040 C   0  0  2  0  0  3  0  0  0  0  0  0
  185.9390  179.0310  146.5520 C   0  0  0  0  0  2  0  0  0  0  0  0
  187.9800  177.5750  146.3980 C   0  0  1  0  0  3  0  0  0  0  0  0
  185.1920  177.1730  144.9750 C   0  0  0  0  0  2  0  0  0  0  0  0
  184.8050  178.4600  145.7060 C   0  0  1  0  0  3  0  0  0  0  0  0
  186.4880  177.2890  144.1680 C   0  0  1  0  0  3  0  0  0  0  0  0
  186.7360  177.9190  147.2100 C   0  0  0  0  0  2  0  0  0  0  0  0
  187.8750  176.1250  145.9480 C   0  0  2  0  0  3  0  0  0  0  0  0
  183.6960  178.2140  146.5130 O   0  0  0  0  0  1  0  0  0  0  0  0
  189.2490  175.4850  145.9710 C   0  0  0  0  0  2  0  0  0  0  0  0
  189.3140  174.4990  144.9840 O   0  0  0  0  0  0  0  0  0  0  0  0
  190.0490  173.4530  145.5470 C   0  0  2  0  0  3  0  0  0  0  0  0
  191.3120  173.9090  145.9310 O   0  0  0  0  0  1  0  0  0  0  0  0
  190.1810  172.3020  144.5520 C   0  0  0  0  0  2  0  0  0  0  0  0
  192.0840  170.8670  144.2690 O   0  0  0  0  0  1  0  0  0  0  0  0
  191.6010  172.1500  144.0040 C   0  0  1  0  0  3  0  0  0  0  0  0
  192.0230  173.7700  142.1550 C   0  0  0  0  0  0  0  0  0  0  0  0
  190.9480  169.1940  138.5340 N   0  0  0  0  0  1  0  0  0  0  0  0
  191.3440  171.3950  141.6130 C   0  0  0  0  0  0  0  0  0  0  0  0
  191.0240  169.8970  139.7700 C   0  0  0  0  0  0  0  0  0  0  0  0
  191.6300  171.4530  139.9450 S   0  0  0  0  0  0  0  0  0  0  0  0
  190.6400  169.3670  140.9480 N   0  0  0  0  0  0  0  0  0  0  0  0
  191.6660  172.4330  142.5650 N   0  0  0  0  0  0  0  0  0  0  0  0
  191.7920  174.1700  140.9840 O   0  0  0  0  0  0  0  0  0  0  0  0
  190.8230  170.1970  141.9720 N   0  0  0  0  0  0  0  0  0  0  0  0
  192.6700  174.7200  143.1120 C   0  0  0  0  0  2  0  0  0  0  0  0
  192.3760  176.1310  142.7230 C   0  0  0  0  0  0  0  0  0  0  0  0
  193.2440  176.8140  142.2060 O   0  0  0  0  0  0  0  0  0  0  0  0
  191.1840  178.1470  143.5110 C   0  0  0  0  0  1  0  0  0  0  0  0
  191.0350  176.7200  143.0180 C   0  0  0  0  0  2  0  0  0  0  0  0
  186.4420  178.6660  142.9730 S   0  0  0  0  0  0  0  0  0  0  0  0
  186.4160  177.5630  141.5290 C   0  0  0  0  0  2  0  0  0  0  0  0
  187.7070  177.0040  141.3280 O   0  0  0  0  0  0  0  0  0  0  0  0
  188.2800  172.9410  140.4370 C   0  0  0  0  0  3  0  0  0  0  0  0
  188.1910  173.8680  139.3870 C   0  0  0  0  0  0  0  0  0  0  0  0
  188.1830  173.3690  141.7630 C   0  0  0  0  0  3  0  0  0  0  0  0
  187.9950  174.7240  142.0480 C   0  0  0  0  0  3  0  0  0  0  0  0
  188.0020  175.2210  139.6790 C   0  0  0  0  0  3  0  0  0  0  0  0
  187.9030  175.6580  141.0100 C   0  0  0  0  0  0  0  0  0  0  0  0
  188.2740  173.4520  138.0200 N   0  0  0  0  0  2  0  0  0  0  0  0
  190.0280  172.2330  136.4100 S   0  0  0  0  0  0  0  0  0  0  0  0
  189.3990  173.7670  137.1520 C   0  0  1  0  0  3  0  0  0  0  0  0
  190.1570  175.3060  135.3400 C   0  0  0  0  0  2  0  0  0  0  0  0
  191.0480  174.2820  134.8020 N   0  0  0  0  0  2  0  0  0  0  0  0
  192.8080  172.3960  135.4030 S   0  0  0  0  0  0  0  0  0  0  0  0
  188.9450  174.6960  136.0330 C   0  0  0  0  0  2  0  0  0  0  0  0
  191.3310  173.0800  135.5190 C   0  0  0  0  0  0  0  0  0  0  0  0
  1  8  1  0  0  0  0
  1  3  1  0  0  0  0
  2  7  1  0  0  0  0
  3  7  1  0  0  0  0
  4  5  1  0  0  0  0
  5  9  1  0  0  0  0
  5  2  1  0  0  0  0
  6  1  1  0  0  0  0
  6  4  1  0  0  0  0
  8 10  1  0  0  0  0
  8  3  1  0  0  0  0
 11 12  1  0  0  0  0
 11 10  1  0  0  0  0
 12 13  1  0  0  0  0
 14 12  1  0  0  0  0
 16 15  1  0  0  0  0
 16 14  1  0  0  0  0
 17 23  1  0  0  0  0
 17 26  1  0  0  0  0
 18 20  1  0  0  0  0
 19 25  2  0  0  0  0
 19 23  1  0  0  0  0
 20 21  1  0  0  0  0
 20 22  2  0  0  0  0
 21 19  1  0  0  0  0
 22 25  1  0  0  0  0
 23 16  1  0  0  0  0
 24 17  2  0  0  0  0
 27 30  1  0  0  0  0
 27 26  1  0  0  0  0
 28 27  2  0  0  0  0
 30 29  1  0  0  0  0
 31  6  1  0  0  0  0
 32 31  1  0  0  0  0
 33 32  1  0  0  0  0
 34 36  1  0  0  0  0
 35 38  1  0  0  0  0
 35 34  2  0  0  0  0
 36 37  2  0  0  0  0
 38 39  2  0  0  0  0
 39 33  1  0  0  0  0
 39 37  1  0  0  0  0
 40 35  1  0  0  0  0
 41 42  1  0  0  0  0
 42 40  1  0  0  0  0
 43 46  1  0  0  0  0
 44 43  1  0  0  0  0
 44 47  1  0  0  0  0
 45 47  2  0  0  0  0
 46 42  1  0  0  0  0
 47 41  1  0  0  0  0
M  END
>  <MODEL>
6

>  <REMARK>
 VINA RESULT:      -6.2      2.876      4.724
  Name = 
  15 active torsions:
  status: ('A' for Active; 'I' for Inactive)
    1  A    between atoms: C_1  and  C_41
    2  A    between atoms: C_4  and  N_44
    3  A    between atoms: C_7  and  N_44
    4  A    between atoms: O_8  and  C_11
    5  A    between atoms: O_8  and  C_40
    6  A    between atoms: C_11  and  S_26
    7  A    between atoms: C_13  and  C_41
    8  A    between atoms: C_13  and  C_42
    9  A    between atoms: C_15  and  C_34
   10  A    between atoms: C_15  and  N_36
   11  A    between atoms: C_21  and  C_34
   12  A    between atoms: C_21  and  O_39
   13  A    between atoms: C_24  and  C_38
   14  A    between atoms: C_24  and  O_39
   15  A    between atoms: S_26  and  C_30
                            x       y       z     vdW  Elec       q    Type
                         _______ _______ _______ _____ _____    ______ ____

>  <TORSDO>
F 15

$$$$
=
 OpenBabel11072409013D

 47 51  0  0  1  0  0  0  0  0999 V2000
  186.5010  176.6420  145.2980 C   0  0  2  0  0  3  0  0  0  0  0  0
  185.1710  178.3040  147.5540 C   0  0  0  0  0  2  0  0  0  0  0  0
  185.1930  177.4490  145.1930 C   0  0  1  0  0  3  0  0  0  0  0  0
  187.6450  178.3810  146.9470 C   0  0  0  0  0  2  0  0  0  0  0  0
  186.5840  178.6510  148.0150 C   0  0  1  0  0  3  0  0  0  0  0  0
  187.5800  176.9700  146.3560 C   0  0  1  0  0  3  0  0  0  0  0  0
  184.9760  178.6620  146.0920 C   0  0  0  0  0  2  0  0  0  0  0  0
  186.3630  177.7420  144.2650 C   0  0  2  0  0  3  0  0  0  0  0  0
  186.6390  179.9920  148.3890 O   0  0  0  0  0  1  0  0  0  0  0  0
  186.0990  177.1270  142.9050 C   0  0  0  0  0  2  0  0  0  0  0  0
  187.0880  176.1820  142.6280 O   0  0  0  0  0  0  0  0  0  0  0  0
  187.6130  176.5410  141.3830 C   0  0  2  0  0  3  0  0  0  0  0  0
  186.7260  177.3910  140.7190 O   0  0  0  0  0  1  0  0  0  0  0  0
  187.8840  175.2950  140.5430 C   0  0  0  0  0  2  0  0  0  0  0  0
  187.8500  173.0930  141.4970 O   0  0  0  0  0  1  0  0  0  0  0  0
  188.6550  174.2180  141.3080 C   0  0  1  0  0  3  0  0  0  0  0  0
  191.1340  173.9540  141.3670 C   0  0  0  0  0  0  0  0  0  0  0  0
  190.5820  171.9640  135.8040 N   0  0  0  0  0  1  0  0  0  0  0  0
  189.8650  173.4240  139.2450 C   0  0  0  0  0  0  0  0  0  0  0  0
  190.1660  172.5490  137.0330 C   0  0  0  0  0  0  0  0  0  0  0  0
  191.1390  172.7030  138.3930 S   0  0  0  0  0  0  0  0  0  0  0  0
  188.9210  173.0200  137.2460 N   0  0  0  0  0  0  0  0  0  0  0  0
  189.9000  173.8460  140.6260 N   0  0  0  0  0  0  0  0  0  0  0  0
  192.2450  173.9650  140.7750 O   0  0  0  0  0  0  0  0  0  0  0  0
  188.7520  173.5010  138.4760 N   0  0  0  0  0  0  0  0  0  0  0  0
  191.1270  174.0600  142.8590 C   0  0  0  0  0  2  0  0  0  0  0  0
  191.4760  172.7450  143.4750 C   0  0  0  0  0  0  0  0  0  0  0  0
  190.9340  171.7250  143.0820 O   0  0  0  0  0  0  0  0  0  0  0  0
  193.3470  171.4760  144.4710 C   0  0  0  0  0  1  0  0  0  0  0  0
  192.4470  172.6890  144.6090 C   0  0  0  0  0  2  0  0  0  0  0  0
  187.6760  175.6760  147.6370 S   0  0  0  0  0  0  0  0  0  0  0  0
  189.2510  175.0160  147.0140 C   0  0  0  0  0  2  0  0  0  0  0  0
  190.2980  175.9390  147.2820 O   0  0  0  0  0  0  0  0  0  0  0  0
  193.2950  176.8230  144.4770 C   0  0  0  0  0  3  0  0  0  0  0  0
  193.6290  176.1020  145.6330 C   0  0  0  0  0  0  0  0  0  0  0  0
  191.9780  177.2360  144.2610 C   0  0  0  0  0  3  0  0  0  0  0  0
  190.9890  176.9350  145.2010 C   0  0  0  0  0  3  0  0  0  0  0  0
  192.6340  175.8040  146.5690 C   0  0  0  0  0  3  0  0  0  0  0  0
  191.3090  176.2180  146.3590 C   0  0  0  0  0  0  0  0  0  0  0  0
  194.9720  175.6790  145.8830 N   0  0  0  0  0  2  0  0  0  0  0  0
  196.6770  175.2400  143.8680 S   0  0  0  0  0  0  0  0  0  0  0  0
  195.6100  174.5760  145.1810 C   0  0  1  0  0  3  0  0  0  0  0  0
  196.8560  172.4410  145.5230 C   0  0  0  0  0  2  0  0  0  0  0  0
  197.5630  172.6160  144.2570 N   0  0  0  0  0  2  0  0  0  0  0  0
  197.3290  173.3160  141.7130 S   0  0  0  0  0  0  0  0  0  0  0  0
  196.4750  173.7770  146.1480 C   0  0  0  0  0  2  0  0  0  0  0  0
  197.1750  173.6120  143.3100 C   0  0  0  0  0  0  0  0  0  0  0  0
  1  6  1  0  0  0  0
  2  5  1  0  0  0  0
  3  1  1  0  0  0  0
  3  7  1  0  0  0  0
  4  5  1  0  0  0  0
  5  9  1  0  0  0  0
  6  4  1  0  0  0  0
  6 31  1  0  0  0  0
  7  2  1  0  0  0  0
  8  3  1  0  0  0  0
  8  1  1  0  0  0  0
 10  8  1  0  0  0  0
 11 10  1  0  0  0  0
 12 11  1  0  0  0  0
 13 12  1  0  0  0  0
 14 16  1  0  0  0  0
 14 12  1  0  0  0  0
 16 15  1  0  0  0  0
 17 26  1  0  0  0  0
 18 20  1  0  0  0  0
 19 23  1  0  0  0  0
 20 22  2  0  0  0  0
 20 21  1  0  0  0  0
 21 19  1  0  0  0  0
 22 25  1  0  0  0  0
 23 16  1  0  0  0  0
 23 17  1  0  0  0  0
 24 17  2  0  0  0  0
 25 19  2  0  0  0  0
 26 27  1  0  0  0  0
 27 30  1  0  0  0  0
 28 27  2  0  0  0  0
 29 30  1  0  0  0  0
 32 33  1  0  0  0  0
 32 31  1  0  0  0  0
 34 35  1  0  0  0  0
 35 40  1  0  0  0  0
 35 38  2  0  0  0  0
 36 34  2  0  0  0  0
 36 37  1  0  0  0  0
 37 39  2  0  0  0  0
 39 38  1  0  0  0  0
 39 33  1  0  0  0  0
 41 42  1  0  0  0  0
 42 40  1  0  0  0  0
 42 46  1  0  0  0  0
 43 46  1  0  0  0  0
 44 43  1  0  0  0  0
 45 47  2  0  0  0  0
 47 41  1  0  0  0  0
 47 44  1  0  0  0  0
M  END
>  <MODEL>
7

>  <REMARK>
 VINA RESULT:      -6.1      2.444      6.217
  Name = 
  15 active torsions:
  status: ('A' for Active; 'I' for Inactive)
    1  A    between atoms: C_1  and  C_41
    2  A    between atoms: C_4  and  N_44
    3  A    between atoms: C_7  and  N_44
    4  A    between atoms: O_8  and  C_11
    5  A    between atoms: O_8  and  C_40
    6  A    between atoms: C_11  and  S_26
    7  A    between atoms: C_13  and  C_41
    8  A    between atoms: C_13  and  C_42
    9  A    between atoms: C_15  and  C_34
   10  A    between atoms: C_15  and  N_36
   11  A    between atoms: C_21  and  C_34
   12  A    between atoms: C_21  and  O_39
   13  A    between atoms: C_24  and  C_38
   14  A    between atoms: C_24  and  O_39
   15  A    between atoms: S_26  and  C_30
                            x       y       z     vdW  Elec       q    Type
                         _______ _______ _______ _____ _____    ______ ____

>  <TORSDO>
F 15

$$$$
=
 OpenBabel11072409013D

 47 51  0  0  1  0  0  0  0  0999 V2000
  192.1180  174.5070  144.4150 C   0  0  2  0  0  3  0  0  0  0  0  0
  190.9700  174.9260  147.2660 C   0  0  0  0  0  2  0  0  0  0  0  0
  190.8400  173.8680  144.9910 C   0  0  1  0  0  3  0  0  0  0  0  0
  191.7780  176.7910  145.7280 C   0  0  0  0  0  2  0  0  0  0  0  0
  191.4710  176.3640  147.1640 C   0  0  1  0  0  3  0  0  0  0  0  0
  192.7000  175.8230  144.9820 C   0  0  1  0  0  3  0  0  0  0  0  0
  190.0670  174.5830  146.0950 C   0  0  0  0  0  2  0  0  0  0  0  0
  190.7820  174.7230  143.7340 C   0  0  2  0  0  3  0  0  0  0  0  0
  190.5230  177.2290  147.7080 O   0  0  0  0  0  1  0  0  0  0  0  0
  190.6860  173.8260  142.5150 C   0  0  0  0  0  2  0  0  0  0  0  0
  190.0020  174.5010  141.5010 O   0  0  0  0  0  0  0  0  0  0  0  0
  188.6830  174.6140  141.9480 C   0  0  2  0  0  3  0  0  0  0  0  0
  187.9760  173.4460  141.6510 O   0  0  0  0  0  1  0  0  0  0  0  0
  188.0070  175.8220  141.3040 C   0  0  0  0  0  2  0  0  0  0  0  0
  188.3670  178.1850  141.5260 O   0  0  0  0  0  1  0  0  0  0  0  0
  187.9690  177.0430  142.2240 C   0  0  1  0  0  3  0  0  0  0  0  0
  186.4980  177.0510  144.2380 C   0  0  0  0  0  0  0  0  0  0  0  0
  182.2070  178.7630  140.5140 N   0  0  0  0  0  1  0  0  0  0  0  0
  185.5210  177.5870  141.9670 C   0  0  0  0  0  0  0  0  0  0  0  0
  183.4940  178.2970  140.9030 C   0  0  0  0  0  0  0  0  0  0  0  0
  184.0030  178.1210  142.4940 S   0  0  0  0  0  0  0  0  0  0  0  0
  184.4610  177.9710  140.0230 N   0  0  0  0  0  0  0  0  0  0  0  0
  186.6400  177.2430  142.8150 N   0  0  0  0  0  0  0  0  0  0  0  0
  185.3620  176.8900  144.7580 O   0  0  0  0  0  0  0  0  0  0  0  0
  185.5890  177.5820  140.6150 N   0  0  0  0  0  0  0  0  0  0  0  0
  187.6950  177.0320  145.1340 C   0  0  0  0  0  2  0  0  0  0  0  0
  187.2850  177.2490  146.5540 C   0  0  0  0  0  0  0  0  0  0  0  0
  187.2760  176.3120  147.3350 O   0  0  0  0  0  0  0  0  0  0  0  0
  186.2240  178.5210  148.3870 C   0  0  0  0  0  1  0  0  0  0  0  0
  186.8330  178.6010  147.0000 C   0  0  0  0  0  2  0  0  0  0  0  0
  194.2670  175.5330  145.8690 S   0  0  0  0  0  0  0  0  0  0  0  0
  195.2630  176.4190  144.6330 C   0  0  0  0  0  2  0  0  0  0  0  0
  196.2420  175.5460  144.0880 O   0  0  0  0  0  0  0  0  0  0  0  0
  195.2120  172.1910  141.7820 C   0  0  0  0  0  3  0  0  0  0  0  0
  196.0940  172.0360  142.8640 C   0  0  0  0  0  0  0  0  0  0  0  0
  194.6820  173.4480  141.4820 C   0  0  0  0  0  3  0  0  0  0  0  0
  195.0300  174.5570  142.2570 C   0  0  0  0  0  3  0  0  0  0  0  0
  196.4380  173.1500  143.6350 C   0  0  0  0  0  3  0  0  0  0  0  0
  195.9090  174.4160  143.3370 C   0  0  0  0  0  0  0  0  0  0  0  0
  196.6610  170.7630  143.1830 N   0  0  0  0  0  2  0  0  0  0  0  0
  197.1950  170.2930  145.7620 S   0  0  0  0  0  0  0  0  0  0  0  0
  196.1990  169.9320  144.2860 C   0  0  1  0  0  3  0  0  0  0  0  0
  194.1530  169.1620  145.4890 C   0  0  0  0  0  2  0  0  0  0  0  0
  194.9030  169.0160  146.7330 N   0  0  0  0  0  2  0  0  0  0  0  0
  197.1630  168.1680  147.8240 S   0  0  0  0  0  0  0  0  0  0  0  0
  194.7410  170.2480  144.5960 C   0  0  0  0  0  2  0  0  0  0  0  0
  196.3290  169.0860  146.7640 C   0  0  0  0  0  0  0  0  0  0  0  0
  1  6  1  0  0  0  0
  1  3  1  0  0  0  0
  3  7  1  0  0  0  0
  4  5  1  0  0  0  0
  5  2  1  0  0  0  0
  5  9  1  0  0  0  0
  6  4  1  0  0  0  0
  6 31  1  0  0  0  0
  7  2  1  0  0  0  0
  8  1  1  0  0  0  0
  8  3  1  0  0  0  0
 10  8  1  0  0  0  0
 11 12  1  0  0  0  0
 11 10  1  0  0  0  0
 13 12  1  0  0  0  0
 14 12  1  0  0  0  0
 14 16  1  0  0  0  0
 15 16  1  0  0  0  0
 16 23  1  0  0  0  0
 17 24  2  0  0  0  0
 17 26  1  0  0  0  0
 18 20  1  0  0  0  0
 19 21  1  0  0  0  0
 19 23  1  0  0  0  0
 20 21  1  0  0  0  0
 22 25  1  0  0  0  0
 22 20  2  0  0  0  0
 23 17  1  0  0  0  0
 25 19  2  0  0  0  0
 26 27  1  0  0  0  0
 27 30  1  0  0  0  0
 27 28  2  0  0  0  0
 30 29  1  0  0  0  0
 32 31  1  0  0  0  0
 33 32  1  0  0  0  0
 34 35  1  0  0  0  0
 35 40  1  0  0  0  0
 35 38  2  0  0  0  0
 36 34  2  0  0  0  0
 36 37  1  0  0  0  0
 37 39  2  0  0  0  0
 39 38  1  0  0  0  0
 39 33  1  0  0  0  0
 40 42  1  0  0  0  0
 41 47  1  0  0  0  0
 42 46  1  0  0  0  0
 42 41  1  0  0  0  0
 43 44  1  0  0  0  0
 44 47  1  0  0  0  0
 46 43  1  0  0  0  0
 47 45  2  0  0  0  0
M  END
>  <MODEL>
8

>  <REMARK>
 VINA RESULT:      -6.1      3.931      7.825
  Name = 
  15 active torsions:
  status: ('A' for Active; 'I' for Inactive)
    1  A    between atoms: C_1  and  C_41
    2  A    between atoms: C_4  and  N_44
    3  A    between atoms: C_7  and  N_44
    4  A    between atoms: O_8  and  C_11
    5  A    between atoms: O_8  and  C_40
    6  A    between atoms: C_11  and  S_26
    7  A    between atoms: C_13  and  C_41
    8  A    between atoms: C_13  and  C_42
    9  A    between atoms: C_15  and  C_34
   10  A    between atoms: C_15  and  N_36
   11  A    between atoms: C_21  and  C_34
   12  A    between atoms: C_21  and  O_39
   13  A    between atoms: C_24  and  C_38
   14  A    between atoms: C_24  and  O_39
   15  A    between atoms: S_26  and  C_30
                            x       y       z     vdW  Elec       q    Type
                         _______ _______ _______ _____ _____    ______ ____

>  <TORSDO>
F 15

$$$$
=
 OpenBabel11072409013D

 47 51  0  0  1  0  0  0  0  0999 V2000
  187.8960  177.0500  145.3890 C   0  0  2  0  0  3  0  0  0  0  0  0
  185.9540  179.0410  146.7630 C   0  0  0  0  0  2  0  0  0  0  0  0
  187.9500  177.5190  146.8550 C   0  0  1  0  0  3  0  0  0  0  0  0
  185.2410  177.0840  145.2940 C   0  0  0  0  0  2  0  0  0  0  0  0
  184.8550  178.4370  145.8950 C   0  0  1  0  0  3  0  0  0  0  0  0
  186.5880  177.0960  144.5650 C   0  0  1  0  0  3  0  0  0  0  0  0
  186.6700  177.9630  147.5570 C   0  0  0  0  0  2  0  0  0  0  0  0
  187.8230  176.0410  146.5170 C   0  0  2  0  0  3  0  0  0  0  0  0
  183.6910  178.2890  146.6470 O   0  0  0  0  0  1  0  0  0  0  0  0
  189.1700  175.3650  146.6780 C   0  0  0  0  0  2  0  0  0  0  0  0
  189.7630  175.2160  145.4220 O   0  0  0  0  0  0  0  0  0  0  0  0
  191.1400  175.3060  145.6450 C   0  0  2  0  0  3  0  0  0  0  0  0
  191.3980  176.1990  146.6890 O   0  0  0  0  0  1  0  0  0  0  0  0
  191.8540  175.7590  144.3730 C   0  0  0  0  0  2  0  0  0  0  0  0
  191.7040  175.2840  142.0240 O   0  0  0  0  0  1  0  0  0  0  0  0
  191.8530  174.6890  143.2790 C   0  0  1  0  0  3  0  0  0  0  0  0
  194.3230  174.5060  142.9870 C   0  0  0  0  0  0  0  0  0  0  0  0
  193.6260  168.8520  144.6470 N   0  0  0  0  0  1  0  0  0  0  0  0
  192.9800  172.4630  143.6330 C   0  0  0  0  0  0  0  0  0  0  0  0
  193.2260  170.1620  144.2590 C   0  0  0  0  0  0  0  0  0  0  0  0
  194.2820  171.4400  143.9900 S   0  0  0  0  0  0  0  0  0  0  0  0
  191.9390  170.5250  144.0940 N   0  0  0  0  0  0  0  0  0  0  0  0
  193.0700  173.8690  143.3140 N   0  0  0  0  0  0  0  0  0  0  0  0
  195.3370  173.8220  142.6860 O   0  0  0  0  0  0  0  0  0  0  0  0
  191.8020  171.8050  143.7520 N   0  0  0  0  0  0  0  0  0  0  0  0
  194.4520  175.9960  142.9910 C   0  0  0  0  0  2  0  0  0  0  0  0
  195.5220  176.4220  143.9420 C   0  0  0  0  0  0  0  0  0  0  0  0
  196.5830  176.8480  143.5150 O   0  0  0  0  0  0  0  0  0  0  0  0
  194.5690  177.4780  145.9620 C   0  0  0  0  0  1  0  0  0  0  0  0
  195.3110  176.2750  145.4130 C   0  0  0  0  0  2  0  0  0  0  0  0
  186.6610  178.3720  143.2640 S   0  0  0  0  0  0  0  0  0  0  0  0
  186.4210  177.1750  141.9170 C   0  0  0  0  0  2  0  0  0  0  0  0
  187.6830  176.7530  141.4180 O   0  0  0  0  0  0  0  0  0  0  0  0
  188.7180  172.6940  141.1310 C   0  0  0  0  0  3  0  0  0  0  0  0
  188.5350  173.4400  139.9570 C   0  0  0  0  0  0  0  0  0  0  0  0
  188.5620  173.2990  142.3800 C   0  0  0  0  0  3  0  0  0  0  0  0
  188.2190  174.6500  142.4640 C   0  0  0  0  0  3  0  0  0  0  0  0
  188.1920  174.7910  140.0480 C   0  0  0  0  0  3  0  0  0  0  0  0
  188.0320  175.4050  141.3010 C   0  0  0  0  0  0  0  0  0  0  0  0
  188.6760  172.8400  138.6660 N   0  0  0  0  0  2  0  0  0  0  0  0
  190.2830  171.0210  137.5400 S   0  0  0  0  0  0  0  0  0  0  0  0
  189.9420  172.7570  137.9530 C   0  0  1  0  0  3  0  0  0  0  0  0
  191.2590  173.7690  136.0900 C   0  0  0  0  0  2  0  0  0  0  0  0
  191.9450  172.5040  135.8480 N   0  0  0  0  0  2  0  0  0  0  0  0
  193.1270  170.4190  136.9760 S   0  0  0  0  0  0  0  0  0  0  0  0
  189.8600  173.5560  136.6580 C   0  0  0  0  0  2  0  0  0  0  0  0
  191.8480  171.4090  136.7600 C   0  0  0  0  0  0  0  0  0  0  0  0
  1  8  1  0  0  0  0
  1  3  1  0  0  0  0
  2  7  1  0  0  0  0
  3  7  1  0  0  0  0
  4  5  1  0  0  0  0
  5  9  1  0  0  0  0
  5  2  1  0  0  0  0
  6  4  1  0  0  0  0
  6  1  1  0  0  0  0
  8 10  1  0  0  0  0
  8  3  1  0  0  0  0
 11 12  1  0  0  0  0
 11 10  1  0  0  0  0
 12 13  1  0  0  0  0
 14 12  1  0  0  0  0
 15 16  1  0  0  0  0
 16 23  1  0  0  0  0
 16 14  1  0  0  0  0
 17 26  1  0  0  0  0
 17 23  1  0  0  0  0
 19 25  2  0  0  0  0
 19 21  1  0  0  0  0
 20 18  1  0  0  0  0
 21 20  1  0  0  0  0
 22 20  2  0  0  0  0
 23 19  1  0  0  0  0
 24 17  2  0  0  0  0
 25 22  1  0  0  0  0
 26 27  1  0  0  0  0
 27 30  1  0  0  0  0
 28 27  2  0  0  0  0
 30 29  1  0  0  0  0
 31  6  1  0  0  0  0
 32 31  1  0  0  0  0
 33 32  1  0  0  0  0
 34 36  1  0  0  0  0
 35 38  1  0  0  0  0
 35 34  2  0  0  0  0
 36 37  2  0  0  0  0
 38 39  2  0  0  0  0
 39 33  1  0  0  0  0
 39 37  1  0  0  0  0
 40 35  1  0  0  0  0
 41 42  1  0  0  0  0
 42 40  1  0  0  0  0
 43 46  1  0  0  0  0
 44 43  1  0  0  0  0
 44 47  1  0  0  0  0
 46 42  1  0  0  0  0
 47 45  2  0  0  0  0
 47 41  1  0  0  0  0
M  END
>  <MODEL>
9

>  <REMARK>
 VINA RESULT:      -6.0      2.438      4.144
  Name = 
  15 active torsions:
  status: ('A' for Active; 'I' for Inactive)
    1  A    between atoms: C_1  and  C_41
    2  A    between atoms: C_4  and  N_44
    3  A    between atoms: C_7  and  N_44
    4  A    between atoms: O_8  and  C_11
    5  A    between atoms: O_8  and  C_40
    6  A    between atoms: C_11  and  S_26
    7  A    between atoms: C_13  and  C_41
    8  A    between atoms: C_13  and  C_42
    9  A    between atoms: C_15  and  C_34
   10  A    between atoms: C_15  and  N_36
   11  A    between atoms: C_21  and  C_34
   12  A    between atoms: C_21  and  O_39
   13  A    between atoms: C_24  and  C_38
   14  A    between atoms: C_24  and  O_39
   15  A    between atoms: S_26  and  C_30
                            x       y       z     vdW  Elec       q    Type
                         _______ _______ _______ _____ _____    ______ ____

>  <TORSDO>
F 15

$$$$
