=
 OpenBabel11072409253D

 39 42  0  0  1  0  0  0  0  0999 V2000
  188.3510  175.7920  146.8420 C   0  0  0  0  0  2  0  0  0  0  0  0
  195.0390  175.8300  145.1650 O   0  0  0  0  0  1  0  0  0  0  0  0
  194.8170  175.2740  143.9020 C   0  0  2  0  0  3  0  0  0  0  0  0
  189.1300  177.3890  145.1760 N   0  0  0  0  0  2  0  0  0  0  0  0
  189.3270  174.6420  146.7070 C   0  0  0  0  0  2  0  0  0  0  0  0
  192.1000  172.6310  144.4760 C   0  0  0  0  0  0  0  0  0  0  0  0
  194.3300  171.4660  144.1750 C   0  0  1  0  0  3  0  0  0  0  0  0
  192.8140  171.5110  144.2370 C   0  0  0  0  0  3  0  0  0  0  0  0
  191.2610  177.9960  144.5220 O   0  0  0  0  0  0  0  0  0  0  0  0
  192.8140  173.9440  144.7930 C   0  0  2  0  0  3  0  0  0  0  0  0
  193.9020  176.1910  143.0780 C   0  0  2  0  0  3  0  0  0  0  0  0
  192.0610  175.2260  144.4590 C   0  0  0  0  0  0  0  0  0  0  0  0
  195.0070  172.7940  144.5410 C   0  0  0  0  0  2  0  0  0  0  0  0
  190.5090  177.0790  144.9480 C   0  0  0  0  0  0  0  0  0  0  0  0
  194.1380  173.9210  144.0250 C   0  0  2  0  0  3  0  0  0  0  0  0
  190.7690  175.1180  146.5750 C   0  0  0  0  0  2  0  0  0  0  0  0
  192.5090  175.9770  143.3610 O   0  0  0  0  0  0  0  0  0  0  0  0
  188.1010  176.4100  145.4830 C   0  0  0  0  0  2  0  0  0  0  0  0
  191.0760  175.7330  145.2370 C   0  0  0  0  0  0  0  0  0  0  0  0
  194.1620  176.0190  141.5820 C   0  0  2  0  0  3  0  0  0  0  0  0
  193.5590  174.8600  141.1210 F   0  0  0  0  0  0  0  0  0  0  0  0
  196.1370  174.8970  140.8630 O   0  0  0  0  0  0  0  0  0  0  0  0
  196.4220  177.0820  141.4890 O   0  0  0  0  0  1  0  0  0  0  0  0
  195.6260  175.9590  141.3050 C   0  0  0  0  0  0  0  0  0  0  0  0
  190.3090  172.4740  144.5020 S   0  0  0  0  0  0  0  0  0  0  0  0
  188.7740  173.6340  142.5160 C   0  0  1  0  0  3  0  0  0  0  0  0
  190.2110  171.5980  141.8490 C   0  0  0  0  0  2  0  0  0  0  0  0
  187.8910  173.0540  141.3980 C   0  0  0  0  0  2  0  0  0  0  0  0
  190.0860  172.8490  142.7260 C   0  0  2  0  0  3  0  0  0  0  0  0
  189.7640  171.9250  140.4550 C   0  0  0  0  0  3  0  0  0  0  0  0
  188.6910  172.6120  140.2740 N   0  0  0  0  0  0  0  0  0  0  0  0
  189.0850  175.0920  142.2190 C   0  0  0  0  0  2  0  0  0  0  0  0
  188.2370  177.0720  141.7390 C   0  0  0  0  0  1  0  0  0  0  0  0
  187.9870  175.7070  141.6160 O   0  0  0  0  0  0  0  0  0  0  0  0
  194.8110  170.4440  144.9970 O   0  0  0  0  0  0  0  0  0  0  0  0
  195.7160  171.0680  145.8580 C   0  0  0  0  0  2  0  0  0  0  0  0
  196.7690  170.0980  146.2690 C   0  0  0  0  0  0  0  0  0  0  0  0
  197.7840  169.9290  145.5460 O   0  0  0  0  0  0  0  0  0  0  0  0
  196.6100  169.3500  147.4270 O   0  0  0  0  0  1  0  0  0  0  0  0
  3 15  1  0  0  0  0
  3  2  1  1  0  0  0
  4 18  1  0  0  0  0
  5  1  1  0  0  0  0
  6 25  1  0  0  0  0
  6 10  1  0  0  0  0
  7  8  1  0  0  0  0
  7 13  1  0  0  0  0
  7 35  1  1  0  0  0
  8  6  2  0  0  0  0
  9 14  2  0  0  0  0
 10 12  1  6  0  0  0
 11 20  1  6  0  0  0
 11 17  1  0  0  0  0
 11  3  1  0  0  0  0
 12 19  2  0  0  0  0
 14  4  1  0  0  0  0
 14 19  1  0  0  0  0
 15 13  1  1  0  0  0
 15 10  1  0  0  0  0
 16  5  1  0  0  0  0
 17 12  1  0  0  0  0
 18  1  1  0  0  0  0
 19 16  1  0  0  0  0
 20 21  1  1  0  0  0
 22 24  2  0  0  0  0
 24 23  1  0  0  0  0
 24 20  1  0  0  0  0
 26 32  1  6  0  0  0
 26 29  1  0  0  0  0
 27 29  1  0  0  0  0
 28 26  1  0  0  0  0
 29 25  1  1  0  0  0
 30 27  1  0  0  0  0
 31 30  2  0  0  0  0
 31 28  1  0  0  0  0
 34 33  1  0  0  0  0
 34 32  1  0  0  0  0
 35 36  1  0  0  0  0
 36 37  1  0  0  0  0
 37 39  1  0  0  0  0
 38 37  2  0  0  0  0
M  END
>  <MODEL>
1

>  <REMARK>
 VINA RESULT:      -6.5      0.000      0.000
  Name = 
  9 active torsions:
  status: ('A' for Active; 'I' for Inactive)
    1  A    between atoms: C_6  and  C_24
    2  A    between atoms: C_6  and  C_32
    3  A    between atoms: C_7  and  S_18
    4  A    between atoms: C_8  and  C_14
    5  A    between atoms: C_10  and  O_37
    6  A    between atoms: C_13  and  C_25
    7  A    between atoms: C_13  and  O_37
    8  A    between atoms: C_14  and  O_23
    9  A    between atoms: C_16  and  S_18
                            x       y       z     vdW  Elec       q    Type
                         _______ _______ _______ _____ _____    ______ ____

>  <TORSDO>
F 9

$$$$
=
 OpenBabel11072409253D

 39 42  0  0  1  0  0  0  0  0999 V2000
  190.4570  172.5670  139.7220 C   0  0  0  0  0  2  0  0  0  0  0  0
  189.3770  173.9540  146.3900 O   0  0  0  0  0  1  0  0  0  0  0  0
  189.5820  175.3270  146.2290 C   0  0  2  0  0  3  0  0  0  0  0  0
  188.4010  173.7070  140.3620 N   0  0  0  0  0  2  0  0  0  0  0  0
  191.4360  172.9800  140.8010 C   0  0  0  0  0  2  0  0  0  0  0  0
  192.5060  175.5850  143.7640 C   0  0  0  0  0  0  0  0  0  0  0  0
  193.3450  176.1210  146.0940 C   0  0  1  0  0  3  0  0  0  0  0  0
  193.4510  176.0980  144.5800 C   0  0  0  0  0  3  0  0  0  0  0  0
  187.4550  174.1010  142.4320 O   0  0  0  0  0  0  0  0  0  0  0  0
  191.2740  174.8990  144.3510 C   0  0  2  0  0  3  0  0  0  0  0  0
  188.5560  175.8990  145.2380 C   0  0  2  0  0  3  0  0  0  0  0  0
  190.0210  174.8940  143.4850 C   0  0  0  0  0  0  0  0  0  0  0  0
  192.1160  175.3850  146.6430 C   0  0  0  0  0  2  0  0  0  0  0  0
  188.5160  173.9660  141.7650 C   0  0  0  0  0  0  0  0  0  0  0  0
  190.9700  175.6010  145.6770 C   0  0  2  0  0  3  0  0  0  0  0  0
  190.8190  172.9310  142.1940 C   0  0  0  0  0  2  0  0  0  0  0  0
  188.9600  175.7300  143.8690 O   0  0  0  0  0  0  0  0  0  0  0  0
  189.5130  173.7130  139.4260 C   0  0  0  0  0  2  0  0  0  0  0  0
  189.8350  174.0380  142.4520 C   0  0  0  0  0  0  0  0  0  0  0  0
  188.2870  177.3750  145.5240 C   0  0  2  0  0  3  0  0  0  0  0  0
  188.7650  177.7160  146.7780 F   0  0  0  0  0  0  0  0  0  0  0  0
  186.3220  178.5290  146.2210 O   0  0  0  0  0  1  0  0  0  0  0  0
  186.0250  177.0260  144.5190 O   0  0  0  0  0  0  0  0  0  0  0  0
  186.8260  177.6670  145.4550 C   0  0  0  0  0  0  0  0  0  0  0  0
  192.8190  175.6610  141.9940 S   0  0  0  0  0  0  0  0  0  0  0  0
  195.3510  175.5410  140.8900 C   0  0  1  0  0  3  0  0  0  0  0  0
  194.6030  173.5340  142.3280 C   0  0  0  0  0  2  0  0  0  0  0  0
  196.1400  174.4200  140.1930 C   0  0  0  0  0  2  0  0  0  0  0  0
  194.5390  175.0500  142.1070 C   0  0  2  0  0  3  0  0  0  0  0  0
  196.0170  173.0670  142.1500 C   0  0  0  0  0  3  0  0  0  0  0  0
  196.7120  173.5030  141.1580 N   0  0  0  0  0  0  0  0  0  0  0  0
  196.3020  176.6480  141.3150 C   0  0  0  0  0  2  0  0  0  0  0  0
  197.7210  176.4220  142.9900 C   0  0  0  0  0  1  0  0  0  0  0  0
  196.3860  176.7050  142.7070 O   0  0  0  0  0  0  0  0  0  0  0  0
  194.5080  175.5960  146.6620 O   0  0  0  0  0  0  0  0  0  0  0  0
  195.3560  175.3440  145.5820 C   0  0  0  0  0  2  0  0  0  0  0  0
  195.9870  174.0050  145.7400 C   0  0  0  0  0  0  0  0  0  0  0  0
  197.2370  173.9060  145.8390 O   0  0  0  0  0  1  0  0  0  0  0  0
  195.1990  172.8620  145.7350 O   0  0  0  0  0  0  0  0  0  0  0  0
  1  5  1  0  0  0  0
  3  2  1  6  0  0  0
  4 14  1  0  0  0  0
  5 16  1  0  0  0  0
  6 10  1  0  0  0  0
  6  8  2  0  0  0  0
  7 13  1  0  0  0  0
  7 35  1  1  0  0  0
  8  7  1  0  0  0  0
 10 12  1  6  0  0  0
 10 15  1  0  0  0  0
 11 20  1  1  0  0  0
 11  3  1  0  0  0  0
 12 17  1  0  0  0  0
 14  9  2  0  0  0  0
 14 19  1  0  0  0  0
 15  3  1  0  0  0  0
 15 13  1  1  0  0  0
 16 19  1  0  0  0  0
 17 11  1  0  0  0  0
 18  1  1  0  0  0  0
 18  4  1  0  0  0  0
 19 12  2  0  0  0  0
 20 21  1  1  0  0  0
 23 24  2  0  0  0  0
 24 20  1  0  0  0  0
 24 22  1  0  0  0  0
 25  6  1  0  0  0  0
 26 32  1  1  0  0  0
 26 29  1  0  0  0  0
 28 26  1  0  0  0  0
 28 31  1  0  0  0  0
 29 25  1  6  0  0  0
 29 27  1  0  0  0  0
 30 27  1  0  0  0  0
 31 30  2  0  0  0  0
 32 34  1  0  0  0  0
 34 33  1  0  0  0  0
 36 37  1  0  0  0  0
 36 35  1  0  0  0  0
 37 38  1  0  0  0  0
 39 37  2  0  0  0  0
M  END
>  <MODEL>
2

>  <REMARK>
 VINA RESULT:      -6.4      2.819      6.382
  Name = 
  9 active torsions:
  status: ('A' for Active; 'I' for Inactive)
    1  A    between atoms: C_6  and  C_24
    2  A    between atoms: C_6  and  C_32
    3  A    between atoms: C_7  and  S_18
    4  A    between atoms: C_8  and  C_14
    5  A    between atoms: C_10  and  O_37
    6  A    between atoms: C_13  and  C_25
    7  A    between atoms: C_13  and  O_37
    8  A    between atoms: C_14  and  O_23
    9  A    between atoms: C_16  and  S_18
                            x       y       z     vdW  Elec       q    Type
                         _______ _______ _______ _____ _____    ______ ____

>  <TORSDO>
F 9

$$$$
=
 OpenBabel11072409253D

 39 42  0  0  1  0  0  0  0  0999 V2000
  191.5530  171.1580  140.6440 C   0  0  0  0  0  2  0  0  0  0  0  0
  186.4000  175.0210  143.1080 O   0  0  0  0  0  1  0  0  0  0  0  0
  186.9450  176.2140  142.6250 C   0  0  2  0  0  3  0  0  0  0  0  0
  189.9610  172.1250  139.0730 N   0  0  0  0  0  2  0  0  0  0  0  0
  191.5350  172.1330  141.8040 C   0  0  0  0  0  2  0  0  0  0  0  0
  190.7130  175.8700  143.2390 C   0  0  0  0  0  0  0  0  0  0  0  0
  189.7410  177.4560  144.9600 C   0  0  1  0  0  3  0  0  0  0  0  0
  190.8800  176.8180  144.1860 C   0  0  0  0  0  3  0  0  0  0  0  0
  187.9430  173.1960  139.4110 O   0  0  0  0  0  0  0  0  0  0  0  0
  189.3220  175.3090  142.9510 C   0  0  2  0  0  3  0  0  0  0  0  0
  187.0790  176.1510  141.0970 C   0  0  2  0  0  3  0  0  0  0  0  0
  189.0920  174.7470  141.5540 C   0  0  0  0  0  0  0  0  0  0  0  0
  188.3680  176.8350  144.6710 C   0  0  0  0  0  2  0  0  0  0  0  0
  189.1000  172.9620  139.8520 C   0  0  0  0  0  0  0  0  0  0  0  0
  188.3280  176.4450  143.2090 C   0  0  2  0  0  3  0  0  0  0  0  0
  190.1220  172.5740  142.1680 C   0  0  0  0  0  2  0  0  0  0  0  0
  188.2850  175.4890  140.6770 O   0  0  0  0  0  0  0  0  0  0  0  0
  191.3730  171.9120  139.3440 C   0  0  0  0  0  2  0  0  0  0  0  0
  189.5150  173.5200  141.1680 C   0  0  0  0  0  0  0  0  0  0  0  0
  187.0120  177.5490  140.4850 C   0  0  2  0  0  3  0  0  0  0  0  0
  188.1280  178.2860  140.8490 F   0  0  0  0  0  0  0  0  0  0  0  0
  184.7140  178.1420  140.2760 O   0  0  0  0  0  0  0  0  0  0  0  0
  185.7920  179.0200  142.0960 O   0  0  0  0  0  1  0  0  0  0  0  0
  185.7810  178.2620  140.9330 C   0  0  0  0  0  0  0  0  0  0  0  0
  192.1940  175.2460  142.4310 S   0  0  0  0  0  0  0  0  0  0  0  0
  194.6280  175.1030  143.7340 C   0  0  1  0  0  3  0  0  0  0  0  0
  192.7240  173.6190  144.6410 C   0  0  0  0  0  2  0  0  0  0  0  0
  195.4580  173.9300  144.2810 C   0  0  0  0  0  2  0  0  0  0  0  0
  193.1130  174.9470  143.9830 C   0  0  2  0  0  3  0  0  0  0  0  0
  193.6870  173.3150  145.7500 C   0  0  0  0  0  3  0  0  0  0  0  0
  194.9500  173.4800  145.5610 N   0  0  0  0  0  0  0  0  0  0  0  0
  195.1210  176.4060  144.3410 C   0  0  0  0  0  2  0  0  0  0  0  0
  194.5290  177.1410  146.3360 C   0  0  0  0  0  1  0  0  0  0  0  0
  194.0830  177.0470  145.0190 O   0  0  0  0  0  0  0  0  0  0  0  0
  190.0080  177.4050  146.3300 O   0  0  0  0  0  0  0  0  0  0  0  0
  189.1250  176.4490  146.8360 C   0  0  0  0  0  2  0  0  0  0  0  0
  189.8700  175.2050  147.1720 C   0  0  0  0  0  0  0  0  0  0  0  0
  189.4250  174.0870  146.8070 O   0  0  0  0  0  0  0  0  0  0  0  0
  191.0340  175.2750  147.9250 O   0  0  0  0  0  1  0  0  0  0  0  0
  1  5  1  0  0  0  0
  3  2  1  1  0  0  0
  3 15  1  0  0  0  0
  4 18  1  0  0  0  0
  4 14  1  0  0  0  0
  5 16  1  0  0  0  0
  6  8  2  0  0  0  0
  7 35  1  1  0  0  0
  8  7  1  0  0  0  0
  9 14  2  0  0  0  0
 10 12  1  6  0  0  0
 10 15  1  0  0  0  0
 10  6  1  0  0  0  0
 11 20  1  1  0  0  0
 11  3  1  0  0  0  0
 13  7  1  0  0  0  0
 14 19  1  0  0  0  0
 15 13  1  1  0  0  0
 17 11  1  0  0  0  0
 17 12  1  0  0  0  0
 18  1  1  0  0  0  0
 19 12  2  0  0  0  0
 19 16  1  0  0  0  0
 20 21  1  1  0  0  0
 20 24  1  0  0  0  0
 22 24  2  0  0  0  0
 24 23  1  0  0  0  0
 25  6  1  0  0  0  0
 26 29  1  0  0  0  0
 26 28  1  0  0  0  0
 26 32  1  1  0  0  0
 27 30  1  0  0  0  0
 28 31  1  0  0  0  0
 29 25  1  6  0  0  0
 29 27  1  0  0  0  0
 31 30  2  0  0  0  0
 32 34  1  0  0  0  0
 34 33  1  0  0  0  0
 35 36  1  0  0  0  0
 36 37  1  0  0  0  0
 37 39  1  0  0  0  0
 38 37  2  0  0  0  0
M  END
>  <MODEL>
3

>  <REMARK>
 VINA RESULT:      -6.4      3.298      7.351
  Name = 
  9 active torsions:
  status: ('A' for Active; 'I' for Inactive)
    1  A    between atoms: C_6  and  C_24
    2  A    between atoms: C_6  and  C_32
    3  A    between atoms: C_7  and  S_18
    4  A    between atoms: C_8  and  C_14
    5  A    between atoms: C_10  and  O_37
    6  A    between atoms: C_13  and  C_25
    7  A    between atoms: C_13  and  O_37
    8  A    between atoms: C_14  and  O_23
    9  A    between atoms: C_16  and  S_18
                            x       y       z     vdW  Elec       q    Type
                         _______ _______ _______ _____ _____    ______ ____

>  <TORSDO>
F 9

$$$$
=
 OpenBabel11072409253D

 39 42  0  0  1  0  0  0  0  0999 V2000
  192.9460  175.4660  146.5180 C   0  0  0  0  0  2  0  0  0  0  0  0
  188.2040  178.7050  142.7010 O   0  0  0  0  0  1  0  0  0  0  0  0
  187.2400  177.7130  142.8970 C   0  0  2  0  0  3  0  0  0  0  0  0
  191.0410  176.4890  147.6390 N   0  0  0  0  0  2  0  0  0  0  0  0
  192.4030  175.1260  145.1450 C   0  0  0  0  0  2  0  0  0  0  0  0
  189.1940  174.4190  142.7150 C   0  0  0  0  0  0  0  0  0  0  0  0
  187.8920  174.7240  140.5620 C   0  0  1  0  0  3  0  0  0  0  0  0
  188.6880  173.9140  141.5700 C   0  0  0  0  0  3  0  0  0  0  0  0
  189.3990  177.9160  146.8640 O   0  0  0  0  0  0  0  0  0  0  0  0
  189.0590  175.9100  143.0220 C   0  0  2  0  0  3  0  0  0  0  0  0
  186.9290  177.5700  144.3940 C   0  0  2  0  0  3  0  0  0  0  0  0
  189.0790  176.3050  144.4930 C   0  0  0  0  0  0  0  0  0  0  0  0
  187.8170  176.2210  140.8870 C   0  0  0  0  0  2  0  0  0  0  0  0
  190.1810  176.9640  146.5980 C   0  0  0  0  0  0  0  0  0  0  0  0
  187.7420  176.3710  142.3920 C   0  0  2  0  0  3  0  0  0  0  0  0
  191.5590  176.2520  144.5610 C   0  0  0  0  0  2  0  0  0  0  0  0
  187.8690  176.7190  145.0730 O   0  0  0  0  0  0  0  0  0  0  0  0
  191.8580  175.2900  147.5550 C   0  0  0  0  0  2  0  0  0  0  0  0
  190.2160  176.3990  145.2220 C   0  0  0  0  0  0  0  0  0  0  0  0
  185.5080  177.0520  144.6090 C   0  0  2  0  0  3  0  0  0  0  0  0
  184.7200  177.3420  143.5070 F   0  0  0  0  0  0  0  0  0  0  0  0
  185.2060  177.2260  146.9660 O   0  0  0  0  0  1  0  0  0  0  0  0
  184.0400  178.7480  145.7120 O   0  0  0  0  0  0  0  0  0  0  0  0
  184.9020  177.6650  145.8260 C   0  0  0  0  0  0  0  0  0  0  0  0
  190.1020  173.2910  143.7800 S   0  0  0  0  0  0  0  0  0  0  0  0
  191.6060  171.1780  142.8220 C   0  0  1  0  0  3  0  0  0  0  0  0
  192.2730  173.5430  142.0370 C   0  0  0  0  0  2  0  0  0  0  0  0
  193.1180  170.9670  142.6310 C   0  0  0  0  0  2  0  0  0  0  0  0
  191.1360  172.5980  142.4410 C   0  0  2  0  0  3  0  0  0  0  0  0
  193.2240  172.8160  141.1330 C   0  0  0  0  0  3  0  0  0  0  0  0
  193.5900  171.6170  141.4250 N   0  0  0  0  0  0  0  0  0  0  0  0
  190.8390  170.1450  142.0140 C   0  0  0  0  0  2  0  0  0  0  0  0
  190.8190  169.7620  139.8400 C   0  0  0  0  0  1  0  0  0  0  0  0
  190.4220  170.6920  140.8000 O   0  0  0  0  0  0  0  0  0  0  0  0
  188.4170  174.5400  139.2810 O   0  0  0  0  0  0  0  0  0  0  0  0
  188.3730  173.1610  139.0660 C   0  0  0  0  0  2  0  0  0  0  0  0
  189.5120  172.7510  138.1980 C   0  0  0  0  0  0  0  0  0  0  0  0
  189.3260  171.9320  137.2630 O   0  0  0  0  0  0  0  0  0  0  0  0
  190.7860  173.2410  138.4470 O   0  0  0  0  0  1  0  0  0  0  0  0
  1 18  1  0  0  0  0
  3  2  1  1  0  0  0
  3 11  1  0  0  0  0
  5  1  1  0  0  0  0
  6 25  1  0  0  0  0
  7 35  1  6  0  0  0
  7 13  1  0  0  0  0
  7  8  1  0  0  0  0
  8  6  2  0  0  0  0
 10  6  1  1  0  0  0
 10 12  1  0  0  0  0
 11 20  1  6  0  0  0
 11 17  1  0  0  0  0
 12 17  1  0  0  0  0
 12 19  2  0  0  0  0
 14  9  2  0  0  0  0
 14  4  1  0  0  0  0
 15 13  1  6  0  0  0
 15  3  1  0  0  0  0
 15 10  1  0  0  0  0
 16  5  1  0  0  0  0
 16 19  1  0  0  0  0
 18  4  1  0  0  0  0
 19 14  1  0  0  0  0
 20 21  1  6  0  0  0
 20 24  1  0  0  0  0
 23 24  2  0  0  0  0
 24 22  1  0  0  0  0
 26 32  1  6  0  0  0
 27 29  1  0  0  0  0
 28 26  1  0  0  0  0
 29 26  1  0  0  0  0
 29 25  1  1  0  0  0
 30 31  2  0  0  0  0
 30 27  1  0  0  0  0
 31 28  1  0  0  0  0
 33 34  1  0  0  0  0
 34 32  1  0  0  0  0
 36 35  1  0  0  0  0
 37 39  1  0  0  0  0
 37 36  1  0  0  0  0
 38 37  2  0  0  0  0
M  END
>  <MODEL>
4

>  <REMARK>
 VINA RESULT:      -6.3      4.066      7.190
  Name = 
  9 active torsions:
  status: ('A' for Active; 'I' for Inactive)
    1  A    between atoms: C_6  and  C_24
    2  A    between atoms: C_6  and  C_32
    3  A    between atoms: C_7  and  S_18
    4  A    between atoms: C_8  and  C_14
    5  A    between atoms: C_10  and  O_37
    6  A    between atoms: C_13  and  C_25
    7  A    between atoms: C_13  and  O_37
    8  A    between atoms: C_14  and  O_23
    9  A    between atoms: C_16  and  S_18
                            x       y       z     vdW  Elec       q    Type
                         _______ _______ _______ _____ _____    ______ ____

>  <TORSDO>
F 9

$$$$
=
 OpenBabel11072409253D

 39 42  0  0  1  0  0  0  0  0999 V2000
  188.5200  175.9190  145.8170 C   0  0  0  0  0  2  0  0  0  0  0  0
  195.3370  175.0130  146.3140 O   0  0  0  0  0  1  0  0  0  0  0  0
  195.4480  174.4680  145.0320 C   0  0  2  0  0  3  0  0  0  0  0  0
  189.9900  177.3630  144.5180 N   0  0  0  0  0  2  0  0  0  0  0  0
  189.3240  174.6440  145.9660 C   0  0  0  0  0  2  0  0  0  0  0  0
  192.3560  172.2320  144.6630 C   0  0  0  0  0  0  0  0  0  0  0  0
  194.3890  170.7680  145.0460 C   0  0  1  0  0  3  0  0  0  0  0  0
  192.9500  171.0200  144.6320 C   0  0  0  0  0  3  0  0  0  0  0  0
  192.2800  177.6610  144.5770 O   0  0  0  0  0  0  0  0  0  0  0  0
  193.1060  173.4410  145.2200 C   0  0  2  0  0  3  0  0  0  0  0  0
  194.9690  175.4860  143.9860 C   0  0  2  0  0  3  0  0  0  0  0  0
  192.6760  174.8070  144.6990 C   0  0  0  0  0  0  0  0  0  0  0  0
  195.0910  171.9980  145.6370 C   0  0  0  0  0  2  0  0  0  0  0  0
  191.3150  176.8630  144.7250 C   0  0  0  0  0  0  0  0  0  0  0  0
  194.5880  173.2230  144.9030 C   0  0  2  0  0  3  0  0  0  0  0  0
  190.7860  174.9170  146.3020 C   0  0  0  0  0  2  0  0  0  0  0  0
  193.5420  175.4690  143.8140 O   0  0  0  0  0  0  0  0  0  0  0  0
  188.7940  176.5400  144.4640 C   0  0  0  0  0  2  0  0  0  0  0  0
  191.5750  175.4590  145.1430 C   0  0  0  0  0  0  0  0  0  0  0  0
  195.6580  175.2510  142.6420 C   0  0  2  0  0  3  0  0  0  0  0  0
  196.4730  174.1330  142.7100 F   0  0  0  0  0  0  0  0  0  0  0  0
  197.0930  177.0880  143.1380 O   0  0  0  0  0  1  0  0  0  0  0  0
  196.5980  176.7990  140.9200 O   0  0  0  0  0  0  0  0  0  0  0  0
  196.4760  176.4370  142.2550 C   0  0  0  0  0  0  0  0  0  0  0  0
  190.6420  172.3210  144.1250 S   0  0  0  0  0  0  0  0  0  0  0  0
  190.3480  173.2970  141.5550 C   0  0  1  0  0  3  0  0  0  0  0  0
  190.6990  170.7540  141.8100 C   0  0  0  0  0  2  0  0  0  0  0  0
  189.5590  172.8060  140.3300 C   0  0  0  0  0  2  0  0  0  0  0  0
  191.0220  172.1550  142.3440 C   0  0  2  0  0  3  0  0  0  0  0  0
  190.7840  170.7630  140.3130 C   0  0  0  0  0  3  0  0  0  0  0  0
  190.2580  171.7330  139.6510 N   0  0  0  0  0  0  0  0  0  0  0  0
  191.3930  174.3110  141.1180 C   0  0  0  0  0  2  0  0  0  0  0  0
  193.3520  174.4480  140.1110 C   0  0  0  0  0  1  0  0  0  0  0  0
  192.6540  173.7140  141.0680 O   0  0  0  0  0  0  0  0  0  0  0  0
  194.4460  169.7060  145.9510 O   0  0  0  0  0  0  0  0  0  0  0  0
  195.7930  169.6050  146.3050 C   0  0  0  0  0  2  0  0  0  0  0  0
  195.9390  168.6790  147.4620 C   0  0  0  0  0  0  0  0  0  0  0  0
  194.9170  168.2350  148.0450 O   0  0  0  0  0  1  0  0  0  0  0  0
  197.2030  168.3400  147.9240 O   0  0  0  0  0  0  0  0  0  0  0  0
  1  5  1  0  0  0  0
  3  2  1  1  0  0  0
  4 14  1  0  0  0  0
  5 16  1  0  0  0  0
  7 13  1  0  0  0  0
  7 35  1  1  0  0  0
  8  6  2  0  0  0  0
  8  7  1  0  0  0  0
  9 14  2  0  0  0  0
 10  6  1  6  0  0  0
 11 20  1  6  0  0  0
 11  3  1  0  0  0  0
 12 19  2  0  0  0  0
 12 10  1  0  0  0  0
 14 19  1  0  0  0  0
 15  3  1  0  0  0  0
 15 10  1  0  0  0  0
 15 13  1  1  0  0  0
 17 11  1  0  0  0  0
 17 12  1  0  0  0  0
 18  4  1  0  0  0  0
 18  1  1  0  0  0  0
 19 16  1  0  0  0  0
 20 21  1  1  0  0  0
 23 24  2  0  0  0  0
 24 20  1  0  0  0  0
 24 22  1  0  0  0  0
 25  6  1  0  0  0  0
 26 32  1  6  0  0  0
 26 29  1  0  0  0  0
 27 29  1  0  0  0  0
 28 26  1  0  0  0  0
 29 25  1  1  0  0  0
 30 27  1  0  0  0  0
 31 30  2  0  0  0  0
 31 28  1  0  0  0  0
 33 34  1  0  0  0  0
 34 32  1  0  0  0  0
 35 36  1  0  0  0  0
 36 37  1  0  0  0  0
 37 39  2  0  0  0  0
 37 38  1  0  0  0  0
M  END
>  <MODEL>
5

>  <REMARK>
 VINA RESULT:      -6.3      1.654      2.040
  Name = 
  9 active torsions:
  status: ('A' for Active; 'I' for Inactive)
    1  A    between atoms: C_6  and  C_24
    2  A    between atoms: C_6  and  C_32
    3  A    between atoms: C_7  and  S_18
    4  A    between atoms: C_8  and  C_14
    5  A    between atoms: C_10  and  O_37
    6  A    between atoms: C_13  and  C_25
    7  A    between atoms: C_13  and  O_37
    8  A    between atoms: C_14  and  O_23
    9  A    between atoms: C_16  and  S_18
                            x       y       z     vdW  Elec       q    Type
                         _______ _______ _______ _____ _____    ______ ____

>  <TORSDO>
F 9

$$$$
=
 OpenBabel11072409253D

 39 42  0  0  1  0  0  0  0  0999 V2000
  196.5430  175.4010  140.6070 C   0  0  0  0  0  2  0  0  0  0  0  0
  191.4560  178.3240  144.2290 O   0  0  0  0  0  1  0  0  0  0  0  0
  190.9910  177.1040  144.7290 C   0  0  2  0  0  3  0  0  0  0  0  0
  196.7270  175.4700  143.0350 N   0  0  0  0  0  2  0  0  0  0  0  0
  195.0470  175.3870  140.3690 C   0  0  0  0  0  2  0  0  0  0  0  0
  191.2750  174.6790  141.7730 C   0  0  0  0  0  0  0  0  0  0  0  0
  188.8400  175.3030  142.0950 C   0  0  1  0  0  3  0  0  0  0  0  0
  189.9650  174.4530  141.5340 C   0  0  0  0  0  3  0  0  0  0  0  0
  195.4810  176.5860  144.6280 O   0  0  0  0  0  0  0  0  0  0  0  0
  191.7080  175.9020  142.5800 C   0  0  2  0  0  3  0  0  0  0  0  0
  192.0970  176.4130  145.5400 C   0  0  2  0  0  3  0  0  0  0  0  0
  193.0390  175.7950  143.3130 C   0  0  0  0  0  0  0  0  0  0  0  0
  189.3190  176.5420  142.8620 C   0  0  0  0  0  2  0  0  0  0  0  0
  195.4880  176.0100  143.5070 C   0  0  0  0  0  0  0  0  0  0  0  0
  190.5930  176.1770  143.5930 C   0  0  2  0  0  3  0  0  0  0  0  0
  194.3100  176.3780  141.2630 C   0  0  0  0  0  2  0  0  0  0  0  0
  193.0050  175.6690  144.7110 O   0  0  0  0  0  0  0  0  0  0  0  0
  196.8660  174.6220  141.8640 C   0  0  0  0  0  2  0  0  0  0  0  0
  194.2380  175.9460  142.7020 C   0  0  0  0  0  0  0  0  0  0  0  0
  191.4980  175.4990  146.6080 C   0  0  2  0  0  3  0  0  0  0  0  0
  191.0330  174.3280  146.0320 F   0  0  0  0  0  0  0  0  0  0  0  0
  190.6060  177.2080  148.0080 O   0  0  0  0  0  1  0  0  0  0  0  0
  189.0760  175.7150  147.1850 O   0  0  0  0  0  0  0  0  0  0  0  0
  190.3780  176.1810  147.3180 C   0  0  0  0  0  0  0  0  0  0  0  0
  192.4540  173.5500  141.0200 S   0  0  0  0  0  0  0  0  0  0  0  0
  193.1180  171.6900  142.9550 C   0  0  1  0  0  3  0  0  0  0  0  0
  191.4140  170.9590  141.1630 C   0  0  0  0  0  2  0  0  0  0  0  0
  193.4350  170.1860  142.9010 C   0  0  0  0  0  2  0  0  0  0  0  0
  191.9600  172.1040  142.0240 C   0  0  2  0  0  3  0  0  0  0  0  0
  191.2750  169.7280  142.0070 C   0  0  0  0  0  3  0  0  0  0  0  0
  192.2220  169.3980  142.8150 N   0  0  0  0  0  0  0  0  0  0  0  0
  192.8030  172.0960  144.3860 C   0  0  0  0  0  2  0  0  0  0  0  0
  194.6690  172.7720  145.3510 C   0  0  0  0  0  1  0  0  0  0  0  0
  193.8190  171.6730  145.2440 O   0  0  0  0  0  0  0  0  0  0  0  0
  187.9730  175.6850  141.0680 O   0  0  0  0  0  0  0  0  0  0  0  0
  187.5040  176.9460  141.4400 C   0  0  0  0  0  2  0  0  0  0  0  0
  186.5820  177.4680  140.3930 C   0  0  0  0  0  0  0  0  0  0  0  0
  185.6830  178.2920  140.7020 O   0  0  0  0  0  1  0  0  0  0  0  0
  186.6880  177.0140  139.0860 O   0  0  0  0  0  0  0  0  0  0  0  0
  1 18  1  0  0  0  0
  3  2  1  6  0  0  0
  3 11  1  0  0  0  0
  4 14  1  0  0  0  0
  5  1  1  0  0  0  0
  5 16  1  0  0  0  0
  7 35  1  6  0  0  0
  7 13  1  0  0  0  0
  8  6  2  0  0  0  0
  8  7  1  0  0  0  0
 10  6  1  1  0  0  0
 10 12  1  0  0  0  0
 10 15  1  0  0  0  0
 11 20  1  1  0  0  0
 12 17  1  0  0  0  0
 14  9  2  0  0  0  0
 15 13  1  6  0  0  0
 15  3  1  0  0  0  0
 16 19  1  0  0  0  0
 17 11  1  0  0  0  0
 18  4  1  0  0  0  0
 19 12  2  0  0  0  0
 19 14  1  0  0  0  0
 20 21  1  6  0  0  0
 20 24  1  0  0  0  0
 23 24  2  0  0  0  0
 24 22  1  0  0  0  0
 25  6  1  0  0  0  0
 26 32  1  1  0  0  0
 27 30  1  0  0  0  0
 27 29  1  0  0  0  0
 28 26  1  0  0  0  0
 29 25  1  6  0  0  0
 29 26  1  0  0  0  0
 30 31  2  0  0  0  0
 31 28  1  0  0  0  0
 32 34  1  0  0  0  0
 34 33  1  0  0  0  0
 35 36  1  0  0  0  0
 37 38  1  0  0  0  0
 37 36  1  0  0  0  0
 39 37  2  0  0  0  0
M  END
>  <MODEL>
6

>  <REMARK>
 VINA RESULT:      -6.0      2.724      7.381
  Name = 
  9 active torsions:
  status: ('A' for Active; 'I' for Inactive)
    1  A    between atoms: C_6  and  C_24
    2  A    between atoms: C_6  and  C_32
    3  A    between atoms: C_7  and  S_18
    4  A    between atoms: C_8  and  C_14
    5  A    between atoms: C_10  and  O_37
    6  A    between atoms: C_13  and  C_25
    7  A    between atoms: C_13  and  O_37
    8  A    between atoms: C_14  and  O_23
    9  A    between atoms: C_16  and  S_18
                            x       y       z     vdW  Elec       q    Type
                         _______ _______ _______ _____ _____    ______ ____

>  <TORSDO>
F 9

$$$$
=
 OpenBabel11072409253D

 39 42  0  0  1  0  0  0  0  0999 V2000
  197.2100  175.2690  140.6660 C   0  0  0  0  0  2  0  0  0  0  0  0
  191.5410  177.5630  143.8510 O   0  0  0  0  0  1  0  0  0  0  0  0
  191.4860  176.4750  144.7270 C   0  0  2  0  0  3  0  0  0  0  0  0
  197.4110  176.1280  142.9360 N   0  0  0  0  0  2  0  0  0  0  0  0
  195.7870  174.7520  140.6120 C   0  0  0  0  0  2  0  0  0  0  0  0
  192.4460  173.4520  142.5740 C   0  0  0  0  0  0  0  0  0  0  0  0
  189.9440  173.4140  142.9760 C   0  0  1  0  0  3  0  0  0  0  0  0
  191.2660  172.7960  142.5580 C   0  0  0  0  0  3  0  0  0  0  0  0
  195.9130  177.2690  144.2740 O   0  0  0  0  0  0  0  0  0  0  0  0
  192.4960  174.9330  142.9440 C   0  0  2  0  0  3  0  0  0  0  0  0
  192.7670  176.4150  145.5730 C   0  0  2  0  0  3  0  0  0  0  0  0
  193.8100  175.4450  143.5230 C   0  0  0  0  0  0  0  0  0  0  0  0
  190.0320  174.9110  143.2990 C   0  0  0  0  0  2  0  0  0  0  0  0
  196.0760  176.4060  143.3710 C   0  0  0  0  0  0  0  0  0  0  0  0
  191.3710  175.1710  143.9560 C   0  0  2  0  0  3  0  0  0  0  0  0
  194.7980  175.7120  141.2630 C   0  0  0  0  0  2  0  0  0  0  0  0
  193.8440  175.7480  144.8930 O   0  0  0  0  0  0  0  0  0  0  0  0
  197.7830  175.0400  142.0480 C   0  0  0  0  0  2  0  0  0  0  0  0
  194.8910  175.7400  142.7630 C   0  0  0  0  0  0  0  0  0  0  0  0
  192.5010  175.7400  146.9170 C   0  0  2  0  0  3  0  0  0  0  0  0
  192.6570  174.3680  146.8040 F   0  0  0  0  0  0  0  0  0  0  0  0
  190.8610  177.1750  147.8800 O   0  0  0  0  0  1  0  0  0  0  0  0
  190.1110  175.0990  147.2680 O   0  0  0  0  0  0  0  0  0  0  0  0
  191.1210  176.0440  147.3960 C   0  0  0  0  0  0  0  0  0  0  0  0
  193.9020  172.5370  142.0470 S   0  0  0  0  0  0  0  0  0  0  0  0
  195.4410  171.7330  144.1980 C   0  0  1  0  0  3  0  0  0  0  0  0
  193.6380  170.0870  143.3670 C   0  0  0  0  0  2  0  0  0  0  0  0
  196.1230  170.4040  144.5630 C   0  0  0  0  0  2  0  0  0  0  0  0
  194.0390  171.5510  143.5810 C   0  0  2  0  0  3  0  0  0  0  0  0
  194.0180  169.2880  144.5780 C   0  0  0  0  0  3  0  0  0  0  0  0
  195.1720  169.4630  145.1210 N   0  0  0  0  0  0  0  0  0  0  0  0
  195.3530  172.6180  145.4310 C   0  0  0  0  0  2  0  0  0  0  0  0
  197.2010  173.7830  145.7490 C   0  0  0  0  0  1  0  0  0  0  0  0
  196.5640  172.6020  146.1250 O   0  0  0  0  0  0  0  0  0  0  0  0
  188.9820  173.1960  141.9870 O   0  0  0  0  0  0  0  0  0  0  0  0
  189.1160  174.2730  141.1080 C   0  0  0  0  0  2  0  0  0  0  0  0
  189.0620  173.7850  139.7030 C   0  0  0  0  0  0  0  0  0  0  0  0
  188.1840  174.2250  138.9180 O   0  0  0  0  0  0  0  0  0  0  0  0
  189.9530  172.8130  139.2710 O   0  0  0  0  0  1  0  0  0  0  0  0
  1 18  1  0  0  0  0
  3  2  1  6  0  0  0
  3 11  1  0  0  0  0
  4 14  1  0  0  0  0
  5  1  1  0  0  0  0
  5 16  1  0  0  0  0
  7 35  1  6  0  0  0
  7 13  1  0  0  0  0
  8  6  2  0  0  0  0
  8  7  1  0  0  0  0
 10  6  1  1  0  0  0
 10 12  1  0  0  0  0
 10 15  1  0  0  0  0
 11 20  1  1  0  0  0
 12 17  1  0  0  0  0
 14  9  2  0  0  0  0
 15 13  1  6  0  0  0
 15  3  1  0  0  0  0
 16 19  1  0  0  0  0
 17 11  1  0  0  0  0
 18  4  1  0  0  0  0
 19 14  1  0  0  0  0
 19 12  2  0  0  0  0
 20 21  1  6  0  0  0
 20 24  1  0  0  0  0
 23 24  2  0  0  0  0
 24 22  1  0  0  0  0
 25  6  1  0  0  0  0
 26 28  1  0  0  0  0
 26 32  1  1  0  0  0
 27 29  1  0  0  0  0
 27 30  1  0  0  0  0
 28 31  1  0  0  0  0
 29 25  1  6  0  0  0
 29 26  1  0  0  0  0
 30 31  2  0  0  0  0
 32 34  1  0  0  0  0
 33 34  1  0  0  0  0
 36 35  1  0  0  0  0
 37 36  1  0  0  0  0
 38 37  2  0  0  0  0
 39 37  1  0  0  0  0
M  END
>  <MODEL>
7

>  <REMARK>
 VINA RESULT:      -6.0      2.988      7.163
  Name = 
  9 active torsions:
  status: ('A' for Active; 'I' for Inactive)
    1  A    between atoms: C_6  and  C_24
    2  A    between atoms: C_6  and  C_32
    3  A    between atoms: C_7  and  S_18
    4  A    between atoms: C_8  and  C_14
    5  A    between atoms: C_10  and  O_37
    6  A    between atoms: C_13  and  C_25
    7  A    between atoms: C_13  and  O_37
    8  A    between atoms: C_14  and  O_23
    9  A    between atoms: C_16  and  S_18
                            x       y       z     vdW  Elec       q    Type
                         _______ _______ _______ _____ _____    ______ ____

>  <TORSDO>
F 9

$$$$
=
 OpenBabel11072409253D

 39 42  0  0  1  0  0  0  0  0999 V2000
  196.6750  175.2160  141.7640 C   0  0  0  0  0  2  0  0  0  0  0  0
  190.8720  178.3020  143.8500 O   0  0  0  0  0  1  0  0  0  0  0  0
  190.3540  177.1380  144.4240 C   0  0  2  0  0  3  0  0  0  0  0  0
  196.3620  175.6340  144.1440 N   0  0  0  0  0  2  0  0  0  0  0  0
  195.2580  175.0800  141.2440 C   0  0  0  0  0  2  0  0  0  0  0  0
  191.3040  174.3480  141.9740 C   0  0  0  0  0  0  0  0  0  0  0  0
  188.8360  174.8620  141.7180 C   0  0  1  0  0  3  0  0  0  0  0  0
  190.0780  174.0110  141.5200 C   0  0  0  0  0  3  0  0  0  0  0  0
  194.7860  176.8830  145.2800 O   0  0  0  0  0  0  0  0  0  0  0  0
  191.5270  175.6940  142.6590 C   0  0  2  0  0  3  0  0  0  0  0  0
  191.2940  176.6350  145.5300 C   0  0  2  0  0  3  0  0  0  0  0  0
  192.6860  175.7710  143.6460 C   0  0  0  0  0  0  0  0  0  0  0  0
  189.1110  176.2220  142.3720 C   0  0  0  0  0  2  0  0  0  0  0  0
  195.0370  176.1590  144.2800 C   0  0  0  0  0  0  0  0  0  0  0  0
  190.2230  176.0400  143.3840 C   0  0  2  0  0  3  0  0  0  0  0  0
  194.3250  176.1380  141.8200 C   0  0  0  0  0  2  0  0  0  0  0  0
  192.3740  175.8380  145.0130 O   0  0  0  0  0  0  0  0  0  0  0  0
  196.7620  174.6400  143.1610 C   0  0  0  0  0  2  0  0  0  0  0  0
  193.9780  175.9080  143.2650 C   0  0  0  0  0  0  0  0  0  0  0  0
  190.5220  175.8440  146.5840 C   0  0  2  0  0  3  0  0  0  0  0  0
  190.2620  174.5620  146.1270 F   0  0  0  0  0  0  0  0  0  0  0  0
  188.1520  175.8850  146.8340 O   0  0  0  0  0  0  0  0  0  0  0  0
  189.2280  177.8400  147.3510 O   0  0  0  0  0  1  0  0  0  0  0  0
  189.2350  176.5220  146.9130 C   0  0  0  0  0  0  0  0  0  0  0  0
  192.6460  173.1980  141.6420 S   0  0  0  0  0  0  0  0  0  0  0  0
  192.1780  171.3000  139.6870 C   0  0  1  0  0  3  0  0  0  0  0  0
  192.8890  173.6490  138.8940 C   0  0  0  0  0  2  0  0  0  0  0  0
  192.9190  170.9190  138.3950 C   0  0  0  0  0  2  0  0  0  0  0  0
  192.1210  172.8220  139.9310 C   0  0  2  0  0  3  0  0  0  0  0  0
  192.6020  173.1130  137.5230 C   0  0  0  0  0  3  0  0  0  0  0  0
  192.6100  171.8410  137.3210 N   0  0  0  0  0  0  0  0  0  0  0  0
  190.7700  170.7270  139.6570 C   0  0  0  0  0  2  0  0  0  0  0  0
  190.8240  169.7620  141.6420 C   0  0  0  0  0  1  0  0  0  0  0  0
  190.7430  169.4780  140.2790 O   0  0  0  0  0  0  0  0  0  0  0  0
  188.1830  175.0440  140.4970 O   0  0  0  0  0  0  0  0  0  0  0  0
  188.4430  173.8810  139.7700 C   0  0  0  0  0  2  0  0  0  0  0  0
  188.3410  174.1660  138.3120 C   0  0  0  0  0  0  0  0  0  0  0  0
  189.0980  173.5720  137.5020 O   0  0  0  0  0  0  0  0  0  0  0  0
  187.4410  175.1160  137.8520 O   0  0  0  0  0  1  0  0  0  0  0  0
  1 18  1  0  0  0  0
  3  2  1  6  0  0  0
  3 11  1  0  0  0  0
  4 14  1  0  0  0  0
  5  1  1  0  0  0  0
  5 16  1  0  0  0  0
  7 35  1  6  0  0  0
  7 13  1  0  0  0  0
  8  7  1  0  0  0  0
  8  6  2  0  0  0  0
 10  6  1  1  0  0  0
 10 15  1  0  0  0  0
 10 12  1  0  0  0  0
 11 20  1  1  0  0  0
 12 17  1  0  0  0  0
 14  9  2  0  0  0  0
 15 13  1  6  0  0  0
 15  3  1  0  0  0  0
 16 19  1  0  0  0  0
 17 11  1  0  0  0  0
 18  4  1  0  0  0  0
 19 12  2  0  0  0  0
 19 14  1  0  0  0  0
 20 21  1  6  0  0  0
 20 24  1  0  0  0  0
 22 24  2  0  0  0  0
 24 23  1  0  0  0  0
 25  6  1  0  0  0  0
 26 32  1  6  0  0  0
 26 29  1  0  0  0  0
 27 29  1  0  0  0  0
 28 26  1  0  0  0  0
 29 25  1  1  0  0  0
 30 27  1  0  0  0  0
 31 30  2  0  0  0  0
 31 28  1  0  0  0  0
 32 34  1  0  0  0  0
 34 33  1  0  0  0  0
 36 35  1  0  0  0  0
 37 36  1  0  0  0  0
 38 37  2  0  0  0  0
 39 37  1  0  0  0  0
M  END
>  <MODEL>
8

>  <REMARK>
 VINA RESULT:      -5.9      3.499      7.036
  Name = 
  9 active torsions:
  status: ('A' for Active; 'I' for Inactive)
    1  A    between atoms: C_6  and  C_24
    2  A    between atoms: C_6  and  C_32
    3  A    between atoms: C_7  and  S_18
    4  A    between atoms: C_8  and  C_14
    5  A    between atoms: C_10  and  O_37
    6  A    between atoms: C_13  and  C_25
    7  A    between atoms: C_13  and  O_37
    8  A    between atoms: C_14  and  O_23
    9  A    between atoms: C_16  and  S_18
                            x       y       z     vdW  Elec       q    Type
                         _______ _______ _______ _____ _____    ______ ____

>  <TORSDO>
F 9

$$$$
=
 OpenBabel11072409253D

 39 42  0  0  1  0  0  0  0  0999 V2000
  195.7630  173.4540  142.9650 C   0  0  0  0  0  2  0  0  0  0  0  0
  191.2090  178.5460  143.9030 O   0  0  0  0  0  1  0  0  0  0  0  0
  190.2930  177.7240  144.5660 C   0  0  2  0  0  3  0  0  0  0  0  0
  195.4510  174.3450  145.2100 N   0  0  0  0  0  2  0  0  0  0  0  0
  194.4220  173.6940  142.3040 C   0  0  0  0  0  2  0  0  0  0  0  0
  190.4120  174.4060  142.6510 C   0  0  0  0  0  0  0  0  0  0  0  0
  188.2830  175.6350  142.0360 C   0  0  1  0  0  3  0  0  0  0  0  0
  189.1770  174.4100  142.1060 C   0  0  0  0  0  3  0  0  0  0  0  0
  194.3150  176.2070  145.9690 O   0  0  0  0  0  0  0  0  0  0  0  0
  191.0280  175.7040  143.1680 C   0  0  2  0  0  3  0  0  0  0  0  0
  190.9340  177.1390  145.8340 C   0  0  2  0  0  3  0  0  0  0  0  0
  192.0770  175.5700  144.2650 C   0  0  0  0  0  0  0  0  0  0  0  0
  188.9550  176.9240  142.5260 C   0  0  0  0  0  2  0  0  0  0  0  0
  194.3740  175.2820  145.1150 C   0  0  0  0  0  0  0  0  0  0  0  0
  189.8700  176.5680  143.6780 C   0  0  2  0  0  3  0  0  0  0  0  0
  193.8620  175.0780  142.6140 C   0  0  0  0  0  2  0  0  0  0  0  0
  191.7150  175.9630  145.5630 O   0  0  0  0  0  0  0  0  0  0  0  0
  195.5580  173.1250  144.4280 C   0  0  0  0  0  2  0  0  0  0  0  0
  193.3620  175.2180  144.0250 C   0  0  0  0  0  0  0  0  0  0  0  0
  189.8720  176.8280  146.8870 C   0  0  2  0  0  3  0  0  0  0  0  0
  189.8760  177.8000  147.8740 F   0  0  0  0  0  0  0  0  0  0  0  0
  189.3730  174.5210  147.2160 O   0  0  0  0  0  0  0  0  0  0  0  0
  191.1930  175.3050  148.3650 O   0  0  0  0  0  1  0  0  0  0  0  0
  190.1180  175.4930  147.5060 C   0  0  0  0  0  0  0  0  0  0  0  0
  191.3090  172.8470  142.6420 S   0  0  0  0  0  0  0  0  0  0  0  0
  191.9890  171.3420  140.4250 C   0  0  1  0  0  3  0  0  0  0  0  0
  191.7080  173.8830  140.0760 C   0  0  0  0  0  2  0  0  0  0  0  0
  192.9930  171.5550  139.2790 C   0  0  0  0  0  2  0  0  0  0  0  0
  191.2410  172.6300  140.8280 C   0  0  2  0  0  3  0  0  0  0  0  0
  191.8750  173.5540  138.6230 C   0  0  0  0  0  3  0  0  0  0  0  0
  192.4640  172.4610  138.2800 N   0  0  0  0  0  0  0  0  0  0  0  0
  190.9910  170.2640  140.0360 C   0  0  0  0  0  2  0  0  0  0  0  0
  189.6630  170.1010  138.2800 C   0  0  0  0  0  1  0  0  0  0  0  0
  189.8640  170.8380  139.4460 O   0  0  0  0  0  0  0  0  0  0  0  0
  187.8120  175.8080  140.7330 O   0  0  0  0  0  0  0  0  0  0  0  0
  187.4650  177.1580  140.6500 C   0  0  0  0  0  2  0  0  0  0  0  0
  186.2970  177.3210  139.7410 C   0  0  0  0  0  0  0  0  0  0  0  0
  185.2670  177.9210  140.1420 O   0  0  0  0  0  1  0  0  0  0  0  0
  186.3280  176.7750  138.4660 O   0  0  0  0  0  0  0  0  0  0  0  0
  1 18  1  0  0  0  0
  3  2  1  6  0  0  0
  3 11  1  0  0  0  0
  5 16  1  0  0  0  0
  5  1  1  0  0  0  0
  7 35  1  6  0  0  0
  7  8  1  0  0  0  0
  7 13  1  0  0  0  0
  8  6  2  0  0  0  0
 10  6  1  1  0  0  0
 10 15  1  0  0  0  0
 10 12  1  0  0  0  0
 11 20  1  1  0  0  0
 12 17  1  0  0  0  0
 14  4  1  0  0  0  0
 14  9  2  0  0  0  0
 15 13  1  6  0  0  0
 15  3  1  0  0  0  0
 16 19  1  0  0  0  0
 17 11  1  0  0  0  0
 18  4  1  0  0  0  0
 19 12  2  0  0  0  0
 19 14  1  0  0  0  0
 20 24  1  0  0  0  0
 20 21  1  1  0  0  0
 22 24  2  0  0  0  0
 24 23  1  0  0  0  0
 25  6  1  0  0  0  0
 26 32  1  6  0  0  0
 26 29  1  0  0  0  0
 27 29  1  0  0  0  0
 28 26  1  0  0  0  0
 29 25  1  1  0  0  0
 30 27  1  0  0  0  0
 31 30  2  0  0  0  0
 31 28  1  0  0  0  0
 33 34  1  0  0  0  0
 34 32  1  0  0  0  0
 36 35  1  0  0  0  0
 37 38  1  0  0  0  0
 37 36  1  0  0  0  0
 39 37  2  0  0  0  0
M  END
>  <MODEL>
9

>  <REMARK>
 VINA RESULT:      -5.7      3.337      7.272
  Name = 
  9 active torsions:
  status: ('A' for Active; 'I' for Inactive)
    1  A    between atoms: C_6  and  C_24
    2  A    between atoms: C_6  and  C_32
    3  A    between atoms: C_7  and  S_18
    4  A    between atoms: C_8  and  C_14
    5  A    between atoms: C_10  and  O_37
    6  A    between atoms: C_13  and  C_25
    7  A    between atoms: C_13  and  O_37
    8  A    between atoms: C_14  and  O_23
    9  A    between atoms: C_16  and  S_18
                            x       y       z     vdW  Elec       q    Type
                         _______ _______ _______ _____ _____    ______ ____

>  <TORSDO>
F 9

$$$$
