=
 OpenBabel11062421453D

 41 46  0  0  1  0  0  0  0  0999 V2000
  189.5950  174.9410  142.0780 C   0  0  0  0  0  2  0  0  0  0  0  0
  193.9940  171.3160  144.0640 N   0  0  0  0  0  0  0  0  0  0  0  0
  194.9220  170.8790  145.0780 C   0  0  0  0  0  0  0  0  0  0  0  0
  187.2960  176.0410  146.0150 O   0  0  0  0  0  1  0  0  0  0  0  0
  194.0900  172.9390  142.0630 C   0  0  0  0  0  2  0  0  0  0  0  0
  188.2040  172.2900  142.4710 O   0  0  0  0  0  0  0  0  0  0  0  0
  189.3880  172.4710  142.0850 C   0  0  0  0  0  0  0  0  0  0  0  0
  191.4370  171.9790  141.1010 C   0  0  0  0  0  3  0  0  0  0  0  0
  187.6940  176.3380  142.6340 O   0  0  0  0  0  0  0  0  0  0  0  0
  192.3870  177.1480  142.9160 O   0  0  0  0  0  1  0  0  0  0  0  0
  190.6480  177.6100  145.4280 O   0  0  0  0  0  0  0  0  0  0  0  0
  192.6620  175.6950  144.7900 C   0  0  0  0  0  2  0  0  0  0  0  0
  195.4310  170.6810  142.0220 C   0  0  0  0  0  2  0  0  0  0  0  0
  190.2570  178.2940  144.2600 C   0  0  0  0  0  2  0  0  0  0  0  0
  190.2250  173.6200  142.4950 C   0  0  1  0  0  3  0  0  0  0  0  0
  193.9640  170.3850  141.7610 C   0  0  0  0  0  2  0  0  0  0  0  0
  189.1520  175.9140  144.4560 C   0  0  2  0  0  0  0  0  0  0  0  0
  192.5230  174.2140  145.0300 C   0  0  0  0  0  3  0  0  0  0  0  0
  192.8030  173.5850  142.6190 C   0  0  2  0  0  3  0  0  0  0  0  0
  189.4560  174.8410  145.3000 O   0  0  0  0  0  1  0  0  0  0  0  0
  187.9570  176.7060  144.9770 C   0  0  1  0  0  3  0  0  0  0  0  0
  194.3540  171.5440  142.6540 C   0  0  0  0  0  0  0  0  0  0  0  0
  192.6090  173.2660  144.0840 C   0  0  0  0  0  0  0  0  0  0  0  0
  191.7140  176.2260  143.7210 C   0  0  1  0  0  3  0  0  0  0  0  0
  192.6940  171.8310  144.4890 C   0  0  0  0  0  2  0  0  0  0  0  0
  188.5860  175.3860  143.1370 C   0  0  2  0  0  3  0  0  0  0  0  0
  187.0280  176.8130  143.7770 C   0  0  1  0  0  3  0  0  0  0  0  0
  191.5410  173.3740  141.7420 C   0  0  1  0  0  3  0  0  0  0  0  0
  190.4090  176.8160  144.2880 C   0  0  2  0  0  0  0  0  0  0  0  0
  190.0660  171.5380  141.2740 N   0  0  0  0  0  0  0  0  0  0  0  0
  194.5030  170.6610  146.2490 O   0  0  0  0  0  0  0  0  0  0  0  0
  186.5770  178.2240  143.5800 C   0  0  0  0  0  0  0  0  0  0  0  0
  185.9820  178.9520  144.6510 N   0  0  0  0  0  1  0  0  0  0  0  0
  186.6900  178.7600  142.4470 O   0  0  0  0  0  0  0  0  0  0  0  0
  196.8040  169.3780  144.9280 O   0  0  0  0  0  1  0  0  0  0  0  0
  196.3920  170.7110  144.7920 C   0  0  2  0  0  3  0  0  0  0  0  0
  197.2070  171.6050  145.5220 O   0  0  0  0  0  0  0  0  0  0  0  0
  197.1870  173.7870  146.2090 O   0  0  0  0  0  1  0  0  0  0  0  0
  196.8890  172.9250  145.1540 C   0  0  1  0  0  3  0  0  0  0  0  0
  197.7010  173.3280  143.9370 C   0  0  0  0  0  2  0  0  0  0  0  0
  197.8220  174.7160  143.8870 O   0  0  0  0  0  1  0  0  0  0  0  0
  2 25  1  0  0  0  0
  2  3  1  0  0  0  0
  3 31  2  0  0  0  0
  5 22  1  0  0  0  0
  7  6  2  0  0  0  0
  7 15  1  0  0  0  0
  8 30  2  0  0  0  0
  9 26  1  0  0  0  0
  9 27  1  0  0  0  0
 12 18  1  0  0  0  0
 13 22  1  0  0  0  0
 14 11  1  0  0  0  0
 15  1  1  6  0  0  0
 16 13  1  0  0  0  0
 16 22  1  0  0  0  0
 17 21  1  0  0  0  0
 17 20  1  1  0  0  0
 19  5  1  6  0  0  0
 19 23  1  0  0  0  0
 21  4  1  1  0  0  0
 22  2  1  0  0  0  0
 23 25  1  0  0  0  0
 23 18  2  0  0  0  0
 24 10  1  1  0  0  0
 24 29  1  0  0  0  0
 24 12  1  0  0  0  0
 26  1  1  6  0  0  0
 26 17  1  0  0  0  0
 27 32  1  6  0  0  0
 27 21  1  0  0  0  0
 28  8  1  1  0  0  0
 28 15  1  0  0  0  0
 28 19  1  0  0  0  0
 29 14  1  6  0  0  0
 29 17  1  0  0  0  0
 29 11  1  0  0  0  0
 30  7  1  0  0  0  0
 32 33  1  0  0  0  0
 34 32  2  0  0  0  0
 36 35  1  1  0  0  0
 36  3  1  0  0  0  0
 36 37  1  0  0  0  0
 39 37  1  0  0  0  0
 39 38  1  1  0  0  0
 40 39  1  0  0  0  0
 41 40  1  0  0  0  0
M  END
>  <MODEL>
1

>  <REMARK>
 VINA RESULT:      -7.0      0.000      0.000
  Name = 
  5 active torsions:
  status: ('A' for Active; 'I' for Inactive)
    1  A    between atoms: C_3  and  C_35
    2  A    between atoms: C_4  and  C_39
    3  A    between atoms: O_5  and  C_39
    4  A    between atoms: O_5  and  C_41
    5  A    between atoms: C_19  and  C_41
                            x       y       z     vdW  Elec       q    Type
                         _______ _______ _______ _____ _____    ______ ____

>  <TORSDO>
F 5

$$$$
=
 OpenBabel11062421453D

 41 46  0  0  1  0  0  0  0  0999 V2000
  193.2960  172.9280  141.6290 C   0  0  0  0  0  2  0  0  0  0  0  0
  189.5620  175.8440  145.3700 N   0  0  0  0  0  0  0  0  0  0  0  0
  188.4760  175.8690  146.3190 C   0  0  0  0  0  0  0  0  0  0  0  0
  193.6630  168.6960  143.6150 O   0  0  0  0  0  1  0  0  0  0  0  0
  189.7800  176.1590  142.8210 C   0  0  0  0  0  2  0  0  0  0  0  0
  195.0810  173.7290  143.9290 O   0  0  0  0  0  0  0  0  0  0  0  0
  194.1120  174.3830  143.4640 C   0  0  0  0  0  0  0  0  0  0  0  0
  192.7520  176.2210  143.0380 C   0  0  0  0  0  3  0  0  0  0  0  0
  194.4450  170.8640  141.0920 O   0  0  0  0  0  0  0  0  0  0  0  0
  189.9250  172.2250  140.4010 O   0  0  0  0  0  1  0  0  0  0  0  0
  190.4650  169.5550  141.8620 O   0  0  0  0  0  0  0  0  0  0  0  0
  189.3760  172.0480  142.7180 C   0  0  0  0  0  2  0  0  0  0  0  0
  189.1690  178.1860  144.3730 C   0  0  0  0  0  2  0  0  0  0  0  0
  191.0600  169.7080  140.5950 C   0  0  0  0  0  2  0  0  0  0  0  0
  192.9190  173.7630  142.8440 C   0  0  1  0  0  3  0  0  0  0  0  0
  190.6550  177.9000  144.5030 C   0  0  0  0  0  2  0  0  0  0  0  0
  192.5910  170.5910  142.5450 C   0  0  2  0  0  0  0  0  0  0  0  0
  189.7940  172.7610  143.9780 C   0  0  0  0  0  3  0  0  0  0  0  0
  190.5700  174.8320  142.7980 C   0  0  2  0  0  3  0  0  0  0  0  0
  192.2890  170.8530  143.8840 O   0  0  0  0  0  1  0  0  0  0  0  0
  193.2730  169.2370  142.3850 C   0  0  1  0  0  3  0  0  0  0  0  0
  189.6870  176.7670  144.2290 C   0  0  0  0  0  0  0  0  0  0  0  0
  190.2990  174.0030  144.0330 C   0  0  0  0  0  0  0  0  0  0  0  0
  190.4750  171.9900  141.6640 C   0  0  1  0  0  3  0  0  0  0  0  0
  190.4440  174.6790  145.3560 C   0  0  0  0  0  2  0  0  0  0  0  0
  193.7070  171.5260  142.0770 C   0  0  2  0  0  3  0  0  0  0  0  0
  194.5110  169.5370  141.5530 C   0  0  1  0  0  3  0  0  0  0  0  0
  192.0710  174.9790  142.4380 C   0  0  1  0  0  3  0  0  0  0  0  0
  191.2910  170.6830  141.6910 C   0  0  2  0  0  0  0  0  0  0  0  0
  194.0330  175.7870  143.5620 N   0  0  0  0  0  0  0  0  0  0  0  0
  188.4870  175.0680  147.2940 O   0  0  0  0  0  0  0  0  0  0  0  0
  194.6250  168.5830  140.4100 C   0  0  0  0  0  0  0  0  0  0  0  0
  195.9030  168.1750  139.9310 N   0  0  0  0  0  1  0  0  0  0  0  0
  193.5830  168.1660  139.8410 O   0  0  0  0  0  0  0  0  0  0  0  0
  186.8140  177.2450  147.3970 O   0  0  0  0  0  1  0  0  0  0  0  0
  187.3030  176.8030  146.1610 C   0  0  2  0  0  3  0  0  0  0  0  0
  186.2850  176.2790  145.3340 O   0  0  0  0  0  0  0  0  0  0  0  0
  185.7330  176.5650  143.1320 O   0  0  0  0  0  1  0  0  0  0  0  0
  185.9660  177.2220  144.3400 C   0  0  1  0  0  3  0  0  0  0  0  0
  184.7170  177.9850  144.7390 C   0  0  0  0  0  2  0  0  0  0  0  0
  185.0590  179.2750  145.1420 O   0  0  0  0  0  1  0  0  0  0  0  0
  2  3  1  0  0  0  0
  3 31  2  0  0  0  0
  5 22  1  0  0  0  0
  7 30  1  0  0  0  0
  7  6  2  0  0  0  0
  8 30  2  0  0  0  0
  9 27  1  0  0  0  0
  9 26  1  0  0  0  0
 12 18  1  0  0  0  0
 13 16  1  0  0  0  0
 14 11  1  0  0  0  0
 15  1  1  6  0  0  0
 15  7  1  0  0  0  0
 17 20  1  1  0  0  0
 18 23  2  0  0  0  0
 19  5  1  1  0  0  0
 19 23  1  0  0  0  0
 21 17  1  0  0  0  0
 21  4  1  1  0  0  0
 22 13  1  0  0  0  0
 22 16  1  0  0  0  0
 22  2  1  0  0  0  0
 23 25  1  0  0  0  0
 24 10  1  6  0  0  0
 24 29  1  0  0  0  0
 24 12  1  0  0  0  0
 25  2  1  0  0  0  0
 26  1  1  6  0  0  0
 26 17  1  0  0  0  0
 27 32  1  6  0  0  0
 27 21  1  0  0  0  0
 28 19  1  0  0  0  0
 28 15  1  0  0  0  0
 28  8  1  1  0  0  0
 29 14  1  6  0  0  0
 29 11  1  0  0  0  0
 29 17  1  0  0  0  0
 33 32  1  0  0  0  0
 34 32  2  0  0  0  0
 36  3  1  0  0  0  0
 36 35  1  1  0  0  0
 37 36  1  0  0  0  0
 39 38  1  6  0  0  0
 39 40  1  0  0  0  0
 39 37  1  0  0  0  0
 40 41  1  0  0  0  0
M  END
>  <MODEL>
2

>  <REMARK>
 VINA RESULT:      -6.5      2.624      8.681
  Name = 
  5 active torsions:
  status: ('A' for Active; 'I' for Inactive)
    1  A    between atoms: C_3  and  C_35
    2  A    between atoms: C_4  and  C_39
    3  A    between atoms: O_5  and  C_39
    4  A    between atoms: O_5  and  C_41
    5  A    between atoms: C_19  and  C_41
                            x       y       z     vdW  Elec       q    Type
                         _______ _______ _______ _____ _____    ______ ____

>  <TORSDO>
F 5

$$$$
=
 OpenBabel11062421453D

 41 46  0  0  1  0  0  0  0  0999 V2000
  189.8210  173.6100  144.5570 C   0  0  0  0  0  2  0  0  0  0  0  0
  192.8420  171.1020  139.9710 N   0  0  0  0  0  0  0  0  0  0  0  0
  193.2750  171.0770  138.5960 C   0  0  0  0  0  0  0  0  0  0  0  0
  189.9410  178.1790  143.5070 O   0  0  0  0  0  1  0  0  0  0  0  0
  190.8850  170.0770  141.2990 C   0  0  0  0  0  2  0  0  0  0  0  0
  192.7150  174.0970  145.2660 O   0  0  0  0  0  0  0  0  0  0  0  0
  192.2410  173.0890  144.6790 C   0  0  0  0  0  0  0  0  0  0  0  0
  192.1380  170.9100  143.8730 C   0  0  0  0  0  3  0  0  0  0  0  0
  188.9440  175.6340  145.5590 O   0  0  0  0  0  0  0  0  0  0  0  0
  187.3160  172.9320  141.9800 O   0  0  0  0  0  1  0  0  0  0  0  0
  187.6760  175.9640  141.5060 O   0  0  0  0  0  0  0  0  0  0  0  0
  189.0150  173.6680  140.4730 C   0  0  0  0  0  2  0  0  0  0  0  0
  192.7950  168.5530  140.3380 C   0  0  0  0  0  2  0  0  0  0  0  0
  186.8740  175.5920  142.6010 C   0  0  0  0  0  2  0  0  0  0  0  0
  191.0510  173.1280  143.8010 C   0  0  1  0  0  3  0  0  0  0  0  0
  193.3120  169.2650  141.5760 C   0  0  0  0  0  2  0  0  0  0  0  0
  189.4150  175.8250  143.2430 C   0  0  2  0  0  0  0  0  0  0  0  0
  190.5140  173.5310  140.3940 C   0  0  0  0  0  3  0  0  0  0  0  0
  190.6130  171.4940  141.8510 C   0  0  2  0  0  3  0  0  0  0  0  0
  190.5480  175.9240  142.4300 O   0  0  0  0  0  1  0  0  0  0  0  0
  188.9790  177.1940  143.7530 C   0  0  1  0  0  3  0  0  0  0  0  0
  192.2880  169.9400  140.6870 C   0  0  0  0  0  0  0  0  0  0  0  0
  191.2330  172.5590  140.9760 C   0  0  0  0  0  0  0  0  0  0  0  0
  188.4850  173.6930  141.9010 C   0  0  1  0  0  3  0  0  0  0  0  0
  192.6750  172.4000  140.6220 C   0  0  0  0  0  2  0  0  0  0  0  0
  189.7840  175.1380  144.5580 C   0  0  2  0  0  3  0  0  0  0  0  0
  188.8290  177.0020  145.2550 C   0  0  1  0  0  3  0  0  0  0  0  0
  190.8940  171.6620  143.3680 C   0  0  1  0  0  3  0  0  0  0  0  0
  188.2730  175.1140  142.4580 C   0  0  2  0  0  0  0  0  0  0  0  0
  192.8580  171.8230  144.7400 N   0  0  0  0  0  0  0  0  0  0  0  0
  193.7850  172.1140  138.0870 O   0  0  0  0  0  0  0  0  0  0  0  0
  187.5190  177.5420  145.7300 C   0  0  0  0  0  0  0  0  0  0  0  0
  186.9860  177.1470  146.9910 N   0  0  0  0  0  1  0  0  0  0  0  0
  186.8640  178.3220  144.9920 O   0  0  0  0  0  0  0  0  0  0  0  0
  193.9760  169.8610  136.6350 O   0  0  0  0  0  1  0  0  0  0  0  0
  193.1020  169.8560  137.7300 C   0  0  2  0  0  3  0  0  0  0  0  0
  191.7600  169.6310  137.3480 O   0  0  0  0  0  0  0  0  0  0  0  0
  191.0160  169.9240  135.2050 O   0  0  0  0  0  1  0  0  0  0  0  0
  191.3900  170.5800  136.3770 C   0  0  1  0  0  3  0  0  0  0  0  0
  190.2200  171.4020  136.8830 C   0  0  0  0  0  2  0  0  0  0  0  0
  189.7230  170.8440  138.0600 O   0  0  0  0  0  1  0  0  0  0  0  0
  2 25  1  0  0  0  0
  2 22  1  0  0  0  0
  3  2  1  0  0  0  0
  7 30  1  0  0  0  0
  7  6  2  0  0  0  0
  8 30  2  0  0  0  0
 11 29  1  0  0  0  0
 11 14  1  0  0  0  0
 12 24  1  0  0  0  0
 13 22  1  0  0  0  0
 13 16  1  0  0  0  0
 15  1  1  1  0  0  0
 15  7  1  0  0  0  0
 17 20  1  6  0  0  0
 17 21  1  0  0  0  0
 17 26  1  0  0  0  0
 18 12  1  0  0  0  0
 18 23  2  0  0  0  0
 19  5  1  6  0  0  0
 19 28  1  0  0  0  0
 21  4  1  1  0  0  0
 21 27  1  0  0  0  0
 22  5  1  0  0  0  0
 22 16  1  0  0  0  0
 23 19  1  0  0  0  0
 24 10  1  6  0  0  0
 24 29  1  0  0  0  0
 25 23  1  0  0  0  0
 26  1  1  6  0  0  0
 26  9  1  0  0  0  0
 27  9  1  0  0  0  0
 27 32  1  6  0  0  0
 28 15  1  0  0  0  0
 28  8  1  6  0  0  0
 29 14  1  1  0  0  0
 29 17  1  0  0  0  0
 31  3  2  0  0  0  0
 32 33  1  0  0  0  0
 34 32  2  0  0  0  0
 36 35  1  6  0  0  0
 36  3  1  0  0  0  0
 37 36  1  0  0  0  0
 39 38  1  6  0  0  0
 39 40  1  0  0  0  0
 39 37  1  0  0  0  0
 40 41  1  0  0  0  0
M  END
>  <MODEL>
3

>  <REMARK>
 VINA RESULT:      -6.5      3.265      5.669
  Name = 
  5 active torsions:
  status: ('A' for Active; 'I' for Inactive)
    1  A    between atoms: C_3  and  C_35
    2  A    between atoms: C_4  and  C_39
    3  A    between atoms: O_5  and  C_39
    4  A    between atoms: O_5  and  C_41
    5  A    between atoms: C_19  and  C_41
                            x       y       z     vdW  Elec       q    Type
                         _______ _______ _______ _____ _____    ______ ____

>  <TORSDO>
F 5

$$$$
=
 OpenBabel11062421453D

 41 46  0  0  1  0  0  0  0  0999 V2000
  195.1900  173.3140  143.3970 C   0  0  0  0  0  2  0  0  0  0  0  0
  190.1870  176.2750  145.0230 N   0  0  0  0  0  0  0  0  0  0  0  0
  188.8640  176.3190  145.5940 C   0  0  0  0  0  0  0  0  0  0  0  0
  195.3660  169.7930  146.4890 O   0  0  0  0  0  1  0  0  0  0  0  0
  191.1550  176.0300  142.6460 C   0  0  0  0  0  2  0  0  0  0  0  0
  196.0730  174.9360  145.7860 O   0  0  0  0  0  0  0  0  0  0  0  0
  195.2330  175.2760  144.9120 C   0  0  0  0  0  0  0  0  0  0  0  0
  193.8870  176.6850  143.6440 C   0  0  0  0  0  3  0  0  0  0  0  0
  196.6610  171.4280  143.7820 O   0  0  0  0  0  0  0  0  0  0  0  0
  192.4650  171.7410  141.5350 O   0  0  0  0  0  1  0  0  0  0  0  0
  192.8030  169.6240  143.7610 O   0  0  0  0  0  0  0  0  0  0  0  0
  191.2430  172.0040  143.5690 C   0  0  0  0  0  2  0  0  0  0  0  0
  189.8790  178.2130  143.3530 C   0  0  0  0  0  2  0  0  0  0  0  0
  193.7440  169.5880  142.7140 C   0  0  0  0  0  2  0  0  0  0  0  0
  194.3660  174.3220  144.1850 C   0  0  1  0  0  3  0  0  0  0  0  0
  191.2710  178.2410  143.9590 C   0  0  0  0  0  2  0  0  0  0  0  0
  194.4860  171.1620  144.6890 C   0  0  2  0  0  0  0  0  0  0  0  0
  191.1680  173.0520  144.6490 C   0  0  0  0  0  3  0  0  0  0  0  0
  192.0490  174.9020  143.2060 C   0  0  2  0  0  3  0  0  0  0  0  0
  193.7560  171.6640  145.7690 O   0  0  0  0  0  1  0  0  0  0  0  0
  195.3240  169.9550  145.1000 C   0  0  1  0  0  3  0  0  0  0  0  0
  190.5640  176.9190  143.7520 C   0  0  0  0  0  0  0  0  0  0  0  0
  191.4960  174.3430  144.4970 C   0  0  0  0  0  0  0  0  0  0  0  0
  192.6160  171.9070  142.9140 C   0  0  1  0  0  3  0  0  0  0  0  0
  191.1480  175.3210  145.5710 C   0  0  0  0  0  2  0  0  0  0  0  0
  195.5870  172.1520  144.3070 C   0  0  2  0  0  3  0  0  0  0  0  0
  196.7200  170.2780  144.5900 C   0  0  1  0  0  3  0  0  0  0  0  0
  193.5640  175.2350  143.2450 C   0  0  1  0  0  3  0  0  0  0  0  0
  193.5160  170.8150  143.5210 C   0  0  2  0  0  0  0  0  0  0  0  0
  194.9790  176.6260  144.5960 N   0  0  0  0  0  0  0  0  0  0  0  0
  188.6550  175.7790  146.7150 O   0  0  0  0  0  0  0  0  0  0  0  0
  197.2870  169.1240  143.8290 C   0  0  0  0  0  0  0  0  0  0  0  0
  197.1440  169.0490  142.4130 N   0  0  0  0  0  1  0  0  0  0  0  0
  197.8610  168.1920  144.4490 O   0  0  0  0  0  0  0  0  0  0  0  0
  187.1850  178.0500  145.5780 O   0  0  0  0  0  1  0  0  0  0  0  0
  187.7060  176.9590  144.8710 C   0  0  2  0  0  3  0  0  0  0  0  0
  186.7080  176.0340  144.4920 O   0  0  0  0  0  0  0  0  0  0  0  0
  186.5570  177.4950  142.7380 O   0  0  0  0  0  1  0  0  0  0  0  0
  186.4650  176.1550  143.1110 C   0  0  1  0  0  3  0  0  0  0  0  0
  187.4940  175.3510  142.3380 C   0  0  0  0  0  2  0  0  0  0  0  0
  187.8900  176.0560  141.2030 O   0  0  0  0  0  1  0  0  0  0  0  0
  2 25  1  0  0  0  0
  2  3  1  0  0  0  0
  3 31  2  0  0  0  0
  5 22  1  0  0  0  0
  7  6  2  0  0  0  0
  8 30  2  0  0  0  0
  9 26  1  0  0  0  0
  9 27  1  0  0  0  0
 12 18  1  0  0  0  0
 13 22  1  0  0  0  0
 13 16  1  0  0  0  0
 14 11  1  0  0  0  0
 15  1  1  6  0  0  0
 15  7  1  0  0  0  0
 17 21  1  0  0  0  0
 17 20  1  1  0  0  0
 19  5  1  1  0  0  0
 19 28  1  0  0  0  0
 19 23  1  0  0  0  0
 21  4  1  1  0  0  0
 22 16  1  0  0  0  0
 22  2  1  0  0  0  0
 23 18  2  0  0  0  0
 23 25  1  0  0  0  0
 24 10  1  6  0  0  0
 24 29  1  0  0  0  0
 24 12  1  0  0  0  0
 26  1  1  6  0  0  0
 26 17  1  0  0  0  0
 27 32  1  6  0  0  0
 27 21  1  0  0  0  0
 28  8  1  1  0  0  0
 28 15  1  0  0  0  0
 29 14  1  6  0  0  0
 29 11  1  0  0  0  0
 29 17  1  0  0  0  0
 30  7  1  0  0  0  0
 32 34  2  0  0  0  0
 33 32  1  0  0  0  0
 36 35  1  1  0  0  0
 36  3  1  0  0  0  0
 37 36  1  0  0  0  0
 39 38  1  6  0  0  0
 39 37  1  0  0  0  0
 40 39  1  0  0  0  0
 41 40  1  0  0  0  0
M  END
>  <MODEL>
4

>  <REMARK>
 VINA RESULT:      -6.3      2.339      8.742
  Name = 
  5 active torsions:
  status: ('A' for Active; 'I' for Inactive)
    1  A    between atoms: C_3  and  C_35
    2  A    between atoms: C_4  and  C_39
    3  A    between atoms: O_5  and  C_39
    4  A    between atoms: O_5  and  C_41
    5  A    between atoms: C_19  and  C_41
                            x       y       z     vdW  Elec       q    Type
                         _______ _______ _______ _____ _____    ______ ____

>  <TORSDO>
F 5

$$$$
=
 OpenBabel11062421453D

 41 46  0  0  1  0  0  0  0  0999 V2000
  193.2540  171.8070  141.1760 C   0  0  0  0  0  2  0  0  0  0  0  0
  189.5800  176.2680  142.9210 N   0  0  0  0  0  0  0  0  0  0  0  0
  189.2410  177.3720  143.7850 C   0  0  0  0  0  0  0  0  0  0  0  0
  197.4900  173.4150  142.3830 O   0  0  0  0  0  1  0  0  0  0  0  0
  189.0610  173.7440  142.8770 C   0  0  0  0  0  2  0  0  0  0  0  0
  193.5340  173.8560  138.9770 O   0  0  0  0  0  0  0  0  0  0  0  0
  192.4930  173.5910  139.6320 C   0  0  0  0  0  0  0  0  0  0  0  0
  190.2260  173.5070  140.1430 C   0  0  0  0  0  3  0  0  0  0  0  0
  195.5200  170.9580  141.0570 O   0  0  0  0  0  0  0  0  0  0  0  0
  192.3820  171.0640  144.6490 O   0  0  0  0  0  1  0  0  0  0  0  0
  195.2040  172.2360  145.1080 O   0  0  0  0  0  0  0  0  0  0  0  0
  192.6140  173.4200  144.9600 C   0  0  0  0  0  2  0  0  0  0  0  0
  187.1720  175.5080  142.4130 C   0  0  0  0  0  2  0  0  0  0  0  0
  195.1450  170.9060  144.6480 C   0  0  0  0  0  2  0  0  0  0  0  0
  192.4980  173.1200  141.0350 C   0  0  1  0  0  3  0  0  0  0  0  0
  188.0460  175.3890  141.1770 C   0  0  0  0  0  2  0  0  0  0  0  0
  195.2050  172.6550  142.6830 C   0  0  2  0  0  0  0  0  0  0  0  0
  192.2940  174.6480  144.1470 C   0  0  0  0  0  3  0  0  0  0  0  0
  190.5790  173.5090  142.7170 C   0  0  2  0  0  3  0  0  0  0  0  0
  195.0150  174.0400  142.6970 O   0  0  0  0  0  1  0  0  0  0  0  0
  196.6880  172.3000  142.6470 C   0  0  1  0  0  3  0  0  0  0  0  0
  188.6490  175.1880  142.5510 C   0  0  0  0  0  0  0  0  0  0  0  0
  191.3780  174.7100  143.1690 C   0  0  0  0  0  0  0  0  0  0  0  0
  192.9750  172.2080  144.1100 C   0  0  1  0  0  3  0  0  0  0  0  0
  190.9900  176.0390  142.6100 C   0  0  0  0  0  2  0  0  0  0  0  0
  194.7470  172.0880  141.3390 C   0  0  2  0  0  3  0  0  0  0  0  0
  196.8080  171.3110  141.4970 C   0  0  1  0  0  3  0  0  0  0  0  0
  191.0040  172.9330  141.3410 C   0  0  1  0  0  3  0  0  0  0  0  0
  194.4910  172.0200  143.9120 C   0  0  2  0  0  0  0  0  0  0  0  0
  191.2000  173.7970  139.1090 N   0  0  0  0  0  0  0  0  0  0  0  0
  190.0950  178.2760  144.0000 O   0  0  0  0  0  0  0  0  0  0  0  0
  197.5750  170.1000  141.9180 C   0  0  0  0  0  0  0  0  0  0  0  0
  197.8580  169.0610  140.9850 N   0  0  0  0  0  1  0  0  0  0  0  0
  197.9400  169.9800  143.1160 O   0  0  0  0  0  0  0  0  0  0  0  0
  187.1170  178.5010  143.9620 O   0  0  0  0  0  1  0  0  0  0  0  0
  187.9030  177.4610  144.4740 C   0  0  2  0  0  3  0  0  0  0  0  0
  188.0060  177.5040  145.8830 O   0  0  0  0  0  0  0  0  0  0  0  0
  188.1700  175.6620  147.2290 O   0  0  0  0  0  1  0  0  0  0  0  0
  187.3080  176.4130  146.4310 C   0  0  1  0  0  3  0  0  0  0  0  0
  186.1550  176.9160  147.2800 C   0  0  0  0  0  2  0  0  0  0  0  0
  184.9920  176.9740  146.5130 O   0  0  0  0  0  1  0  0  0  0  0  0
  2  3  1  0  0  0  0
  3 31  2  0  0  0  0
  3 36  1  0  0  0  0
  6  7  2  0  0  0  0
  7 15  1  0  0  0  0
  9 26  1  0  0  0  0
  9 27  1  0  0  0  0
 13 22  1  0  0  0  0
 14 11  1  0  0  0  0
 15  1  1  6  0  0  0
 15 28  1  0  0  0  0
 16 13  1  0  0  0  0
 16 22  1  0  0  0  0
 17 20  1  1  0  0  0
 17 29  1  0  0  0  0
 18 12  1  0  0  0  0
 19  5  1  6  0  0  0
 19 23  1  0  0  0  0
 21  4  1  6  0  0  0
 21 17  1  0  0  0  0
 22  5  1  0  0  0  0
 22  2  1  0  0  0  0
 23 18  2  0  0  0  0
 24 10  1  1  0  0  0
 24 12  1  0  0  0  0
 25  2  1  0  0  0  0
 25 23  1  0  0  0  0
 26  1  1  1  0  0  0
 26 17  1  0  0  0  0
 27 32  1  1  0  0  0
 27 21  1  0  0  0  0
 28  8  1  6  0  0  0
 28 19  1  0  0  0  0
 29 24  1  0  0  0  0
 29 14  1  6  0  0  0
 29 11  1  0  0  0  0
 30  7  1  0  0  0  0
 30  8  2  0  0  0  0
 32 34  2  0  0  0  0
 33 32  1  0  0  0  0
 36 35  1  6  0  0  0
 36 37  1  0  0  0  0
 37 39  1  0  0  0  0
 39 38  1  1  0  0  0
 39 40  1  0  0  0  0
 41 40  1  0  0  0  0
M  END
>  <MODEL>
5

>  <REMARK>
 VINA RESULT:      -6.1      2.303      8.524
  Name = 
  5 active torsions:
  status: ('A' for Active; 'I' for Inactive)
    1  A    between atoms: C_3  and  C_35
    2  A    between atoms: C_4  and  C_39
    3  A    between atoms: O_5  and  C_39
    4  A    between atoms: O_5  and  C_41
    5  A    between atoms: C_19  and  C_41
                            x       y       z     vdW  Elec       q    Type
                         _______ _______ _______ _____ _____    ______ ____

>  <TORSDO>
F 5

$$$$
=
 OpenBabel11062421453D

 41 46  0  0  1  0  0  0  0  0999 V2000
  189.2290  175.1690  142.4460 C   0  0  0  0  0  2  0  0  0  0  0  0
  194.2600  171.8350  142.3370 N   0  0  0  0  0  0  0  0  0  0  0  0
  195.4830  171.3570  142.9350 C   0  0  0  0  0  0  0  0  0  0  0  0
  188.1880  175.3320  147.0160 O   0  0  0  0  0  1  0  0  0  0  0  0
  193.6250  173.7580  140.7420 C   0  0  0  0  0  2  0  0  0  0  0  0
  188.2090  172.3400  142.7150 O   0  0  0  0  0  0  0  0  0  0  0  0
  189.2010  172.7240  142.0420 C   0  0  0  0  0  0  0  0  0  0  0  0
  190.8750  172.6500  140.4300 C   0  0  0  0  0  3  0  0  0  0  0  0
  187.5030  176.2160  143.7860 O   0  0  0  0  0  0  0  0  0  0  0  0
  191.9880  177.5360  142.8380 O   0  0  0  0  0  1  0  0  0  0  0  0
  191.0810  177.3720  145.7880 O   0  0  0  0  0  0  0  0  0  0  0  0
  192.9250  175.8440  144.2390 C   0  0  0  0  0  2  0  0  0  0  0  0
  195.0360  171.7170  139.8840 C   0  0  0  0  0  2  0  0  0  0  0  0
  190.3050  178.1820  144.9370 C   0  0  0  0  0  2  0  0  0  0  0  0
  190.0440  173.8850  142.4020 C   0  0  1  0  0  3  0  0  0  0  0  0
  193.5840  171.2910  140.0090 C   0  0  0  0  0  2  0  0  0  0  0  0
  189.4760  175.6850  144.9900 C   0  0  2  0  0  0  0  0  0  0  0  0
  192.9670  174.3380  144.2220 C   0  0  0  0  0  3  0  0  0  0  0  0
  192.5320  174.1450  141.7610 C   0  0  2  0  0  3  0  0  0  0  0  0
  190.0970  174.5350  145.4880 O   0  0  0  0  0  1  0  0  0  0  0  0
  188.4500  176.2310  145.9770 C   0  0  1  0  0  3  0  0  0  0  0  0
  194.1520  172.3290  140.9540 C   0  0  0  0  0  0  0  0  0  0  0  0
  192.8210  173.5720  143.1300 C   0  0  0  0  0  0  0  0  0  0  0  0
  191.6610  176.4210  143.6140 C   0  0  1  0  0  3  0  0  0  0  0  0
  193.1230  172.1120  143.2110 C   0  0  0  0  0  2  0  0  0  0  0  0
  188.5690  175.3120  143.8170 C   0  0  2  0  0  3  0  0  0  0  0  0
  187.1910  176.4160  145.1430 C   0  0  1  0  0  3  0  0  0  0  0  0
  191.0780  173.9260  141.2660 C   0  0  1  0  0  3  0  0  0  0  0  0
  190.5580  176.7490  144.6380 C   0  0  2  0  0  0  0  0  0  0  0  0
  189.6580  172.0230  140.9070 N   0  0  0  0  0  0  0  0  0  0  0  0
  195.4610  170.9040  144.1120 O   0  0  0  0  0  0  0  0  0  0  0  0
  186.6080  177.7750  145.3570 C   0  0  0  0  0  0  0  0  0  0  0  0
  186.1100  178.1570  146.6370 N   0  0  0  0  0  1  0  0  0  0  0  0
  186.5200  178.5740  144.3900 O   0  0  0  0  0  0  0  0  0  0  0  0
  197.6960  170.4380  142.6590 O   0  0  0  0  0  1  0  0  0  0  0  0
  196.8010  171.4170  142.2060 C   0  0  2  0  0  3  0  0  0  0  0  0
  197.3720  172.7090  142.1970 O   0  0  0  0  0  0  0  0  0  0  0  0
  197.9410  173.5160  144.2610 O   0  0  0  0  0  1  0  0  0  0  0  0
  196.9160  173.4240  143.3200 C   0  0  1  0  0  3  0  0  0  0  0  0
  196.4960  174.8210  142.9020 C   0  0  0  0  0  2  0  0  0  0  0  0
  196.4940  175.6660  144.0100 O   0  0  0  0  0  1  0  0  0  0  0  0
  2  3  1  0  0  0  0
  2 25  1  0  0  0  0
  3 31  2  0  0  0  0
  5 22  1  0  0  0  0
  7 15  1  0  0  0  0
  7  6  2  0  0  0  0
  8 30  2  0  0  0  0
  9 26  1  0  0  0  0
  9 27  1  0  0  0  0
 13 16  1  0  0  0  0
 13 22  1  0  0  0  0
 14 11  1  0  0  0  0
 15  1  1  6  0  0  0
 16 22  1  0  0  0  0
 17 20  1  1  0  0  0
 17 21  1  0  0  0  0
 18 12  1  0  0  0  0
 19  5  1  6  0  0  0
 19 23  1  0  0  0  0
 21  4  1  1  0  0  0
 22  2  1  0  0  0  0
 23 25  1  0  0  0  0
 23 18  2  0  0  0  0
 24 10  1  1  0  0  0
 24 12  1  0  0  0  0
 24 29  1  0  0  0  0
 26  1  1  6  0  0  0
 26 17  1  0  0  0  0
 27 32  1  6  0  0  0
 27 21  1  0  0  0  0
 28  8  1  1  0  0  0
 28 19  1  0  0  0  0
 28 15  1  0  0  0  0
 29 14  1  6  0  0  0
 29 17  1  0  0  0  0
 29 11  1  0  0  0  0
 30  7  1  0  0  0  0
 32 33  1  0  0  0  0
 34 32  2  0  0  0  0
 36 35  1  1  0  0  0
 36  3  1  0  0  0  0
 37 36  1  0  0  0  0
 37 39  1  0  0  0  0
 39 38  1  1  0  0  0
 40 39  1  0  0  0  0
 40 41  1  0  0  0  0
M  END
>  <MODEL>
6

>  <REMARK>
 VINA RESULT:      -6.0      1.379      1.581
  Name = 
  5 active torsions:
  status: ('A' for Active; 'I' for Inactive)
    1  A    between atoms: C_3  and  C_35
    2  A    between atoms: C_4  and  C_39
    3  A    between atoms: O_5  and  C_39
    4  A    between atoms: O_5  and  C_41
    5  A    between atoms: C_19  and  C_41
                            x       y       z     vdW  Elec       q    Type
                         _______ _______ _______ _____ _____    ______ ____

>  <TORSDO>
F 5

$$$$
=
 OpenBabel11062421453D

 41 46  0  0  1  0  0  0  0  0999 V2000
  190.0610  174.7750  145.2070 C   0  0  0  0  0  2  0  0  0  0  0  0
  195.0970  173.5480  142.1140 N   0  0  0  0  0  0  0  0  0  0  0  0
  195.8790  173.5530  140.9010 C   0  0  0  0  0  0  0  0  0  0  0  0
  188.3790  178.5560  143.0000 O   0  0  0  0  0  1  0  0  0  0  0  0
  193.5340  171.8660  143.2840 C   0  0  0  0  0  2  0  0  0  0  0  0
  192.0540  176.7720  146.2800 O   0  0  0  0  0  0  0  0  0  0  0  0
  192.2920  175.5920  145.9110 C   0  0  0  0  0  0  0  0  0  0  0  0
  193.4420  173.5800  145.7210 C   0  0  0  0  0  3  0  0  0  0  0  0
  188.1020  176.1820  145.4430 O   0  0  0  0  0  0  0  0  0  0  0  0
  189.0330  172.5500  142.4930 O   0  0  0  0  0  1  0  0  0  0  0  0
  188.0870  175.2350  141.2900 O   0  0  0  0  0  0  0  0  0  0  0  0
  190.5660  173.8300  141.1840 C   0  0  0  0  0  2  0  0  0  0  0  0
  196.1170  171.4180  143.1420 C   0  0  0  0  0  2  0  0  0  0  0  0
  187.2600  174.6640  142.2770 C   0  0  0  0  0  2  0  0  0  0  0  0
  191.5360  174.8900  144.8510 C   0  0  1  0  0  3  0  0  0  0  0  0
  195.8590  172.4620  144.2140 C   0  0  0  0  0  2  0  0  0  0  0  0
  189.0950  176.2550  143.2900 C   0  0  2  0  0  0  0  0  0  0  0  0
  191.9090  174.4710  141.4240 C   0  0  0  0  0  3  0  0  0  0  0  0
  192.4940  173.0050  143.3710 C   0  0  2  0  0  3  0  0  0  0  0  0
  190.2400  176.8050  142.7060 O   0  0  0  0  0  1  0  0  0  0  0  0
  187.9510  177.2640  143.3210 C   0  0  1  0  0  3  0  0  0  0  0  0
  194.9540  172.3830  143.0030 C   0  0  0  0  0  0  0  0  0  0  0  0
  192.7840  174.1000  142.3710 C   0  0  0  0  0  0  0  0  0  0  0  0
  189.6870  173.7830  142.4290 C   0  0  1  0  0  3  0  0  0  0  0  0
  194.1710  174.6540  142.3460 C   0  0  0  0  0  2  0  0  0  0  0  0
  189.3300  176.0500  144.7870 C   0  0  2  0  0  3  0  0  0  0  0  0
  187.4690  177.2380  144.7640 C   0  0  1  0  0  3  0  0  0  0  0  0
  192.2040  173.5070  144.8100 C   0  0  1  0  0  3  0  0  0  0  0  0
  188.6950  174.9560  142.5300 C   0  0  2  0  0  0  0  0  0  0  0  0
  193.3710  174.8450  146.4260 N   0  0  0  0  0  0  0  0  0  0  0  0
  195.9820  174.6200  140.2350 O   0  0  0  0  0  0  0  0  0  0  0  0
  185.9830  177.0910  144.8240 C   0  0  0  0  0  0  0  0  0  0  0  0
  185.3310  176.8170  146.0610 N   0  0  0  0  0  1  0  0  0  0  0  0
  185.3070  177.1730  143.7660 O   0  0  0  0  0  0  0  0  0  0  0  0
  197.9410  172.4480  140.3180 O   0  0  0  0  0  1  0  0  0  0  0  0
  196.5490  172.3070  140.3820 C   0  0  2  0  0  3  0  0  0  0  0  0
  195.9960  171.8440  139.1670 O   0  0  0  0  0  0  0  0  0  0  0  0
  197.1020  170.6450  137.5620 O   0  0  0  0  0  1  0  0  0  0  0  0
  196.9790  171.8990  138.1620 C   0  0  1  0  0  3  0  0  0  0  0  0
  196.5790  172.9160  137.1090 C   0  0  0  0  0  2  0  0  0  0  0  0
  197.4050  174.0360  137.1960 O   0  0  0  0  0  1  0  0  0  0  0  0
  2 25  1  0  0  0  0
  2 22  1  0  0  0  0
  3  2  1  0  0  0  0
  7  6  2  0  0  0  0
  7 30  1  0  0  0  0
  8 30  2  0  0  0  0
 11 14  1  0  0  0  0
 11 29  1  0  0  0  0
 12 18  1  0  0  0  0
 12 24  1  0  0  0  0
 13 16  1  0  0  0  0
 15  1  1  1  0  0  0
 15  7  1  0  0  0  0
 17 20  1  6  0  0  0
 17 21  1  0  0  0  0
 17 26  1  0  0  0  0
 18 23  2  0  0  0  0
 19  5  1  1  0  0  0
 19 28  1  0  0  0  0
 21  4  1  1  0  0  0
 21 27  1  0  0  0  0
 22 13  1  0  0  0  0
 22  5  1  0  0  0  0
 22 16  1  0  0  0  0
 23 19  1  0  0  0  0
 24 10  1  6  0  0  0
 24 29  1  0  0  0  0
 25 23  1  0  0  0  0
 26  1  1  6  0  0  0
 26  9  1  0  0  0  0
 27 32  1  6  0  0  0
 27  9  1  0  0  0  0
 28 15  1  0  0  0  0
 28  8  1  1  0  0  0
 29 14  1  1  0  0  0
 29 17  1  0  0  0  0
 31  3  2  0  0  0  0
 32 33  1  0  0  0  0
 34 32  2  0  0  0  0
 36 35  1  6  0  0  0
 36  3  1  0  0  0  0
 37 36  1  0  0  0  0
 39 38  1  6  0  0  0
 39 37  1  0  0  0  0
 40 41  1  0  0  0  0
 40 39  1  0  0  0  0
M  END
>  <MODEL>
7

>  <REMARK>
 VINA RESULT:      -6.0      2.790      4.542
  Name = 
  5 active torsions:
  status: ('A' for Active; 'I' for Inactive)
    1  A    between atoms: C_3  and  C_35
    2  A    between atoms: C_4  and  C_39
    3  A    between atoms: O_5  and  C_39
    4  A    between atoms: O_5  and  C_41
    5  A    between atoms: C_19  and  C_41
                            x       y       z     vdW  Elec       q    Type
                         _______ _______ _______ _____ _____    ______ ____

>  <TORSDO>
F 5

$$$$
=
 OpenBabel11062421453D

 41 46  0  0  1  0  0  0  0  0999 V2000
  186.8340  175.9160  144.5460 C   0  0  0  0  0  2  0  0  0  0  0  0
  192.8130  176.0450  145.3690 N   0  0  0  0  0  0  0  0  0  0  0  0
  194.1150  176.6230  145.1470 C   0  0  0  0  0  0  0  0  0  0  0  0
  185.7750  180.4370  143.8920 O   0  0  0  0  0  1  0  0  0  0  0  0
  191.4260  174.1660  144.2770 C   0  0  0  0  0  2  0  0  0  0  0  0
  187.1340  176.8050  147.4150 O   0  0  0  0  0  0  0  0  0  0  0  0
  187.8700  175.9930  146.7960 C   0  0  0  0  0  0  0  0  0  0  0  0
  189.4290  174.2960  146.4870 C   0  0  0  0  0  3  0  0  0  0  0  0
  184.8110  177.1630  144.0770 O   0  0  0  0  0  0  0  0  0  0  0  0
  188.2950  175.6210  141.2070 O   0  0  0  0  0  1  0  0  0  0  0  0
  187.5160  178.6100  141.1220 O   0  0  0  0  0  0  0  0  0  0  0  0
  189.8560  177.2410  142.0080 C   0  0  0  0  0  2  0  0  0  0  0  0
  193.5900  173.6060  145.6550 C   0  0  0  0  0  2  0  0  0  0  0  0
  186.4750  177.6850  140.9150 C   0  0  0  0  0  2  0  0  0  0  0  0
  188.1240  176.0540  145.3400 C   0  0  1  0  0  3  0  0  0  0  0  0
  192.4640  173.9280  146.6210 C   0  0  0  0  0  2  0  0  0  0  0  0
  186.8070  178.2840  143.4560 C   0  0  2  0  0  0  0  0  0  0  0  0
  190.5440  177.5110  143.3200 C   0  0  0  0  0  3  0  0  0  0  0  0
  190.2620  175.1770  144.1890 C   0  0  2  0  0  3  0  0  0  0  0  0
  187.8580  178.9420  144.1010 O   0  0  0  0  0  1  0  0  0  0  0  0
  185.6340  179.2270  143.2050 C   0  0  1  0  0  3  0  0  0  0  0  0
  192.5160  174.6060  145.2680 C   0  0  0  0  0  0  0  0  0  0  0  0
  190.7550  176.6030  144.2840 C   0  0  0  0  0  0  0  0  0  0  0  0
  188.4730  176.6200  142.1670 C   0  0  1  0  0  3  0  0  0  0  0  0
  191.6580  176.9380  145.4260 C   0  0  0  0  0  2  0  0  0  0  0  0
  186.1620  177.2820  144.4150 C   0  0  2  0  0  3  0  0  0  0  0  0
  184.4280  178.4770  143.7500 C   0  0  1  0  0  3  0  0  0  0  0  0
  189.0510  174.8510  145.1020 C   0  0  1  0  0  3  0  0  0  0  0  0
  187.3250  177.6480  142.1330 C   0  0  2  0  0  0  0  0  0  0  0  0
  188.5960  174.9810  147.4560 N   0  0  0  0  0  0  0  0  0  0  0  0
  194.2790  177.8640  145.3100 O   0  0  0  0  0  0  0  0  0  0  0  0
  183.3130  178.4720  142.7570 C   0  0  0  0  0  0  0  0  0  0  0  0
  182.0480  179.0420  143.0830 N   0  0  0  0  0  1  0  0  0  0  0  0
  183.4810  177.9260  141.6360 O   0  0  0  0  0  0  0  0  0  0  0  0
  196.0330  175.2970  145.7630 O   0  0  0  0  0  1  0  0  0  0  0  0
  195.2860  175.7920  144.6860 C   0  0  2  0  0  3  0  0  0  0  0  0
  196.0890  176.4480  143.7270 O   0  0  0  0  0  0  0  0  0  0  0  0
  196.5610  176.4630  141.4880 O   0  0  0  0  0  1  0  0  0  0  0  0
  195.5810  176.1860  142.4410 C   0  0  1  0  0  3  0  0  0  0  0  0
  195.1830  174.7260  142.3360 C   0  0  0  0  0  2  0  0  0  0  0  0
  193.9130  174.6200  141.7710 O   0  0  0  0  0  1  0  0  0  0  0  0
  2 25  1  0  0  0  0
  3 31  2  0  0  0  0
  3  2  1  0  0  0  0
  5 22  1  0  0  0  0
  7  6  2  0  0  0  0
  7 30  1  0  0  0  0
  8 30  2  0  0  0  0
  9 26  1  0  0  0  0
 11 29  1  0  0  0  0
 12 24  1  0  0  0  0
 12 18  1  0  0  0  0
 13 16  1  0  0  0  0
 14 11  1  0  0  0  0
 15  1  1  6  0  0  0
 15  7  1  0  0  0  0
 17 20  1  1  0  0  0
 17 26  1  0  0  0  0
 18 23  2  0  0  0  0
 19  5  1  1  0  0  0
 19 23  1  0  0  0  0
 19 28  1  0  0  0  0
 21 17  1  0  0  0  0
 21 27  1  0  0  0  0
 21  4  1  1  0  0  0
 22  2  1  0  0  0  0
 22 13  1  0  0  0  0
 22 16  1  0  0  0  0
 23 25  1  0  0  0  0
 24 10  1  6  0  0  0
 26  1  1  6  0  0  0
 27 32  1  6  0  0  0
 27  9  1  0  0  0  0
 28 15  1  0  0  0  0
 28  8  1  1  0  0  0
 29 14  1  6  0  0  0
 29 24  1  0  0  0  0
 29 17  1  0  0  0  0
 32 33  1  0  0  0  0
 34 32  2  0  0  0  0
 36  3  1  0  0  0  0
 36 35  1  1  0  0  0
 37 36  1  0  0  0  0
 39 38  1  6  0  0  0
 39 37  1  0  0  0  0
 40 39  1  0  0  0  0
 41 40  1  0  0  0  0
M  END
>  <MODEL>
8

>  <REMARK>
 VINA RESULT:      -6.0      3.108      4.808
  Name = 
  5 active torsions:
  status: ('A' for Active; 'I' for Inactive)
    1  A    between atoms: C_3  and  C_35
    2  A    between atoms: C_4  and  C_39
    3  A    between atoms: O_5  and  C_39
    4  A    between atoms: O_5  and  C_41
    5  A    between atoms: C_19  and  C_41
                            x       y       z     vdW  Elec       q    Type
                         _______ _______ _______ _____ _____    ______ ____

>  <TORSDO>
F 5

$$$$
=
 OpenBabel11062421453D

 41 46  0  0  1  0  0  0  0  0999 V2000
  190.3530  173.8540  144.9610 C   0  0  0  0  0  2  0  0  0  0  0  0
  193.9160  171.5830  140.6490 N   0  0  0  0  0  0  0  0  0  0  0  0
  194.4380  171.5740  139.3050 C   0  0  0  0  0  0  0  0  0  0  0  0
  190.0540  178.3840  143.7850 O   0  0  0  0  0  1  0  0  0  0  0  0
  191.9970  170.3830  141.8830 C   0  0  0  0  0  2  0  0  0  0  0  0
  193.1260  174.6670  145.8340 O   0  0  0  0  0  0  0  0  0  0  0  0
  192.8020  173.6010  145.2490 C   0  0  0  0  0  0  0  0  0  0  0  0
  192.9840  171.4060  144.5040 C   0  0  0  0  0  3  0  0  0  0  0  0
  189.2020  175.7940  145.8460 O   0  0  0  0  0  0  0  0  0  0  0  0
  188.1080  172.8500  142.2550 O   0  0  0  0  0  1  0  0  0  0  0  0
  188.1730  175.8910  141.7130 O   0  0  0  0  0  0  0  0  0  0  0  0
  189.8130  173.7300  140.8350 C   0  0  0  0  0  2  0  0  0  0  0  0
  194.1170  169.0530  141.0890 C   0  0  0  0  0  2  0  0  0  0  0  0
  187.3450  175.4600  142.7680 C   0  0  0  0  0  2  0  0  0  0  0  0
  191.6740  173.4910  144.2980 C   0  0  1  0  0  3  0  0  0  0  0  0
  194.4740  169.8450  142.3340 C   0  0  0  0  0  2  0  0  0  0  0  0
  189.8000  175.9810  143.5590 C   0  0  2  0  0  0  0  0  0  0  0  0
  191.3200  173.7540  140.8540 C   0  0  0  0  0  3  0  0  0  0  0  0
  191.5410  171.7740  142.3750 C   0  0  2  0  0  3  0  0  0  0  0  0
  190.9670  176.1830  142.8160 O   0  0  0  0  0  1  0  0  0  0  0  0
  189.1880  177.3060  144.0000 C   0  0  1  0  0  3  0  0  0  0  0  0
  193.4440  170.3850  141.3640 C   0  0  0  0  0  0  0  0  0  0  0  0
  192.0990  172.8800  141.5090 C   0  0  0  0  0  0  0  0  0  0  0  0
  189.1910  173.7310  142.2260 C   0  0  1  0  0  3  0  0  0  0  0  0
  193.5700  172.8700  141.2500 C   0  0  0  0  0  2  0  0  0  0  0  0
  190.1540  175.3690  144.9140 C   0  0  2  0  0  3  0  0  0  0  0  0
  188.9610  177.1340  145.4950 C   0  0  1  0  0  3  0  0  0  0  0  0
  191.7020  172.0070  143.9000 C   0  0  1  0  0  3  0  0  0  0  0  0
  188.7930  175.1330  142.7260 C   0  0  2  0  0  0  0  0  0  0  0  0
  193.5440  172.4110  145.3870 N   0  0  0  0  0  0  0  0  0  0  0  0
  194.8670  172.6470  138.7990 O   0  0  0  0  0  0  0  0  0  0  0  0
  187.5740  177.5400  145.8710 C   0  0  0  0  0  0  0  0  0  0  0  0
  186.7670  178.2910  144.9670 N   0  0  0  0  0  1  0  0  0  0  0  0
  187.1280  177.2480  147.0110 O   0  0  0  0  0  0  0  0  0  0  0  0
  195.7520  169.9580  138.0880 O   0  0  0  0  0  1  0  0  0  0  0  0
  194.4530  170.3210  138.4670 C   0  0  2  0  0  3  0  0  0  0  0  0
  193.5660  170.3770  137.3680 O   0  0  0  0  0  0  0  0  0  0  0  0
  191.4480  171.0730  136.8510 O   0  0  0  0  0  1  0  0  0  0  0  0
  192.2480  170.5080  137.8440 C   0  0  1  0  0  3  0  0  0  0  0  0
  191.6970  169.1420  138.2090 C   0  0  0  0  0  2  0  0  0  0  0  0
  190.4620  169.2820  138.8380 O   0  0  0  0  0  1  0  0  0  0  0  0
  2 25  1  0  0  0  0
  2 22  1  0  0  0  0
  3  2  1  0  0  0  0
  7 30  1  0  0  0  0
  7  6  2  0  0  0  0
  8 30  2  0  0  0  0
 11 29  1  0  0  0  0
 11 14  1  0  0  0  0
 12 18  1  0  0  0  0
 12 24  1  0  0  0  0
 13 22  1  0  0  0  0
 13 16  1  0  0  0  0
 15  1  1  1  0  0  0
 15  7  1  0  0  0  0
 17 20  1  6  0  0  0
 17 21  1  0  0  0  0
 17 26  1  0  0  0  0
 18 23  2  0  0  0  0
 19  5  1  6  0  0  0
 19 28  1  0  0  0  0
 21  4  1  1  0  0  0
 21 27  1  0  0  0  0
 22  5  1  0  0  0  0
 22 16  1  0  0  0  0
 23 19  1  0  0  0  0
 24 10  1  6  0  0  0
 24 29  1  0  0  0  0
 25 23  1  0  0  0  0
 26  1  1  6  0  0  0
 26  9  1  0  0  0  0
 27  9  1  0  0  0  0
 27 32  1  6  0  0  0
 28 15  1  0  0  0  0
 28  8  1  6  0  0  0
 29 14  1  1  0  0  0
 29 17  1  0  0  0  0
 31  3  2  0  0  0  0
 32 34  2  0  0  0  0
 33 32  1  0  0  0  0
 36 35  1  6  0  0  0
 36  3  1  0  0  0  0
 37 39  1  0  0  0  0
 37 36  1  0  0  0  0
 39 38  1  6  0  0  0
 39 40  1  0  0  0  0
 40 41  1  0  0  0  0
M  END
>  <MODEL>
9

>  <REMARK>
 VINA RESULT:      -5.9      2.879      5.169
  Name = 
  5 active torsions:
  status: ('A' for Active; 'I' for Inactive)
    1  A    between atoms: C_3  and  C_35
    2  A    between atoms: C_4  and  C_39
    3  A    between atoms: O_5  and  C_39
    4  A    between atoms: O_5  and  C_41
    5  A    between atoms: C_19  and  C_41
                            x       y       z     vdW  Elec       q    Type
                         _______ _______ _______ _____ _____    ______ ____

>  <TORSDO>
F 5

$$$$
