=
 OpenBabel11062421243D

 31 34  0  0  1  0  0  0  0  0999 V2000
  186.7450  177.7700  142.5810 C   0  0  0  0  0  0  0  0  0  0  0  0
  184.0090  178.2540  142.7610 C   0  0  0  0  0  3  0  0  0  0  0  0
  186.1230  177.7510  143.8660 C   0  0  0  0  0  0  0  0  0  0  0  0
  185.0800  177.4640  146.8540 C   0  0  0  0  0  3  0  0  0  0  0  0
  184.3080  178.5380  146.3340 N   0  0  0  0  0  0  0  0  0  0  0  0
  184.7680  178.1750  143.9280 C   0  0  0  0  0  0  0  0  0  0  0  0
  187.9700  176.4750  144.9240 N   0  0  0  0  0  0  0  0  0  0  0  0
  189.1910  177.5420  143.1370 C   0  0  0  0  0  0  0  0  0  0  0  0
  186.1900  176.9920  146.3040 C   0  0  0  0  0  3  0  0  0  0  0  0
  190.4560  177.8940  142.7960 F   0  0  0  0  0  0  0  0  0  0  0  0
  188.9920  176.4780  144.1260 C   0  0  0  0  0  0  0  0  0  0  0  0
  184.5700  178.0080  141.5120 C   0  0  0  0  0  0  0  0  0  0  0  0
  188.1920  178.0310  142.4120 C   0  0  0  0  0  3  0  0  0  0  0  0
  185.9500  177.8200  141.4150 C   0  0  0  0  0  0  0  0  0  0  0  0
  186.5730  177.7240  140.0550 C   0  0  0  0  0  1  0  0  0  0  0  0
  184.1480  178.8430  145.0860 C   0  0  0  0  0  3  0  0  0  0  0  0
  186.9550  177.5080  145.1250 C   0  0  2  0  0  3  0  0  0  0  0  0
  190.8410  175.3360  145.0470 O   0  0  0  0  0  0  0  0  0  0  0  0
  189.8850  174.2620  143.1960 N   0  0  0  0  0  0  0  0  0  0  0  0
  189.9420  175.3390  144.1610 C   0  0  0  0  0  0  0  0  0  0  0  0
  188.6620  174.0030  142.4470 C   0  0  0  0  0  1  0  0  0  0  0  0
  190.0750  171.8910  144.7320 F   0  0  0  0  0  0  0  0  0  0  0  0
  191.9950  173.5930  142.1080 C   0  0  0  0  0  3  0  0  0  0  0  0
  191.0520  172.1760  143.8340 C   0  0  0  0  0  0  0  0  0  0  0  0
  190.9760  173.3360  143.0380 C   0  0  0  0  0  0  0  0  0  0  0  0
  192.2010  170.1730  144.4490 F   0  0  0  0  0  0  0  0  0  0  0  0
  192.1290  171.2930  143.6880 C   0  0  0  0  0  0  0  0  0  0  0  0
  193.1340  171.5610  142.7560 C   0  0  0  0  0  3  0  0  0  0  0  0
  193.0670  172.7100  141.9660 C   0  0  0  0  0  3  0  0  0  0  0  0
  182.4040  177.9680  140.4270 N   0  0  0  0  0  1  0  0  0  0  0  0
  183.7800  178.0180  140.3590 O   0  0  0  0  0  0  0  0  0  0  0  0
  1  3  1  0  0  0  0
  2  6  1  0  0  0  0
  3  6  2  0  0  0  0
  3 17  1  0  0  0  0
  5  4  1  0  0  0  0
  6 16  1  0  0  0  0
  7 17  1  0  0  0  0
  8 11  1  0  0  0  0
  9  4  2  0  0  0  0
 10  8  1  0  0  0  0
 11 20  1  0  0  0  0
 11  7  2  0  0  0  0
 12  2  2  0  0  0  0
 13  1  1  0  0  0  0
 13  8  2  0  0  0  0
 14 12  1  0  0  0  0
 14  1  2  0  0  0  0
 15 14  1  0  0  0  0
 16  5  2  0  0  0  0
 17  9  1  1  0  0  0
 19 20  1  0  0  0  0
 20 18  2  0  0  0  0
 21 19  1  0  0  0  0
 23 25  1  0  0  0  0
 24 22  1  0  0  0  0
 25 19  1  0  0  0  0
 25 24  2  0  0  0  0
 27 24  1  0  0  0  0
 27 26  1  0  0  0  0
 28 27  2  0  0  0  0
 29 23  2  0  0  0  0
 29 28  1  0  0  0  0
 31 30  1  0  0  0  0
 31 12  1  0  0  0  0
M  END
>  <MODEL>
1

>  <REMARK>
 VINA RESULT:      -8.4      0.000      0.000
  Name = 
  3 active torsions:
  status: ('A' for Active; 'I' for Inactive)
    1  A    between atoms: C_9  and  N_11
    2  A    between atoms: O_14  and  C_25
    3  A    between atoms: C_21  and  C_24
                            x       y       z     vdW  Elec       q    Type
                         _______ _______ _______ _____ _____    ______ ____

>  <TORSDO>
F 3

$$$$
=
 OpenBabel11062421243D

 31 34  0  0  1  0  0  0  0  0999 V2000
  186.7030  177.7630  142.6250 C   0  0  0  0  0  0  0  0  0  0  0  0
  183.9730  178.2900  142.7670 C   0  0  0  0  0  3  0  0  0  0  0  0
  186.0660  177.7670  143.9020 C   0  0  0  0  0  0  0  0  0  0  0  0
  184.9830  177.5280  146.8810 C   0  0  0  0  0  3  0  0  0  0  0  0
  184.2340  178.6090  146.3400 N   0  0  0  0  0  0  0  0  0  0  0  0
  184.7170  178.2120  143.9430 C   0  0  0  0  0  0  0  0  0  0  0  0
  187.8810  176.4750  144.9960 N   0  0  0  0  0  0  0  0  0  0  0  0
  189.1390  177.5040  143.2130 C   0  0  0  0  0  0  0  0  0  0  0  0
  186.0920  177.0340  146.3490 C   0  0  0  0  0  3  0  0  0  0  0  0
  190.4130  177.8340  142.8830 F   0  0  0  0  0  0  0  0  0  0  0  0
  188.9120  176.4540  144.2110 C   0  0  0  0  0  0  0  0  0  0  0  0
  184.5460  178.0210  141.5270 C   0  0  0  0  0  0  0  0  0  0  0  0
  188.1560  178.0000  142.4710 C   0  0  0  0  0  3  0  0  0  0  0  0
  185.9230  177.8110  141.4490 C   0  0  0  0  0  0  0  0  0  0  0  0
  186.5610  177.6910  140.0980 C   0  0  0  0  0  1  0  0  0  0  0  0
  184.0940  178.9010  145.0870 C   0  0  0  0  0  3  0  0  0  0  0  0
  186.8800  177.5260  145.1740 C   0  0  2  0  0  3  0  0  0  0  0  0
  190.6990  175.2700  145.1980 O   0  0  0  0  0  0  0  0  0  0  0  0
  189.8200  174.2430  143.2830 N   0  0  0  0  0  0  0  0  0  0  0  0
  189.8450  175.3020  144.2700 C   0  0  0  0  0  0  0  0  0  0  0  0
  188.6310  174.0150  142.4720 C   0  0  0  0  0  1  0  0  0  0  0  0
  192.1320  174.8170  141.7550 F   0  0  0  0  0  0  0  0  0  0  0  0
  190.8400  172.0580  143.8000 C   0  0  0  0  0  3  0  0  0  0  0  0
  192.0320  173.6130  142.3730 C   0  0  0  0  0  0  0  0  0  0  0  0
  190.9050  173.3050  143.1600 C   0  0  0  0  0  0  0  0  0  0  0  0
  194.1610  172.9820  141.4910 F   0  0  0  0  0  0  0  0  0  0  0  0
  193.0730  172.6850  142.2420 C   0  0  0  0  0  0  0  0  0  0  0  0
  192.9950  171.4490  142.8880 C   0  0  0  0  0  3  0  0  0  0  0  0
  191.8800  171.1350  143.6660 C   0  0  0  0  0  3  0  0  0  0  0  0
  182.3930  177.9660  140.4160 N   0  0  0  0  0  1  0  0  0  0  0  0
  183.7690  178.0300  140.3640 O   0  0  0  0  0  0  0  0  0  0  0  0
  1  3  1  0  0  0  0
  2  6  1  0  0  0  0
  3  6  2  0  0  0  0
  3 17  1  0  0  0  0
  5  4  1  0  0  0  0
  6 16  1  0  0  0  0
  7 17  1  0  0  0  0
  8 11  1  0  0  0  0
  9  4  2  0  0  0  0
 10  8  1  0  0  0  0
 11 20  1  0  0  0  0
 11  7  2  0  0  0  0
 12  2  2  0  0  0  0
 13  1  1  0  0  0  0
 13  8  2  0  0  0  0
 14 12  1  0  0  0  0
 14  1  2  0  0  0  0
 15 14  1  0  0  0  0
 16  5  2  0  0  0  0
 17  9  1  1  0  0  0
 19 20  1  0  0  0  0
 20 18  2  0  0  0  0
 21 19  1  0  0  0  0
 22 24  1  0  0  0  0
 24 25  1  0  0  0  0
 25 19  1  0  0  0  0
 25 23  2  0  0  0  0
 26 27  1  0  0  0  0
 27 24  2  0  0  0  0
 27 28  1  0  0  0  0
 28 29  2  0  0  0  0
 29 23  1  0  0  0  0
 31 30  1  0  0  0  0
 31 12  1  0  0  0  0
M  END
>  <MODEL>
2

>  <REMARK>
 VINA RESULT:      -8.3      1.174      1.457
  Name = 
  3 active torsions:
  status: ('A' for Active; 'I' for Inactive)
    1  A    between atoms: C_9  and  N_11
    2  A    between atoms: O_14  and  C_25
    3  A    between atoms: C_21  and  C_24
                            x       y       z     vdW  Elec       q    Type
                         _______ _______ _______ _____ _____    ______ ____

>  <TORSDO>
F 3

$$$$
=
 OpenBabel11062421243D

 31 34  0  0  1  0  0  0  0  0999 V2000
  187.5180  177.7200  143.6230 C   0  0  0  0  0  0  0  0  0  0  0  0
  184.7600  177.9280  143.3030 C   0  0  0  0  0  3  0  0  0  0  0  0
  186.6830  177.6770  144.7800 C   0  0  0  0  0  0  0  0  0  0  0  0
  185.1590  177.3770  147.5530 C   0  0  0  0  0  3  0  0  0  0  0  0
  184.3930  178.3510  146.8550 N   0  0  0  0  0  0  0  0  0  0  0  0
  185.3040  177.9620  144.5850 C   0  0  0  0  0  0  0  0  0  0  0  0
  188.4260  176.6290  146.2020 N   0  0  0  0  0  0  0  0  0  0  0  0
  189.8370  177.7590  144.6050 C   0  0  0  0  0  0  0  0  0  0  0  0
  186.3880  177.0040  147.2270 C   0  0  0  0  0  3  0  0  0  0  0  0
  191.1030  178.2290  144.4710 F   0  0  0  0  0  0  0  0  0  0  0  0
  189.5690  176.7120  145.5940 C   0  0  0  0  0  0  0  0  0  0  0  0
  185.5550  177.7010  142.1830 C   0  0  0  0  0  0  0  0  0  0  0  0
  188.9410  178.1210  143.6950 C   0  0  0  0  0  3  0  0  0  0  0  0
  186.9420  177.6520  142.3360 C   0  0  0  0  0  0  0  0  0  0  0  0
  187.8020  177.5780  141.1110 C   0  0  0  0  0  1  0  0  0  0  0  0
  184.4290  178.5980  145.5850 C   0  0  0  0  0  3  0  0  0  0  0  0
  187.2980  177.5590  146.1740 C   0  0  2  0  0  3  0  0  0  0  0  0
  190.8810  175.3920  147.0450 O   0  0  0  0  0  0  0  0  0  0  0  0
  191.3090  175.0190  144.7720 N   0  0  0  0  0  0  0  0  0  0  0  0
  190.6010  175.6780  145.8480 C   0  0  0  0  0  0  0  0  0  0  0  0
  190.7530  174.9970  143.4240 C   0  0  0  0  0  1  0  0  0  0  0  0
  193.7640  176.2610  145.4370 F   0  0  0  0  0  0  0  0  0  0  0  0
  192.4900  172.8580  144.9190 C   0  0  0  0  0  3  0  0  0  0  0  0
  193.7180  174.9090  145.3220 C   0  0  0  0  0  0  0  0  0  0  0  0
  192.5070  174.2580  145.0150 C   0  0  0  0  0  0  0  0  0  0  0  0
  196.0490  174.7840  145.8380 F   0  0  0  0  0  0  0  0  0  0  0  0
  194.8830  174.1610  145.5350 C   0  0  0  0  0  0  0  0  0  0  0  0
  194.8500  172.7680  145.4400 C   0  0  0  0  0  3  0  0  0  0  0  0
  193.6540  172.1170  145.1320 C   0  0  0  0  0  3  0  0  0  0  0  0
  184.0950  178.5380  140.4390 N   0  0  0  0  0  1  0  0  0  0  0  0
  184.9840  177.5950  140.9110 O   0  0  0  0  0  0  0  0  0  0  0  0
  1 13  1  0  0  0  0
  1  3  1  0  0  0  0
  2  6  1  0  0  0  0
  3 17  1  0  0  0  0
  5  4  1  0  0  0  0
  6  3  2  0  0  0  0
  6 16  1  0  0  0  0
  8 11  1  0  0  0  0
  9  4  2  0  0  0  0
 10  8  1  0  0  0  0
 11 20  1  0  0  0  0
 11  7  2  0  0  0  0
 12 14  1  0  0  0  0
 12  2  2  0  0  0  0
 13  8  2  0  0  0  0
 14  1  2  0  0  0  0
 15 14  1  0  0  0  0
 16  5  2  0  0  0  0
 17  7  1  0  0  0  0
 17  9  1  1  0  0  0
 19 25  1  0  0  0  0
 19 20  1  0  0  0  0
 20 18  2  0  0  0  0
 21 19  1  0  0  0  0
 23 25  2  0  0  0  0
 23 29  1  0  0  0  0
 24 22  1  0  0  0  0
 24 27  2  0  0  0  0
 25 24  1  0  0  0  0
 27 26  1  0  0  0  0
 28 27  1  0  0  0  0
 29 28  2  0  0  0  0
 30 31  1  0  0  0  0
 31 12  1  0  0  0  0
M  END
>  <MODEL>
3

>  <REMARK>
 VINA RESULT:      -8.2      2.258      2.513
  Name = 
  3 active torsions:
  status: ('A' for Active; 'I' for Inactive)
    1  A    between atoms: C_9  and  N_11
    2  A    between atoms: O_14  and  C_25
    3  A    between atoms: C_21  and  C_24
                            x       y       z     vdW  Elec       q    Type
                         _______ _______ _______ _____ _____    ______ ____

>  <TORSDO>
F 3

$$$$
=
 OpenBabel11062421243D

 31 34  0  0  1  0  0  0  0  0999 V2000
  191.2550  173.5660  144.2230 C   0  0  0  0  0  0  0  0  0  0  0  0
  193.4240  173.0690  142.5500 C   0  0  0  0  0  3  0  0  0  0  0  0
  192.3970  174.4170  144.3030 C   0  0  0  0  0  0  0  0  0  0  0  0
  194.6720  176.6090  144.6560 C   0  0  0  0  0  3  0  0  0  0  0  0
  195.3990  175.4070  144.4390 N   0  0  0  0  0  0  0  0  0  0  0  0
  193.5430  174.0220  143.5600 C   0  0  0  0  0  0  0  0  0  0  0  0
  191.1600  176.2490  145.4300 N   0  0  0  0  0  0  0  0  0  0  0  0
  189.8200  174.3690  146.1320 C   0  0  0  0  0  0  0  0  0  0  0  0
  193.3890  176.6700  144.9860 C   0  0  0  0  0  3  0  0  0  0  0  0
  188.9410  174.0110  147.1010 F   0  0  0  0  0  0  0  0  0  0  0  0
  190.0190  175.7920  145.8420 C   0  0  0  0  0  0  0  0  0  0  0  0
  192.2160  172.4240  142.2990 C   0  0  0  0  0  0  0  0  0  0  0  0
  190.3080  173.4130  145.3510 C   0  0  0  0  0  3  0  0  0  0  0  0
  191.1450  172.6310  143.1700 C   0  0  0  0  0  0  0  0  0  0  0  0
  189.9040  171.8090  142.9980 C   0  0  0  0  0  1  0  0  0  0  0  0
  194.9360  174.3000  143.9530 C   0  0  0  0  0  3  0  0  0  0  0  0
  192.4430  175.5570  145.3200 C   0  0  2  0  0  3  0  0  0  0  0  0
  188.8450  177.5430  146.9030 O   0  0  0  0  0  0  0  0  0  0  0  0
  187.7570  176.6750  145.0180 N   0  0  0  0  0  0  0  0  0  0  0  0
  188.8640  176.7170  145.9500 C   0  0  0  0  0  0  0  0  0  0  0  0
  187.9170  176.0610  143.7060 C   0  0  0  0  0  1  0  0  0  0  0  0
  186.9910  179.0400  143.6650 F   0  0  0  0  0  0  0  0  0  0  0  0
  185.6380  176.8380  146.2700 C   0  0  0  0  0  3  0  0  0  0  0  0
  186.1730  178.5330  144.6220 C   0  0  0  0  0  0  0  0  0  0  0  0
  186.5140  177.3450  145.2980 C   0  0  0  0  0  0  0  0  0  0  0  0
  184.6380  180.3290  144.2630 F   0  0  0  0  0  0  0  0  0  0  0  0
  184.9710  179.1890  144.9160 C   0  0  0  0  0  0  0  0  0  0  0  0
  184.1080  178.6710  145.8850 C   0  0  0  0  0  3  0  0  0  0  0  0
  184.4410  177.4960  146.5620 C   0  0  0  0  0  3  0  0  0  0  0  0
  191.9160  171.9630  139.9390 N   0  0  0  0  0  1  0  0  0  0  0  0
  192.0930  171.5260  141.2350 O   0  0  0  0  0  0  0  0  0  0  0  0
  1  3  1  0  0  0  0
  1 13  1  0  0  0  0
  2  6  1  0  0  0  0
  3 17  1  0  0  0  0
  4  9  2  0  0  0  0
  5  4  1  0  0  0  0
  6 16  1  0  0  0  0
  6  3  2  0  0  0  0
  7 11  2  0  0  0  0
  8 10  1  0  0  0  0
 11 20  1  0  0  0  0
 11  8  1  0  0  0  0
 12  2  2  0  0  0  0
 12 14  1  0  0  0  0
 13  8  2  0  0  0  0
 14  1  2  0  0  0  0
 15 14  1  0  0  0  0
 16  5  2  0  0  0  0
 17  9  1  6  0  0  0
 17  7  1  0  0  0  0
 19 25  1  0  0  0  0
 19 20  1  0  0  0  0
 20 18  2  0  0  0  0
 21 19  1  0  0  0  0
 22 24  1  0  0  0  0
 23 29  1  0  0  0  0
 24 27  2  0  0  0  0
 24 25  1  0  0  0  0
 25 23  2  0  0  0  0
 26 27  1  0  0  0  0
 27 28  1  0  0  0  0
 28 29  2  0  0  0  0
 30 31  1  0  0  0  0
 31 12  1  0  0  0  0
M  END
>  <MODEL>
4

>  <REMARK>
 VINA RESULT:      -8.1      3.134      8.264
  Name = 
  3 active torsions:
  status: ('A' for Active; 'I' for Inactive)
    1  A    between atoms: C_9  and  N_11
    2  A    between atoms: O_14  and  C_25
    3  A    between atoms: C_21  and  C_24
                            x       y       z     vdW  Elec       q    Type
                         _______ _______ _______ _____ _____    ______ ____

>  <TORSDO>
F 3

$$$$
=
 OpenBabel11062421243D

 31 34  0  0  1  0  0  0  0  0999 V2000
  187.4080  177.8980  143.4040 C   0  0  0  0  0  0  0  0  0  0  0  0
  184.6460  178.1430  143.1520 C   0  0  0  0  0  3  0  0  0  0  0  0
  186.6030  177.8860  144.5820 C   0  0  0  0  0  0  0  0  0  0  0  0
  185.1480  177.6540  147.3990 C   0  0  0  0  0  3  0  0  0  0  0  0
  184.3790  178.6280  146.7060 N   0  0  0  0  0  0  0  0  0  0  0  0
  185.2240  178.1890  144.4200 C   0  0  0  0  0  0  0  0  0  0  0  0
  188.3670  176.8330  145.9760 N   0  0  0  0  0  0  0  0  0  0  0  0
  189.7530  177.9160  144.3230 C   0  0  0  0  0  0  0  0  0  0  0  0
  186.3630  177.2560  147.0470 C   0  0  0  0  0  3  0  0  0  0  0  0
  191.0210  178.3630  144.1490 F   0  0  0  0  0  0  0  0  0  0  0  0
  189.4940  176.8890  145.3370 C   0  0  0  0  0  0  0  0  0  0  0  0
  185.4070  177.8870  142.0160 C   0  0  0  0  0  0  0  0  0  0  0  0
  188.8380  178.2770  143.4320 C   0  0  0  0  0  3  0  0  0  0  0  0
  186.7960  177.8180  142.1330 C   0  0  0  0  0  0  0  0  0  0  0  0
  187.6230  177.7110  140.8880 C   0  0  0  0  0  1  0  0  0  0  0  0
  184.3850  178.8550  145.4320 C   0  0  0  0  0  3  0  0  0  0  0  0
  187.2530  177.7810  145.9620 C   0  0  2  0  0  3  0  0  0  0  0  0
  190.8330  175.5800  146.7730 O   0  0  0  0  0  0  0  0  0  0  0  0
  191.1760  175.1460  144.4960 N   0  0  0  0  0  0  0  0  0  0  0  0
  190.5170  175.8420  145.5800 C   0  0  0  0  0  0  0  0  0  0  0  0
  190.5740  175.1020  143.1690 C   0  0  0  0  0  1  0  0  0  0  0  0
  191.1320  172.3170  144.5700 F   0  0  0  0  0  0  0  0  0  0  0  0
  193.6040  175.0080  144.9110 C   0  0  0  0  0  3  0  0  0  0  0  0
  192.3080  172.9640  144.7700 C   0  0  0  0  0  0  0  0  0  0  0  0
  192.3690  174.3700  144.7160 C   0  0  0  0  0  0  0  0  0  0  0  0
  193.4160  170.8650  145.0520 F   0  0  0  0  0  0  0  0  0  0  0  0
  193.4710  172.2190  145.0070 C   0  0  0  0  0  0  0  0  0  0  0  0
  194.6930  172.8680  145.1950 C   0  0  0  0  0  3  0  0  0  0  0  0
  194.7600  174.2620  145.1470 C   0  0  0  0  0  3  0  0  0  0  0  0
  183.5500  178.2930  140.5140 N   0  0  0  0  0  1  0  0  0  0  0  0
  184.8010  177.7700  140.7610 O   0  0  0  0  0  0  0  0  0  0  0  0
  1 13  1  0  0  0  0
  1  3  1  0  0  0  0
  2  6  1  0  0  0  0
  3 17  1  0  0  0  0
  5  4  1  0  0  0  0
  6  3  2  0  0  0  0
  6 16  1  0  0  0  0
  8 11  1  0  0  0  0
  9  4  2  0  0  0  0
 10  8  1  0  0  0  0
 11 20  1  0  0  0  0
 11  7  2  0  0  0  0
 12 14  1  0  0  0  0
 12  2  2  0  0  0  0
 13  8  2  0  0  0  0
 14  1  2  0  0  0  0
 15 14  1  0  0  0  0
 16  5  2  0  0  0  0
 17  7  1  0  0  0  0
 17  9  1  1  0  0  0
 19 25  1  0  0  0  0
 19 20  1  0  0  0  0
 20 18  2  0  0  0  0
 21 19  1  0  0  0  0
 22 24  1  0  0  0  0
 23 29  1  0  0  0  0
 24 27  2  0  0  0  0
 25 24  1  0  0  0  0
 25 23  2  0  0  0  0
 27 26  1  0  0  0  0
 27 28  1  0  0  0  0
 29 28  2  0  0  0  0
 30 31  1  0  0  0  0
 31 12  1  0  0  0  0
M  END
>  <MODEL>
5

>  <REMARK>
 VINA RESULT:      -8.0      1.652      1.712
  Name = 
  3 active torsions:
  status: ('A' for Active; 'I' for Inactive)
    1  A    between atoms: C_9  and  N_11
    2  A    between atoms: O_14  and  C_25
    3  A    between atoms: C_21  and  C_24
                            x       y       z     vdW  Elec       q    Type
                         _______ _______ _______ _____ _____    ______ ____

>  <TORSDO>
F 3

$$$$
=
 OpenBabel11062421243D

 31 34  0  0  1  0  0  0  0  0999 V2000
  192.8510  175.5470  144.4880 C   0  0  0  0  0  0  0  0  0  0  0  0
  194.2430  173.2290  145.1530 C   0  0  0  0  0  3  0  0  0  0  0  0
  192.2610  174.2810  144.1990 C   0  0  0  0  0  0  0  0  0  0  0  0
  190.5630  171.6720  143.5520 C   0  0  0  0  0  3  0  0  0  0  0  0
  191.8960  171.2880  143.2400 N   0  0  0  0  0  0  0  0  0  0  0  0
  193.0780  173.1340  144.3930 C   0  0  0  0  0  0  0  0  0  0  0  0
  189.9690  175.2100  143.9920 N   0  0  0  0  0  0  0  0  0  0  0  0
  191.2510  177.1710  143.4170 C   0  0  0  0  0  0  0  0  0  0  0  0
  190.1520  172.9230  143.7110 C   0  0  0  0  0  3  0  0  0  0  0  0
  191.1240  178.3520  142.7620 F   0  0  0  0  0  0  0  0  0  0  0  0
  190.0460  176.5020  143.9160 C   0  0  0  0  0  0  0  0  0  0  0  0
  194.6780  174.4480  145.6640 C   0  0  0  0  0  0  0  0  0  0  0  0
  192.4720  176.7770  143.7560 C   0  0  0  0  0  3  0  0  0  0  0  0
  194.0140  175.6160  145.2870 C   0  0  0  0  0  0  0  0  0  0  0  0
  194.5850  176.9390  145.7010 C   0  0  0  0  0  1  0  0  0  0  0  0
  192.9800  171.8900  143.6090 C   0  0  0  0  0  3  0  0  0  0  0  0
  190.9050  174.2010  143.4980 C   0  0  2  0  0  3  0  0  0  0  0  0
  189.0340  177.8700  145.5510 O   0  0  0  0  0  0  0  0  0  0  0  0
  187.6950  177.4930  143.6650 N   0  0  0  0  0  0  0  0  0  0  0  0
  188.9200  177.3260  144.4180 C   0  0  0  0  0  0  0  0  0  0  0  0
  187.6710  177.2520  142.2280 C   0  0  0  0  0  1  0  0  0  0  0  0
  186.3730  176.1560  145.7820 F   0  0  0  0  0  0  0  0  0  0  0  0
  185.9530  179.2320  143.8240 C   0  0  0  0  0  3  0  0  0  0  0  0
  185.8580  177.3210  145.3120 C   0  0  0  0  0  0  0  0  0  0  0  0
  186.5040  178.0220  144.2760 C   0  0  0  0  0  0  0  0  0  0  0  0
  184.0670  177.1640  146.8870 F   0  0  0  0  0  0  0  0  0  0  0  0
  184.6870  177.8340  145.8850 C   0  0  0  0  0  0  0  0  0  0  0  0
  184.1530  179.0410  145.4270 C   0  0  0  0  0  3  0  0  0  0  0  0
  184.7850  179.7400  144.3980 C   0  0  0  0  0  3  0  0  0  0  0  0
  196.9460  173.7910  146.2080 N   0  0  0  0  0  1  0  0  0  0  0  0
  195.8060  174.5160  146.4870 O   0  0  0  0  0  0  0  0  0  0  0  0
  1 14  1  0  0  0  0
  2 12  1  0  0  0  0
  3  6  1  0  0  0  0
  3  1  2  0  0  0  0
  4  9  2  0  0  0  0
  5  4  1  0  0  0  0
  5 16  2  0  0  0  0
  6  2  2  0  0  0  0
  8 13  2  0  0  0  0
  8 11  1  0  0  0  0
 10  8  1  0  0  0  0
 11  7  2  0  0  0  0
 11 20  1  0  0  0  0
 12 31  1  0  0  0  0
 13  1  1  0  0  0  0
 14 12  2  0  0  0  0
 14 15  1  0  0  0  0
 16  6  1  0  0  0  0
 17  9  1  1  0  0  0
 17  7  1  0  0  0  0
 17  3  1  0  0  0  0
 19 25  1  0  0  0  0
 19 20  1  0  0  0  0
 20 18  2  0  0  0  0
 21 19  1  0  0  0  0
 23 25  2  0  0  0  0
 23 29  1  0  0  0  0
 24 22  1  0  0  0  0
 24 27  2  0  0  0  0
 25 24  1  0  0  0  0
 27 26  1  0  0  0  0
 28 27  1  0  0  0  0
 29 28  2  0  0  0  0
 30 31  1  0  0  0  0
M  END
>  <MODEL>
6

>  <REMARK>
 VINA RESULT:      -8.0      3.204      8.536
  Name = 
  3 active torsions:
  status: ('A' for Active; 'I' for Inactive)
    1  A    between atoms: C_9  and  N_11
    2  A    between atoms: O_14  and  C_25
    3  A    between atoms: C_21  and  C_24
                            x       y       z     vdW  Elec       q    Type
                         _______ _______ _______ _____ _____    ______ ____

>  <TORSDO>
F 3

$$$$
=
 OpenBabel11062421243D

 31 34  0  0  1  0  0  0  0  0999 V2000
  187.5000  176.7950  144.4450 C   0  0  0  0  0  0  0  0  0  0  0  0
  185.4310  178.6570  144.3760 C   0  0  0  0  0  3  0  0  0  0  0  0
  186.9440  177.1620  143.1830 C   0  0  0  0  0  0  0  0  0  0  0  0
  186.0820  177.8420  140.2000 C   0  0  0  0  0  3  0  0  0  0  0  0
  184.8540  177.8660  140.9150 N   0  0  0  0  0  0  0  0  0  0  0  0
  185.7790  177.9770  143.2100 C   0  0  0  0  0  0  0  0  0  0  0  0
  188.9020  176.3470  141.8950 N   0  0  0  0  0  0  0  0  0  0  0  0
  189.0820  174.9300  143.8400 C   0  0  0  0  0  0  0  0  0  0  0  0
  187.2080  177.3020  140.6460 C   0  0  0  0  0  3  0  0  0  0  0  0
  189.6280  173.7520  144.2330 F   0  0  0  0  0  0  0  0  0  0  0  0
  189.6410  175.6190  142.6730 C   0  0  0  0  0  0  0  0  0  0  0  0
  186.1540  178.4930  145.5540 C   0  0  0  0  0  0  0  0  0  0  0  0
  188.2030  175.5080  144.6490 C   0  0  0  0  0  3  0  0  0  0  0  0
  187.1540  177.5210  145.6050 C   0  0  0  0  0  0  0  0  0  0  0  0
  187.8130  177.2300  146.9200 C   0  0  0  0  0  1  0  0  0  0  0  0
  184.7080  177.9450  142.1980 C   0  0  0  0  0  3  0  0  0  0  0  0
  187.4490  176.5120  141.8950 C   0  0  2  0  0  3  0  0  0  0  0  0
  191.5330  174.6270  141.6690 O   0  0  0  0  0  0  0  0  0  0  0  0
  192.0350  176.4620  143.0370 N   0  0  0  0  0  0  0  0  0  0  0  0
  191.1010  175.5430  142.4220 C   0  0  0  0  0  0  0  0  0  0  0  0
  191.5780  177.7470  143.5530 C   0  0  0  0  0  1  0  0  0  0  0  0
  193.3830  175.5670  145.3590 F   0  0  0  0  0  0  0  0  0  0  0  0
  194.2130  176.3960  141.8820 C   0  0  0  0  0  3  0  0  0  0  0  0
  194.0950  175.7780  144.2230 C   0  0  0  0  0  0  0  0  0  0  0  0
  193.4510  176.2020  143.0440 C   0  0  0  0  0  0  0  0  0  0  0  0
  196.0980  175.1360  145.3570 F   0  0  0  0  0  0  0  0  0  0  0  0
  195.4770  175.5490  144.2260 C   0  0  0  0  0  0  0  0  0  0  0  0
  196.2220  175.7440  143.0600 C   0  0  0  0  0  3  0  0  0  0  0  0
  195.5910  176.1670  141.8890 C   0  0  0  0  0  3  0  0  0  0  0  0
  184.8240  178.8560  147.5470 N   0  0  0  0  0  1  0  0  0  0  0  0
  185.8380  179.2380  146.6950 O   0  0  0  0  0  0  0  0  0  0  0  0
  1 13  1  0  0  0  0
  1 14  1  0  0  0  0
  2 12  1  0  0  0  0
  3  6  1  0  0  0  0
  3  1  2  0  0  0  0
  4  9  2  0  0  0  0
  4  5  1  0  0  0  0
  5 16  2  0  0  0  0
  6  2  2  0  0  0  0
  7 17  1  0  0  0  0
  7 11  2  0  0  0  0
  8 10  1  0  0  0  0
  8 13  2  0  0  0  0
 11  8  1  0  0  0  0
 12 14  2  0  0  0  0
 12 31  1  0  0  0  0
 14 15  1  0  0  0  0
 16  6  1  0  0  0  0
 17  9  1  6  0  0  0
 17  3  1  0  0  0  0
 18 20  2  0  0  0  0
 19 25  1  0  0  0  0
 19 21  1  0  0  0  0
 20 11  1  0  0  0  0
 20 19  1  0  0  0  0
 23 29  2  0  0  0  0
 23 25  1  0  0  0  0
 24 27  1  0  0  0  0
 24 22  1  0  0  0  0
 25 24  2  0  0  0  0
 27 26  1  0  0  0  0
 28 27  2  0  0  0  0
 29 28  1  0  0  0  0
 31 30  1  0  0  0  0
M  END
>  <MODEL>
7

>  <REMARK>
 VINA RESULT:      -7.9      2.937      4.490
  Name = 
  3 active torsions:
  status: ('A' for Active; 'I' for Inactive)
    1  A    between atoms: C_9  and  N_11
    2  A    between atoms: O_14  and  C_25
    3  A    between atoms: C_21  and  C_24
                            x       y       z     vdW  Elec       q    Type
                         _______ _______ _______ _____ _____    ______ ____

>  <TORSDO>
F 3

$$$$
=
 OpenBabel11062421243D

 31 34  0  0  1  0  0  0  0  0999 V2000
  192.0750  175.1540  143.8250 C   0  0  0  0  0  0  0  0  0  0  0  0
  193.9470  173.1790  144.4140 C   0  0  0  0  0  3  0  0  0  0  0  0
  191.8310  173.8190  143.3850 C   0  0  0  0  0  0  0  0  0  0  0  0
  190.8660  170.9590  142.3880 C   0  0  0  0  0  3  0  0  0  0  0  0
  192.2690  170.9350  142.1590 N   0  0  0  0  0  0  0  0  0  0  0  0
  192.8900  172.8850  143.5530 C   0  0  0  0  0  0  0  0  0  0  0  0
  189.3990  174.1920  143.0620 N   0  0  0  0  0  0  0  0  0  0  0  0
  190.1960  176.4490  142.7580 C   0  0  0  0  0  0  0  0  0  0  0  0
  190.1530  172.0530  142.6130 C   0  0  0  0  0  3  0  0  0  0  0  0
  189.8240  177.6250  142.1930 F   0  0  0  0  0  0  0  0  0  0  0  0
  189.1630  175.4660  143.0980 C   0  0  0  0  0  0  0  0  0  0  0  0
  194.0380  174.4100  145.0580 C   0  0  0  0  0  0  0  0  0  0  0  0
  191.4530  176.3240  143.1660 C   0  0  0  0  0  3  0  0  0  0  0  0
  193.1330  175.4180  144.7220 C   0  0  0  0  0  0  0  0  0  0  0  0
  193.3360  176.7910  145.2880 C   0  0  0  0  0  1  0  0  0  0  0  0
  193.1490  171.7380  142.6650 C   0  0  0  0  0  3  0  0  0  0  0  0
  190.5820  173.4880  142.5680 C   0  0  2  0  0  3  0  0  0  0  0  0
  186.8500  175.8260  142.7950 O   0  0  0  0  0  0  0  0  0  0  0  0
  187.6630  176.5650  144.8640 N   0  0  0  0  0  0  0  0  0  0  0  0
  187.8400  175.9440  143.5690 C   0  0  0  0  0  0  0  0  0  0  0  0
  188.6390  176.3510  145.9260 C   0  0  0  0  0  1  0  0  0  0  0  0
  186.9980  178.9960  143.5770 F   0  0  0  0  0  0  0  0  0  0  0  0
  185.5910  176.8220  146.1770 C   0  0  0  0  0  3  0  0  0  0  0  0
  186.1780  178.5170  144.5460 C   0  0  0  0  0  0  0  0  0  0  0  0
  186.4680  177.2980  145.1900 C   0  0  0  0  0  0  0  0  0  0  0  0
  184.7390  180.4040  144.2630 F   0  0  0  0  0  0  0  0  0  0  0  0
  185.0240  179.2340  144.8860 C   0  0  0  0  0  0  0  0  0  0  0  0
  184.1590  178.7460  145.8670 C   0  0  0  0  0  3  0  0  0  0  0  0
  184.4420  177.5410  146.5130 C   0  0  0  0  0  3  0  0  0  0  0  0
  196.3460  174.2030  145.7670 N   0  0  0  0  0  1  0  0  0  0  0  0
  195.0620  174.6620  145.9750 O   0  0  0  0  0  0  0  0  0  0  0  0
  1 14  1  0  0  0  0
  2 12  1  0  0  0  0
  3  6  1  0  0  0  0
  3  1  2  0  0  0  0
  4  9  2  0  0  0  0
  5  4  1  0  0  0  0
  5 16  2  0  0  0  0
  6  2  2  0  0  0  0
  7 11  2  0  0  0  0
  8 11  1  0  0  0  0
  8 13  2  0  0  0  0
 10  8  1  0  0  0  0
 11 20  1  0  0  0  0
 12 31  1  0  0  0  0
 13  1  1  0  0  0  0
 14 12  2  0  0  0  0
 14 15  1  0  0  0  0
 16  6  1  0  0  0  0
 17  9  1  1  0  0  0
 17  7  1  0  0  0  0
 17  3  1  0  0  0  0
 18 20  2  0  0  0  0
 19 25  1  0  0  0  0
 19 21  1  0  0  0  0
 20 19  1  0  0  0  0
 22 24  1  0  0  0  0
 23 29  1  0  0  0  0
 24 27  2  0  0  0  0
 24 25  1  0  0  0  0
 25 23  2  0  0  0  0
 26 27  1  0  0  0  0
 27 28  1  0  0  0  0
 28 29  2  0  0  0  0
 30 31  1  0  0  0  0
M  END
>  <MODEL>
8

>  <REMARK>
 VINA RESULT:      -7.9      3.066      8.594
  Name = 
  3 active torsions:
  status: ('A' for Active; 'I' for Inactive)
    1  A    between atoms: C_9  and  N_11
    2  A    between atoms: O_14  and  C_25
    3  A    between atoms: C_21  and  C_24
                            x       y       z     vdW  Elec       q    Type
                         _______ _______ _______ _____ _____    ______ ____

>  <TORSDO>
F 3

$$$$
=
 OpenBabel11062421243D

 31 34  0  0  1  0  0  0  0  0999 V2000
  193.0040  175.3160  144.3620 C   0  0  0  0  0  0  0  0  0  0  0  0
  194.5150  173.0970  145.1020 C   0  0  0  0  0  3  0  0  0  0  0  0
  192.4530  174.0120  144.1770 C   0  0  0  0  0  0  0  0  0  0  0  0
  190.8360  171.3070  143.7680 C   0  0  0  0  0  3  0  0  0  0  0  0
  192.1680  170.9540  143.4190 N   0  0  0  0  0  0  0  0  0  0  0  0
  193.3240  172.9110  144.4030 C   0  0  0  0  0  0  0  0  0  0  0  0
  190.1190  174.8400  144.0200 N   0  0  0  0  0  0  0  0  0  0  0  0
  191.2950  176.8090  143.2700 C   0  0  0  0  0  0  0  0  0  0  0  0
  190.3820  172.5480  143.8690 C   0  0  0  0  0  3  0  0  0  0  0  0
  191.0910  177.9410  142.5510 F   0  0  0  0  0  0  0  0  0  0  0  0
  190.1410  176.1270  143.8630 C   0  0  0  0  0  0  0  0  0  0  0  0
  194.9220  174.3610  145.5180 C   0  0  0  0  0  0  0  0  0  0  0  0
  192.5440  176.4820  143.5760 C   0  0  0  0  0  3  0  0  0  0  0  0
  194.1960  175.4780  145.1020 C   0  0  0  0  0  0  0  0  0  0  0  0
  194.7300  176.8440  145.4090 C   0  0  0  0  0  1  0  0  0  0  0  0
  193.2420  171.6180  143.7000 C   0  0  0  0  0  3  0  0  0  0  0  0
  191.0720  173.8380  143.5450 C   0  0  2  0  0  3  0  0  0  0  0  0
  189.2330  177.8030  145.2540 O   0  0  0  0  0  0  0  0  0  0  0  0
  187.6510  176.7400  143.8910 N   0  0  0  0  0  0  0  0  0  0  0  0
  189.0040  176.9370  144.3650 C   0  0  0  0  0  0  0  0  0  0  0  0
  187.4030  176.0810  142.6150 C   0  0  0  0  0  1  0  0  0  0  0  0
  186.4200  179.1520  143.0670 F   0  0  0  0  0  0  0  0  0  0  0  0
  185.9970  176.6510  145.7190 C   0  0  0  0  0  3  0  0  0  0  0  0
  185.9460  178.5110  144.1650 C   0  0  0  0  0  0  0  0  0  0  0  0
  186.5220  177.2970  144.5880 C   0  0  0  0  0  0  0  0  0  0  0  0
  184.3020  180.2210  144.4550 F   0  0  0  0  0  0  0  0  0  0  0  0
  184.8610  179.0560  144.8640 C   0  0  0  0  0  0  0  0  0  0  0  0
  184.3480  178.3990  145.9850 C   0  0  0  0  0  3  0  0  0  0  0  0
  184.9160  177.1970  146.4130 C   0  0  0  0  0  3  0  0  0  0  0  0
  197.0080  173.5090  146.4100 N   0  0  0  0  0  1  0  0  0  0  0  0
  196.0820  174.5220  146.2830 O   0  0  0  0  0  0  0  0  0  0  0  0
  1 14  1  0  0  0  0
  2 12  1  0  0  0  0
  3  1  2  0  0  0  0
  3  6  1  0  0  0  0
  4  9  2  0  0  0  0
  5 16  2  0  0  0  0
  5  4  1  0  0  0  0
  6  2  2  0  0  0  0
  8 13  2  0  0  0  0
  8 11  1  0  0  0  0
 10  8  1  0  0  0  0
 11  7  2  0  0  0  0
 11 20  1  0  0  0  0
 12 31  1  0  0  0  0
 13  1  1  0  0  0  0
 14 15  1  0  0  0  0
 14 12  2  0  0  0  0
 16  6  1  0  0  0  0
 17  9  1  1  0  0  0
 17  7  1  0  0  0  0
 17  3  1  0  0  0  0
 19 20  1  0  0  0  0
 19 25  1  0  0  0  0
 20 18  2  0  0  0  0
 21 19  1  0  0  0  0
 22 24  1  0  0  0  0
 23 29  1  0  0  0  0
 24 25  1  0  0  0  0
 24 27  2  0  0  0  0
 25 23  2  0  0  0  0
 26 27  1  0  0  0  0
 27 28  1  0  0  0  0
 28 29  2  0  0  0  0
 31 30  1  0  0  0  0
M  END
>  <MODEL>
9

>  <REMARK>
 VINA RESULT:      -7.8      3.096      8.748
  Name = 
  3 active torsions:
  status: ('A' for Active; 'I' for Inactive)
    1  A    between atoms: C_9  and  N_11
    2  A    between atoms: O_14  and  C_25
    3  A    between atoms: C_21  and  C_24
                            x       y       z     vdW  Elec       q    Type
                         _______ _______ _______ _____ _____    ______ ____

>  <TORSDO>
F 3

$$$$
