=
 OpenBabel11062419133D

 54 59  0  0  1  0  0  0  0  0999 V2000
  186.6740  177.6090  143.1200 C   0  0  2  0  0  3  0  0  0  0  0  0
  192.1350  172.4200  139.5280 C   0  0  2  0  0  3  0  0  0  0  0  0
  187.7450  176.5170  143.2970 C   0  0  1  0  0  3  0  0  0  0  0  0
  188.0650  176.6530  146.5500 N   0  0  0  0  0  0  0  0  0  0  0  0
  188.5110  174.7540  139.9890 C   0  0  0  0  0  2  0  0  0  0  0  0
  189.5190  174.9370  145.7250 C   0  0  0  0  0  2  0  0  0  0  0  0
  188.7090  176.1790  145.5320 C   0  0  0  0  0  0  0  0  0  0  0  0
  184.9860  178.5330  146.3060 C   0  0  0  0  0  2  0  0  0  0  0  0
  189.6800  176.8760  141.8460 O   0  0  0  0  0  1  0  0  0  0  0  0
  188.4170  176.2770  141.9430 C   0  0  1  0  0  3  0  0  0  0  0  0
  189.5080  173.6610  139.6970 C   0  0  2  0  0  3  0  0  0  0  0  0
  190.4700  173.7210  140.8460 C   0  0  2  0  0  3  0  0  0  0  0  0
  186.7760  178.2170  147.8910 C   0  0  0  0  0  2  0  0  0  0  0  0
  191.2500  172.6220  138.2750 C   0  0  0  0  0  2  0  0  0  0  0  0
  190.2390  174.4300  143.3410 C   0  0  2  0  0  3  0  0  0  0  0  0
  188.7070  176.8450  144.3010 O   0  0  0  0  0  0  0  0  0  0  0  0
  189.3910  173.9780  144.5450 C   0  0  1  0  0  3  0  0  0  0  0  0
  186.4620  178.5480  144.3080 C   0  0  0  0  0  2  0  0  0  0  0  0
  187.3240  177.9040  146.5190 C   0  0  2  0  0  3  0  0  0  0  0  0
  185.5330  179.0260  147.6320 C   0  0  0  0  0  2  0  0  0  0  0  0
  186.1200  177.8170  145.5970 C   0  0  1  0  0  3  0  0  0  0  0  0
  188.4190  174.8040  141.5140 C   0  0  2  0  0  3  0  0  0  0  0  0
  191.3050  172.4480  140.8240 C   0  0  0  0  0  2  0  0  0  0  0  0
  189.5740  173.9170  142.0470 C   0  0  1  0  0  3  0  0  0  0  0  0
  190.2900  173.8180  138.4040 C   0  0  0  0  0  2  0  0  0  0  0  0
  193.0590  175.6130  143.8200 C   0  0  0  0  0  0  0  0  0  0  0  0
  192.3160  174.7170  144.7620 C   0  0  0  0  0  2  0  0  0  0  0  0
  191.7500  174.1370  143.4820 C   0  0  2  0  0  3  0  0  0  0  0  0
  192.6960  176.9550  143.9470 O   0  0  0  0  0  1  0  0  0  0  0  0
  192.4950  175.0290  142.6810 O   0  0  0  0  0  0  0  0  0  0  0  0
  194.4430  175.4300  143.8690 O   0  0  0  0  0  1  0  0  0  0  0  0
  188.9240  171.6540  144.1250 F   0  0  0  0  0  0  0  0  0  0  0  0
  190.9390  172.2160  144.9380 F   0  0  0  0  0  0  0  0  0  0  0  0
  189.5950  172.5150  144.9730 C   0  0  0  0  0  0  0  0  0  0  0  0
  189.1410  172.3250  146.2680 F   0  0  0  0  0  0  0  0  0  0  0  0
  185.3450  177.0090  142.6650 C   0  0  0  0  0  2  0  0  0  0  0  0
  185.1950  178.3460  140.6980 O   0  0  0  0  0  1  0  0  0  0  0  0
  184.5290  178.0270  141.8820 C   0  0  0  0  0  2  0  0  0  0  0  0
  193.2570  173.4590  139.6040 C   0  0  0  0  0  2  0  0  0  0  0  0
  194.6660  172.8700  139.5100 C   0  0  1  0  0  0  0  0  0  0  0  0
  195.4120  173.6050  138.3870 C   0  0  0  0  0  1  0  0  0  0  0  0
  195.2490  172.3110  141.8280 N   0  0  0  0  0  0  0  0  0  0  0  0
  195.3050  173.1530  140.8430 C   0  0  0  0  0  3  0  0  0  0  0  0
  195.3150  172.0840  144.2270 N   0  0  0  0  0  0  0  0  0  0  0  0
  195.8350  172.5410  143.1210 C   0  0  0  0  0  0  0  0  0  0  0  0
  197.7490  173.5580  144.4240 C   0  0  0  0  0  1  0  0  0  0  0  0
  197.0680  173.2580  143.1760 N   0  0  0  0  0  2  0  0  0  0  0  0
  194.1180  171.2580  144.3300 C   0  0  0  0  0  2  0  0  0  0  0  0
  195.4580  170.0060  145.8950 N   0  0  0  0  0  0  0  0  0  0  0  0
  194.3860  170.0710  145.1910 C   0  0  0  0  0  3  0  0  0  0  0  0
  194.5850  168.6280  147.6910 C   0  0  0  0  0  1  0  0  0  0  0  0
  195.7200  168.8530  146.7100 C   0  0  0  0  0  2  0  0  0  0  0  0
  194.5580  171.4710  139.2730 O   0  0  0  0  0  0  0  0  0  0  0  0
  195.2940  171.1010  138.1350 C   0  0  0  0  0  1  0  0  0  0  0  0
  1 36  1  1  0  0  0
  1  3  1  0  0  0  0
  1 18  1  0  0  0  0
  2 39  1  1  0  0  0
  2 23  1  0  0  0  0
  3 16  1  1  0  0  0
  7  6  1  0  0  0  0
  7  4  2  0  0  0  0
  8 20  1  0  0  0  0
 10  9  1  1  0  0  0
 10  3  1  0  0  0  0
 11 25  1  6  0  0  0
 11  5  1  0  0  0  0
 11 12  1  0  0  0  0
 12 23  1  1  0  0  0
 12 24  1  0  0  0  0
 14 25  1  0  0  0  0
 14  2  1  0  0  0  0
 15 28  1  1  0  0  0
 15 17  1  0  0  0  0
 16  7  1  0  0  0  0
 17 34  1  1  0  0  0
 17  6  1  0  0  0  0
 19  4  1  0  0  0  0
 19 13  1  1  0  0  0
 20 13  1  0  0  0  0
 21 18  1  6  0  0  0
 21  8  1  0  0  0  0
 21 19  1  0  0  0  0
 22  5  1  6  0  0  0
 22 10  1  0  0  0  0
 22 24  1  0  0  0  0
 24 15  1  0  0  0  0
 26 31  1  0  0  0  0
 26 29  1  0  0  0  0
 26 27  1  0  0  0  0
 28 27  1  0  0  0  0
 30 28  1  0  0  0  0
 30 26  1  0  0  0  0
 32 34  1  0  0  0  0
 33 34  1  0  0  0  0
 34 35  1  0  0  0  0
 37 38  1  0  0  0  0
 38 36  1  0  0  0  0
 40 39  1  0  0  0  0
 40 43  1  0  0  0  0
 41 40  1  0  0  0  0
 42 45  1  0  0  0  0
 43 42  2  0  0  0  0
 44 48  1  0  0  0  0
 45 47  1  0  0  0  0
 45 44  2  0  0  0  0
 47 46  1  0  0  0  0
 48 50  1  0  0  0  0
 49 52  1  0  0  0  0
 50 49  2  0  0  0  0
 52 51  1  0  0  0  0
 53 40  1  0  0  0  0
 54 53  1  0  0  0  0
M  END
>  <MODEL>
1

>  <REMARK>
 VINA RESULT:      -7.5      0.000      0.000
  Name = 
  12 active torsions:
  status: ('A' for Active; 'I' for Inactive)
    1  A    between atoms: C_1  and  C_3
    2  A    between atoms: C_2  and  C_18
    3  A    between atoms: C_3  and  C_35
    4  A    between atoms: C_4  and  O_17
    5  A    between atoms: C_4  and  C_18
    6  A    between atoms: C_4  and  C_36
    7  A    between atoms: N_7  and  C_24
    8  A    between atoms: N_11  and  C_25
    9  A    between atoms: N_19  and  C_53
   10  A    between atoms: C_24  and  C_48
   11  A    between atoms: C_28  and  C_31
   12  A    between atoms: C_34  and  C_50
                            x       y       z     vdW  Elec       q    Type
                         _______ _______ _______ _____ _____    ______ ____

>  <TORSDO>
F 12

$$$$
=
 OpenBabel11062419133D

 54 59  0  0  1  0  0  0  0  0999 V2000
  195.5810  175.5450  142.6780 C   0  0  2  0  0  3  0  0  0  0  0  0
  187.9740  176.2620  146.0390 C   0  0  2  0  0  3  0  0  0  0  0  0
  194.1850  174.9300  142.8880 C   0  0  1  0  0  3  0  0  0  0  0  0
  194.4270  172.4190  140.8040 N   0  0  0  0  0  0  0  0  0  0  0  0
  192.2720  176.7100  145.6830 C   0  0  0  0  0  2  0  0  0  0  0  0
  192.2780  172.3130  141.8590 C   0  0  0  0  0  2  0  0  0  0  0  0
  193.5020  173.0640  141.4420 C   0  0  0  0  0  0  0  0  0  0  0  0
  197.9410  173.2550  140.9350 C   0  0  0  0  0  2  0  0  0  0  0  0
  192.3990  176.5810  142.6360 O   0  0  0  0  0  1  0  0  0  0  0  0
  193.2860  175.9840  143.5400 C   0  0  1  0  0  3  0  0  0  0  0  0
  190.8740  176.4640  146.1920 C   0  0  2  0  0  3  0  0  0  0  0  0
  190.2060  175.7030  145.0850 C   0  0  2  0  0  3  0  0  0  0  0  0
  196.4370  172.0440  139.4920 C   0  0  0  0  0  2  0  0  0  0  0  0
  188.6700  177.2670  146.9870 C   0  0  0  0  0  2  0  0  0  0  0  0
  191.0740  174.0550  143.2650 C   0  0  2  0  0  3  0  0  0  0  0  0
  193.6100  174.4400  141.6750 O   0  0  0  0  0  0  0  0  0  0  0  0
  191.8140  172.7040  143.2600 C   0  0  1  0  0  3  0  0  0  0  0  0
  196.3410  175.0890  141.4330 C   0  0  0  0  0  2  0  0  0  0  0  0
  195.6160  173.0530  140.2590 C   0  0  2  0  0  3  0  0  0  0  0  0
  197.8550  172.5400  139.6010 C   0  0  0  0  0  2  0  0  0  0  0  0
  196.5210  173.5810  141.3590 C   0  0  1  0  0  3  0  0  0  0  0  0
  192.5950  175.4910  144.8190 C   0  0  2  0  0  3  0  0  0  0  0  0
  188.9150  175.1120  145.6350 C   0  0  0  0  0  2  0  0  0  0  0  0
  191.2640  174.7160  144.6460 C   0  0  1  0  0  3  0  0  0  0  0  0
  190.0550  177.7100  146.4840 C   0  0  0  0  0  2  0  0  0  0  0  0
  189.2220  174.0510  140.7850 C   0  0  0  0  0  0  0  0  0  0  0  0
  189.4470  172.8950  141.7100 C   0  0  0  0  0  2  0  0  0  0  0  0
  189.6210  173.9860  142.7460 C   0  0  2  0  0  3  0  0  0  0  0  0
  190.2040  174.1570  139.7990 O   0  0  0  0  0  1  0  0  0  0  0  0
  189.3950  175.0050  141.7940 O   0  0  0  0  0  0  0  0  0  0  0  0
  187.9310  174.0830  140.2540 O   0  0  0  0  0  1  0  0  0  0  0  0
  190.4070  170.7640  143.0350 F   0  0  0  0  0  0  0  0  0  0  0  0
  191.9830  170.7700  144.6340 F   0  0  0  0  0  0  0  0  0  0  0  0
  191.0720  171.5520  143.9570 C   0  0  0  0  0  0  0  0  0  0  0  0
  190.1600  172.0500  144.8730 F   0  0  0  0  0  0  0  0  0  0  0  0
  196.4460  175.3840  143.9260 C   0  0  0  0  0  2  0  0  0  0  0  0
  196.0920  174.5200  146.1200 O   0  0  0  0  0  1  0  0  0  0  0  0
  195.9730  174.2060  144.7650 C   0  0  0  0  0  2  0  0  0  0  0  0
  187.4260  176.9510  144.7860 C   0  0  0  0  0  2  0  0  0  0  0  0
  185.9910  177.4630  144.9290 C   0  0  1  0  0  0  0  0  0  0  0  0
  186.0540  178.9590  145.2690 C   0  0  0  0  0  1  0  0  0  0  0  0
  185.1180  178.2370  142.7690 N   0  0  0  0  0  0  0  0  0  0  0  0
  185.3570  177.2530  143.5800 C   0  0  0  0  0  3  0  0  0  0  0  0
  185.1940  177.9560  140.3770 N   0  0  0  0  0  0  0  0  0  0  0  0
  184.5050  178.0870  141.4760 C   0  0  0  0  0  0  0  0  0  0  0  0
  182.3490  177.8890  140.1700 C   0  0  0  0  0  1  0  0  0  0  0  0
  183.0800  178.0300  141.4180 N   0  0  0  0  0  2  0  0  0  0  0  0
  186.6470  177.8990  140.2800 C   0  0  0  0  0  2  0  0  0  0  0  0
  186.2270  176.6680  138.2500 N   0  0  0  0  0  0  0  0  0  0  0  0
  187.0520  176.9720  139.1850 C   0  0  0  0  0  3  0  0  0  0  0  0
  186.1730  176.2860  135.8540 C   0  0  0  0  0  1  0  0  0  0  0  0
  186.6170  175.7610  137.2070 C   0  0  0  0  0  2  0  0  0  0  0  0
  185.3350  176.6990  145.9360 O   0  0  0  0  0  0  0  0  0  0  0  0
  184.7390  177.5410  146.8890 C   0  0  0  0  0  1  0  0  0  0  0  0
  1  3  1  0  0  0  0
  1 36  1  1  0  0  0
  2 39  1  6  0  0  0
  2 14  1  0  0  0  0
  3 16  1  6  0  0  0
  3 10  1  0  0  0  0
  4  7  2  0  0  0  0
  6 17  1  0  0  0  0
  7 16  1  0  0  0  0
  7  6  1  0  0  0  0
 10  9  1  6  0  0  0
 10 22  1  0  0  0  0
 11  5  1  6  0  0  0
 11 25  1  0  0  0  0
 12 23  1  1  0  0  0
 12 11  1  0  0  0  0
 13 20  1  0  0  0  0
 15 28  1  1  0  0  0
 15 24  1  0  0  0  0
 17 15  1  0  0  0  0
 17 34  1  6  0  0  0
 18  1  1  0  0  0  0
 19 13  1  1  0  0  0
 19  4  1  0  0  0  0
 19 21  1  0  0  0  0
 20  8  1  0  0  0  0
 21  8  1  6  0  0  0
 21 18  1  0  0  0  0
 22  5  1  1  0  0  0
 23  2  1  0  0  0  0
 24 22  1  0  0  0  0
 24 12  1  0  0  0  0
 25 14  1  0  0  0  0
 26 27  1  0  0  0  0
 26 30  1  0  0  0  0
 27 28  1  0  0  0  0
 29 26  1  0  0  0  0
 30 28  1  0  0  0  0
 31 26  1  0  0  0  0
 32 34  1  0  0  0  0
 34 33  1  0  0  0  0
 34 35  1  0  0  0  0
 36 38  1  0  0  0  0
 38 37  1  0  0  0  0
 39 40  1  0  0  0  0
 40 41  1  0  0  0  0
 40 53  1  0  0  0  0
 42 43  2  0  0  0  0
 43 40  1  0  0  0  0
 44 45  2  0  0  0  0
 45 42  1  0  0  0  0
 46 47  1  0  0  0  0
 47 45  1  0  0  0  0
 48 44  1  0  0  0  0
 49 50  2  0  0  0  0
 50 48  1  0  0  0  0
 51 52  1  0  0  0  0
 52 49  1  0  0  0  0
 53 54  1  0  0  0  0
M  END
>  <MODEL>
2

>  <REMARK>
 VINA RESULT:      -7.1      2.770      9.887
  Name = 
  12 active torsions:
  status: ('A' for Active; 'I' for Inactive)
    1  A    between atoms: C_1  and  C_3
    2  A    between atoms: C_2  and  C_18
    3  A    between atoms: C_3  and  C_35
    4  A    between atoms: C_4  and  O_17
    5  A    between atoms: C_4  and  C_18
    6  A    between atoms: C_4  and  C_36
    7  A    between atoms: N_7  and  C_24
    8  A    between atoms: N_11  and  C_25
    9  A    between atoms: N_19  and  C_53
   10  A    between atoms: C_24  and  C_48
   11  A    between atoms: C_28  and  C_31
   12  A    between atoms: C_34  and  C_50
                            x       y       z     vdW  Elec       q    Type
                         _______ _______ _______ _____ _____    ______ ____

>  <TORSDO>
F 12

$$$$
=
 OpenBabel11062419133D

 54 59  0  0  1  0  0  0  0  0999 V2000
  186.7470  177.5590  143.2020 C   0  0  2  0  0  3  0  0  0  0  0  0
  192.0050  172.3270  139.3750 C   0  0  2  0  0  3  0  0  0  0  0  0
  187.8020  176.4440  143.3320 C   0  0  1  0  0  3  0  0  0  0  0  0
  188.2170  176.5230  146.5760 N   0  0  0  0  0  0  0  0  0  0  0  0
  188.4400  174.7200  139.9760 C   0  0  0  0  0  2  0  0  0  0  0  0
  189.6140  174.7930  145.6830 C   0  0  0  0  0  2  0  0  0  0  0  0
  188.8230  176.0530  145.5320 C   0  0  0  0  0  0  0  0  0  0  0  0
  185.1690  178.4630  146.4500 C   0  0  0  0  0  2  0  0  0  0  0  0
  189.7010  176.7900  141.8310 O   0  0  0  0  0  1  0  0  0  0  0  0
  188.4310  176.2130  141.9550 C   0  0  1  0  0  3  0  0  0  0  0  0
  189.4070  173.6140  139.6380 C   0  0  2  0  0  3  0  0  0  0  0  0
  190.4020  173.6380  140.7600 C   0  0  2  0  0  3  0  0  0  0  0  0
  186.9970  178.0880  147.9770 C   0  0  0  0  0  2  0  0  0  0  0  0
  191.0890  172.5660  138.1510 C   0  0  0  0  0  2  0  0  0  0  0  0
  190.2570  174.3110  143.2710 C   0  0  2  0  0  3  0  0  0  0  0  0
  188.7990  176.7390  144.3120 O   0  0  0  0  0  0  0  0  0  0  0  0
  189.4350  173.8550  144.4920 C   0  0  1  0  0  3  0  0  0  0  0  0
  186.5870  178.4820  144.4100 C   0  0  0  0  0  2  0  0  0  0  0  0
  187.4990  177.7870  146.5860 C   0  0  2  0  0  3  0  0  0  0  0  0
  185.7620  178.9240  147.7670 C   0  0  0  0  0  2  0  0  0  0  0  0
  186.2690  177.7370  145.6970 C   0  0  1  0  0  3  0  0  0  0  0  0
  188.3930  174.7480  141.5030 C   0  0  2  0  0  3  0  0  0  0  0  0
  191.2130  172.3500  140.6950 C   0  0  0  0  0  2  0  0  0  0  0  0
  189.5450  173.8310  141.9890 C   0  0  1  0  0  3  0  0  0  0  0  0
  190.1550  173.7770  138.3260 C   0  0  0  0  0  2  0  0  0  0  0  0
  193.1160  175.4410  143.6330 C   0  0  0  0  0  0  0  0  0  0  0  0
  192.3880  174.5750  144.6140 C   0  0  0  0  0  2  0  0  0  0  0  0
  191.7650  173.9880  143.3640 C   0  0  2  0  0  3  0  0  0  0  0  0
  192.7850  176.7920  143.7500 O   0  0  0  0  0  1  0  0  0  0  0  0
  192.5000  174.8510  142.5230 O   0  0  0  0  0  0  0  0  0  0  0  0
  194.4960  175.2290  143.6360 O   0  0  0  0  0  1  0  0  0  0  0  0
  189.1330  172.1500  146.1630 F   0  0  0  0  0  0  0  0  0  0  0  0
  188.9420  171.5810  144.0000 F   0  0  0  0  0  0  0  0  0  0  0  0
  189.6230  172.3830  144.8910 C   0  0  0  0  0  0  0  0  0  0  0  0
  190.9640  172.0390  144.8480 F   0  0  0  0  0  0  0  0  0  0  0  0
  185.3950  176.9900  142.7770 C   0  0  0  0  0  2  0  0  0  0  0  0
  185.6850  178.3780  140.8600 O   0  0  0  0  0  1  0  0  0  0  0  0
  184.7260  177.8920  141.7500 C   0  0  0  0  0  2  0  0  0  0  0  0
  193.1470  173.3450  139.4340 C   0  0  0  0  0  2  0  0  0  0  0  0
  194.5420  172.7310  139.2970 C   0  0  1  0  0  0  0  0  0  0  0  0
  195.5650  173.7670  139.7850 C   0  0  0  0  0  1  0  0  0  0  0  0
  194.9710  171.5780  141.4210 N   0  0  0  0  0  0  0  0  0  0  0  0
  194.5370  171.5260  140.2000 C   0  0  0  0  0  3  0  0  0  0  0  0
  196.0440  170.1330  143.0250 N   0  0  0  0  0  0  0  0  0  0  0  0
  194.9960  170.4520  142.3170 C   0  0  0  0  0  0  0  0  0  0  0  0
  193.7030  168.5310  143.3340 C   0  0  0  0  0  1  0  0  0  0  0  0
  193.7960  169.6930  142.4650 N   0  0  0  0  0  2  0  0  0  0  0  0
  197.3060  170.8610  143.0590 C   0  0  0  0  0  2  0  0  0  0  0  0
  197.5120  173.1150  143.8880 N   0  0  0  0  0  0  0  0  0  0  0  0
  197.2840  171.8780  144.1480 C   0  0  0  0  0  3  0  0  0  0  0  0
  197.0110  173.4670  146.2360 C   0  0  0  0  0  1  0  0  0  0  0  0
  197.5060  174.0890  144.9430 C   0  0  0  0  0  2  0  0  0  0  0  0
  194.7430  172.3590  137.9370 O   0  0  0  0  0  0  0  0  0  0  0  0
  195.1090  171.0060  137.8410 C   0  0  0  0  0  1  0  0  0  0  0  0
  1 36  1  1  0  0  0
  1  3  1  0  0  0  0
  1 18  1  0  0  0  0
  2 39  1  1  0  0  0
  2 23  1  0  0  0  0
  3 16  1  1  0  0  0
  4 19  1  0  0  0  0
  7  6  1  0  0  0  0
  7  4  2  0  0  0  0
  8 20  1  0  0  0  0
 10  9  1  1  0  0  0
 10  3  1  0  0  0  0
 11 25  1  6  0  0  0
 11  5  1  0  0  0  0
 11 12  1  0  0  0  0
 12 23  1  1  0  0  0
 12 24  1  0  0  0  0
 14 25  1  0  0  0  0
 14  2  1  0  0  0  0
 15 28  1  1  0  0  0
 15 17  1  0  0  0  0
 16  7  1  0  0  0  0
 17 34  1  1  0  0  0
 17  6  1  0  0  0  0
 19 13  1  1  0  0  0
 20 13  1  0  0  0  0
 21 18  1  6  0  0  0
 21  8  1  0  0  0  0
 21 19  1  0  0  0  0
 22  5  1  6  0  0  0
 22 10  1  0  0  0  0
 22 24  1  0  0  0  0
 24 15  1  0  0  0  0
 26 31  1  0  0  0  0
 26 29  1  0  0  0  0
 26 27  1  0  0  0  0
 28 27  1  0  0  0  0
 30 28  1  0  0  0  0
 30 26  1  0  0  0  0
 33 34  1  0  0  0  0
 34 32  1  0  0  0  0
 35 34  1  0  0  0  0
 37 38  1  0  0  0  0
 38 36  1  0  0  0  0
 40 39  1  0  0  0  0
 40 41  1  0  0  0  0
 40 43  1  0  0  0  0
 42 45  1  0  0  0  0
 43 42  2  0  0  0  0
 44 48  1  0  0  0  0
 45 47  1  0  0  0  0
 45 44  2  0  0  0  0
 47 46  1  0  0  0  0
 48 50  1  0  0  0  0
 49 50  2  0  0  0  0
 49 52  1  0  0  0  0
 52 51  1  0  0  0  0
 53 40  1  0  0  0  0
 54 53  1  0  0  0  0
M  END
>  <MODEL>
3

>  <REMARK>
 VINA RESULT:      -7.1      1.180      1.981
  Name = 
  12 active torsions:
  status: ('A' for Active; 'I' for Inactive)
    1  A    between atoms: C_1  and  C_3
    2  A    between atoms: C_2  and  C_18
    3  A    between atoms: C_3  and  C_35
    4  A    between atoms: C_4  and  O_17
    5  A    between atoms: C_4  and  C_18
    6  A    between atoms: C_4  and  C_36
    7  A    between atoms: N_7  and  C_24
    8  A    between atoms: N_11  and  C_25
    9  A    between atoms: N_19  and  C_53
   10  A    between atoms: C_24  and  C_48
   11  A    between atoms: C_28  and  C_31
   12  A    between atoms: C_34  and  C_50
                            x       y       z     vdW  Elec       q    Type
                         _______ _______ _______ _____ _____    ______ ____

>  <TORSDO>
F 12

$$$$
=
 OpenBabel11062419133D

 54 59  0  0  1  0  0  0  0  0999 V2000
  192.8130  170.1840  143.9930 C   0  0  2  0  0  3  0  0  0  0  0  0
  187.6350  176.6420  142.9260 C   0  0  2  0  0  3  0  0  0  0  0  0
  192.6110  171.7110  144.0150 C   0  0  1  0  0  3  0  0  0  0  0  0
  195.4660  172.5740  145.3590 N   0  0  0  0  0  0  0  0  0  0  0  0
  189.3610  172.7210  142.2660 C   0  0  0  0  0  2  0  0  0  0  0  0
  194.2250  174.5690  144.8890 C   0  0  0  0  0  2  0  0  0  0  0  0
  194.3020  173.0960  145.1370 C   0  0  0  0  0  0  0  0  0  0  0  0
  196.3550  169.1710  144.5250 C   0  0  0  0  0  2  0  0  0  0  0  0
  190.5010  172.3490  145.0730 O   0  0  0  0  0  1  0  0  0  0  0  0
  191.1150  172.0020  143.8640 C   0  0  1  0  0  3  0  0  0  0  0  0
  188.7570  174.0910  142.0880 C   0  0  2  0  0  3  0  0  0  0  0  0
  189.4320  174.9310  143.1310 C   0  0  2  0  0  3  0  0  0  0  0  0
  197.1240  170.9180  145.9980 C   0  0  0  0  0  2  0  0  0  0  0  0
  186.8200  175.6360  142.0790 C   0  0  0  0  0  2  0  0  0  0  0  0
  191.7790  174.8460  144.2580 C   0  0  2  0  0  3  0  0  0  0  0  0
  193.1390  172.3210  145.1950 O   0  0  0  0  0  0  0  0  0  0  0  0
  193.2400  174.9150  143.7750 C   0  0  1  0  0  3  0  0  0  0  0  0
  193.9400  169.6390  144.8710 C   0  0  0  0  0  2  0  0  0  0  0  0
  195.6650  171.1780  145.7090 C   0  0  2  0  0  3  0  0  0  0  0  0
  197.3330  169.4680  145.6450 C   0  0  0  0  0  2  0  0  0  0  0  0
  195.2940  170.2550  144.5610 C   0  0  1  0  0  3  0  0  0  0  0  0
  190.7950  172.9810  142.7270 C   0  0  2  0  0  3  0  0  0  0  0  0
  189.1490  176.3930  142.8110 C   0  0  0  0  0  2  0  0  0  0  0  0
  190.8770  174.4930  143.0570 C   0  0  1  0  0  3  0  0  0  0  0  0
  187.2550  174.1750  142.2980 C   0  0  0  0  0  2  0  0  0  0  0  0
  191.2900  175.9690  147.1010 C   0  0  0  0  0  0  0  0  0  0  0  0
  192.3580  176.4220  146.1540 C   0  0  0  0  0  2  0  0  0  0  0  0
  191.3300  176.0600  145.1020 C   0  0  2  0  0  3  0  0  0  0  0  0
  191.6550  174.8360  147.8310 O   0  0  0  0  0  1  0  0  0  0  0  0
  190.3910  175.6570  146.0750 O   0  0  0  0  0  0  0  0  0  0  0  0
  190.8130  176.9960  147.9180 O   0  0  0  0  0  1  0  0  0  0  0  0
  192.5770  177.1130  143.0560 F   0  0  0  0  0  0  0  0  0  0  0  0
  194.7030  176.7870  143.6970 F   0  0  0  0  0  0  0  0  0  0  0  0
  193.6270  176.2150  143.0530 C   0  0  0  0  0  0  0  0  0  0  0  0
  193.9970  175.9480  141.7450 F   0  0  0  0  0  0  0  0  0  0  0  0
  192.9470  169.6670  142.5630 C   0  0  0  0  0  2  0  0  0  0  0  0
  190.7730  169.3000  141.6560 O   0  0  0  0  0  1  0  0  0  0  0  0
  191.8580  168.6520  142.2490 C   0  0  0  0  0  2  0  0  0  0  0  0
  187.2110  176.6170  144.3970 C   0  0  0  0  0  2  0  0  0  0  0  0
  185.9820  177.4720  144.7110 C   0  0  1  0  0  0  0  0  0  0  0  0
  186.4490  178.9240  144.8930 C   0  0  0  0  0  1  0  0  0  0  0  0
  184.6740  178.3870  142.8460 N   0  0  0  0  0  0  0  0  0  0  0  0
  185.0920  177.3500  143.5020 C   0  0  0  0  0  3  0  0  0  0  0  0
  184.2710  178.2110  140.4760 N   0  0  0  0  0  0  0  0  0  0  0  0
  183.8160  178.3210  141.6930 C   0  0  0  0  0  0  0  0  0  0  0  0
  181.4400  178.2690  140.8270 C   0  0  0  0  0  1  0  0  0  0  0  0
  182.4050  178.3240  141.9130 N   0  0  0  0  0  2  0  0  0  0  0  0
  185.6730  178.1000  140.0950 C   0  0  0  0  0  2  0  0  0  0  0  0
  186.9210  176.5710  138.7110 N   0  0  0  0  0  0  0  0  0  0  0  0
  185.8160  177.1890  138.9240 C   0  0  0  0  0  3  0  0  0  0  0  0
  187.9760  174.5420  137.8980 C   0  0  0  0  0  1  0  0  0  0  0  0
  187.0600  175.7070  137.5720 C   0  0  0  0  0  2  0  0  0  0  0  0
  185.3500  176.9490  145.8750 O   0  0  0  0  0  0  0  0  0  0  0  0
  184.4920  177.9030  146.4450 C   0  0  0  0  0  1  0  0  0  0  0  0
  1 36  1  6  0  0  0
  1  3  1  0  0  0  0
  1 18  1  0  0  0  0
  2 39  1  1  0  0  0
  3 16  1  1  0  0  0
  4 19  1  0  0  0  0
  6  7  1  0  0  0  0
  7 16  1  0  0  0  0
  7  4  2  0  0  0  0
  8 20  1  0  0  0  0
 10  3  1  0  0  0  0
 10  9  1  1  0  0  0
 11  5  1  1  0  0  0
 11 25  1  0  0  0  0
 11 12  1  0  0  0  0
 12 23  1  6  0  0  0
 14 25  1  0  0  0  0
 14  2  1  0  0  0  0
 15 28  1  6  0  0  0
 17 34  1  1  0  0  0
 17 15  1  0  0  0  0
 17  6  1  0  0  0  0
 19 13  1  6  0  0  0
 20 13  1  0  0  0  0
 21  8  1  1  0  0  0
 21 18  1  0  0  0  0
 21 19  1  0  0  0  0
 22  5  1  1  0  0  0
 22 24  1  0  0  0  0
 22 10  1  0  0  0  0
 23  2  1  0  0  0  0
 24 12  1  0  0  0  0
 24 15  1  0  0  0  0
 26 29  1  0  0  0  0
 26 31  1  0  0  0  0
 27 26  1  0  0  0  0
 28 30  1  0  0  0  0
 28 27  1  0  0  0  0
 30 26  1  0  0  0  0
 34 32  1  0  0  0  0
 34 33  1  0  0  0  0
 35 34  1  0  0  0  0
 37 38  1  0  0  0  0
 38 36  1  0  0  0  0
 39 40  1  0  0  0  0
 40 41  1  0  0  0  0
 40 53  1  0  0  0  0
 42 43  2  0  0  0  0
 43 40  1  0  0  0  0
 44 45  2  0  0  0  0
 45 47  1  0  0  0  0
 45 42  1  0  0  0  0
 46 47  1  0  0  0  0
 48 44  1  0  0  0  0
 49 50  2  0  0  0  0
 50 48  1  0  0  0  0
 52 51  1  0  0  0  0
 52 49  1  0  0  0  0
 53 54  1  0  0  0  0
M  END
>  <MODEL>
4

>  <REMARK>
 VINA RESULT:      -7.0      3.199      9.604
  Name = 
  12 active torsions:
  status: ('A' for Active; 'I' for Inactive)
    1  A    between atoms: C_1  and  C_3
    2  A    between atoms: C_2  and  C_18
    3  A    between atoms: C_3  and  C_35
    4  A    between atoms: C_4  and  O_17
    5  A    between atoms: C_4  and  C_18
    6  A    between atoms: C_4  and  C_36
    7  A    between atoms: N_7  and  C_24
    8  A    between atoms: N_11  and  C_25
    9  A    between atoms: N_19  and  C_53
   10  A    between atoms: C_24  and  C_48
   11  A    between atoms: C_28  and  C_31
   12  A    between atoms: C_34  and  C_50
                            x       y       z     vdW  Elec       q    Type
                         _______ _______ _______ _____ _____    ______ ____

>  <TORSDO>
F 12

$$$$
=
 OpenBabel11062419133D

 54 59  0  0  1  0  0  0  0  0999 V2000
  186.5450  177.6790  143.2670 C   0  0  2  0  0  3  0  0  0  0  0  0
  191.9070  172.5160  139.4930 C   0  0  2  0  0  3  0  0  0  0  0  0
  187.6230  176.5880  143.4080 C   0  0  1  0  0  3  0  0  0  0  0  0
  188.0390  176.7120  146.6510 N   0  0  0  0  0  0  0  0  0  0  0  0
  188.2940  174.8410  140.0710 C   0  0  0  0  0  2  0  0  0  0  0  0
  189.4710  175.0010  145.7750 C   0  0  0  0  0  2  0  0  0  0  0  0
  188.6540  176.2430  145.6110 C   0  0  0  0  0  0  0  0  0  0  0  0
  184.9510  178.5860  146.5070 C   0  0  0  0  0  2  0  0  0  0  0  0
  189.5130  176.9570  141.9010 O   0  0  0  0  0  1  0  0  0  0  0  0
  188.2550  176.3560  142.0330 C   0  0  1  0  0  3  0  0  0  0  0  0
  189.2830  173.7520  139.7440 C   0  0  2  0  0  3  0  0  0  0  0  0
  190.2790  173.8090  140.8650 C   0  0  2  0  0  3  0  0  0  0  0  0
  186.7880  178.2670  148.0360 C   0  0  0  0  0  2  0  0  0  0  0  0
  190.9850  172.7220  138.2670 C   0  0  0  0  0  2  0  0  0  0  0  0
  190.1210  174.5060  143.3690 C   0  0  2  0  0  3  0  0  0  0  0  0
  188.6140  176.9150  144.3840 O   0  0  0  0  0  0  0  0  0  0  0  0
  189.3100  174.0470  144.5950 C   0  0  1  0  0  3  0  0  0  0  0  0
  186.3670  178.6130  144.4650 C   0  0  0  0  0  2  0  0  0  0  0  0
  187.2950  177.9610  146.6470 C   0  0  2  0  0  3  0  0  0  0  0  0
  185.5360  179.0750  147.8180 C   0  0  0  0  0  2  0  0  0  0  0  0
  186.0650  177.8760  145.7610 C   0  0  1  0  0  3  0  0  0  0  0  0
  188.2470  174.8850  141.5980 C   0  0  2  0  0  3  0  0  0  0  0  0
  191.1160  172.5370  140.8130 C   0  0  0  0  0  2  0  0  0  0  0  0
  189.4190  173.9980  142.0930 C   0  0  1  0  0  3  0  0  0  0  0  0
  190.0270  173.9160  138.4290 C   0  0  0  0  0  2  0  0  0  0  0  0
  192.9450  175.6820  143.8440 C   0  0  0  0  0  0  0  0  0  0  0  0
  192.2270  174.7380  144.7570 C   0  0  0  0  0  2  0  0  0  0  0  0
  191.6360  174.2160  143.4630 C   0  0  2  0  0  3  0  0  0  0  0  0
  192.5790  177.0140  144.0410 O   0  0  0  0  0  1  0  0  0  0  0  0
  192.3600  175.1490  142.6900 O   0  0  0  0  0  0  0  0  0  0  0  0
  194.3300  175.5050  143.8540 O   0  0  0  0  0  1  0  0  0  0  0  0
  190.8710  172.2540  144.9710 F   0  0  0  0  0  0  0  0  0  0  0  0
  189.0660  172.4040  146.2960 F   0  0  0  0  0  0  0  0  0  0  0  0
  189.5290  172.5830  145.0110 C   0  0  0  0  0  0  0  0  0  0  0  0
  188.8250  171.7340  144.1730 F   0  0  0  0  0  0  0  0  0  0  0  0
  185.2050  177.0780  142.8500 C   0  0  0  0  0  2  0  0  0  0  0  0
  185.4900  178.3510  140.8540 O   0  0  0  0  0  1  0  0  0  0  0  0
  184.5360  177.9320  141.7830 C   0  0  0  0  0  2  0  0  0  0  0  0
  193.0280  173.5580  139.5390 C   0  0  0  0  0  2  0  0  0  0  0  0
  194.4340  172.9750  139.3770 C   0  0  1  0  0  0  0  0  0  0  0  0
  194.2920  171.4740  139.0840 C   0  0  0  0  0  1  0  0  0  0  0  0
  194.2920  174.2960  137.3130 N   0  0  0  0  0  0  0  0  0  0  0  0
  195.0280  173.6910  138.1930 C   0  0  0  0  0  3  0  0  0  0  0  0
  194.1900  175.9730  135.5840 N   0  0  0  0  0  0  0  0  0  0  0  0
  194.8130  174.9830  136.1610 C   0  0  0  0  0  0  0  0  0  0  0  0
  196.7190  175.2020  134.5130 C   0  0  0  0  0  1  0  0  0  0  0  0
  196.0950  174.5870  135.6730 N   0  0  0  0  0  2  0  0  0  0  0  0
  192.9260  176.5550  136.0180 C   0  0  0  0  0  2  0  0  0  0  0  0
  191.0890  175.1170  135.4070 N   0  0  0  0  0  0  0  0  0  0  0  0
  191.8250  176.1270  135.1090 C   0  0  0  0  0  3  0  0  0  0  0  0
  189.6730  173.2500  134.7790 C   0  0  0  0  0  1  0  0  0  0  0  0
  190.0410  174.6990  134.5200 C   0  0  0  0  0  2  0  0  0  0  0  0
  195.1730  173.2350  140.5650 O   0  0  0  0  0  0  0  0  0  0  0  0
  194.6480  172.5080  141.6460 C   0  0  0  0  0  1  0  0  0  0  0  0
  1 36  1  1  0  0  0
  1  3  1  0  0  0  0
  1 18  1  0  0  0  0
  2 39  1  1  0  0  0
  2 23  1  0  0  0  0
  3 16  1  1  0  0  0
  7  6  1  0  0  0  0
  7  4  2  0  0  0  0
  8 20  1  0  0  0  0
 10  9  1  1  0  0  0
 10  3  1  0  0  0  0
 11 25  1  6  0  0  0
 11  5  1  0  0  0  0
 11 12  1  0  0  0  0
 12 23  1  1  0  0  0
 12 24  1  0  0  0  0
 14 25  1  0  0  0  0
 14  2  1  0  0  0  0
 15 28  1  1  0  0  0
 15 17  1  0  0  0  0
 16  7  1  0  0  0  0
 17 34  1  1  0  0  0
 17  6  1  0  0  0  0
 19  4  1  0  0  0  0
 19 13  1  1  0  0  0
 20 13  1  0  0  0  0
 21 18  1  6  0  0  0
 21  8  1  0  0  0  0
 21 19  1  0  0  0  0
 22  5  1  6  0  0  0
 22 10  1  0  0  0  0
 22 24  1  0  0  0  0
 24 15  1  0  0  0  0
 26 31  1  0  0  0  0
 26 29  1  0  0  0  0
 26 27  1  0  0  0  0
 28 27  1  0  0  0  0
 30 28  1  0  0  0  0
 30 26  1  0  0  0  0
 32 34  1  0  0  0  0
 34 33  1  0  0  0  0
 35 34  1  0  0  0  0
 37 38  1  0  0  0  0
 38 36  1  0  0  0  0
 40 39  1  0  0  0  0
 40 53  1  0  0  0  0
 41 40  1  0  0  0  0
 42 43  2  0  0  0  0
 43 40  1  0  0  0  0
 44 48  1  0  0  0  0
 44 45  2  0  0  0  0
 45 42  1  0  0  0  0
 46 47  1  0  0  0  0
 47 45  1  0  0  0  0
 50 49  2  0  0  0  0
 50 48  1  0  0  0  0
 52 51  1  0  0  0  0
 52 49  1  0  0  0  0
 53 54  1  0  0  0  0
M  END
>  <MODEL>
5

>  <REMARK>
 VINA RESULT:      -7.0      2.597      4.731
  Name = 
  12 active torsions:
  status: ('A' for Active; 'I' for Inactive)
    1  A    between atoms: C_1  and  C_3
    2  A    between atoms: C_2  and  C_18
    3  A    between atoms: C_3  and  C_35
    4  A    between atoms: C_4  and  O_17
    5  A    between atoms: C_4  and  C_18
    6  A    between atoms: C_4  and  C_36
    7  A    between atoms: N_7  and  C_24
    8  A    between atoms: N_11  and  C_25
    9  A    between atoms: N_19  and  C_53
   10  A    between atoms: C_24  and  C_48
   11  A    between atoms: C_28  and  C_31
   12  A    between atoms: C_34  and  C_50
                            x       y       z     vdW  Elec       q    Type
                         _______ _______ _______ _____ _____    ______ ____

>  <TORSDO>
F 12

$$$$
=
 OpenBabel11062419133D

 54 59  0  0  1  0  0  0  0  0999 V2000
  186.5940  177.6750  143.2460 C   0  0  2  0  0  3  0  0  0  0  0  0
  192.0410  172.6010  139.4720 C   0  0  2  0  0  3  0  0  0  0  0  0
  187.6950  176.6080  143.3870 C   0  0  1  0  0  3  0  0  0  0  0  0
  188.1270  176.7600  146.6260 N   0  0  0  0  0  0  0  0  0  0  0  0
  188.3830  174.8540  140.0570 C   0  0  0  0  0  2  0  0  0  0  0  0
  189.5900  175.0750  145.7530 C   0  0  0  0  0  2  0  0  0  0  0  0
  188.7460  176.2980  145.5870 C   0  0  0  0  0  0  0  0  0  0  0  0
  185.0000  178.5690  146.4890 C   0  0  0  0  0  2  0  0  0  0  0  0
  189.5690  177.0060  141.8670 O   0  0  0  0  0  1  0  0  0  0  0  0
  188.3240  176.3790  142.0100 C   0  0  1  0  0  3  0  0  0  0  0  0
  189.3940  173.7830  139.7320 C   0  0  2  0  0  3  0  0  0  0  0  0
  190.3940  173.8680  140.8450 C   0  0  2  0  0  3  0  0  0  0  0  0
  186.8520  178.2970  148.0100 C   0  0  0  0  0  2  0  0  0  0  0  0
  191.1080  172.7800  138.2510 C   0  0  0  0  0  2  0  0  0  0  0  0
  190.2360  174.5780  143.3460 C   0  0  2  0  0  3  0  0  0  0  0  0
  188.6850  176.9610  144.3560 O   0  0  0  0  0  0  0  0  0  0  0  0
  189.4420  174.1100  144.5800 C   0  0  1  0  0  3  0  0  0  0  0  0
  186.4030  178.6120  144.4390 C   0  0  0  0  0  2  0  0  0  0  0  0
  187.3570  177.9930  146.6200 C   0  0  2  0  0  3  0  0  0  0  0  0
  185.5820  179.0780  147.7930 C   0  0  0  0  0  2  0  0  0  0  0  0
  186.1240  177.8770  145.7410 C   0  0  1  0  0  3  0  0  0  0  0  0
  188.3450  174.9060  141.5840 C   0  0  2  0  0  3  0  0  0  0  0  0
  191.2580  172.6140  140.7970 C   0  0  0  0  0  2  0  0  0  0  0  0
  189.5370  174.0470  142.0780 C   0  0  1  0  0  3  0  0  0  0  0  0
  190.1260  173.9540  138.4110 C   0  0  0  0  0  2  0  0  0  0  0  0
  193.0410  175.8210  143.7620 C   0  0  0  0  0  0  0  0  0  0  0  0
  192.3490  174.8880  144.7080 C   0  0  0  0  0  2  0  0  0  0  0  0
  191.7570  174.3200  143.4340 C   0  0  2  0  0  3  0  0  0  0  0  0
  192.6490  177.1500  143.9280 O   0  0  0  0  0  1  0  0  0  0  0  0
  192.4550  175.2460  142.6280 O   0  0  0  0  0  0  0  0  0  0  0  0
  194.4290  175.6720  143.7640 O   0  0  0  0  0  1  0  0  0  0  0  0
  191.0350  172.3340  144.9000 F   0  0  0  0  0  0  0  0  0  0  0  0
  189.2980  172.4890  146.3130 F   0  0  0  0  0  0  0  0  0  0  0  0
  189.6940  172.6540  145.0040 C   0  0  0  0  0  0  0  0  0  0  0  0
  188.9560  171.7870  144.2140 F   0  0  0  0  0  0  0  0  0  0  0  0
  185.2640  177.0430  142.8400 C   0  0  0  0  0  2  0  0  0  0  0  0
  185.5040  178.5920  141.0440 O   0  0  0  0  0  1  0  0  0  0  0  0
  184.5580  177.8910  141.7930 C   0  0  0  0  0  2  0  0  0  0  0  0
  193.1410  173.6660  139.5060 C   0  0  0  0  0  2  0  0  0  0  0  0
  194.4550  173.2320  138.8540 C   0  0  1  0  0  0  0  0  0  0  0  0
  195.4700  174.3710  139.0310 C   0  0  0  0  0  1  0  0  0  0  0  0
  195.2830  172.0720  140.8530 N   0  0  0  0  0  0  0  0  0  0  0  0
  194.8930  172.0100  139.6170 C   0  0  0  0  0  3  0  0  0  0  0  0
  195.1090  170.5300  142.6980 N   0  0  0  0  0  0  0  0  0  0  0  0
  195.7200  170.9350  141.6190 C   0  0  0  0  0  0  0  0  0  0  0  0
  197.3790  169.0370  141.8250 C   0  0  0  0  0  1  0  0  0  0  0  0
  196.8420  170.1970  141.1340 N   0  0  0  0  0  2  0  0  0  0  0  0
  193.9010  171.1140  143.2660 C   0  0  0  0  0  2  0  0  0  0  0  0
  192.8700  168.9900  142.7800 N   0  0  0  0  0  0  0  0  0  0  0  0
  192.7230  170.2520  142.9640 C   0  0  0  0  0  3  0  0  0  0  0  0
  190.8160  168.8730  141.4940 C   0  0  0  0  0  1  0  0  0  0  0  0
  191.7340  168.1660  142.4730 C   0  0  0  0  0  2  0  0  0  0  0  0
  194.2050  172.9270  137.4860 O   0  0  0  0  0  0  0  0  0  0  0  0
  194.1250  174.1030  136.7220 C   0  0  0  0  0  1  0  0  0  0  0  0
  1 36  1  1  0  0  0
  1  3  1  0  0  0  0
  1 18  1  0  0  0  0
  2 39  1  1  0  0  0
  2 23  1  0  0  0  0
  3 16  1  1  0  0  0
  7  6  1  0  0  0  0
  7  4  2  0  0  0  0
  8 20  1  0  0  0  0
 10  9  1  1  0  0  0
 10  3  1  0  0  0  0
 11 25  1  6  0  0  0
 11  5  1  0  0  0  0
 11 12  1  0  0  0  0
 12 23  1  1  0  0  0
 12 24  1  0  0  0  0
 14 25  1  0  0  0  0
 14  2  1  0  0  0  0
 15 28  1  1  0  0  0
 15 17  1  0  0  0  0
 16  7  1  0  0  0  0
 17 34  1  1  0  0  0
 17  6  1  0  0  0  0
 19  4  1  0  0  0  0
 19 13  1  1  0  0  0
 20 13  1  0  0  0  0
 21 18  1  6  0  0  0
 21  8  1  0  0  0  0
 21 19  1  0  0  0  0
 22  5  1  6  0  0  0
 22 10  1  0  0  0  0
 22 24  1  0  0  0  0
 24 15  1  0  0  0  0
 26 31  1  0  0  0  0
 26 29  1  0  0  0  0
 26 27  1  0  0  0  0
 28 27  1  0  0  0  0
 30 28  1  0  0  0  0
 30 26  1  0  0  0  0
 32 34  1  0  0  0  0
 34 33  1  0  0  0  0
 35 34  1  0  0  0  0
 37 38  1  0  0  0  0
 38 36  1  0  0  0  0
 40 41  1  0  0  0  0
 40 39  1  0  0  0  0
 40 43  1  0  0  0  0
 42 45  1  0  0  0  0
 43 42  2  0  0  0  0
 44 48  1  0  0  0  0
 45 44  2  0  0  0  0
 47 45  1  0  0  0  0
 47 46  1  0  0  0  0
 49 50  2  0  0  0  0
 50 48  1  0  0  0  0
 51 52  1  0  0  0  0
 52 49  1  0  0  0  0
 53 40  1  0  0  0  0
 54 53  1  0  0  0  0
M  END
>  <MODEL>
6

>  <REMARK>
 VINA RESULT:      -6.7      1.476      1.941
  Name = 
  12 active torsions:
  status: ('A' for Active; 'I' for Inactive)
    1  A    between atoms: C_1  and  C_3
    2  A    between atoms: C_2  and  C_18
    3  A    between atoms: C_3  and  C_35
    4  A    between atoms: C_4  and  O_17
    5  A    between atoms: C_4  and  C_18
    6  A    between atoms: C_4  and  C_36
    7  A    between atoms: N_7  and  C_24
    8  A    between atoms: N_11  and  C_25
    9  A    between atoms: N_19  and  C_53
   10  A    between atoms: C_24  and  C_48
   11  A    between atoms: C_28  and  C_31
   12  A    between atoms: C_34  and  C_50
                            x       y       z     vdW  Elec       q    Type
                         _______ _______ _______ _____ _____    ______ ____

>  <TORSDO>
F 12

$$$$
=
 OpenBabel11062419133D

 54 59  0  0  1  0  0  0  0  0999 V2000
  196.1400  173.1050  139.5060 C   0  0  2  0  0  3  0  0  0  0  0  0
  189.8230  176.7240  143.5880 C   0  0  2  0  0  3  0  0  0  0  0  0
  194.7540  172.9540  140.1600 C   0  0  1  0  0  3  0  0  0  0  0  0
  194.0490  169.9240  139.1480 N   0  0  0  0  0  0  0  0  0  0  0  0
  193.9150  175.9600  142.3740 C   0  0  0  0  0  2  0  0  0  0  0  0
  192.2380  170.6990  140.5130 C   0  0  0  0  0  2  0  0  0  0  0  0
  193.4320  170.9480  139.6470 C   0  0  0  0  0  0  0  0  0  0  0  0
  197.5780  169.8660  138.3660 C   0  0  0  0  0  2  0  0  0  0  0  0
  193.2680  174.8190  139.6180 O   0  0  0  0  0  1  0  0  0  0  0  0
  194.2350  174.3500  140.5160 C   0  0  1  0  0  3  0  0  0  0  0  0
  192.6630  176.2450  143.1650 C   0  0  2  0  0  3  0  0  0  0  0  0
  191.6260  175.3540  142.5490 C   0  0  2  0  0  3  0  0  0  0  0  0
  195.5830  168.6600  137.7510 C   0  0  0  0  0  2  0  0  0  0  0  0
  190.8900  177.7800  143.9640 C   0  0  0  0  0  2  0  0  0  0  0  0
  191.7290  173.0440  141.3530 C   0  0  2  0  0  3  0  0  0  0  0  0
  193.8250  172.2530  139.3310 O   0  0  0  0  0  0  0  0  0  0  0  0
  192.2040  171.6260  141.7250 C   0  0  1  0  0  3  0  0  0  0  0  0
  196.4830  172.0950  138.4100 C   0  0  0  0  0  2  0  0  0  0  0  0
  195.1580  170.0330  138.2150 C   0  0  2  0  0  3  0  0  0  0  0  0
  197.0470  168.8000  137.4280 C   0  0  0  0  0  2  0  0  0  0  0  0
  196.3810  170.6500  138.8710 C   0  0  1  0  0  3  0  0  0  0  0  0
  193.8050  174.4870  141.9830 C   0  0  2  0  0  3  0  0  0  0  0  0
  190.4270  175.3120  143.4880 C   0  0  0  0  0  2  0  0  0  0  0  0
  192.3600  174.0510  142.3360 C   0  0  1  0  0  3  0  0  0  0  0  0
  192.1650  177.6790  143.1070 C   0  0  0  0  0  2  0  0  0  0  0  0
  189.4290  173.4970  139.3310 C   0  0  0  0  0  0  0  0  0  0  0  0
  189.7010  172.2260  140.0740 C   0  0  0  0  0  2  0  0  0  0  0  0
  190.2030  173.1700  141.1480 C   0  0  2  0  0  3  0  0  0  0  0  0
  190.1990  173.6260  138.1750 O   0  0  0  0  0  1  0  0  0  0  0  0
  189.9080  174.3080  140.3660 O   0  0  0  0  0  0  0  0  0  0  0  0
  188.0700  173.7090  139.0910 O   0  0  0  0  0  1  0  0  0  0  0  0
  190.5050  170.0960  142.4770 F   0  0  0  0  0  0  0  0  0  0  0  0
  192.3800  170.3030  143.6920 F   0  0  0  0  0  0  0  0  0  0  0  0
  191.4700  170.9840  142.9130 C   0  0  0  0  0  0  0  0  0  0  0  0
  190.8730  171.9600  143.6950 F   0  0  0  0  0  0  0  0  0  0  0  0
  197.2440  173.1510  140.5590 C   0  0  0  0  0  2  0  0  0  0  0  0
  197.4970  175.2540  139.4670 O   0  0  0  0  0  1  0  0  0  0  0  0
  197.9410  174.5040  140.5560 C   0  0  0  0  0  2  0  0  0  0  0  0
  189.1100  177.0800  142.2810 C   0  0  0  0  0  2  0  0  0  0  0  0
  187.5870  177.1570  142.3980 C   0  0  1  0  0  0  0  0  0  0  0  0
  187.0230  175.7490  142.1610 C   0  0  0  0  0  1  0  0  0  0  0  0
  186.8520  176.7960  144.7120 N   0  0  0  0  0  0  0  0  0  0  0  0
  187.3170  177.6030  143.8100 C   0  0  0  0  0  3  0  0  0  0  0  0
  187.1610  176.6360  147.0980 N   0  0  0  0  0  0  0  0  0  0  0  0
  186.5690  177.1790  146.0700 C   0  0  0  0  0  0  0  0  0  0  0  0
  185.2650  178.7050  147.6080 C   0  0  0  0  0  1  0  0  0  0  0  0
  185.6360  178.2380  146.2830 N   0  0  0  0  0  2  0  0  0  0  0  0
  188.2010  175.6160  147.0440 C   0  0  0  0  0  2  0  0  0  0  0  0
  190.6030  175.5340  147.2330 N   0  0  0  0  0  0  0  0  0  0  0  0
  189.5480  176.2520  147.0910 C   0  0  0  0  0  3  0  0  0  0  0  0
  192.9110  175.3420  146.5120 C   0  0  0  0  0  1  0  0  0  0  0  0
  191.8970  176.1540  147.2950 C   0  0  0  0  0  2  0  0  0  0  0  0
  187.1060  178.1070  141.4530 O   0  0  0  0  0  0  0  0  0  0  0  0
  186.7980  177.4820  140.2330 C   0  0  0  0  0  1  0  0  0  0  0  0
  1  3  1  0  0  0  0
  1 36  1  1  0  0  0
  2 39  1  6  0  0  0
  2 14  1  0  0  0  0
  3 16  1  6  0  0  0
  3 10  1  0  0  0  0
  4  7  2  0  0  0  0
  6 17  1  0  0  0  0
  7  6  1  0  0  0  0
 10  9  1  6  0  0  0
 10 22  1  0  0  0  0
 11  5  1  6  0  0  0
 12 11  1  0  0  0  0
 12 23  1  1  0  0  0
 15 28  1  1  0  0  0
 15 17  1  0  0  0  0
 15 24  1  0  0  0  0
 16  7  1  0  0  0  0
 17 34  1  1  0  0  0
 18 21  1  0  0  0  0
 18  1  1  0  0  0  0
 19 13  1  1  0  0  0
 19 21  1  0  0  0  0
 19  4  1  0  0  0  0
 20 13  1  0  0  0  0
 20  8  1  0  0  0  0
 21  8  1  6  0  0  0
 22 24  1  0  0  0  0
 22  5  1  6  0  0  0
 23  2  1  0  0  0  0
 24 12  1  0  0  0  0
 25 11  1  0  0  0  0
 25 14  1  0  0  0  0
 26 27  1  0  0  0  0
 26 30  1  0  0  0  0
 27 28  1  0  0  0  0
 29 26  1  0  0  0  0
 30 28  1  0  0  0  0
 31 26  1  0  0  0  0
 32 34  1  0  0  0  0
 34 33  1  0  0  0  0
 34 35  1  0  0  0  0
 37 38  1  0  0  0  0
 38 36  1  0  0  0  0
 39 40  1  0  0  0  0
 40 43  1  0  0  0  0
 41 40  1  0  0  0  0
 42 45  1  0  0  0  0
 43 42  2  0  0  0  0
 45 47  1  0  0  0  0
 45 44  2  0  0  0  0
 47 46  1  0  0  0  0
 48 50  1  0  0  0  0
 48 44  1  0  0  0  0
 49 52  1  0  0  0  0
 50 49  2  0  0  0  0
 51 52  1  0  0  0  0
 53 40  1  0  0  0  0
 54 53  1  0  0  0  0
M  END
>  <MODEL>
7

>  <REMARK>
 VINA RESULT:      -6.7      2.819      9.255
  Name = 
  12 active torsions:
  status: ('A' for Active; 'I' for Inactive)
    1  A    between atoms: C_1  and  C_3
    2  A    between atoms: C_2  and  C_18
    3  A    between atoms: C_3  and  C_35
    4  A    between atoms: C_4  and  O_17
    5  A    between atoms: C_4  and  C_18
    6  A    between atoms: C_4  and  C_36
    7  A    between atoms: N_7  and  C_24
    8  A    between atoms: N_11  and  C_25
    9  A    between atoms: N_19  and  C_53
   10  A    between atoms: C_24  and  C_48
   11  A    between atoms: C_28  and  C_31
   12  A    between atoms: C_34  and  C_50
                            x       y       z     vdW  Elec       q    Type
                         _______ _______ _______ _____ _____    ______ ____

>  <TORSDO>
F 12

$$$$
=
 OpenBabel11062419133D

 54 59  0  0  1  0  0  0  0  0999 V2000
  186.6430  177.6280  143.2400 C   0  0  2  0  0  3  0  0  0  0  0  0
  191.8020  172.4250  139.2440 C   0  0  2  0  0  3  0  0  0  0  0  0
  187.7070  176.5190  143.3350 C   0  0  1  0  0  3  0  0  0  0  0  0
  188.2270  176.6000  146.5640 N   0  0  0  0  0  0  0  0  0  0  0  0
  188.2460  174.7990  139.9600 C   0  0  0  0  0  2  0  0  0  0  0  0
  189.6040  174.8780  145.6260 C   0  0  0  0  0  2  0  0  0  0  0  0
  188.8010  176.1340  145.5010 C   0  0  0  0  0  0  0  0  0  0  0  0
  185.1660  178.5240  146.5370 C   0  0  0  0  0  2  0  0  0  0  0  0
  189.5550  176.8760  141.7730 O   0  0  0  0  0  1  0  0  0  0  0  0
  188.2930  176.2920  141.9390 C   0  0  1  0  0  3  0  0  0  0  0  0
  189.2070  173.6980  139.5910 C   0  0  2  0  0  3  0  0  0  0  0  0
  190.2380  173.7270  140.6800 C   0  0  2  0  0  3  0  0  0  0  0  0
  187.0450  178.1590  148.0050 C   0  0  0  0  0  2  0  0  0  0  0  0
  190.8450  172.6590  138.0500 C   0  0  0  0  0  2  0  0  0  0  0  0
  190.1700  174.3990  143.1950 C   0  0  2  0  0  3  0  0  0  0  0  0
  188.7340  176.8190  144.2830 O   0  0  0  0  0  0  0  0  0  0  0  0
  189.3910  173.9390  144.4410 C   0  0  1  0  0  3  0  0  0  0  0  0
  186.5170  178.5510  144.4530 C   0  0  0  0  0  2  0  0  0  0  0  0
  187.5030  177.8610  146.5970 C   0  0  2  0  0  3  0  0  0  0  0  0
  185.7990  178.9890  147.8340 C   0  0  0  0  0  2  0  0  0  0  0  0
  186.2450  177.8040  145.7490 C   0  0  1  0  0  3  0  0  0  0  0  0
  188.2480  174.8260  141.4890 C   0  0  2  0  0  3  0  0  0  0  0  0
  191.0530  172.4430  140.5880 C   0  0  0  0  0  2  0  0  0  0  0  0
  189.4200  173.9160  141.9370 C   0  0  1  0  0  3  0  0  0  0  0  0
  189.9110  173.8650  138.2550 C   0  0  0  0  0  2  0  0  0  0  0  0
  193.0340  175.5460  143.4520 C   0  0  0  0  0  0  0  0  0  0  0  0
  192.3440  174.6840  144.4630 C   0  0  0  0  0  2  0  0  0  0  0  0
  191.6820  174.0850  143.2390 C   0  0  2  0  0  3  0  0  0  0  0  0
  192.7010  176.8960  143.5720 O   0  0  0  0  0  1  0  0  0  0  0  0
  192.3850  174.9460  142.3680 O   0  0  0  0  0  0  0  0  0  0  0  0
  194.4150  175.3410  143.4100 O   0  0  0  0  0  1  0  0  0  0  0  0
  188.9370  171.6250  143.9620 F   0  0  0  0  0  0  0  0  0  0  0  0
  190.9460  172.1760  144.7980 F   0  0  0  0  0  0  0  0  0  0  0  0
  189.6000  172.4680  144.8350 C   0  0  0  0  0  0  0  0  0  0  0  0
  189.1410  172.2440  146.1230 F   0  0  0  0  0  0  0  0  0  0  0  0
  185.2810  177.0520  142.8590 C   0  0  0  0  0  2  0  0  0  0  0  0
  185.2350  178.3640  140.8690 O   0  0  0  0  0  1  0  0  0  0  0  0
  184.4950  178.0380  142.0060 C   0  0  0  0  0  2  0  0  0  0  0  0
  192.9410  173.4490  139.2660 C   0  0  0  0  0  2  0  0  0  0  0  0
  194.3380  172.8310  139.3410 C   0  0  1  0  0  0  0  0  0  0  0  0
  194.4550  172.0850  140.6780 C   0  0  0  0  0  1  0  0  0  0  0  0
  194.5520  170.5880  138.3660 N   0  0  0  0  0  0  0  0  0  0  0  0
  194.4090  171.8650  138.1880 C   0  0  0  0  0  3  0  0  0  0  0  0
  193.5870  169.0440  136.7860 N   0  0  0  0  0  0  0  0  0  0  0  0
  194.6350  169.6280  137.2980 C   0  0  0  0  0  0  0  0  0  0  0  0
  196.1340  168.3970  135.6750 C   0  0  0  0  0  1  0  0  0  0  0  0
  195.9240  169.3520  136.7500 N   0  0  0  0  0  2  0  0  0  0  0  0
  192.2020  169.2880  137.1680 C   0  0  0  0  0  2  0  0  0  0  0  0
  191.1000  168.9550  139.2860 N   0  0  0  0  0  0  0  0  0  0  0  0
  191.8460  168.4690  138.3610 C   0  0  0  0  0  3  0  0  0  0  0  0
  190.9480  168.9860  141.7070 C   0  0  0  0  0  1  0  0  0  0  0  0
  190.7750  168.1670  140.4420 C   0  0  0  0  0  2  0  0  0  0  0  0
  195.3020  173.8700  139.2060 O   0  0  0  0  0  0  0  0  0  0  0  0
  195.1620  174.5200  137.9680 C   0  0  0  0  0  1  0  0  0  0  0  0
  1 36  1  1  0  0  0
  1  3  1  0  0  0  0
  1 18  1  0  0  0  0
  2 39  1  1  0  0  0
  2 23  1  0  0  0  0
  3 16  1  1  0  0  0
  4 19  1  0  0  0  0
  7  6  1  0  0  0  0
  7  4  2  0  0  0  0
  8 20  1  0  0  0  0
 10  9  1  1  0  0  0
 10  3  1  0  0  0  0
 11 25  1  6  0  0  0
 11  5  1  0  0  0  0
 11 12  1  0  0  0  0
 12 23  1  1  0  0  0
 12 24  1  0  0  0  0
 14 25  1  0  0  0  0
 14  2  1  0  0  0  0
 15 28  1  1  0  0  0
 15 17  1  0  0  0  0
 16  7  1  0  0  0  0
 17 34  1  1  0  0  0
 17  6  1  0  0  0  0
 19 13  1  1  0  0  0
 20 13  1  0  0  0  0
 21 18  1  6  0  0  0
 21  8  1  0  0  0  0
 21 19  1  0  0  0  0
 22  5  1  6  0  0  0
 22 24  1  0  0  0  0
 22 10  1  0  0  0  0
 24 15  1  0  0  0  0
 26 29  1  0  0  0  0
 26 27  1  0  0  0  0
 28 27  1  0  0  0  0
 30 28  1  0  0  0  0
 30 26  1  0  0  0  0
 31 26  1  0  0  0  0
 32 34  1  0  0  0  0
 33 34  1  0  0  0  0
 34 35  1  0  0  0  0
 37 38  1  0  0  0  0
 38 36  1  0  0  0  0
 39 40  1  0  0  0  0
 40 41  1  0  0  0  0
 43 42  2  0  0  0  0
 43 40  1  0  0  0  0
 44 48  1  0  0  0  0
 44 45  2  0  0  0  0
 45 42  1  0  0  0  0
 46 47  1  0  0  0  0
 47 45  1  0  0  0  0
 48 50  1  0  0  0  0
 49 52  1  0  0  0  0
 50 49  2  0  0  0  0
 52 51  1  0  0  0  0
 53 40  1  0  0  0  0
 54 53  1  0  0  0  0
M  END
>  <MODEL>
8

>  <REMARK>
 VINA RESULT:      -6.6      2.471      3.391
  Name = 
  12 active torsions:
  status: ('A' for Active; 'I' for Inactive)
    1  A    between atoms: C_1  and  C_3
    2  A    between atoms: C_2  and  C_18
    3  A    between atoms: C_3  and  C_35
    4  A    between atoms: C_4  and  O_17
    5  A    between atoms: C_4  and  C_18
    6  A    between atoms: C_4  and  C_36
    7  A    between atoms: N_7  and  C_24
    8  A    between atoms: N_11  and  C_25
    9  A    between atoms: N_19  and  C_53
   10  A    between atoms: C_24  and  C_48
   11  A    between atoms: C_28  and  C_31
   12  A    between atoms: C_34  and  C_50
                            x       y       z     vdW  Elec       q    Type
                         _______ _______ _______ _____ _____    ______ ____

>  <TORSDO>
F 12

$$$$
=
 OpenBabel11062419133D

 54 59  0  0  1  0  0  0  0  0999 V2000
  193.1980  169.1510  144.2620 C   0  0  2  0  0  3  0  0  0  0  0  0
  188.6420  175.4160  141.1540 C   0  0  2  0  0  3  0  0  0  0  0  0
  193.0840  170.6580  143.9640 C   0  0  1  0  0  3  0  0  0  0  0  0
  195.7330  171.6890  145.5840 N   0  0  0  0  0  0  0  0  0  0  0  0
  190.2200  171.3960  141.5360 C   0  0  0  0  0  2  0  0  0  0  0  0
  194.7010  173.5880  144.5480 C   0  0  0  0  0  2  0  0  0  0  0  0
  194.6520  172.1890  145.0760 C   0  0  0  0  0  0  0  0  0  0  0  0
  196.5440  168.1660  145.5610 C   0  0  0  0  0  2  0  0  0  0  0  0
  190.8720  171.5450  144.5140 O   0  0  0  0  0  1  0  0  0  0  0  0
  191.6510  170.9530  143.5120 C   0  0  1  0  0  3  0  0  0  0  0  0
  189.7330  172.7210  141.0070 C   0  0  2  0  0  3  0  0  0  0  0  0
  190.2800  173.7290  141.9740 C   0  0  2  0  0  3  0  0  0  0  0  0
  197.1680  170.1440  146.7910 C   0  0  0  0  0  2  0  0  0  0  0  0
  187.9160  174.2860  140.3850 C   0  0  0  0  0  2  0  0  0  0  0  0
  192.4080  173.8020  143.4750 C   0  0  2  0  0  3  0  0  0  0  0  0
  193.4510  171.4700  145.0810 O   0  0  0  0  0  0  0  0  0  0  0  0
  193.9280  173.7370  143.2400 C   0  0  1  0  0  3  0  0  0  0  0  0
  194.1360  168.7560  145.4020 C   0  0  0  0  0  2  0  0  0  0  0  0
  195.7920  170.3810  146.2170 C   0  0  2  0  0  3  0  0  0  0  0  0
  197.3460  168.6480  146.7530 C   0  0  0  0  0  2  0  0  0  0  0  0
  195.5560  169.2650  145.2150 C   0  0  1  0  0  3  0  0  0  0  0  0
  191.5750  171.7020  142.1750 C   0  0  2  0  0  3  0  0  0  0  0  0
  190.1380  175.1090  141.3440 C   0  0  0  0  0  2  0  0  0  0  0  0
  191.6910  173.2470  142.2260 C   0  0  1  0  0  3  0  0  0  0  0  0
  188.2240  172.8850  140.9420 C   0  0  0  0  0  2  0  0  0  0  0  0
  191.6730  175.5110  145.9490 C   0  0  0  0  0  0  0  0  0  0  0  0
  192.8320  175.7530  145.0320 C   0  0  0  0  0  2  0  0  0  0  0  0
  191.9010  175.1680  143.9900 C   0  0  2  0  0  3  0  0  0  0  0  0
  191.9510  174.5660  146.9370 O   0  0  0  0  0  1  0  0  0  0  0  0
  190.8690  174.9800  144.9340 O   0  0  0  0  0  0  0  0  0  0  0  0
  191.1380  176.6880  146.4750 O   0  0  0  0  0  1  0  0  0  0  0  0
  195.3740  174.3560  141.4190 F   0  0  0  0  0  0  0  0  0  0  0  0
  193.4680  175.5030  141.7170 F   0  0  0  0  0  0  0  0  0  0  0  0
  194.5020  174.8620  142.3640 C   0  0  0  0  0  0  0  0  0  0  0  0
  195.1670  175.7910  143.1470 F   0  0  0  0  0  0  0  0  0  0  0  0
  193.5290  168.3640  142.9960 C   0  0  0  0  0  2  0  0  0  0  0  0
  195.3610  168.6950  141.5070 O   0  0  0  0  0  1  0  0  0  0  0  0
  194.1660  169.2650  141.9480 C   0  0  0  0  0  2  0  0  0  0  0  0
  187.9880  175.6870  142.5120 C   0  0  0  0  0  2  0  0  0  0  0  0
  187.7310  177.1680  142.8000 C   0  0  1  0  0  0  0  0  0  0  0  0
  188.1920  177.9750  141.5780 C   0  0  0  0  0  1  0  0  0  0  0  0
  185.5750  178.3180  142.5640 N   0  0  0  0  0  0  0  0  0  0  0  0
  186.2400  177.2850  142.9790 C   0  0  0  0  0  3  0  0  0  0  0  0
  183.6090  178.9290  143.8190 N   0  0  0  0  0  0  0  0  0  0  0  0
  184.1540  178.4800  142.7220 C   0  0  0  0  0  0  0  0  0  0  0  0
  181.8730  178.3000  141.6440 C   0  0  0  0  0  1  0  0  0  0  0  0
  183.3220  178.1820  141.6010 N   0  0  0  0  0  2  0  0  0  0  0  0
  184.3250  179.3650  145.0110 C   0  0  0  0  0  2  0  0  0  0  0  0
  185.7510  178.0110  146.4060 N   0  0  0  0  0  0  0  0  0  0  0  0
  184.5830  178.2030  145.9080 C   0  0  0  0  0  3  0  0  0  0  0  0
  187.4230  176.3880  147.0810 C   0  0  0  0  0  1  0  0  0  0  0  0
  185.9990  176.8810  147.2560 C   0  0  0  0  0  2  0  0  0  0  0  0
  188.4260  177.5260  143.9890 O   0  0  0  0  0  0  0  0  0  0  0  0
  189.6630  178.1170  143.6820 C   0  0  0  0  0  1  0  0  0  0  0  0
  1 36  1  6  0  0  0
  1 18  1  0  0  0  0
  2 23  1  0  0  0  0
  2 39  1  1  0  0  0
  3  1  1  0  0  0  0
  3 16  1  1  0  0  0
  4 19  1  0  0  0  0
  6  7  1  0  0  0  0
  7 16  1  0  0  0  0
  7  4  2  0  0  0  0
  8 20  1  0  0  0  0
 10  3  1  0  0  0  0
 10  9  1  1  0  0  0
 11 25  1  1  0  0  0
 11  5  1  0  0  0  0
 11 12  1  0  0  0  0
 12 23  1  6  0  0  0
 12 24  1  0  0  0  0
 14 25  1  0  0  0  0
 14  2  1  0  0  0  0
 15 28  1  6  0  0  0
 17 34  1  1  0  0  0
 17 15  1  0  0  0  0
 17  6  1  0  0  0  0
 19 13  1  6  0  0  0
 20 13  1  0  0  0  0
 21 18  1  1  0  0  0
 21  8  1  0  0  0  0
 21 19  1  0  0  0  0
 22  5  1  1  0  0  0
 22 24  1  0  0  0  0
 22 10  1  0  0  0  0
 24 15  1  0  0  0  0
 26 31  1  0  0  0  0
 26 29  1  0  0  0  0
 27 26  1  0  0  0  0
 28 30  1  0  0  0  0
 28 27  1  0  0  0  0
 30 26  1  0  0  0  0
 32 34  1  0  0  0  0
 33 34  1  0  0  0  0
 34 35  1  0  0  0  0
 37 38  1  0  0  0  0
 38 36  1  0  0  0  0
 39 40  1  0  0  0  0
 40 43  1  0  0  0  0
 40 53  1  0  0  0  0
 41 40  1  0  0  0  0
 42 45  1  0  0  0  0
 42 43  2  0  0  0  0
 44 48  1  0  0  0  0
 45 44  2  0  0  0  0
 47 46  1  0  0  0  0
 47 45  1  0  0  0  0
 48 50  1  0  0  0  0
 49 52  1  0  0  0  0
 50 49  2  0  0  0  0
 51 52  1  0  0  0  0
 54 53  1  0  0  0  0
M  END
>  <MODEL>
9

>  <REMARK>
 VINA RESULT:      -6.6      2.746      9.339
  Name = 
  12 active torsions:
  status: ('A' for Active; 'I' for Inactive)
    1  A    between atoms: C_1  and  C_3
    2  A    between atoms: C_2  and  C_18
    3  A    between atoms: C_3  and  C_35
    4  A    between atoms: C_4  and  O_17
    5  A    between atoms: C_4  and  C_18
    6  A    between atoms: C_4  and  C_36
    7  A    between atoms: N_7  and  C_24
    8  A    between atoms: N_11  and  C_25
    9  A    between atoms: N_19  and  C_53
   10  A    between atoms: C_24  and  C_48
   11  A    between atoms: C_28  and  C_31
   12  A    between atoms: C_34  and  C_50
                            x       y       z     vdW  Elec       q    Type
                         _______ _______ _______ _____ _____    ______ ____

>  <TORSDO>
F 12

$$$$
