=
 OpenBabel11062420393D

 60 63  0  0  1  0  0  0  0  0999 V2000
  193.1900  173.5750  144.7610 C   0  0  1  0  0  3  0  0  0  0  0  0
  192.3330  174.1940  145.8660 C   0  0  0  0  0  2  0  0  0  0  0  0
  190.9960  174.2490  145.4620 O   0  0  0  0  0  0  0  0  0  0  0  0
  190.5790  175.5560  145.7490 C   0  0  1  0  0  3  0  0  0  0  0  0
  190.1120  176.0890  143.3320 O   0  0  0  0  0  0  0  0  0  0  0  0
  191.4170  177.4930  144.6070 O   0  0  0  0  0  1  0  0  0  0  0  0
  190.7310  176.4370  144.5390 C   0  0  0  0  0  0  0  0  0  0  0  0
  188.9940  174.5040  147.4510 C   0  0  0  0  0  1  0  0  0  0  0  0
  189.1630  175.5370  146.3500 C   0  0  1  0  0  3  0  0  0  0  0  0
  188.5860  176.9010  146.7320 C   0  0  0  0  0  2  0  0  0  0  0  0
  187.1200  176.8290  147.1290 C   0  0  0  0  0  2  0  0  0  0  0  0
  186.2320  176.7230  145.9090 C   0  0  0  0  0  2  0  0  0  0  0  0
  185.9380  178.1140  145.3590 C   0  0  2  0  0  3  0  0  0  0  0  0
  183.8420  179.0170  144.6800 O   0  0  0  0  0  0  0  0  0  0  0  0
  184.5090  178.4680  145.5970 C   0  0  0  0  0  0  0  0  0  0  0  0
  183.9140  178.2260  146.8290 O   0  0  0  0  0  1  0  0  0  0  0  0
  186.1500  177.0990  143.1200 C   0  0  0  0  0  3  0  0  0  0  0  0
  186.2490  178.1800  143.8970 C   0  0  0  0  0  3  0  0  0  0  0  0
  187.6220  176.3290  141.1580 C   0  0  1  0  0  3  0  0  0  0  0  0
  187.7850  177.8410  141.3200 C   0  0  0  0  0  2  0  0  0  0  0  0
  186.4680  177.1850  141.6650 C   0  0  2  0  0  0  0  0  0  0  0  0
  185.3980  177.4930  140.7450 N   0  0  0  0  0  0  0  0  0  0  0  0
  185.1600  178.6240  140.4580 O   0  0  0  0  0  0  0  0  0  0  0  0
  187.5100  175.9870  139.6780 C   0  0  0  0  0  2  0  0  0  0  0  0
  188.9990  174.0960  140.4230 C   0  0  0  0  0  2  0  0  0  0  0  0
  188.1510  174.7150  139.4020 N   0  0  0  0  0  0  0  0  0  0  0  0
  189.3990  172.7000  140.0490 C   0  0  0  0  0  3  0  0  0  0  0  0
  188.0990  174.1950  138.0720 C   0  0  0  0  0  3  0  0  0  0  0  0
  188.6160  173.0390  137.8000 N   0  0  0  0  0  0  0  0  0  0  0  0
  189.2370  172.2390  138.8120 C   0  0  0  0  0  3  0  0  0  0  0  0
  194.5480  174.2930  144.6090 C   0  0  2  0  0  3  0  0  0  0  0  0
  194.4580  175.7470  145.0670 C   0  0  0  0  0  2  0  0  0  0  0  0
  194.6870  175.8390  146.4360 O   0  0  0  0  0  0  0  0  0  0  0  0
  194.4760  177.1900  146.7260 C   0  0  0  0  0  2  0  0  0  0  0  0
  194.7010  177.9590  145.5890 O   0  0  0  0  0  1  0  0  0  0  0  0
  195.1060  174.2050  143.1640 C   0  0  1  0  0  3  0  0  0  0  0  0
  195.4540  175.4860  140.9540 C   0  0  0  0  0  2  0  0  0  0  0  0
  194.3360  175.3990  138.7740 N   0  0  0  0  0  2  0  0  0  0  0  0
  193.1330  175.2550  141.8710 C   0  0  0  0  0  2  0  0  0  0  0  0
  193.5450  175.4410  136.4850 C   0  0  0  0  0  1  0  0  0  0  0  0
  194.0420  173.4710  140.2760 C   0  0  1  0  0  3  0  0  0  0  0  0
  194.9870  174.5860  139.7980 C   0  0  2  0  0  3  0  0  0  0  0  0
  192.8160  174.0230  141.0110 C   0  0  0  0  0  2  0  0  0  0  0  0
  193.6290  172.5970  139.0990 C   0  0  0  0  0  2  0  0  0  0  0  0
  194.0960  174.5660  137.5930 C   0  0  2  0  0  3  0  0  0  0  0  0
  193.1140  173.4290  137.9210 C   0  0  1  0  0  3  0  0  0  0  0  0
  194.6160  175.3620  142.2480 C   0  0  1  0  0  3  0  0  0  0  0  0
  193.9950  171.9880  136.0790 O   0  0  0  0  0  0  0  0  0  0  0  0
  191.7430  172.3000  136.3380 O   0  0  0  0  0  1  0  0  0  0  0  0
  192.9060  172.5360  136.7460 C   0  0  0  0  0  0  0  0  0  0  0  0
  197.2650  175.0770  143.7230 O   0  0  0  0  0  1  0  0  0  0  0  0
  197.2810  173.1040  142.5550 O   0  0  0  0  0  0  0  0  0  0  0  0
  196.6100  174.1510  143.1700 C   0  0  0  0  0  0  0  0  0  0  0  0
  193.3610  172.0750  144.9460 C   0  0  0  0  0  2  0  0  0  0  0  0
  194.6200  171.7860  145.7250 C   0  0  0  0  0  2  0  0  0  0  0  0
  195.5230  170.8560  144.9400 C   0  0  1  0  0  3  0  0  0  0  0  0
  196.2440  170.0650  145.8200 F   0  0  0  0  0  0  0  0  0  0  0  0
  194.7510  170.0410  144.1110 O   0  0  0  0  0  0  0  0  0  0  0  0
  195.2450  170.2700  142.8280 C   0  0  0  0  0  2  0  0  0  0  0  0
  196.6360  169.7220  142.6980 C   0  0  0  0  0  1  0  0  0  0  0  0
  1 54  1  1  0  0  0
  1  2  1  0  0  0  0
  3  4  1  0  0  0  0
  3  2  1  0  0  0  0
  4  7  1  6  0  0  0
  4  9  1  0  0  0  0
  5  7  2  0  0  0  0
  7  6  1  0  0  0  0
  9 10  1  0  0  0  0
  9  8  1  1  0  0  0
 10 11  1  0  0  0  0
 12 11  1  0  0  0  0
 13 18  1  6  0  0  0
 13 15  1  0  0  0  0
 13 12  1  0  0  0  0
 14 15  2  0  0  0  0
 15 16  1  0  0  0  0
 17 18  2  0  0  0  0
 19 24  1  6  0  0  0
 19 20  1  0  0  0  0
 19 21  1  0  0  0  0
 20 21  1  0  0  0  0
 21 17  1  1  0  0  0
 22 21  1  0  0  0  0
 23 22  2  0  0  0  0
 26 24  1  0  0  0  0
 26 25  1  0  0  0  0
 27 25  1  0  0  0  0
 28 26  1  0  0  0  0
 29 28  2  0  0  0  0
 29 30  1  0  0  0  0
 30 27  2  0  0  0  0
 31  1  1  0  0  0  0
 31 32  1  6  0  0  0
 32 33  1  0  0  0  0
 33 34  1  0  0  0  0
 35 34  1  0  0  0  0
 36 53  1  1  0  0  0
 36 31  1  0  0  0  0
 37 47  1  0  0  0  0
 38 42  1  0  0  0  0
 39 47  1  0  0  0  0
 41 44  1  6  0  0  0
 41 43  1  0  0  0  0
 42 41  1  0  0  0  0
 42 37  1  1  0  0  0
 43 39  1  0  0  0  0
 45 40  1  6  0  0  0
 45 46  1  0  0  0  0
 45 38  1  0  0  0  0
 46 50  1  6  0  0  0
 46 44  1  0  0  0  0
 47 36  1  6  0  0  0
 48 50  2  0  0  0  0
 49 50  1  0  0  0  0
 52 53  2  0  0  0  0
 53 51  1  0  0  0  0
 54 55  1  0  0  0  0
 56 55  1  0  0  0  0
 56 57  1  1  0  0  0
 58 56  1  0  0  0  0
 59 58  1  0  0  0  0
 60 59  1  0  0  0  0
M  END
>  <MODEL>
1

>  <REMARK>
 VINA RESULT:      -5.7      0.000      0.000
  Name = 
  28 active torsions:
  status: ('A' for Active; 'I' for Inactive)
    1  A    between atoms: N_2  and  C_30
    2  A    between atoms: C_4  and  C_8
    3  A    between atoms: O_7  and  C_20
    4  A    between atoms: O_7  and  C_26
    5  A    between atoms: C_8  and  N_31
    6  A    between atoms: C_14  and  C_46
    7  A    between atoms: C_14  and  C_60
    8  A    between atoms: C_16  and  C_30
    9  A    between atoms: C_17  and  C_21
   10  A    between atoms: C_17  and  C_50
   11  A    between atoms: C_20  and  C_46
   12  A    between atoms: C_21  and  C_41
   13  A    between atoms: C_24  and  O_57
   14  A    between atoms: C_27  and  C_34
   15  A    between atoms: C_27  and  C_56
   16  A    between atoms: C_27  and  C_58
   17  A    between atoms: C_29  and  C_49
   18  A    between atoms: C_29  and  C_50
   19  A    between atoms: C_33  and  C_41
   20  A    between atoms: C_34  and  C_54
   21  A    between atoms: C_34  and  C_60
   22  A    between atoms: C_39  and  O_53
   23  A    between atoms: C_39  and  C_60
   24  A    between atoms: C_41  and  O_53
   25  A    between atoms: C_43  and  C_55
   26  A    between atoms: C_45  and  C_49
   27  A    between atoms: C_49  and  C_59
   28  A    between atoms: C_54  and  O_57
                            x       y       z     vdW  Elec       q    Type
                         _______ _______ _______ _____ _____    ______ ____

>  <TORSDO>
F 28

$$$$
=
 OpenBabel11062420393D

 60 63  0  0  1  0  0  0  0  0999 V2000
  193.2040  172.9890  143.6050 C   0  0  1  0  0  3  0  0  0  0  0  0
  192.4830  173.6490  144.7820 C   0  0  0  0  0  2  0  0  0  0  0  0
  191.1600  173.9330  144.4360 O   0  0  0  0  0  0  0  0  0  0  0  0
  190.9210  175.2240  144.9260 C   0  0  1  0  0  3  0  0  0  0  0  0
  191.8650  177.4350  144.1720 O   0  0  0  0  0  1  0  0  0  0  0  0
  190.7950  176.0500  142.6760 O   0  0  0  0  0  0  0  0  0  0  0  0
  191.1850  176.2510  143.8580 C   0  0  0  0  0  0  0  0  0  0  0  0
  189.3400  174.3740  146.7400 C   0  0  0  0  0  1  0  0  0  0  0  0
  189.5170  175.3010  145.5500 C   0  0  1  0  0  3  0  0  0  0  0  0
  188.9870  176.7090  145.8200 C   0  0  0  0  0  2  0  0  0  0  0  0
  187.7480  176.7130  146.7010 C   0  0  0  0  0  2  0  0  0  0  0  0
  186.4870  176.7300  145.8650 C   0  0  0  0  0  2  0  0  0  0  0  0
  186.2270  178.1390  145.3470 C   0  0  2  0  0  3  0  0  0  0  0  0
  184.2860  179.4700  144.9790 O   0  0  0  0  0  0  0  0  0  0  0  0
  184.8230  178.5450  145.6460 C   0  0  0  0  0  0  0  0  0  0  0  0
  184.1120  177.9350  146.6720 O   0  0  0  0  0  1  0  0  0  0  0  0
  186.1970  177.1920  143.0700 C   0  0  0  0  0  3  0  0  0  0  0  0
  186.4830  178.2170  143.8760 C   0  0  0  0  0  3  0  0  0  0  0  0
  187.5140  176.3460  141.0300 C   0  0  1  0  0  3  0  0  0  0  0  0
  187.8190  177.8320  141.2200 C   0  0  0  0  0  2  0  0  0  0  0  0
  186.4630  177.2870  141.6040 C   0  0  2  0  0  0  0  0  0  0  0  0
  185.3890  177.7130  140.7370 N   0  0  0  0  0  0  0  0  0  0  0  0
  184.6670  178.6000  141.0680 O   0  0  0  0  0  0  0  0  0  0  0  0
  187.3130  176.0540  139.5490 C   0  0  0  0  0  2  0  0  0  0  0  0
  187.9680  174.3800  137.7840 C   0  0  0  0  0  2  0  0  0  0  0  0
  188.0290  174.8510  139.1680 N   0  0  0  0  0  0  0  0  0  0  0  0
  188.9310  173.2600  137.5280 C   0  0  0  0  0  3  0  0  0  0  0  0
  188.6150  174.0470  140.1960 C   0  0  0  0  0  3  0  0  0  0  0  0
  189.3050  172.9950  139.8890 N   0  0  0  0  0  0  0  0  0  0  0  0
  189.5210  172.6100  138.5280 C   0  0  0  0  0  3  0  0  0  0  0  0
  194.5940  173.6110  143.3550 C   0  0  2  0  0  3  0  0  0  0  0  0
  194.5930  175.1070  143.6580 C   0  0  0  0  0  2  0  0  0  0  0  0
  195.4350  175.3870  144.7280 O   0  0  0  0  0  0  0  0  0  0  0  0
  194.8840  176.5330  145.3060 C   0  0  0  0  0  2  0  0  0  0  0  0
  194.2330  176.1990  146.4900 O   0  0  0  0  0  1  0  0  0  0  0  0
  195.1130  173.3410  141.9170 C   0  0  1  0  0  3  0  0  0  0  0  0
  195.6950  174.4050  139.6430 C   0  0  0  0  0  2  0  0  0  0  0  0
  194.5450  174.4610  137.4770 N   0  0  0  0  0  2  0  0  0  0  0  0
  193.3960  174.7360  140.5870 C   0  0  0  0  0  2  0  0  0  0  0  0
  193.7420  174.5650  135.1950 C   0  0  0  0  0  1  0  0  0  0  0  0
  193.8630  172.7200  139.0780 C   0  0  1  0  0  3  0  0  0  0  0  0
  195.0200  173.5760  138.5380 C   0  0  2  0  0  3  0  0  0  0  0  0
  192.8010  173.5640  139.7930 C   0  0  0  0  0  2  0  0  0  0  0  0
  193.2460  171.9030  137.9510 C   0  0  0  0  0  2  0  0  0  0  0  0
  194.1070  173.6450  136.3420 C   0  0  2  0  0  3  0  0  0  0  0  0
  192.9060  172.7690  136.7350 C   0  0  1  0  0  3  0  0  0  0  0  0
  194.8730  174.5320  140.9470 C   0  0  1  0  0  3  0  0  0  0  0  0
  191.1520  171.8320  135.2210 O   0  0  0  0  0  1  0  0  0  0  0  0
  193.3340  171.1720  135.0250 O   0  0  0  0  0  0  0  0  0  0  0  0
  192.4850  171.8880  135.6090 C   0  0  0  0  0  0  0  0  0  0  0  0
  197.3790  173.6480  142.6280 O   0  0  0  0  0  1  0  0  0  0  0  0
  197.0390  171.9100  141.1720 O   0  0  0  0  0  0  0  0  0  0  0  0
  196.5720  172.9720  141.9330 C   0  0  0  0  0  0  0  0  0  0  0  0
  193.2780  171.4780  143.7570 C   0  0  0  0  0  2  0  0  0  0  0  0
  192.7000  170.8030  142.5380 C   0  0  0  0  0  2  0  0  0  0  0  0
  191.2020  170.6290  142.6930 C   0  0  1  0  0  3  0  0  0  0  0  0
  190.5660  171.8150  142.3640 F   0  0  0  0  0  0  0  0  0  0  0  0
  190.7580  169.6140  141.8440 O   0  0  0  0  0  0  0  0  0  0  0  0
  191.6350  169.6480  140.7610 C   0  0  0  0  0  2  0  0  0  0  0  0
  190.9200  169.2720  139.4970 C   0  0  0  0  0  1  0  0  0  0  0  0
  1 54  1  1  0  0  0
  1  2  1  0  0  0  0
  3  2  1  0  0  0  0
  3  4  1  0  0  0  0
  4  7  1  6  0  0  0
  4  9  1  0  0  0  0
  6  7  2  0  0  0  0
  7  5  1  0  0  0  0
  9 10  1  0  0  0  0
  9  8  1  1  0  0  0
 10 11  1  0  0  0  0
 12 11  1  0  0  0  0
 13 18  1  6  0  0  0
 13 15  1  0  0  0  0
 13 12  1  0  0  0  0
 14 15  2  0  0  0  0
 15 16  1  0  0  0  0
 17 18  2  0  0  0  0
 19 24  1  6  0  0  0
 19 20  1  0  0  0  0
 19 21  1  0  0  0  0
 20 21  1  0  0  0  0
 21 17  1  1  0  0  0
 22 23  2  0  0  0  0
 22 21  1  0  0  0  0
 25 26  1  0  0  0  0
 26 24  1  0  0  0  0
 26 28  1  0  0  0  0
 27 25  1  0  0  0  0
 27 30  2  0  0  0  0
 29 28  2  0  0  0  0
 30 29  1  0  0  0  0
 31  1  1  0  0  0  0
 31 32  1  6  0  0  0
 32 33  1  0  0  0  0
 33 34  1  0  0  0  0
 34 35  1  0  0  0  0
 36 53  1  1  0  0  0
 36 31  1  0  0  0  0
 37 47  1  0  0  0  0
 38 42  1  0  0  0  0
 39 47  1  0  0  0  0
 41 44  1  6  0  0  0
 41 43  1  0  0  0  0
 42 41  1  0  0  0  0
 42 37  1  1  0  0  0
 43 39  1  0  0  0  0
 45 40  1  6  0  0  0
 45 46  1  0  0  0  0
 45 38  1  0  0  0  0
 46 50  1  6  0  0  0
 46 44  1  0  0  0  0
 47 36  1  1  0  0  0
 48 50  1  0  0  0  0
 49 50  2  0  0  0  0
 52 53  2  0  0  0  0
 53 51  1  0  0  0  0
 55 56  1  0  0  0  0
 55 54  1  0  0  0  0
 56 57  1  6  0  0  0
 58 56  1  0  0  0  0
 59 58  1  0  0  0  0
 60 59  1  0  0  0  0
M  END
>  <MODEL>
2

>  <REMARK>
 VINA RESULT:      -5.6      1.696      2.181
  Name = 
  28 active torsions:
  status: ('A' for Active; 'I' for Inactive)
    1  A    between atoms: N_2  and  C_30
    2  A    between atoms: C_4  and  C_8
    3  A    between atoms: O_7  and  C_20
    4  A    between atoms: O_7  and  C_26
    5  A    between atoms: C_8  and  N_31
    6  A    between atoms: C_14  and  C_46
    7  A    between atoms: C_14  and  C_60
    8  A    between atoms: C_16  and  C_30
    9  A    between atoms: C_17  and  C_21
   10  A    between atoms: C_17  and  C_50
   11  A    between atoms: C_20  and  C_46
   12  A    between atoms: C_21  and  C_41
   13  A    between atoms: C_24  and  O_57
   14  A    between atoms: C_27  and  C_34
   15  A    between atoms: C_27  and  C_56
   16  A    between atoms: C_27  and  C_58
   17  A    between atoms: C_29  and  C_49
   18  A    between atoms: C_29  and  C_50
   19  A    between atoms: C_33  and  C_41
   20  A    between atoms: C_34  and  C_54
   21  A    between atoms: C_34  and  C_60
   22  A    between atoms: C_39  and  O_53
   23  A    between atoms: C_39  and  C_60
   24  A    between atoms: C_41  and  O_53
   25  A    between atoms: C_43  and  C_55
   26  A    between atoms: C_45  and  C_49
   27  A    between atoms: C_49  and  C_59
   28  A    between atoms: C_54  and  O_57
                            x       y       z     vdW  Elec       q    Type
                         _______ _______ _______ _____ _____    ______ ____

>  <TORSDO>
F 28

$$$$
=
 OpenBabel11062420393D

 60 63  0  0  1  0  0  0  0  0999 V2000
  189.3670  173.9800  140.8180 C   0  0  1  0  0  3  0  0  0  0  0  0
  188.1630  174.7400  141.3770 C   0  0  0  0  0  2  0  0  0  0  0  0
  188.0580  175.9910  140.7640 O   0  0  0  0  0  0  0  0  0  0  0  0
  187.7270  176.8800  141.7960 C   0  0  1  0  0  3  0  0  0  0  0  0
  189.6750  177.0260  143.3870 O   0  0  0  0  0  1  0  0  0  0  0  0
  189.3540  178.6440  141.7800 O   0  0  0  0  0  0  0  0  0  0  0  0
  188.9600  177.5710  142.3130 C   0  0  0  0  0  0  0  0  0  0  0  0
  186.0260  177.4580  139.9830 C   0  0  0  0  0  1  0  0  0  0  0  0
  186.6090  177.8310  141.3350 C   0  0  1  0  0  3  0  0  0  0  0  0
  185.5300  178.1390  142.3740 C   0  0  0  0  0  2  0  0  0  0  0  0
  185.6600  177.2870  143.6260 C   0  0  0  0  0  2  0  0  0  0  0  0
  186.2640  178.0810  144.7630 C   0  0  0  0  0  2  0  0  0  0  0  0
  186.5270  177.1660  145.9540 C   0  0  2  0  0  3  0  0  0  0  0  0
  185.8510  177.1730  148.2370 O   0  0  0  0  0  1  0  0  0  0  0  0
  185.5510  177.4500  147.0450 C   0  0  0  0  0  0  0  0  0  0  0  0
  184.3030  177.9900  146.7580 O   0  0  0  0  0  0  0  0  0  0  0  0
  188.7270  176.2890  146.6430 C   0  0  0  0  0  3  0  0  0  0  0  0
  187.9250  177.3400  146.4540 C   0  0  0  0  0  3  0  0  0  0  0  0
  191.2310  175.7650  146.3940 C   0  0  1  0  0  3  0  0  0  0  0  0
  190.7660  175.2640  147.7620 C   0  0  0  0  0  2  0  0  0  0  0  0
  190.1180  176.4820  147.1470 C   0  0  2  0  0  0  0  0  0  0  0  0
  190.4420  177.7230  147.8140 N   0  0  0  0  0  0  0  0  0  0  0  0
  191.1620  177.7240  148.7620 O   0  0  0  0  0  0  0  0  0  0  0  0
  192.5870  176.4450  146.5360 C   0  0  0  0  0  2  0  0  0  0  0  0
  194.4100  176.5960  144.8040 C   0  0  0  0  0  2  0  0  0  0  0  0
  193.5720  175.7920  145.6950 N   0  0  0  0  0  0  0  0  0  0  0  0
  195.5050  175.7840  144.1780 C   0  0  0  0  0  3  0  0  0  0  0  0
  193.5640  174.3640  145.6120 C   0  0  0  0  0  3  0  0  0  0  0  0
  194.4610  173.7450  144.9120 N   0  0  0  0  0  0  0  0  0  0  0  0
  195.4910  174.4540  144.2170 C   0  0  0  0  0  3  0  0  0  0  0  0
  190.0430  173.0970  141.8880 C   0  0  2  0  0  3  0  0  0  0  0  0
  190.3920  173.9080  143.1330 C   0  0  0  0  0  2  0  0  0  0  0  0
  189.4010  173.7670  144.0980 O   0  0  0  0  0  0  0  0  0  0  0  0
  189.9470  172.8700  145.0190 C   0  0  0  0  0  2  0  0  0  0  0  0
  189.2900  171.6460  144.9350 O   0  0  0  0  0  1  0  0  0  0  0  0
  191.2950  172.3600  141.3420 C   0  0  1  0  0  3  0  0  0  0  0  0
  193.8200  171.9620  141.6750 C   0  0  0  0  0  2  0  0  0  0  0  0
  195.8120  172.7650  140.4910 N   0  0  0  0  0  2  0  0  0  0  0  0
  192.9920  174.3060  141.3490 C   0  0  0  0  0  2  0  0  0  0  0  0
  197.9410  173.2560  139.4480 C   0  0  0  0  0  1  0  0  0  0  0  0
  193.6570  172.9080  139.3100 C   0  0  1  0  0  3  0  0  0  0  0  0
  194.5140  172.1180  140.3120 C   0  0  2  0  0  3  0  0  0  0  0  0
  193.2730  174.2940  139.8400 C   0  0  0  0  0  2  0  0  0  0  0  0
  194.3790  173.0130  137.9730 C   0  0  0  0  0  2  0  0  0  0  0  0
  196.5470  172.7070  139.2260 C   0  0  2  0  0  3  0  0  0  0  0  0
  195.8170  173.5100  138.1370 C   0  0  1  0  0  3  0  0  0  0  0  0
  192.6300  172.9230  141.9060 C   0  0  1  0  0  3  0  0  0  0  0  0
  197.1720  174.5180  136.2930 O   0  0  0  0  0  1  0  0  0  0  0  0
  196.5030  172.3320  136.1870 O   0  0  0  0  0  0  0  0  0  0  0  0
  196.5210  173.4110  136.8260 C   0  0  0  0  0  0  0  0  0  0  0  0
  190.8500  170.1030  140.6760 O   0  0  0  0  0  0  0  0  0  0  0  0
  191.4860  170.3690  142.8630 O   0  0  0  0  0  1  0  0  0  0  0  0
  191.2050  170.8800  141.6040 C   0  0  0  0  0  0  0  0  0  0  0  0
  189.0100  173.1870  139.5710 C   0  0  0  0  0  2  0  0  0  0  0  0
  189.6530  173.8090  138.3560 C   0  0  0  0  0  2  0  0  0  0  0  0
  189.9620  172.7460  137.3210 C   0  0  1  0  0  3  0  0  0  0  0  0
  191.2780  172.8750  136.9090 F   0  0  0  0  0  0  0  0  0  0  0  0
  189.7730  171.4800  137.8780 O   0  0  0  0  0  0  0  0  0  0  0  0
  189.8990  170.5990  136.8050 C   0  0  0  0  0  2  0  0  0  0  0  0
  190.2410  169.2230  137.2980 C   0  0  0  0  0  1  0  0  0  0  0  0
  1 54  1  6  0  0  0
  1  2  1  0  0  0  0
  1 31  1  0  0  0  0
  3  2  1  0  0  0  0
  4  3  1  6  0  0  0
  4  7  1  0  0  0  0
  6  7  2  0  0  0  0
  7  5  1  0  0  0  0
  9  8  1  6  0  0  0
  9  4  1  0  0  0  0
  9 10  1  0  0  0  0
 10 11  1  0  0  0  0
 11 12  1  0  0  0  0
 13 12  1  6  0  0  0
 13 18  1  0  0  0  0
 13 15  1  0  0  0  0
 15 14  1  0  0  0  0
 16 15  2  0  0  0  0
 18 17  2  0  0  0  0
 19 24  1  1  0  0  0
 19 21  1  0  0  0  0
 19 20  1  0  0  0  0
 21 17  1  6  0  0  0
 21 20  1  0  0  0  0
 21 22  1  0  0  0  0
 22 23  2  0  0  0  0
 25 26  1  0  0  0  0
 26 24  1  0  0  0  0
 27 30  2  0  0  0  0
 27 25  1  0  0  0  0
 28 26  1  0  0  0  0
 29 28  2  0  0  0  0
 30 29  1  0  0  0  0
 31 32  1  1  0  0  0
 32 33  1  0  0  0  0
 33 34  1  0  0  0  0
 35 34  1  0  0  0  0
 36 53  1  1  0  0  0
 36 31  1  0  0  0  0
 37 47  1  0  0  0  0
 39 47  1  0  0  0  0
 41 44  1  6  0  0  0
 41 43  1  0  0  0  0
 41 42  1  0  0  0  0
 42 38  1  0  0  0  0
 42 37  1  1  0  0  0
 43 39  1  0  0  0  0
 44 46  1  0  0  0  0
 45 40  1  1  0  0  0
 45 38  1  0  0  0  0
 46 50  1  6  0  0  0
 46 45  1  0  0  0  0
 47 36  1  6  0  0  0
 48 50  1  0  0  0  0
 49 50  2  0  0  0  0
 51 53  2  0  0  0  0
 53 52  1  0  0  0  0
 55 54  1  0  0  0  0
 56 57  1  1  0  0  0
 56 58  1  0  0  0  0
 56 55  1  0  0  0  0
 59 60  1  0  0  0  0
 59 58  1  0  0  0  0
M  END
>  <MODEL>
3

>  <REMARK>
 VINA RESULT:      -5.5      3.278      6.152
  Name = 
  28 active torsions:
  status: ('A' for Active; 'I' for Inactive)
    1  A    between atoms: N_2  and  C_30
    2  A    between atoms: C_4  and  C_8
    3  A    between atoms: O_7  and  C_20
    4  A    between atoms: O_7  and  C_26
    5  A    between atoms: C_8  and  N_31
    6  A    between atoms: C_14  and  C_46
    7  A    between atoms: C_14  and  C_60
    8  A    between atoms: C_16  and  C_30
    9  A    between atoms: C_17  and  C_21
   10  A    between atoms: C_17  and  C_50
   11  A    between atoms: C_20  and  C_46
   12  A    between atoms: C_21  and  C_41
   13  A    between atoms: C_24  and  O_57
   14  A    between atoms: C_27  and  C_34
   15  A    between atoms: C_27  and  C_56
   16  A    between atoms: C_27  and  C_58
   17  A    between atoms: C_29  and  C_49
   18  A    between atoms: C_29  and  C_50
   19  A    between atoms: C_33  and  C_41
   20  A    between atoms: C_34  and  C_54
   21  A    between atoms: C_34  and  C_60
   22  A    between atoms: C_39  and  O_53
   23  A    between atoms: C_39  and  C_60
   24  A    between atoms: C_41  and  O_53
   25  A    between atoms: C_43  and  C_55
   26  A    between atoms: C_45  and  C_49
   27  A    between atoms: C_49  and  C_59
   28  A    between atoms: C_54  and  O_57
                            x       y       z     vdW  Elec       q    Type
                         _______ _______ _______ _____ _____    ______ ____

>  <TORSDO>
F 28

$$$$
=
 OpenBabel11062420393D

 60 63  0  0  1  0  0  0  0  0999 V2000
  195.3700  172.0230  141.8070 C   0  0  1  0  0  3  0  0  0  0  0  0
  194.4430  171.0060  141.1390 C   0  0  0  0  0  2  0  0  0  0  0  0
  193.3610  171.6610  140.5450 O   0  0  0  0  0  0  0  0  0  0  0  0
  192.9850  170.8470  139.4680 C   0  0  1  0  0  3  0  0  0  0  0  0
  194.5890  169.0650  138.6930 O   0  0  0  0  0  1  0  0  0  0  0  0
  194.8600  171.2520  138.0270 O   0  0  0  0  0  0  0  0  0  0  0  0
  194.1950  170.4090  138.6880 C   0  0  0  0  0  0  0  0  0  0  0  0
  191.2530  170.0650  141.1730 C   0  0  0  0  0  1  0  0  0  0  0  0
  192.0960  169.6930  139.9650 C   0  0  1  0  0  3  0  0  0  0  0  0
  191.2890  168.9670  138.8880 C   0  0  0  0  0  2  0  0  0  0  0  0
  191.0740  169.8140  137.6430 C   0  0  0  0  0  2  0  0  0  0  0  0
  189.6190  170.2000  137.4930 C   0  0  0  0  0  2  0  0  0  0  0  0
  189.4830  171.7180  137.4880 C   0  0  2  0  0  3  0  0  0  0  0  0
  191.4040  173.1110  137.2940 O   0  0  0  0  0  1  0  0  0  0  0  0
  190.6010  172.3310  136.7150 C   0  0  0  0  0  0  0  0  0  0  0  0
  190.7490  172.0750  135.3580 O   0  0  0  0  0  0  0  0  0  0  0  0
  188.4060  172.9040  139.3630 C   0  0  0  0  0  3  0  0  0  0  0  0
  189.4680  172.2520  138.8850 C   0  0  0  0  0  3  0  0  0  0  0  0
  188.3070  174.9430  140.9270 C   0  0  1  0  0  3  0  0  0  0  0  0
  189.6370  174.2230  141.1550 C   0  0  0  0  0  2  0  0  0  0  0  0
  188.4110  173.4330  140.7590 C   0  0  2  0  0  0  0  0  0  0  0  0
  187.8840  172.5960  141.8120 N   0  0  0  0  0  0  0  0  0  0  0  0
  188.6030  172.1810  142.6660 O   0  0  0  0  0  0  0  0  0  0  0  0
  187.7180  175.3580  142.2680 C   0  0  0  0  0  2  0  0  0  0  0  0
  186.6420  177.1260  140.8320 C   0  0  0  0  0  2  0  0  0  0  0  0
  186.6890  176.3630  142.0800 N   0  0  0  0  0  0  0  0  0  0  0  0
  185.3980  177.9570  140.7270 C   0  0  0  0  0  3  0  0  0  0  0  0
  185.8670  176.7210  143.1940 C   0  0  0  0  0  3  0  0  0  0  0  0
  184.9060  177.5770  143.0500 N   0  0  0  0  0  0  0  0  0  0  0  0
  184.6190  178.1770  141.7830 C   0  0  0  0  0  3  0  0  0  0  0  0
  195.5790  171.7190  143.3060 C   0  0  2  0  0  3  0  0  0  0  0  0
  194.7130  170.5450  143.7570 C   0  0  0  0  0  2  0  0  0  0  0  0
  195.4810  169.6140  144.4480 O   0  0  0  0  0  0  0  0  0  0  0  0
  194.5700  168.9900  145.3040 C   0  0  0  0  0  2  0  0  0  0  0  0
  193.2850  169.0810  144.7770 O   0  0  0  0  0  1  0  0  0  0  0  0
  195.3300  172.9620  144.2020 C   0  0  1  0  0  3  0  0  0  0  0  0
  193.8100  174.0900  145.9510 C   0  0  0  0  0  2  0  0  0  0  0  0
  191.7730  175.4440  145.7750 N   0  0  0  0  0  2  0  0  0  0  0  0
  192.7610  172.7290  144.1270 C   0  0  0  0  0  2  0  0  0  0  0  0
  189.8600  176.9210  145.9240 C   0  0  0  0  0  1  0  0  0  0  0  0
  193.1690  175.2300  143.7590 C   0  0  1  0  0  3  0  0  0  0  0  0
  193.1460  175.3120  145.2940 C   0  0  2  0  0  3  0  0  0  0  0  0
  192.5030  173.9520  143.2350 C   0  0  0  0  0  2  0  0  0  0  0  0
  192.5210  176.4710  143.1600 C   0  0  0  0  0  2  0  0  0  0  0  0
  191.2320  176.7250  145.3140 C   0  0  2  0  0  3  0  0  0  0  0  0
  191.1500  176.7570  143.7780 C   0  0  1  0  0  3  0  0  0  0  0  0
  194.0060  172.8790  145.0110 C   0  0  1  0  0  3  0  0  0  0  0  0
  189.5900  178.1430  142.4040 O   0  0  0  0  0  0  0  0  0  0  0  0
  191.2300  179.1320  143.6560 O   0  0  0  0  0  1  0  0  0  0  0  0
  190.6590  178.0770  143.2890 C   0  0  0  0  0  0  0  0  0  0  0  0
  197.1830  174.2440  145.0140 O   0  0  0  0  0  0  0  0  0  0  0  0
  196.8190  172.2570  146.0990 O   0  0  0  0  0  1  0  0  0  0  0  0
  196.4910  173.1960  145.1310 C   0  0  0  0  0  0  0  0  0  0  0  0
  196.6920  172.1600  141.0680 C   0  0  0  0  0  2  0  0  0  0  0  0
  196.8090  173.5360  140.4610 C   0  0  0  0  0  2  0  0  0  0  0  0
  195.5410  174.3290  140.7080 C   0  0  1  0  0  3  0  0  0  0  0  0
  195.8730  175.6020  141.1420 F   0  0  0  0  0  0  0  0  0  0  0  0
  194.8070  174.4210  139.5240 O   0  0  0  0  0  0  0  0  0  0  0  0
  195.6600  175.0630  138.6270 C   0  0  0  0  0  2  0  0  0  0  0  0
  195.1120  174.9770  137.2320 C   0  0  0  0  0  1  0  0  0  0  0  0
  1 54  1  6  0  0  0
  1 31  1  0  0  0  0
  2  1  1  0  0  0  0
  3  2  1  0  0  0  0
  4  7  1  1  0  0  0
  4  9  1  0  0  0  0
  4  3  1  0  0  0  0
  6  7  2  0  0  0  0
  7  5  1  0  0  0  0
  9  8  1  1  0  0  0
 10  9  1  0  0  0  0
 11 10  1  0  0  0  0
 12 11  1  0  0  0  0
 13 12  1  1  0  0  0
 13 18  1  0  0  0  0
 15 14  1  0  0  0  0
 15 13  1  0  0  0  0
 16 15  2  0  0  0  0
 18 17  2  0  0  0  0
 19 20  1  0  0  0  0
 19 24  1  1  0  0  0
 21 17  1  6  0  0  0
 21 19  1  0  0  0  0
 21 20  1  0  0  0  0
 21 22  1  0  0  0  0
 22 23  2  0  0  0  0
 25 26  1  0  0  0  0
 26 24  1  0  0  0  0
 26 28  1  0  0  0  0
 27 25  1  0  0  0  0
 27 30  2  0  0  0  0
 29 28  2  0  0  0  0
 30 29  1  0  0  0  0
 31 32  1  1  0  0  0
 31 36  1  0  0  0  0
 32 33  1  0  0  0  0
 33 34  1  0  0  0  0
 35 34  1  0  0  0  0
 36 53  1  1  0  0  0
 39 47  1  0  0  0  0
 41 44  1  6  0  0  0
 41 42  1  0  0  0  0
 42 38  1  0  0  0  0
 42 37  1  1  0  0  0
 43 41  1  0  0  0  0
 43 39  1  0  0  0  0
 44 46  1  0  0  0  0
 45 38  1  0  0  0  0
 45 40  1  1  0  0  0
 46 50  1  1  0  0  0
 46 45  1  0  0  0  0
 47 36  1  6  0  0  0
 47 37  1  0  0  0  0
 48 50  2  0  0  0  0
 50 49  1  0  0  0  0
 51 53  2  0  0  0  0
 53 52  1  0  0  0  0
 55 56  1  0  0  0  0
 55 54  1  0  0  0  0
 56 57  1  6  0  0  0
 58 56  1  0  0  0  0
 59 58  1  0  0  0  0
 60 59  1  0  0  0  0
M  END
>  <MODEL>
4

>  <REMARK>
 VINA RESULT:      -5.1      2.789      7.456
  Name = 
  28 active torsions:
  status: ('A' for Active; 'I' for Inactive)
    1  A    between atoms: N_2  and  C_30
    2  A    between atoms: C_4  and  C_8
    3  A    between atoms: O_7  and  C_20
    4  A    between atoms: O_7  and  C_26
    5  A    between atoms: C_8  and  N_31
    6  A    between atoms: C_14  and  C_46
    7  A    between atoms: C_14  and  C_60
    8  A    between atoms: C_16  and  C_30
    9  A    between atoms: C_17  and  C_21
   10  A    between atoms: C_17  and  C_50
   11  A    between atoms: C_20  and  C_46
   12  A    between atoms: C_21  and  C_41
   13  A    between atoms: C_24  and  O_57
   14  A    between atoms: C_27  and  C_34
   15  A    between atoms: C_27  and  C_56
   16  A    between atoms: C_27  and  C_58
   17  A    between atoms: C_29  and  C_49
   18  A    between atoms: C_29  and  C_50
   19  A    between atoms: C_33  and  C_41
   20  A    between atoms: C_34  and  C_54
   21  A    between atoms: C_34  and  C_60
   22  A    between atoms: C_39  and  O_53
   23  A    between atoms: C_39  and  C_60
   24  A    between atoms: C_41  and  O_53
   25  A    between atoms: C_43  and  C_55
   26  A    between atoms: C_45  and  C_49
   27  A    between atoms: C_49  and  C_59
   28  A    between atoms: C_54  and  O_57
                            x       y       z     vdW  Elec       q    Type
                         _______ _______ _______ _____ _____    ______ ____

>  <TORSDO>
F 28

$$$$
=
 OpenBabel11062420393D

 60 63  0  0  1  0  0  0  0  0999 V2000
  192.3740  172.0750  143.1950 C   0  0  1  0  0  3  0  0  0  0  0  0
  192.8500  172.6390  144.5340 C   0  0  0  0  0  2  0  0  0  0  0  0
  192.7780  174.0340  144.5200 O   0  0  0  0  0  0  0  0  0  0  0  0
  193.8170  174.4650  145.3570 C   0  0  1  0  0  3  0  0  0  0  0  0
  196.2390  174.9470  144.8610 O   0  0  0  0  0  1  0  0  0  0  0  0
  194.5730  175.9240  143.6070 O   0  0  0  0  0  0  0  0  0  0  0  0
  194.8880  175.1550  144.5560 C   0  0  0  0  0  0  0  0  0  0  0  0
  193.9650  176.6270  146.7050 C   0  0  0  0  0  1  0  0  0  0  0  0
  193.2480  175.3020  146.5160 C   0  0  1  0  0  3  0  0  0  0  0  0
  191.7260  175.4490  146.5420 C   0  0  0  0  0  2  0  0  0  0  0  0
  191.2690  176.8780  146.2950 C   0  0  0  0  0  2  0  0  0  0  0  0
  189.7680  176.9450  146.1210 C   0  0  0  0  0  2  0  0  0  0  0  0
  189.4210  177.0300  144.6390 C   0  0  2  0  0  3  0  0  0  0  0  0
  191.3440  176.8250  143.2490 O   0  0  0  0  0  0  0  0  0  0  0  0
  190.5690  177.5970  143.8740 C   0  0  0  0  0  0  0  0  0  0  0  0
  190.8100  178.9650  143.8680 O   0  0  0  0  0  1  0  0  0  0  0  0
  187.1810  177.8290  145.2920 C   0  0  0  0  0  3  0  0  0  0  0  0
  188.1990  177.8660  144.4290 C   0  0  0  0  0  3  0  0  0  0  0  0
  185.1980  178.4330  143.7720 C   0  0  1  0  0  3  0  0  0  0  0  0
  186.0710  179.6760  143.9430 C   0  0  0  0  0  2  0  0  0  0  0  0
  185.9680  178.6690  145.0640 C   0  0  2  0  0  0  0  0  0  0  0  0
  185.2330  179.1400  146.2150 N   0  0  0  0  0  0  0  0  0  0  0  0
  185.7420  179.1440  147.2910 O   0  0  0  0  0  0  0  0  0  0  0  0
  183.7300  178.8270  143.8680 C   0  0  0  0  0  2  0  0  0  0  0  0
  183.8390  178.2320  141.4230 C   0  0  0  0  0  2  0  0  0  0  0  0
  183.0540  178.5730  142.6100 N   0  0  0  0  0  0  0  0  0  0  0  0
  182.9700  177.7980  140.2800 C   0  0  0  0  0  3  0  0  0  0  0  0
  181.6550  178.8550  142.5130 C   0  0  0  0  0  3  0  0  0  0  0  0
  181.0090  178.5940  141.4220 N   0  0  0  0  0  0  0  0  0  0  0  0
  181.6550  178.0030  140.2900 C   0  0  0  0  0  3  0  0  0  0  0  0
  193.3430  171.0120  142.6360 C   0  0  2  0  0  3  0  0  0  0  0  0
  194.7000  171.0820  143.3310 C   0  0  0  0  0  2  0  0  0  0  0  0
  195.1550  169.8040  143.6370 O   0  0  0  0  0  0  0  0  0  0  0  0
  195.2240  169.7930  145.0330 C   0  0  0  0  0  2  0  0  0  0  0  0
  195.7690  170.9890  145.4900 O   0  0  0  0  0  1  0  0  0  0  0  0
  193.5080  171.1120  141.0960 C   0  0  1  0  0  3  0  0  0  0  0  0
  195.1540  171.6010  139.1740 C   0  0  0  0  0  2  0  0  0  0  0  0
  195.4790  173.5320  137.6980 N   0  0  0  0  0  2  0  0  0  0  0  0
  194.8100  173.3360  140.9500 C   0  0  0  0  0  2  0  0  0  0  0  0
  195.9440  175.1990  136.0040 C   0  0  0  0  0  1  0  0  0  0  0  0
  193.3210  173.3500  138.8670 C   0  0  1  0  0  3  0  0  0  0  0  0
  194.4840  172.5910  138.2080 C   0  0  2  0  0  3  0  0  0  0  0  0
  193.7570  174.0980  140.1310 C   0  0  0  0  0  2  0  0  0  0  0  0
  192.6790  174.2980  137.8630 C   0  0  0  0  0  2  0  0  0  0  0  0
  194.8760  174.3210  136.6210 C   0  0  2  0  0  3  0  0  0  0  0  0
  193.7180  175.1770  137.1610 C   0  0  1  0  0  3  0  0  0  0  0  0
  194.8180  171.8290  140.6660 C   0  0  1  0  0  3  0  0  0  0  0  0
  192.3200  175.2760  135.0910 O   0  0  0  0  0  0  0  0  0  0  0  0
  193.1780  177.1880  136.0090 O   0  0  0  0  0  1  0  0  0  0  0  0
  193.0530  175.9410  136.0670 C   0  0  0  0  0  0  0  0  0  0  0  0
  194.3260  168.8980  140.6920 O   0  0  0  0  0  1  0  0  0  0  0  0
  192.3870  169.4380  139.5940 O   0  0  0  0  0  0  0  0  0  0  0  0
  193.4270  169.7520  140.4560 C   0  0  0  0  0  0  0  0  0  0  0  0
  190.9470  171.5550  143.2710 C   0  0  0  0  0  2  0  0  0  0  0  0
  189.9970  172.5460  142.6440 C   0  0  0  0  0  2  0  0  0  0  0  0
  190.3230  172.7300  141.1750 C   0  0  1  0  0  3  0  0  0  0  0  0
  190.0210  171.5650  140.4890 F   0  0  0  0  0  0  0  0  0  0  0  0
  189.5670  173.7820  140.6560 O   0  0  0  0  0  0  0  0  0  0  0  0
  189.2510  174.5710  141.7600 C   0  0  0  0  0  2  0  0  0  0  0  0
  187.8070  174.9770  141.7170 C   0  0  0  0  0  1  0  0  0  0  0  0
  1 54  1  1  0  0  0
  1  2  1  0  0  0  0
  3  2  1  0  0  0  0
  4  3  1  6  0  0  0
  4  9  1  0  0  0  0
  6  7  2  0  0  0  0
  7  5  1  0  0  0  0
  7  4  1  0  0  0  0
  9 10  1  0  0  0  0
  9  8  1  6  0  0  0
 11 10  1  0  0  0  0
 12 11  1  0  0  0  0
 13 18  1  1  0  0  0
 13 12  1  0  0  0  0
 14 15  2  0  0  0  0
 15 13  1  0  0  0  0
 16 15  1  0  0  0  0
 18 17  2  0  0  0  0
 19 24  1  1  0  0  0
 19 20  1  0  0  0  0
 19 21  1  0  0  0  0
 20 21  1  0  0  0  0
 21 17  1  1  0  0  0
 21 22  1  0  0  0  0
 22 23  2  0  0  0  0
 25 26  1  0  0  0  0
 26 24  1  0  0  0  0
 27 30  2  0  0  0  0
 27 25  1  0  0  0  0
 28 26  1  0  0  0  0
 29 28  2  0  0  0  0
 30 29  1  0  0  0  0
 31  1  1  0  0  0  0
 31 32  1  1  0  0  0
 32 33  1  0  0  0  0
 33 34  1  0  0  0  0
 34 35  1  0  0  0  0
 36 53  1  6  0  0  0
 36 31  1  0  0  0  0
 37 47  1  0  0  0  0
 38 42  1  0  0  0  0
 41 44  1  6  0  0  0
 41 43  1  0  0  0  0
 42 41  1  0  0  0  0
 42 37  1  1  0  0  0
 43 39  1  0  0  0  0
 45 40  1  1  0  0  0
 45 46  1  0  0  0  0
 45 38  1  0  0  0  0
 46 50  1  6  0  0  0
 46 44  1  0  0  0  0
 47 39  1  0  0  0  0
 47 36  1  6  0  0  0
 48 50  2  0  0  0  0
 49 50  1  0  0  0  0
 52 53  2  0  0  0  0
 53 51  1  0  0  0  0
 55 54  1  0  0  0  0
 56 57  1  6  0  0  0
 56 55  1  0  0  0  0
 58 56  1  0  0  0  0
 58 59  1  0  0  0  0
 60 59  1  0  0  0  0
M  END
>  <MODEL>
5

>  <REMARK>
 VINA RESULT:      -4.9      2.692      5.513
  Name = 
  28 active torsions:
  status: ('A' for Active; 'I' for Inactive)
    1  A    between atoms: N_2  and  C_30
    2  A    between atoms: C_4  and  C_8
    3  A    between atoms: O_7  and  C_20
    4  A    between atoms: O_7  and  C_26
    5  A    between atoms: C_8  and  N_31
    6  A    between atoms: C_14  and  C_46
    7  A    between atoms: C_14  and  C_60
    8  A    between atoms: C_16  and  C_30
    9  A    between atoms: C_17  and  C_21
   10  A    between atoms: C_17  and  C_50
   11  A    between atoms: C_20  and  C_46
   12  A    between atoms: C_21  and  C_41
   13  A    between atoms: C_24  and  O_57
   14  A    between atoms: C_27  and  C_34
   15  A    between atoms: C_27  and  C_56
   16  A    between atoms: C_27  and  C_58
   17  A    between atoms: C_29  and  C_49
   18  A    between atoms: C_29  and  C_50
   19  A    between atoms: C_33  and  C_41
   20  A    between atoms: C_34  and  C_54
   21  A    between atoms: C_34  and  C_60
   22  A    between atoms: C_39  and  O_53
   23  A    between atoms: C_39  and  C_60
   24  A    between atoms: C_41  and  O_53
   25  A    between atoms: C_43  and  C_55
   26  A    between atoms: C_45  and  C_49
   27  A    between atoms: C_49  and  C_59
   28  A    between atoms: C_54  and  O_57
                            x       y       z     vdW  Elec       q    Type
                         _______ _______ _______ _____ _____    ______ ____

>  <TORSDO>
F 28

$$$$
=
 OpenBabel11062420393D

 60 63  0  0  1  0  0  0  0  0999 V2000
  193.7640  173.3050  143.8380 C   0  0  1  0  0  3  0  0  0  0  0  0
  193.1280  174.6330  144.2520 C   0  0  0  0  0  2  0  0  0  0  0  0
  192.7390  174.5820  145.5930 O   0  0  0  0  0  0  0  0  0  0  0  0
  192.2250  175.8550  145.8760 C   0  0  1  0  0  3  0  0  0  0  0  0
  194.0400  177.5320  145.3880 O   0  0  0  0  0  1  0  0  0  0  0  0
  192.3350  177.1840  143.8800 O   0  0  0  0  0  0  0  0  0  0  0  0
  192.8610  176.8900  144.9880 C   0  0  0  0  0  0  0  0  0  0  0  0
  190.0650  175.0170  146.9460 C   0  0  0  0  0  1  0  0  0  0  0  0
  190.6880  175.8270  145.8220 C   0  0  1  0  0  3  0  0  0  0  0  0
  190.0060  177.1820  145.6280 C   0  0  0  0  0  2  0  0  0  0  0  0
  188.5520  177.1780  146.0710 C   0  0  0  0  0  2  0  0  0  0  0  0
  187.6610  176.5830  145.0030 C   0  0  0  0  0  2  0  0  0  0  0  0
  188.2020  176.9330  143.6220 C   0  0  2  0  0  3  0  0  0  0  0  0
  187.4490  178.1950  141.7480 O   0  0  0  0  0  0  0  0  0  0  0  0
  187.3470  177.9750  142.9840 C   0  0  0  0  0  0  0  0  0  0  0  0
  186.4600  178.7280  143.7440 O   0  0  0  0  0  1  0  0  0  0  0  0
  189.3910  175.0120  142.6320 C   0  0  0  0  0  3  0  0  0  0  0  0
  188.2640  175.7160  142.7550 C   0  0  0  0  0  3  0  0  0  0  0  0
  188.4270  173.7370  140.6190 C   0  0  1  0  0  3  0  0  0  0  0  0
  188.2460  172.8750  141.8690 C   0  0  0  0  0  2  0  0  0  0  0  0
  189.4340  173.8020  141.7600 C   0  0  2  0  0  0  0  0  0  0  0  0
  190.6980  173.1230  141.5880 N   0  0  0  0  0  0  0  0  0  0  0  0
  191.6180  173.6870  141.0850 O   0  0  0  0  0  0  0  0  0  0  0  0
  188.8890  172.8610  139.4610 C   0  0  0  0  0  2  0  0  0  0  0  0
  190.0420  173.5160  137.3190 C   0  0  0  0  0  2  0  0  0  0  0  0
  188.8970  173.6200  138.2240 N   0  0  0  0  0  0  0  0  0  0  0  0
  189.7840  174.1940  136.0060 C   0  0  0  0  0  3  0  0  0  0  0  0
  187.8770  174.6000  138.0140 C   0  0  0  0  0  3  0  0  0  0  0  0
  187.8230  175.2600  136.9010 N   0  0  0  0  0  0  0  0  0  0  0  0
  188.7580  175.0250  135.8440 C   0  0  0  0  0  3  0  0  0  0  0  0
  195.2870  173.4330  143.6240 C   0  0  2  0  0  3  0  0  0  0  0  0
  195.8170  174.7430  144.2020 C   0  0  0  0  0  2  0  0  0  0  0  0
  196.0920  174.6000  145.5580 O   0  0  0  0  0  0  0  0  0  0  0  0
  197.2610  173.8350  145.5890 C   0  0  0  0  0  2  0  0  0  0  0  0
  197.0170  172.6220  146.2260 O   0  0  0  0  0  1  0  0  0  0  0  0
  195.6900  173.2870  142.1320 C   0  0  1  0  0  3  0  0  0  0  0  0
  197.3160  174.2580  140.3840 C   0  0  0  0  0  2  0  0  0  0  0  0
  196.9850  175.3420  138.2100 N   0  0  0  0  0  2  0  0  0  0  0  0
  195.3280  175.6170  141.0810 C   0  0  0  0  0  2  0  0  0  0  0  0
  196.9960  176.2970  135.9850 C   0  0  0  0  0  1  0  0  0  0  0  0
  195.1230  174.0040  139.1030 C   0  0  1  0  0  3  0  0  0  0  0  0
  196.6490  174.1620  139.0020 C   0  0  2  0  0  3  0  0  0  0  0  0
  194.4720  175.1410  139.8990 C   0  0  0  0  0  2  0  0  0  0  0  0
  194.5150  173.8910  137.7120 C   0  0  0  0  0  2  0  0  0  0  0  0
  196.5280  175.1340  136.8340 C   0  0  2  0  0  3  0  0  0  0  0  0
  194.9960  175.0100  136.7840 C   0  0  1  0  0  3  0  0  0  0  0  0
  196.3470  174.5690  141.5480 C   0  0  1  0  0  3  0  0  0  0  0  0
  194.7630  173.5060  134.8020 O   0  0  0  0  0  1  0  0  0  0  0  0
  193.9180  175.6320  134.7570 O   0  0  0  0  0  0  0  0  0  0  0  0
  194.5180  174.7370  135.3990 C   0  0  0  0  0  0  0  0  0  0  0  0
  196.3330  171.2580  141.0350 O   0  0  0  0  0  0  0  0  0  0  0  0
  197.7080  171.9230  142.7450 O   0  0  0  0  0  1  0  0  0  0  0  0
  196.5980  172.1030  141.9340 C   0  0  0  0  0  0  0  0  0  0  0  0
  193.4210  172.1830  144.8060 C   0  0  0  0  0  2  0  0  0  0  0  0
  192.2230  171.4140  144.3070 C   0  0  0  0  0  2  0  0  0  0  0  0
  192.6640  170.1230  143.6460 C   0  0  1  0  0  3  0  0  0  0  0  0
  192.6280  169.0960  144.5750 F   0  0  0  0  0  0  0  0  0  0  0  0
  191.8060  169.8210  142.5880 O   0  0  0  0  0  0  0  0  0  0  0  0
  192.5800  169.9960  141.4420 C   0  0  0  0  0  2  0  0  0  0  0  0
  193.7130  169.0120  141.4210 C   0  0  0  0  0  1  0  0  0  0  0  0
  1  2  1  1  0  0  0
  1 54  1  0  0  0  0
  2  3  1  0  0  0  0
  3  4  1  0  0  0  0
  4  7  1  6  0  0  0
  6  7  2  0  0  0  0
  7  5  1  0  0  0  0
  9  4  1  0  0  0  0
  9  8  1  1  0  0  0
 10  9  1  0  0  0  0
 10 11  1  0  0  0  0
 12 11  1  0  0  0  0
 13 18  1  6  0  0  0
 13 12  1  0  0  0  0
 14 15  2  0  0  0  0
 15 13  1  0  0  0  0
 15 16  1  0  0  0  0
 17 18  2  0  0  0  0
 19 24  1  6  0  0  0
 19 21  1  0  0  0  0
 19 20  1  0  0  0  0
 21 20  1  0  0  0  0
 21 17  1  1  0  0  0
 22 21  1  0  0  0  0
 23 22  2  0  0  0  0
 25 26  1  0  0  0  0
 26 24  1  0  0  0  0
 27 25  1  0  0  0  0
 28 26  1  0  0  0  0
 29 28  2  0  0  0  0
 30 27  2  0  0  0  0
 30 29  1  0  0  0  0
 31  1  1  0  0  0  0
 31 32  1  6  0  0  0
 32 33  1  0  0  0  0
 33 34  1  0  0  0  0
 34 35  1  0  0  0  0
 36 53  1  1  0  0  0
 36 31  1  0  0  0  0
 37 47  1  0  0  0  0
 38 42  1  0  0  0  0
 39 47  1  0  0  0  0
 41 44  1  6  0  0  0
 41 43  1  0  0  0  0
 42 41  1  0  0  0  0
 42 37  1  1  0  0  0
 43 39  1  0  0  0  0
 45 40  1  6  0  0  0
 45 38  1  0  0  0  0
 46 50  1  6  0  0  0
 46 45  1  0  0  0  0
 46 44  1  0  0  0  0
 47 36  1  6  0  0  0
 48 50  1  0  0  0  0
 49 50  2  0  0  0  0
 51 53  2  0  0  0  0
 53 52  1  0  0  0  0
 55 54  1  0  0  0  0
 56 55  1  0  0  0  0
 56 57  1  1  0  0  0
 58 56  1  0  0  0  0
 59 58  1  0  0  0  0
 60 59  1  0  0  0  0
M  END
>  <MODEL>
6

>  <REMARK>
 VINA RESULT:      -4.8      2.110      3.258
  Name = 
  28 active torsions:
  status: ('A' for Active; 'I' for Inactive)
    1  A    between atoms: N_2  and  C_30
    2  A    between atoms: C_4  and  C_8
    3  A    between atoms: O_7  and  C_20
    4  A    between atoms: O_7  and  C_26
    5  A    between atoms: C_8  and  N_31
    6  A    between atoms: C_14  and  C_46
    7  A    between atoms: C_14  and  C_60
    8  A    between atoms: C_16  and  C_30
    9  A    between atoms: C_17  and  C_21
   10  A    between atoms: C_17  and  C_50
   11  A    between atoms: C_20  and  C_46
   12  A    between atoms: C_21  and  C_41
   13  A    between atoms: C_24  and  O_57
   14  A    between atoms: C_27  and  C_34
   15  A    between atoms: C_27  and  C_56
   16  A    between atoms: C_27  and  C_58
   17  A    between atoms: C_29  and  C_49
   18  A    between atoms: C_29  and  C_50
   19  A    between atoms: C_33  and  C_41
   20  A    between atoms: C_34  and  C_54
   21  A    between atoms: C_34  and  C_60
   22  A    between atoms: C_39  and  O_53
   23  A    between atoms: C_39  and  C_60
   24  A    between atoms: C_41  and  O_53
   25  A    between atoms: C_43  and  C_55
   26  A    between atoms: C_45  and  C_49
   27  A    between atoms: C_49  and  C_59
   28  A    between atoms: C_54  and  O_57
                            x       y       z     vdW  Elec       q    Type
                         _______ _______ _______ _____ _____    ______ ____

>  <TORSDO>
F 28

$$$$
=
 OpenBabel11062420393D

 60 63  0  0  1  0  0  0  0  0999 V2000
  191.0570  173.3620  141.7860 C   0  0  1  0  0  3  0  0  0  0  0  0
  192.1630  174.3890  142.0370 C   0  0  0  0  0  2  0  0  0  0  0  0
  191.9340  175.0570  143.2420 O   0  0  0  0  0  0  0  0  0  0  0  0
  193.0980  174.8600  143.9980 C   0  0  1  0  0  3  0  0  0  0  0  0
  193.0080  177.2480  144.7950 O   0  0  0  0  0  1  0  0  0  0  0  0
  194.9990  176.3210  144.1040 O   0  0  0  0  0  0  0  0  0  0  0  0
  193.7620  176.1770  144.2980 C   0  0  0  0  0  0  0  0  0  0  0  0
  193.9810  173.2270  145.7490 C   0  0  0  0  0  1  0  0  0  0  0  0
  192.7820  174.0070  145.2390 C   0  0  1  0  0  3  0  0  0  0  0  0
  192.0280  174.7230  146.3600 C   0  0  0  0  0  2  0  0  0  0  0  0
  190.5540  174.3520  146.4060 C   0  0  0  0  0  2  0  0  0  0  0  0
  189.7800  175.3140  147.2810 C   0  0  0  0  0  2  0  0  0  0  0  0
  190.0740  176.7490  146.8600 C   0  0  2  0  0  3  0  0  0  0  0  0
  191.5950  177.0890  148.6610 O   0  0  0  0  0  1  0  0  0  0  0  0
  190.6030  177.5250  148.0190 C   0  0  0  0  0  0  0  0  0  0  0  0
  189.9940  178.7090  148.4160 O   0  0  0  0  0  0  0  0  0  0  0  0
  187.6270  176.9430  146.6190 C   0  0  0  0  0  3  0  0  0  0  0  0
  188.8430  177.4040  146.3200 C   0  0  0  0  0  3  0  0  0  0  0  0
  186.6300  178.6870  145.0150 C   0  0  1  0  0  3  0  0  0  0  0  0
  186.2320  179.0600  146.4430 C   0  0  0  0  0  2  0  0  0  0  0  0
  186.4100  177.6080  146.0670 C   0  0  2  0  0  0  0  0  0  0  0  0
  185.1780  176.8560  146.0180 N   0  0  0  0  0  0  0  0  0  0  0  0
  184.3220  177.0540  146.8220 O   0  0  0  0  0  0  0  0  0  0  0  0
  185.4360  178.8740  144.0880 C   0  0  0  0  0  2  0  0  0  0  0  0
  184.6740  178.2330  141.7740 C   0  0  0  0  0  2  0  0  0  0  0  0
  185.7480  178.3930  142.7560 N   0  0  0  0  0  0  0  0  0  0  0  0
  185.2050  177.9360  140.4030 C   0  0  0  0  0  3  0  0  0  0  0  0
  187.0650  177.9000  142.4960 C   0  0  0  0  0  3  0  0  0  0  0  0
  187.3940  177.5100  141.3050 N   0  0  0  0  0  0  0  0  0  0  0  0
  186.4710  177.5730  140.2130 C   0  0  0  0  0  3  0  0  0  0  0  0
  191.6230  171.9500  141.5300 C   0  0  2  0  0  3  0  0  0  0  0  0
  192.6940  171.5900  142.5560 C   0  0  0  0  0  2  0  0  0  0  0  0
  192.2220  170.6140  143.4270 O   0  0  0  0  0  0  0  0  0  0  0  0
  193.0870  169.5340  143.2300 C   0  0  0  0  0  2  0  0  0  0  0  0
  194.3800  169.9980  143.0080 O   0  0  0  0  0  1  0  0  0  0  0  0
  192.1670  171.7830  140.0860 C   0  0  1  0  0  3  0  0  0  0  0  0
  194.1700  171.0850  138.6220 C   0  0  0  0  0  2  0  0  0  0  0  0
  195.9860  172.3450  137.5580 N   0  0  0  0  0  2  0  0  0  0  0  0
  194.5570  172.6440  140.5460 C   0  0  0  0  0  2  0  0  0  0  0  0
  197.7950  173.3110  136.2710 C   0  0  0  0  0  1  0  0  0  0  0  0
  193.9840  173.6020  138.2420 C   0  0  1  0  0  3  0  0  0  0  0  0
  194.5350  172.2690  137.7110 C   0  0  2  0  0  3  0  0  0  0  0  0
  194.4590  173.9010  139.6690 C   0  0  0  0  0  2  0  0  0  0  0  0
  194.3530  174.7360  137.2940 C   0  0  0  0  0  2  0  0  0  0  0  0
  196.3010  173.3310  136.5220 C   0  0  2  0  0  3  0  0  0  0  0  0
  195.8450  174.7350  136.9540 C   0  0  1  0  0  3  0  0  0  0  0  0
  193.6920  171.4840  140.0370 C   0  0  1  0  0  3  0  0  0  0  0  0
  197.1680  176.6290  135.9990 O   0  0  0  0  0  1  0  0  0  0  0  0
  195.3420  175.8080  134.8910 O   0  0  0  0  0  0  0  0  0  0  0  0
  196.1040  175.7410  135.8850 C   0  0  0  0  0  0  0  0  0  0  0  0
  190.3930  170.1880  139.8790 O   0  0  0  0  0  1  0  0  0  0  0  0
  191.8220  170.2980  138.0890 O   0  0  0  0  0  0  0  0  0  0  0  0
  191.4060  170.7170  139.3440 C   0  0  0  0  0  0  0  0  0  0  0  0
  190.0180  173.3630  142.8970 C   0  0  0  0  0  2  0  0  0  0  0  0
  188.6680  173.7500  142.3470 C   0  0  0  0  0  2  0  0  0  0  0  0
  188.5470  173.3210  140.8980 C   0  0  1  0  0  3  0  0  0  0  0  0
  187.4280  172.5180  140.7490 F   0  0  0  0  0  0  0  0  0  0  0  0
  188.4190  174.4480  140.0840 O   0  0  0  0  0  0  0  0  0  0  0  0
  189.0960  174.1170  138.9110 C   0  0  0  0  0  2  0  0  0  0  0  0
  188.5520  172.8410  138.3360 C   0  0  0  0  0  1  0  0  0  0  0  0
  1  2  1  1  0  0  0
  1 54  1  0  0  0  0
  2  3  1  0  0  0  0
  4  3  1  1  0  0  0
  4  7  1  0  0  0  0
  4  9  1  0  0  0  0
  6  7  2  0  0  0  0
  7  5  1  0  0  0  0
  9  8  1  1  0  0  0
  9 10  1  0  0  0  0
 10 11  1  0  0  0  0
 11 12  1  0  0  0  0
 13 18  1  1  0  0  0
 13 12  1  0  0  0  0
 13 15  1  0  0  0  0
 15 16  2  0  0  0  0
 15 14  1  0  0  0  0
 18 17  2  0  0  0  0
 19 24  1  6  0  0  0
 19 21  1  0  0  0  0
 19 20  1  0  0  0  0
 21 20  1  0  0  0  0
 21 17  1  1  0  0  0
 22 21  1  0  0  0  0
 22 23  2  0  0  0  0
 25 26  1  0  0  0  0
 26 24  1  0  0  0  0
 27 25  1  0  0  0  0
 28 26  1  0  0  0  0
 29 28  2  0  0  0  0
 30 27  2  0  0  0  0
 30 29  1  0  0  0  0
 31  1  1  0  0  0  0
 31 32  1  1  0  0  0
 32 33  1  0  0  0  0
 34 33  1  0  0  0  0
 35 34  1  0  0  0  0
 36 53  1  1  0  0  0
 36 31  1  0  0  0  0
 37 47  1  0  0  0  0
 38 42  1  0  0  0  0
 41 44  1  6  0  0  0
 41 43  1  0  0  0  0
 42 41  1  0  0  0  0
 42 37  1  1  0  0  0
 43 39  1  0  0  0  0
 45 40  1  1  0  0  0
 45 46  1  0  0  0  0
 45 38  1  0  0  0  0
 46 50  1  6  0  0  0
 46 44  1  0  0  0  0
 47 36  1  6  0  0  0
 47 39  1  0  0  0  0
 49 50  2  0  0  0  0
 50 48  1  0  0  0  0
 52 53  2  0  0  0  0
 53 51  1  0  0  0  0
 55 54  1  0  0  0  0
 56 57  1  1  0  0  0
 56 55  1  0  0  0  0
 58 56  1  0  0  0  0
 59 58  1  0  0  0  0
 60 59  1  0  0  0  0
M  END
>  <MODEL>
7

>  <REMARK>
 VINA RESULT:      -4.5      2.707      5.695
  Name = 
  28 active torsions:
  status: ('A' for Active; 'I' for Inactive)
    1  A    between atoms: N_2  and  C_30
    2  A    between atoms: C_4  and  C_8
    3  A    between atoms: O_7  and  C_20
    4  A    between atoms: O_7  and  C_26
    5  A    between atoms: C_8  and  N_31
    6  A    between atoms: C_14  and  C_46
    7  A    between atoms: C_14  and  C_60
    8  A    between atoms: C_16  and  C_30
    9  A    between atoms: C_17  and  C_21
   10  A    between atoms: C_17  and  C_50
   11  A    between atoms: C_20  and  C_46
   12  A    between atoms: C_21  and  C_41
   13  A    between atoms: C_24  and  O_57
   14  A    between atoms: C_27  and  C_34
   15  A    between atoms: C_27  and  C_56
   16  A    between atoms: C_27  and  C_58
   17  A    between atoms: C_29  and  C_49
   18  A    between atoms: C_29  and  C_50
   19  A    between atoms: C_33  and  C_41
   20  A    between atoms: C_34  and  C_54
   21  A    between atoms: C_34  and  C_60
   22  A    between atoms: C_39  and  O_53
   23  A    between atoms: C_39  and  C_60
   24  A    between atoms: C_41  and  O_53
   25  A    between atoms: C_43  and  C_55
   26  A    between atoms: C_45  and  C_49
   27  A    between atoms: C_49  and  C_59
   28  A    between atoms: C_54  and  O_57
                            x       y       z     vdW  Elec       q    Type
                         _______ _______ _______ _____ _____    ______ ____

>  <TORSDO>
F 28

$$$$
=
 OpenBabel11062420393D

 60 63  0  0  1  0  0  0  0  0999 V2000
  190.0710  176.5280  143.4970 C   0  0  1  0  0  3  0  0  0  0  0  0
  191.1340  176.8060  144.5610 C   0  0  0  0  0  2  0  0  0  0  0  0
  192.1950  175.9080  144.4260 O   0  0  0  0  0  0  0  0  0  0  0  0
  193.3100  176.5730  144.9550 C   0  0  1  0  0  3  0  0  0  0  0  0
  192.8520  175.1880  147.0090 O   0  0  0  0  0  0  0  0  0  0  0  0
  193.9970  177.1790  147.1730 O   0  0  0  0  0  1  0  0  0  0  0  0
  193.4100  176.3390  146.4380 C   0  0  0  0  0  0  0  0  0  0  0  0
  195.4060  175.1220  144.8410 C   0  0  0  0  0  1  0  0  0  0  0  0
  194.5740  176.1960  144.1630 C   0  0  1  0  0  3  0  0  0  0  0  0
  194.3650  175.9220  142.6730 C   0  0  0  0  0  2  0  0  0  0  0  0
  195.6600  175.9780  141.8780 C   0  0  0  0  0  2  0  0  0  0  0  0
  195.3910  175.8560  140.3940 C   0  0  0  0  0  2  0  0  0  0  0  0
  195.8820  174.5050  139.8870 C   0  0  2  0  0  3  0  0  0  0  0  0
  197.8730  175.7340  139.4420 O   0  0  0  0  0  1  0  0  0  0  0  0
  197.2830  174.6220  139.3890 C   0  0  0  0  0  0  0  0  0  0  0  0
  197.9350  173.5240  138.8410 O   0  0  0  0  0  0  0  0  0  0  0  0
  194.0300  174.7570  138.2780 C   0  0  0  0  0  3  0  0  0  0  0  0
  194.9910  173.9930  138.8010 C   0  0  0  0  0  3  0  0  0  0  0  0
  193.2050  172.7280  136.9320 C   0  0  1  0  0  3  0  0  0  0  0  0
  193.8580  173.7170  135.9650 C   0  0  0  0  0  2  0  0  0  0  0  0
  193.1480  174.2260  137.1970 C   0  0  2  0  0  0  0  0  0  0  0  0
  191.9090  174.9160  136.9210 N   0  0  0  0  0  0  0  0  0  0  0  0
  191.8530  175.7210  136.0450 O   0  0  0  0  0  0  0  0  0  0  0  0
  191.9270  172.1790  136.3120 C   0  0  0  0  0  2  0  0  0  0  0  0
  191.8250  170.7640  138.3940 C   0  0  0  0  0  2  0  0  0  0  0  0
  191.5320  170.9490  136.9720 N   0  0  0  0  0  0  0  0  0  0  0  0
  191.1600  169.5410  138.9510 C   0  0  0  0  0  3  0  0  0  0  0  0
  191.0420  169.8690  136.1730 C   0  0  0  0  0  3  0  0  0  0  0  0
  190.6310  168.7750  136.7330 N   0  0  0  0  0  0  0  0  0  0  0  0
  190.6360  168.6130  138.1550 C   0  0  0  0  0  3  0  0  0  0  0  0
  189.3090  175.2130  143.7670 C   0  0  2  0  0  3  0  0  0  0  0  0
  189.4290  174.7970  145.2310 C   0  0  0  0  0  2  0  0  0  0  0  0
  188.3670  175.3090  145.9690 O   0  0  0  0  0  0  0  0  0  0  0  0
  188.9210  175.5730  147.2240 C   0  0  0  0  0  2  0  0  0  0  0  0
  189.8590  174.5960  147.5430 O   0  0  0  0  0  1  0  0  0  0  0  0
  189.7630  174.0630  142.8290 C   0  0  1  0  0  3  0  0  0  0  0  0
  190.0310  171.5130  142.5680 C   0  0  0  0  0  2  0  0  0  0  0  0
  191.9540  170.0020  142.7610 N   0  0  0  0  0  2  0  0  0  0  0  0
  191.0400  172.6420  144.5660 C   0  0  0  0  0  2  0  0  0  0  0  0
  193.6650  168.2900  142.7280 C   0  0  0  0  0  1  0  0  0  0  0  0
  192.4220  172.3950  142.4250 C   0  0  1  0  0  3  0  0  0  0  0  0
  191.4730  171.2240  142.1200 C   0  0  2  0  0  3  0  0  0  0  0  0
  192.4220  172.7710  143.9110 C   0  0  0  0  0  2  0  0  0  0  0  0
  193.8280  172.0690  141.9420 C   0  0  0  0  0  2  0  0  0  0  0  0
  193.2350  169.6260  142.1590 C   0  0  2  0  0  3  0  0  0  0  0  0
  194.3010  170.7000  142.4380 C   0  0  1  0  0  3  0  0  0  0  0  0
  189.8860  172.6940  143.5550 C   0  0  1  0  0  3  0  0  0  0  0  0
  196.5360  169.5810  142.4430 O   0  0  0  0  0  1  0  0  0  0  0  0
  195.8510  170.8070  140.6360 O   0  0  0  0  0  0  0  0  0  0  0  0
  195.5960  170.3610  141.7810 C   0  0  0  0  0  0  0  0  0  0  0  0
  187.9990  173.0030  141.6050 O   0  0  0  0  0  1  0  0  0  0  0  0
  188.9310  174.8330  140.5870 O   0  0  0  0  0  0  0  0  0  0  0  0
  188.8430  173.9400  141.6440 C   0  0  0  0  0  0  0  0  0  0  0  0
  189.1240  177.7040  143.3180 C   0  0  0  0  0  2  0  0  0  0  0  0
  187.7290  177.3190  143.7440 C   0  0  0  0  0  2  0  0  0  0  0  0
  186.7870  177.3520  142.5570 C   0  0  1  0  0  3  0  0  0  0  0  0
  186.0740  176.1650  142.5030 F   0  0  0  0  0  0  0  0  0  0  0  0
  185.8990  178.4200  142.6920 O   0  0  0  0  0  0  0  0  0  0  0  0
  184.8430  178.1140  141.8350 C   0  0  0  0  0  2  0  0  0  0  0  0
  183.5640  178.7100  142.3460 C   0  0  0  0  0  1  0  0  0  0  0  0
  1 54  1  1  0  0  0
  1 31  1  0  0  0  0
  1  2  1  0  0  0  0
  3  2  1  0  0  0  0
  4  3  1  6  0  0  0
  4  7  1  0  0  0  0
  7  5  2  0  0  0  0
  7  6  1  0  0  0  0
  9  8  1  1  0  0  0
  9  4  1  0  0  0  0
 10  9  1  0  0  0  0
 11 10  1  0  0  0  0
 12 11  1  0  0  0  0
 13 18  1  6  0  0  0
 13 12  1  0  0  0  0
 15 14  1  0  0  0  0
 15 13  1  0  0  0  0
 16 15  2  0  0  0  0
 17 18  2  0  0  0  0
 19 24  1  6  0  0  0
 19 21  1  0  0  0  0
 20 19  1  0  0  0  0
 20 21  1  0  0  0  0
 21 17  1  1  0  0  0
 22 21  1  0  0  0  0
 23 22  2  0  0  0  0
 24 26  1  0  0  0  0
 25 27  1  0  0  0  0
 26 25  1  0  0  0  0
 28 29  2  0  0  0  0
 28 26  1  0  0  0  0
 29 30  1  0  0  0  0
 30 27  2  0  0  0  0
 31 32  1  1  0  0  0
 32 33  1  0  0  0  0
 33 34  1  0  0  0  0
 34 35  1  0  0  0  0
 36 53  1  6  0  0  0
 36 31  1  0  0  0  0
 37 47  1  0  0  0  0
 41 44  1  1  0  0  0
 41 43  1  0  0  0  0
 42 41  1  0  0  0  0
 42 37  1  1  0  0  0
 42 38  1  0  0  0  0
 43 39  1  0  0  0  0
 44 46  1  0  0  0  0
 45 46  1  0  0  0  0
 45 40  1  1  0  0  0
 45 38  1  0  0  0  0
 46 50  1  6  0  0  0
 47 36  1  6  0  0  0
 47 39  1  0  0  0  0
 49 50  2  0  0  0  0
 50 48  1  0  0  0  0
 51 53  1  0  0  0  0
 52 53  2  0  0  0  0
 54 55  1  0  0  0  0
 56 57  1  1  0  0  0
 56 58  1  0  0  0  0
 56 55  1  0  0  0  0
 59 60  1  0  0  0  0
 59 58  1  0  0  0  0
M  END
>  <MODEL>
8

>  <REMARK>
 VINA RESULT:      -4.2      2.975      8.141
  Name = 
  28 active torsions:
  status: ('A' for Active; 'I' for Inactive)
    1  A    between atoms: N_2  and  C_30
    2  A    between atoms: C_4  and  C_8
    3  A    between atoms: O_7  and  C_20
    4  A    between atoms: O_7  and  C_26
    5  A    between atoms: C_8  and  N_31
    6  A    between atoms: C_14  and  C_46
    7  A    between atoms: C_14  and  C_60
    8  A    between atoms: C_16  and  C_30
    9  A    between atoms: C_17  and  C_21
   10  A    between atoms: C_17  and  C_50
   11  A    between atoms: C_20  and  C_46
   12  A    between atoms: C_21  and  C_41
   13  A    between atoms: C_24  and  O_57
   14  A    between atoms: C_27  and  C_34
   15  A    between atoms: C_27  and  C_56
   16  A    between atoms: C_27  and  C_58
   17  A    between atoms: C_29  and  C_49
   18  A    between atoms: C_29  and  C_50
   19  A    between atoms: C_33  and  C_41
   20  A    between atoms: C_34  and  C_54
   21  A    between atoms: C_34  and  C_60
   22  A    between atoms: C_39  and  O_53
   23  A    between atoms: C_39  and  C_60
   24  A    between atoms: C_41  and  O_53
   25  A    between atoms: C_43  and  C_55
   26  A    between atoms: C_45  and  C_49
   27  A    between atoms: C_49  and  C_59
   28  A    between atoms: C_54  and  O_57
                            x       y       z     vdW  Elec       q    Type
                         _______ _______ _______ _____ _____    ______ ____

>  <TORSDO>
F 28

$$$$
=
 OpenBabel11062420393D

 60 63  0  0  1  0  0  0  0  0999 V2000
  193.5230  173.2880  142.7880 C   0  0  1  0  0  3  0  0  0  0  0  0
  193.5370  173.7240  144.2540 C   0  0  0  0  0  2  0  0  0  0  0  0
  192.5760  174.7140  144.4700 O   0  0  0  0  0  0  0  0  0  0  0  0
  192.6270  174.9830  145.8450 C   0  0  1  0  0  3  0  0  0  0  0  0
  192.9310  177.4550  145.4690 O   0  0  0  0  0  0  0  0  0  0  0  0
  194.3300  176.3100  146.8940 O   0  0  0  0  0  1  0  0  0  0  0  0
  193.3480  176.2790  146.1040 C   0  0  0  0  0  0  0  0  0  0  0  0
  191.1670  175.3120  147.9130 C   0  0  0  0  0  1  0  0  0  0  0  0
  191.2140  174.9070  146.4500 C   0  0  1  0  0  3  0  0  0  0  0  0
  190.1040  175.5580  145.6250 C   0  0  0  0  0  2  0  0  0  0  0  0
  189.0310  176.2020  146.4880 C   0  0  0  0  0  2  0  0  0  0  0  0
  189.0970  177.7110  146.4010 C   0  0  0  0  0  2  0  0  0  0  0  0
  187.6880  178.2900  146.3440 C   0  0  2  0  0  3  0  0  0  0  0  0
  187.1270  178.6380  148.6320 O   0  0  0  0  0  1  0  0  0  0  0  0
  186.9430  177.9530  147.5910 C   0  0  0  0  0  0  0  0  0  0  0  0
  186.0700  176.8730  147.6250 O   0  0  0  0  0  0  0  0  0  0  0  0
  187.0460  178.3810  143.9640 C   0  0  0  0  0  3  0  0  0  0  0  0
  186.9530  177.7730  145.1480 C   0  0  0  0  0  3  0  0  0  0  0  0
  184.8060  178.1340  142.7250 C   0  0  1  0  0  3  0  0  0  0  0  0
  185.3240  176.7370  143.0720 C   0  0  0  0  0  2  0  0  0  0  0  0
  186.3020  177.8520  142.7830 C   0  0  2  0  0  0  0  0  0  0  0  0
  187.0120  177.7040  141.5340 N   0  0  0  0  0  0  0  0  0  0  0  0
  187.9860  178.3550  141.3170 O   0  0  0  0  0  0  0  0  0  0  0  0
  184.2490  178.1320  141.3080 C   0  0  0  0  0  2  0  0  0  0  0  0
  182.0140  177.8840  140.1720 C   0  0  0  0  0  2  0  0  0  0  0  0
  182.8090  178.2990  141.3290 N   0  0  0  0  0  0  0  0  0  0  0  0
  180.5420  177.9320  140.4550 C   0  0  0  0  0  3  0  0  0  0  0  0
  182.2210  179.0460  142.3980 C   0  0  0  0  0  3  0  0  0  0  0  0
  180.9340  179.1730  142.4770 N   0  0  0  0  0  0  0  0  0  0  0  0
  180.0610  178.5640  141.5220 C   0  0  0  0  0  3  0  0  0  0  0  0
  194.8350  172.5870  142.3790 C   0  0  2  0  0  3  0  0  0  0  0  0
  196.0500  173.4510  142.7120 C   0  0  0  0  0  2  0  0  0  0  0  0
  196.6000  173.0640  143.9290 O   0  0  0  0  0  0  0  0  0  0  0  0
  197.1300  174.2460  144.4530 C   0  0  0  0  0  2  0  0  0  0  0  0
  197.2130  175.2120  143.4550 O   0  0  0  0  0  1  0  0  0  0  0  0
  194.8460  172.1770  140.8820 C   0  0  1  0  0  3  0  0  0  0  0  0
  195.5030  172.8210  138.4740 C   0  0  0  0  0  2  0  0  0  0  0  0
  194.4130  174.1790  136.7470 N   0  0  0  0  0  2  0  0  0  0  0  0
  194.6950  174.6110  140.0330 C   0  0  0  0  0  2  0  0  0  0  0  0
  193.5290  175.3200  134.8030 C   0  0  0  0  0  1  0  0  0  0  0  0
  193.0070  173.3420  138.5850 C   0  0  1  0  0  3  0  0  0  0  0  0
  194.2140  173.0670  137.6730 C   0  0  2  0  0  3  0  0  0  0  0  0
  193.2480  174.5270  139.5270 C   0  0  0  0  0  2  0  0  0  0  0  0
  191.7540  173.5550  137.7460 C   0  0  0  0  0  2  0  0  0  0  0  0
  193.2610  174.2560  135.8470 C   0  0  2  0  0  3  0  0  0  0  0  0
  191.9790  174.5820  136.6320 C   0  0  1  0  0  3  0  0  0  0  0  0
  195.4400  173.2720  139.9520 C   0  0  1  0  0  3  0  0  0  0  0  0
  190.2850  173.4220  135.2060 O   0  0  0  0  0  0  0  0  0  0  0  0
  190.2470  175.6980  135.4430 O   0  0  0  0  0  1  0  0  0  0  0  0
  190.7860  174.6040  135.7390 C   0  0  0  0  0  0  0  0  0  0  0  0
  196.8380  170.8580  140.7280 O   0  0  0  0  0  1  0  0  0  0  0  0
  194.8790  169.7050  140.4350 O   0  0  0  0  0  0  0  0  0  0  0  0
  195.5780  170.8770  140.6850 C   0  0  0  0  0  0  0  0  0  0  0  0
  192.3020  172.4430  142.4570 C   0  0  0  0  0  2  0  0  0  0  0  0
  191.0460  173.2680  142.5930 C   0  0  0  0  0  2  0  0  0  0  0  0
  189.8220  172.3750  142.5460 C   0  0  1  0  0  3  0  0  0  0  0  0
  189.2460  172.3180  143.8050 F   0  0  0  0  0  0  0  0  0  0  0  0
  188.8990  172.8920  141.6370 O   0  0  0  0  0  0  0  0  0  0  0  0
  189.4100  172.5590  140.3840 C   0  0  0  0  0  2  0  0  0  0  0  0
  188.3590  172.7380  139.3270 C   0  0  0  0  0  1  0  0  0  0  0  0
  1 54  1  1  0  0  0
  1  2  1  0  0  0  0
  2  3  1  0  0  0  0
  4  3  1  6  0  0  0
  4  7  1  0  0  0  0
  4  9  1  0  0  0  0
  5  7  2  0  0  0  0
  7  6  1  0  0  0  0
  9  8  1  1  0  0  0
 10  9  1  0  0  0  0
 10 11  1  0  0  0  0
 12 11  1  0  0  0  0
 13 18  1  6  0  0  0
 13 12  1  0  0  0  0
 13 15  1  0  0  0  0
 15 16  2  0  0  0  0
 15 14  1  0  0  0  0
 17 18  2  0  0  0  0
 19 24  1  6  0  0  0
 19 21  1  0  0  0  0
 19 20  1  0  0  0  0
 21 20  1  0  0  0  0
 21 17  1  1  0  0  0
 22 21  1  0  0  0  0
 23 22  2  0  0  0  0
 24 26  1  0  0  0  0
 25 27  1  0  0  0  0
 25 26  1  0  0  0  0
 26 28  1  0  0  0  0
 27 30  2  0  0  0  0
 28 29  2  0  0  0  0
 30 29  1  0  0  0  0
 31 32  1  6  0  0  0
 31  1  1  0  0  0  0
 32 33  1  0  0  0  0
 33 34  1  0  0  0  0
 35 34  1  0  0  0  0
 36 53  1  1  0  0  0
 36 31  1  0  0  0  0
 37 47  1  0  0  0  0
 38 42  1  0  0  0  0
 41 44  1  6  0  0  0
 41 43  1  0  0  0  0
 42 37  1  1  0  0  0
 42 41  1  0  0  0  0
 43 39  1  0  0  0  0
 45 40  1  6  0  0  0
 45 46  1  0  0  0  0
 45 38  1  0  0  0  0
 46 50  1  6  0  0  0
 46 44  1  0  0  0  0
 47 39  1  0  0  0  0
 47 36  1  1  0  0  0
 48 50  2  0  0  0  0
 49 50  1  0  0  0  0
 52 53  2  0  0  0  0
 53 51  1  0  0  0  0
 54 55  1  0  0  0  0
 56 55  1  0  0  0  0
 56 57  1  1  0  0  0
 58 56  1  0  0  0  0
 59 58  1  0  0  0  0
 60 59  1  0  0  0  0
M  END
>  <MODEL>
9

>  <REMARK>
 VINA RESULT:      -3.9      2.587      4.673
  Name = 
  28 active torsions:
  status: ('A' for Active; 'I' for Inactive)
    1  A    between atoms: N_2  and  C_30
    2  A    between atoms: C_4  and  C_8
    3  A    between atoms: O_7  and  C_20
    4  A    between atoms: O_7  and  C_26
    5  A    between atoms: C_8  and  N_31
    6  A    between atoms: C_14  and  C_46
    7  A    between atoms: C_14  and  C_60
    8  A    between atoms: C_16  and  C_30
    9  A    between atoms: C_17  and  C_21
   10  A    between atoms: C_17  and  C_50
   11  A    between atoms: C_20  and  C_46
   12  A    between atoms: C_21  and  C_41
   13  A    between atoms: C_24  and  O_57
   14  A    between atoms: C_27  and  C_34
   15  A    between atoms: C_27  and  C_56
   16  A    between atoms: C_27  and  C_58
   17  A    between atoms: C_29  and  C_49
   18  A    between atoms: C_29  and  C_50
   19  A    between atoms: C_33  and  C_41
   20  A    between atoms: C_34  and  C_54
   21  A    between atoms: C_34  and  C_60
   22  A    between atoms: C_39  and  O_53
   23  A    between atoms: C_39  and  C_60
   24  A    between atoms: C_41  and  O_53
   25  A    between atoms: C_43  and  C_55
   26  A    between atoms: C_45  and  C_49
   27  A    between atoms: C_49  and  C_59
   28  A    between atoms: C_54  and  O_57
                            x       y       z     vdW  Elec       q    Type
                         _______ _______ _______ _____ _____    ______ ____

>  <TORSDO>
F 28

$$$$
