=
 OpenBabel11062421133D

 33 38  0  0  1  0  0  0  0  0999 V2000
  191.5750  172.6290  143.0570 C   0  0  1  0  0  3  0  0  0  0  0  0
  189.4620  174.9160  147.2860 C   0  0  0  0  0  2  0  0  0  0  0  0
  188.8620  174.7540  144.6150 C   0  0  1  0  0  3  0  0  0  0  0  0
  189.6500  176.2280  142.5370 C   0  0  0  0  0  2  0  0  0  0  0  0
  190.3580  171.4180  141.1870 C   0  0  0  0  0  2  0  0  0  0  0  0
  190.9890  172.7370  141.6370 C   0  0  1  0  0  3  0  0  0  0  0  0
  190.5640  171.2430  139.3880 S   0  0  0  0  0  0  0  0  0  0  0  0
  191.5430  175.5220  145.4210 C   0  0  0  0  0  0  0  0  0  0  0  0
  186.7550  176.9500  146.0570 O   0  0  0  0  0  1  0  0  0  0  0  0
  187.7510  177.3740  145.1690 C   0  0  2  0  0  3  0  0  0  0  0  0
  190.0040  173.9150  141.5150 C   0  0  2  0  0  3  0  0  0  0  0  0
  189.5050  174.1190  140.0880 C   0  0  0  0  0  2  0  0  0  0  0  0
  190.5120  172.3180  144.1050 C   0  0  0  0  0  2  0  0  0  0  0  0
  190.6520  173.2380  145.3150 C   0  0  0  0  0  2  0  0  0  0  0  0
  189.3480  177.6850  146.9260 O   0  0  0  0  0  1  0  0  0  0  0  0
  188.5080  175.6560  143.3950 C   0  0  2  0  0  3  0  0  0  0  0  0
  188.9410  171.9510  138.9030 C   0  0  0  0  0  2  0  0  0  0  0  0
  187.5340  176.7820  143.7600 C   0  0  1  0  0  3  0  0  0  0  0  0
  190.8610  175.3440  147.8260 C   0  0  0  0  0  2  0  0  0  0  0  0
  190.3630  174.7120  144.9720 C   0  0  2  0  0  0  0  0  0  0  0  0
  192.9290  176.3500  146.8880 N   0  0  0  0  0  0  0  0  0  0  0  0
  193.4240  176.5290  145.6460 C   0  0  0  0  0  0  0  0  0  0  0  0
  189.2860  175.4650  145.8580 C   0  0  2  0  0  0  0  0  0  0  0  0
  194.6690  177.1660  145.3880 N   0  0  0  0  0  1  0  0  0  0  0  0
  191.7810  175.7210  146.7350 N   0  0  0  0  0  0  0  0  0  0  0  0
  190.6550  175.2000  142.0130 C   0  0  0  0  0  2  0  0  0  0  0  0
  188.4280  173.0910  139.7810 C   0  0  0  0  0  2  0  0  0  0  0  0
  189.1320  177.0140  145.7190 C   0  0  1  0  0  3  0  0  0  0  0  0
  192.5910  176.0060  144.6620 C   0  0  0  0  0  3  0  0  0  0  0  0
  185.6870  177.2590  142.6360 C   0  0  0  0  0  1  0  0  0  0  0  0
  186.2130  176.3640  143.5680 O   0  0  0  0  0  0  0  0  0  0  0  0
  192.3430  170.5470  143.9380 O   0  0  0  0  0  1  0  0  0  0  0  0
  192.7150  171.6260  143.1370 C   0  0  0  0  0  2  0  0  0  0  0  0
  1 33  1  6  0  0  0
  1 13  1  0  0  0  0
  2 19  1  0  0  0  0
  3 20  1  0  0  0  0
  3 23  1  0  0  0  0
  4 16  1  0  0  0  0
  5  6  1  0  0  0  0
  6  1  1  0  0  0  0
  7  5  1  0  0  0  0
  8 25  1  0  0  0  0
 10 28  1  0  0  0  0
 10  9  1  0  0  0  0
 11  6  1  0  0  0  0
 11 26  1  0  0  0  0
 12 11  1  0  0  0  0
 13 14  1  0  0  0  0
 16 18  1  0  0  0  0
 16  3  1  0  0  0  0
 17  7  1  0  0  0  0
 17 27  1  0  0  0  0
 18 10  1  0  0  0  0
 20 14  1  0  0  0  0
 20  8  1  0  0  0  0
 20 23  1  0  0  0  0
 22 21  2  0  0  0  0
 23  2  1  0  0  0  0
 24 22  1  0  0  0  0
 25 21  1  0  0  0  0
 25 19  1  0  0  0  0
 26  4  1  0  0  0  0
 27 12  1  0  0  0  0
 28 23  1  0  0  0  0
 28 15  1  0  0  0  0
 29  8  2  0  0  0  0
 29 22  1  0  0  0  0
 30 31  1  0  0  0  0
 31 18  1  0  0  0  0
 33 32  1  0  0  0  0
M  END
>  <MODEL>
1

>  <REMARK>
 VINA RESULT:      -7.9      0.000      0.000
  Name = 
  2 active torsions:
  status: ('A' for Active; 'I' for Inactive)
    1  A    between atoms: C_1  and  C_31
    2  A    between atoms: C_20  and  O_24
                            x       y       z     vdW  Elec       q    Type
                         _______ _______ _______ _____ _____    ______ ____

>  <TORSDO>
F 2

$$$$
=
 OpenBabel11062421133D

 33 38  0  0  1  0  0  0  0  0999 V2000
  193.4380  175.2380  142.1700 C   0  0  1  0  0  3  0  0  0  0  0  0
  189.1530  178.0150  143.3960 C   0  0  0  0  0  2  0  0  0  0  0  0
  190.9530  176.4500  144.7500 C   0  0  1  0  0  3  0  0  0  0  0  0
  191.0260  173.8200  145.1870 C   0  0  0  0  0  2  0  0  0  0  0  0
  195.6040  175.0820  143.4840 C   0  0  0  0  0  2  0  0  0  0  0  0
  194.2560  174.4220  143.1890 C   0  0  1  0  0  3  0  0  0  0  0  0
  196.8360  173.7890  143.8300 S   0  0  0  0  0  0  0  0  0  0  0  0
  189.7100  175.4170  142.3380 C   0  0  0  0  0  0  0  0  0  0  0  0
  188.4500  177.2690  146.8490 O   0  0  0  0  0  1  0  0  0  0  0  0
  188.6080  175.9590  146.3840 C   0  0  2  0  0  3  0  0  0  0  0  0
  193.4550  174.1530  144.4770 C   0  0  2  0  0  3  0  0  0  0  0  0
  194.1980  173.2430  145.4510 C   0  0  0  0  0  2  0  0  0  0  0  0
  193.0960  176.6330  142.6790 C   0  0  0  0  0  2  0  0  0  0  0  0
  191.6210  176.9530  142.4490 C   0  0  0  0  0  2  0  0  0  0  0  0
  187.1990  176.3390  144.4850 O   0  0  0  0  0  1  0  0  0  0  0  0
  191.0100  175.2540  145.7460 C   0  0  2  0  0  3  0  0  0  0  0  0
  196.6630  173.7940  145.6580 C   0  0  0  0  0  2  0  0  0  0  0  0
  189.9510  175.3570  146.8500 C   0  0  1  0  0  3  0  0  0  0  0  0
  188.4100  177.5470  142.1070 C   0  0  0  0  0  2  0  0  0  0  0  0
  190.6860  176.0540  143.2820 C   0  0  2  0  0  0  0  0  0  0  0  0
  188.0830  175.4100  140.8850 N   0  0  0  0  0  0  0  0  0  0  0  0
  188.6790  174.2000  140.9040 C   0  0  0  0  0  0  0  0  0  0  0  0
  189.6070  176.7760  144.1900 C   0  0  2  0  0  0  0  0  0  0  0  0
  188.2690  173.1180  140.0780 N   0  0  0  0  0  1  0  0  0  0  0  0
  188.7340  176.1500  141.7610 N   0  0  0  0  0  0  0  0  0  0  0  0
  192.1030  173.5370  144.1390 C   0  0  0  0  0  2  0  0  0  0  0  0
  195.2530  174.0510  146.1880 C   0  0  0  0  0  2  0  0  0  0  0  0
  188.4800  175.9240  144.8610 C   0  0  1  0  0  3  0  0  0  0  0  0
  189.7390  174.1440  141.8030 C   0  0  0  0  0  3  0  0  0  0  0  0
  191.6620  175.3750  148.2550 C   0  0  0  0  0  1  0  0  0  0  0  0
  190.4680  176.0340  147.9580 O   0  0  0  0  0  0  0  0  0  0  0  0
  193.4240  174.5320  139.8890 O   0  0  0  0  0  1  0  0  0  0  0  0
  194.1180  175.3140  140.8120 C   0  0  0  0  0  2  0  0  0  0  0  0
  1 33  1  6  0  0  0
  1 13  1  0  0  0  0
  1  6  1  0  0  0  0
  2 23  1  0  0  0  0
  3 16  1  0  0  0  0
  4 16  1  0  0  0  0
  5  7  1  0  0  0  0
  6  5  1  0  0  0  0
  6 11  1  0  0  0  0
  7 17  1  0  0  0  0
  8 20  1  0  0  0  0
 10  9  1  0  0  0  0
 10 18  1  0  0  0  0
 11 12  1  0  0  0  0
 12 27  1  0  0  0  0
 14 13  1  0  0  0  0
 14 20  1  0  0  0  0
 15 28  1  0  0  0  0
 16 18  1  0  0  0  0
 17 27  1  0  0  0  0
 18 31  1  0  0  0  0
 19  2  1  0  0  0  0
 20 23  1  0  0  0  0
 20  3  1  0  0  0  0
 21 22  2  0  0  0  0
 21 25  1  0  0  0  0
 22 29  1  0  0  0  0
 23  3  1  0  0  0  0
 23 28  1  0  0  0  0
 24 22  1  0  0  0  0
 25 19  1  0  0  0  0
 25  8  1  0  0  0  0
 26 11  1  0  0  0  0
 26  4  1  0  0  0  0
 28 10  1  0  0  0  0
 29  8  2  0  0  0  0
 31 30  1  0  0  0  0
 32 33  1  0  0  0  0
M  END
>  <MODEL>
2

>  <REMARK>
 VINA RESULT:      -6.7      3.331      5.629
  Name = 
  2 active torsions:
  status: ('A' for Active; 'I' for Inactive)
    1  A    between atoms: C_1  and  C_31
    2  A    between atoms: C_20  and  O_24
                            x       y       z     vdW  Elec       q    Type
                         _______ _______ _______ _____ _____    ______ ____

>  <TORSDO>
F 2

$$$$
=
 OpenBabel11062421133D

 33 38  0  0  1  0  0  0  0  0999 V2000
  188.8950  175.1380  141.3660 C   0  0  1  0  0  3  0  0  0  0  0  0
  191.8790  172.6770  144.9180 C   0  0  0  0  0  2  0  0  0  0  0  0
  190.3630  174.9610  144.8460 C   0  0  1  0  0  3  0  0  0  0  0  0
  190.9520  177.4460  144.0790 C   0  0  0  0  0  2  0  0  0  0  0  0
  186.6440  176.2470  141.7440 C   0  0  0  0  0  2  0  0  0  0  0  0
  188.1550  176.4610  141.6320 C   0  0  1  0  0  3  0  0  0  0  0  0
  185.7850  177.7200  141.1070 S   0  0  0  0  0  0  0  0  0  0  0  0
  192.3060  174.4840  142.7430 C   0  0  0  0  0  0  0  0  0  0  0  0
  192.0560  174.8870  147.7570 O   0  0  0  0  0  1  0  0  0  0  0  0
  192.3720  175.8130  146.7560 C   0  0  2  0  0  3  0  0  0  0  0  0
  188.7220  177.1940  142.8620 C   0  0  2  0  0  3  0  0  0  0  0  0
  188.0880  178.5650  143.0730 C   0  0  0  0  0  2  0  0  0  0  0  0
  188.7180  174.1310  142.4960 C   0  0  0  0  0  2  0  0  0  0  0  0
  190.0570  173.5150  142.8950 C   0  0  0  0  0  2  0  0  0  0  0  0
  193.9670  174.3440  145.7390 O   0  0  0  0  0  1  0  0  0  0  0  0
  190.4480  176.4830  145.1690 C   0  0  2  0  0  3  0  0  0  0  0  0
  185.5790  178.5760  142.7170 C   0  0  0  0  0  2  0  0  0  0  0  0
  191.1890  176.7660  146.4800 C   0  0  1  0  0  3  0  0  0  0  0  0
  192.9680  172.3380  143.8540 C   0  0  0  0  0  2  0  0  0  0  0  0
  191.0200  174.5470  143.5120 C   0  0  2  0  0  0  0  0  0  0  0  0
  194.1260  173.5310  142.0090 N   0  0  0  0  0  0  0  0  0  0  0  0
  193.9070  174.6730  141.3270 C   0  0  0  0  0  0  0  0  0  0  0  0
  191.6460  174.2000  144.9260 C   0  0  2  0  0  0  0  0  0  0  0  0
  194.7640  175.1390  140.2920 N   0  0  0  0  0  1  0  0  0  0  0  0
  193.1300  173.4220  142.8660 N   0  0  0  0  0  0  0  0  0  0  0  0
  190.2330  177.3490  142.7330 C   0  0  0  0  0  2  0  0  0  0  0  0
  186.7210  178.3920  143.7150 C   0  0  0  0  0  2  0  0  0  0  0  0
  192.8080  175.0820  145.4850 C   0  0  1  0  0  3  0  0  0  0  0  0
  192.7480  175.3240  141.7380 C   0  0  0  0  0  3  0  0  0  0  0  0
  189.1850  177.5020  147.0630 C   0  0  0  0  0  1  0  0  0  0  0  0
  190.2900  176.8020  147.5490 O   0  0  0  0  0  0  0  0  0  0  0  0
  188.1430  173.1850  140.2150 O   0  0  0  0  0  1  0  0  0  0  0  0
  188.5090  174.5170  140.0310 C   0  0  0  0  0  2  0  0  0  0  0  0
  1 33  1  6  0  0  0
  1  6  1  0  0  0  0
  1 13  1  0  0  0  0
  2 23  1  0  0  0  0
  3 23  1  0  0  0  0
  3 16  1  0  0  0  0
  4 16  1  0  0  0  0
  6  5  1  0  0  0  0
  6 11  1  0  0  0  0
  7  5  1  0  0  0  0
  7 17  1  0  0  0  0
  8 25  1  0  0  0  0
  8 20  1  0  0  0  0
 10  9  1  0  0  0  0
 11 12  1  0  0  0  0
 12 27  1  0  0  0  0
 13 14  1  0  0  0  0
 14 20  1  0  0  0  0
 16 18  1  0  0  0  0
 17 27  1  0  0  0  0
 18 10  1  0  0  0  0
 18 31  1  0  0  0  0
 19  2  1  0  0  0  0
 20  3  1  0  0  0  0
 20 23  1  0  0  0  0
 21 25  1  0  0  0  0
 22 29  1  0  0  0  0
 22 21  2  0  0  0  0
 23 28  1  0  0  0  0
 24 22  1  0  0  0  0
 25 19  1  0  0  0  0
 26 11  1  0  0  0  0
 26  4  1  0  0  0  0
 28 15  1  0  0  0  0
 28 10  1  0  0  0  0
 29  8  2  0  0  0  0
 30 31  1  0  0  0  0
 33 32  1  0  0  0  0
M  END
>  <MODEL>
3

>  <REMARK>
 VINA RESULT:      -6.6      2.905      4.908
  Name = 
  2 active torsions:
  status: ('A' for Active; 'I' for Inactive)
    1  A    between atoms: C_1  and  C_31
    2  A    between atoms: C_20  and  O_24
                            x       y       z     vdW  Elec       q    Type
                         _______ _______ _______ _____ _____    ______ ____

>  <TORSDO>
F 2

$$$$
=
 OpenBabel11062421133D

 33 38  0  0  1  0  0  0  0  0999 V2000
  192.2640  175.4060  146.0520 C   0  0  1  0  0  3  0  0  0  0  0  0
  197.1770  174.8880  144.2710 C   0  0  0  0  0  2  0  0  0  0  0  0
  194.7150  175.3880  143.1720 C   0  0  1  0  0  3  0  0  0  0  0  0
  192.7930  173.7440  142.3260 C   0  0  0  0  0  2  0  0  0  0  0  0
  190.5310  177.1120  145.3250 C   0  0  0  0  0  2  0  0  0  0  0  0
  191.0460  175.6820  145.1510 C   0  0  1  0  0  3  0  0  0  0  0  0
  188.7270  177.1260  145.0870 S   0  0  0  0  0  0  0  0  0  0  0  0
  195.0300  173.1360  144.9770 C   0  0  0  0  0  0  0  0  0  0  0  0
  196.9330  174.9420  140.6770 O   0  0  0  0  0  1  0  0  0  0  0  0
  195.9330  173.9980  140.9370 C   0  0  2  0  0  3  0  0  0  0  0  0
  191.3440  175.3550  143.6750 C   0  0  2  0  0  3  0  0  0  0  0  0
  190.1170  175.5030  142.7810 C   0  0  0  0  0  2  0  0  0  0  0  0
  193.4520  176.3010  145.7190 C   0  0  0  0  0  2  0  0  0  0  0  0
  194.7400  175.4870  145.6180 C   0  0  0  0  0  2  0  0  0  0  0  0
  197.3220  172.7700  142.4530 O   0  0  0  0  0  1  0  0  0  0  0  0
  193.7730  174.8940  142.0340 C   0  0  2  0  0  3  0  0  0  0  0  0
  188.7360  177.5630  143.3040 C   0  0  0  0  0  2  0  0  0  0  0  0
  194.5260  174.6010  140.7320 C   0  0  1  0  0  3  0  0  0  0  0  0
  197.4600  173.6910  145.2300 C   0  0  0  0  0  2  0  0  0  0  0  0
  194.7210  174.5000  144.4350 C   0  0  2  0  0  0  0  0  0  0  0  0
  196.2750  171.6300  145.9470 N   0  0  0  0  0  0  0  0  0  0  0  0
  195.0030  171.1880  145.8730 C   0  0  0  0  0  0  0  0  0  0  0  0
  195.9360  174.5640  143.4190 C   0  0  2  0  0  0  0  0  0  0  0  0
  194.5890  169.9210  146.3710 N   0  0  0  0  0  1  0  0  0  0  0  0
  196.2740  172.8310  145.4030 N   0  0  0  0  0  0  0  0  0  0  0  0
  191.8960  173.9400  143.5490 C   0  0  0  0  0  2  0  0  0  0  0  0
  189.8850  176.9750  142.4850 C   0  0  0  0  0  2  0  0  0  0  0  0
  196.0970  173.4350  142.3490 C   0  0  1  0  0  3  0  0  0  0  0  0
  194.1520  172.1120  145.2770 C   0  0  0  0  0  3  0  0  0  0  0  0
  194.2000  175.2900  138.6540 C   0  0  0  0  0  1  0  0  0  0  0  0
  194.5620  175.7410  139.9230 O   0  0  0  0  0  0  0  0  0  0  0  0
  190.6720  174.9260  147.7660 O   0  0  0  0  0  1  0  0  0  0  0  0
  191.9210  175.4990  147.5310 C   0  0  0  0  0  2  0  0  0  0  0  0
  1 33  1  1  0  0  0
  2 19  1  0  0  0  0
  3 23  1  0  0  0  0
  3 20  1  0  0  0  0
  4 26  1  0  0  0  0
  6  5  1  0  0  0  0
  6  1  1  0  0  0  0
  7  5  1  0  0  0  0
  8 29  2  0  0  0  0
  8 25  1  0  0  0  0
  9 10  1  0  0  0  0
 10 28  1  0  0  0  0
 11  6  1  0  0  0  0
 12 11  1  0  0  0  0
 13  1  1  0  0  0  0
 14 13  1  0  0  0  0
 16  4  1  0  0  0  0
 16  3  1  0  0  0  0
 17  7  1  0  0  0  0
 18 10  1  0  0  0  0
 18 16  1  0  0  0  0
 19 25  1  0  0  0  0
 20  8  1  0  0  0  0
 20 14  1  0  0  0  0
 22 21  2  0  0  0  0
 22 24  1  0  0  0  0
 23  2  1  0  0  0  0
 23 20  1  0  0  0  0
 25 21  1  0  0  0  0
 26 11  1  0  0  0  0
 27 12  1  0  0  0  0
 27 17  1  0  0  0  0
 28 15  1  0  0  0  0
 28 23  1  0  0  0  0
 29 22  1  0  0  0  0
 30 31  1  0  0  0  0
 31 18  1  0  0  0  0
 33 32  1  0  0  0  0
M  END
>  <MODEL>
4

>  <REMARK>
 VINA RESULT:      -6.6      3.957      6.718
  Name = 
  2 active torsions:
  status: ('A' for Active; 'I' for Inactive)
    1  A    between atoms: C_1  and  C_31
    2  A    between atoms: C_20  and  O_24
                            x       y       z     vdW  Elec       q    Type
                         _______ _______ _______ _____ _____    ______ ____

>  <TORSDO>
F 2

$$$$
=
 OpenBabel11062421133D

 33 38  0  0  1  0  0  0  0  0999 V2000
  189.8710  172.7050  142.1850 C   0  0  1  0  0  3  0  0  0  0  0  0
  192.0050  177.2750  143.6490 C   0  0  0  0  0  2  0  0  0  0  0  0
  192.9170  174.7460  143.1090 C   0  0  1  0  0  3  0  0  0  0  0  0
  193.1570  172.5880  144.6580 C   0  0  0  0  0  2  0  0  0  0  0  0
  190.7760  171.0550  140.4820 C   0  0  0  0  0  2  0  0  0  0  0  0
  190.6750  171.4100  141.9670 C   0  0  1  0  0  3  0  0  0  0  0  0
  190.8160  169.2440  140.3060 S   0  0  0  0  0  0  0  0  0  0  0  0
  190.6930  175.0870  144.9430 C   0  0  0  0  0  0  0  0  0  0  0  0
  195.4690  176.5690  144.3380 O   0  0  0  0  0  1  0  0  0  0  0  0
  194.8960  175.5290  145.0790 C   0  0  2  0  0  3  0  0  0  0  0  0
  192.0610  171.4810  142.6350 C   0  0  2  0  0  3  0  0  0  0  0  0
  192.8280  170.1660  142.5380 C   0  0  0  0  0  2  0  0  0  0  0  0
  190.5240  173.9160  141.5290 C   0  0  0  0  0  2  0  0  0  0  0  0
  190.5750  175.0990  142.4920 C   0  0  0  0  0  2  0  0  0  0  0  0
  193.2990  176.9870  146.1090 O   0  0  0  0  0  1  0  0  0  0  0  0
  193.8060  173.6220  143.7200 C   0  0  2  0  0  3  0  0  0  0  0  0
  192.6420  169.0590  140.2660 C   0  0  0  0  0  2  0  0  0  0  0  0
  195.0810  174.1680  144.3720 C   0  0  1  0  0  3  0  0  0  0  0  0
  190.8350  177.5710  144.6370 C   0  0  0  0  0  2  0  0  0  0  0  0
  191.4940  174.8360  143.7000 C   0  0  2  0  0  0  0  0  0  0  0  0
  189.5460  176.3060  146.3420 N   0  0  0  0  0  0  0  0  0  0  0  0
  189.3800  175.0000  146.6370 C   0  0  0  0  0  0  0  0  0  0  0  0
  192.6230  175.9080  143.9990 C   0  0  2  0  0  0  0  0  0  0  0  0
  188.5670  174.5410  147.7090 N   0  0  0  0  0  1  0  0  0  0  0  0
  190.3450  176.3440  145.2940 N   0  0  0  0  0  0  0  0  0  0  0  0
  191.9210  171.8800  144.0990 C   0  0  0  0  0  2  0  0  0  0  0  0
  193.4240  170.0330  141.1470 C   0  0  0  0  0  2  0  0  0  0  0  0
  193.4190  175.8240  145.3420 C   0  0  1  0  0  3  0  0  0  0  0  0
  190.0760  174.1660  145.7680 C   0  0  0  0  0  3  0  0  0  0  0  0
  197.1270  173.4100  144.0070 C   0  0  0  0  0  1  0  0  0  0  0  0
  196.1260  174.2020  143.4450 O   0  0  0  0  0  0  0  0  0  0  0  0
  188.1930  173.3770  140.6250 O   0  0  0  0  0  1  0  0  0  0  0  0
  188.4230  172.5690  141.7370 C   0  0  0  0  0  2  0  0  0  0  0  0
  1 33  1  6  0  0  0
  2 23  1  0  0  0  0
  2 19  1  0  0  0  0
  3 20  1  0  0  0  0
  3 16  1  0  0  0  0
  3 23  1  0  0  0  0
  5  6  1  0  0  0  0
  6  1  1  0  0  0  0
  6 11  1  0  0  0  0
  7  5  1  0  0  0  0
  8 25  1  0  0  0  0
  8 29  2  0  0  0  0
  9 10  1  0  0  0  0
 10 28  1  0  0  0  0
 11 26  1  0  0  0  0
 12 11  1  0  0  0  0
 13  1  1  0  0  0  0
 13 14  1  0  0  0  0
 14 20  1  0  0  0  0
 16 18  1  0  0  0  0
 16  4  1  0  0  0  0
 17  7  1  0  0  0  0
 17 27  1  0  0  0  0
 18 10  1  0  0  0  0
 19 25  1  0  0  0  0
 20 23  1  0  0  0  0
 20  8  1  0  0  0  0
 21 22  2  0  0  0  0
 22 24  1  0  0  0  0
 23 28  1  0  0  0  0
 25 21  1  0  0  0  0
 26  4  1  0  0  0  0
 27 12  1  0  0  0  0
 28 15  1  0  0  0  0
 29 22  1  0  0  0  0
 31 30  1  0  0  0  0
 31 18  1  0  0  0  0
 32 33  1  0  0  0  0
M  END
>  <MODEL>
5

>  <REMARK>
 VINA RESULT:      -6.4      2.713      5.315
  Name = 
  2 active torsions:
  status: ('A' for Active; 'I' for Inactive)
    1  A    between atoms: C_1  and  C_31
    2  A    between atoms: C_20  and  O_24
                            x       y       z     vdW  Elec       q    Type
                         _______ _______ _______ _____ _____    ______ ____

>  <TORSDO>
F 2

$$$$
=
 OpenBabel11062421133D

 33 38  0  0  1  0  0  0  0  0999 V2000
  192.9610  174.3460  145.0390 C   0  0  1  0  0  3  0  0  0  0  0  0
  192.6330  173.3860  139.8870 C   0  0  0  0  0  2  0  0  0  0  0  0
  190.9840  174.4230  141.8170 C   0  0  1  0  0  3  0  0  0  0  0  0
  189.3010  173.2460  143.5180 C   0  0  0  0  0  2  0  0  0  0  0  0
  192.1150  176.3880  146.2860 C   0  0  0  0  0  2  0  0  0  0  0  0
  191.8170  174.9440  145.8780 C   0  0  1  0  0  3  0  0  0  0  0  0
  191.3660  176.7130  147.9130 S   0  0  0  0  0  0  0  0  0  0  0  0
  192.3130  171.8880  142.3010 C   0  0  0  0  0  0  0  0  0  0  0  0
  189.2130  174.0560  138.9760 O   0  0  0  0  0  1  0  0  0  0  0  0
  188.9740  173.2450  140.0910 C   0  0  2  0  0  3  0  0  0  0  0  0
  190.4590  174.8190  145.1610 C   0  0  2  0  0  3  0  0  0  0  0  0
  189.2940  175.2920  146.0240 C   0  0  0  0  0  2  0  0  0  0  0  0
  193.1780  175.0930  143.7290 C   0  0  0  0  0  2  0  0  0  0  0  0
  193.2970  174.1210  142.5580 C   0  0  0  0  0  2  0  0  0  0  0  0
  190.5520  171.5930  139.3730 O   0  0  0  0  0  1  0  0  0  0  0  0
  189.5450  174.2680  142.3930 C   0  0  2  0  0  3  0  0  0  0  0  0
  189.7900  177.4260  147.2990 C   0  0  0  0  0  2  0  0  0  0  0  0
  188.4900  174.0790  141.2970 C   0  0  1  0  0  3  0  0  0  0  0  0
  193.3730  172.0210  140.0350 C   0  0  0  0  0  2  0  0  0  0  0  0
  191.9880  173.3520  142.2940 C   0  0  2  0  0  0  0  0  0  0  0  0
  193.2820  170.0750  141.5740 N   0  0  0  0  0  0  0  0  0  0  0  0
  192.7520  169.8470  142.7930 C   0  0  0  0  0  0  0  0  0  0  0  0
  191.4080  173.3950  140.8200 C   0  0  2  0  0  0  0  0  0  0  0  0
  192.8430  168.5940  143.4600 N   0  0  0  0  0  1  0  0  0  0  0  0
  193.0150  171.3340  141.2900 N   0  0  0  0  0  0  0  0  0  0  0  0
  190.2200  173.3760  144.7330 C   0  0  0  0  0  2  0  0  0  0  0  0
  189.2440  176.8110  146.0110 C   0  0  0  0  0  2  0  0  0  0  0  0
  190.2290  172.4430  140.4350 C   0  0  1  0  0  3  0  0  0  0  0  0
  192.1310  170.9730  143.3210 C   0  0  0  0  0  3  0  0  0  0  0  0
  187.2550  175.7730  142.0060 C   0  0  0  0  0  1  0  0  0  0  0  0
  187.9730  175.3150  140.9010 O   0  0  0  0  0  0  0  0  0  0  0  0
  195.2000  175.1360  145.2950 O   0  0  0  0  0  1  0  0  0  0  0  0
  194.2620  174.2490  145.8220 C   0  0  0  0  0  2  0  0  0  0  0  0
  1 33  1  1  0  0  0
  1  6  1  0  0  0  0
  2 19  1  0  0  0  0
  2 23  1  0  0  0  0
  3 20  1  0  0  0  0
  3 16  1  0  0  0  0
  4 26  1  0  0  0  0
  5  7  1  0  0  0  0
  6  5  1  0  0  0  0
  8 29  2  0  0  0  0
  9 10  1  0  0  0  0
 10 28  1  0  0  0  0
 10 18  1  0  0  0  0
 11  6  1  0  0  0  0
 11 12  1  0  0  0  0
 13  1  1  0  0  0  0
 14 13  1  0  0  0  0
 15 28  1  0  0  0  0
 16  4  1  0  0  0  0
 17  7  1  0  0  0  0
 18 16  1  0  0  0  0
 19 25  1  0  0  0  0
 20  8  1  0  0  0  0
 20 14  1  0  0  0  0
 21 22  2  0  0  0  0
 22 29  1  0  0  0  0
 22 24  1  0  0  0  0
 23  3  1  0  0  0  0
 23 20  1  0  0  0  0
 25 21  1  0  0  0  0
 25  8  1  0  0  0  0
 26 11  1  0  0  0  0
 27 12  1  0  0  0  0
 27 17  1  0  0  0  0
 28 23  1  0  0  0  0
 31 18  1  0  0  0  0
 31 30  1  0  0  0  0
 32 33  1  0  0  0  0
M  END
>  <MODEL>
6

>  <REMARK>
 VINA RESULT:      -6.4      3.642      6.250
  Name = 
  2 active torsions:
  status: ('A' for Active; 'I' for Inactive)
    1  A    between atoms: C_1  and  C_31
    2  A    between atoms: C_20  and  O_24
                            x       y       z     vdW  Elec       q    Type
                         _______ _______ _______ _____ _____    ______ ____

>  <TORSDO>
F 2

$$$$
=
 OpenBabel11062421133D

 33 38  0  0  1  0  0  0  0  0999 V2000
  194.2270  171.7000  143.8990 C   0  0  1  0  0  3  0  0  0  0  0  0
  192.2710  176.0220  146.1510 C   0  0  0  0  0  2  0  0  0  0  0  0
  191.4890  174.2940  144.1710 C   0  0  1  0  0  3  0  0  0  0  0  0
  192.0110  174.2550  141.5560 C   0  0  0  0  0  2  0  0  0  0  0  0
  192.9670  169.5970  143.2430 C   0  0  0  0  0  2  0  0  0  0  0  0
  193.5320  170.9340  142.7590 C   0  0  1  0  0  3  0  0  0  0  0  0
  193.0520  168.3880  141.8850 S   0  0  0  0  0  0  0  0  0  0  0  0
  194.1590  175.4310  144.0860 C   0  0  0  0  0  0  0  0  0  0  0  0
  189.3400  176.8860  144.2450 O   0  0  0  0  0  1  0  0  0  0  0  0
  190.2330  176.7130  143.1820 C   0  0  2  0  0  3  0  0  0  0  0  0
  192.4560  171.7940  142.0670 C   0  0  2  0  0  3  0  0  0  0  0  0
  191.8400  171.1010  140.8560 C   0  0  0  0  0  2  0  0  0  0  0  0
  193.2710  172.0580  145.0310 C   0  0  0  0  0  2  0  0  0  0  0  0
  193.4320  173.5190  145.4420 C   0  0  0  0  0  2  0  0  0  0  0  0
  191.9290  178.0320  144.2390 O   0  0  0  0  0  1  0  0  0  0  0  0
  190.9800  174.2890  142.6990 C   0  0  2  0  0  3  0  0  0  0  0  0
  191.3500  168.6450  141.2460 C   0  0  0  0  0  2  0  0  0  0  0  0
  189.9560  175.3960  142.4250 C   0  0  1  0  0  3  0  0  0  0  0  0
  193.6720  176.7080  146.1870 C   0  0  0  0  0  2  0  0  0  0  0  0
  193.0120  174.4950  144.3270 C   0  0  2  0  0  0  0  0  0  0  0  0
  195.5850  176.9890  144.6290 N   0  0  0  0  0  0  0  0  0  0  0  0
  195.9720  176.4020  143.4780 C   0  0  0  0  0  0  0  0  0  0  0  0
  191.9510  175.6120  144.7020 C   0  0  2  0  0  0  0  0  0  0  0  0
  197.1450  176.7790  142.7680 N   0  0  0  0  0  1  0  0  0  0  0  0
  194.4780  176.3760  144.9960 N   0  0  0  0  0  0  0  0  0  0  0  0
  193.0470  173.1320  141.6400 C   0  0  0  0  0  2  0  0  0  0  0  0
  190.8220  170.0760  141.3290 C   0  0  0  0  0  2  0  0  0  0  0  0
  191.6730  176.7720  143.6920 C   0  0  1  0  0  3  0  0  0  0  0  0
  195.1100  175.3840  143.0850 C   0  0  0  0  0  3  0  0  0  0  0  0
  188.1430  174.6690  141.3850 C   0  0  0  0  0  1  0  0  0  0  0  0
  188.6600  174.9270  142.6550 O   0  0  0  0  0  0  0  0  0  0  0  0
  195.2250  170.5980  145.7680 O   0  0  0  0  0  1  0  0  0  0  0  0
  195.4410  170.9580  144.4380 C   0  0  0  0  0  2  0  0  0  0  0  0
  1 33  1  1  0  0  0
  1 13  1  0  0  0  0
  2 19  1  0  0  0  0
  3 20  1  0  0  0  0
  3 23  1  0  0  0  0
  4 26  1  0  0  0  0
  4 16  1  0  0  0  0
  6  5  1  0  0  0  0
  6  1  1  0  0  0  0
  7  5  1  0  0  0  0
  8 20  1  0  0  0  0
  8 25  1  0  0  0  0
 10 28  1  0  0  0  0
 10  9  1  0  0  0  0
 11  6  1  0  0  0  0
 12 27  1  0  0  0  0
 12 11  1  0  0  0  0
 13 14  1  0  0  0  0
 16  3  1  0  0  0  0
 17 27  1  0  0  0  0
 17  7  1  0  0  0  0
 18 31  1  0  0  0  0
 18 16  1  0  0  0  0
 18 10  1  0  0  0  0
 20 23  1  0  0  0  0
 20 14  1  0  0  0  0
 21 25  1  0  0  0  0
 22 21  2  0  0  0  0
 23  2  1  0  0  0  0
 24 22  1  0  0  0  0
 25 19  1  0  0  0  0
 26 11  1  0  0  0  0
 28 15  1  0  0  0  0
 28 23  1  0  0  0  0
 29 22  1  0  0  0  0
 29  8  2  0  0  0  0
 30 31  1  0  0  0  0
 33 32  1  0  0  0  0
M  END
>  <MODEL>
7

>  <REMARK>
 VINA RESULT:      -6.3      2.442      3.376
  Name = 
  2 active torsions:
  status: ('A' for Active; 'I' for Inactive)
    1  A    between atoms: C_1  and  C_31
    2  A    between atoms: C_20  and  O_24
                            x       y       z     vdW  Elec       q    Type
                         _______ _______ _______ _____ _____    ______ ____

>  <TORSDO>
F 2

$$$$
=
 OpenBabel11062421133D

 33 38  0  0  1  0  0  0  0  0999 V2000
  192.7460  175.7640  145.4210 C   0  0  1  0  0  3  0  0  0  0  0  0
  197.0460  176.1200  142.4290 C   0  0  0  0  0  2  0  0  0  0  0  0
  194.3880  175.5830  142.0200 C   0  0  1  0  0  3  0  0  0  0  0  0
  193.0100  173.3030  142.1350 C   0  0  0  0  0  2  0  0  0  0  0  0
  190.4230  176.6400  144.8950 C   0  0  0  0  0  2  0  0  0  0  0  0
  191.3460  175.4200  144.8790 C   0  0  1  0  0  3  0  0  0  0  0  0
  188.7150  176.0900  145.1990 S   0  0  0  0  0  0  0  0  0  0  0  0
  195.8260  174.1300  144.0800 C   0  0  0  0  0  0  0  0  0  0  0  0
  196.0450  175.0590  139.1350 O   0  0  0  0  0  1  0  0  0  0  0  0
  195.5060  173.9950  139.8670 C   0  0  2  0  0  3  0  0  0  0  0  0
  191.4180  174.7750  143.4830 C   0  0  2  0  0  3  0  0  0  0  0  0
  190.0550  174.3130  142.9780 C   0  0  0  0  0  2  0  0  0  0  0  0
  193.4580  176.8140  144.5770 C   0  0  0  0  0  2  0  0  0  0  0  0
  194.8940  176.3910  144.2750 C   0  0  0  0  0  2  0  0  0  0  0  0
  197.5180  173.6900  141.1300 O   0  0  0  0  0  1  0  0  0  0  0  0
  193.4530  174.5420  141.3360 C   0  0  2  0  0  3  0  0  0  0  0  0
  188.1980  175.9750  143.4410 C   0  0  0  0  0  2  0  0  0  0  0  0
  193.9680  174.1020  139.9610 C   0  0  1  0  0  3  0  0  0  0  0  0
  197.9170  175.3790  143.4900 C   0  0  0  0  0  2  0  0  0  0  0  0
  194.9640  175.1380  143.3810 C   0  0  2  0  0  0  0  0  0  0  0  0
  197.6850  173.3720  144.9340 N   0  0  0  0  0  0  0  0  0  0  0  0
  196.6560  172.5960  145.3300 C   0  0  0  0  0  0  0  0  0  0  0  0
  195.8400  175.2340  142.0640 C   0  0  2  0  0  0  0  0  0  0  0  0
  196.8140  171.4660  146.1790 N   0  0  0  0  0  1  0  0  0  0  0  0
  197.1600  174.3150  144.1780 N   0  0  0  0  0  0  0  0  0  0  0  0
  192.3800  173.5920  143.4980 C   0  0  0  0  0  2  0  0  0  0  0  0
  189.2780  175.5140  142.4630 C   0  0  0  0  0  2  0  0  0  0  0  0
  196.1470  173.9330  141.2540 C   0  0  1  0  0  3  0  0  0  0  0  0
  195.4340  173.0370  144.8310 C   0  0  0  0  0  3  0  0  0  0  0  0
  192.7510  174.0530  138.1140 C   0  0  0  0  0  1  0  0  0  0  0  0
  193.4410  174.9220  138.9590 O   0  0  0  0  0  0  0  0  0  0  0  0
  191.9420  175.2850  147.6180 O   0  0  0  0  0  1  0  0  0  0  0  0
  192.7130  176.1840  146.8830 C   0  0  0  0  0  2  0  0  0  0  0  0
  1 33  1  1  0  0  0
  2 19  1  0  0  0  0
  3 23  1  0  0  0  0
  3 20  1  0  0  0  0
  4 26  1  0  0  0  0
  5  7  1  0  0  0  0
  6  5  1  0  0  0  0
  6  1  1  0  0  0  0
  8 25  1  0  0  0  0
  8 29  2  0  0  0  0
  9 10  1  0  0  0  0
 10 18  1  0  0  0  0
 10 28  1  0  0  0  0
 11 26  1  0  0  0  0
 11  6  1  0  0  0  0
 12 11  1  0  0  0  0
 13  1  1  0  0  0  0
 14 13  1  0  0  0  0
 15 28  1  0  0  0  0
 16  3  1  0  0  0  0
 16  4  1  0  0  0  0
 17  7  1  0  0  0  0
 18 16  1  0  0  0  0
 19 25  1  0  0  0  0
 20  8  1  0  0  0  0
 20 14  1  0  0  0  0
 21 22  2  0  0  0  0
 22 24  1  0  0  0  0
 23  2  1  0  0  0  0
 23 20  1  0  0  0  0
 25 21  1  0  0  0  0
 27 12  1  0  0  0  0
 27 17  1  0  0  0  0
 28 23  1  0  0  0  0
 29 22  1  0  0  0  0
 30 31  1  0  0  0  0
 31 18  1  0  0  0  0
 33 32  1  0  0  0  0
M  END
>  <MODEL>
8

>  <REMARK>
 VINA RESULT:      -6.3      4.025      6.713
  Name = 
  2 active torsions:
  status: ('A' for Active; 'I' for Inactive)
    1  A    between atoms: C_1  and  C_31
    2  A    between atoms: C_20  and  O_24
                            x       y       z     vdW  Elec       q    Type
                         _______ _______ _______ _____ _____    ______ ____

>  <TORSDO>
F 2

$$$$
=
 OpenBabel11062421133D

 33 38  0  0  1  0  0  0  0  0999 V2000
  190.0100  173.2760  143.0350 C   0  0  1  0  0  3  0  0  0  0  0  0
  194.2850  171.2110  145.2800 C   0  0  0  0  0  2  0  0  0  0  0  0
  193.2480  173.7260  144.9360 C   0  0  1  0  0  3  0  0  0  0  0  0
  193.4860  175.4750  142.9370 C   0  0  0  0  0  2  0  0  0  0  0  0
  188.5500  175.1500  143.9290 C   0  0  0  0  0  2  0  0  0  0  0  0
  189.7030  174.7850  142.9930 C   0  0  1  0  0  3  0  0  0  0  0  0
  187.6220  176.5430  143.2150 S   0  0  0  0  0  0  0  0  0  0  0  0
  193.4860  171.9670  142.6400 C   0  0  0  0  0  0  0  0  0  0  0  0
  196.3320  174.0080  146.2600 O   0  0  0  0  0  1  0  0  0  0  0  0
  196.0690  174.3980  144.9410 C   0  0  2  0  0  3  0  0  0  0  0  0
  190.9600  175.6300  143.2750 C   0  0  2  0  0  3  0  0  0  0  0  0
  190.7090  177.1260  143.1170 C   0  0  0  0  0  2  0  0  0  0  0  0
  190.4540  172.8080  144.4160 C   0  0  0  0  0  2  0  0  0  0  0  0
  191.7000  171.9320  144.3220 C   0  0  0  0  0  2  0  0  0  0  0  0
  196.5910  172.2280  144.0720 O   0  0  0  0  0  1  0  0  0  0  0  0
  193.6500  175.1440  144.4310 C   0  0  2  0  0  3  0  0  0  0  0  0
  188.5030  177.8840  144.1060 C   0  0  0  0  0  2  0  0  0  0  0  0
  195.0510  175.5580  144.8920 C   0  0  1  0  0  3  0  0  0  0  0  0
  194.4800  170.1980  144.1110 C   0  0  0  0  0  2  0  0  0  0  0  0
  192.9320  172.7090  143.8190 C   0  0  2  0  0  0  0  0  0  0  0  0
  194.4040  170.2650  141.6290 N   0  0  0  0  0  0  0  0  0  0  0  0
  193.9270  171.1320  140.7130 C   0  0  0  0  0  0  0  0  0  0  0  0
  194.2450  172.6390  144.7030 C   0  0  2  0  0  0  0  0  0  0  0  0
  194.0310  170.9190  139.3110 N   0  0  0  0  0  1  0  0  0  0  0  0
  194.1170  170.7840  142.8060 N   0  0  0  0  0  0  0  0  0  0  0  0
  192.0980  175.2060  142.3530 C   0  0  0  0  0  2  0  0  0  0  0  0
  189.9920  177.6480  144.3510 C   0  0  0  0  0  2  0  0  0  0  0  0
  195.5860  173.1980  144.1260 C   0  0  1  0  0  3  0  0  0  0  0  0
  193.3120  172.2360  141.2960 C   0  0  0  0  0  3  0  0  0  0  0  0
  194.6720  177.5560  145.7650 C   0  0  0  0  0  1  0  0  0  0  0  0
  194.9810  176.2400  146.1100 O   0  0  0  0  0  0  0  0  0  0  0  0
  188.4920  172.8340  141.2460 O   0  0  0  0  0  1  0  0  0  0  0  0
  188.8450  172.4350  142.5340 C   0  0  0  0  0  2  0  0  0  0  0  0
  1 33  1  1  0  0  0
  1 13  1  0  0  0  0
  4 16  1  0  0  0  0
  6  1  1  0  0  0  0
  6 11  1  0  0  0  0
  6  5  1  0  0  0  0
  7  5  1  0  0  0  0
  7 17  1  0  0  0  0
  8 25  1  0  0  0  0
  8 20  1  0  0  0  0
 10  9  1  0  0  0  0
 12 11  1  0  0  0  0
 12 27  1  0  0  0  0
 14 13  1  0  0  0  0
 15 28  1  0  0  0  0
 16 18  1  0  0  0  0
 16  3  1  0  0  0  0
 17 27  1  0  0  0  0
 18 10  1  0  0  0  0
 18 31  1  0  0  0  0
 19  2  1  0  0  0  0
 20 14  1  0  0  0  0
 20 23  1  0  0  0  0
 20  3  1  0  0  0  0
 21 25  1  0  0  0  0
 22 29  1  0  0  0  0
 22 21  2  0  0  0  0
 23  3  1  0  0  0  0
 23  2  1  0  0  0  0
 24 22  1  0  0  0  0
 25 19  1  0  0  0  0
 26  4  1  0  0  0  0
 26 11  1  0  0  0  0
 28 23  1  0  0  0  0
 28 10  1  0  0  0  0
 29  8  2  0  0  0  0
 30 31  1  0  0  0  0
 32 33  1  0  0  0  0
M  END
>  <MODEL>
9

>  <REMARK>
 VINA RESULT:      -6.3      3.672      6.340
  Name = 
  2 active torsions:
  status: ('A' for Active; 'I' for Inactive)
    1  A    between atoms: C_1  and  C_31
    2  A    between atoms: C_20  and  O_24
                            x       y       z     vdW  Elec       q    Type
                         _______ _______ _______ _____ _____    ______ ____

>  <TORSDO>
F 2

$$$$
