=
 OpenBabel11062420503D

 50 56  0  0  1  0  0  0  0  0999 V2000
  190.4410  171.1610  141.2920 C   0  0  1  0  0  3  0  0  0  0  0  0
  191.4720  171.8430  142.1610 C   0  0  0  0  0  2  0  0  0  0  0  0
  190.7200  172.2180  143.4150 C   0  0  2  0  0  3  0  0  0  0  0  0
  189.1140  171.6490  141.6910 N   0  0  0  0  0  0  0  0  0  0  0  0
  189.2500  171.9500  143.1130 C   0  0  0  0  0  2  0  0  0  0  0  0
  188.0050  172.8610  139.5670 O   0  0  0  0  0  0  0  0  0  0  0  0
  190.0590  174.1010  140.5960 O   0  0  0  0  0  1  0  0  0  0  0  0
  188.6780  173.1630  140.8840 P   0  0  2  0  0  0  0  0  0  0  0  0
  187.6060  174.0640  141.8890 O   0  0  0  0  0  0  0  0  0  0  0  0
  187.6210  175.4610  141.9940 C   0  0  2  0  0  3  0  0  0  0  0  0
  187.4900  176.0870  143.1990 C   0  0  0  0  0  3  0  0  0  0  0  0
  186.5960  176.6630  140.1710 C   0  0  2  0  0  3  0  0  0  0  0  0
  187.3180  177.6200  141.0690 N   0  0  2  0  0  0  0  0  0  0  0  0
  187.3860  177.5760  143.3670 C   0  0  0  0  0  0  0  0  0  0  0  0
  187.7850  176.2580  140.7160 C   0  0  1  0  0  3  0  0  0  0  0  0
  187.2540  178.3450  142.2760 C   0  0  0  0  0  2  0  0  0  0  0  0
  187.2670  178.1280  144.7650 C   0  0  1  0  0  3  0  0  0  0  0  0
  183.8140  178.9750  145.6330 C   0  0  0  0  0  3  0  0  0  0  0  0
  184.8790  179.2500  144.7620 C   0  0  0  0  0  3  0  0  0  0  0  0
  185.8730  178.3970  145.1870 C   0  0  0  0  0  0  0  0  0  0  0  0
  184.2250  177.9860  146.5290 C   0  0  0  0  0  3  0  0  0  0  0  0
  185.4850  177.6780  146.2090 N   0  0  0  0  0  0  0  0  0  0  0  0
  187.7000  177.0540  145.7950 C   0  0  0  0  0  3  0  0  0  0  0  0
  186.4860  176.7760  146.7120 C   0  0  0  0  0  3  0  0  0  0  0  0
  186.8050  177.0510  138.7870 N   0  0  0  0  0  2  0  0  0  0  0  0
  187.0310  175.8790  138.0550 N   0  0  0  0  0  2  0  0  0  0  0  0
  186.3520  176.0330  136.7770 C   0  0  0  0  0  2  0  0  0  0  0  0
  187.8610  175.7510  134.8980 N   0  0  0  0  0  1  0  0  0  0  0  0
  187.2750  176.7310  135.7900 C   0  0  0  0  0  2  0  0  0  0  0  0
  190.7040  171.3540  139.9310 O   0  0  0  0  0  0  0  0  0  0  0  0
  192.0780  171.1330  139.7970 C   0  0  0  0  0  1  0  0  0  0  0  0
  190.8930  173.5790  143.6770 O   0  0  0  0  0  0  0  0  0  0  0  0
  195.2970  176.2940  145.4860 P   0  0  2  0  0  4  0  0  0  0  0  0
  193.5630  174.1260  144.1390 C   0  0  0  0  0  2  0  0  0  0  0  0
  190.0110  174.3390  145.7580 C   0  0  0  0  0  2  0  0  0  0  0  0
  191.7440  176.7490  148.1290 C   0  0  0  0  0  1  0  0  0  0  0  0
  195.3880  174.5640  145.7930 N   0  0  0  0  0  2  0  0  0  0  0  0
  191.4010  176.1030  146.8020 C   0  0  2  0  0  0  0  0  0  0  0  0
  193.5260  176.6960  145.4740 C   0  0  0  0  0  2  0  0  0  0  0  0
  192.6960  175.5840  146.1400 C   0  0  2  0  0  3  0  0  0  0  0  0
  194.9980  173.8240  144.5910 C   0  0  1  0  0  3  0  0  0  0  0  0
  192.5710  174.2770  145.3020 C   0  0  1  0  0  3  0  0  0  0  0  0
  190.7770  177.0510  145.9860 O   0  0  0  0  0  1  0  0  0  0  0  0
  190.4340  174.9600  147.0740 C   0  0  0  0  0  2  0  0  0  0  0  0
  194.2460  177.3350  146.4110 O   0  0  0  0  0  0  0  0  0  0  0  0
  191.1760  173.6590  145.0450 C   0  0  2  0  0  3  0  0  0  0  0  0
  195.8590  176.7990  144.1760 O   0  0  0  0  0  0  0  0  0  0  0  0
  195.1360  172.3300  144.8390 C   0  0  0  0  0  2  0  0  0  0  0  0
  196.5010  171.9950  145.4160 C   0  0  0  0  0  2  0  0  0  0  0  0
  197.4840  172.1490  144.4410 O   0  0  0  0  0  1  0  0  0  0  0  0
  1 30  1  6  0  0  0
  1  4  1  0  0  0  0
  1  2  1  0  0  0  0
  2  3  1  0  0  0  0
  3 32  1  6  0  0  0
  4  5  1  0  0  0  0
  5  3  1  0  0  0  0
  7  8  1  0  0  0  0
  8  6  2  6  0  0  0
  8  4  1  0  0  0  0
  8  9  1  0  0  0  0
 10  9  1  6  0  0  0
 10 11  1  0  0  0  0
 11 14  2  0  0  0  0
 12 25  1  6  0  0  0
 12 15  1  0  0  0  0
 12 13  1  0  0  0  0
 13 16  1  1  0  0  0
 14 17  1  0  0  0  0
 15 13  1  0  0  0  0
 15 10  1  0  0  0  0
 16 14  1  0  0  0  0
 17 20  1  0  0  0  0
 17 23  1  0  0  0  0
 18 21  2  0  0  0  0
 19 20  2  0  0  0  0
 19 18  1  0  0  0  0
 20 22  1  0  0  0  0
 22 21  1  0  0  0  0
 22 24  1  0  0  0  0
 23 24  2  0  0  0  0
 26 25  1  0  0  0  0
 27 26  1  0  0  0  0
 28 29  1  0  0  0  0
 29 27  1  0  0  0  0
 31 30  1  0  0  0  0
 32 46  1  0  0  0  0
 33 37  1  0  0  0  0
 33 45  1  0  0  0  0
 34 41  1  0  0  0  0
 34 42  1  0  0  0  0
 35 44  1  0  0  0  0
 38 44  1  0  0  0  0
 38 36  1  0  0  0  0
 39 40  1  0  0  0  0
 39 45  1  0  0  0  0
 40 38  1  0  0  0  0
 41 48  1  0  0  0  0
 41 37  1  0  0  0  0
 42 40  1  0  0  0  0
 43 38  1  0  0  0  0
 46 42  1  0  0  0  0
 46 35  1  0  0  0  0
 47 33  2  0  0  0  0
 48 49  1  0  0  0  0
 50 49  1  0  0  0  0
M  END
>  <MODEL>
1

>  <REMARK>
 VINA RESULT:      -7.9      0.000      0.000
  Name = 
  13 active torsions:
  status: ('A' for Active; 'I' for Inactive)
    1  A    between atoms: C_1  and  O_37
    2  A    between atoms: C_2  and  C_40
    3  A    between atoms: C_3  and  N_14
    4  A    between atoms: C_3  and  C_39
    5  A    between atoms: O_4  and  C_29
    6  A    between atoms: O_4  and  C_46
    7  A    between atoms: O_6  and  C_15
    8  A    between atoms: N_14  and  N_48
    9  A    between atoms: C_18  and  C_35
   10  A    between atoms: C_22  and  N_48
   11  A    between atoms: C_26  and  C_35
   12  A    between atoms: N_30  and  P_49
   13  A    between atoms: O_37  and  P_49
                            x       y       z     vdW  Elec       q    Type
                         _______ _______ _______ _____ _____    ______ ____

>  <TORSDO>
F 13

$$$$
=
 OpenBabel11062420503D

 50 56  0  0  1  0  0  0  0  0999 V2000
  190.2370  172.6320  139.6210 C   0  0  1  0  0  3  0  0  0  0  0  0
  191.6320  173.1150  139.9430 C   0  0  0  0  0  2  0  0  0  0  0  0
  192.1920  172.0590  140.8650 C   0  0  2  0  0  3  0  0  0  0  0  0
  189.7920  171.7590  140.7150 N   0  0  0  0  0  0  0  0  0  0  0  0
  191.0200  171.1500  141.2160 C   0  0  0  0  0  2  0  0  0  0  0  0
  189.3790  171.9600  143.3620 O   0  0  0  0  0  1  0  0  0  0  0  0
  187.4030  172.7910  141.8710 O   0  0  0  0  0  0  0  0  0  0  0  0
  189.0820  172.6670  142.0600 P   0  0  2  0  0  0  0  0  0  0  0  0
  189.7480  174.2560  142.0980 O   0  0  0  0  0  0  0  0  0  0  0  0
  189.3350  175.2560  142.9880 C   0  0  2  0  0  3  0  0  0  0  0  0
  188.0830  175.7940  142.9250 C   0  0  0  0  0  3  0  0  0  0  0  0
  191.0290  176.8400  143.6500 C   0  0  2  0  0  3  0  0  0  0  0  0
  189.8010  177.0300  144.4860 N   0  0  2  0  0  0  0  0  0  0  0  0
  187.6160  176.9420  143.7730 C   0  0  0  0  0  0  0  0  0  0  0  0
  190.3320  175.7240  144.0290 C   0  0  1  0  0  3  0  0  0  0  0  0
  188.5100  177.5940  144.5330 C   0  0  0  0  0  2  0  0  0  0  0  0
  186.1960  177.4180  143.6080 C   0  0  1  0  0  3  0  0  0  0  0  0
  184.4680  177.7740  146.8140 C   0  0  0  0  0  3  0  0  0  0  0  0
  185.1060  176.8740  145.9480 C   0  0  0  0  0  3  0  0  0  0  0  0
  185.4910  177.6640  144.8880 C   0  0  0  0  0  0  0  0  0  0  0  0
  184.4980  179.0420  146.2290 C   0  0  0  0  0  3  0  0  0  0  0  0
  185.1310  178.9090  145.0600 N   0  0  0  0  0  0  0  0  0  0  0  0
  186.1850  178.8330  142.9730 C   0  0  0  0  0  3  0  0  0  0  0  0
  185.4900  179.7840  143.9760 C   0  0  0  0  0  3  0  0  0  0  0  0
  192.2070  176.9820  144.4880 N   0  0  0  0  0  2  0  0  0  0  0  0
  192.5050  175.7160  145.0060 N   0  0  0  0  0  2  0  0  0  0  0  0
  193.1060  175.9180  146.3170 C   0  0  0  0  0  2  0  0  0  0  0  0
  191.3600  175.2830  147.8770 N   0  0  0  0  0  1  0  0  0  0  0  0
  192.0480  176.4150  147.2900 C   0  0  0  0  0  2  0  0  0  0  0  0
  189.3620  173.7000  139.3880 O   0  0  0  0  0  0  0  0  0  0  0  0
  188.6060  173.3090  138.2790 C   0  0  0  0  0  1  0  0  0  0  0  0
  192.6710  172.6600  142.0320 O   0  0  0  0  0  0  0  0  0  0  0  0
  197.1410  175.5440  143.3490 P   0  0  2  0  0  4  0  0  0  0  0  0
  194.8250  174.3580  141.6900 C   0  0  0  0  0  2  0  0  0  0  0  0
  193.6950  171.0790  143.4940 C   0  0  0  0  0  2  0  0  0  0  0  0
  196.7930  171.7190  145.5980 C   0  0  0  0  0  1  0  0  0  0  0  0
  197.3000  174.7040  141.8110 N   0  0  0  0  0  2  0  0  0  0  0  0
  195.5270  172.0620  144.8380 C   0  0  2  0  0  0  0  0  0  0  0  0
  195.9900  174.5450  144.3360 C   0  0  0  0  0  2  0  0  0  0  0  0
  195.8520  173.1230  143.7640 C   0  0  2  0  0  3  0  0  0  0  0  0
  196.0890  174.8990  141.0100 C   0  0  1  0  0  3  0  0  0  0  0  0
  195.0460  173.0330  142.4340 C   0  0  1  0  0  3  0  0  0  0  0  0
  194.5780  172.5510  145.7400 O   0  0  0  0  0  1  0  0  0  0  0  0
  195.0030  170.7850  144.2000 C   0  0  0  0  0  2  0  0  0  0  0  0
  197.2140  174.6930  144.8700 O   0  0  0  0  0  0  0  0  0  0  0  0
  193.8840  172.0200  142.3070 C   0  0  2  0  0  3  0  0  0  0  0  0
  196.5760  176.9460  143.3200 O   0  0  0  0  0  0  0  0  0  0  0  0
  196.2530  174.2240  139.6570 C   0  0  0  0  0  2  0  0  0  0  0  0
  196.8520  175.1780  138.6380 C   0  0  0  0  0  2  0  0  0  0  0  0
  196.2770  174.9650  137.3870 O   0  0  0  0  0  1  0  0  0  0  0  0
  1 30  1  1  0  0  0
  1  2  1  0  0  0  0
  1  4  1  0  0  0  0
  2  3  1  0  0  0  0
  3  5  1  0  0  0  0
  3 32  1  1  0  0  0
  4  5  1  0  0  0  0
  4  8  1  0  0  0  0
  8  7  2  6  0  0  0
  8  9  1  0  0  0  0
  8  6  1  0  0  0  0
 10  9  1  6  0  0  0
 10 15  1  0  0  0  0
 11 10  1  0  0  0  0
 11 14  2  0  0  0  0
 12 15  1  0  0  0  0
 12 13  1  0  0  0  0
 12 25  1  1  0  0  0
 13 16  1  6  0  0  0
 14 16  1  0  0  0  0
 15 13  1  0  0  0  0
 17 14  1  0  0  0  0
 17 20  1  0  0  0  0
 19 18  1  0  0  0  0
 20 22  1  0  0  0  0
 20 19  2  0  0  0  0
 21 18  2  0  0  0  0
 22 21  1  0  0  0  0
 23 17  1  0  0  0  0
 23 24  2  0  0  0  0
 24 22  1  0  0  0  0
 25 26  1  0  0  0  0
 26 27  1  0  0  0  0
 27 29  1  0  0  0  0
 29 28  1  0  0  0  0
 31 30  1  0  0  0  0
 32 46  1  0  0  0  0
 33 45  1  0  0  0  0
 34 42  1  0  0  0  0
 35 44  1  0  0  0  0
 37 33  1  0  0  0  0
 38 36  1  0  0  0  0
 38 43  1  0  0  0  0
 39 45  1  0  0  0  0
 40 39  1  0  0  0  0
 40 38  1  0  0  0  0
 41 34  1  0  0  0  0
 41 37  1  0  0  0  0
 42 40  1  0  0  0  0
 44 38  1  0  0  0  0
 46 42  1  0  0  0  0
 46 35  1  0  0  0  0
 47 33  2  0  0  0  0
 48 41  1  0  0  0  0
 49 48  1  0  0  0  0
 50 49  1  0  0  0  0
M  END
>  <MODEL>
2

>  <REMARK>
 VINA RESULT:      -7.6      2.674      5.154
  Name = 
  13 active torsions:
  status: ('A' for Active; 'I' for Inactive)
    1  A    between atoms: C_1  and  O_37
    2  A    between atoms: C_2  and  C_40
    3  A    between atoms: C_3  and  N_14
    4  A    between atoms: C_3  and  C_39
    5  A    between atoms: O_4  and  C_29
    6  A    between atoms: O_4  and  C_46
    7  A    between atoms: O_6  and  C_15
    8  A    between atoms: N_14  and  N_48
    9  A    between atoms: C_18  and  C_35
   10  A    between atoms: C_22  and  N_48
   11  A    between atoms: C_26  and  C_35
   12  A    between atoms: N_30  and  P_49
   13  A    between atoms: O_37  and  P_49
                            x       y       z     vdW  Elec       q    Type
                         _______ _______ _______ _____ _____    ______ ____

>  <TORSDO>
F 13

$$$$
=
 OpenBabel11062420503D

 50 56  0  0  1  0  0  0  0  0999 V2000
  190.0010  173.2790  140.4890 C   0  0  1  0  0  3  0  0  0  0  0  0
  189.0790  174.3800  140.9560 C   0  0  0  0  0  2  0  0  0  0  0  0
  189.8670  175.1040  142.0220 C   0  0  2  0  0  3  0  0  0  0  0  0
  190.9410  172.9780  141.5760 N   0  0  0  0  0  0  0  0  0  0  0  0
  191.1000  174.2470  142.2800 C   0  0  0  0  0  2  0  0  0  0  0  0
  190.4690  170.4150  142.2260 O   0  0  0  0  0  0  0  0  0  0  0  0
  188.6270  172.1030  142.9850 O   0  0  0  0  0  1  0  0  0  0  0  0
  190.2800  171.8220  142.7430 P   0  0  2  0  0  0  0  0  0  0  0  0
  191.0920  171.9980  144.2530 O   0  0  0  0  0  0  0  0  0  0  0  0
  192.4820  171.9150  144.4090 C   0  0  2  0  0  3  0  0  0  0  0  0
  193.2090  172.9640  144.8900 C   0  0  0  0  0  3  0  0  0  0  0  0
  193.6500  170.6180  142.7440 C   0  0  2  0  0  3  0  0  0  0  0  0
  194.5830  170.9710  143.8610 N   0  0  2  0  0  0  0  0  0  0  0  0
  194.7080  172.9790  144.9760 C   0  0  0  0  0  0  0  0  0  0  0  0
  193.1540  170.6140  144.0200 C   0  0  1  0  0  3  0  0  0  0  0  0
  195.4020  171.9800  144.4090 C   0  0  0  0  0  2  0  0  0  0  0  0
  195.3760  174.2020  145.5500 C   0  0  1  0  0  3  0  0  0  0  0  0
  197.4630  175.9290  143.0900 C   0  0  0  0  0  3  0  0  0  0  0  0
  197.2700  174.7300  143.7920 C   0  0  0  0  0  3  0  0  0  0  0  0
  196.1560  174.9810  144.5610 C   0  0  0  0  0  0  0  0  0  0  0  0
  196.4670  176.8290  143.4780 C   0  0  0  0  0  3  0  0  0  0  0  0
  195.7070  176.1950  144.3750 N   0  0  0  0  0  0  0  0  0  0  0  0
  194.3040  175.2350  145.9810 C   0  0  0  0  0  3  0  0  0  0  0  0
  194.5510  176.5250  145.1650 C   0  0  0  0  0  3  0  0  0  0  0  0
  193.9040  169.2530  142.3190 N   0  0  0  0  0  2  0  0  0  0  0  0
  193.9390  169.2510  140.9200 N   0  0  0  0  0  2  0  0  0  0  0  0
  193.5120  170.5710  140.4770 C   0  0  0  0  0  2  0  0  0  0  0  0
  191.7710  169.3870  139.2700 N   0  0  0  0  0  1  0  0  0  0  0  0
  192.7550  170.4460  139.1640 C   0  0  0  0  0  2  0  0  0  0  0  0
  189.2870  172.1540  140.0610 O   0  0  0  0  0  0  0  0  0  0  0  0
  188.1850  172.6690  139.3720 C   0  0  0  0  0  1  0  0  0  0  0  0
  189.1090  175.1850  143.1930 O   0  0  0  0  0  0  0  0  0  0  0  0
  185.6970  178.0010  146.4260 P   0  0  2  0  0  4  0  0  0  0  0  0
  186.9640  176.7820  143.8910 C   0  0  0  0  0  2  0  0  0  0  0  0
  190.7130  176.0540  144.7280 C   0  0  0  0  0  2  0  0  0  0  0  0
  189.8970  177.9800  147.9000 C   0  0  0  0  0  1  0  0  0  0  0  0
  186.1410  178.8830  144.9700 N   0  0  0  0  0  2  0  0  0  0  0  0
  189.6740  176.9960  146.7690 C   0  0  2  0  0  0  0  0  0  0  0  0
  187.1010  176.9050  146.7820 C   0  0  0  0  0  2  0  0  0  0  0  0
  188.3670  177.3570  146.0320 C   0  0  2  0  0  3  0  0  0  0  0  0
  186.0390  178.0020  143.8040 C   0  0  1  0  0  3  0  0  0  0  0  0
  188.3410  177.0950  144.4970 C   0  0  1  0  0  3  0  0  0  0  0  0
  189.5980  175.7060  147.3020 O   0  0  0  0  0  1  0  0  0  0  0  0
  190.8690  177.0820  145.8310 C   0  0  0  0  0  2  0  0  0  0  0  0
  186.8160  177.7930  147.7490 O   0  0  0  0  0  0  0  0  0  0  0  0
  189.5240  176.3630  143.8220 C   0  0  2  0  0  3  0  0  0  0  0  0
  184.4710  177.1190  146.3580 O   0  0  0  0  0  0  0  0  0  0  0  0
  186.3640  178.7830  142.5390 C   0  0  0  0  0  2  0  0  0  0  0  0
  186.5020  177.8560  141.3450 C   0  0  0  0  0  2  0  0  0  0  0  0
  185.7100  178.3090  140.2920 O   0  0  0  0  0  1  0  0  0  0  0  0
  1 30  1  1  0  0  0
  1  2  1  0  0  0  0
  1  4  1  0  0  0  0
  2  3  1  0  0  0  0
  3  5  1  0  0  0  0
  3 32  1  1  0  0  0
  4  5  1  0  0  0  0
  4  8  1  0  0  0  0
  8  6  2  6  0  0  0
  8  7  1  0  0  0  0
  8  9  1  0  0  0  0
 10  9  1  6  0  0  0
 10 11  1  0  0  0  0
 11 14  2  0  0  0  0
 12 25  1  1  0  0  0
 12 13  1  0  0  0  0
 12 15  1  0  0  0  0
 13 15  1  0  0  0  0
 13 16  1  6  0  0  0
 14 17  1  0  0  0  0
 15 10  1  0  0  0  0
 16 14  1  0  0  0  0
 17 23  1  0  0  0  0
 18 21  2  0  0  0  0
 18 19  1  0  0  0  0
 19 20  2  0  0  0  0
 20 17  1  0  0  0  0
 21 22  1  0  0  0  0
 22 20  1  0  0  0  0
 22 24  1  0  0  0  0
 24 23  2  0  0  0  0
 26 25  1  0  0  0  0
 27 26  1  0  0  0  0
 29 28  1  0  0  0  0
 29 27  1  0  0  0  0
 31 30  1  0  0  0  0
 32 46  1  0  0  0  0
 33 45  1  0  0  0  0
 34 42  1  0  0  0  0
 35 44  1  0  0  0  0
 37 33  1  0  0  0  0
 38 43  1  0  0  0  0
 38 36  1  0  0  0  0
 39 45  1  0  0  0  0
 40 38  1  0  0  0  0
 40 39  1  0  0  0  0
 41 34  1  0  0  0  0
 41 37  1  0  0  0  0
 42 40  1  0  0  0  0
 44 38  1  0  0  0  0
 46 42  1  0  0  0  0
 46 35  1  0  0  0  0
 47 33  2  0  0  0  0
 48 41  1  0  0  0  0
 49 48  1  0  0  0  0
 50 49  1  0  0  0  0
M  END
>  <MODEL>
3

>  <REMARK>
 VINA RESULT:      -7.5      3.223      8.062
  Name = 
  13 active torsions:
  status: ('A' for Active; 'I' for Inactive)
    1  A    between atoms: C_1  and  O_37
    2  A    between atoms: C_2  and  C_40
    3  A    between atoms: C_3  and  N_14
    4  A    between atoms: C_3  and  C_39
    5  A    between atoms: O_4  and  C_29
    6  A    between atoms: O_4  and  C_46
    7  A    between atoms: O_6  and  C_15
    8  A    between atoms: N_14  and  N_48
    9  A    between atoms: C_18  and  C_35
   10  A    between atoms: C_22  and  N_48
   11  A    between atoms: C_26  and  C_35
   12  A    between atoms: N_30  and  P_49
   13  A    between atoms: O_37  and  P_49
                            x       y       z     vdW  Elec       q    Type
                         _______ _______ _______ _____ _____    ______ ____

>  <TORSDO>
F 13

$$$$
=
 OpenBabel11062420503D

 50 56  0  0  1  0  0  0  0  0999 V2000
  193.1160  176.3120  145.8380 C   0  0  1  0  0  3  0  0  0  0  0  0
  193.8550  175.0120  146.0560 C   0  0  0  0  0  2  0  0  0  0  0  0
  195.0990  175.1400  145.2100 C   0  0  2  0  0  3  0  0  0  0  0  0
  193.5280  176.8590  144.5390 N   0  0  0  0  0  0  0  0  0  0  0  0
  194.9020  176.3960  144.3690 C   0  0  0  0  0  2  0  0  0  0  0  0
  191.9200  174.9100  143.6300 O   0  0  0  0  0  1  0  0  0  0  0  0
  193.5960  175.8670  141.8720 O   0  0  0  0  0  0  0  0  0  0  0  0
  192.5890  176.1920  143.1950 P   0  0  2  0  0  0  0  0  0  0  0  0
  191.3930  177.3320  142.7050 O   0  0  0  0  0  0  0  0  0  0  0  0
  190.0230  177.1860  142.9570 C   0  0  2  0  0  3  0  0  0  0  0  0
  189.4570  177.6430  144.1110 C   0  0  0  0  0  3  0  0  0  0  0  0
  189.0120  175.1580  142.1280 C   0  0  2  0  0  3  0  0  0  0  0  0
  187.9490  176.0960  142.6100 N   0  0  2  0  0  0  0  0  0  0  0  0
  188.0210  177.4190  144.4900 C   0  0  0  0  0  0  0  0  0  0  0  0
  189.1850  176.4970  141.8980 C   0  0  1  0  0  3  0  0  0  0  0  0
  187.2730  176.5940  143.7430 C   0  0  0  0  0  2  0  0  0  0  0  0
  187.5300  178.0020  145.7900 C   0  0  1  0  0  3  0  0  0  0  0  0
  184.0100  178.9910  145.6270 C   0  0  0  0  0  3  0  0  0  0  0  0
  185.2900  179.2100  145.0960 C   0  0  0  0  0  3  0  0  0  0  0  0
  186.0850  178.3300  145.7940 C   0  0  0  0  0  0  0  0  0  0  0  0
  184.1070  178.0040  146.6110 C   0  0  0  0  0  3  0  0  0  0  0  0
  185.3930  177.6450  146.6670 N   0  0  0  0  0  0  0  0  0  0  0  0
  187.6070  176.9330  146.9100 C   0  0  0  0  0  3  0  0  0  0  0  0
  186.1710  176.7170  147.4440 C   0  0  0  0  0  3  0  0  0  0  0  0
  188.5650  174.5120  140.9070 N   0  0  0  0  0  2  0  0  0  0  0  0
  189.7060  174.0660  140.2290 N   0  0  0  0  0  2  0  0  0  0  0  0
  189.2500  173.3570  139.0420 C   0  0  0  0  0  2  0  0  0  0  0  0
  189.5410  170.9920  138.5810 N   0  0  0  0  0  1  0  0  0  0  0  0
  190.2410  172.2560  138.6960 C   0  0  0  0  0  2  0  0  0  0  0  0
  191.7310  176.1420  145.9420 O   0  0  0  0  0  0  0  0  0  0  0  0
  191.4670  176.1780  147.3150 C   0  0  0  0  0  1  0  0  0  0  0  0
  195.2070  174.0330  144.3640 O   0  0  0  0  0  0  0  0  0  0  0  0
  193.7270  169.1190  142.4440 P   0  0  2  0  0  4  0  0  0  0  0  0
  193.5540  172.0610  143.3560 C   0  0  0  0  0  2  0  0  0  0  0  0
  196.5460  172.6760  145.7960 C   0  0  0  0  0  2  0  0  0  0  0  0
  196.9620  168.9110  145.4950 C   0  0  0  0  0  1  0  0  0  0  0  0
  192.5790  169.7720  143.6070 N   0  0  0  0  0  2  0  0  0  0  0  0
  196.6980  170.3280  145.0240 C   0  0  2  0  0  0  0  0  0  0  0  0
  195.3370  169.8260  142.8970 C   0  0  0  0  0  2  0  0  0  0  0  0
  195.3190  170.3840  144.3310 C   0  0  2  0  0  3  0  0  0  0  0  0
  192.3020  171.1760  143.2990 C   0  0  1  0  0  3  0  0  0  0  0  0
  194.5090  171.7030  144.5040 C   0  0  1  0  0  3  0  0  0  0  0  0
  197.7110  170.7050  144.1370 O   0  0  0  0  0  1  0  0  0  0  0  0
  196.7310  171.2390  146.2420 C   0  0  0  0  0  2  0  0  0  0  0  0
  195.2750  168.4840  142.9410 O   0  0  0  0  0  0  0  0  0  0  0  0
  195.1590  172.9180  145.2060 C   0  0  2  0  0  3  0  0  0  0  0  0
  193.5060  169.4540  140.9860 O   0  0  0  0  0  0  0  0  0  0  0  0
  191.2640  171.7210  144.2680 C   0  0  0  0  0  2  0  0  0  0  0  0
  189.8870  171.7640  143.6270 C   0  0  0  0  0  2  0  0  0  0  0  0
  189.9810  171.4680  142.2690 O   0  0  0  0  0  1  0  0  0  0  0  0
  1 30  1  6  0  0  0
  1  2  1  0  0  0  0
  3 32  1  6  0  0  0
  3  2  1  0  0  0  0
  4  1  1  0  0  0  0
  5  4  1  0  0  0  0
  5  3  1  0  0  0  0
  8  7  2  6  0  0  0
  8  6  1  0  0  0  0
  8  4  1  0  0  0  0
  9  8  1  0  0  0  0
 10  9  1  1  0  0  0
 10 11  1  0  0  0  0
 11 14  2  0  0  0  0
 12 25  1  6  0  0  0
 12 13  1  0  0  0  0
 13 16  1  1  0  0  0
 14 17  1  0  0  0  0
 15 12  1  0  0  0  0
 15 13  1  0  0  0  0
 15 10  1  0  0  0  0
 16 14  1  0  0  0  0
 17 20  1  0  0  0  0
 17 23  1  0  0  0  0
 18 21  2  0  0  0  0
 19 18  1  0  0  0  0
 19 20  2  0  0  0  0
 20 22  1  0  0  0  0
 21 22  1  0  0  0  0
 22 24  1  0  0  0  0
 23 24  2  0  0  0  0
 26 25  1  0  0  0  0
 27 26  1  0  0  0  0
 28 29  1  0  0  0  0
 29 27  1  0  0  0  0
 30 31  1  0  0  0  0
 32 46  1  0  0  0  0
 33 45  1  0  0  0  0
 33 37  1  0  0  0  0
 34 42  1  0  0  0  0
 35 44  1  0  0  0  0
 38 36  1  0  0  0  0
 38 44  1  0  0  0  0
 39 45  1  0  0  0  0
 39 40  1  0  0  0  0
 40 42  1  0  0  0  0
 40 38  1  0  0  0  0
 41 34  1  0  0  0  0
 41 37  1  0  0  0  0
 41 48  1  0  0  0  0
 42 46  1  0  0  0  0
 43 38  1  0  0  0  0
 46 35  1  0  0  0  0
 47 33  2  0  0  0  0
 49 48  1  0  0  0  0
 50 49  1  0  0  0  0
M  END
>  <MODEL>
4

>  <REMARK>
 VINA RESULT:      -7.4      2.478      5.563
  Name = 
  13 active torsions:
  status: ('A' for Active; 'I' for Inactive)
    1  A    between atoms: C_1  and  O_37
    2  A    between atoms: C_2  and  C_40
    3  A    between atoms: C_3  and  N_14
    4  A    between atoms: C_3  and  C_39
    5  A    between atoms: O_4  and  C_29
    6  A    between atoms: O_4  and  C_46
    7  A    between atoms: O_6  and  C_15
    8  A    between atoms: N_14  and  N_48
    9  A    between atoms: C_18  and  C_35
   10  A    between atoms: C_22  and  N_48
   11  A    between atoms: C_26  and  C_35
   12  A    between atoms: N_30  and  P_49
   13  A    between atoms: O_37  and  P_49
                            x       y       z     vdW  Elec       q    Type
                         _______ _______ _______ _____ _____    ______ ____

>  <TORSDO>
F 13

$$$$
=
 OpenBabel11062420503D

 50 56  0  0  1  0  0  0  0  0999 V2000
  191.8430  176.8340  145.5960 C   0  0  1  0  0  3  0  0  0  0  0  0
  193.2110  176.4420  146.1040 C   0  0  0  0  0  2  0  0  0  0  0  0
  193.9940  176.1080  144.8570 C   0  0  2  0  0  3  0  0  0  0  0  0
  191.6390  176.1910  144.2920 N   0  0  0  0  0  0  0  0  0  0  0  0
  192.9790  176.0950  143.7210 C   0  0  0  0  0  2  0  0  0  0  0  0
  191.4930  173.9360  145.7430 O   0  0  0  0  0  1  0  0  0  0  0  0
  191.5800  173.5800  143.1580 O   0  0  0  0  0  0  0  0  0  0  0  0
  191.0230  174.5380  144.4400 P   0  0  2  0  0  0  0  0  0  0  0  0
  189.3000  174.5590  144.3990 O   0  0  0  0  0  0  0  0  0  0  0  0
  188.5480  175.3360  143.5090 C   0  0  2  0  0  3  0  0  0  0  0  0
  187.4590  176.0440  143.9240 C   0  0  0  0  0  3  0  0  0  0  0  0
  188.3250  174.4550  141.2740 C   0  0  2  0  0  3  0  0  0  0  0  0
  187.7990  175.8560  141.3240 N   0  0  2  0  0  0  0  0  0  0  0  0
  186.5480  176.8050  143.0040 C   0  0  0  0  0  0  0  0  0  0  0  0
  188.9870  175.3620  142.0580 C   0  0  1  0  0  3  0  0  0  0  0  0
  186.7010  176.6670  141.6780 C   0  0  0  0  0  2  0  0  0  0  0  0
  185.3930  177.5600  143.6100 C   0  0  1  0  0  3  0  0  0  0  0  0
  185.5660  177.6650  147.2640 C   0  0  0  0  0  3  0  0  0  0  0  0
  185.4630  176.8280  146.1430 C   0  0  0  0  0  3  0  0  0  0  0  0
  185.4760  177.7050  145.0820 C   0  0  0  0  0  0  0  0  0  0  0  0
  185.6280  178.9880  146.8190 C   0  0  0  0  0  3  0  0  0  0  0  0
  185.5660  178.9450  145.4850 N   0  0  0  0  0  0  0  0  0  0  0  0
  185.4330  179.0400  143.1520 C   0  0  0  0  0  3  0  0  0  0  0  0
  185.5670  179.9140  144.4210 C   0  0  0  0  0  3  0  0  0  0  0  0
  189.0580  174.2600  140.0360 N   0  0  0  0  0  2  0  0  0  0  0  0
  188.6500  173.0330  139.4980 N   0  0  0  0  0  2  0  0  0  0  0  0
  188.1920  173.2910  138.1400 C   0  0  0  0  0  2  0  0  0  0  0  0
  188.6960  174.8920  136.3870 N   0  0  0  0  0  1  0  0  0  0  0  0
  189.2910  173.9940  137.3570 C   0  0  0  0  0  2  0  0  0  0  0  0
  190.8400  176.5200  146.5200 O   0  0  0  0  0  0  0  0  0  0  0  0
  191.4070  176.7880  147.7700 C   0  0  0  0  0  1  0  0  0  0  0  0
  194.5590  174.8360  144.9830 O   0  0  0  0  0  0  0  0  0  0  0  0
  195.4190  172.0210  140.3610 P   0  0  2  0  0  4  0  0  0  0  0  0
  194.9650  172.6450  143.3480 C   0  0  0  0  0  2  0  0  0  0  0  0
  196.0540  176.3570  143.9160 C   0  0  0  0  0  2  0  0  0  0  0  0
  197.3350  176.0390  140.3530 C   0  0  0  0  0  1  0  0  0  0  0  0
  196.4270  171.4690  141.6940 N   0  0  0  0  0  2  0  0  0  0  0  0
  196.3750  175.8570  141.5120 C   0  0  2  0  0  0  0  0  0  0  0  0
  195.0980  173.7790  140.6860 C   0  0  0  0  0  2  0  0  0  0  0  0
  196.0970  174.3500  141.7080 C   0  0  2  0  0  3  0  0  0  0  0  0
  195.6160  171.3280  142.9050 C   0  0  1  0  0  3  0  0  0  0  0  0
  195.8740  173.8710  143.1730 C   0  0  1  0  0  3  0  0  0  0  0  0
  195.1900  176.5430  141.2300 O   0  0  0  0  0  1  0  0  0  0  0  0
  197.0200  176.4550  142.7530 C   0  0  0  0  0  2  0  0  0  0  0  0
  195.7380  173.5240  139.5320 O   0  0  0  0  0  0  0  0  0  0  0  0
  195.7860  174.9080  144.3160 C   0  0  2  0  0  3  0  0  0  0  0  0
  194.0690  171.3630  140.1900 O   0  0  0  0  0  0  0  0  0  0  0  0
  196.4750  170.7920  144.0400 C   0  0  0  0  0  2  0  0  0  0  0  0
  195.8860  171.1580  145.3920 C   0  0  0  0  0  2  0  0  0  0  0  0
  196.8180  171.8700  146.1440 O   0  0  0  0  0  1  0  0  0  0  0  0
  1  2  1  0  0  0  0
  1 30  1  1  0  0  0
  3 32  1  1  0  0  0
  3  2  1  0  0  0  0
  4  8  1  0  0  0  0
  4  1  1  0  0  0  0
  5  4  1  0  0  0  0
  5  3  1  0  0  0  0
  8  7  2  6  0  0  0
  8  6  1  0  0  0  0
  9  8  1  0  0  0  0
 10 11  1  0  0  0  0
 10  9  1  6  0  0  0
 12 25  1  6  0  0  0
 12 13  1  0  0  0  0
 12 15  1  0  0  0  0
 13 16  1  1  0  0  0
 13 15  1  0  0  0  0
 14 17  1  0  0  0  0
 14 11  2  0  0  0  0
 15 10  1  0  0  0  0
 16 14  1  0  0  0  0
 17 20  1  0  0  0  0
 19 18  1  0  0  0  0
 20 22  1  0  0  0  0
 20 19  2  0  0  0  0
 21 18  2  0  0  0  0
 22 21  1  0  0  0  0
 23 17  1  0  0  0  0
 23 24  2  0  0  0  0
 24 22  1  0  0  0  0
 26 25  1  0  0  0  0
 27 26  1  0  0  0  0
 28 29  1  0  0  0  0
 29 27  1  0  0  0  0
 30 31  1  0  0  0  0
 33 37  1  0  0  0  0
 35 46  1  0  0  0  0
 36 38  1  0  0  0  0
 37 41  1  0  0  0  0
 38 40  1  0  0  0  0
 38 44  1  0  0  0  0
 39 40  1  0  0  0  0
 40 42  1  0  0  0  0
 41 34  1  0  0  0  0
 41 48  1  0  0  0  0
 42 34  1  0  0  0  0
 42 46  1  0  0  0  0
 43 38  1  0  0  0  0
 44 35  1  0  0  0  0
 45 33  1  0  0  0  0
 45 39  1  0  0  0  0
 46 32  1  0  0  0  0
 47 33  2  0  0  0  0
 48 49  1  0  0  0  0
 49 50  1  0  0  0  0
M  END
>  <MODEL>
5

>  <REMARK>
 VINA RESULT:      -7.1      2.723      4.918
  Name = 
  13 active torsions:
  status: ('A' for Active; 'I' for Inactive)
    1  A    between atoms: C_1  and  O_37
    2  A    between atoms: C_2  and  C_40
    3  A    between atoms: C_3  and  N_14
    4  A    between atoms: C_3  and  C_39
    5  A    between atoms: O_4  and  C_29
    6  A    between atoms: O_4  and  C_46
    7  A    between atoms: O_6  and  C_15
    8  A    between atoms: N_14  and  N_48
    9  A    between atoms: C_18  and  C_35
   10  A    between atoms: C_22  and  N_48
   11  A    between atoms: C_26  and  C_35
   12  A    between atoms: N_30  and  P_49
   13  A    between atoms: O_37  and  P_49
                            x       y       z     vdW  Elec       q    Type
                         _______ _______ _______ _____ _____    ______ ____

>  <TORSDO>
F 13

$$$$
=
 OpenBabel11062420503D

 50 56  0  0  1  0  0  0  0  0999 V2000
  191.9930  174.1450  145.3190 C   0  0  1  0  0  3  0  0  0  0  0  0
  191.0000  175.2500  145.5920 C   0  0  0  0  0  2  0  0  0  0  0  0
  189.6880  174.5340  145.8050 C   0  0  2  0  0  3  0  0  0  0  0  0
  191.2560  172.9900  144.7910 N   0  0  0  0  0  0  0  0  0  0  0  0
  189.9400  173.0830  145.4140 C   0  0  0  0  0  2  0  0  0  0  0  0
  190.8510  174.5340  142.6320 O   0  0  0  0  0  1  0  0  0  0  0  0
  189.6120  172.2360  142.5920 O   0  0  0  0  0  0  0  0  0  0  0  0
  191.0060  173.0890  143.0410 P   0  0  2  0  0  0  0  0  0  0  0  0
  192.3570  172.3970  142.2250 O   0  0  0  0  0  0  0  0  0  0  0  0
  192.8900  172.8980  141.0300 C   0  0  2  0  0  3  0  0  0  0  0  0
  193.9770  173.7220  141.0240 C   0  0  0  0  0  3  0  0  0  0  0  0
  191.2910  173.4040  139.2960 C   0  0  2  0  0  3  0  0  0  0  0  0
  192.6810  173.4910  138.7470 N   0  0  2  0  0  0  0  0  0  0  0  0
  194.5270  174.3800  139.7910 C   0  0  0  0  0  0  0  0  0  0  0  0
  192.2130  172.4920  139.7360 C   0  0  1  0  0  3  0  0  0  0  0  0
  193.8360  174.2940  138.6440 C   0  0  0  0  0  2  0  0  0  0  0  0
  195.7490  175.2510  139.9340 C   0  0  1  0  0  3  0  0  0  0  0  0
  196.2130  176.4400  143.3640 C   0  0  0  0  0  3  0  0  0  0  0  0
  195.3600  176.4510  142.2510 C   0  0  0  0  0  3  0  0  0  0  0  0
  196.0240  175.6770  141.3260 C   0  0  0  0  0  0  0  0  0  0  0  0
  197.3360  175.6710  143.0470 C   0  0  0  0  0  3  0  0  0  0  0  0
  197.1630  175.2380  141.7950 N   0  0  0  0  0  0  0  0  0  0  0  0
  197.0220  174.4310  139.6050 C   0  0  0  0  0  3  0  0  0  0  0  0
  197.9140  174.4350  140.8680 C   0  0  0  0  0  3  0  0  0  0  0  0
  190.4230  172.7780  138.3130 N   0  0  0  0  0  2  0  0  0  0  0  0
  189.1580  172.6460  138.8970 N   0  0  0  0  0  2  0  0  0  0  0  0
  188.5630  173.9740  138.9400 C   0  0  0  0  0  2  0  0  0  0  0  0
  187.2440  175.5040  137.5950 N   0  0  0  0  0  1  0  0  0  0  0  0
  188.1970  174.4140  137.5310 C   0  0  0  0  0  2  0  0  0  0  0  0
  193.0190  174.5720  144.4680 O   0  0  0  0  0  0  0  0  0  0  0  0
  194.1820  174.0020  144.9950 C   0  0  0  0  0  1  0  0  0  0  0  0
  188.7150  175.0750  144.9610 O   0  0  0  0  0  0  0  0  0  0  0  0
  185.2170  178.4510  142.4320 P   0  0  2  0  0  4  0  0  0  0  0  0
  187.7460  176.7830  143.0160 C   0  0  0  0  0  2  0  0  0  0  0  0
  187.8600  176.2030  146.8810 C   0  0  0  0  0  2  0  0  0  0  0  0
  184.9790  178.6790  146.8710 C   0  0  0  0  0  1  0  0  0  0  0  0
  186.8720  179.0500  142.4220 N   0  0  0  0  0  2  0  0  0  0  0  0
  185.8110  177.5050  146.3940 C   0  0  2  0  0  0  0  0  0  0  0  0
  185.0740  177.4320  143.9280 C   0  0  0  0  0  2  0  0  0  0  0  0
  186.2120  177.7330  144.9200 C   0  0  2  0  0  3  0  0  0  0  0  0
  187.7890  177.9720  142.0480 C   0  0  1  0  0  3  0  0  0  0  0  0
  187.6090  177.1950  144.4900 C   0  0  1  0  0  3  0  0  0  0  0  0
  185.0590  176.3350  146.5240 O   0  0  0  0  0  1  0  0  0  0  0  0
  187.0420  177.4130  147.2830 C   0  0  0  0  0  2  0  0  0  0  0  0
  184.2390  178.4820  143.8770 O   0  0  0  0  0  0  0  0  0  0  0  0
  188.4430  176.3470  145.4780 C   0  0  2  0  0  3  0  0  0  0  0  0
  184.7870  177.5770  141.2750 O   0  0  0  0  0  0  0  0  0  0  0  0
  189.2110  178.5070  141.9800 C   0  0  0  0  0  2  0  0  0  0  0  0
  190.1730  177.6010  142.7290 C   0  0  0  0  0  2  0  0  0  0  0  0
  190.9110  178.3430  143.6500 O   0  0  0  0  0  1  0  0  0  0  0  0
  1 30  1  6  0  0  0
  1  2  1  0  0  0  0
  2  3  1  0  0  0  0
  3 32  1  6  0  0  0
  4  1  1  0  0  0  0
  4  5  1  0  0  0  0
  5  3  1  0  0  0  0
  6  8  1  0  0  0  0
  8  7  2  6  0  0  0
  8  4  1  0  0  0  0
  9  8  1  0  0  0  0
 10  9  1  1  0  0  0
 11 10  1  0  0  0  0
 12 25  1  6  0  0  0
 12 15  1  0  0  0  0
 13 16  1  1  0  0  0
 13 12  1  0  0  0  0
 13 15  1  0  0  0  0
 14 17  1  0  0  0  0
 14 11  2  0  0  0  0
 15 10  1  0  0  0  0
 16 14  1  0  0  0  0
 17 20  1  0  0  0  0
 19 18  1  0  0  0  0
 20 22  1  0  0  0  0
 20 19  2  0  0  0  0
 21 18  2  0  0  0  0
 22 21  1  0  0  0  0
 23 17  1  0  0  0  0
 23 24  2  0  0  0  0
 24 22  1  0  0  0  0
 25 26  1  0  0  0  0
 26 27  1  0  0  0  0
 29 28  1  0  0  0  0
 29 27  1  0  0  0  0
 30 31  1  0  0  0  0
 32 46  1  0  0  0  0
 33 45  1  0  0  0  0
 34 42  1  0  0  0  0
 35 44  1  0  0  0  0
 37 33  1  0  0  0  0
 38 43  1  0  0  0  0
 38 36  1  0  0  0  0
 38 44  1  0  0  0  0
 39 40  1  0  0  0  0
 40 38  1  0  0  0  0
 41 37  1  0  0  0  0
 41 34  1  0  0  0  0
 42 40  1  0  0  0  0
 42 46  1  0  0  0  0
 45 39  1  0  0  0  0
 46 35  1  0  0  0  0
 47 33  2  0  0  0  0
 48 41  1  0  0  0  0
 48 49  1  0  0  0  0
 49 50  1  0  0  0  0
M  END
>  <MODEL>
6

>  <REMARK>
 VINA RESULT:      -7.1      3.116      7.712
  Name = 
  13 active torsions:
  status: ('A' for Active; 'I' for Inactive)
    1  A    between atoms: C_1  and  O_37
    2  A    between atoms: C_2  and  C_40
    3  A    between atoms: C_3  and  N_14
    4  A    between atoms: C_3  and  C_39
    5  A    between atoms: O_4  and  C_29
    6  A    between atoms: O_4  and  C_46
    7  A    between atoms: O_6  and  C_15
    8  A    between atoms: N_14  and  N_48
    9  A    between atoms: C_18  and  C_35
   10  A    between atoms: C_22  and  N_48
   11  A    between atoms: C_26  and  C_35
   12  A    between atoms: N_30  and  P_49
   13  A    between atoms: O_37  and  P_49
                            x       y       z     vdW  Elec       q    Type
                         _______ _______ _______ _____ _____    ______ ____

>  <TORSDO>
F 13

$$$$
=
 OpenBabel11062420503D

 50 56  0  0  1  0  0  0  0  0999 V2000
  192.2400  176.1700  146.7950 C   0  0  1  0  0  3  0  0  0  0  0  0
  191.0630  177.0770  146.5260 C   0  0  0  0  0  2  0  0  0  0  0  0
  189.8720  176.3170  147.0590 C   0  0  2  0  0  3  0  0  0  0  0  0
  191.7440  174.7900  146.8730 N   0  0  0  0  0  0  0  0  0  0  0  0
  190.3850  174.9210  147.3890 C   0  0  0  0  0  2  0  0  0  0  0  0
  190.3220  173.2560  145.1880 O   0  0  0  0  0  1  0  0  0  0  0  0
  192.9110  172.9570  145.0320 O   0  0  0  0  0  0  0  0  0  0  0  0
  191.6190  174.0250  145.2810 P   0  0  2  0  0  0  0  0  0  0  0  0
  191.6650  175.2340  144.0540 O   0  0  0  0  0  0  0  0  0  0  0  0
  192.0850  174.9990  142.7380 C   0  0  2  0  0  3  0  0  0  0  0  0
  191.4740  174.0690  141.9510 C   0  0  0  0  0  3  0  0  0  0  0  0
  194.4580  175.1820  142.3440 C   0  0  2  0  0  3  0  0  0  0  0  0
  193.7330  175.0590  141.0390 N   0  0  2  0  0  0  0  0  0  0  0  0
  191.9440  173.6900  140.5750 C   0  0  0  0  0  0  0  0  0  0  0  0
  193.2500  175.8160  142.2180 C   0  0  1  0  0  3  0  0  0  0  0  0
  193.1190  174.1650  140.1370 C   0  0  0  0  0  2  0  0  0  0  0  0
  191.1540  172.6580  139.8120 C   0  0  1  0  0  3  0  0  0  0  0  0
  188.3530  174.1330  137.9750 C   0  0  0  0  0  3  0  0  0  0  0  0
  188.9090  173.9220  139.2460 C   0  0  0  0  0  3  0  0  0  0  0  0
  190.0670  173.2270  138.9810 C   0  0  0  0  0  0  0  0  0  0  0  0
  189.1980  173.5520  137.0260 C   0  0  0  0  0  3  0  0  0  0  0  0
  190.2190  173.0160  137.7000 N   0  0  0  0  0  0  0  0  0  0  0  0
  192.0520  171.9980  138.7350 C   0  0  0  0  0  3  0  0  0  0  0  0
  191.4050  172.2770  137.3580 C   0  0  0  0  0  3  0  0  0  0  0  0
  195.5300  176.1530  142.2080 N   0  0  0  0  0  2  0  0  0  0  0  0
  196.5840  175.7270  143.0260 N   0  0  0  0  0  2  0  0  0  0  0  0
  196.0320  174.7730  143.9770 C   0  0  0  0  0  2  0  0  0  0  0  0
  197.6610  172.9910  144.2150 N   0  0  0  0  0  1  0  0  0  0  0  0
  197.1520  174.2000  144.8310 C   0  0  0  0  0  2  0  0  0  0  0  0
  193.2470  176.3330  145.8360 O   0  0  0  0  0  0  0  0  0  0  0  0
  194.3440  176.8260  146.5480 C   0  0  0  0  0  1  0  0  0  0  0  0
  188.8930  176.2230  146.0660 O   0  0  0  0  0  0  0  0  0  0  0  0
  185.7930  177.7890  141.8270 P   0  0  2  0  0  4  0  0  0  0  0  0
  188.2780  177.0660  143.5070 C   0  0  0  0  0  2  0  0  0  0  0  0
  187.2870  177.5200  147.2610 C   0  0  0  0  0  2  0  0  0  0  0  0
  184.1440  179.0440  145.7670 C   0  0  0  0  0  1  0  0  0  0  0  0
  187.2260  178.7900  142.0320 N   0  0  0  0  0  2  0  0  0  0  0  0
  185.2880  178.0580  145.9040 C   0  0  2  0  0  0  0  0  0  0  0  0
  185.3840  177.1760  143.4870 C   0  0  0  0  0  2  0  0  0  0  0  0
  186.0780  178.0100  144.5780 C   0  0  2  0  0  3  0  0  0  0  0  0
  188.3990  177.9410  142.2530 C   0  0  1  0  0  3  0  0  0  0  0  0
  187.6140  177.7790  144.6940 C   0  0  1  0  0  3  0  0  0  0  0  0
  184.7640  176.7990  146.2100 O   0  0  0  0  0  1  0  0  0  0  0  0
  186.1740  178.5260  147.0480 C   0  0  0  0  0  2  0  0  0  0  0  0
  184.4260  177.9150  142.9030 O   0  0  0  0  0  0  0  0  0  0  0  0
  188.2420  177.4610  146.0710 C   0  0  2  0  0  3  0  0  0  0  0  0
  185.9170  176.5720  140.9390 O   0  0  0  0  0  0  0  0  0  0  0  0
  189.6450  178.8060  142.3680 C   0  0  0  0  0  2  0  0  0  0  0  0
  190.7050  178.1270  143.2190 C   0  0  0  0  0  2  0  0  0  0  0  0
  191.4670  179.0830  143.8870 O   0  0  0  0  0  1  0  0  0  0  0  0
  1 30  1  6  0  0  0
  1  4  1  0  0  0  0
  2  1  1  0  0  0  0
  2  3  1  0  0  0  0
  3 32  1  6  0  0  0
  3  5  1  0  0  0  0
  4  5  1  0  0  0  0
  6  8  1  0  0  0  0
  8  7  2  6  0  0  0
  8  4  1  0  0  0  0
  9  8  1  0  0  0  0
 10  9  1  1  0  0  0
 11 10  1  0  0  0  0
 12 25  1  6  0  0  0
 13 16  1  1  0  0  0
 13 15  1  0  0  0  0
 13 12  1  0  0  0  0
 14 11  2  0  0  0  0
 15 12  1  0  0  0  0
 15 10  1  0  0  0  0
 16 14  1  0  0  0  0
 17 14  1  0  0  0  0
 18 19  1  0  0  0  0
 20 19  2  0  0  0  0
 20 17  1  0  0  0  0
 21 22  1  0  0  0  0
 21 18  2  0  0  0  0
 22 20  1  0  0  0  0
 23 17  1  0  0  0  0
 24 22  1  0  0  0  0
 24 23  2  0  0  0  0
 25 26  1  0  0  0  0
 26 27  1  0  0  0  0
 27 29  1  0  0  0  0
 28 29  1  0  0  0  0
 30 31  1  0  0  0  0
 32 46  1  0  0  0  0
 33 37  1  0  0  0  0
 33 45  1  0  0  0  0
 34 42  1  0  0  0  0
 36 38  1  0  0  0  0
 37 41  1  0  0  0  0
 38 43  1  0  0  0  0
 38 44  1  0  0  0  0
 39 40  1  0  0  0  0
 40 42  1  0  0  0  0
 40 38  1  0  0  0  0
 41 48  1  0  0  0  0
 41 34  1  0  0  0  0
 42 46  1  0  0  0  0
 44 35  1  0  0  0  0
 45 39  1  0  0  0  0
 46 35  1  0  0  0  0
 47 33  2  0  0  0  0
 48 49  1  0  0  0  0
 49 50  1  0  0  0  0
M  END
>  <MODEL>
7

>  <REMARK>
 VINA RESULT:      -7.0      2.814      8.324
  Name = 
  13 active torsions:
  status: ('A' for Active; 'I' for Inactive)
    1  A    between atoms: C_1  and  O_37
    2  A    between atoms: C_2  and  C_40
    3  A    between atoms: C_3  and  N_14
    4  A    between atoms: C_3  and  C_39
    5  A    between atoms: O_4  and  C_29
    6  A    between atoms: O_4  and  C_46
    7  A    between atoms: O_6  and  C_15
    8  A    between atoms: N_14  and  N_48
    9  A    between atoms: C_18  and  C_35
   10  A    between atoms: C_22  and  N_48
   11  A    between atoms: C_26  and  C_35
   12  A    between atoms: N_30  and  P_49
   13  A    between atoms: O_37  and  P_49
                            x       y       z     vdW  Elec       q    Type
                         _______ _______ _______ _____ _____    ______ ____

>  <TORSDO>
F 13

$$$$
=
 OpenBabel11062420503D

 50 56  0  0  1  0  0  0  0  0999 V2000
  190.1760  172.6140  139.5410 C   0  0  1  0  0  3  0  0  0  0  0  0
  191.5440  173.0150  140.0430 C   0  0  0  0  0  2  0  0  0  0  0  0
  191.8870  171.9710  141.0780 C   0  0  2  0  0  3  0  0  0  0  0  0
  189.5160  171.8300  140.5940 N   0  0  0  0  0  0  0  0  0  0  0  0
  190.6120  171.1640  141.2920 C   0  0  0  0  0  2  0  0  0  0  0  0
  189.1000  172.4350  143.1770 O   0  0  0  0  0  1  0  0  0  0  0  0
  187.0130  172.7020  141.6320 O   0  0  0  0  0  0  0  0  0  0  0  0
  188.6940  172.8510  141.7830 P   0  0  2  0  0  0  0  0  0  0  0  0
  189.1220  174.5000  141.5230 O   0  0  0  0  0  0  0  0  0  0  0  0
  188.7150  175.5550  142.3510 C   0  0  2  0  0  3  0  0  0  0  0  0
  188.7660  175.4540  143.7100 C   0  0  0  0  0  3  0  0  0  0  0  0
  186.8490  176.8580  141.5520 C   0  0  2  0  0  3  0  0  0  0  0  0
  187.4610  177.5240  142.7450 N   0  0  2  0  0  0  0  0  0  0  0  0
  188.2420  176.5010  144.6510 C   0  0  0  0  0  0  0  0  0  0  0  0
  188.2120  176.8170  141.6810 C   0  0  1  0  0  3  0  0  0  0  0  0
  187.5400  177.5300  144.1530 C   0  0  0  0  0  2  0  0  0  0  0  0
  188.3850  176.2620  146.1320 C   0  0  1  0  0  3  0  0  0  0  0  0
  191.7710  175.2170  147.0500 C   0  0  0  0  0  3  0  0  0  0  0  0
  190.6300  174.8870  146.3020 C   0  0  0  0  0  3  0  0  0  0  0  0
  189.7650  175.9270  146.5570 C   0  0  0  0  0  0  0  0  0  0  0  0
  191.5270  176.4230  147.7120 C   0  0  0  0  0  3  0  0  0  0  0  0
  190.2910  176.8020  147.3740 N   0  0  0  0  0  0  0  0  0  0  0  0
  188.1370  177.5820  146.9060 C   0  0  0  0  0  3  0  0  0  0  0  0
  189.4280  177.9070  147.6930 C   0  0  0  0  0  3  0  0  0  0  0  0
  186.4860  177.8660  140.5720 N   0  0  0  0  0  2  0  0  0  0  0  0
  185.4760  178.6540  141.1390 N   0  0  0  0  0  2  0  0  0  0  0  0
  184.2220  178.2630  140.5100 C   0  0  0  0  0  2  0  0  0  0  0  0
  183.6750  178.4040  142.8700 N   0  0  0  0  0  1  0  0  0  0  0  0
  183.1050  178.2920  141.5420 C   0  0  0  0  0  2  0  0  0  0  0  0
  189.4270  173.7260  139.1400 O   0  0  0  0  0  0  0  0  0  0  0  0
  188.7460  173.3050  137.9940 C   0  0  0  0  0  1  0  0  0  0  0  0
  192.2390  172.5970  142.2770 O   0  0  0  0  0  0  0  0  0  0  0  0
  195.4020  176.2260  144.8960 P   0  0  2  0  0  4  0  0  0  0  0  0
  193.6000  174.9580  142.7350 C   0  0  0  0  0  2  0  0  0  0  0  0
  193.8460  171.0820  143.1770 C   0  0  0  0  0  2  0  0  0  0  0  0
  196.5970  172.0010  145.6310 C   0  0  0  0  0  1  0  0  0  0  0  0
  195.7780  176.1050  143.1810 N   0  0  0  0  0  2  0  0  0  0  0  0
  195.2560  172.1120  144.9330 C   0  0  2  0  0  0  0  0  0  0  0  0
  194.7500  174.5980  145.3700 C   0  0  0  0  0  2  0  0  0  0  0  0
  195.1140  173.5260  144.3280 C   0  0  2  0  0  3  0  0  0  0  0  0
  194.5410  176.1220  142.3980 C   0  0  1  0  0  3  0  0  0  0  0  0
  194.3290  173.6300  142.9860 C   0  0  1  0  0  3  0  0  0  0  0  0
  194.2410  171.8710  145.8630 O   0  0  0  0  0  1  0  0  0  0  0  0
  195.2050  171.0490  143.8460 C   0  0  0  0  0  2  0  0  0  0  0  0
  195.8600  174.9770  146.0250 O   0  0  0  0  0  0  0  0  0  0  0  0
  193.6150  172.3840  142.4140 C   0  0  2  0  0  3  0  0  0  0  0  0
  194.3610  177.2420  145.3090 O   0  0  0  0  0  0  0  0  0  0  0  0
  194.8710  176.0790  140.9130 C   0  0  0  0  0  2  0  0  0  0  0  0
  196.3090  175.6480  140.6850 C   0  0  0  0  0  2  0  0  0  0  0  0
  196.3430  174.4570  139.9620 O   0  0  0  0  0  1  0  0  0  0  0  0
  1 30  1  1  0  0  0
  1  2  1  0  0  0  0
  1  4  1  0  0  0  0
  2  3  1  0  0  0  0
  3  5  1  0  0  0  0
  3 32  1  1  0  0  0
  4  5  1  0  0  0  0
  4  8  1  0  0  0  0
  8  7  2  6  0  0  0
  8  6  1  0  0  0  0
  9  8  1  0  0  0  0
 10  9  1  1  0  0  0
 10 11  1  0  0  0  0
 11 14  2  0  0  0  0
 12 25  1  6  0  0  0
 12 15  1  0  0  0  0
 12 13  1  0  0  0  0
 13 16  1  1  0  0  0
 14 17  1  0  0  0  0
 15 10  1  0  0  0  0
 15 13  1  0  0  0  0
 16 14  1  0  0  0  0
 17 20  1  0  0  0  0
 17 23  1  0  0  0  0
 18 21  2  0  0  0  0
 19 20  2  0  0  0  0
 19 18  1  0  0  0  0
 20 22  1  0  0  0  0
 22 24  1  0  0  0  0
 22 21  1  0  0  0  0
 23 24  2  0  0  0  0
 25 26  1  0  0  0  0
 27 26  1  0  0  0  0
 27 29  1  0  0  0  0
 29 28  1  0  0  0  0
 31 30  1  0  0  0  0
 32 46  1  0  0  0  0
 33 47  2  0  0  0  0
 33 45  1  0  0  0  0
 34 42  1  0  0  0  0
 35 44  1  0  0  0  0
 37 33  1  0  0  0  0
 38 36  1  0  0  0  0
 38 43  1  0  0  0  0
 39 45  1  0  0  0  0
 40 38  1  0  0  0  0
 40 39  1  0  0  0  0
 41 34  1  0  0  0  0
 41 37  1  0  0  0  0
 42 40  1  0  0  0  0
 44 38  1  0  0  0  0
 46 42  1  0  0  0  0
 46 35  1  0  0  0  0
 48 41  1  0  0  0  0
 49 48  1  0  0  0  0
 50 49  1  0  0  0  0
M  END
>  <MODEL>
8

>  <REMARK>
 VINA RESULT:      -7.0      2.305      4.305
  Name = 
  13 active torsions:
  status: ('A' for Active; 'I' for Inactive)
    1  A    between atoms: C_1  and  O_37
    2  A    between atoms: C_2  and  C_40
    3  A    between atoms: C_3  and  N_14
    4  A    between atoms: C_3  and  C_39
    5  A    between atoms: O_4  and  C_29
    6  A    between atoms: O_4  and  C_46
    7  A    between atoms: O_6  and  C_15
    8  A    between atoms: N_14  and  N_48
    9  A    between atoms: C_18  and  C_35
   10  A    between atoms: C_22  and  N_48
   11  A    between atoms: C_26  and  C_35
   12  A    between atoms: N_30  and  P_49
   13  A    between atoms: O_37  and  P_49
                            x       y       z     vdW  Elec       q    Type
                         _______ _______ _______ _____ _____    ______ ____

>  <TORSDO>
F 13

$$$$
=
 OpenBabel11062420503D

 50 56  0  0  1  0  0  0  0  0999 V2000
  190.7070  172.0990  140.2670 C   0  0  1  0  0  3  0  0  0  0  0  0
  192.1020  171.8230  140.7770 C   0  0  0  0  0  2  0  0  0  0  0  0
  191.9140  170.7620  141.8350 C   0  0  2  0  0  3  0  0  0  0  0  0
  189.7550  171.7380  141.3250 N   0  0  0  0  0  0  0  0  0  0  0  0
  190.4090  170.6510  142.0470 C   0  0  0  0  0  2  0  0  0  0  0  0
  190.7190  173.9480  142.5080 O   0  0  0  0  0  0  0  0  0  0  0  0
  189.2520  172.4270  144.0410 O   0  0  0  0  0  1  0  0  0  0  0  0
  189.5040  173.0510  142.4860 P   0  0  2  0  0  0  0  0  0  0  0  0
  188.1160  173.9650  142.0320 O   0  0  0  0  0  0  0  0  0  0  0  0
  188.0240  175.3590  142.1490 C   0  0  2  0  0  3  0  0  0  0  0  0
  187.8890  175.9650  143.3620 C   0  0  0  0  0  3  0  0  0  0  0  0
  186.8420  176.4860  140.3740 C   0  0  2  0  0  3  0  0  0  0  0  0
  187.5190  177.4910  141.2530 N   0  0  2  0  0  0  0  0  0  0  0  0
  187.6750  177.4400  143.5470 C   0  0  0  0  0  0  0  0  0  0  0  0
  188.0790  176.1730  140.8720 C   0  0  1  0  0  3  0  0  0  0  0  0
  187.4430  178.2030  142.4680 C   0  0  0  0  0  2  0  0  0  0  0  0
  187.5630  177.9730  144.9520 C   0  0  1  0  0  3  0  0  0  0  0  0
  184.1070  178.7390  145.8780 C   0  0  0  0  0  3  0  0  0  0  0  0
  185.1540  179.0460  144.9960 C   0  0  0  0  0  3  0  0  0  0  0  0
  186.1700  178.2090  145.3970 C   0  0  0  0  0  0  0  0  0  0  0  0
  184.5500  177.7480  146.7570 C   0  0  0  0  0  3  0  0  0  0  0  0
  185.8110  177.4700  146.4150 N   0  0  0  0  0  0  0  0  0  0  0  0
  188.0330  176.8960  145.9630 C   0  0  0  0  0  3  0  0  0  0  0  0
  186.8380  176.5830  146.8940 C   0  0  0  0  0  3  0  0  0  0  0  0
  186.9690  176.8970  138.9870 N   0  0  0  0  0  2  0  0  0  0  0  0
  187.1890  175.7410  138.2270 N   0  0  0  0  0  2  0  0  0  0  0  0
  186.5300  175.9390  136.9440 C   0  0  0  0  0  2  0  0  0  0  0  0
  187.7700  177.4820  135.5410 N   0  0  0  0  0  1  0  0  0  0  0  0
  187.5790  176.0790  135.8510 C   0  0  0  0  0  2  0  0  0  0  0  0
  190.5670  173.4230  139.8370 O   0  0  0  0  0  0  0  0  0  0  0  0
  191.4590  173.5500  138.7680 C   0  0  0  0  0  1  0  0  0  0  0  0
  192.5160  171.1750  143.0260 O   0  0  0  0  0  0  0  0  0  0  0  0
  196.1770  174.5230  145.3550 P   0  0  2  0  0  4  0  0  0  0  0  0
  193.9440  173.4950  143.4890 C   0  0  0  0  0  2  0  0  0  0  0  0
  194.2810  169.6030  143.3450 C   0  0  0  0  0  2  0  0  0  0  0  0
  197.5030  170.2750  145.2420 C   0  0  0  0  0  1  0  0  0  0  0  0
  196.1670  174.6370  143.5980 N   0  0  0  0  0  2  0  0  0  0  0  0
  196.0420  170.4360  144.8730 C   0  0  2  0  0  0  0  0  0  0  0  0
  195.6450  172.8290  145.7380 C   0  0  0  0  0  2  0  0  0  0  0  0
  195.7710  171.9120  144.5080 C   0  0  2  0  0  3  0  0  0  0  0  0
  194.7890  174.7200  143.1130 C   0  0  1  0  0  3  0  0  0  0  0  0
  194.7110  172.1670  143.3950 C   0  0  1  0  0  3  0  0  0  0  0  0
  195.2560  170.0460  145.9620 O   0  0  0  0  0  1  0  0  0  0  0  0
  195.7540  169.5220  143.6920 C   0  0  0  0  0  2  0  0  0  0  0  0
  196.8710  173.1510  146.1800 O   0  0  0  0  0  0  0  0  0  0  0  0
  193.8880  170.9860  142.8310 C   0  0  2  0  0  3  0  0  0  0  0  0
  195.2520  175.4450  146.1160 O   0  0  0  0  0  0  0  0  0  0  0  0
  194.7850  174.8810  141.6000 C   0  0  0  0  0  2  0  0  0  0  0  0
  196.2000  174.9700  141.0560 C   0  0  0  0  0  2  0  0  0  0  0  0
  196.2060  175.6690  139.8500 O   0  0  0  0  0  1  0  0  0  0  0  0
  1 30  1  1  0  0  0
  1  2  1  0  0  0  0
  1  4  1  0  0  0  0
  2  3  1  0  0  0  0
  3  5  1  0  0  0  0
  3 32  1  1  0  0  0
  4  5  1  0  0  0  0
  4  8  1  0  0  0  0
  8  6  2  1  0  0  0
  8  7  1  0  0  0  0
  9  8  1  0  0  0  0
 10  9  1  6  0  0  0
 10 11  1  0  0  0  0
 11 14  2  0  0  0  0
 12 25  1  6  0  0  0
 12 15  1  0  0  0  0
 12 13  1  0  0  0  0
 13 16  1  1  0  0  0
 14 17  1  0  0  0  0
 15 13  1  0  0  0  0
 15 10  1  0  0  0  0
 16 14  1  0  0  0  0
 17 20  1  0  0  0  0
 17 23  1  0  0  0  0
 18 21  2  0  0  0  0
 19 20  2  0  0  0  0
 19 18  1  0  0  0  0
 20 22  1  0  0  0  0
 22 21  1  0  0  0  0
 22 24  1  0  0  0  0
 23 24  2  0  0  0  0
 26 25  1  0  0  0  0
 27 26  1  0  0  0  0
 28 29  1  0  0  0  0
 29 27  1  0  0  0  0
 31 30  1  0  0  0  0
 33 47  2  0  0  0  0
 33 45  1  0  0  0  0
 35 44  1  0  0  0  0
 37 33  1  0  0  0  0
 38 36  1  0  0  0  0
 38 43  1  0  0  0  0
 39 45  1  0  0  0  0
 40 38  1  0  0  0  0
 40 39  1  0  0  0  0
 41 34  1  0  0  0  0
 41 37  1  0  0  0  0
 42 34  1  0  0  0  0
 42 40  1  0  0  0  0
 44 38  1  0  0  0  0
 46 32  1  0  0  0  0
 46 35  1  0  0  0  0
 46 42  1  0  0  0  0
 48 41  1  0  0  0  0
 49 48  1  0  0  0  0
 50 49  1  0  0  0  0
M  END
>  <MODEL>
9

>  <REMARK>
 VINA RESULT:      -6.9      1.903      3.479
  Name = 
  13 active torsions:
  status: ('A' for Active; 'I' for Inactive)
    1  A    between atoms: C_1  and  O_37
    2  A    between atoms: C_2  and  C_40
    3  A    between atoms: C_3  and  N_14
    4  A    between atoms: C_3  and  C_39
    5  A    between atoms: O_4  and  C_29
    6  A    between atoms: O_4  and  C_46
    7  A    between atoms: O_6  and  C_15
    8  A    between atoms: N_14  and  N_48
    9  A    between atoms: C_18  and  C_35
   10  A    between atoms: C_22  and  N_48
   11  A    between atoms: C_26  and  C_35
   12  A    between atoms: N_30  and  P_49
   13  A    between atoms: O_37  and  P_49
                            x       y       z     vdW  Elec       q    Type
                         _______ _______ _______ _____ _____    ______ ____

>  <TORSDO>
F 13

$$$$
