=
 OpenBabel11062420163D

 25 27  0  0  1  0  0  0  0  0999 V2000
  191.3790  175.7300  143.6710 C   0  0  1  0  0  3  0  0  0  0  0  0
  188.8380  175.7560  146.3430 C   0  0  0  0  0  0  0  0  0  0  0  0
  189.6430  177.6580  144.2880 C   0  0  0  0  0  2  0  0  0  0  0  0
  188.1530  177.1120  146.2800 C   0  0  1  0  0  3  0  0  0  0  0  0
  191.6550  174.4470  144.2180 O   0  0  0  0  0  0  0  0  0  0  0  0
  190.2570  176.2980  144.4460 C   0  0  0  0  0  0  0  0  0  0  0  0
  190.7390  174.2410  145.2830 C   0  0  1  0  0  3  0  0  0  0  0  0
  188.2100  177.6580  144.8360 C   0  0  0  0  0  2  0  0  0  0  0  0
  189.9050  175.4590  145.3740 C   0  0  0  0  0  0  0  0  0  0  0  0
  188.5620  174.9210  147.2460 O   0  0  0  0  0  0  0  0  0  0  0  0
  185.0180  177.8020  145.0510 C   0  0  0  0  0  2  0  0  0  0  0  0
  186.7060  177.0780  146.8140 C   0  0  0  0  0  3  0  0  0  0  0  0
  184.8150  178.6370  147.4680 C   0  0  0  0  0  2  0  0  0  0  0  0
  185.6940  176.6200  145.7400 C   0  0  0  0  0  2  0  0  0  0  0  0
  186.3280  178.4400  147.4280 C   0  0  0  0  0  2  0  0  0  0  0  0
  184.2200  178.6450  146.0540 C   0  0  0  0  0  2  0  0  0  0  0  0
  193.7560  176.0070  142.9550 C   0  0  0  0  0  1  0  0  0  0  0  0
  193.0120  176.8270  145.0640 O   0  0  0  0  0  1  0  0  0  0  0  0
  192.6150  176.6250  143.7400 C   0  0  2  0  0  3  0  0  0  0  0  0
  189.8710  173.0280  144.9870 C   0  0  0  0  0  2  0  0  0  0  0  0
  190.1390  172.5230  143.5800 C   0  0  0  0  0  2  0  0  0  0  0  0
  188.8640  172.5420  142.7550 C   0  0  0  0  0  2  0  0  0  0  0  0
  189.5050  174.1250  141.0910 O   0  0  0  0  0  0  0  0  0  0  0  0
  188.7210  173.8390  142.0330 C   0  0  0  0  0  0  0  0  0  0  0  0
  187.7440  174.7460  142.4200 O   0  0  0  0  0  1  0  0  0  0  0  0
  1 19  1  1  0  0  0
  1  5  1  0  0  0  0
  1  6  1  0  0  0  0
  2 10  2  0  0  0  0
  3  6  1  0  0  0  0
  3  8  1  0  0  0  0
  4  2  1  0  0  0  0
  4 12  1  6  0  0  0
  5  7  1  0  0  0  0
  6  9  2  0  0  0  0
  7 20  1  6  0  0  0
  7  9  1  0  0  0  0
  8  4  1  0  0  0  0
  9  2  1  0  0  0  0
 11 14  1  0  0  0  0
 11 16  1  0  0  0  0
 12 15  1  0  0  0  0
 14 12  1  0  0  0  0
 15 13  1  0  0  0  0
 16 13  1  0  0  0  0
 19 17  1  6  0  0  0
 19 18  1  0  0  0  0
 21 20  1  0  0  0  0
 22 21  1  0  0  0  0
 23 24  2  0  0  0  0
 24 25  1  0  0  0  0
 24 22  1  0  0  0  0
M  END
>  <MODEL>
1

>  <REMARK>
 VINA RESULT:      -6.9      0.000      0.000
  Name = 
  6 active torsions:
  status: ('A' for Active; 'I' for Inactive)
    1  A    between atoms: C_1  and  C_22
    2  A    between atoms: C_5  and  C_11
    3  A    between atoms: C_5  and  C_19
    4  A    between atoms: C_7  and  C_14
    5  A    between atoms: C_13  and  C_18
    6  A    between atoms: C_18  and  C_19
                            x       y       z     vdW  Elec       q    Type
                         _______ _______ _______ _____ _____    ______ ____

>  <TORSDO>
F 6

$$$$
=
 OpenBabel11062420163D

 25 27  0  0  1  0  0  0  0  0999 V2000
  186.4010  176.7710  145.7440 C   0  0  1  0  0  3  0  0  0  0  0  0
  189.9180  177.5290  144.9310 C   0  0  0  0  0  0  0  0  0  0  0  0
  188.6100  175.8560  146.9260 C   0  0  0  0  0  2  0  0  0  0  0  0
  190.7710  176.7780  145.9410 C   0  0  1  0  0  3  0  0  0  0  0  0
  186.1650  177.6700  144.6690 O   0  0  0  0  0  0  0  0  0  0  0  0
  187.8660  176.6460  145.8890 C   0  0  0  0  0  0  0  0  0  0  0  0
  187.4340  178.0780  144.1780 C   0  0  1  0  0  3  0  0  0  0  0  0
  190.0190  175.5170  146.4230 C   0  0  0  0  0  2  0  0  0  0  0  0
  188.4530  177.4030  145.0110 C   0  0  0  0  0  0  0  0  0  0  0  0
  190.4340  178.3060  144.0830 O   0  0  0  0  0  0  0  0  0  0  0  0
  192.5110  173.9150  145.1770 C   0  0  0  0  0  2  0  0  0  0  0  0
  192.1720  176.4280  145.4000 C   0  0  0  0  0  3  0  0  0  0  0  0
  194.3660  175.3970  146.1470 C   0  0  0  0  0  2  0  0  0  0  0  0
  192.1480  175.2080  144.4530 C   0  0  0  0  0  2  0  0  0  0  0  0
  193.1660  176.2430  146.5630 C   0  0  0  0  0  2  0  0  0  0  0  0
  193.9330  173.9800  145.7480 C   0  0  0  0  0  2  0  0  0  0  0  0
  184.3880  177.8700  146.7320 C   0  0  0  0  0  1  0  0  0  0  0  0
  186.5560  178.2500  147.6410 O   0  0  0  0  0  1  0  0  0  0  0  0
  185.7540  177.2830  147.0300 C   0  0  2  0  0  3  0  0  0  0  0  0
  187.5810  177.6600  142.7230 C   0  0  0  0  0  2  0  0  0  0  0  0
  186.2610  177.1270  142.1950 C   0  0  0  0  0  2  0  0  0  0  0  0
  185.6990  178.0560  141.1330 C   0  0  0  0  0  2  0  0  0  0  0  0
  183.4930  178.3880  140.2910 O   0  0  0  0  0  0  0  0  0  0  0  0
  184.2260  178.2200  141.2990 C   0  0  0  0  0  0  0  0  0  0  0  0
  183.6660  178.2170  142.5700 O   0  0  0  0  0  1  0  0  0  0  0  0
  1  6  1  0  0  0  0
  1 19  1  1  0  0  0
  2  9  1  0  0  0  0
  2  4  1  0  0  0  0
  4 12  1  6  0  0  0
  4  8  1  0  0  0  0
  5  1  1  0  0  0  0
  6  3  1  0  0  0  0
  7 20  1  6  0  0  0
  7  5  1  0  0  0  0
  7  9  1  0  0  0  0
  8  3  1  0  0  0  0
  9  6  2  0  0  0  0
 10  2  2  0  0  0  0
 11 16  1  0  0  0  0
 12 15  1  0  0  0  0
 13 15  1  0  0  0  0
 14 11  1  0  0  0  0
 14 12  1  0  0  0  0
 16 13  1  0  0  0  0
 19 17  1  6  0  0  0
 19 18  1  0  0  0  0
 21 20  1  0  0  0  0
 22 24  1  0  0  0  0
 22 21  1  0  0  0  0
 23 24  2  0  0  0  0
 24 25  1  0  0  0  0
M  END
>  <MODEL>
2

>  <REMARK>
 VINA RESULT:      -6.9      2.812      6.460
  Name = 
  6 active torsions:
  status: ('A' for Active; 'I' for Inactive)
    1  A    between atoms: C_1  and  C_22
    2  A    between atoms: C_5  and  C_11
    3  A    between atoms: C_5  and  C_19
    4  A    between atoms: C_7  and  C_14
    5  A    between atoms: C_13  and  C_18
    6  A    between atoms: C_18  and  C_19
                            x       y       z     vdW  Elec       q    Type
                         _______ _______ _______ _____ _____    ______ ____

>  <TORSDO>
F 6

$$$$
=
 OpenBabel11062420163D

 25 27  0  0  1  0  0  0  0  0999 V2000
  186.0490  178.1160  144.1270 C   0  0  1  0  0  3  0  0  0  0  0  0
  189.6470  177.5560  143.5440 C   0  0  0  0  0  0  0  0  0  0  0  0
  187.8920  177.2520  145.8510 C   0  0  0  0  0  2  0  0  0  0  0  0
  190.2390  177.1050  144.8700 C   0  0  1  0  0  3  0  0  0  0  0  0
  186.0920  178.5140  142.7630 O   0  0  0  0  0  0  0  0  0  0  0  0
  187.4170  177.6980  144.4990 C   0  0  0  0  0  0  0  0  0  0  0  0
  187.4310  178.3470  142.3200 C   0  0  1  0  0  3  0  0  0  0  0  0
  189.1550  176.3920  145.7090 C   0  0  0  0  0  2  0  0  0  0  0  0
  188.2060  177.8470  143.4770 C   0  0  0  0  0  0  0  0  0  0  0  0
  190.3740  177.7530  142.5330 O   0  0  0  0  0  0  0  0  0  0  0  0
  192.3910  175.3940  146.9320 C   0  0  0  0  0  2  0  0  0  0  0  0
  191.4920  176.2220  144.6990 C   0  0  0  0  0  3  0  0  0  0  0  0
  193.9920  176.2550  145.1220 C   0  0  0  0  0  2  0  0  0  0  0  0
  191.5340  175.0590  145.7150 C   0  0  0  0  0  2  0  0  0  0  0  0
  192.7670  177.0850  144.7470 C   0  0  0  0  0  2  0  0  0  0  0  0
  193.8480  175.6570  146.5270 C   0  0  0  0  0  2  0  0  0  0  0  0
  184.2800  178.8590  145.7260 C   0  0  0  0  0  1  0  0  0  0  0  0
  185.3230  180.4110  144.2510 O   0  0  0  0  0  1  0  0  0  0  0  0
  185.5550  179.2610  145.0100 C   0  0  2  0  0  3  0  0  0  0  0  0
  187.4740  177.3400  141.1820 C   0  0  0  0  0  2  0  0  0  0  0  0
  187.1990  175.9420  141.7080 C   0  0  0  0  0  2  0  0  0  0  0  0
  188.2570  174.9690  141.2160 C   0  0  0  0  0  2  0  0  0  0  0  0
  189.2560  173.9720  143.1380 O   0  0  0  0  0  1  0  0  0  0  0  0
  188.4400  173.8530  142.1860 C   0  0  0  0  0  0  0  0  0  0  0  0
  187.7340  172.6680  142.0240 O   0  0  0  0  0  0  0  0  0  0  0  0
  1  6  1  0  0  0  0
  1 19  1  1  0  0  0
  2  4  1  0  0  0  0
  4 12  1  6  0  0  0
  4  8  1  0  0  0  0
  5  1  1  0  0  0  0
  6  3  1  0  0  0  0
  7 20  1  6  0  0  0
  7  5  1  0  0  0  0
  7  9  1  0  0  0  0
  8  3  1  0  0  0  0
  9  2  1  0  0  0  0
  9  6  2  0  0  0  0
 10  2  2  0  0  0  0
 12 15  1  0  0  0  0
 12 14  1  0  0  0  0
 13 16  1  0  0  0  0
 14 11  1  0  0  0  0
 15 13  1  0  0  0  0
 16 11  1  0  0  0  0
 18 19  1  0  0  0  0
 19 17  1  6  0  0  0
 20 21  1  0  0  0  0
 22 21  1  0  0  0  0
 22 24  1  0  0  0  0
 24 23  1  0  0  0  0
 25 24  2  0  0  0  0
M  END
>  <MODEL>
3

>  <REMARK>
 VINA RESULT:      -6.7      2.415      5.987
  Name = 
  6 active torsions:
  status: ('A' for Active; 'I' for Inactive)
    1  A    between atoms: C_1  and  C_22
    2  A    between atoms: C_5  and  C_11
    3  A    between atoms: C_5  and  C_19
    4  A    between atoms: C_7  and  C_14
    5  A    between atoms: C_13  and  C_18
    6  A    between atoms: C_18  and  C_19
                            x       y       z     vdW  Elec       q    Type
                         _______ _______ _______ _____ _____    ______ ____

>  <TORSDO>
F 6

$$$$
=
 OpenBabel11062420163D

 25 27  0  0  1  0  0  0  0  0999 V2000
  189.1470  173.7210  142.1200 C   0  0  1  0  0  3  0  0  0  0  0  0
  188.8640  176.7040  144.2700 C   0  0  0  0  0  0  0  0  0  0  0  0
  187.1310  175.4600  142.2850 C   0  0  0  0  0  2  0  0  0  0  0  0
  187.5340  177.3590  143.9340 C   0  0  1  0  0  3  0  0  0  0  0  0
  190.4110  173.6220  142.7620 O   0  0  0  0  0  0  0  0  0  0  0  0
  188.4670  174.9050  142.6850 C   0  0  0  0  0  0  0  0  0  0  0  0
  190.4990  174.7000  143.6810 C   0  0  1  0  0  3  0  0  0  0  0  0
  186.5390  176.2900  143.4310 C   0  0  0  0  0  2  0  0  0  0  0  0
  189.2430  175.4710  143.5600 C   0  0  0  0  0  0  0  0  0  0  0  0
  189.6710  177.2320  145.0810 O   0  0  0  0  0  0  0  0  0  0  0  0
  185.2160  176.8320  146.4160 C   0  0  0  0  0  2  0  0  0  0  0  0
  186.9490  178.1650  145.1120 C   0  0  0  0  0  3  0  0  0  0  0  0
  184.8000  179.2970  145.8430 C   0  0  0  0  0  2  0  0  0  0  0  0
  186.6730  177.2820  146.3490 C   0  0  0  0  0  2  0  0  0  0  0  0
  185.6970  178.9430  144.6610 C   0  0  0  0  0  2  0  0  0  0  0  0
  184.2700  178.0350  146.5340 C   0  0  0  0  0  2  0  0  0  0  0  0
  188.4250  172.8470  139.8950 C   0  0  0  0  0  1  0  0  0  0  0  0
  190.6470  173.6320  140.2350 O   0  0  0  0  0  1  0  0  0  0  0  0
  189.3170  173.8450  140.6060 C   0  0  2  0  0  3  0  0  0  0  0  0
  190.6510  174.1600  145.0950 C   0  0  0  0  0  2  0  0  0  0  0  0
  192.0980  174.2670  145.5440 C   0  0  0  0  0  2  0  0  0  0  0  0
  192.2520  175.3590  146.5890 C   0  0  0  0  0  2  0  0  0  0  0  0
  192.9920  176.8940  144.9220 O   0  0  0  0  0  0  0  0  0  0  0  0
  193.1380  176.4480  146.0890 C   0  0  0  0  0  0  0  0  0  0  0  0
  194.1470  176.9500  146.9000 O   0  0  0  0  0  1  0  0  0  0  0  0
  1 19  1  6  0  0  0
  1  6  1  0  0  0  0
  1  5  1  0  0  0  0
  2 10  2  0  0  0  0
  3  6  1  0  0  0  0
  3  8  1  0  0  0  0
  4  2  1  0  0  0  0
  4 12  1  1  0  0  0
  5  7  1  0  0  0  0
  6  9  2  0  0  0  0
  7 20  1  1  0  0  0
  8  4  1  0  0  0  0
  9  7  1  0  0  0  0
  9  2  1  0  0  0  0
 11 16  1  0  0  0  0
 12 14  1  0  0  0  0
 13 16  1  0  0  0  0
 14 11  1  0  0  0  0
 15 12  1  0  0  0  0
 15 13  1  0  0  0  0
 18 19  1  0  0  0  0
 19 17  1  6  0  0  0
 20 21  1  0  0  0  0
 21 22  1  0  0  0  0
 23 24  2  0  0  0  0
 24 22  1  0  0  0  0
 24 25  1  0  0  0  0
M  END
>  <MODEL>
4

>  <REMARK>
 VINA RESULT:      -6.7      1.737      4.004
  Name = 
  6 active torsions:
  status: ('A' for Active; 'I' for Inactive)
    1  A    between atoms: C_1  and  C_22
    2  A    between atoms: C_5  and  C_11
    3  A    between atoms: C_5  and  C_19
    4  A    between atoms: C_7  and  C_14
    5  A    between atoms: C_13  and  C_18
    6  A    between atoms: C_18  and  C_19
                            x       y       z     vdW  Elec       q    Type
                         _______ _______ _______ _____ _____    ______ ____

>  <TORSDO>
F 6

$$$$
=
 OpenBabel11062420163D

 25 27  0  0  1  0  0  0  0  0999 V2000
  186.3990  176.7350  145.6060 C   0  0  1  0  0  3  0  0  0  0  0  0
  189.9320  177.5370  144.9150 C   0  0  0  0  0  0  0  0  0  0  0  0
  188.5800  175.8000  146.8240 C   0  0  0  0  0  2  0  0  0  0  0  0
  190.7610  176.7630  145.9270 C   0  0  1  0  0  3  0  0  0  0  0  0
  186.1870  177.6640  144.5510 O   0  0  0  0  0  0  0  0  0  0  0  0
  187.8600  176.6150  145.7900 C   0  0  0  0  0  0  0  0  0  0  0  0
  187.4670  178.0930  144.1080 C   0  0  1  0  0  3  0  0  0  0  0  0
  190.0050  175.4840  146.3510 C   0  0  0  0  0  2  0  0  0  0  0  0
  188.4670  177.4000  144.9500 C   0  0  0  0  0  0  0  0  0  0  0  0
  190.4660  178.3420  144.1050 O   0  0  0  0  0  0  0  0  0  0  0  0
  192.5140  173.9390  145.0520 C   0  0  0  0  0  2  0  0  0  0  0  0
  192.1790  176.4370  145.4160 C   0  0  0  0  0  3  0  0  0  0  0  0
  194.3400  175.3480  146.1760 C   0  0  0  0  0  2  0  0  0  0  0  0
  192.1840  175.2770  144.3950 C   0  0  0  0  0  2  0  0  0  0  0  0
  193.1300  176.1750  146.6000 C   0  0  0  0  0  2  0  0  0  0  0  0
  193.9160  173.9610  145.6760 C   0  0  0  0  0  2  0  0  0  0  0  0
  184.3520  177.7920  146.5690 C   0  0  0  0  0  1  0  0  0  0  0  0
  186.4910  178.1600  147.5490 O   0  0  0  0  0  1  0  0  0  0  0  0
  185.7130  177.2060  146.8880 C   0  0  2  0  0  3  0  0  0  0  0  0
  187.6570  177.7180  142.6470 C   0  0  0  0  0  2  0  0  0  0  0  0
  186.9830  176.3890  142.3550 C   0  0  0  0  0  2  0  0  0  0  0  0
  187.9000  175.4960  141.5360 C   0  0  0  0  0  2  0  0  0  0  0  0
  189.0150  174.2780  143.2570 O   0  0  0  0  0  1  0  0  0  0  0  0
  188.2210  174.2440  142.2800 C   0  0  0  0  0  0  0  0  0  0  0  0
  187.6680  173.0360  141.8780 O   0  0  0  0  0  0  0  0  0  0  0  0
  1  6  1  0  0  0  0
  1 19  1  1  0  0  0
  2  9  1  0  0  0  0
  2  4  1  0  0  0  0
  4 12  1  6  0  0  0
  4  8  1  0  0  0  0
  5  1  1  0  0  0  0
  6  3  1  0  0  0  0
  7 20  1  6  0  0  0
  7  5  1  0  0  0  0
  7  9  1  0  0  0  0
  8  3  1  0  0  0  0
  9  6  2  0  0  0  0
 10  2  2  0  0  0  0
 11 16  1  0  0  0  0
 12 15  1  0  0  0  0
 13 15  1  0  0  0  0
 14 11  1  0  0  0  0
 14 12  1  0  0  0  0
 16 13  1  0  0  0  0
 19 17  1  6  0  0  0
 19 18  1  0  0  0  0
 21 20  1  0  0  0  0
 22 24  1  0  0  0  0
 22 21  1  0  0  0  0
 24 23  1  0  0  0  0
 25 24  2  0  0  0  0
M  END
>  <MODEL>
5

>  <REMARK>
 VINA RESULT:      -6.7      2.102      5.942
  Name = 
  6 active torsions:
  status: ('A' for Active; 'I' for Inactive)
    1  A    between atoms: C_1  and  C_22
    2  A    between atoms: C_5  and  C_11
    3  A    between atoms: C_5  and  C_19
    4  A    between atoms: C_7  and  C_14
    5  A    between atoms: C_13  and  C_18
    6  A    between atoms: C_18  and  C_19
                            x       y       z     vdW  Elec       q    Type
                         _______ _______ _______ _____ _____    ______ ____

>  <TORSDO>
F 6

$$$$
=
 OpenBabel11062420163D

 25 27  0  0  1  0  0  0  0  0999 V2000
  191.7990  173.5000  144.8100 C   0  0  1  0  0  3  0  0  0  0  0  0
  189.6060  176.4130  144.2550 C   0  0  0  0  0  0  0  0  0  0  0  0
  189.5230  174.1220  146.0540 C   0  0  0  0  0  2  0  0  0  0  0  0
  188.4250  176.2560  145.2000 C   0  0  1  0  0  3  0  0  0  0  0  0
  192.5420  174.1100  143.7630 O   0  0  0  0  0  0  0  0  0  0  0  0
  190.6340  174.3700  145.0770 C   0  0  0  0  0  0  0  0  0  0  0  0
  191.8600  175.3030  143.4050 C   0  0  1  0  0  3  0  0  0  0  0  0
  188.8560  175.4480  146.4440 C   0  0  0  0  0  2  0  0  0  0  0  0
  190.6600  175.3860  144.2660 C   0  0  0  0  0  0  0  0  0  0  0  0
  189.6600  177.3570  143.4220 O   0  0  0  0  0  0  0  0  0  0  0  0
  185.7710  177.3020  147.1170 C   0  0  0  0  0  2  0  0  0  0  0  0
  187.7900  177.6050  145.5950 C   0  0  0  0  0  3  0  0  0  0  0  0
  185.7040  178.9900  145.1860 C   0  0  0  0  0  2  0  0  0  0  0  0
  187.2660  177.6040  147.0480 C   0  0  0  0  0  2  0  0  0  0  0  0
  186.6980  178.0020  144.5820 C   0  0  0  0  0  2  0  0  0  0  0  0
  184.9560  178.3680  146.3730 C   0  0  0  0  0  2  0  0  0  0  0  0
  192.5750  171.2360  144.1000 C   0  0  0  0  0  1  0  0  0  0  0  0
  190.5120  172.1230  143.3070 O   0  0  0  0  0  1  0  0  0  0  0  0
  191.3630  172.0900  144.4150 C   0  0  2  0  0  3  0  0  0  0  0  0
  192.7630  176.5030  143.6430 C   0  0  0  0  0  2  0  0  0  0  0  0
  194.2210  176.0820  143.5790 C   0  0  0  0  0  2  0  0  0  0  0  0
  195.0100  176.7260  144.7060 C   0  0  0  0  0  2  0  0  0  0  0  0
  194.1100  176.9590  146.9020 O   0  0  0  0  0  1  0  0  0  0  0  0
  194.5800  176.1860  146.0280 C   0  0  0  0  0  0  0  0  0  0  0  0
  194.7250  174.8330  146.3060 O   0  0  0  0  0  0  0  0  0  0  0  0
  1 19  1  6  0  0  0
  1  6  1  0  0  0  0
  2  9  1  0  0  0  0
  2  4  1  0  0  0  0
  3  8  1  0  0  0  0
  4 12  1  1  0  0  0
  4  8  1  0  0  0  0
  5  1  1  0  0  0  0
  6  3  1  0  0  0  0
  7 20  1  1  0  0  0
  7  5  1  0  0  0  0
  7  9  1  0  0  0  0
  9  6  2  0  0  0  0
 10  2  2  0  0  0  0
 12 14  1  0  0  0  0
 13 16  1  0  0  0  0
 14 11  1  0  0  0  0
 15 13  1  0  0  0  0
 15 12  1  0  0  0  0
 16 11  1  0  0  0  0
 18 19  1  0  0  0  0
 19 17  1  6  0  0  0
 21 20  1  0  0  0  0
 21 22  1  0  0  0  0
 22 24  1  0  0  0  0
 24 25  2  0  0  0  0
 24 23  1  0  0  0  0
M  END
>  <MODEL>
6

>  <REMARK>
 VINA RESULT:      -6.3      1.891      4.352
  Name = 
  6 active torsions:
  status: ('A' for Active; 'I' for Inactive)
    1  A    between atoms: C_1  and  C_22
    2  A    between atoms: C_5  and  C_11
    3  A    between atoms: C_5  and  C_19
    4  A    between atoms: C_7  and  C_14
    5  A    between atoms: C_13  and  C_18
    6  A    between atoms: C_18  and  C_19
                            x       y       z     vdW  Elec       q    Type
                         _______ _______ _______ _____ _____    ______ ____

>  <TORSDO>
F 6

$$$$
=
 OpenBabel11062420163D

 25 27  0  0  1  0  0  0  0  0999 V2000
  188.3400  177.9080  143.3420 C   0  0  1  0  0  3  0  0  0  0  0  0
  190.0290  175.2890  145.3150 C   0  0  0  0  0  0  0  0  0  0  0  0
  190.8000  176.9260  143.0300 C   0  0  0  0  0  2  0  0  0  0  0  0
  191.3980  175.0850  144.6860 C   0  0  1  0  0  3  0  0  0  0  0  0
  187.2780  177.6250  144.2440 O   0  0  0  0  0  0  0  0  0  0  0  0
  189.4730  177.0380  143.7220 C   0  0  0  0  0  0  0  0  0  0  0  0
  187.7430  176.6240  145.1370 C   0  0  1  0  0  3  0  0  0  0  0  0
  191.8590  176.3920  144.0040 C   0  0  0  0  0  2  0  0  0  0  0  0
  189.1270  176.2960  144.7310 C   0  0  0  0  0  0  0  0  0  0  0  0
  189.6300  174.5700  146.2690 O   0  0  0  0  0  0  0  0  0  0  0  0
  194.5030  176.0730  145.7770 C   0  0  0  0  0  2  0  0  0  0  0  0
  192.4490  174.5710  145.6910 C   0  0  0  0  0  3  0  0  0  0  0  0
  194.7560  173.5200  145.7580 C   0  0  0  0  0  2  0  0  0  0  0  0
  193.1680  175.7230  146.4280 C   0  0  0  0  0  2  0  0  0  0  0  0
  193.4380  173.6180  144.9940 C   0  0  0  0  0  2  0  0  0  0  0  0
  195.4660  174.8790  145.8140 C   0  0  0  0  0  2  0  0  0  0  0  0
  186.5480  178.2870  141.6450 C   0  0  0  0  0  1  0  0  0  0  0  0
  187.8480  176.2920  141.6230 O   0  0  0  0  0  1  0  0  0  0  0  0
  187.9050  177.6600  141.8990 C   0  0  2  0  0  3  0  0  0  0  0  0
  187.7250  177.1560  146.5610 C   0  0  0  0  0  2  0  0  0  0  0  0
  186.4640  176.6990  147.2750 C   0  0  0  0  0  2  0  0  0  0  0  0
  185.2540  176.8520  146.3690 C   0  0  0  0  0  2  0  0  0  0  0  0
  184.8240  178.8250  147.6380 O   0  0  0  0  0  1  0  0  0  0  0  0
  184.5950  178.1720  146.5870 C   0  0  0  0  0  0  0  0  0  0  0  0
  183.7040  178.6670  145.6440 O   0  0  0  0  0  0  0  0  0  0  0  0
  1 19  1  6  0  0  0
  1  6  1  0  0  0  0
  1  5  1  0  0  0  0
  2 10  2  0  0  0  0
  3  6  1  0  0  0  0
  3  8  1  0  0  0  0
  4  2  1  0  0  0  0
  4 12  1  1  0  0  0
  5  7  1  0  0  0  0
  6  9  2  0  0  0  0
  7 20  1  1  0  0  0
  8  4  1  0  0  0  0
  9  7  1  0  0  0  0
  9  2  1  0  0  0  0
 11 16  1  0  0  0  0
 11 14  1  0  0  0  0
 12 14  1  0  0  0  0
 13 16  1  0  0  0  0
 15 12  1  0  0  0  0
 15 13  1  0  0  0  0
 18 19  1  0  0  0  0
 19 17  1  1  0  0  0
 20 21  1  0  0  0  0
 22 24  1  0  0  0  0
 22 21  1  0  0  0  0
 24 23  1  0  0  0  0
 25 24  2  0  0  0  0
M  END
>  <MODEL>
7

>  <REMARK>
 VINA RESULT:      -6.2      2.650      6.528
  Name = 
  6 active torsions:
  status: ('A' for Active; 'I' for Inactive)
    1  A    between atoms: C_1  and  C_22
    2  A    between atoms: C_5  and  C_11
    3  A    between atoms: C_5  and  C_19
    4  A    between atoms: C_7  and  C_14
    5  A    between atoms: C_13  and  C_18
    6  A    between atoms: C_18  and  C_19
                            x       y       z     vdW  Elec       q    Type
                         _______ _______ _______ _____ _____    ______ ____

>  <TORSDO>
F 6

$$$$
=
 OpenBabel11062420163D

 25 27  0  0  1  0  0  0  0  0999 V2000
  188.9530  176.4190  146.9260 C   0  0  1  0  0  3  0  0  0  0  0  0
  187.7400  176.0080  143.4680 C   0  0  0  0  0  0  0  0  0  0  0  0
  189.9670  174.8980  144.9840 C   0  0  0  0  0  2  0  0  0  0  0  0
  188.7080  175.0620  142.7760 C   0  0  1  0  0  3  0  0  0  0  0  0
  187.8480  177.3100  146.9980 O   0  0  0  0  0  0  0  0  0  0  0  0
  188.9580  175.8460  145.5640 C   0  0  0  0  0  0  0  0  0  0  0  0
  187.2050  177.2830  145.7320 C   0  0  1  0  0  3  0  0  0  0  0  0
  189.3480  174.1170  143.8170 C   0  0  0  0  0  2  0  0  0  0  0  0
  187.9750  176.3500  144.8800 C   0  0  0  0  0  0  0  0  0  0  0  0
  186.7940  176.5550  142.8400 O   0  0  0  0  0  0  0  0  0  0  0  0
  189.4200  172.2250  140.9710 C   0  0  0  0  0  2  0  0  0  0  0  0
  188.0540  174.2720  141.6240 C   0  0  0  0  0  3  0  0  0  0  0  0
  188.3940  173.7340  139.1680 C   0  0  0  0  0  2  0  0  0  0  0  0
  188.2350  172.7460  141.7810 C   0  0  0  0  0  2  0  0  0  0  0  0
  188.5670  174.7830  140.2630 C   0  0  0  0  0  2  0  0  0  0  0  0
  189.2180  172.4760  139.4710 C   0  0  0  0  0  2  0  0  0  0  0  0
  191.1950  176.2510  148.0130 C   0  0  0  0  0  1  0  0  0  0  0  0
  190.0190  178.3210  147.9540 O   0  0  0  0  0  1  0  0  0  0  0  0
  190.2590  177.1510  147.2290 C   0  0  2  0  0  3  0  0  0  0  0  0
  185.7750  176.7910  145.8920 C   0  0  0  0  0  2  0  0  0  0  0  0
  184.9290  177.8530  146.5730 C   0  0  0  0  0  2  0  0  0  0  0  0
  185.1810  179.2150  145.9490 C   0  0  0  0  0  2  0  0  0  0  0  0
  183.4790  179.0260  144.2910 O   0  0  0  0  0  1  0  0  0  0  0  0
  184.6910  179.2500  144.5420 C   0  0  0  0  0  0  0  0  0  0  0  0
  185.5780  179.5010  143.5030 O   0  0  0  0  0  0  0  0  0  0  0  0
  1  5  1  0  0  0  0
  1 19  1  6  0  0  0
  2  9  1  0  0  0  0
  3  6  1  0  0  0  0
  4 12  1  6  0  0  0
  4  2  1  0  0  0  0
  4  8  1  0  0  0  0
  6  1  1  0  0  0  0
  7 20  1  1  0  0  0
  7  5  1  0  0  0  0
  8  3  1  0  0  0  0
  9  6  2  0  0  0  0
  9  7  1  0  0  0  0
 10  2  2  0  0  0  0
 11 14  1  0  0  0  0
 12 14  1  0  0  0  0
 13 16  1  0  0  0  0
 13 15  1  0  0  0  0
 15 12  1  0  0  0  0
 16 11  1  0  0  0  0
 19 18  1  0  0  0  0
 19 17  1  1  0  0  0
 20 21  1  0  0  0  0
 22 21  1  0  0  0  0
 23 24  1  0  0  0  0
 24 22  1  0  0  0  0
 25 24  2  0  0  0  0
M  END
>  <MODEL>
8

>  <REMARK>
 VINA RESULT:      -6.2      2.476      6.196
  Name = 
  6 active torsions:
  status: ('A' for Active; 'I' for Inactive)
    1  A    between atoms: C_1  and  C_22
    2  A    between atoms: C_5  and  C_11
    3  A    between atoms: C_5  and  C_19
    4  A    between atoms: C_7  and  C_14
    5  A    between atoms: C_13  and  C_18
    6  A    between atoms: C_18  and  C_19
                            x       y       z     vdW  Elec       q    Type
                         _______ _______ _______ _____ _____    ______ ____

>  <TORSDO>
F 6

$$$$
=
 OpenBabel11062420163D

 25 27  0  0  1  0  0  0  0  0999 V2000
  191.0170  174.1660  142.4050 C   0  0  1  0  0  3  0  0  0  0  0  0
  189.7250  177.3370  143.7750 C   0  0  0  0  0  0  0  0  0  0  0  0
  188.4890  175.0030  142.5420 C   0  0  0  0  0  2  0  0  0  0  0  0
  188.2190  177.3220  143.5640 C   0  0  1  0  0  3  0  0  0  0  0  0
  192.2620  174.7380  142.7850 O   0  0  0  0  0  0  0  0  0  0  0  0
  189.9630  175.1280  142.7900 C   0  0  0  0  0  0  0  0  0  0  0  0
  191.9800  175.9970  143.3770 C   0  0  1  0  0  3  0  0  0  0  0  0
  187.7100  175.8630  143.5470 C   0  0  0  0  0  2  0  0  0  0  0  0
  190.5130  176.1770  143.3260 C   0  0  0  0  0  0  0  0  0  0  0  0
  190.3120  178.3440  144.2540 O   0  0  0  0  0  0  0  0  0  0  0  0
  185.9170  176.7600  146.0530 C   0  0  0  0  0  2  0  0  0  0  0  0
  187.4600  178.1730  144.6020 C   0  0  0  0  0  3  0  0  0  0  0  0
  185.1250  179.0150  145.1230 C   0  0  0  0  0  2  0  0  0  0  0  0
  187.2820  177.4360  145.9480 C   0  0  0  0  0  2  0  0  0  0  0  0
  186.1180  178.6580  144.0210 C   0  0  0  0  0  2  0  0  0  0  0  0
  184.7820  177.7900  145.9790 C   0  0  0  0  0  2  0  0  0  0  0  0
  190.5630  172.4440  140.6540 C   0  0  0  0  0  1  0  0  0  0  0  0
  192.2430  174.1010  140.3300 O   0  0  0  0  0  1  0  0  0  0  0  0
  190.9890  173.8770  140.9050 C   0  0  2  0  0  3  0  0  0  0  0  0
  192.4620  176.0070  144.8190 C   0  0  0  0  0  2  0  0  0  0  0  0
  191.9190  174.7980  145.5610 C   0  0  0  0  0  2  0  0  0  0  0  0
  190.9840  175.2350  146.6760 C   0  0  0  0  0  2  0  0  0  0  0  0
  189.5500  173.5620  145.7640 O   0  0  0  0  0  0  0  0  0  0  0  0
  189.7240  174.4390  146.6510 C   0  0  0  0  0  0  0  0  0  0  0  0
  188.7280  174.6840  147.5870 O   0  0  0  0  0  1  0  0  0  0  0  0
  1 19  1  6  0  0  0
  1  5  1  0  0  0  0
  1  6  1  0  0  0  0
  2 10  2  0  0  0  0
  3  6  1  0  0  0  0
  3  8  1  0  0  0  0
  4  2  1  0  0  0  0
  4 12  1  1  0  0  0
  5  7  1  0  0  0  0
  6  9  2  0  0  0  0
  7 20  1  1  0  0  0
  8  4  1  0  0  0  0
  9  7  1  0  0  0  0
  9  2  1  0  0  0  0
 12 14  1  0  0  0  0
 13 16  1  0  0  0  0
 14 11  1  0  0  0  0
 15 12  1  0  0  0  0
 15 13  1  0  0  0  0
 16 11  1  0  0  0  0
 18 19  1  0  0  0  0
 19 17  1  1  0  0  0
 20 21  1  0  0  0  0
 21 22  1  0  0  0  0
 23 24  2  0  0  0  0
 24 22  1  0  0  0  0
 24 25  1  0  0  0  0
M  END
>  <MODEL>
9

>  <REMARK>
 VINA RESULT:      -6.1      1.790      3.564
  Name = 
  6 active torsions:
  status: ('A' for Active; 'I' for Inactive)
    1  A    between atoms: C_1  and  C_22
    2  A    between atoms: C_5  and  C_11
    3  A    between atoms: C_5  and  C_19
    4  A    between atoms: C_7  and  C_14
    5  A    between atoms: C_13  and  C_18
    6  A    between atoms: C_18  and  C_19
                            x       y       z     vdW  Elec       q    Type
                         _______ _______ _______ _____ _____    ______ ____

>  <TORSDO>
F 6

$$$$
