=
 OpenBabel11062422283D

 36 38  0  0  1  0  0  0  0  0999 V2000
  192.3040  174.0100  144.4250 C   0  0  0  0  0  0  0  0  0  0  0  0
  190.1390  176.9500  145.1110 C   0  0  0  0  0  2  0  0  0  0  0  0
  189.7680  172.9230  144.8350 C   0  0  0  0  0  3  0  0  0  0  0  0
  191.9610  172.7300  143.9420 C   0  0  0  0  0  0  0  0  0  0  0  0
  189.0830  174.7290  147.5700 C   0  0  0  0  0  1  0  0  0  0  0  0
  188.9850  174.9620  146.0720 C   0  0  2  0  0  3  0  0  0  0  0  0
  191.6640  176.3370  145.8860 S   0  0  0  0  0  0  0  0  0  0  0  0
  190.0560  174.1870  145.3450 C   0  0  0  0  0  0  0  0  0  0  0  0
  190.7160  172.2280  144.1590 N   0  0  0  0  0  0  0  0  0  0  0  0
  192.8950  171.9560  143.1920 N   0  0  0  0  0  1  0  0  0  0  0  0
  188.9380  176.4190  145.7860 N   0  0  0  0  0  0  0  0  0  0  0  0
  191.3380  174.7230  145.1710 C   0  0  0  0  0  0  0  0  0  0  0  0
  194.7380  174.2560  145.0410 N   0  0  0  0  0  0  0  0  0  0  0  0
  193.8840  175.2780  143.0560 C   0  0  0  0  0  3  0  0  0  0  0  0
  196.2490  175.5580  143.5910 C   0  0  0  0  0  3  0  0  0  0  0  0
  196.0250  174.9440  144.9480 C   0  0  0  0  0  0  0  0  0  0  0  0
  193.6490  174.5670  144.1630 C   0  0  0  0  0  0  0  0  0  0  0  0
  195.2390  175.7720  142.7380 C   0  0  0  0  0  0  0  0  0  0  0  0
  194.4070  177.0950  140.9780 F   0  0  0  0  0  0  0  0  0  0  0  0
  196.6020  177.2400  141.4680 F   0  0  0  0  0  0  0  0  0  0  0  0
  195.5170  176.3830  141.3950 C   0  0  0  0  0  0  0  0  0  0  0  0
  195.7970  175.3940  140.4680 F   0  0  0  0  0  0  0  0  0  0  0  0
  197.3930  173.8310  145.4160 S   0  0  0  0  0  0  0  0  0  0  0  0
  196.8810  171.0350  145.7780 C   0  0  0  0  0  1  0  0  0  0  0  0
  196.6480  172.1330  144.3520 S   0  0  0  0  0  0  0  0  0  0  0  0
  186.5120  176.7770  145.8360 C   0  0  0  0  0  1  0  0  0  0  0  0
  187.7530  176.6830  144.9550 C   0  0  1  0  0  3  0  0  0  0  0  0
  187.8900  177.9020  144.2520 O   0  0  0  0  0  0  0  0  0  0  0  0
  187.1450  176.2970  142.5770 C   0  0  0  0  0  1  0  0  0  0  0  0
  187.5430  177.7400  142.8810 C   0  0  0  0  0  0  0  0  0  0  0  0
  188.6890  178.1270  141.9430 C   0  0  0  0  0  1  0  0  0  0  0  0
  186.3250  178.6380  142.5640 C   0  0  1  0  0  3  0  0  0  0  0  0
  185.2360  178.3760  140.4450 O   0  0  0  0  0  1  0  0  0  0  0  0
  185.2160  177.9380  141.7690 C   0  0  0  0  0  2  0  0  0  0  0  0
  184.4840  179.0980  143.8670 C   0  0  0  0  0  1  0  0  0  0  0  0
  185.8420  179.3950  143.6600 O   0  0  0  0  0  0  0  0  0  0  0  0
  1 12  1  0  0  0  0
  2 11  1  0  0  0  0
  2  7  1  0  0  0  0
  3  8  1  0  0  0  0
  4  9  1  0  0  0  0
  4  1  2  0  0  0  0
  6  5  1  1  0  0  0
  8  6  1  0  0  0  0
  9  3  2  0  0  0  0
 10  4  1  0  0  0  0
 11  6  1  0  0  0  0
 12  8  2  0  0  0  0
 12  7  1  0  0  0  0
 14 17  1  0  0  0  0
 15 16  2  0  0  0  0
 16 13  1  0  0  0  0
 16 23  1  0  0  0  0
 17  1  1  0  0  0  0
 17 13  2  0  0  0  0
 18 14  2  0  0  0  0
 18 15  1  0  0  0  0
 19 21  1  0  0  0  0
 21 20  1  0  0  0  0
 21 18  1  0  0  0  0
 22 21  1  0  0  0  0
 25 23  1  0  0  0  0
 25 24  1  0  0  0  0
 27 11  1  0  0  0  0
 27 26  1  1  0  0  0
 28 27  1  0  0  0  0
 29 30  1  0  0  0  0
 30 28  1  0  0  0  0
 31 30  1  0  0  0  0
 32 34  1  1  0  0  0
 32 30  1  0  0  0  0
 32 36  1  0  0  0  0
 33 34  1  0  0  0  0
 36 35  1  0  0  0  0
M  END
>  <MODEL>
1

>  <REMARK>
 VINA RESULT:      -7.0      0.000      0.000
  Name = 
  10 active torsions:
  status: ('A' for Active; 'I' for Inactive)
    1  A    between atoms: C_6  and  C_34
    2  A    between atoms: C_7  and  O_15
    3  A    between atoms: C_7  and  C_29
    4  A    between atoms: C_14  and  C_35
    5  A    between atoms: O_15  and  C_24
    6  A    between atoms: C_17  and  C_29
    7  A    between atoms: S_19  and  S_20
    8  A    between atoms: S_19  and  C_33
    9  A    between atoms: C_24  and  N_30
   10  A    between atoms: C_29  and  O_31
                            x       y       z     vdW  Elec       q    Type
                         _______ _______ _______ _____ _____    ______ ____

>  <TORSDO>
F 10

$$$$
=
 OpenBabel11062422283D

 36 38  0  0  1  0  0  0  0  0999 V2000
  192.4210  173.8210  144.5570 C   0  0  0  0  0  0  0  0  0  0  0  0
  190.8350  177.0050  145.6280 C   0  0  0  0  0  2  0  0  0  0  0  0
  189.6820  173.3230  144.3860 C   0  0  0  0  0  3  0  0  0  0  0  0
  191.9070  172.7820  143.7530 C   0  0  0  0  0  0  0  0  0  0  0  0
  188.9250  174.6680  147.3570 C   0  0  0  0  0  1  0  0  0  0  0  0
  189.1410  175.2080  145.9540 C   0  0  2  0  0  3  0  0  0  0  0  0
  192.0390  175.9010  146.4250 S   0  0  0  0  0  0  0  0  0  0  0  0
  190.1350  174.3540  145.2060 C   0  0  0  0  0  0  0  0  0  0  0  0
  190.5660  172.5650  143.6910 N   0  0  0  0  0  0  0  0  0  0  0  0
  192.7740  171.9680  142.9660 N   0  0  0  0  0  1  0  0  0  0  0  0
  189.4510  176.6590  146.0090 N   0  0  0  0  0  0  0  0  0  0  0  0
  191.5110  174.5870  145.3210 C   0  0  0  0  0  0  0  0  0  0  0  0
  194.7390  173.1930  145.3290 N   0  0  0  0  0  0  0  0  0  0  0  0
  194.4140  175.0660  143.8810 C   0  0  0  0  0  3  0  0  0  0  0  0
  196.6840  174.5160  144.5890 C   0  0  0  0  0  3  0  0  0  0  0  0
  196.1440  173.5150  145.5760 C   0  0  0  0  0  0  0  0  0  0  0  0
  193.8780  174.0760  144.6000 C   0  0  0  0  0  0  0  0  0  0  0  0
  195.8740  175.2830  143.8480 C   0  0  0  0  0  0  0  0  0  0  0  0
  197.5020  175.6580  142.1890 F   0  0  0  0  0  0  0  0  0  0  0  0
  195.5060  176.6800  141.9670 F   0  0  0  0  0  0  0  0  0  0  0  0
  196.4640  176.2630  142.8750 C   0  0  0  0  0  0  0  0  0  0  0  0
  196.9480  177.3730  143.5470 F   0  0  0  0  0  0  0  0  0  0  0  0
  197.1600  172.0000  145.6220 S   0  0  0  0  0  0  0  0  0  0  0  0
  196.4370  169.4740  146.7620 C   0  0  0  0  0  1  0  0  0  0  0  0
  195.5080  170.6480  145.7380 S   0  0  0  0  0  0  0  0  0  0  0  0
  189.1800  177.6520  143.7820 C   0  0  0  0  0  1  0  0  0  0  0  0
  188.5100  177.3600  145.1200 C   0  0  1  0  0  3  0  0  0  0  0  0
  187.3610  176.5730  144.8780 O   0  0  0  0  0  0  0  0  0  0  0  0
  186.4970  178.7330  145.6030 C   0  0  0  0  0  1  0  0  0  0  0  0
  186.1740  177.3130  145.1400 C   0  0  0  0  0  0  0  0  0  0  0  0
  185.3000  176.6490  146.2070 C   0  0  0  0  0  1  0  0  0  0  0  0
  185.3540  177.4220  143.8340 C   0  0  1  0  0  3  0  0  0  0  0  0
  183.5890  179.0440  143.7970 O   0  0  0  0  0  1  0  0  0  0  0  0
  184.9320  178.8510  143.4720 C   0  0  0  0  0  2  0  0  0  0  0  0
  185.8800  177.5120  141.5950 C   0  0  0  0  0  1  0  0  0  0  0  0
  185.8800  176.6950  142.7380 O   0  0  0  0  0  0  0  0  0  0  0  0
  1 17  1  0  0  0  0
  1 12  1  0  0  0  0
  2 11  1  0  0  0  0
  2  7  1  0  0  0  0
  3  8  1  0  0  0  0
  4  1  2  0  0  0  0
  6 11  1  0  0  0  0
  6  5  1  1  0  0  0
  8 12  2  0  0  0  0
  8  6  1  0  0  0  0
  9  4  1  0  0  0  0
  9  3  2  0  0  0  0
 10  4  1  0  0  0  0
 12  7  1  0  0  0  0
 13 16  1  0  0  0  0
 14 17  1  0  0  0  0
 15 16  2  0  0  0  0
 16 23  1  0  0  0  0
 17 13  2  0  0  0  0
 18 14  2  0  0  0  0
 18 15  1  0  0  0  0
 19 21  1  0  0  0  0
 20 21  1  0  0  0  0
 21 22  1  0  0  0  0
 21 18  1  0  0  0  0
 23 25  1  0  0  0  0
 25 24  1  0  0  0  0
 27 26  1  6  0  0  0
 27 11  1  0  0  0  0
 28 27  1  0  0  0  0
 28 30  1  0  0  0  0
 30 29  1  0  0  0  0
 30 31  1  0  0  0  0
 32 34  1  6  0  0  0
 32 30  1  0  0  0  0
 34 33  1  0  0  0  0
 35 36  1  0  0  0  0
 36 32  1  0  0  0  0
M  END
>  <MODEL>
2

>  <REMARK>
 VINA RESULT:      -6.8      1.310      2.157
  Name = 
  10 active torsions:
  status: ('A' for Active; 'I' for Inactive)
    1  A    between atoms: C_6  and  C_34
    2  A    between atoms: C_7  and  O_15
    3  A    between atoms: C_7  and  C_29
    4  A    between atoms: C_14  and  C_35
    5  A    between atoms: O_15  and  C_24
    6  A    between atoms: C_17  and  C_29
    7  A    between atoms: S_19  and  S_20
    8  A    between atoms: S_19  and  C_33
    9  A    between atoms: C_24  and  N_30
   10  A    between atoms: C_29  and  O_31
                            x       y       z     vdW  Elec       q    Type
                         _______ _______ _______ _____ _____    ______ ____

>  <TORSDO>
F 10

$$$$
=
 OpenBabel11062422283D

 36 38  0  0  1  0  0  0  0  0999 V2000
  189.8420  175.4160  142.8120 C   0  0  0  0  0  0  0  0  0  0  0  0
  192.7210  176.9260  144.6110 C   0  0  0  0  0  2  0  0  0  0  0  0
  191.9610  173.6710  142.3170 C   0  0  0  0  0  3  0  0  0  0  0  0
  189.6230  174.0790  142.4210 C   0  0  0  0  0  0  0  0  0  0  0  0
  194.1820  176.0640  141.5740 C   0  0  0  0  0  1  0  0  0  0  0  0
  193.6680  175.4320  142.8560 C   0  0  2  0  0  3  0  0  0  0  0  0
  191.5920  177.5660  143.3390 S   0  0  0  0  0  0  0  0  0  0  0  0
  192.2360  174.9850  142.6880 C   0  0  0  0  0  0  0  0  0  0  0  0
  190.6780  173.2530  142.1880 N   0  0  0  0  0  0  0  0  0  0  0  0
  188.3010  173.5590  142.2990 N   0  0  0  0  0  1  0  0  0  0  0  0
  193.9310  176.3310  144.0080 N   0  0  0  0  0  0  0  0  0  0  0  0
  191.1760  175.8750  142.9050 C   0  0  0  0  0  0  0  0  0  0  0  0
  188.0430  176.9990  142.0250 N   0  0  0  0  0  0  0  0  0  0  0  0
  188.1920  176.3900  144.3310 C   0  0  0  0  0  3  0  0  0  0  0  0
  186.4270  177.9270  143.6390 C   0  0  0  0  0  3  0  0  0  0  0  0
  187.0490  178.0430  142.2730 C   0  0  0  0  0  0  0  0  0  0  0  0
  188.6940  176.3050  143.0960 C   0  0  0  0  0  0  0  0  0  0  0  0
  186.9970  177.2090  144.6160 C   0  0  0  0  0  0  0  0  0  0  0  0
  185.9930  178.3940  146.3840 F   0  0  0  0  0  0  0  0  0  0  0  0
  185.1860  176.3500  145.8840 F   0  0  0  0  0  0  0  0  0  0  0  0
  186.3330  177.1230  145.9590 C   0  0  0  0  0  0  0  0  0  0  0  0
  187.1910  176.5490  146.8820 F   0  0  0  0  0  0  0  0  0  0  0  0
  185.7850  178.0630  140.9580 S   0  0  0  0  0  0  0  0  0  0  0  0
  182.9240  178.1930  140.9130 C   0  0  0  0  0  1  0  0  0  0  0  0
  184.1110  178.1610  142.2840 S   0  0  0  0  0  0  0  0  0  0  0  0
  193.8340  175.4900  146.3100 C   0  0  0  0  0  1  0  0  0  0  0  0
  194.6590  175.5620  145.0300 C   0  0  1  0  0  3  0  0  0  0  0  0
  194.9070  174.2410  144.5880 O   0  0  0  0  0  0  0  0  0  0  0  0
  196.7940  173.6570  146.0140 C   0  0  0  0  0  1  0  0  0  0  0  0
  196.3000  173.9550  144.5990 C   0  0  0  0  0  0  0  0  0  0  0  0
  197.1340  175.1090  144.0360 C   0  0  0  0  0  1  0  0  0  0  0  0
  196.5600  172.6980  143.7380 C   0  0  1  0  0  3  0  0  0  0  0  0
  195.3180  172.4740  141.7000 O   0  0  0  0  0  1  0  0  0  0  0  0
  196.5190  172.9500  142.2260 C   0  0  0  0  0  2  0  0  0  0  0  0
  197.4080  170.5620  143.8660 C   0  0  0  0  0  1  0  0  0  0  0  0
  197.6670  171.9140  144.1490 O   0  0  0  0  0  0  0  0  0  0  0  0
  1 12  1  0  0  0  0
  1 17  1  0  0  0  0
  3  8  1  0  0  0  0
  4  1  2  0  0  0  0
  6  5  1  6  0  0  0
  6 11  1  0  0  0  0
  7  2  1  0  0  0  0
  8  6  1  0  0  0  0
  8 12  2  0  0  0  0
  9  3  2  0  0  0  0
  9  4  1  0  0  0  0
 10  4  1  0  0  0  0
 11  2  1  0  0  0  0
 11 27  1  0  0  0  0
 12  7  1  0  0  0  0
 13 16  2  0  0  0  0
 13 17  1  0  0  0  0
 14 18  1  0  0  0  0
 15 18  2  0  0  0  0
 16 15  1  0  0  0  0
 17 14  2  0  0  0  0
 18 21  1  0  0  0  0
 20 21  1  0  0  0  0
 21 19  1  0  0  0  0
 21 22  1  0  0  0  0
 23 16  1  0  0  0  0
 23 25  1  0  0  0  0
 24 25  1  0  0  0  0
 27 26  1  1  0  0  0
 28 30  1  0  0  0  0
 28 27  1  0  0  0  0
 30 29  1  0  0  0  0
 31 30  1  0  0  0  0
 32 34  1  6  0  0  0
 32 36  1  0  0  0  0
 32 30  1  0  0  0  0
 33 34  1  0  0  0  0
 35 36  1  0  0  0  0
M  END
>  <MODEL>
3

>  <REMARK>
 VINA RESULT:      -6.6      4.876      9.217
  Name = 
  10 active torsions:
  status: ('A' for Active; 'I' for Inactive)
    1  A    between atoms: C_6  and  C_34
    2  A    between atoms: C_7  and  O_15
    3  A    between atoms: C_7  and  C_29
    4  A    between atoms: C_14  and  C_35
    5  A    between atoms: O_15  and  C_24
    6  A    between atoms: C_17  and  C_29
    7  A    between atoms: S_19  and  S_20
    8  A    between atoms: S_19  and  C_33
    9  A    between atoms: C_24  and  N_30
   10  A    between atoms: C_29  and  O_31
                            x       y       z     vdW  Elec       q    Type
                         _______ _______ _______ _____ _____    ______ ____

>  <TORSDO>
F 10

$$$$
=
 OpenBabel11062422283D

 36 38  0  0  1  0  0  0  0  0999 V2000
  192.2160  173.4010  144.2270 C   0  0  0  0  0  0  0  0  0  0  0  0
  191.1810  176.7000  145.5870 C   0  0  0  0  0  2  0  0  0  0  0  0
  189.4350  173.2450  144.3850 C   0  0  0  0  0  3  0  0  0  0  0  0
  191.4830  172.4700  143.4610 C   0  0  0  0  0  0  0  0  0  0  0  0
  189.2170  174.5320  147.4680 C   0  0  0  0  0  1  0  0  0  0  0  0
  189.3270  175.1060  146.0660 C   0  0  2  0  0  3  0  0  0  0  0  0
  192.3240  175.4230  146.1910 S   0  0  0  0  0  0  0  0  0  0  0  0
  190.1090  174.1750  145.1730 C   0  0  0  0  0  0  0  0  0  0  0  0
  190.1280  172.4190  143.5610 N   0  0  0  0  0  0  0  0  0  0  0  0
  192.1400  171.5950  142.5470 N   0  0  0  0  0  1  0  0  0  0  0  0
  189.8200  176.5060  146.1260 N   0  0  0  0  0  0  0  0  0  0  0  0
  191.5080  174.2350  145.1220 C   0  0  0  0  0  0  0  0  0  0  0  0
  194.2780  174.4230  143.1940 N   0  0  0  0  0  0  0  0  0  0  0  0
  194.4780  172.7410  144.8810 C   0  0  0  0  0  3  0  0  0  0  0  0
  196.5150  173.6850  143.9240 C   0  0  0  0  0  3  0  0  0  0  0  0
  195.7050  174.3940  142.8710 C   0  0  0  0  0  0  0  0  0  0  0  0
  193.6880  173.4770  144.0940 C   0  0  0  0  0  0  0  0  0  0  0  0
  195.9480  172.8640  144.8170 C   0  0  0  0  0  0  0  0  0  0  0  0
  197.9410  171.6870  145.2450 F   0  0  0  0  0  0  0  0  0  0  0  0
  197.1700  173.0800  146.8390 F   0  0  0  0  0  0  0  0  0  0  0  0
  196.8010  172.1850  145.8490 C   0  0  0  0  0  0  0  0  0  0  0  0
  196.1050  171.1410  146.4350 F   0  0  0  0  0  0  0  0  0  0  0  0
  196.3340  176.0780  142.5590 S   0  0  0  0  0  0  0  0  0  0  0  0
  195.5900  174.9710  140.0230 C   0  0  0  0  0  1  0  0  0  0  0  0
  197.1630  175.6330  140.6380 S   0  0  0  0  0  0  0  0  0  0  0  0
  189.4840  177.7670  144.0490 C   0  0  0  0  0  1  0  0  0  0  0  0
  188.8750  177.3550  145.3850 C   0  0  1  0  0  3  0  0  0  0  0  0
  187.6680  176.6640  145.1270 O   0  0  0  0  0  0  0  0  0  0  0  0
  186.9600  178.2410  146.8440 C   0  0  0  0  0  1  0  0  0  0  0  0
  186.5530  177.3740  145.6540 C   0  0  0  0  0  0  0  0  0  0  0  0
  185.4310  176.4380  146.1070 C   0  0  0  0  0  1  0  0  0  0  0  0
  185.9960  178.3130  144.5600 C   0  0  1  0  0  3  0  0  0  0  0  0
  186.3520  177.2950  142.4190 O   0  0  0  0  0  1  0  0  0  0  0  0
  185.3680  177.5860  143.3640 C   0  0  0  0  0  2  0  0  0  0  0  0
  183.9620  179.3780  144.3940 C   0  0  0  0  0  1  0  0  0  0  0  0
  185.2080  179.3880  145.0430 O   0  0  0  0  0  0  0  0  0  0  0  0
  1 12  1  0  0  0  0
  2 11  1  0  0  0  0
  2  7  1  0  0  0  0
  3  8  1  0  0  0  0
  4  9  1  0  0  0  0
  4  1  2  0  0  0  0
  6 11  1  0  0  0  0
  6  5  1  1  0  0  0
  8  6  1  0  0  0  0
  9  3  2  0  0  0  0
 10  4  1  0  0  0  0
 12  8  2  0  0  0  0
 12  7  1  0  0  0  0
 13 17  1  0  0  0  0
 15 18  2  0  0  0  0
 16 13  2  0  0  0  0
 16 15  1  0  0  0  0
 17  1  1  0  0  0  0
 17 14  2  0  0  0  0
 18 14  1  0  0  0  0
 18 21  1  0  0  0  0
 19 21  1  0  0  0  0
 21 22  1  0  0  0  0
 21 20  1  0  0  0  0
 23 16  1  0  0  0  0
 24 25  1  0  0  0  0
 25 23  1  0  0  0  0
 27 26  1  6  0  0  0
 27 11  1  0  0  0  0
 28 27  1  0  0  0  0
 28 30  1  0  0  0  0
 30 31  1  0  0  0  0
 30 29  1  0  0  0  0
 32 34  1  6  0  0  0
 32 36  1  0  0  0  0
 32 30  1  0  0  0  0
 33 34  1  0  0  0  0
 35 36  1  0  0  0  0
M  END
>  <MODEL>
4

>  <REMARK>
 VINA RESULT:      -6.4      2.596      3.453
  Name = 
  10 active torsions:
  status: ('A' for Active; 'I' for Inactive)
    1  A    between atoms: C_6  and  C_34
    2  A    between atoms: C_7  and  O_15
    3  A    between atoms: C_7  and  C_29
    4  A    between atoms: C_14  and  C_35
    5  A    between atoms: O_15  and  C_24
    6  A    between atoms: C_17  and  C_29
    7  A    between atoms: S_19  and  S_20
    8  A    between atoms: S_19  and  C_33
    9  A    between atoms: C_24  and  N_30
   10  A    between atoms: C_29  and  O_31
                            x       y       z     vdW  Elec       q    Type
                         _______ _______ _______ _____ _____    ______ ____

>  <TORSDO>
F 10

$$$$
=
 OpenBabel11062422283D

 36 38  0  0  1  0  0  0  0  0999 V2000
  190.6450  175.0080  142.4970 C   0  0  0  0  0  0  0  0  0  0  0  0
  188.6790  172.8070  140.2400 C   0  0  0  0  0  2  0  0  0  0  0  0
  192.5510  173.3500  141.3130 C   0  0  0  0  0  3  0  0  0  0  0  0
  192.0080  175.3670  142.4440 C   0  0  0  0  0  0  0  0  0  0  0  0
  190.8220  170.5160  141.7440 C   0  0  0  0  0  1  0  0  0  0  0  0
  190.8240  171.6300  140.7110 C   0  0  2  0  0  3  0  0  0  0  0  0
  188.5740  173.1520  142.0210 S   0  0  0  0  0  0  0  0  0  0  0  0
  191.2200  172.9390  141.3470 C   0  0  0  0  0  0  0  0  0  0  0  0
  192.9130  174.5370  141.8600 N   0  0  0  0  0  0  0  0  0  0  0  0
  192.4570  176.6160  142.9670 N   0  0  0  0  0  1  0  0  0  0  0  0
  189.5390  171.6370  139.9670 N   0  0  0  0  0  0  0  0  0  0  0  0
  190.2650  173.7530  141.9700 C   0  0  0  0  0  0  0  0  0  0  0  0
  188.9110  176.8260  142.2770 N   0  0  0  0  0  0  0  0  0  0  0  0
  189.3810  175.8560  144.4100 C   0  0  0  0  0  3  0  0  0  0  0  0
  187.6920  177.6120  144.2710 C   0  0  0  0  0  3  0  0  0  0  0  0
  188.0850  177.8910  142.8440 C   0  0  0  0  0  0  0  0  0  0  0  0
  189.6580  175.9270  143.1050 C   0  0  0  0  0  0  0  0  0  0  0  0
  188.3400  176.7100  145.0180 C   0  0  0  0  0  0  0  0  0  0  0  0
  188.4240  175.2600  146.8710 F   0  0  0  0  0  0  0  0  0  0  0  0
  188.3590  177.4780  147.2620 F   0  0  0  0  0  0  0  0  0  0  0  0
  187.9050  176.4650  146.4340 C   0  0  0  0  0  0  0  0  0  0  0  0
  186.5230  176.4200  146.5090 F   0  0  0  0  0  0  0  0  0  0  0  0
  186.6270  178.2120  141.7960 S   0  0  0  0  0  0  0  0  0  0  0  0
  183.8520  178.2930  142.5030 C   0  0  0  0  0  1  0  0  0  0  0  0
  185.3440  178.7990  143.4020 S   0  0  0  0  0  0  0  0  0  0  0  0
  189.6890  170.1500  138.0220 C   0  0  0  0  0  1  0  0  0  0  0  0
  189.8430  171.5800  138.5290 C   0  0  1  0  0  3  0  0  0  0  0  0
  188.9650  172.4080  137.7920 O   0  0  0  0  0  0  0  0  0  0  0  0
  189.8240  172.6060  135.5210 C   0  0  0  0  0  1  0  0  0  0  0  0
  189.6870  173.2480  136.9000 C   0  0  0  0  0  0  0  0  0  0  0  0
  191.0920  173.5720  137.4170 C   0  0  0  0  0  1  0  0  0  0  0  0
  188.9130  174.5750  136.7240 C   0  0  1  0  0  3  0  0  0  0  0  0
  189.8300  176.0570  135.0790 O   0  0  0  0  0  1  0  0  0  0  0  0
  188.8520  175.0830  135.2790 C   0  0  0  0  0  2  0  0  0  0  0  0
  187.0670  175.8780  137.1600 C   0  0  0  0  0  1  0  0  0  0  0  0
  187.6650  174.6290  137.3940 O   0  0  0  0  0  0  0  0  0  0  0  0
  1 17  1  0  0  0  0
  2  7  1  0  0  0  0
  3  8  2  0  0  0  0
  3  9  1  0  0  0  0
  4  1  1  0  0  0  0
  4 10  1  0  0  0  0
  6  8  1  0  0  0  0
  6  5  1  1  0  0  0
  8 12  1  0  0  0  0
  9  4  2  0  0  0  0
 11  2  1  0  0  0  0
 11  6  1  0  0  0  0
 12  7  1  0  0  0  0
 12  1  2  0  0  0  0
 13 16  2  0  0  0  0
 13 17  1  0  0  0  0
 14 18  1  0  0  0  0
 15 18  2  0  0  0  0
 16 15  1  0  0  0  0
 17 14  2  0  0  0  0
 18 21  1  0  0  0  0
 21 22  1  0  0  0  0
 21 19  1  0  0  0  0
 21 20  1  0  0  0  0
 23 16  1  0  0  0  0
 23 25  1  0  0  0  0
 24 25  1  0  0  0  0
 27 26  1  6  0  0  0
 27 11  1  0  0  0  0
 28 27  1  0  0  0  0
 29 30  1  0  0  0  0
 30 31  1  0  0  0  0
 30 28  1  0  0  0  0
 32 34  1  6  0  0  0
 32 30  1  0  0  0  0
 32 36  1  0  0  0  0
 33 34  1  0  0  0  0
 35 36  1  0  0  0  0
M  END
>  <MODEL>
5

>  <REMARK>
 VINA RESULT:      -6.3      5.349      8.017
  Name = 
  10 active torsions:
  status: ('A' for Active; 'I' for Inactive)
    1  A    between atoms: C_6  and  C_34
    2  A    between atoms: C_7  and  O_15
    3  A    between atoms: C_7  and  C_29
    4  A    between atoms: C_14  and  C_35
    5  A    between atoms: O_15  and  C_24
    6  A    between atoms: C_17  and  C_29
    7  A    between atoms: S_19  and  S_20
    8  A    between atoms: S_19  and  C_33
    9  A    between atoms: C_24  and  N_30
   10  A    between atoms: C_29  and  O_31
                            x       y       z     vdW  Elec       q    Type
                         _______ _______ _______ _____ _____    ______ ____

>  <TORSDO>
F 10

$$$$
=
 OpenBabel11062422283D

 36 38  0  0  1  0  0  0  0  0999 V2000
  190.1210  176.0680  143.1200 C   0  0  0  0  0  0  0  0  0  0  0  0
  189.2530  172.9220  141.3450 C   0  0  0  0  0  2  0  0  0  0  0  0
  192.5620  174.7550  142.8030 C   0  0  0  0  0  3  0  0  0  0  0  0
  191.3470  176.7630  143.1790 C   0  0  0  0  0  0  0  0  0  0  0  0
  191.4420  171.7570  143.7840 C   0  0  0  0  0  1  0  0  0  0  0  0
  191.4380  172.5340  142.4800 C   0  0  2  0  0  3  0  0  0  0  0  0
  188.6700  173.6580  142.9010 S   0  0  0  0  0  0  0  0  0  0  0  0
  191.3810  174.0180  142.7480 C   0  0  0  0  0  0  0  0  0  0  0  0
  192.5200  176.0940  143.0200 N   0  0  0  0  0  0  0  0  0  0  0  0
  191.3800  178.1760  143.3680 N   0  0  0  0  0  1  0  0  0  0  0  0
  190.3870  172.0030  141.5740 N   0  0  0  0  0  0  0  0  0  0  0  0
  190.1550  174.6670  142.9400 C   0  0  0  0  0  0  0  0  0  0  0  0
  188.1710  177.3000  142.0980 N   0  0  0  0  0  0  0  0  0  0  0  0
  188.2580  176.9200  144.4560 C   0  0  0  0  0  3  0  0  0  0  0  0
  186.3430  178.1190  143.5360 C   0  0  0  0  0  3  0  0  0  0  0  0
  187.0270  178.2060  142.1970 C   0  0  0  0  0  0  0  0  0  0  0  0
  188.8440  176.8020  143.2610 C   0  0  0  0  0  0  0  0  0  0  0  0
  186.9450  177.5780  144.6030 C   0  0  0  0  0  0  0  0  0  0  0  0
  186.4700  178.6630  146.6370 F   0  0  0  0  0  0  0  0  0  0  0  0
  184.8510  177.4020  145.7050 F   0  0  0  0  0  0  0  0  0  0  0  0
  186.2160  177.5120  145.9140 C   0  0  0  0  0  0  0  0  0  0  0  0
  186.6400  176.4140  146.6420 F   0  0  0  0  0  0  0  0  0  0  0  0
  185.8580  177.9300  140.8250 S   0  0  0  0  0  0  0  0  0  0  0  0
  183.0320  178.2810  140.5110 C   0  0  0  0  0  1  0  0  0  0  0  0
  184.0960  178.2900  141.9810 S   0  0  0  0  0  0  0  0  0  0  0  0
  191.2980  170.1780  140.2120 C   0  0  0  0  0  1  0  0  0  0  0  0
  191.0180  171.6750  140.2860 C   0  0  1  0  0  3  0  0  0  0  0  0
  190.1730  172.0210  139.2060 O   0  0  0  0  0  0  0  0  0  0  0  0
  191.4490  171.9130  137.1330 C   0  0  0  0  0  1  0  0  0  0  0  0
  190.8740  172.7950  138.2400 C   0  0  0  0  0  0  0  0  0  0  0  0
  192.0240  173.5930  138.8600 C   0  0  0  0  0  1  0  0  0  0  0  0
  189.8890  173.7880  137.5830 C   0  0  1  0  0  3  0  0  0  0  0  0
  190.9620  175.2250  135.9920 O   0  0  0  0  0  1  0  0  0  0  0  0
  190.1770  174.0780  136.1050 C   0  0  0  0  0  2  0  0  0  0  0  0
  187.8180  174.7510  137.8730 C   0  0  0  0  0  1  0  0  0  0  0  0
  188.5210  173.5340  137.8510 O   0  0  0  0  0  0  0  0  0  0  0  0
  1  4  1  0  0  0  0
  1 17  1  0  0  0  0
  2 11  1  0  0  0  0
  2  7  1  0  0  0  0
  3  9  1  0  0  0  0
  4 10  1  0  0  0  0
  6  8  1  0  0  0  0
  6  5  1  1  0  0  0
  7 12  1  0  0  0  0
  8  3  2  0  0  0  0
  8 12  1  0  0  0  0
  9  4  2  0  0  0  0
 11  6  1  0  0  0  0
 12  1  2  0  0  0  0
 13 16  2  0  0  0  0
 13 17  1  0  0  0  0
 14 18  1  0  0  0  0
 15 18  2  0  0  0  0
 16 15  1  0  0  0  0
 17 14  2  0  0  0  0
 18 21  1  0  0  0  0
 20 21  1  0  0  0  0
 21 19  1  0  0  0  0
 21 22  1  0  0  0  0
 23 25  1  0  0  0  0
 23 16  1  0  0  0  0
 24 25  1  0  0  0  0
 27 26  1  1  0  0  0
 27 11  1  0  0  0  0
 28 27  1  0  0  0  0
 29 30  1  0  0  0  0
 30 31  1  0  0  0  0
 30 28  1  0  0  0  0
 32 34  1  6  0  0  0
 32 36  1  0  0  0  0
 32 30  1  0  0  0  0
 33 34  1  0  0  0  0
 36 35  1  0  0  0  0
M  END
>  <MODEL>
6

>  <REMARK>
 VINA RESULT:      -6.2      5.256      8.375
  Name = 
  10 active torsions:
  status: ('A' for Active; 'I' for Inactive)
    1  A    between atoms: C_6  and  C_34
    2  A    between atoms: C_7  and  O_15
    3  A    between atoms: C_7  and  C_29
    4  A    between atoms: C_14  and  C_35
    5  A    between atoms: O_15  and  C_24
    6  A    between atoms: C_17  and  C_29
    7  A    between atoms: S_19  and  S_20
    8  A    between atoms: S_19  and  C_33
    9  A    between atoms: C_24  and  N_30
   10  A    between atoms: C_29  and  O_31
                            x       y       z     vdW  Elec       q    Type
                         _______ _______ _______ _____ _____    ______ ____

>  <TORSDO>
F 10

$$$$
=
 OpenBabel11062422283D

 36 38  0  0  1  0  0  0  0  0999 V2000
  189.8810  175.6470  142.6530 C   0  0  0  0  0  0  0  0  0  0  0  0
  188.4570  173.2270  140.2210 C   0  0  0  0  0  2  0  0  0  0  0  0
  192.0800  174.1700  141.7760 C   0  0  0  0  0  3  0  0  0  0  0  0
  191.1980  176.1400  142.7700 C   0  0  0  0  0  0  0  0  0  0  0  0
  190.5930  171.1840  142.0560 C   0  0  0  0  0  1  0  0  0  0  0  0
  190.6250  172.2770  141.0020 C   0  0  2  0  0  3  0  0  0  0  0  0
  188.0820  173.5860  141.9620 S   0  0  0  0  0  0  0  0  0  0  0  0
  190.8030  173.6290  141.6470 C   0  0  0  0  0  0  0  0  0  0  0  0
  192.2480  175.3960  142.3330 N   0  0  0  0  0  0  0  0  0  0  0  0
  191.4490  177.4350  143.3120 N   0  0  0  0  0  1  0  0  0  0  0  0
  189.4550  172.1450  140.0960 N   0  0  0  0  0  0  0  0  0  0  0  0
  189.6990  174.3520  142.1160 C   0  0  0  0  0  0  0  0  0  0  0  0
  187.9770  177.2220  142.1450 N   0  0  0  0  0  0  0  0  0  0  0  0
  188.3400  176.4440  144.3760 C   0  0  0  0  0  3  0  0  0  0  0  0
  186.4800  177.9670  143.9570 C   0  0  0  0  0  3  0  0  0  0  0  0
  186.9790  178.2080  142.5570 C   0  0  0  0  0  0  0  0  0  0  0  0
  188.7370  176.4710  143.1010 C   0  0  0  0  0  0  0  0  0  0  0  0
  187.1510  177.1970  144.8230 C   0  0  0  0  0  0  0  0  0  0  0  0
  187.3750  176.0390  146.8600 F   0  0  0  0  0  0  0  0  0  0  0  0
  186.6380  178.1670  146.9260 F   0  0  0  0  0  0  0  0  0  0  0  0
  186.6070  176.9850  146.2060 C   0  0  0  0  0  0  0  0  0  0  0  0
  185.2960  176.5410  146.1420 F   0  0  0  0  0  0  0  0  0  0  0  0
  185.6070  178.2840  141.3570 S   0  0  0  0  0  0  0  0  0  0  0  0
  182.7490  178.2900  141.5620 C   0  0  0  0  0  1  0  0  0  0  0  0
  184.0520  178.2930  142.8240 S   0  0  0  0  0  0  0  0  0  0  0  0
  190.0880  173.5120  138.1600 C   0  0  0  0  0  1  0  0  0  0  0  0
  189.9530  172.0970  138.7120 C   0  0  1  0  0  3  0  0  0  0  0  0
  191.2220  171.4750  138.6520 O   0  0  0  0  0  0  0  0  0  0  0  0
  189.7040  169.8980  137.5810 C   0  0  0  0  0  1  0  0  0  0  0  0
  191.1420  170.2190  137.9890 C   0  0  0  0  0  0  0  0  0  0  0  0
  191.6590  169.0700  138.8580 C   0  0  0  0  0  1  0  0  0  0  0  0
  191.9920  170.2780  136.6990 C   0  0  1  0  0  3  0  0  0  0  0  0
  191.1160  171.3070  134.7200 O   0  0  0  0  0  1  0  0  0  0  0  0
  191.1890  170.0950  135.4060 C   0  0  0  0  0  2  0  0  0  0  0  0
  194.2180  170.8400  136.5320 C   0  0  0  0  0  1  0  0  0  0  0  0
  192.9140  171.3530  136.6430 O   0  0  0  0  0  0  0  0  0  0  0  0
  1  4  1  0  0  0  0
  1 17  1  0  0  0  0
  2  7  1  0  0  0  0
  3  9  1  0  0  0  0
  4 10  1  0  0  0  0
  6  8  1  0  0  0  0
  6  5  1  1  0  0  0
  7 12  1  0  0  0  0
  8  3  2  0  0  0  0
  8 12  1  0  0  0  0
  9  4  2  0  0  0  0
 11  2  1  0  0  0  0
 11  6  1  0  0  0  0
 12  1  2  0  0  0  0
 13 16  2  0  0  0  0
 13 17  1  0  0  0  0
 14 18  1  0  0  0  0
 15 18  2  0  0  0  0
 16 15  1  0  0  0  0
 17 14  2  0  0  0  0
 18 21  1  0  0  0  0
 21 19  1  0  0  0  0
 21 20  1  0  0  0  0
 22 21  1  0  0  0  0
 23 16  1  0  0  0  0
 23 25  1  0  0  0  0
 24 25  1  0  0  0  0
 27 26  1  1  0  0  0
 27 11  1  0  0  0  0
 28 27  1  0  0  0  0
 29 30  1  0  0  0  0
 30 28  1  0  0  0  0
 30 31  1  0  0  0  0
 32 34  1  6  0  0  0
 32 30  1  0  0  0  0
 33 34  1  0  0  0  0
 35 36  1  0  0  0  0
 36 32  1  0  0  0  0
M  END
>  <MODEL>
7

>  <REMARK>
 VINA RESULT:      -6.1      6.073      9.274
  Name = 
  10 active torsions:
  status: ('A' for Active; 'I' for Inactive)
    1  A    between atoms: C_6  and  C_34
    2  A    between atoms: C_7  and  O_15
    3  A    between atoms: C_7  and  C_29
    4  A    between atoms: C_14  and  C_35
    5  A    between atoms: O_15  and  C_24
    6  A    between atoms: C_17  and  C_29
    7  A    between atoms: S_19  and  S_20
    8  A    between atoms: S_19  and  C_33
    9  A    between atoms: C_24  and  N_30
   10  A    between atoms: C_29  and  O_31
                            x       y       z     vdW  Elec       q    Type
                         _______ _______ _______ _____ _____    ______ ____

>  <TORSDO>
F 10

$$$$
=
 OpenBabel11062422283D

 36 38  0  0  1  0  0  0  0  0999 V2000
  190.7200  174.7370  142.6260 C   0  0  0  0  0  0  0  0  0  0  0  0
  194.0630  175.9620  143.6890 C   0  0  0  0  0  2  0  0  0  0  0  0
  192.5230  173.0650  141.3090 C   0  0  0  0  0  3  0  0  0  0  0  0
  190.3360  173.4680  142.1440 C   0  0  0  0  0  0  0  0  0  0  0  0
  194.5430  175.5250  140.2720 C   0  0  0  0  0  1  0  0  0  0  0  0
  194.3920  174.7230  141.5530 C   0  0  2  0  0  3  0  0  0  0  0  0
  192.6460  176.7810  142.8990 S   0  0  0  0  0  0  0  0  0  0  0  0
  192.9540  174.3120  141.7540 C   0  0  0  0  0  0  0  0  0  0  0  0
  191.2390  172.6770  141.5060 N   0  0  0  0  0  0  0  0  0  0  0  0
  189.0120  172.9780  142.3460 N   0  0  0  0  0  1  0  0  0  0  0  0
  195.0190  175.4510  142.6860 N   0  0  0  0  0  0  0  0  0  0  0  0
  192.0440  175.1690  142.3860 C   0  0  0  0  0  0  0  0  0  0  0  0
  188.8370  176.4150  142.6150 N   0  0  0  0  0  0  0  0  0  0  0  0
  189.6340  175.5080  144.6770 C   0  0  0  0  0  3  0  0  0  0  0  0
  187.8100  177.1280  144.7400 C   0  0  0  0  0  3  0  0  0  0  0  0
  188.0060  177.4200  143.2760 C   0  0  0  0  0  0  0  0  0  0  0  0
  189.7450  175.5840  143.3480 C   0  0  0  0  0  0  0  0  0  0  0  0
  188.6120  176.2860  145.4050 C   0  0  0  0  0  0  0  0  0  0  0  0
  189.1640  176.8720  147.6170 F   0  0  0  0  0  0  0  0  0  0  0  0
  187.0420  176.2490  147.1830 F   0  0  0  0  0  0  0  0  0  0  0  0
  188.3710  176.0260  146.8640 C   0  0  0  0  0  0  0  0  0  0  0  0
  188.6840  174.7130  147.1740 F   0  0  0  0  0  0  0  0  0  0  0  0
  186.4110  177.6160  142.4100 S   0  0  0  0  0  0  0  0  0  0  0  0
  185.3720  179.7900  143.9600 C   0  0  0  0  0  1  0  0  0  0  0  0
  185.2650  177.9920  144.1750 S   0  0  0  0  0  0  0  0  0  0  0  0
  197.2750  175.2800  143.6330 C   0  0  0  0  0  1  0  0  0  0  0  0
  195.9730  174.5420  143.3400 C   0  0  1  0  0  3  0  0  0  0  0  0
  195.4540  174.0570  144.5630 O   0  0  0  0  0  0  0  0  0  0  0  0
  196.8830  172.4280  145.6770 C   0  0  0  0  0  1  0  0  0  0  0  0
  195.7210  172.6680  144.7140 C   0  0  0  0  0  0  0  0  0  0  0  0
  196.0600  171.9950  143.3810 C   0  0  0  0  0  1  0  0  0  0  0  0
  194.4710  171.9790  145.3070 C   0  0  1  0  0  3  0  0  0  0  0  0
  192.1700  171.9220  144.6390 O   0  0  0  0  0  1  0  0  0  0  0  0
  193.1690  172.7670  145.1220 C   0  0  0  0  0  2  0  0  0  0  0  0
  194.5670  169.8410  146.1540 C   0  0  0  0  0  1  0  0  0  0  0  0
  194.3460  170.6020  144.9940 O   0  0  0  0  0  0  0  0  0  0  0  0
  1 17  1  0  0  0  0
  3  9  2  0  0  0  0
  3  8  1  0  0  0  0
  4 10  1  0  0  0  0
  4  1  2  0  0  0  0
  6  5  1  6  0  0  0
  6  8  1  0  0  0  0
  6 11  1  0  0  0  0
  7  2  1  0  0  0  0
  8 12  2  0  0  0  0
  9  4  1  0  0  0  0
 11 27  1  0  0  0  0
 11  2  1  0  0  0  0
 12  1  1  0  0  0  0
 12  7  1  0  0  0  0
 13 16  2  0  0  0  0
 13 17  1  0  0  0  0
 14 18  1  0  0  0  0
 15 18  2  0  0  0  0
 16 15  1  0  0  0  0
 17 14  2  0  0  0  0
 18 21  1  0  0  0  0
 21 22  1  0  0  0  0
 21 20  1  0  0  0  0
 21 19  1  0  0  0  0
 23 16  1  0  0  0  0
 23 25  1  0  0  0  0
 24 25  1  0  0  0  0
 27 26  1  1  0  0  0
 27 28  1  0  0  0  0
 28 30  1  0  0  0  0
 30 32  1  0  0  0  0
 30 29  1  0  0  0  0
 31 30  1  0  0  0  0
 32 34  1  6  0  0  0
 33 34  1  0  0  0  0
 36 32  1  0  0  0  0
 36 35  1  0  0  0  0
M  END
>  <MODEL>
8

>  <REMARK>
 VINA RESULT:      -6.1      4.408      8.697
  Name = 
  10 active torsions:
  status: ('A' for Active; 'I' for Inactive)
    1  A    between atoms: C_6  and  C_34
    2  A    between atoms: C_7  and  O_15
    3  A    between atoms: C_7  and  C_29
    4  A    between atoms: C_14  and  C_35
    5  A    between atoms: O_15  and  C_24
    6  A    between atoms: C_17  and  C_29
    7  A    between atoms: S_19  and  S_20
    8  A    between atoms: S_19  and  C_33
    9  A    between atoms: C_24  and  N_30
   10  A    between atoms: C_29  and  O_31
                            x       y       z     vdW  Elec       q    Type
                         _______ _______ _______ _____ _____    ______ ____

>  <TORSDO>
F 10

$$$$
=
 OpenBabel11062422283D

 36 38  0  0  1  0  0  0  0  0999 V2000
  190.2240  176.2420  145.8250 C   0  0  0  0  0  0  0  0  0  0  0  0
  191.5240  175.0820  142.5440 C   0  0  0  0  0  2  0  0  0  0  0  0
  192.6760  175.0580  146.4300 C   0  0  0  0  0  3  0  0  0  0  0  0
  190.9180  176.5460  147.0150 C   0  0  0  0  0  0  0  0  0  0  0  0
  192.1840  172.3260  144.5600 C   0  0  0  0  0  1  0  0  0  0  0  0
  192.6780  173.7370  144.2950 C   0  0  2  0  0  3  0  0  0  0  0  0
  189.9740  174.7620  143.4360 S   0  0  0  0  0  0  0  0  0  0  0  0
  192.0280  174.7120  145.2470 C   0  0  0  0  0  0  0  0  0  0  0  0
  192.1120  175.9510  147.2810 N   0  0  0  0  0  0  0  0  0  0  0  0
  190.4040  177.5020  147.9390 N   0  0  0  0  0  1  0  0  0  0  0  0
  192.5450  174.0610  142.8520 N   0  0  0  0  0  0  0  0  0  0  0  0
  190.7810  175.2780  144.9540 C   0  0  0  0  0  0  0  0  0  0  0  0
  188.6960  177.4340  144.2110 N   0  0  0  0  0  0  0  0  0  0  0  0
  187.9630  176.9480  146.4330 C   0  0  0  0  0  3  0  0  0  0  0  0
  186.4330  178.1050  144.9250 C   0  0  0  0  0  3  0  0  0  0  0  0
  187.5410  178.2840  143.9210 C   0  0  0  0  0  0  0  0  0  0  0  0
  188.9400  176.9120  145.5230 C   0  0  0  0  0  0  0  0  0  0  0  0
  186.6470  177.5410  146.1200 C   0  0  0  0  0  0  0  0  0  0  0  0
  184.5330  176.5830  146.5100 F   0  0  0  0  0  0  0  0  0  0  0  0
  185.9410  176.7920  148.2570 F   0  0  0  0  0  0  0  0  0  0  0  0
  185.5060  177.3820  147.0830 C   0  0  0  0  0  0  0  0  0  0  0  0
  184.9600  178.6180  147.3860 F   0  0  0  0  0  0  0  0  0  0  0  0
  186.9520  178.0210  142.2140 S   0  0  0  0  0  0  0  0  0  0  0  0
  184.3730  178.2900  140.9970 C   0  0  0  0  0  1  0  0  0  0  0  0
  184.8740  177.9980  142.7160 S   0  0  0  0  0  0  0  0  0  0  0  0
  193.9100  174.4150  140.8450 C   0  0  0  0  0  1  0  0  0  0  0  0
  193.8560  174.5190  142.3650 C   0  0  1  0  0  3  0  0  0  0  0  0
  194.0880  175.8660  142.7260 O   0  0  0  0  0  0  0  0  0  0  0  0
  195.3320  176.7910  144.6050 C   0  0  0  0  0  1  0  0  0  0  0  0
  195.3870  176.0270  143.2830 C   0  0  0  0  0  0  0  0  0  0  0  0
  196.3350  176.7720  142.3400 C   0  0  0  0  0  1  0  0  0  0  0  0
  195.9830  174.6310  143.5740 C   0  0  1  0  0  3  0  0  0  0  0  0
  197.0760  173.2730  141.9290 O   0  0  0  0  0  1  0  0  0  0  0  0
  197.2820  174.3290  142.8170 C   0  0  0  0  0  2  0  0  0  0  0  0
  196.0330  172.8800  145.0680 C   0  0  0  0  0  1  0  0  0  0  0  0
  196.0360  174.2800  144.9460 O   0  0  0  0  0  0  0  0  0  0  0  0
  1  4  1  0  0  0  0
  2 11  1  0  0  0  0
  2  7  1  0  0  0  0
  3  9  1  0  0  0  0
  4  9  2  0  0  0  0
  4 10  1  0  0  0  0
  6  5  1  6  0  0  0
  6  8  1  0  0  0  0
  7 12  1  0  0  0  0
  8  3  2  0  0  0  0
 11  6  1  0  0  0  0
 12  8  1  0  0  0  0
 12  1  2  0  0  0  0
 13 17  1  0  0  0  0
 15 18  2  0  0  0  0
 16 13  2  0  0  0  0
 16 15  1  0  0  0  0
 17  1  1  0  0  0  0
 17 14  2  0  0  0  0
 18 14  1  0  0  0  0
 18 21  1  0  0  0  0
 19 21  1  0  0  0  0
 21 22  1  0  0  0  0
 21 20  1  0  0  0  0
 23 25  1  0  0  0  0
 23 16  1  0  0  0  0
 24 25  1  0  0  0  0
 27 26  1  6  0  0  0
 27 28  1  0  0  0  0
 27 11  1  0  0  0  0
 28 30  1  0  0  0  0
 30 32  1  0  0  0  0
 30 29  1  0  0  0  0
 31 30  1  0  0  0  0
 32 34  1  1  0  0  0
 32 36  1  0  0  0  0
 33 34  1  0  0  0  0
 36 35  1  0  0  0  0
M  END
>  <MODEL>
9

>  <REMARK>
 VINA RESULT:      -6.1      4.912      8.974
  Name = 
  10 active torsions:
  status: ('A' for Active; 'I' for Inactive)
    1  A    between atoms: C_6  and  C_34
    2  A    between atoms: C_7  and  O_15
    3  A    between atoms: C_7  and  C_29
    4  A    between atoms: C_14  and  C_35
    5  A    between atoms: O_15  and  C_24
    6  A    between atoms: C_17  and  C_29
    7  A    between atoms: S_19  and  S_20
    8  A    between atoms: S_19  and  C_33
    9  A    between atoms: C_24  and  N_30
   10  A    between atoms: C_29  and  O_31
                            x       y       z     vdW  Elec       q    Type
                         _______ _______ _______ _____ _____    ______ ____

>  <TORSDO>
F 10

$$$$
