=
 OpenBabel11072409133D

 39 44  0  0  1  0  0  0  0  0999 V2000
  190.0660  177.4990  146.1490 O   0  0  0  0  0  0  0  0  0  0  0  0
  192.8240  176.3300  146.6590 C   0  0  0  0  0  1  0  0  0  0  0  0
  192.8400  174.4400  144.8990 C   0  0  1  0  0  0  0  0  0  0  0  0
  192.7490  175.7130  144.0500 C   0  0  1  0  0  3  0  0  0  0  0  0
  189.7280  176.3240  145.8450 C   0  0  0  0  0  0  0  0  0  0  0  0
  190.4510  173.9770  145.1540 C   0  0  0  0  0  3  0  0  0  0  0  0
  192.1530  175.6680  145.4570 C   0  0  2  0  0  0  0  0  0  0  0  0
  193.9580  176.4130  144.0500 O   0  0  0  0  0  1  0  0  0  0  0  0
  190.7400  175.3450  145.5450 N   0  0  0  0  0  0  0  0  0  0  0  0
  191.7680  173.3780  144.6810 C   0  0  0  0  0  3  0  0  0  0  0  0
  185.3020  177.4000  143.6530 C   0  0  1  0  0  3  0  0  0  0  0  0
  187.8730  176.1970  143.2770 C   0  0  0  0  0  2  0  0  0  0  0  0
  187.5470  176.7800  144.6460 C   0  0  2  0  0  3  0  0  0  0  0  0
  185.5990  177.3840  146.1980 C   0  0  0  0  0  2  0  0  0  0  0  0
  185.6800  176.7940  142.4290 O   0  0  0  0  0  0  0  0  0  0  0  0
  186.7230  177.4050  147.2420 C   0  0  0  0  0  2  0  0  0  0  0  0
  187.5920  176.1520  147.1470 C   0  0  0  0  0  2  0  0  0  0  0  0
  188.2610  176.0110  145.7690 C   0  0  2  0  0  3  0  0  0  0  0  0
  187.0700  176.9560  142.2220 C   0  0  0  0  0  2  0  0  0  0  0  0
  186.0290  176.7710  144.8550 C   0  0  1  0  0  3  0  0  0  0  0  0
  184.3630  179.6460  144.2320 O   0  0  0  0  0  1  0  0  0  0  0  0
  186.2490  179.4970  142.9400 O   0  0  0  0  0  0  0  0  0  0  0  0
  185.3460  178.9060  143.5900 C   0  0  0  0  0  0  0  0  0  0  0  0
  194.1900  174.0450  145.5110 C   0  0  0  0  0  2  0  0  0  0  0  0
  197.6490  172.9170  140.0220 C   0  0  0  0  0  3  0  0  0  0  0  0
  197.0050  173.7530  140.9520 C   0  0  0  0  0  0  0  0  0  0  0  0
  195.7230  173.7010  143.0580 N   0  0  0  0  0  0  0  0  0  0  0  0
  197.6630  171.5190  140.2260 C   0  0  0  0  0  3  0  0  0  0  0  0
  194.1860  171.5530  145.7390 C   0  0  0  0  0  1  0  0  0  0  0  0
  194.6190  172.7410  145.0250 N   0  0  0  0  0  0  0  0  0  0  0  0
  195.3750  172.6220  143.8120 C   0  0  0  0  0  0  0  0  0  0  0  0
  197.0560  170.9690  141.3230 N   0  0  0  0  0  0  0  0  0  0  0  0
  196.4030  173.1370  142.0480 C   0  0  0  0  0  0  0  0  0  0  0  0
  196.4430  171.7920  142.2100 C   0  0  0  0  0  0  0  0  0  0  0  0
  195.7960  171.4230  143.3240 N   0  0  0  0  0  2  0  0  0  0  0  0
  197.7760  175.8690  139.5230 O   0  0  0  0  0  0  0  0  0  0  0  0
  197.5600  176.1700  141.9440 O   0  0  0  0  0  0  0  0  0  0  0  0
  195.3380  176.0210  140.5350 N   0  0  0  0  0  1  0  0  0  0  0  0
  196.9710  175.4960  140.7360 S   0  0  0  0  0  0  0  0  0  0  0  0
  3  7  1  0  0  0  0
  3 24  1  1  0  0  0
  4  8  1  1  0  0  0
  4  3  1  0  0  0  0
  4  7  1  0  0  0  0
  5  1  2  0  0  0  0
  6  9  1  0  0  0  0
  7  9  1  0  0  0  0
  7  2  1  1  0  0  0
  9  5  1  0  0  0  0
 10  3  1  0  0  0  0
 10  6  2  0  0  0  0
 11 23  1  6  0  0  0
 11 20  1  0  0  0  0
 13 12  1  6  0  0  0
 13 20  1  0  0  0  0
 13 18  1  0  0  0  0
 14 16  1  0  0  0  0
 15 11  1  0  0  0  0
 17 16  1  0  0  0  0
 18  5  1  1  0  0  0
 18 17  1  0  0  0  0
 19 15  1  0  0  0  0
 19 12  1  0  0  0  0
 20 14  1  1  0  0  0
 22 23  2  0  0  0  0
 23 21  1  0  0  0  0
 25 28  2  0  0  0  0
 25 26  1  0  0  0  0
 26 33  2  0  0  0  0
 27 31  2  0  0  0  0
 28 32  1  0  0  0  0
 30 24  1  0  0  0  0
 30 29  1  0  0  0  0
 31 30  1  0  0  0  0
 32 34  2  0  0  0  0
 33 34  1  0  0  0  0
 33 27  1  0  0  0  0
 34 35  1  0  0  0  0
 35 31  1  0  0  0  0
 36 39  2  0  0  0  0
 38 39  1  0  0  0  0
 39 26  1  0  0  0  0
 39 37  2  0  0  0  0
M  END
>  <MODEL>
1

>  <REMARK>
 VINA RESULT:      -8.1      0.000      0.000
  Name = 
  5 active torsions:
  status: ('A' for Active; 'I' for Inactive)
    1  A    between atoms: C_4  and  C_18
    2  A    between atoms: C_7  and  S_34
    3  A    between atoms: C_12  and  C_27
    4  A    between atoms: N_13  and  C_18
    5  A    between atoms: C_15  and  C_31
                            x       y       z     vdW  Elec       q    Type
                         _______ _______ _______ _____ _____    ______ ____

>  <TORSDO>
F 5

$$$$
=
 OpenBabel11072409133D

 39 44  0  0  1  0  0  0  0  0999 V2000
  187.0540  175.1390  142.2820 O   0  0  0  0  0  0  0  0  0  0  0  0
  188.8990  173.3010  140.7160 C   0  0  0  0  0  1  0  0  0  0  0  0
  191.0240  173.4530  142.1760 C   0  0  1  0  0  0  0  0  0  0  0  0
  189.9970  172.8060  143.1120 C   0  0  1  0  0  3  0  0  0  0  0  0
  188.0980  175.7780  142.5790 C   0  0  0  0  0  0  0  0  0  0  0  0
  190.6430  175.8010  142.7520 C   0  0  0  0  0  3  0  0  0  0  0  0
  189.5540  173.7710  142.0140 C   0  0  2  0  0  0  0  0  0  0  0  0
  189.7320  171.4850  142.7430 O   0  0  0  0  0  1  0  0  0  0  0  0
  189.3870  175.1590  142.4080 N   0  0  0  0  0  0  0  0  0  0  0  0
  191.7140  174.7210  142.6660 C   0  0  0  0  0  3  0  0  0  0  0  0
  186.0540  178.6250  146.2220 C   0  0  1  0  0  3  0  0  0  0  0  0
  188.0510  176.6630  145.6240 C   0  0  0  0  0  2  0  0  0  0  0  0
  187.1790  177.1700  144.4830 C   0  0  2  0  0  3  0  0  0  0  0  0
  185.7470  179.1590  143.7340 C   0  0  0  0  0  2  0  0  0  0  0  0
  186.9390  178.1240  147.2080 O   0  0  0  0  0  0  0  0  0  0  0  0
  185.9120  178.4830  142.3670 C   0  0  0  0  0  2  0  0  0  0  0  0
  187.3730  178.1280  142.0950 C   0  0  0  0  0  2  0  0  0  0  0  0
  187.9410  177.1600  143.1470 C   0  0  2  0  0  3  0  0  0  0  0  0
  187.2600  176.7760  146.9260 C   0  0  0  0  0  2  0  0  0  0  0  0
  186.6750  178.5780  144.8140 C   0  0  1  0  0  3  0  0  0  0  0  0
  184.5240  176.6760  146.5700 O   0  0  0  0  0  1  0  0  0  0  0  0
  183.6490  178.7590  146.1910 O   0  0  0  0  0  0  0  0  0  0  0  0
  184.6710  178.0360  146.3350 C   0  0  0  0  0  0  0  0  0  0  0  0
  191.6870  172.5980  141.0890 C   0  0  0  0  0  2  0  0  0  0  0  0
  191.7300  175.3000  135.0830 C   0  0  0  0  0  3  0  0  0  0  0  0
  191.1240  174.5990  136.1410 C   0  0  0  0  0  0  0  0  0  0  0  0
  191.5580  173.7460  138.4140 N   0  0  0  0  0  0  0  0  0  0  0  0
  193.0620  175.7570  135.2150 C   0  0  0  0  0  3  0  0  0  0  0  0
  194.0670  173.3620  141.1930 C   0  0  0  0  0  1  0  0  0  0  0  0
  192.8030  173.3060  140.4790 N   0  0  0  0  0  0  0  0  0  0  0  0
  192.6910  173.8570  139.1600 C   0  0  0  0  0  0  0  0  0  0  0  0
  193.7670  175.5230  136.3630 N   0  0  0  0  0  0  0  0  0  0  0  0
  191.8930  174.3890  137.2860 C   0  0  0  0  0  0  0  0  0  0  0  0
  193.1650  174.8480  137.3740 C   0  0  0  0  0  0  0  0  0  0  0  0
  193.7100  174.5270  138.5540 N   0  0  0  0  0  2  0  0  0  0  0  0
  188.8650  174.4950  134.7270 O   0  0  0  0  0  0  0  0  0  0  0  0
  188.6590  174.5520  137.1670 O   0  0  0  0  0  0  0  0  0  0  0  0
  189.4570  172.2940  136.0680 N   0  0  0  0  0  1  0  0  0  0  0  0
  189.4700  174.0200  136.0190 S   0  0  0  0  0  0  0  0  0  0  0  0
  1  5  2  0  0  0  0
  3 24  1  6  0  0  0
  3 10  1  0  0  0  0
  3  4  1  0  0  0  0
  4  8  1  6  0  0  0
  7  2  1  6  0  0  0
  7  3  1  0  0  0  0
  7  9  1  0  0  0  0
  7  4  1  0  0  0  0
  9  5  1  0  0  0  0
  9  6  1  0  0  0  0
 10  6  2  0  0  0  0
 11 23  1  6  0  0  0
 11 15  1  0  0  0  0
 12 19  1  0  0  0  0
 13 20  1  0  0  0  0
 13 12  1  1  0  0  0
 16 14  1  0  0  0  0
 17 16  1  0  0  0  0
 17 18  1  0  0  0  0
 18  5  1  6  0  0  0
 18 13  1  0  0  0  0
 19 15  1  0  0  0  0
 20 14  1  6  0  0  0
 20 11  1  0  0  0  0
 22 23  2  0  0  0  0
 23 21  1  0  0  0  0
 25 28  2  0  0  0  0
 25 26  1  0  0  0  0
 26 33  2  0  0  0  0
 27 31  2  0  0  0  0
 28 32  1  0  0  0  0
 30 24  1  0  0  0  0
 30 29  1  0  0  0  0
 31 30  1  0  0  0  0
 32 34  2  0  0  0  0
 33 34  1  0  0  0  0
 33 27  1  0  0  0  0
 34 35  1  0  0  0  0
 35 31  1  0  0  0  0
 36 39  2  0  0  0  0
 39 38  1  0  0  0  0
 39 26  1  0  0  0  0
 39 37  2  0  0  0  0
M  END
>  <MODEL>
2

>  <REMARK>
 VINA RESULT:      -7.9      4.446      5.722
  Name = 
  5 active torsions:
  status: ('A' for Active; 'I' for Inactive)
    1  A    between atoms: C_4  and  C_18
    2  A    between atoms: C_7  and  S_34
    3  A    between atoms: C_12  and  C_27
    4  A    between atoms: N_13  and  C_18
    5  A    between atoms: C_15  and  C_31
                            x       y       z     vdW  Elec       q    Type
                         _______ _______ _______ _____ _____    ______ ____

>  <TORSDO>
F 5

$$$$
=
 OpenBabel11072409133D

 39 44  0  0  1  0  0  0  0  0999 V2000
  187.1950  175.4530  141.9810 O   0  0  0  0  0  0  0  0  0  0  0  0
  189.2280  173.5380  140.7810 C   0  0  0  0  0  1  0  0  0  0  0  0
  190.9000  173.3750  142.7430 C   0  0  1  0  0  0  0  0  0  0  0  0
  189.6130  172.7800  143.3240 C   0  0  1  0  0  3  0  0  0  0  0  0
  188.1750  175.9610  142.5900 C   0  0  0  0  0  0  0  0  0  0  0  0
  190.5780  175.7080  143.4080 C   0  0  0  0  0  3  0  0  0  0  0  0
  189.5550  173.8540  142.2400 C   0  0  2  0  0  0  0  0  0  0  0  0
  189.3450  171.5200  142.7840 O   0  0  0  0  0  1  0  0  0  0  0  0
  189.4070  175.2240  142.6990 N   0  0  0  0  0  0  0  0  0  0  0  0
  191.5400  174.5320  143.5030 C   0  0  0  0  0  3  0  0  0  0  0  0
  186.0010  178.6130  146.3040 C   0  0  1  0  0  3  0  0  0  0  0  0
  188.0310  176.6960  145.6710 C   0  0  0  0  0  2  0  0  0  0  0  0
  187.1890  177.2520  144.5300 C   0  0  2  0  0  3  0  0  0  0  0  0
  185.7630  179.2660  143.8370 C   0  0  0  0  0  2  0  0  0  0  0  0
  186.8610  178.0710  147.2910 O   0  0  0  0  0  0  0  0  0  0  0  0
  185.9730  178.6580  142.4440 C   0  0  0  0  0  2  0  0  0  0  0  0
  187.4450  178.3270  142.1990 C   0  0  0  0  0  2  0  0  0  0  0  0
  187.9890  177.3120  143.2190 C   0  0  2  0  0  3  0  0  0  0  0  0
  187.2010  176.7410  146.9530 C   0  0  0  0  0  2  0  0  0  0  0  0
  186.6640  178.6390  144.9150 C   0  0  1  0  0  3  0  0  0  0  0  0
  183.5110  178.8280  146.1780 O   0  0  0  0  0  0  0  0  0  0  0  0
  184.4610  176.7790  146.5600 O   0  0  0  0  0  1  0  0  0  0  0  0
  184.6200  178.0100  146.3470 C   0  0  0  0  0  0  0  0  0  0  0  0
  191.7510  172.5280  141.7890 C   0  0  0  0  0  2  0  0  0  0  0  0
  197.7190  174.1630  144.0430 C   0  0  0  0  0  3  0  0  0  0  0  0
  196.5090  174.4330  143.3780 C   0  0  0  0  0  0  0  0  0  0  0  0
  194.3690  173.3940  142.7270 N   0  0  0  0  0  0  0  0  0  0  0  0
  197.9410  172.8840  144.6040 C   0  0  0  0  0  3  0  0  0  0  0  0
  192.2720  170.2690  142.7310 C   0  0  0  0  0  1  0  0  0  0  0  0
  192.6510  171.6570  142.5310 N   0  0  0  0  0  0  0  0  0  0  0  0
  193.9300  172.1300  142.9750 C   0  0  0  0  0  0  0  0  0  0  0  0
  196.9890  171.9060  144.5070 N   0  0  0  0  0  0  0  0  0  0  0  0
  195.5780  173.3980  143.3090 C   0  0  0  0  0  0  0  0  0  0  0  0
  195.8280  172.1870  143.8650 C   0  0  0  0  0  0  0  0  0  0  0  0
  194.8010  171.3490  143.6720 N   0  0  0  0  0  2  0  0  0  0  0  0
  197.2420  176.9850  143.1290 O   0  0  0  0  0  0  0  0  0  0  0  0
  194.8410  176.5010  143.1090 O   0  0  0  0  0  0  0  0  0  0  0  0
  196.2220  175.8880  140.9500 N   0  0  0  0  0  1  0  0  0  0  0  0
  196.1930  176.0100  142.6720 S   0  0  0  0  0  0  0  0  0  0  0  0
  1  5  2  0  0  0  0
  3 24  1  6  0  0  0
  3  4  1  0  0  0  0
  3 10  1  0  0  0  0
  4  8  1  6  0  0  0
  5  9  1  0  0  0  0
  6 10  2  0  0  0  0
  7  2  1  6  0  0  0
  7  9  1  0  0  0  0
  7  3  1  0  0  0  0
  7  4  1  0  0  0  0
  9  6  1  0  0  0  0
 11 23  1  6  0  0  0
 11 15  1  0  0  0  0
 12 19  1  0  0  0  0
 13 20  1  0  0  0  0
 13 12  1  1  0  0  0
 16 14  1  0  0  0  0
 17 16  1  0  0  0  0
 17 18  1  0  0  0  0
 18  5  1  6  0  0  0
 18 13  1  0  0  0  0
 19 15  1  0  0  0  0
 20 14  1  6  0  0  0
 20 11  1  0  0  0  0
 21 23  2  0  0  0  0
 23 22  1  0  0  0  0
 24 30  1  0  0  0  0
 25 28  2  0  0  0  0
 26 25  1  0  0  0  0
 27 31  2  0  0  0  0
 27 33  1  0  0  0  0
 30 29  1  0  0  0  0
 30 31  1  0  0  0  0
 31 35  1  0  0  0  0
 32 28  1  0  0  0  0
 33 26  2  0  0  0  0
 33 34  1  0  0  0  0
 34 32  2  0  0  0  0
 35 34  1  0  0  0  0
 38 39  1  0  0  0  0
 39 37  2  0  0  0  0
 39 36  2  0  0  0  0
 39 26  1  0  0  0  0
M  END
>  <MODEL>
3

>  <REMARK>
 VINA RESULT:      -7.9      2.340      3.706
  Name = 
  5 active torsions:
  status: ('A' for Active; 'I' for Inactive)
    1  A    between atoms: C_4  and  C_18
    2  A    between atoms: C_7  and  S_34
    3  A    between atoms: C_12  and  C_27
    4  A    between atoms: N_13  and  C_18
    5  A    between atoms: C_15  and  C_31
                            x       y       z     vdW  Elec       q    Type
                         _______ _______ _______ _____ _____    ______ ____

>  <TORSDO>
F 5

$$$$
=
 OpenBabel11072409133D

 39 44  0  0  1  0  0  0  0  0999 V2000
  187.4090  175.3760  142.2350 O   0  0  0  0  0  0  0  0  0  0  0  0
  189.6200  173.9070  140.7550 C   0  0  0  0  0  1  0  0  0  0  0  0
  191.6350  174.5050  142.2560 C   0  0  1  0  0  0  0  0  0  0  0  0
  190.7310  173.6880  143.1860 C   0  0  1  0  0  3  0  0  0  0  0  0
  188.2990  176.2150  142.5380 C   0  0  0  0  0  0  0  0  0  0  0  0
  190.7850  176.7430  142.7630 C   0  0  0  0  0  3  0  0  0  0  0  0
  190.1350  174.5230  142.0550 C   0  0  2  0  0  0  0  0  0  0  0  0
  190.7410  172.3330  142.8450 O   0  0  0  0  0  1  0  0  0  0  0  0
  189.6880  175.8590  142.4090 N   0  0  0  0  0  0  0  0  0  0  0  0
  192.0480  175.8940  142.7280 C   0  0  0  0  0  3  0  0  0  0  0  0
  185.9070  178.6960  146.2360 C   0  0  1  0  0  3  0  0  0  0  0  0
  188.2660  177.2290  145.5420 C   0  0  0  0  0  2  0  0  0  0  0  0
  187.2170  177.4540  144.4610 C   0  0  2  0  0  3  0  0  0  0  0  0
  185.2990  179.0050  143.7650 C   0  0  0  0  0  2  0  0  0  0  0  0
  186.9570  178.4730  147.1610 O   0  0  0  0  0  0  0  0  0  0  0  0
  185.5200  178.3130  142.4140 C   0  0  0  0  0  2  0  0  0  0  0  0
  186.9990  178.2980  142.0330 C   0  0  0  0  0  2  0  0  0  0  0  0
  187.8580  177.5500  143.0670 C   0  0  2  0  0  3  0  0  0  0  0  0
  187.5690  177.2250  146.9010 C   0  0  0  0  0  2  0  0  0  0  0  0
  186.4160  178.7200  144.7830 C   0  0  1  0  0  3  0  0  0  0  0  0
  184.8870  176.4280  146.5070 O   0  0  0  0  0  0  0  0  0  0  0  0
  183.5680  178.2960  146.6490 O   0  0  0  0  0  1  0  0  0  0  0  0
  184.7170  177.8060  146.4860 C   0  0  0  0  0  0  0  0  0  0  0  0
  192.4810  173.7750  141.2050 C   0  0  0  0  0  2  0  0  0  0  0  0
  196.8690  175.5470  136.6250 C   0  0  0  0  0  3  0  0  0  0  0  0
  195.5740  175.2140  137.0630 C   0  0  0  0  0  0  0  0  0  0  0  0
  194.3060  174.5600  139.0740 N   0  0  0  0  0  0  0  0  0  0  0  0
  197.9390  175.5670  137.5490 C   0  0  0  0  0  3  0  0  0  0  0  0
  194.4520  173.7450  142.7450 C   0  0  0  0  0  1  0  0  0  0  0  0
  193.9010  174.0070  141.4280 N   0  0  0  0  0  0  0  0  0  0  0  0
  194.7600  174.3960  140.3470 C   0  0  0  0  0  0  0  0  0  0  0  0
  197.7270  175.2660  138.8670 N   0  0  0  0  0  0  0  0  0  0  0  0
  195.4190  174.9150  138.4160 C   0  0  0  0  0  0  0  0  0  0  0  0
  196.4710  174.9510  139.2710 C   0  0  0  0  0  0  0  0  0  0  0  0
  196.0920  174.6230  140.5120 N   0  0  0  0  0  2  0  0  0  0  0  0
  193.5490  173.8390  136.0050 O   0  0  0  0  0  0  0  0  0  0  0  0
  194.7060  175.4310  134.5470 O   0  0  0  0  0  0  0  0  0  0  0  0
  193.0870  176.4150  136.3790 N   0  0  0  0  0  1  0  0  0  0  0  0
  194.2180  175.1830  135.9480 S   0  0  0  0  0  0  0  0  0  0  0  0
  1  5  2  0  0  0  0
  3 24  1  6  0  0  0
  3 10  1  0  0  0  0
  3  4  1  0  0  0  0
  4  8  1  6  0  0  0
  7  2  1  6  0  0  0
  7  3  1  0  0  0  0
  7  9  1  0  0  0  0
  7  4  1  0  0  0  0
  9  5  1  0  0  0  0
  9  6  1  0  0  0  0
 10  6  2  0  0  0  0
 11 23  1  6  0  0  0
 11 15  1  0  0  0  0
 12 19  1  0  0  0  0
 13 20  1  0  0  0  0
 13 12  1  1  0  0  0
 16 14  1  0  0  0  0
 17 16  1  0  0  0  0
 17 18  1  0  0  0  0
 18  5  1  6  0  0  0
 18 13  1  0  0  0  0
 19 15  1  0  0  0  0
 20 14  1  6  0  0  0
 20 11  1  0  0  0  0
 23 21  2  0  0  0  0
 23 22  1  0  0  0  0
 24 30  1  0  0  0  0
 25 26  1  0  0  0  0
 25 28  2  0  0  0  0
 26 33  2  0  0  0  0
 27 31  2  0  0  0  0
 28 32  1  0  0  0  0
 30 29  1  0  0  0  0
 31 35  1  0  0  0  0
 31 30  1  0  0  0  0
 32 34  2  0  0  0  0
 33 27  1  0  0  0  0
 33 34  1  0  0  0  0
 34 35  1  0  0  0  0
 37 39  2  0  0  0  0
 39 36  2  0  0  0  0
 39 38  1  0  0  0  0
 39 26  1  0  0  0  0
M  END
>  <MODEL>
4

>  <REMARK>
 VINA RESULT:      -7.8      3.106      4.406
  Name = 
  5 active torsions:
  status: ('A' for Active; 'I' for Inactive)
    1  A    between atoms: C_4  and  C_18
    2  A    between atoms: C_7  and  S_34
    3  A    between atoms: C_12  and  C_27
    4  A    between atoms: N_13  and  C_18
    5  A    between atoms: C_15  and  C_31
                            x       y       z     vdW  Elec       q    Type
                         _______ _______ _______ _____ _____    ______ ____

>  <TORSDO>
F 5

$$$$
=
 OpenBabel11072409133D

 39 44  0  0  1  0  0  0  0  0999 V2000
  187.0730  175.2900  142.0610 O   0  0  0  0  0  0  0  0  0  0  0  0
  189.1090  173.4030  140.8240 C   0  0  0  0  0  1  0  0  0  0  0  0
  190.9700  173.5220  142.6110 C   0  0  1  0  0  0  0  0  0  0  0  0
  189.7910  172.9040  143.3690 C   0  0  1  0  0  3  0  0  0  0  0  0
  188.0690  175.9100  142.5210 C   0  0  0  0  0  0  0  0  0  0  0  0
  190.5520  175.8810  143.1060 C   0  0  0  0  0  3  0  0  0  0  0  0
  189.5530  173.8690  142.2100 C   0  0  2  0  0  0  0  0  0  0  0  0
  189.5610  171.5860  142.9680 O   0  0  0  0  0  1  0  0  0  0  0  0
  189.3540  175.2630  142.5650 N   0  0  0  0  0  0  0  0  0  0  0  0
  191.5980  174.7790  143.2010 C   0  0  0  0  0  3  0  0  0  0  0  0
  185.9570  178.7610  146.1220 C   0  0  1  0  0  3  0  0  0  0  0  0
  188.0420  176.8880  145.5370 C   0  0  0  0  0  2  0  0  0  0  0  0
  187.1200  177.3120  144.4020 C   0  0  2  0  0  3  0  0  0  0  0  0
  185.5670  179.1980  143.6270 C   0  0  0  0  0  2  0  0  0  0  0  0
  186.8900  178.3390  147.1020 O   0  0  0  0  0  0  0  0  0  0  0  0
  185.7370  178.4890  142.2780 C   0  0  0  0  0  2  0  0  0  0  0  0
  187.2090  178.2020  141.9830 C   0  0  0  0  0  2  0  0  0  0  0  0
  187.8500  177.2990  143.0500 C   0  0  2  0  0  3  0  0  0  0  0  0
  187.2760  177.0010  146.8540 C   0  0  0  0  0  2  0  0  0  0  0  0
  186.5490  178.7020  144.7020 C   0  0  1  0  0  3  0  0  0  0  0  0
  184.5360  176.7280  146.4470 O   0  0  0  0  0  1  0  0  0  0  0  0
  183.5520  178.7870  146.2510 O   0  0  0  0  0  0  0  0  0  0  0  0
  184.6100  178.1040  146.2860 C   0  0  0  0  0  0  0  0  0  0  0  0
  191.7830  172.6450  141.6490 C   0  0  0  0  0  2  0  0  0  0  0  0
  197.6720  174.7710  143.6910 C   0  0  0  0  0  3  0  0  0  0  0  0
  196.4600  174.0760  143.8560 C   0  0  0  0  0  0  0  0  0  0  0  0
  194.3620  173.5120  142.6890 N   0  0  0  0  0  0  0  0  0  0  0  0
  197.9410  175.4330  142.4720 C   0  0  0  0  0  3  0  0  0  0  0  0
  192.3060  173.9230  139.5630 C   0  0  0  0  0  1  0  0  0  0  0  0
  192.7150  173.4500  140.8740 N   0  0  0  0  0  0  0  0  0  0  0  0
  193.9760  173.8500  141.4280 C   0  0  0  0  0  0  0  0  0  0  0  0
  197.0330  175.4030  141.4480 N   0  0  0  0  0  0  0  0  0  0  0  0
  195.5740  174.0810  142.7800 C   0  0  0  0  0  0  0  0  0  0  0  0
  195.8720  174.7240  141.6250 C   0  0  0  0  0  0  0  0  0  0  0  0
  194.8770  174.6030  140.7370 N   0  0  0  0  0  2  0  0  0  0  0  0
  194.7500  173.6840  145.8660 O   0  0  0  0  0  0  0  0  0  0  0  0
  197.1400  173.5500  146.3850 O   0  0  0  0  0  0  0  0  0  0  0  0
  196.0670  171.5330  145.0720 N   0  0  0  0  0  1  0  0  0  0  0  0
  196.0910  173.2360  145.3550 S   0  0  0  0  0  0  0  0  0  0  0  0
  1  5  2  0  0  0  0
  3 24  1  6  0  0  0
  3 10  1  0  0  0  0
  3  4  1  0  0  0  0
  4  8  1  6  0  0  0
  5  9  1  0  0  0  0
  6 10  2  0  0  0  0
  7  2  1  6  0  0  0
  7  9  1  0  0  0  0
  7  3  1  0  0  0  0
  7  4  1  0  0  0  0
  9  6  1  0  0  0  0
 11 23  1  6  0  0  0
 11 15  1  0  0  0  0
 12 19  1  0  0  0  0
 13 20  1  0  0  0  0
 13 12  1  1  0  0  0
 16 14  1  0  0  0  0
 17 16  1  0  0  0  0
 17 18  1  0  0  0  0
 18  5  1  6  0  0  0
 18 13  1  0  0  0  0
 19 15  1  0  0  0  0
 20 14  1  6  0  0  0
 20 11  1  0  0  0  0
 22 23  2  0  0  0  0
 23 21  1  0  0  0  0
 25 26  1  0  0  0  0
 26 39  1  0  0  0  0
 27 33  1  0  0  0  0
 28 25  2  0  0  0  0
 29 30  1  0  0  0  0
 30 31  1  0  0  0  0
 30 24  1  0  0  0  0
 31 27  2  0  0  0  0
 32 34  2  0  0  0  0
 32 28  1  0  0  0  0
 33 26  2  0  0  0  0
 34 33  1  0  0  0  0
 35 31  1  0  0  0  0
 35 34  1  0  0  0  0
 38 39  1  0  0  0  0
 39 36  2  0  0  0  0
 39 37  2  0  0  0  0
M  END
>  <MODEL>
5

>  <REMARK>
 VINA RESULT:      -7.8      2.823      4.370
  Name = 
  5 active torsions:
  status: ('A' for Active; 'I' for Inactive)
    1  A    between atoms: C_4  and  C_18
    2  A    between atoms: C_7  and  S_34
    3  A    between atoms: C_12  and  C_27
    4  A    between atoms: N_13  and  C_18
    5  A    between atoms: C_15  and  C_31
                            x       y       z     vdW  Elec       q    Type
                         _______ _______ _______ _____ _____    ______ ____

>  <TORSDO>
F 5

$$$$
=
 OpenBabel11072409133D

 39 44  0  0  1  0  0  0  0  0999 V2000
  195.7900  174.6310  145.6310 O   0  0  0  0  0  0  0  0  0  0  0  0
  193.8800  176.9950  145.6650 C   0  0  0  0  0  1  0  0  0  0  0  0
  191.6350  175.7590  145.3400 C   0  0  1  0  0  0  0  0  0  0  0  0
  192.1400  175.2280  146.6860 C   0  0  1  0  0  3  0  0  0  0  0  0
  194.9720  174.1030  144.8320 C   0  0  0  0  0  0  0  0  0  0  0  0
  192.6100  174.0640  143.8690 C   0  0  0  0  0  3  0  0  0  0  0  0
  193.1230  175.6690  145.6030 C   0  0  2  0  0  0  0  0  0  0  0  0
  192.0410  176.1990  147.6860 O   0  0  0  0  0  1  0  0  0  0  0  0
  193.6330  174.6230  144.7340 N   0  0  0  0  0  0  0  0  0  0  0  0
  191.3000  174.7320  144.2650 C   0  0  0  0  0  3  0  0  0  0  0  0
  196.2310  169.2090  144.9450 C   0  0  1  0  0  3  0  0  0  0  0  0
  194.0710  171.0780  145.1320 C   0  0  0  0  0  2  0  0  0  0  0  0
  195.4710  171.6220  144.8790 C   0  0  2  0  0  3  0  0  0  0  0  0
  197.7680  170.9940  143.9330 C   0  0  0  0  0  2  0  0  0  0  0  0
  194.8890  168.7950  145.1350 O   0  0  0  0  0  0  0  0  0  0  0  0
  197.9410  172.5180  143.9310 C   0  0  0  0  0  2  0  0  0  0  0  0
  196.7390  173.2130  143.2930 C   0  0  0  0  0  2  0  0  0  0  0  0
  195.4290  172.9100  144.0420 C   0  0  2  0  0  3  0  0  0  0  0  0
  194.1930  169.7620  145.8970 C   0  0  0  0  0  2  0  0  0  0  0  0
  196.3180  170.5480  144.1910 C   0  0  1  0  0  3  0  0  0  0  0  0
  196.9170  170.1220  147.1700 O   0  0  0  0  0  1  0  0  0  0  0  0
  197.8620  168.1850  146.3930 O   0  0  0  0  0  0  0  0  0  0  0  0
  197.0470  169.1280  146.2100 C   0  0  0  0  0  0  0  0  0  0  0  0
  191.0120  177.1600  145.2750 C   0  0  0  0  0  2  0  0  0  0  0  0
  184.7230  178.2820  143.6770 C   0  0  0  0  0  3  0  0  0  0  0  0
  185.7580  178.0010  144.5880 C   0  0  0  0  0  0  0  0  0  0  0  0
  188.1930  177.6400  144.7190 N   0  0  0  0  0  0  0  0  0  0  0  0
  185.0220  178.4550  142.3060 C   0  0  0  0  0  3  0  0  0  0  0  0
  191.4320  177.3900  142.8180 C   0  0  0  0  0  1  0  0  0  0  0  0
  190.5080  177.4420  143.9380 N   0  0  0  0  0  0  0  0  0  0  0  0
  189.1110  177.6750  143.7140 C   0  0  0  0  0  0  0  0  0  0  0  0
  186.3100  178.3540  141.8560 N   0  0  0  0  0  0  0  0  0  0  0  0
  187.0490  177.9080  144.0720 C   0  0  0  0  0  0  0  0  0  0  0  0
  187.2950  178.0850  142.7510 C   0  0  0  0  0  0  0  0  0  0  0  0
  188.5990  177.9430  142.4810 N   0  0  0  0  0  2  0  0  0  0  0  0
  186.1490  176.5660  146.8020 O   0  0  0  0  0  0  0  0  0  0  0  0
  183.9500  177.6030  146.5130 O   0  0  0  0  0  0  0  0  0  0  0  0
  185.9580  179.1770  147.1710 N   0  0  0  0  0  1  0  0  0  0  0  0
  185.4270  177.7840  146.2990 S   0  0  0  0  0  0  0  0  0  0  0  0
  3 24  1  6  0  0  0
  3  7  1  0  0  0  0
  3  4  1  0  0  0  0
  4  8  1  1  0  0  0
  5  1  2  0  0  0  0
  6 10  2  0  0  0  0
  6  9  1  0  0  0  0
  7  2  1  1  0  0  0
  7  4  1  0  0  0  0
  9  5  1  0  0  0  0
  9  7  1  0  0  0  0
 10  3  1  0  0  0  0
 11 15  1  0  0  0  0
 11 23  1  1  0  0  0
 12 19  1  0  0  0  0
 13 12  1  6  0  0  0
 15 19  1  0  0  0  0
 16 14  1  0  0  0  0
 17 16  1  0  0  0  0
 17 18  1  0  0  0  0
 18  5  1  1  0  0  0
 18 13  1  0  0  0  0
 20 14  1  1  0  0  0
 20 13  1  0  0  0  0
 20 11  1  0  0  0  0
 23 22  2  0  0  0  0
 23 21  1  0  0  0  0
 25 26  1  0  0  0  0
 26 39  1  0  0  0  0
 28 25  2  0  0  0  0
 29 30  1  0  0  0  0
 30 24  1  0  0  0  0
 31 30  1  0  0  0  0
 31 27  2  0  0  0  0
 32 28  1  0  0  0  0
 32 34  2  0  0  0  0
 33 26  2  0  0  0  0
 33 27  1  0  0  0  0
 34 33  1  0  0  0  0
 35 34  1  0  0  0  0
 35 31  1  0  0  0  0
 39 37  2  0  0  0  0
 39 36  2  0  0  0  0
 39 38  1  0  0  0  0
M  END
>  <MODEL>
6

>  <REMARK>
 VINA RESULT:      -7.8      3.989     10.408
  Name = 
  5 active torsions:
  status: ('A' for Active; 'I' for Inactive)
    1  A    between atoms: C_4  and  C_18
    2  A    between atoms: C_7  and  S_34
    3  A    between atoms: C_12  and  C_27
    4  A    between atoms: N_13  and  C_18
    5  A    between atoms: C_15  and  C_31
                            x       y       z     vdW  Elec       q    Type
                         _______ _______ _______ _____ _____    ______ ____

>  <TORSDO>
F 5

$$$$
=
 OpenBabel11072409133D

 39 44  0  0  1  0  0  0  0  0999 V2000
  192.0750  173.5770  140.5720 O   0  0  0  0  0  0  0  0  0  0  0  0
  192.1850  176.0160  142.3820 C   0  0  0  0  0  1  0  0  0  0  0  0
  190.4620  175.3190  144.1760 C   0  0  1  0  0  0  0  0  0  0  0  0
  191.5690  174.2690  144.3210 C   0  0  1  0  0  3  0  0  0  0  0  0
  190.8640  173.4980  140.9110 C   0  0  0  0  0  0  0  0  0  0  0  0
  189.0360  174.1500  142.5670 C   0  0  0  0  0  3  0  0  0  0  0  0
  191.2900  174.9270  142.9710 C   0  0  2  0  0  0  0  0  0  0  0  0
  192.7150  174.8150  144.9070 O   0  0  0  0  0  1  0  0  0  0  0  0
  190.4020  174.2050  142.0770 N   0  0  0  0  0  0  0  0  0  0  0  0
  189.0450  174.8100  143.9390 C   0  0  0  0  0  3  0  0  0  0  0  0
  190.4160  169.2060  138.2780 C   0  0  1  0  0  3  0  0  0  0  0  0
  190.6760  170.3330  140.8980 C   0  0  0  0  0  2  0  0  0  0  0  0
  190.6160  171.2850  139.7100 C   0  0  2  0  0  3  0  0  0  0  0  0
  189.7850  171.4870  137.2940 C   0  0  0  0  0  2  0  0  0  0  0  0
  190.4380  168.4040  139.4470 O   0  0  0  0  0  0  0  0  0  0  0  0
  190.0030  172.9790  137.5750 C   0  0  0  0  0  2  0  0  0  0  0  0
  189.3690  173.3930  138.9020 C   0  0  0  0  0  2  0  0  0  0  0  0
  189.9600  172.6210  140.0940 C   0  0  2  0  0  3  0  0  0  0  0  0
  191.2640  169.0050  140.4260 C   0  0  0  0  0  2  0  0  0  0  0  0
  189.8600  170.6140  138.5590 C   0  0  1  0  0  3  0  0  0  0  0  0
  192.7470  170.0270  137.8930 O   0  0  0  0  0  1  0  0  0  0  0  0
  191.8810  168.3840  136.5520 O   0  0  0  0  0  0  0  0  0  0  0  0
  191.7210  169.1680  137.5260 C   0  0  0  0  0  0  0  0  0  0  0  0
  190.6800  176.7210  144.7570 C   0  0  0  0  0  2  0  0  0  0  0  0
  184.3590  178.3330  145.6610 C   0  0  0  0  0  3  0  0  0  0  0  0
  185.4840  178.0560  144.8630 C   0  0  0  0  0  0  0  0  0  0  0  0
  187.8680  177.4400  145.0020 N   0  0  0  0  0  0  0  0  0  0  0  0
  184.4660  178.2720  147.0700 C   0  0  0  0  0  3  0  0  0  0  0  0
  190.7960  176.7300  147.2570 C   0  0  0  0  0  1  0  0  0  0  0  0
  190.0100  176.8610  146.0430 N   0  0  0  0  0  0  0  0  0  0  0  0
  188.6220  177.2130  146.1120 C   0  0  0  0  0  0  0  0  0  0  0  0
  185.6530  177.9440  147.6650 N   0  0  0  0  0  0  0  0  0  0  0  0
  186.6670  177.7300  145.5250 C   0  0  0  0  0  0  0  0  0  0  0  0
  186.7260  177.6780  146.8780 C   0  0  0  0  0  0  0  0  0  0  0  0
  187.9570  177.3530  147.2930 N   0  0  0  0  0  2  0  0  0  0  0  0
  185.8640  176.8100  142.5350 O   0  0  0  0  0  0  0  0  0  0  0  0
  186.2620  179.2260  142.5920 O   0  0  0  0  0  0  0  0  0  0  0  0
  183.7580  178.4060  142.6280 N   0  0  0  0  0  1  0  0  0  0  0  0
  185.3910  178.1160  143.1100 S   0  0  0  0  0  0  0  0  0  0  0  0
  1  5  2  0  0  0  0
  3  4  1  0  0  0  0
  3 24  1  1  0  0  0
  4  8  1  1  0  0  0
  5  9  1  0  0  0  0
  6 10  2  0  0  0  0
  7  2  1  6  0  0  0
  7  3  1  0  0  0  0
  7  4  1  0  0  0  0
  9  6  1  0  0  0  0
  9  7  1  0  0  0  0
 10  3  1  0  0  0  0
 11 23  1  1  0  0  0
 11 20  1  0  0  0  0
 11 15  1  0  0  0  0
 13 18  1  0  0  0  0
 13 12  1  1  0  0  0
 14 16  1  0  0  0  0
 15 19  1  0  0  0  0
 16 17  1  0  0  0  0
 17 18  1  0  0  0  0
 18  5  1  6  0  0  0
 19 12  1  0  0  0  0
 20 14  1  6  0  0  0
 20 13  1  0  0  0  0
 22 23  2  0  0  0  0
 23 21  1  0  0  0  0
 24 30  1  0  0  0  0
 25 28  2  0  0  0  0
 26 33  2  0  0  0  0
 26 25  1  0  0  0  0
 27 33  1  0  0  0  0
 27 31  2  0  0  0  0
 28 32  1  0  0  0  0
 30 31  1  0  0  0  0
 30 29  1  0  0  0  0
 31 35  1  0  0  0  0
 33 34  1  0  0  0  0
 34 35  1  0  0  0  0
 34 32  2  0  0  0  0
 36 39  2  0  0  0  0
 37 39  2  0  0  0  0
 38 39  1  0  0  0  0
 39 26  1  0  0  0  0
M  END
>  <MODEL>
7

>  <REMARK>
 VINA RESULT:      -7.7      5.175      9.786
  Name = 
  5 active torsions:
  status: ('A' for Active; 'I' for Inactive)
    1  A    between atoms: C_4  and  C_18
    2  A    between atoms: C_7  and  S_34
    3  A    between atoms: C_12  and  C_27
    4  A    between atoms: N_13  and  C_18
    5  A    between atoms: C_15  and  C_31
                            x       y       z     vdW  Elec       q    Type
                         _______ _______ _______ _____ _____    ______ ____

>  <TORSDO>
F 5

$$$$
=
 OpenBabel11072409133D

 39 44  0  0  1  0  0  0  0  0999 V2000
  188.9590  175.0750  145.2040 O   0  0  0  0  0  0  0  0  0  0  0  0
  191.1660  173.3100  144.0850 C   0  0  0  0  0  1  0  0  0  0  0  0
  193.1010  175.0180  143.9970 C   0  0  1  0  0  0  0  0  0  0  0  0
  192.7910  174.9120  145.4940 C   0  0  1  0  0  3  0  0  0  0  0  0
  189.5230  176.0130  144.5800 C   0  0  0  0  0  0  0  0  0  0  0  0
  191.6260  176.8870  143.4300 C   0  0  0  0  0  3  0  0  0  0  0  0
  191.6940  174.6960  144.4520 C   0  0  2  0  0  0  0  0  0  0  0  0
  193.2200  173.6910  146.0180 O   0  0  0  0  0  1  0  0  0  0  0  0
  190.8800  175.8530  144.1260 N   0  0  0  0  0  0  0  0  0  0  0  0
  193.0710  176.4090  143.3740 C   0  0  0  0  0  3  0  0  0  0  0  0
  185.6740  178.8990  146.1320 C   0  0  1  0  0  3  0  0  0  0  0  0
  188.2950  177.9430  146.7760 C   0  0  0  0  0  2  0  0  0  0  0  0
  187.6780  177.5090  145.4530 C   0  0  2  0  0  3  0  0  0  0  0  0
  185.9470  178.1820  143.6860 C   0  0  0  0  0  2  0  0  0  0  0  0
  186.3470  179.2820  147.3190 O   0  0  0  0  0  0  0  0  0  0  0  0
  186.7210  177.1540  142.8520 C   0  0  0  0  0  2  0  0  0  0  0  0
  188.2280  177.3910  142.9350 C   0  0  0  0  0  2  0  0  0  0  0  0
  188.7530  177.2870  144.3770 C   0  0  2  0  0  3  0  0  0  0  0  0
  187.1690  178.2220  147.7680 C   0  0  0  0  0  2  0  0  0  0  0  0
  186.6580  178.5570  144.9980 C   0  0  1  0  0  3  0  0  0  0  0  0
  184.9180  176.5220  146.3310 O   0  0  0  0  0  0  0  0  0  0  0  0
  183.4120  178.2240  146.6110 O   0  0  0  0  0  1  0  0  0  0  0  0
  184.5990  177.8720  146.3830 C   0  0  0  0  0  0  0  0  0  0  0  0
  193.8990  173.8970  143.3180 C   0  0  0  0  0  2  0  0  0  0  0  0
  190.4560  173.6230  137.7100 C   0  0  0  0  0  3  0  0  0  0  0  0
  190.6200  173.4380  139.0950 C   0  0  0  0  0  0  0  0  0  0  0  0
  192.2560  173.7180  140.9190 N   0  0  0  0  0  0  0  0  0  0  0  0
  191.5160  174.1610  136.9440 C   0  0  0  0  0  3  0  0  0  0  0  0
  195.7480  174.7540  141.8650 C   0  0  0  0  0  1  0  0  0  0  0  0
  194.3700  174.3170  142.0050 N   0  0  0  0  0  0  0  0  0  0  0  0
  193.5220  174.2120  140.8530 C   0  0  0  0  0  0  0  0  0  0  0  0
  192.7000  174.5050  137.5370 N   0  0  0  0  0  0  0  0  0  0  0  0
  191.8480  173.8050  139.6440 C   0  0  0  0  0  0  0  0  0  0  0  0
  192.8370  174.3220  138.8750 C   0  0  0  0  0  0  0  0  0  0  0  0
  193.9240  174.5930  139.6090 N   0  0  0  0  0  2  0  0  0  0  0  0
  189.8080  171.5390  140.7820 O   0  0  0  0  0  0  0  0  0  0  0  0
  188.1520  172.4250  139.2120 O   0  0  0  0  0  0  0  0  0  0  0  0
  188.8330  173.9510  141.2490 N   0  0  0  0  0  1  0  0  0  0  0  0
  189.3250  172.7780  140.0820 S   0  0  0  0  0  0  0  0  0  0  0  0
  3 24  1  6  0  0  0
  3  7  1  0  0  0  0
  3  4  1  0  0  0  0
  4  8  1  6  0  0  0
  5  1  2  0  0  0  0
  6  9  1  0  0  0  0
  7  2  1  6  0  0  0
  7  4  1  0  0  0  0
  9  7  1  0  0  0  0
  9  5  1  0  0  0  0
 10  6  2  0  0  0  0
 10  3  1  0  0  0  0
 11 23  1  1  0  0  0
 11 15  1  0  0  0  0
 12 19  1  0  0  0  0
 13 12  1  1  0  0  0
 15 19  1  0  0  0  0
 16 17  1  0  0  0  0
 16 14  1  0  0  0  0
 17 18  1  0  0  0  0
 18  5  1  1  0  0  0
 18 13  1  0  0  0  0
 20 14  1  6  0  0  0
 20 13  1  0  0  0  0
 20 11  1  0  0  0  0
 21 23  2  0  0  0  0
 23 22  1  0  0  0  0
 25 26  1  0  0  0  0
 26 33  2  0  0  0  0
 26 39  1  0  0  0  0
 28 32  1  0  0  0  0
 28 25  2  0  0  0  0
 29 30  1  0  0  0  0
 30 24  1  0  0  0  0
 31 27  2  0  0  0  0
 31 30  1  0  0  0  0
 32 34  2  0  0  0  0
 33 27  1  0  0  0  0
 34 35  1  0  0  0  0
 34 33  1  0  0  0  0
 35 31  1  0  0  0  0
 37 39  2  0  0  0  0
 39 36  2  0  0  0  0
 39 38  1  0  0  0  0
M  END
>  <MODEL>
8

>  <REMARK>
 VINA RESULT:      -7.7      3.529      4.892
  Name = 
  5 active torsions:
  status: ('A' for Active; 'I' for Inactive)
    1  A    between atoms: C_4  and  C_18
    2  A    between atoms: C_7  and  S_34
    3  A    between atoms: C_12  and  C_27
    4  A    between atoms: N_13  and  C_18
    5  A    between atoms: C_15  and  C_31
                            x       y       z     vdW  Elec       q    Type
                         _______ _______ _______ _____ _____    ______ ____

>  <TORSDO>
F 5

$$$$
=
 OpenBabel11072409133D

 39 44  0  0  1  0  0  0  0  0999 V2000
  194.1600  175.0630  141.9990 O   0  0  0  0  0  0  0  0  0  0  0  0
  191.1740  174.8970  142.5420 C   0  0  0  0  0  1  0  0  0  0  0  0
  191.1790  175.0640  145.1190 C   0  0  1  0  0  0  0  0  0  0  0  0
  191.7510  176.4150  144.6760 C   0  0  1  0  0  3  0  0  0  0  0  0
  194.2970  174.4740  143.1040 C   0  0  0  0  0  0  0  0  0  0  0  0
  193.2720  173.8170  145.3460 C   0  0  0  0  0  3  0  0  0  0  0  0
  191.9590  175.1630  143.8250 C   0  0  2  0  0  0  0  0  0  0  0  0
  190.7620  177.2300  144.1200 O   0  0  0  0  0  1  0  0  0  0  0  0
  193.2010  174.4420  144.0370 N   0  0  0  0  0  0  0  0  0  0  0  0
  192.0130  174.2380  146.0910 C   0  0  0  0  0  3  0  0  0  0  0  0
  196.7670  170.4600  144.9320 C   0  0  1  0  0  3  0  0  0  0  0  0
  195.2130  171.4600  142.7440 C   0  0  0  0  0  2  0  0  0  0  0  0
  195.5230  172.4060  143.8960 C   0  0  2  0  0  3  0  0  0  0  0  0
  197.1850  172.8350  145.7990 C   0  0  0  0  0  2  0  0  0  0  0  0
  196.4640  169.6670  143.7960 O   0  0  0  0  0  0  0  0  0  0  0  0
  196.5280  174.2210  145.7690 C   0  0  0  0  0  2  0  0  0  0  0  0
  196.4550  174.7700  144.3440 C   0  0  0  0  0  2  0  0  0  0  0  0
  195.6330  173.8620  143.4130 C   0  0  2  0  0  3  0  0  0  0  0  0
  195.1970  170.0300  143.2820 C   0  0  0  0  0  2  0  0  0  0  0  0
  196.8130  171.9600  144.5900 C   0  0  1  0  0  3  0  0  0  0  0  0
  194.5640  170.3640  146.1130 O   0  0  0  0  0  0  0  0  0  0  0  0
  196.4500  169.5850  147.1530 O   0  0  0  0  0  1  0  0  0  0  0  0
  195.9260  170.0990  146.1290 C   0  0  0  0  0  0  0  0  0  0  0  0
  189.6680  174.8230  145.0170 C   0  0  0  0  0  2  0  0  0  0  0  0
  184.3350  178.6790  145.2700 C   0  0  0  0  0  3  0  0  0  0  0  0
  185.3420  177.9690  144.5910 C   0  0  0  0  0  0  0  0  0  0  0  0
  187.3090  176.5320  144.9730 N   0  0  0  0  0  0  0  0  0  0  0  0
  184.2900  178.6550  146.6830 C   0  0  0  0  0  3  0  0  0  0  0  0
  189.5640  174.9160  147.5160 C   0  0  0  0  0  1  0  0  0  0  0  0
  188.9890  175.2630  146.2280 N   0  0  0  0  0  0  0  0  0  0  0  0
  187.8280  176.1020  146.1550 C   0  0  0  0  0  0  0  0  0  0  0  0
  185.2180  177.9460  147.3970 N   0  0  0  0  0  0  0  0  0  0  0  0
  186.2600  177.2670  145.3710 C   0  0  0  0  0  0  0  0  0  0  0  0
  186.1790  177.2660  146.7240 C   0  0  0  0  0  0  0  0  0  0  0  0
  187.1640  176.5350  147.2620 N   0  0  0  0  0  2  0  0  0  0  0  0
  185.9180  176.6340  142.3550 O   0  0  0  0  0  0  0  0  0  0  0  0
  186.3780  179.0390  142.3740 O   0  0  0  0  0  0  0  0  0  0  0  0
  183.8610  178.2850  142.1820 N   0  0  0  0  0  1  0  0  0  0  0  0
  185.4280  177.9700  142.8360 S   0  0  0  0  0  0  0  0  0  0  0  0
  1  5  2  0  0  0  0
  3 24  1  6  0  0  0
  3 10  1  0  0  0  0
  4  8  1  6  0  0  0
  4  3  1  0  0  0  0
  5  9  1  0  0  0  0
  6 10  2  0  0  0  0
  7  2  1  6  0  0  0
  7  9  1  0  0  0  0
  7  4  1  0  0  0  0
  7  3  1  0  0  0  0
  9  6  1  0  0  0  0
 11 23  1  1  0  0  0
 12 19  1  0  0  0  0
 13 12  1  6  0  0  0
 13 20  1  0  0  0  0
 15 11  1  0  0  0  0
 16 14  1  0  0  0  0
 17 16  1  0  0  0  0
 18  5  1  1  0  0  0
 18 13  1  0  0  0  0
 18 17  1  0  0  0  0
 19 15  1  0  0  0  0
 20 11  1  0  0  0  0
 20 14  1  1  0  0  0
 21 23  2  0  0  0  0
 23 22  1  0  0  0  0
 24 30  1  0  0  0  0
 25 28  2  0  0  0  0
 26 25  1  0  0  0  0
 26 33  2  0  0  0  0
 27 33  1  0  0  0  0
 27 31  2  0  0  0  0
 28 32  1  0  0  0  0
 30 29  1  0  0  0  0
 31 30  1  0  0  0  0
 31 35  1  0  0  0  0
 33 34  1  0  0  0  0
 34 35  1  0  0  0  0
 34 32  2  0  0  0  0
 36 39  2  0  0  0  0
 37 39  2  0  0  0  0
 38 39  1  0  0  0  0
 39 26  1  0  0  0  0
M  END
>  <MODEL>
9

>  <REMARK>
 VINA RESULT:      -7.5      3.692     10.188
  Name = 
  5 active torsions:
  status: ('A' for Active; 'I' for Inactive)
    1  A    between atoms: C_4  and  C_18
    2  A    between atoms: C_7  and  S_34
    3  A    between atoms: C_12  and  C_27
    4  A    between atoms: N_13  and  C_18
    5  A    between atoms: C_15  and  C_31
                            x       y       z     vdW  Elec       q    Type
                         _______ _______ _______ _____ _____    ______ ____

>  <TORSDO>
F 5

$$$$
