=
 OpenBabel11062422583D

 29 33  0  0  1  0  0  0  0  0999 V2000
  189.2360  175.2950  142.7030 C   0  0  0  0  0  1  0  0  0  0  0  0
  188.2030  176.0360  144.9230 C   0  0  1  0  0  3  0  0  0  0  0  0
  188.1930  177.2900  144.0550 C   0  0  1  0  0  3  0  0  0  0  0  0
  189.3000  176.2530  143.8850 C   0  0  2  0  0  0  0  0  0  0  0  0
  186.0190  178.2750  143.1230 C   0  0  1  0  0  3  0  0  0  0  0  0
  187.1230  178.3710  142.0890 C   0  0  1  0  0  3  0  0  0  0  0  0
  187.0760  177.1740  143.0170 C   0  0  1  0  0  3  0  0  0  0  0  0
  186.6190  178.0040  140.8430 O   0  0  0  0  0  1  0  0  0  0  0  0
  186.2800  179.1680  144.1670 O   0  0  0  0  0  0  0  0  0  0  0  0
  185.0420  179.7400  144.4610 C   0  0  0  0  0  2  0  0  0  0  0  0
  184.2390  178.8040  145.3460 C   0  0  0  0  0  2  0  0  0  0  0  0
  184.9860  178.4590  146.4710 O   0  0  0  0  0  0  0  0  0  0  0  0
  184.9370  177.0660  146.5100 C   0  0  0  0  0  1  0  0  0  0  0  0
  188.7360  175.1640  147.1830 C   0  0  0  0  0  1  0  0  0  0  0  0
  188.6050  176.4150  146.3400 C   0  0  0  0  0  2  0  0  0  0  0  0
  190.6770  176.6980  144.3660 C   0  0  0  0  0  2  0  0  0  0  0  0
  191.5040  175.5860  144.5500 O   0  0  0  0  0  0  0  0  0  0  0  0
  193.5030  176.3610  142.5590 O   0  0  0  0  0  1  0  0  0  0  0  0
  192.7690  176.1180  144.8270 C   0  0  2  0  0  3  0  0  0  0  0  0
  193.7560  175.6730  143.7470 C   0  0  2  0  0  3  0  0  0  0  0  0
  192.2360  175.1160  146.9630 O   0  0  0  0  0  1  0  0  0  0  0  0
  193.6990  176.8430  146.9220 O   0  0  0  0  0  1  0  0  0  0  0  0
  196.0030  174.6980  144.2220 C   0  0  1  0  0  0  0  0  0  0  0  0
  193.2710  175.7030  146.2300 C   0  0  0  0  0  0  0  0  0  0  0  0
  195.1800  175.9590  144.2080 C   0  0  2  0  0  3  0  0  0  0  0  0
  196.4830  174.2430  145.5710 C   0  0  0  0  0  2  0  0  0  0  0  0
  197.1920  175.1440  143.6490 O   0  0  0  0  0  1  0  0  0  0  0  0
  194.3270  174.7630  146.1160 O   0  0  0  0  0  0  0  0  0  0  0  0
  195.4950  175.3590  145.5670 C   0  0  2  0  0  0  0  0  0  0  0  0
  2 15  1  1  0  0  0
  3  7  1  6  0  0  0
  3  2  1  0  0  0  0
  4  1  1  6  0  0  0
  4  3  1  0  0  0  0
  4 16  1  0  0  0  0
  4  2  1  0  0  0  0
  5  9  1  1  0  0  0
  6  8  1  6  0  0  0
  6  7  1  0  0  0  0
  6  5  1  0  0  0  0
  7  5  1  0  0  0  0
  9 10  1  0  0  0  0
 10 11  1  0  0  0  0
 11 12  1  0  0  0  0
 12 13  1  0  0  0  0
 15 14  1  0  0  0  0
 16 17  1  0  0  0  0
 17 19  1  0  0  0  0
 18 20  1  0  0  0  0
 19 24  1  0  0  0  0
 20 25  1  0  0  0  0
 20 19  1  0  0  0  0
 23 29  1  0  0  0  0
 23 26  1  0  0  0  0
 24 22  1  0  0  0  0
 24 21  1  0  0  0  0
 25 23  1  0  0  0  0
 25 29  1  0  0  0  0
 27 23  1  0  0  0  0
 28 24  1  0  0  0  0
 29 26  1  0  0  0  0
 29 28  1  0  0  0  0
M  END
>  <MODEL>
1

>  <REMARK>
 VINA RESULT:      -6.4      0.000      0.000
  Name = 
  9 active torsions:
  status: ('A' for Active; 'I' for Inactive)
    1  A    between atoms: O_1  and  C_28
    2  A    between atoms: C_2  and  O_29
    3  A    between atoms: C_3  and  C_23
    4  A    between atoms: C_3  and  O_25
    5  A    between atoms: C_6  and  O_25
    6  A    between atoms: C_13  and  C_15
    7  A    between atoms: C_14  and  C_27
    8  A    between atoms: C_26  and  C_28
    9  A    between atoms: C_26  and  O_29
                            x       y       z     vdW  Elec       q    Type
                         _______ _______ _______ _____ _____    ______ ____

>  <TORSDO>
F 9

$$$$
=
 OpenBabel11062422583D

 29 33  0  0  1  0  0  0  0  0999 V2000
  190.3710  176.6960  147.4950 C   0  0  0  0  0  1  0  0  0  0  0  0
  190.2130  177.6830  145.1420 C   0  0  1  0  0  3  0  0  0  0  0  0
  188.9710  176.8080  145.2770 C   0  0  1  0  0  3  0  0  0  0  0  0
  190.2580  176.4240  146.0020 C   0  0  2  0  0  0  0  0  0  0  0  0
  186.6270  177.8270  145.4670 C   0  0  1  0  0  3  0  0  0  0  0  0
  186.7490  176.6200  146.3760 C   0  0  1  0  0  3  0  0  0  0  0  0
  187.9510  177.5180  146.1690 C   0  0  1  0  0  3  0  0  0  0  0  0
  186.1670  176.9120  147.6080 O   0  0  0  0  0  1  0  0  0  0  0  0
  186.6190  177.4070  144.1340 O   0  0  0  0  0  0  0  0  0  0  0  0
  185.2900  177.5390  143.7300 C   0  0  0  0  0  2  0  0  0  0  0  0
  185.1790  178.6130  142.6640 C   0  0  0  0  0  2  0  0  0  0  0  0
  186.3150  178.5980  141.8560 O   0  0  0  0  0  0  0  0  0  0  0  0
  185.8990  177.9820  140.6770 C   0  0  0  0  0  1  0  0  0  0  0  0
  189.7540  177.8650  142.7110 C   0  0  0  0  0  1  0  0  0  0  0  0
  190.7960  177.5050  143.7480 C   0  0  0  0  0  2  0  0  0  0  0  0
  190.9630  175.1900  145.4470 C   0  0  0  0  0  2  0  0  0  0  0  0
  192.0470  174.8510  146.2620 O   0  0  0  0  0  0  0  0  0  0  0  0
  192.7690  172.3990  144.8390 O   0  0  0  0  0  1  0  0  0  0  0  0
  193.1280  174.7040  145.3830 C   0  0  2  0  0  3  0  0  0  0  0  0
  193.6590  173.2730  145.4640 C   0  0  2  0  0  3  0  0  0  0  0  0
  193.8050  176.6910  146.5840 O   0  0  0  0  0  1  0  0  0  0  0  0
  194.6150  176.3710  144.4930 O   0  0  0  0  0  1  0  0  0  0  0  0
  196.0710  172.6900  145.7310 C   0  0  1  0  0  0  0  0  0  0  0  0
  194.2530  175.7230  145.6810 C   0  0  0  0  0  0  0  0  0  0  0  0
  195.0180  173.1930  144.7790 C   0  0  2  0  0  3  0  0  0  0  0  0
  197.1650  173.6610  146.0720 C   0  0  0  0  0  2  0  0  0  0  0  0
  196.7560  171.7850  144.9230 O   0  0  0  0  0  1  0  0  0  0  0  0
  195.3720  175.0650  146.2520 O   0  0  0  0  0  0  0  0  0  0  0  0
  196.0100  174.2140  145.3090 C   0  0  2  0  0  0  0  0  0  0  0  0
  2 15  1  6  0  0  0
  2  3  1  0  0  0  0
  2  4  1  0  0  0  0
  3  4  1  0  0  0  0
  3  7  1  1  0  0  0
  4  1  1  1  0  0  0
  5  9  1  6  0  0  0
  5  7  1  0  0  0  0
  5  6  1  0  0  0  0
  6  8  1  1  0  0  0
  7  6  1  0  0  0  0
 10  9  1  0  0  0  0
 11 10  1  0  0  0  0
 12 11  1  0  0  0  0
 13 12  1  0  0  0  0
 14 15  1  0  0  0  0
 16  4  1  0  0  0  0
 16 17  1  0  0  0  0
 18 20  1  0  0  0  0
 19 20  1  0  0  0  0
 19 24  1  0  0  0  0
 19 17  1  0  0  0  0
 22 24  1  0  0  0  0
 23 26  1  0  0  0  0
 24 28  1  0  0  0  0
 24 21  1  0  0  0  0
 25 29  1  0  0  0  0
 25 20  1  0  0  0  0
 25 23  1  0  0  0  0
 27 23  1  0  0  0  0
 29 23  1  0  0  0  0
 29 26  1  0  0  0  0
 29 28  1  0  0  0  0
M  END
>  <MODEL>
2

>  <REMARK>
 VINA RESULT:      -6.4      1.777      3.361
  Name = 
  9 active torsions:
  status: ('A' for Active; 'I' for Inactive)
    1  A    between atoms: O_1  and  C_28
    2  A    between atoms: C_2  and  O_29
    3  A    between atoms: C_3  and  C_23
    4  A    between atoms: C_3  and  O_25
    5  A    between atoms: C_6  and  O_25
    6  A    between atoms: C_13  and  C_15
    7  A    between atoms: C_14  and  C_27
    8  A    between atoms: C_26  and  C_28
    9  A    between atoms: C_26  and  O_29
                            x       y       z     vdW  Elec       q    Type
                         _______ _______ _______ _____ _____    ______ ____

>  <TORSDO>
F 9

$$$$
=
 OpenBabel11062422583D

 29 33  0  0  1  0  0  0  0  0999 V2000
  190.1460  174.1920  144.3740 C   0  0  0  0  0  1  0  0  0  0  0  0
  188.5890  175.8860  145.4900 C   0  0  1  0  0  3  0  0  0  0  0  0
  188.8550  176.4620  144.1030 C   0  0  1  0  0  3  0  0  0  0  0  0
  189.9300  175.6360  144.8060 C   0  0  2  0  0  0  0  0  0  0  0  0
  186.7870  176.3930  142.5920 C   0  0  1  0  0  3  0  0  0  0  0  0
  188.0490  176.4230  141.7520 C   0  0  1  0  0  3  0  0  0  0  0  0
  188.0510  175.6730  143.0690 C   0  0  1  0  0  3  0  0  0  0  0  0
  187.9270  175.5100  140.7070 O   0  0  0  0  0  1  0  0  0  0  0  0
  186.6110  177.6330  143.2130 O   0  0  0  0  0  0  0  0  0  0  0  0
  185.6050  178.2570  142.4760 C   0  0  0  0  0  2  0  0  0  0  0  0
  184.4590  178.6440  143.3930 C   0  0  0  0  0  2  0  0  0  0  0  0
  184.5740  177.9670  144.6060 O   0  0  0  0  0  0  0  0  0  0  0  0
  184.0560  178.8510  145.5520 C   0  0  0  0  0  1  0  0  0  0  0  0
  187.1990  177.3450  146.9360 C   0  0  0  0  0  1  0  0  0  0  0  0
  188.6140  177.0150  146.5100 C   0  0  0  0  0  2  0  0  0  0  0  0
  191.1450  176.4290  145.2750 C   0  0  0  0  0  2  0  0  0  0  0  0
  192.2690  175.6000  145.3220 O   0  0  0  0  0  0  0  0  0  0  0  0
  192.6450  175.7350  142.4240 O   0  0  0  0  0  1  0  0  0  0  0  0
  193.2740  176.3160  144.6610 C   0  0  2  0  0  3  0  0  0  0  0  0
  193.6570  175.5860  143.3730 C   0  0  2  0  0  3  0  0  0  0  0  0
  194.2260  176.1680  146.8800 O   0  0  0  0  0  1  0  0  0  0  0  0
  194.8740  177.8780  145.5450 O   0  0  0  0  0  1  0  0  0  0  0  0
  196.0050  175.0900  142.6920 C   0  0  1  0  0  0  0  0  0  0  0  0
  194.5160  176.5250  145.5600 C   0  0  0  0  0  0  0  0  0  0  0  0
  194.9570  176.1620  142.8260 C   0  0  2  0  0  3  0  0  0  0  0  0
  197.2130  175.2390  143.5720 C   0  0  0  0  0  2  0  0  0  0  0  0
  196.5430  175.3930  141.4420 O   0  0  0  0  0  1  0  0  0  0  0  0
  195.5920  175.7180  145.1070 O   0  0  0  0  0  0  0  0  0  0  0  0
  196.0810  176.1660  143.8490 C   0  0  2  0  0  0  0  0  0  0  0  0
  2 15  1  1  0  0  0
  3  7  1  6  0  0  0
  3  4  1  0  0  0  0
  3  2  1  0  0  0  0
  4  1  1  6  0  0  0
  4 16  1  0  0  0  0
  4  2  1  0  0  0  0
  5  7  1  0  0  0  0
  5  9  1  1  0  0  0
  6  8  1  6  0  0  0
  6  5  1  0  0  0  0
  6  7  1  0  0  0  0
 10  9  1  0  0  0  0
 10 11  1  0  0  0  0
 11 12  1  0  0  0  0
 12 13  1  0  0  0  0
 15 14  1  0  0  0  0
 16 17  1  0  0  0  0
 18 20  1  0  0  0  0
 19 17  1  0  0  0  0
 19 24  1  0  0  0  0
 20 19  1  0  0  0  0
 22 24  1  0  0  0  0
 23 25  1  0  0  0  0
 23 26  1  0  0  0  0
 23 29  1  0  0  0  0
 24 21  1  0  0  0  0
 25 20  1  0  0  0  0
 25 29  1  0  0  0  0
 26 29  1  0  0  0  0
 27 23  1  0  0  0  0
 28 24  1  0  0  0  0
 29 28  1  0  0  0  0
M  END
>  <MODEL>
3

>  <REMARK>
 VINA RESULT:      -6.1      1.473      1.832
  Name = 
  9 active torsions:
  status: ('A' for Active; 'I' for Inactive)
    1  A    between atoms: O_1  and  C_28
    2  A    between atoms: C_2  and  O_29
    3  A    between atoms: C_3  and  C_23
    4  A    between atoms: C_3  and  O_25
    5  A    between atoms: C_6  and  O_25
    6  A    between atoms: C_13  and  C_15
    7  A    between atoms: C_14  and  C_27
    8  A    between atoms: C_26  and  C_28
    9  A    between atoms: C_26  and  O_29
                            x       y       z     vdW  Elec       q    Type
                         _______ _______ _______ _____ _____    ______ ____

>  <TORSDO>
F 9

$$$$
=
 OpenBabel11062422583D

 29 33  0  0  1  0  0  0  0  0999 V2000
  189.6260  173.6350  144.7130 C   0  0  0  0  0  1  0  0  0  0  0  0
  191.6540  174.6430  143.5250 C   0  0  1  0  0  3  0  0  0  0  0  0
  191.3540  175.6110  144.6650 C   0  0  1  0  0  3  0  0  0  0  0  0
  190.2170  174.8420  143.9970 C   0  0  2  0  0  0  0  0  0  0  0  0
  193.0030  175.7320  146.6230 C   0  0  1  0  0  3  0  0  0  0  0  0
  191.5890  175.9770  147.1120 C   0  0  1  0  0  3  0  0  0  0  0  0
  191.8240  174.9950  145.9830 C   0  0  1  0  0  3  0  0  0  0  0  0
  191.3830  175.2730  148.2960 O   0  0  0  0  0  1  0  0  0  0  0  0
  193.4280  176.8230  145.8600 O   0  0  0  0  0  0  0  0  0  0  0  0
  194.8150  176.6870  145.7920 C   0  0  0  0  0  2  0  0  0  0  0  0
  195.2260  176.2990  144.3840 C   0  0  0  0  0  2  0  0  0  0  0  0
  196.1430  175.2490  144.4300 O   0  0  0  0  0  0  0  0  0  0  0  0
  195.6880  174.3440  143.4720 C   0  0  0  0  0  1  0  0  0  0  0  0
  192.6170  174.5140  141.2420 C   0  0  0  0  0  1  0  0  0  0  0  0
  192.0140  175.4390  142.2790 C   0  0  0  0  0  2  0  0  0  0  0  0
  189.2820  175.6910  143.1430 C   0  0  0  0  0  2  0  0  0  0  0  0
  187.9730  175.5940  143.6240 O   0  0  0  0  0  0  0  0  0  0  0  0
  188.3830  176.6960  146.3020 O   0  0  0  0  0  1  0  0  0  0  0  0
  187.6400  176.8910  144.0330 C   0  0  2  0  0  3  0  0  0  0  0  0
  187.2480  176.8730  145.5110 C   0  0  2  0  0  3  0  0  0  0  0  0
  186.2690  176.6900  142.0510 O   0  0  0  0  0  1  0  0  0  0  0  0
  186.8850  178.7620  142.7260 O   0  0  0  0  0  1  0  0  0  0  0  0
  185.1910  177.9510  146.4240 C   0  0  1  0  0  0  0  0  0  0  0  0
  186.5030  177.4900  143.1720 C   0  0  0  0  0  0  0  0  0  0  0  0
  186.5730  178.1900  145.8760 C   0  0  2  0  0  3  0  0  0  0  0  0
  184.0560  178.4900  145.6000 C   0  0  0  0  0  2  0  0  0  0  0  0
  185.1760  178.8260  147.5090 O   0  0  0  0  0  1  0  0  0  0  0  0
  185.3040  177.5650  143.9260 O   0  0  0  0  0  0  0  0  0  0  0  0
  185.4040  178.5290  144.9660 C   0  0  2  0  0  0  0  0  0  0  0  0
  2 15  1  6  0  0  0
  2  4  1  0  0  0  0
  2  3  1  0  0  0  0
  3  7  1  1  0  0  0
  4  3  1  0  0  0  0
  4  1  1  1  0  0  0
  5  9  1  6  0  0  0
  5  6  1  0  0  0  0
  6  8  1  1  0  0  0
  7  5  1  0  0  0  0
  7  6  1  0  0  0  0
 10  9  1  0  0  0  0
 11 12  1  0  0  0  0
 11 10  1  0  0  0  0
 13 12  1  0  0  0  0
 14 15  1  0  0  0  0
 16 17  1  0  0  0  0
 16  4  1  0  0  0  0
 17 19  1  0  0  0  0
 19 20  1  0  0  0  0
 20 25  1  0  0  0  0
 20 18  1  0  0  0  0
 21 24  1  0  0  0  0
 22 24  1  0  0  0  0
 23 27  1  0  0  0  0
 24 28  1  0  0  0  0
 24 19  1  0  0  0  0
 25 23  1  0  0  0  0
 26 23  1  0  0  0  0
 28 29  1  0  0  0  0
 29 26  1  0  0  0  0
 29 25  1  0  0  0  0
 29 23  1  0  0  0  0
M  END
>  <MODEL>
4

>  <REMARK>
 VINA RESULT:      -6.0      1.804      8.326
  Name = 
  9 active torsions:
  status: ('A' for Active; 'I' for Inactive)
    1  A    between atoms: O_1  and  C_28
    2  A    between atoms: C_2  and  O_29
    3  A    between atoms: C_3  and  C_23
    4  A    between atoms: C_3  and  O_25
    5  A    between atoms: C_6  and  O_25
    6  A    between atoms: C_13  and  C_15
    7  A    between atoms: C_14  and  C_27
    8  A    between atoms: C_26  and  C_28
    9  A    between atoms: C_26  and  O_29
                            x       y       z     vdW  Elec       q    Type
                         _______ _______ _______ _____ _____    ______ ____

>  <TORSDO>
F 9

$$$$
=
 OpenBabel11062422583D

 29 33  0  0  1  0  0  0  0  0999 V2000
  188.8890  175.0720  147.0440 C   0  0  0  0  0  1  0  0  0  0  0  0
  189.9590  177.0680  145.8540 C   0  0  1  0  0  3  0  0  0  0  0  0
  188.6880  176.7800  145.0600 C   0  0  1  0  0  3  0  0  0  0  0  0
  189.4380  175.6380  145.7410 C   0  0  2  0  0  0  0  0  0  0  0  0
  186.5500  178.1930  145.0450 C   0  0  1  0  0  3  0  0  0  0  0  0
  186.2090  176.7280  145.2340 C   0  0  1  0  0  3  0  0  0  0  0  0
  187.4780  177.2800  145.8500 C   0  0  1  0  0  3  0  0  0  0  0  0
  185.2360  176.6070  146.2230 O   0  0  0  0  0  1  0  0  0  0  0  0
  187.0060  178.4000  143.7400 O   0  0  0  0  0  0  0  0  0  0  0  0
  185.9330  179.0050  143.0840 C   0  0  0  0  0  2  0  0  0  0  0  0
  185.6210  178.2500  141.8040 C   0  0  0  0  0  2  0  0  0  0  0  0
  186.7740  178.1350  141.0290 O   0  0  0  0  0  0  0  0  0  0  0  0
  186.3590  177.4560  139.8830 C   0  0  0  0  0  1  0  0  0  0  0  0
  190.5730  178.3230  143.8050 C   0  0  0  0  0  1  0  0  0  0  0  0
  191.0860  177.3960  144.8870 C   0  0  0  0  0  2  0  0  0  0  0  0
  190.1470  174.6790  144.7920 C   0  0  0  0  0  2  0  0  0  0  0  0
  189.2140  174.0380  143.9720 O   0  0  0  0  0  0  0  0  0  0  0  0
  188.9790  176.0240  141.8360 O   0  0  0  0  0  1  0  0  0  0  0  0
  189.8280  173.9630  142.7150 C   0  0  2  0  0  3  0  0  0  0  0  0
  188.9360  174.6390  141.6730 C   0  0  2  0  0  3  0  0  0  0  0  0
  189.9470  171.6470  143.4020 O   0  0  0  0  0  1  0  0  0  0  0  0
  191.4670  172.4040  141.9030 O   0  0  0  0  0  1  0  0  0  0  0  0
  188.3260  173.6140  139.4810 C   0  0  1  0  0  0  0  0  0  0  0  0
  190.1310  172.5010  142.3110 C   0  0  0  0  0  0  0  0  0  0  0  0
  189.4210  174.2760  140.2740 C   0  0  2  0  0  3  0  0  0  0  0  0
  188.5680  172.1830  139.0960 C   0  0  0  0  0  2  0  0  0  0  0  0
  188.4620  174.2510  138.2490 O   0  0  0  0  0  1  0  0  0  0  0  0
  189.2590  172.0890  141.2700 O   0  0  0  0  0  0  0  0  0  0  0  0
  189.5380  172.7770  140.0580 C   0  0  2  0  0  0  0  0  0  0  0  0
  2 15  1  6  0  0  0
  3  4  1  0  0  0  0
  3  7  1  1  0  0  0
  3  2  1  0  0  0  0
  4  2  1  0  0  0  0
  4  1  1  1  0  0  0
  5  9  1  6  0  0  0
  5  6  1  0  0  0  0
  5  7  1  0  0  0  0
  6  7  1  0  0  0  0
  6  8  1  1  0  0  0
 10  9  1  0  0  0  0
 11 10  1  0  0  0  0
 12 11  1  0  0  0  0
 13 12  1  0  0  0  0
 14 15  1  0  0  0  0
 16  4  1  0  0  0  0
 17 16  1  0  0  0  0
 19 17  1  0  0  0  0
 20 18  1  0  0  0  0
 20 19  1  0  0  0  0
 22 24  1  0  0  0  0
 23 29  1  0  0  0  0
 23 25  1  0  0  0  0
 24 19  1  0  0  0  0
 24 21  1  0  0  0  0
 25 20  1  0  0  0  0
 26 23  1  0  0  0  0
 26 29  1  0  0  0  0
 27 23  1  0  0  0  0
 28 24  1  0  0  0  0
 29 25  1  0  0  0  0
 29 28  1  0  0  0  0
M  END
>  <MODEL>
5

>  <REMARK>
 VINA RESULT:      -6.0      3.385      5.550
  Name = 
  9 active torsions:
  status: ('A' for Active; 'I' for Inactive)
    1  A    between atoms: O_1  and  C_28
    2  A    between atoms: C_2  and  O_29
    3  A    between atoms: C_3  and  C_23
    4  A    between atoms: C_3  and  O_25
    5  A    between atoms: C_6  and  O_25
    6  A    between atoms: C_13  and  C_15
    7  A    between atoms: C_14  and  C_27
    8  A    between atoms: C_26  and  C_28
    9  A    between atoms: C_26  and  O_29
                            x       y       z     vdW  Elec       q    Type
                         _______ _______ _______ _____ _____    ______ ____

>  <TORSDO>
F 9

$$$$
=
 OpenBabel11062422583D

 29 33  0  0  1  0  0  0  0  0999 V2000
  188.1400  175.1730  143.3700 C   0  0  0  0  0  1  0  0  0  0  0  0
  186.4430  176.6700  144.5610 C   0  0  1  0  0  3  0  0  0  0  0  0
  187.0140  177.5440  143.4490 C   0  0  1  0  0  3  0  0  0  0  0  0
  187.8880  176.4800  144.1090 C   0  0  2  0  0  0  0  0  0  0  0  0
  185.1070  177.8140  141.7590 C   0  0  1  0  0  3  0  0  0  0  0  0
  186.4160  178.2790  141.1510 C   0  0  1  0  0  3  0  0  0  0  0  0
  186.4180  177.1060  142.1100 C   0  0  1  0  0  3  0  0  0  0  0  0
  186.5110  177.8010  139.8460 O   0  0  0  0  0  1  0  0  0  0  0  0
  184.7060  178.7180  142.7480 O   0  0  0  0  0  0  0  0  0  0  0  0
  183.3120  178.6770  142.7180 C   0  0  0  0  0  2  0  0  0  0  0  0
  182.8290  178.5920  141.2820 C   0  0  0  0  0  2  0  0  0  0  0  0
  181.5880  177.9580  141.2350 O   0  0  0  0  0  0  0  0  0  0  0  0
  180.6820  178.9810  140.9590 C   0  0  0  0  0  1  0  0  0  0  0  0
  185.2180  176.9070  146.7050 C   0  0  0  0  0  1  0  0  0  0  0  0
  186.2930  177.5070  145.8230 C   0  0  0  0  0  2  0  0  0  0  0  0
  189.0040  177.0240  144.9940 C   0  0  0  0  0  2  0  0  0  0  0  0
  189.8970  176.0010  145.3240 O   0  0  0  0  0  0  0  0  0  0  0  0
  191.7170  177.4650  143.5630 O   0  0  0  0  0  1  0  0  0  0  0  0
  191.0680  176.6560  145.7230 C   0  0  2  0  0  3  0  0  0  0  0  0
  192.0940  176.5990  144.5910 C   0  0  2  0  0  3  0  0  0  0  0  0
  190.7330  175.1710  147.6030 O   0  0  0  0  0  1  0  0  0  0  0  0
  191.9080  177.0790  147.9350 O   0  0  0  0  0  1  0  0  0  0  0  0
  194.4730  175.9110  144.8940 C   0  0  1  0  0  0  0  0  0  0  0  0
  191.6520  176.0500  147.0210 C   0  0  0  0  0  0  0  0  0  0  0  0
  193.4640  177.0040  145.1220 C   0  0  2  0  0  3  0  0  0  0  0  0
  195.0410  175.2730  146.1300 C   0  0  0  0  0  2  0  0  0  0  0  0
  195.5690  176.6440  144.4420 O   0  0  0  0  0  1  0  0  0  0  0  0
  192.8390  175.3280  146.7350 O   0  0  0  0  0  0  0  0  0  0  0  0
  193.8910  176.1980  146.3370 C   0  0  2  0  0  0  0  0  0  0  0  0
  2 15  1  1  0  0  0
  3  7  1  6  0  0  0
  3  4  1  0  0  0  0
  3  2  1  0  0  0  0
  4  1  1  6  0  0  0
  4  2  1  0  0  0  0
  4 16  1  0  0  0  0
  5  7  1  0  0  0  0
  5  9  1  1  0  0  0
  6  8  1  6  0  0  0
  6  5  1  0  0  0  0
  6  7  1  0  0  0  0
 10  9  1  0  0  0  0
 11 10  1  0  0  0  0
 12 11  1  0  0  0  0
 13 12  1  0  0  0  0
 15 14  1  0  0  0  0
 16 17  1  0  0  0  0
 17 19  1  0  0  0  0
 18 20  1  0  0  0  0
 19 24  1  0  0  0  0
 20 25  1  0  0  0  0
 20 19  1  0  0  0  0
 23 25  1  0  0  0  0
 23 26  1  0  0  0  0
 23 29  1  0  0  0  0
 24 21  1  0  0  0  0
 24 22  1  0  0  0  0
 25 29  1  0  0  0  0
 26 29  1  0  0  0  0
 27 23  1  0  0  0  0
 28 24  1  0  0  0  0
 29 28  1  0  0  0  0
M  END
>  <MODEL>
6

>  <REMARK>
 VINA RESULT:      -5.9      2.116      2.730
  Name = 
  9 active torsions:
  status: ('A' for Active; 'I' for Inactive)
    1  A    between atoms: O_1  and  C_28
    2  A    between atoms: C_2  and  O_29
    3  A    between atoms: C_3  and  C_23
    4  A    between atoms: C_3  and  O_25
    5  A    between atoms: C_6  and  O_25
    6  A    between atoms: C_13  and  C_15
    7  A    between atoms: C_14  and  C_27
    8  A    between atoms: C_26  and  C_28
    9  A    between atoms: C_26  and  O_29
                            x       y       z     vdW  Elec       q    Type
                         _______ _______ _______ _____ _____    ______ ____

>  <TORSDO>
F 9

$$$$
=
 OpenBabel11062422583D

 29 33  0  0  1  0  0  0  0  0999 V2000
  188.4270  175.4000  141.9170 C   0  0  0  0  0  1  0  0  0  0  0  0
  187.8790  176.3120  144.2430 C   0  0  1  0  0  3  0  0  0  0  0  0
  187.5490  177.4580  143.2920 C   0  0  1  0  0  3  0  0  0  0  0  0
  188.6770  176.4860  142.9540 C   0  0  2  0  0  0  0  0  0  0  0  0
  185.1110  178.1370  142.8920 C   0  0  1  0  0  3  0  0  0  0  0  0
  185.9100  178.2750  141.6110 C   0  0  1  0  0  3  0  0  0  0  0  0
  186.2350  177.1500  142.5720 C   0  0  1  0  0  3  0  0  0  0  0  0
  185.1660  177.7680  140.5480 O   0  0  0  0  0  1  0  0  0  0  0  0
  185.5090  179.1250  143.7980 O   0  0  0  0  0  0  0  0  0  0  0  0
  184.3310  179.5090  144.4410 C   0  0  0  0  0  2  0  0  0  0  0  0
  184.2280  178.8130  145.7850 C   0  0  0  0  0  2  0  0  0  0  0  0
  185.3290  179.1430  146.5750 O   0  0  0  0  0  0  0  0  0  0  0  0
  185.5950  177.9860  147.3070 C   0  0  0  0  0  1  0  0  0  0  0  0
  188.5130  175.8540  146.5970 C   0  0  0  0  0  1  0  0  0  0  0  0
  188.5660  176.8740  145.4790 C   0  0  0  0  0  2  0  0  0  0  0  0
  190.0810  177.0760  143.0420 C   0  0  0  0  0  2  0  0  0  0  0  0
  191.0320  176.0970  142.7430 O   0  0  0  0  0  0  0  0  0  0  0  0
  192.7650  177.4780  144.6530 O   0  0  0  0  0  1  0  0  0  0  0  0
  191.4400  175.5970  143.9850 C   0  0  2  0  0  3  0  0  0  0  0  0
  192.8370  176.1270  144.3130 C   0  0  2  0  0  3  0  0  0  0  0  0
  190.7660  173.5500  142.8870 O   0  0  0  0  0  1  0  0  0  0  0  0
  190.7230  173.6200  145.1500 O   0  0  0  0  0  1  0  0  0  0  0  0
  194.7270  174.6970  145.0930 C   0  0  1  0  0  0  0  0  0  0  0  0
  191.4220  174.0500  144.0150 C   0  0  0  0  0  0  0  0  0  0  0  0
  193.4210  175.3390  145.4790 C   0  0  2  0  0  3  0  0  0  0  0  0
  194.7410  173.1950  145.0790 C   0  0  0  0  0  2  0  0  0  0  0  0
  195.5030  174.9630  146.2190 O   0  0  0  0  0  1  0  0  0  0  0  0
  192.7470  173.5430  144.0220 O   0  0  0  0  0  0  0  0  0  0  0  0
  193.4080  173.8380  145.2460 C   0  0  2  0  0  0  0  0  0  0  0  0
  2 15  1  1  0  0  0
  3  7  1  6  0  0  0
  3  2  1  0  0  0  0
  4  1  1  6  0  0  0
  4 16  1  0  0  0  0
  4  3  1  0  0  0  0
  4  2  1  0  0  0  0
  5  9  1  1  0  0  0
  6  8  1  6  0  0  0
  6  7  1  0  0  0  0
  6  5  1  0  0  0  0
  7  5  1  0  0  0  0
  9 10  1  0  0  0  0
 10 11  1  0  0  0  0
 11 12  1  0  0  0  0
 12 13  1  0  0  0  0
 15 14  1  0  0  0  0
 17 16  1  0  0  0  0
 17 19  1  0  0  0  0
 19 24  1  0  0  0  0
 19 20  1  0  0  0  0
 20 18  1  0  0  0  0
 20 25  1  0  0  0  0
 21 24  1  0  0  0  0
 23 29  1  0  0  0  0
 23 25  1  0  0  0  0
 23 27  1  0  0  0  0
 24 28  1  0  0  0  0
 24 22  1  0  0  0  0
 26 23  1  0  0  0  0
 26 29  1  0  0  0  0
 28 29  1  0  0  0  0
 29 25  1  0  0  0  0
M  END
>  <MODEL>
7

>  <REMARK>
 VINA RESULT:      -5.9      1.499      2.062
  Name = 
  9 active torsions:
  status: ('A' for Active; 'I' for Inactive)
    1  A    between atoms: O_1  and  C_28
    2  A    between atoms: C_2  and  O_29
    3  A    between atoms: C_3  and  C_23
    4  A    between atoms: C_3  and  O_25
    5  A    between atoms: C_6  and  O_25
    6  A    between atoms: C_13  and  C_15
    7  A    between atoms: C_14  and  C_27
    8  A    between atoms: C_26  and  C_28
    9  A    between atoms: C_26  and  O_29
                            x       y       z     vdW  Elec       q    Type
                         _______ _______ _______ _____ _____    ______ ____

>  <TORSDO>
F 9

$$$$
=
 OpenBabel11062422583D

 29 33  0  0  1  0  0  0  0  0999 V2000
  190.6560  176.6480  147.1680 C   0  0  0  0  0  1  0  0  0  0  0  0
  191.4070  174.6070  145.8220 C   0  0  1  0  0  3  0  0  0  0  0  0
  192.1840  175.7740  145.2200 C   0  0  1  0  0  3  0  0  0  0  0  0
  190.7880  176.0020  145.7960 C   0  0  2  0  0  0  0  0  0  0  0  0
  194.6800  175.6040  145.7730 C   0  0  1  0  0  3  0  0  0  0  0  0
  194.3150  177.0350  145.4330 C   0  0  1  0  0  3  0  0  0  0  0  0
  193.3150  176.1690  146.1700 C   0  0  1  0  0  3  0  0  0  0  0  0
  194.9320  177.8950  146.3400 O   0  0  0  0  0  1  0  0  0  0  0  0
  194.6180  174.8200  144.6170 O   0  0  0  0  0  0  0  0  0  0  0  0
  195.9260  174.3770  144.4210 C   0  0  0  0  0  2  0  0  0  0  0  0
  196.3860  174.7340  143.0190 C   0  0  0  0  0  2  0  0  0  0  0  0
  197.5810  175.4500  143.0810 O   0  0  0  0  0  0  0  0  0  0  0  0
  197.1850  176.7860  143.1380 C   0  0  0  0  0  1  0  0  0  0  0  0
  189.7830  172.8410  145.1950 C   0  0  0  0  0  1  0  0  0  0  0  0
  190.9310  173.6950  144.7010 C   0  0  0  0  0  2  0  0  0  0  0  0
  189.7070  176.2980  144.7620 C   0  0  0  0  0  2  0  0  0  0  0  0
  188.9330  177.3850  145.1760 O   0  0  0  0  0  0  0  0  0  0  0  0
  187.7010  176.7170  142.6080 O   0  0  0  0  0  1  0  0  0  0  0  0
  187.6070  176.9780  144.9880 C   0  0  2  0  0  3  0  0  0  0  0  0
  187.1120  177.4680  143.6260 C   0  0  2  0  0  3  0  0  0  0  0  0
  187.4450  178.0080  147.1700 O   0  0  0  0  0  1  0  0  0  0  0  0
  185.9320  176.4160  146.6180 O   0  0  0  0  0  1  0  0  0  0  0  0
  184.9470  178.6550  143.2700 C   0  0  1  0  0  0  0  0  0  0  0  0
  186.6840  177.4870  146.1200 C   0  0  0  0  0  0  0  0  0  0  0  0
  185.5960  177.3270  143.5520 C   0  0  2  0  0  3  0  0  0  0  0  0
  184.0670  179.2000  144.3580 C   0  0  0  0  0  2  0  0  0  0  0  0
  183.9990  178.2950  142.3130 O   0  0  0  0  0  1  0  0  0  0  0  0
  185.8320  178.5120  145.6350 O   0  0  0  0  0  0  0  0  0  0  0  0
  184.8810  178.0020  144.7090 C   0  0  2  0  0  0  0  0  0  0  0  0
  2 15  1  6  0  0  0
  3  4  1  0  0  0  0
  3  2  1  0  0  0  0
  3  7  1  1  0  0  0
  4  2  1  0  0  0  0
  4  1  1  1  0  0  0
  5  9  1  6  0  0  0
  5  7  1  0  0  0  0
  6  5  1  0  0  0  0
  6  7  1  0  0  0  0
  6  8  1  1  0  0  0
 10  9  1  0  0  0  0
 11 12  1  0  0  0  0
 11 10  1  0  0  0  0
 12 13  1  0  0  0  0
 15 14  1  0  0  0  0
 16 17  1  0  0  0  0
 16  4  1  0  0  0  0
 18 20  1  0  0  0  0
 19 17  1  0  0  0  0
 19 24  1  0  0  0  0
 20 19  1  0  0  0  0
 23 25  1  0  0  0  0
 23 26  1  0  0  0  0
 23 29  1  0  0  0  0
 24 22  1  0  0  0  0
 24 21  1  0  0  0  0
 25 20  1  0  0  0  0
 25 29  1  0  0  0  0
 26 29  1  0  0  0  0
 27 23  1  0  0  0  0
 28 24  1  0  0  0  0
 29 28  1  0  0  0  0
M  END
>  <MODEL>
8

>  <REMARK>
 VINA RESULT:      -5.8      1.859      8.713
  Name = 
  9 active torsions:
  status: ('A' for Active; 'I' for Inactive)
    1  A    between atoms: O_1  and  C_28
    2  A    between atoms: C_2  and  O_29
    3  A    between atoms: C_3  and  C_23
    4  A    between atoms: C_3  and  O_25
    5  A    between atoms: C_6  and  O_25
    6  A    between atoms: C_13  and  C_15
    7  A    between atoms: C_14  and  C_27
    8  A    between atoms: C_26  and  C_28
    9  A    between atoms: C_26  and  O_29
                            x       y       z     vdW  Elec       q    Type
                         _______ _______ _______ _____ _____    ______ ____

>  <TORSDO>
F 9

$$$$
=
 OpenBabel11062422583D

 29 33  0  0  1  0  0  0  0  0999 V2000
  191.7140  177.5590  144.3090 C   0  0  0  0  0  1  0  0  0  0  0  0
  191.0240  175.4970  145.6560 C   0  0  1  0  0  3  0  0  0  0  0  0
  191.8870  174.9480  144.5250 C   0  0  1  0  0  3  0  0  0  0  0  0
  191.0360  176.1950  144.3000 C   0  0  2  0  0  0  0  0  0  0  0  0
  194.2100  173.9990  145.0450 C   0  0  1  0  0  3  0  0  0  0  0  0
  194.2200  174.7030  143.7030 C   0  0  1  0  0  3  0  0  0  0  0  0
  193.3570  175.2500  144.8210 C   0  0  1  0  0  3  0  0  0  0  0  0
  195.3750  175.4760  143.5970 O   0  0  0  0  0  1  0  0  0  0  0  0
  193.4660  172.8200  144.9480 O   0  0  0  0  0  0  0  0  0  0  0  0
  194.3950  171.8460  144.5830 C   0  0  0  0  0  2  0  0  0  0  0  0
  194.2340  170.6230  145.4670 C   0  0  0  0  0  2  0  0  0  0  0  0
  195.4360  170.3490  146.1190 O   0  0  0  0  0  0  0  0  0  0  0  0
  195.1680  169.2130  146.8830 C   0  0  0  0  0  1  0  0  0  0  0  0
  189.2910  174.7590  147.2690 C   0  0  0  0  0  1  0  0  0  0  0  0
  189.8350  174.5720  145.8690 C   0  0  0  0  0  2  0  0  0  0  0  0
  189.8420  176.0000  143.3710 C   0  0  0  0  0  2  0  0  0  0  0  0
  189.1100  177.1870  143.2760 O   0  0  0  0  0  0  0  0  0  0  0  0
  187.0660  176.4850  141.3030 O   0  0  0  0  0  1  0  0  0  0  0  0
  187.7890  176.8210  143.5630 C   0  0  2  0  0  3  0  0  0  0  0  0
  186.8750  177.2870  142.4290 C   0  0  2  0  0  3  0  0  0  0  0  0
  188.4000  177.9220  145.6280 O   0  0  0  0  0  1  0  0  0  0  0  0
  186.7530  176.3680  145.6840 O   0  0  0  0  0  1  0  0  0  0  0  0
  184.7440  178.5390  142.7770 C   0  0  1  0  0  0  0  0  0  0  0  0
  187.3160  177.3970  144.9180 C   0  0  0  0  0  0  0  0  0  0  0  0
  185.4200  177.1970  142.8770 C   0  0  2  0  0  3  0  0  0  0  0  0
  184.2980  179.1470  144.0760 C   0  0  0  0  0  2  0  0  0  0  0  0
  183.5210  178.1830  142.2120 O   0  0  0  0  0  1  0  0  0  0  0  0
  186.3740  178.4360  144.7080 O   0  0  0  0  0  0  0  0  0  0  0  0
  185.1550  177.9320  144.1800 C   0  0  2  0  0  0  0  0  0  0  0  0
  2 15  1  6  0  0  0
  3  7  1  1  0  0  0
  3  2  1  0  0  0  0
  4  1  1  6  0  0  0
  4  3  1  0  0  0  0
  4  2  1  0  0  0  0
  5  9  1  6  0  0  0
  6  8  1  1  0  0  0
  6  7  1  0  0  0  0
  6  5  1  0  0  0  0
  7  5  1  0  0  0  0
 10  9  1  0  0  0  0
 10 11  1  0  0  0  0
 11 12  1  0  0  0  0
 12 13  1  0  0  0  0
 15 14  1  0  0  0  0
 16  4  1  0  0  0  0
 17 16  1  0  0  0  0
 17 19  1  0  0  0  0
 18 20  1  0  0  0  0
 19 24  1  0  0  0  0
 20 25  1  0  0  0  0
 20 19  1  0  0  0  0
 23 25  1  0  0  0  0
 23 26  1  0  0  0  0
 23 29  1  0  0  0  0
 24 21  1  0  0  0  0
 24 22  1  0  0  0  0
 25 29  1  0  0  0  0
 26 29  1  0  0  0  0
 27 23  1  0  0  0  0
 28 24  1  0  0  0  0
 29 28  1  0  0  0  0
M  END
>  <MODEL>
9

>  <REMARK>
 VINA RESULT:      -5.8      2.320      8.613
  Name = 
  9 active torsions:
  status: ('A' for Active; 'I' for Inactive)
    1  A    between atoms: O_1  and  C_28
    2  A    between atoms: C_2  and  O_29
    3  A    between atoms: C_3  and  C_23
    4  A    between atoms: C_3  and  O_25
    5  A    between atoms: C_6  and  O_25
    6  A    between atoms: C_13  and  C_15
    7  A    between atoms: C_14  and  C_27
    8  A    between atoms: C_26  and  C_28
    9  A    between atoms: C_26  and  O_29
                            x       y       z     vdW  Elec       q    Type
                         _______ _______ _______ _____ _____    ______ ____

>  <TORSDO>
F 9

$$$$
