=
 OpenBabel11062421523D

 37 40  0  0  1  0  0  0  0  0999 V2000
  192.0550  176.0060  144.8440 C   0  0  1  0  0  3  0  0  0  0  0  0
  189.5640  176.3220  145.1860 C   0  0  0  0  0  3  0  0  0  0  0  0
  187.2020  176.5610  145.5750 O   0  0  0  0  0  0  0  0  0  0  0  0
  185.3310  177.9070  144.6770 C   0  0  1  0  0  3  0  0  0  0  0  0
  186.3440  178.8040  144.2900 O   0  0  0  0  0  0  0  0  0  0  0  0
  188.3270  176.8310  144.7790 C   0  0  0  0  0  0  0  0  0  0  0  0
  188.2540  177.6080  143.6000 C   0  0  0  0  0  0  0  0  0  0  0  0
  189.4060  177.8290  142.8400 C   0  0  0  0  0  3  0  0  0  0  0  0
  190.7180  176.5490  144.4240 C   0  0  0  0  0  0  0  0  0  0  0  0
  185.8690  176.5150  145.0670 C   0  0  0  0  0  2  0  0  0  0  0  0
  190.6320  177.2980  143.2480 C   0  0  0  0  0  3  0  0  0  0  0  0
  186.9770  178.2510  143.1690 C   0  0  0  0  0  2  0  0  0  0  0  0
  184.1220  177.5180  146.6940 F   0  0  0  0  0  0  0  0  0  0  0  0
  184.5120  178.5110  145.8140 C   0  0  0  0  0  0  0  0  0  0  0  0
  183.3810  179.1160  145.2980 F   0  0  0  0  0  0  0  0  0  0  0  0
  185.2600  179.4560  146.4940 F   0  0  0  0  0  0  0  0  0  0  0  0
  193.9260  176.7230  146.4280 C   0  0  0  0  0  1  0  0  0  0  0  0
  192.1040  175.2310  147.2430 C   0  0  0  0  0  1  0  0  0  0  0  0
  192.4580  176.3520  146.2860 C   0  0  0  0  0  3  0  0  0  0  0  0
  192.1990  174.2190  144.5010 S   0  0  0  0  0  0  0  0  0  0  0  0
  193.6430  173.0740  141.1190 C   0  0  0  0  0  2  0  0  0  0  0  0
  195.4700  174.8340  141.0140 N   0  0  0  0  0  0  0  0  0  0  0  0
  195.3380  175.4050  142.1810 C   0  0  0  0  0  0  0  0  0  0  0  0
  192.6670  174.0740  141.6760 C   0  0  2  0  0  3  0  0  0  0  0  0
  194.3380  175.0590  143.1610 N   0  0  0  0  0  0  0  0  0  0  0  0
  196.2880  176.4000  142.5410 N   0  0  0  0  0  1  0  0  0  0  0  0
  194.7130  173.7890  140.4530 N   0  0  0  0  0  2  0  0  0  0  0  0
  193.1820  174.4850  143.0190 C   0  0  0  0  0  0  0  0  0  0  0  0
  188.2250  172.6530  139.6530 C   0  0  0  0  0  2  0  0  0  0  0  0
  189.9810  173.6900  138.2870 C   0  0  0  0  0  2  0  0  0  0  0  0
  189.0200  172.5150  138.3660 C   0  0  0  0  0  2  0  0  0  0  0  0
  189.1580  172.5810  140.8630 C   0  0  1  0  0  3  0  0  0  0  0  0
  191.3440  173.4700  141.7740 N   0  0  0  0  0  2  0  0  0  0  0  0
  190.8150  173.7690  139.4860 N   0  0  0  0  0  0  0  0  0  0  0  0
  190.4470  173.3470  140.6650 C   0  0  0  0  0  0  0  0  0  0  0  0
  188.4290  173.0690  142.1060 C   0  0  0  0  0  2  0  0  0  0  0  0
  188.0340  174.3960  141.9390 O   0  0  0  0  0  1  0  0  0  0  0  0
  1 20  1  1  0  0  0
  1 19  1  0  0  0  0
  4 10  1  0  0  0  0
  4 14  1  1  0  0  0
  5  4  1  0  0  0  0
  6  2  1  0  0  0  0
  6  3  1  0  0  0  0
  7  6  2  0  0  0  0
  8 11  2  0  0  0  0
  8  7  1  0  0  0  0
  9  1  1  0  0  0  0
  9  2  2  0  0  0  0
 10  3  1  0  0  0  0
 11  9  1  0  0  0  0
 12  7  1  0  0  0  0
 12  5  1  0  0  0  0
 14 16  1  0  0  0  0
 14 13  1  0  0  0  0
 15 14  1  0  0  0  0
 19 17  1  0  0  0  0
 19 18  1  0  0  0  0
 21 24  1  0  0  0  0
 22 23  2  0  0  0  0
 23 26  1  0  0  0  0
 23 25  1  0  0  0  0
 24 33  1  1  0  0  0
 24 28  1  0  0  0  0
 27 22  1  0  0  0  0
 27 21  1  0  0  0  0
 28 25  2  0  0  0  0
 28 20  1  0  0  0  0
 29 32  1  0  0  0  0
 30 31  1  0  0  0  0
 30 34  1  0  0  0  0
 31 29  1  0  0  0  0
 32 36  1  1  0  0  0
 34 35  2  0  0  0  0
 35 32  1  0  0  0  0
 35 33  1  0  0  0  0
 37 36  1  0  0  0  0
M  END
>  <MODEL>
1

>  <REMARK>
 VINA RESULT:      -7.8      0.000      0.000
  Name = 
  7 active torsions:
  status: ('A' for Active; 'I' for Inactive)
    1  A    between atoms: C_7  and  C_16
    2  A    between atoms: C_13  and  C_29
    3  A    between atoms: C_15  and  S_21
    4  A    between atoms: C_15  and  C_22
    5  A    between atoms: C_15  and  C_23
    6  A    between atoms: N_17  and  C_25
    7  A    between atoms: S_21  and  C_32
                            x       y       z     vdW  Elec       q    Type
                         _______ _______ _______ _____ _____    ______ ____

>  <TORSDO>
F 7

$$$$
=
 OpenBabel11062421523D

 37 40  0  0  1  0  0  0  0  0999 V2000
  190.1830  173.8760  141.5780 C   0  0  1  0  0  3  0  0  0  0  0  0
  188.2140  175.0240  142.6860 C   0  0  0  0  0  3  0  0  0  0  0  0
  186.2920  176.0510  143.7050 O   0  0  0  0  0  0  0  0  0  0  0  0
  185.8100  178.0190  145.1240 C   0  0  1  0  0  3  0  0  0  0  0  0
  187.1620  177.9030  145.5030 O   0  0  0  0  0  0  0  0  0  0  0  0
  187.6490  176.1180  143.3490 C   0  0  0  0  0  0  0  0  0  0  0  0
  188.4590  177.2360  143.6520 C   0  0  0  0  0  0  0  0  0  0  0  0
  189.8000  177.2510  143.2570 C   0  0  0  0  0  3  0  0  0  0  0  0
  189.5600  175.0410  142.2950 C   0  0  0  0  0  0  0  0  0  0  0  0
  185.4610  177.2000  143.8650 C   0  0  0  0  0  2  0  0  0  0  0  0
  190.3460  176.1600  142.5780 C   0  0  0  0  0  3  0  0  0  0  0  0
  187.9300  178.3910  144.4390 C   0  0  0  0  0  2  0  0  0  0  0  0
  184.7750  176.2530  146.3440 F   0  0  0  0  0  0  0  0  0  0  0  0
  184.9110  177.6290  146.2940 C   0  0  0  0  0  0  0  0  0  0  0  0
  183.6600  178.1930  146.1220 F   0  0  0  0  0  0  0  0  0  0  0  0
  185.4510  178.0780  147.4850 F   0  0  0  0  0  0  0  0  0  0  0  0
  188.6800  172.6520  139.9160 C   0  0  0  0  0  1  0  0  0  0  0  0
  190.9280  173.4590  139.2050 C   0  0  0  0  0  1  0  0  0  0  0  0
  189.7430  173.7210  140.1140 C   0  0  0  0  0  3  0  0  0  0  0  0
  192.0010  173.8660  141.7530 S   0  0  0  0  0  0  0  0  0  0  0  0
  193.5620  171.2910  144.1530 C   0  0  0  0  0  2  0  0  0  0  0  0
  192.2200  169.3080  143.3070 N   0  0  0  0  0  0  0  0  0  0  0  0
  191.5850  169.8450  142.3000 C   0  0  0  0  0  0  0  0  0  0  0  0
  192.3600  172.1890  144.0510 C   0  0  2  0  0  3  0  0  0  0  0  0
  191.6750  171.2310  141.9110 N   0  0  0  0  0  0  0  0  0  0  0  0
  190.7910  168.9890  141.4880 N   0  0  0  0  0  1  0  0  0  0  0  0
  193.1110  169.9150  144.2120 N   0  0  0  0  0  2  0  0  0  0  0  0
  192.0060  172.2800  142.6010 C   0  0  0  0  0  0  0  0  0  0  0  0
  191.0820  176.4250  146.5540 C   0  0  0  0  0  2  0  0  0  0  0  0
  189.4770  174.5990  146.2260 C   0  0  0  0  0  2  0  0  0  0  0  0
  190.0800  175.5320  147.2640 C   0  0  0  0  0  2  0  0  0  0  0  0
  192.2150  175.5850  145.9600 C   0  0  1  0  0  3  0  0  0  0  0  0
  192.6750  173.4990  144.6060 N   0  0  0  0  0  2  0  0  0  0  0  0
  190.5190  173.8610  145.5130 N   0  0  0  0  0  0  0  0  0  0  0  0
  191.7300  174.3050  145.3170 C   0  0  0  0  0  0  0  0  0  0  0  0
  193.0090  176.4200  144.9660 C   0  0  0  0  0  2  0  0  0  0  0  0
  194.0860  177.0310  145.6080 O   0  0  0  0  0  1  0  0  0  0  0  0
  1 19  1  6  0  0  0
  1 20  1  0  0  0  0
  1  9  1  0  0  0  0
  2  6  1  0  0  0  0
  3 10  1  0  0  0  0
  4  5  1  0  0  0  0
  4 14  1  1  0  0  0
  6  7  2  0  0  0  0
  6  3  1  0  0  0  0
  7 12  1  0  0  0  0
  8  7  1  0  0  0  0
  9 11  1  0  0  0  0
  9  2  2  0  0  0  0
 10  4  1  0  0  0  0
 11  8  2  0  0  0  0
 12  5  1  0  0  0  0
 14 13  1  0  0  0  0
 14 16  1  0  0  0  0
 15 14  1  0  0  0  0
 17 19  1  0  0  0  0
 18 19  1  0  0  0  0
 20 28  1  0  0  0  0
 21 27  1  0  0  0  0
 22 27  1  0  0  0  0
 23 22  2  0  0  0  0
 24 21  1  0  0  0  0
 24 33  1  6  0  0  0
 25 23  1  0  0  0  0
 25 28  2  0  0  0  0
 26 23  1  0  0  0  0
 28 24  1  0  0  0  0
 29 31  1  0  0  0  0
 30 31  1  0  0  0  0
 32 36  1  6  0  0  0
 32 29  1  0  0  0  0
 33 35  1  0  0  0  0
 34 30  1  0  0  0  0
 35 34  2  0  0  0  0
 35 32  1  0  0  0  0
 36 37  1  0  0  0  0
M  END
>  <MODEL>
2

>  <REMARK>
 VINA RESULT:      -7.6      2.517      5.133
  Name = 
  7 active torsions:
  status: ('A' for Active; 'I' for Inactive)
    1  A    between atoms: C_7  and  C_16
    2  A    between atoms: C_13  and  C_29
    3  A    between atoms: C_15  and  S_21
    4  A    between atoms: C_15  and  C_22
    5  A    between atoms: C_15  and  C_23
    6  A    between atoms: N_17  and  C_25
    7  A    between atoms: S_21  and  C_32
                            x       y       z     vdW  Elec       q    Type
                         _______ _______ _______ _____ _____    ______ ____

>  <TORSDO>
F 7

$$$$
=
 OpenBabel11062421523D

 37 40  0  0  1  0  0  0  0  0999 V2000
  192.4010  173.6590  141.7940 C   0  0  1  0  0  3  0  0  0  0  0  0
  190.3080  174.6290  142.8450 C   0  0  0  0  0  3  0  0  0  0  0  0
  188.2770  175.4790  143.8130 O   0  0  0  0  0  0  0  0  0  0  0  0
  187.5710  177.4380  145.1480 C   0  0  1  0  0  3  0  0  0  0  0  0
  188.9240  177.4860  145.5360 O   0  0  0  0  0  0  0  0  0  0  0  0
  189.6220  175.6800  143.4600 C   0  0  0  0  0  0  0  0  0  0  0  0
  190.3030  176.8920  143.7200 C   0  0  0  0  0  0  0  0  0  0  0  0
  191.6370  177.0370  143.3300 C   0  0  0  0  0  3  0  0  0  0  0  0
  191.6480  174.7770  142.4590 C   0  0  0  0  0  0  0  0  0  0  0  0
  187.3250  176.5360  143.9220 C   0  0  0  0  0  2  0  0  0  0  0  0
  192.3050  175.9860  142.6990 C   0  0  0  0  0  3  0  0  0  0  0  0
  189.6440  178.0120  144.4560 C   0  0  0  0  0  2  0  0  0  0  0  0
  186.4470  178.0830  147.1470 F   0  0  0  0  0  0  0  0  0  0  0  0
  186.7100  177.0000  146.3290 C   0  0  0  0  0  0  0  0  0  0  0  0
  187.3860  176.0430  147.0630 F   0  0  0  0  0  0  0  0  0  0  0  0
  185.5160  176.4660  145.8790 F   0  0  0  0  0  0  0  0  0  0  0  0
  192.0490  172.3090  139.6550 C   0  0  0  0  0  1  0  0  0  0  0  0
  193.6010  174.2590  139.6580 C   0  0  0  0  0  1  0  0  0  0  0  0
  192.3370  173.6740  140.2590 C   0  0  0  0  0  3  0  0  0  0  0  0
  194.1160  173.5370  142.4080 S   0  0  0  0  0  0  0  0  0  0  0  0
  194.8240  171.2350  145.4130 C   0  0  0  0  0  2  0  0  0  0  0  0
  193.4140  169.2930  144.5840 N   0  0  0  0  0  0  0  0  0  0  0  0
  193.0630  169.7240  143.4020 C   0  0  0  0  0  0  0  0  0  0  0  0
  193.7980  172.2250  144.9380 C   0  0  2  0  0  3  0  0  0  0  0  0
  193.4130  171.0100  142.8540 N   0  0  0  0  0  0  0  0  0  0  0  0
  192.3310  168.8350  142.5670 N   0  0  0  0  0  1  0  0  0  0  0  0
  194.1890  169.9420  145.5640 N   0  0  0  0  0  2  0  0  0  0  0  0
  193.7440  172.1170  143.4470 C   0  0  0  0  0  0  0  0  0  0  0  0
  192.6950  176.7890  146.8880 C   0  0  0  0  0  2  0  0  0  0  0  0
  190.9860  175.0400  146.6770 C   0  0  0  0  0  2  0  0  0  0  0  0
  191.6020  176.0450  147.6370 C   0  0  0  0  0  2  0  0  0  0  0  0
  193.7940  175.8190  146.4520 C   0  0  1  0  0  3  0  0  0  0  0  0
  194.1750  173.5680  145.3620 N   0  0  0  0  0  2  0  0  0  0  0  0
  192.0080  174.1630  146.1060 N   0  0  0  0  0  0  0  0  0  0  0  0
  193.2550  174.5070  145.9280 C   0  0  0  0  0  0  0  0  0  0  0  0
  194.6880  176.4840  145.4160 C   0  0  0  0  0  2  0  0  0  0  0  0
  194.9130  177.8160  145.7640 O   0  0  0  0  0  1  0  0  0  0  0  0
  1 19  1  6  0  0  0
  1 20  1  0  0  0  0
  1  9  1  0  0  0  0
  2  6  1  0  0  0  0
  3 10  1  0  0  0  0
  4  5  1  0  0  0  0
  4 14  1  1  0  0  0
  6  7  2  0  0  0  0
  6  3  1  0  0  0  0
  7 12  1  0  0  0  0
  8  7  1  0  0  0  0
  9 11  1  0  0  0  0
  9  2  2  0  0  0  0
 10  4  1  0  0  0  0
 11  8  2  0  0  0  0
 12  5  1  0  0  0  0
 14 15  1  0  0  0  0
 14 13  1  0  0  0  0
 16 14  1  0  0  0  0
 17 19  1  0  0  0  0
 18 19  1  0  0  0  0
 20 28  1  0  0  0  0
 21 27  1  0  0  0  0
 22 27  1  0  0  0  0
 23 22  2  0  0  0  0
 24 33  1  6  0  0  0
 24 21  1  0  0  0  0
 25 23  1  0  0  0  0
 25 28  2  0  0  0  0
 26 23  1  0  0  0  0
 28 24  1  0  0  0  0
 29 31  1  0  0  0  0
 30 31  1  0  0  0  0
 32 36  1  6  0  0  0
 32 29  1  0  0  0  0
 33 35  1  0  0  0  0
 34 30  1  0  0  0  0
 35 34  2  0  0  0  0
 35 32  1  0  0  0  0
 36 37  1  0  0  0  0
M  END
>  <MODEL>
3

>  <REMARK>
 VINA RESULT:      -7.6      2.904      5.575
  Name = 
  7 active torsions:
  status: ('A' for Active; 'I' for Inactive)
    1  A    between atoms: C_7  and  C_16
    2  A    between atoms: C_13  and  C_29
    3  A    between atoms: C_15  and  S_21
    4  A    between atoms: C_15  and  C_22
    5  A    between atoms: C_15  and  C_23
    6  A    between atoms: N_17  and  C_25
    7  A    between atoms: S_21  and  C_32
                            x       y       z     vdW  Elec       q    Type
                         _______ _______ _______ _____ _____    ______ ____

>  <TORSDO>
F 7

$$$$
=
 OpenBabel11062421523D

 37 40  0  0  1  0  0  0  0  0999 V2000
  190.2710  173.3900  142.1220 C   0  0  1  0  0  3  0  0  0  0  0  0
  188.5360  174.9210  143.1550 C   0  0  0  0  0  3  0  0  0  0  0  0
  186.9020  176.3350  144.2120 O   0  0  0  0  0  0  0  0  0  0  0  0
  185.4020  178.1930  143.5660 C   0  0  1  0  0  3  0  0  0  0  0  0
  186.3290  178.3940  142.5250 O   0  0  0  0  0  0  0  0  0  0  0  0
  187.5090  175.8630  143.0370 C   0  0  0  0  0  0  0  0  0  0  0  0
  187.1320  176.3180  141.7520 C   0  0  0  0  0  0  0  0  0  0  0  0
  187.7620  175.7980  140.6190 C   0  0  0  0  0  3  0  0  0  0  0  0
  189.1690  174.4060  142.0150 C   0  0  0  0  0  0  0  0  0  0  0  0
  185.5640  176.8280  144.2650 C   0  0  0  0  0  2  0  0  0  0  0  0
  188.7730  174.8440  140.7490 C   0  0  0  0  0  3  0  0  0  0  0  0
  186.1060  177.3880  141.5760 C   0  0  0  0  0  2  0  0  0  0  0  0
  184.3340  179.4120  145.3130 F   0  0  0  0  0  0  0  0  0  0  0  0
  185.5000  179.3350  144.5720 C   0  0  0  0  0  0  0  0  0  0  0  0
  185.6770  180.5300  143.8990 F   0  0  0  0  0  0  0  0  0  0  0  0
  186.5710  179.1330  145.4250 F   0  0  0  0  0  0  0  0  0  0  0  0
  190.1560  170.8560  142.4170 C   0  0  0  0  0  1  0  0  0  0  0  0
  190.7440  171.8290  140.1990 C   0  0  0  0  0  1  0  0  0  0  0  0
  189.9520  172.0330  141.4760 C   0  0  0  0  0  3  0  0  0  0  0  0
  191.8700  174.0630  141.5520 S   0  0  0  0  0  0  0  0  0  0  0  0
  194.5170  174.3240  144.3370 C   0  0  0  0  0  2  0  0  0  0  0  0
  194.6440  171.8310  144.8020 N   0  0  0  0  0  0  0  0  0  0  0  0
  193.8690  171.3600  143.8620 C   0  0  0  0  0  0  0  0  0  0  0  0
  193.0240  174.2490  144.1700 C   0  0  2  0  0  3  0  0  0  0  0  0
  193.1480  172.1630  142.9060 N   0  0  0  0  0  0  0  0  0  0  0  0
  193.7750  169.9470  143.7320 N   0  0  0  0  0  1  0  0  0  0  0  0
  194.9590  173.1710  145.0960 N   0  0  0  0  0  2  0  0  0  0  0  0
  192.7620  173.4020  142.9660 C   0  0  0  0  0  0  0  0  0  0  0  0
  189.7120  177.9200  145.3520 C   0  0  0  0  0  2  0  0  0  0  0  0
  189.7000  175.7610  146.5180 C   0  0  0  0  0  2  0  0  0  0  0  0
  189.6980  177.2670  146.7230 C   0  0  0  0  0  2  0  0  0  0  0  0
  190.9920  177.5490  144.6000 C   0  0  1  0  0  3  0  0  0  0  0  0
  192.4800  175.5920  144.0060 N   0  0  0  0  0  2  0  0  0  0  0  0
  190.8260  175.3460  145.6820 N   0  0  0  0  0  0  0  0  0  0  0  0
  191.3780  176.0970  144.7680 C   0  0  0  0  0  0  0  0  0  0  0  0
  190.8440  177.8990  143.1270 C   0  0  0  0  0  2  0  0  0  0  0  0
  189.5850  178.4500  142.8910 O   0  0  0  0  0  1  0  0  0  0  0  0
  1 19  1  6  0  0  0
  3 10  1  0  0  0  0
  4 10  1  0  0  0  0
  4 14  1  1  0  0  0
  5  4  1  0  0  0  0
  6  2  1  0  0  0  0
  6  3  1  0  0  0  0
  7  6  2  0  0  0  0
  8 11  2  0  0  0  0
  8  7  1  0  0  0  0
  9  1  1  0  0  0  0
  9  2  2  0  0  0  0
 11  9  1  0  0  0  0
 12  7  1  0  0  0  0
 12  5  1  0  0  0  0
 14 13  1  0  0  0  0
 14 16  1  0  0  0  0
 15 14  1  0  0  0  0
 18 19  1  0  0  0  0
 19 17  1  0  0  0  0
 20  1  1  0  0  0  0
 20 28  1  0  0  0  0
 21 27  1  0  0  0  0
 22 27  1  0  0  0  0
 23 22  2  0  0  0  0
 24 33  1  6  0  0  0
 24 21  1  0  0  0  0
 25 28  2  0  0  0  0
 25 23  1  0  0  0  0
 26 23  1  0  0  0  0
 28 24  1  0  0  0  0
 29 31  1  0  0  0  0
 30 31  1  0  0  0  0
 32 36  1  6  0  0  0
 32 35  1  0  0  0  0
 32 29  1  0  0  0  0
 33 35  1  0  0  0  0
 34 30  1  0  0  0  0
 35 34  2  0  0  0  0
 37 36  1  0  0  0  0
M  END
>  <MODEL>
4

>  <REMARK>
 VINA RESULT:      -7.5      2.269      4.754
  Name = 
  7 active torsions:
  status: ('A' for Active; 'I' for Inactive)
    1  A    between atoms: C_7  and  C_16
    2  A    between atoms: C_13  and  C_29
    3  A    between atoms: C_15  and  S_21
    4  A    between atoms: C_15  and  C_22
    5  A    between atoms: C_15  and  C_23
    6  A    between atoms: N_17  and  C_25
    7  A    between atoms: S_21  and  C_32
                            x       y       z     vdW  Elec       q    Type
                         _______ _______ _______ _____ _____    ______ ____

>  <TORSDO>
F 7

$$$$
=
 OpenBabel11062421523D

 37 40  0  0  1  0  0  0  0  0999 V2000
  190.0490  173.5770  142.7600 C   0  0  1  0  0  3  0  0  0  0  0  0
  188.5550  175.3850  143.7210 C   0  0  0  0  0  3  0  0  0  0  0  0
  187.1180  177.1270  144.5500 O   0  0  0  0  0  0  0  0  0  0  0  0
  186.3540  177.9730  146.7460 C   0  0  1  0  0  3  0  0  0  0  0  0
  186.6660  176.6770  147.1980 O   0  0  0  0  0  0  0  0  0  0  0  0
  188.0880  176.1430  144.7990 C   0  0  0  0  0  0  0  0  0  0  0  0
  188.5910  175.8830  146.0950 C   0  0  0  0  0  0  0  0  0  0  0  0
  189.5690  174.9010  146.2770 C   0  0  0  0  0  3  0  0  0  0  0  0
  189.5320  174.3980  143.9080 C   0  0  0  0  0  0  0  0  0  0  0  0
  186.9500  178.2910  145.3590 C   0  0  0  0  0  2  0  0  0  0  0  0
  190.0410  174.1650  145.1880 C   0  0  0  0  0  3  0  0  0  0  0  0
  188.0610  176.5990  147.2940 C   0  0  0  0  0  2  0  0  0  0  0  0
  184.4840  179.0780  145.7660 F   0  0  0  0  0  0  0  0  0  0  0  0
  184.8410  178.1710  146.7470 C   0  0  0  0  0  0  0  0  0  0  0  0
  184.4410  178.6650  147.9750 F   0  0  0  0  0  0  0  0  0  0  0  0
  184.2000  176.9680  146.5130 F   0  0  0  0  0  0  0  0  0  0  0  0
  190.0690  171.0520  142.3820 C   0  0  0  0  0  1  0  0  0  0  0  0
  188.4060  172.4790  141.1940 C   0  0  0  0  0  1  0  0  0  0  0  0
  189.2260  172.3150  142.4590 C   0  0  0  0  0  3  0  0  0  0  0  0
  190.3180  174.5940  141.2670 S   0  0  0  0  0  0  0  0  0  0  0  0
  194.0760  174.8980  140.4860 C   0  0  0  0  0  2  0  0  0  0  0  0
  194.3720  172.4950  139.7200 N   0  0  0  0  0  0  0  0  0  0  0  0
  193.1390  172.0670  139.7520 C   0  0  0  0  0  0  0  0  0  0  0  0
  193.1630  174.4640  141.5990 C   0  0  2  0  0  3  0  0  0  0  0  0
  192.0040  172.8470  140.1810 N   0  0  0  0  0  0  0  0  0  0  0  0
  192.8830  170.7530  139.2720 N   0  0  0  0  0  1  0  0  0  0  0  0
  194.8750  173.7620  140.0700 N   0  0  0  0  0  2  0  0  0  0  0  0
  191.9410  173.8850  140.9600 C   0  0  0  0  0  0  0  0  0  0  0  0
  192.9060  176.7860  146.1140 C   0  0  0  0  0  2  0  0  0  0  0  0
  193.8470  174.5310  145.8860 C   0  0  0  0  0  2  0  0  0  0  0  0
  194.0960  175.9130  146.4700 C   0  0  0  0  0  2  0  0  0  0  0  0
  192.7880  176.9310  144.5950 C   0  0  1  0  0  3  0  0  0  0  0  0
  192.8330  175.6080  142.4400 N   0  0  0  0  0  2  0  0  0  0  0  0
  193.5830  174.6070  144.4490 N   0  0  0  0  0  0  0  0  0  0  0  0
  193.0460  175.6380  143.8550 C   0  0  0  0  0  0  0  0  0  0  0  0
  191.4210  177.4930  144.2360 C   0  0  0  0  0  2  0  0  0  0  0  0
  191.5660  178.6770  143.5130 O   0  0  0  0  0  1  0  0  0  0  0  0
  1 20  1  6  0  0  0
  1  9  1  0  0  0  0
  2  9  2  0  0  0  0
  2  6  1  0  0  0  0
  3  6  1  0  0  0  0
  3 10  1  0  0  0  0
  4 14  1  6  0  0  0
  4  5  1  0  0  0  0
  5 12  1  0  0  0  0
  6  7  2  0  0  0  0
  7  8  1  0  0  0  0
  7 12  1  0  0  0  0
  9 11  1  0  0  0  0
 10  4  1  0  0  0  0
 11  8  2  0  0  0  0
 13 14  1  0  0  0  0
 14 15  1  0  0  0  0
 16 14  1  0  0  0  0
 17 19  1  0  0  0  0
 18 19  1  0  0  0  0
 19  1  1  0  0  0  0
 21 24  1  0  0  0  0
 22 23  2  0  0  0  0
 22 27  1  0  0  0  0
 23 25  1  0  0  0  0
 24 33  1  1  0  0  0
 25 28  2  0  0  0  0
 26 23  1  0  0  0  0
 27 21  1  0  0  0  0
 28 20  1  0  0  0  0
 28 24  1  0  0  0  0
 29 31  1  0  0  0  0
 30 31  1  0  0  0  0
 32 36  1  1  0  0  0
 32 29  1  0  0  0  0
 33 35  1  0  0  0  0
 34 30  1  0  0  0  0
 35 34  2  0  0  0  0
 35 32  1  0  0  0  0
 37 36  1  0  0  0  0
M  END
>  <MODEL>
5

>  <REMARK>
 VINA RESULT:      -7.5      1.946      4.813
  Name = 
  7 active torsions:
  status: ('A' for Active; 'I' for Inactive)
    1  A    between atoms: C_7  and  C_16
    2  A    between atoms: C_13  and  C_29
    3  A    between atoms: C_15  and  S_21
    4  A    between atoms: C_15  and  C_22
    5  A    between atoms: C_15  and  C_23
    6  A    between atoms: N_17  and  C_25
    7  A    between atoms: S_21  and  C_32
                            x       y       z     vdW  Elec       q    Type
                         _______ _______ _______ _____ _____    ______ ____

>  <TORSDO>
F 7

$$$$
=
 OpenBabel11062421523D

 37 40  0  0  1  0  0  0  0  0999 V2000
  192.1350  175.6450  144.7840 C   0  0  1  0  0  3  0  0  0  0  0  0
  189.7160  176.3590  145.0360 C   0  0  0  0  0  3  0  0  0  0  0  0
  187.4210  177.0030  145.3560 O   0  0  0  0  0  0  0  0  0  0  0  0
  185.6570  178.1720  144.0750 C   0  0  1  0  0  3  0  0  0  0  0  0
  186.7370  178.7500  143.3810 O   0  0  0  0  0  0  0  0  0  0  0  0
  188.5200  176.8420  144.4970 C   0  0  0  0  0  0  0  0  0  0  0  0
  188.4630  177.1670  143.1210 C   0  0  0  0  0  0  0  0  0  0  0  0
  189.5860  176.9700  142.3140 C   0  0  0  0  0  3  0  0  0  0  0  0
  190.8420  176.1670  144.2230 C   0  0  0  0  0  0  0  0  0  0  0  0
  186.0630  176.9470  144.9190 C   0  0  0  0  0  2  0  0  0  0  0  0
  190.7690  176.4680  142.8610 C   0  0  0  0  0  3  0  0  0  0  0  0
  187.2400  177.7720  142.5140 C   0  0  0  0  0  2  0  0  0  0  0  0
  184.9240  180.4320  144.2640 F   0  0  0  0  0  0  0  0  0  0  0  0
  184.9760  179.2280  144.9420 C   0  0  0  0  0  0  0  0  0  0  0  0
  185.6990  179.4050  146.1070 F   0  0  0  0  0  0  0  0  0  0  0  0
  183.6900  178.8290  145.2630 F   0  0  0  0  0  0  0  0  0  0  0  0
  194.4160  176.7850  144.9000 C   0  0  0  0  0  1  0  0  0  0  0  0
  193.0570  176.5010  146.9690 C   0  0  0  0  0  1  0  0  0  0  0  0
  193.0080  176.7080  145.4680 C   0  0  0  0  0  3  0  0  0  0  0  0
  191.8700  174.1850  145.8490 S   0  0  0  0  0  0  0  0  0  0  0  0
  193.4920  171.0410  144.3260 C   0  0  0  0  0  2  0  0  0  0  0  0
  195.8910  171.7790  144.7140 N   0  0  0  0  0  0  0  0  0  0  0  0
  195.7080  172.8830  145.3860 C   0  0  0  0  0  0  0  0  0  0  0  0
  193.0930  172.4360  143.9330 C   0  0  2  0  0  3  0  0  0  0  0  0
  194.4240  173.4500  145.7130 N   0  0  0  0  0  0  0  0  0  0  0  0
  196.8610  173.5480  145.8890 N   0  0  0  0  0  1  0  0  0  0  0  0
  194.9270  170.9070  144.1730 N   0  0  0  0  0  2  0  0  0  0  0  0
  193.2660  173.2980  145.1430 C   0  0  0  0  0  0  0  0  0  0  0  0
  189.5440  173.3820  140.4170 C   0  0  0  0  0  2  0  0  0  0  0  0
  191.9230  173.7910  139.9770 C   0  0  0  0  0  2  0  0  0  0  0  0
  190.6670  173.1370  139.4250 C   0  0  0  0  0  2  0  0  0  0  0  0
  189.8680  172.7230  141.7600 C   0  0  1  0  0  3  0  0  0  0  0  0
  191.7100  172.4400  143.4690 N   0  0  0  0  0  2  0  0  0  0  0  0
  192.2170  173.3100  141.3270 N   0  0  0  0  0  0  0  0  0  0  0  0
  191.3130  172.8930  142.1710 C   0  0  0  0  0  0  0  0  0  0  0  0
  188.9360  173.2590  142.8350 C   0  0  0  0  0  2  0  0  0  0  0  0
  187.8510  173.9100  142.2470 O   0  0  0  0  0  1  0  0  0  0  0  0
  1 19  1  1  0  0  0
  1 20  1  0  0  0  0
  4 10  1  0  0  0  0
  4 14  1  1  0  0  0
  5  4  1  0  0  0  0
  6  2  1  0  0  0  0
  6  3  1  0  0  0  0
  7  6  2  0  0  0  0
  8 11  2  0  0  0  0
  8  7  1  0  0  0  0
  9  1  1  0  0  0  0
  9  2  2  0  0  0  0
 10  3  1  0  0  0  0
 11  9  1  0  0  0  0
 12  7  1  0  0  0  0
 12  5  1  0  0  0  0
 13 14  1  0  0  0  0
 14 16  1  0  0  0  0
 14 15  1  0  0  0  0
 17 19  1  0  0  0  0
 19 18  1  0  0  0  0
 22 23  2  0  0  0  0
 23 25  1  0  0  0  0
 23 26  1  0  0  0  0
 24 33  1  1  0  0  0
 24 21  1  0  0  0  0
 24 28  1  0  0  0  0
 27 21  1  0  0  0  0
 27 22  1  0  0  0  0
 28 25  2  0  0  0  0
 28 20  1  0  0  0  0
 29 32  1  0  0  0  0
 30 34  1  0  0  0  0
 31 30  1  0  0  0  0
 31 29  1  0  0  0  0
 32 35  1  0  0  0  0
 32 36  1  1  0  0  0
 34 35  2  0  0  0  0
 35 33  1  0  0  0  0
 37 36  1  0  0  0  0
M  END
>  <MODEL>
6

>  <REMARK>
 VINA RESULT:      -7.4      1.903      2.262
  Name = 
  7 active torsions:
  status: ('A' for Active; 'I' for Inactive)
    1  A    between atoms: C_7  and  C_16
    2  A    between atoms: C_13  and  C_29
    3  A    between atoms: C_15  and  S_21
    4  A    between atoms: C_15  and  C_22
    5  A    between atoms: C_15  and  C_23
    6  A    between atoms: N_17  and  C_25
    7  A    between atoms: S_21  and  C_32
                            x       y       z     vdW  Elec       q    Type
                         _______ _______ _______ _____ _____    ______ ____

>  <TORSDO>
F 7

$$$$
=
 OpenBabel11062421523D

 37 40  0  0  1  0  0  0  0  0999 V2000
  192.3390  175.7490  144.5090 C   0  0  1  0  0  3  0  0  0  0  0  0
  190.0260  176.1630  145.4610 C   0  0  0  0  0  3  0  0  0  0  0  0
  187.8490  176.4960  146.4270 O   0  0  0  0  0  0  0  0  0  0  0  0
  185.8600  177.9060  146.0050 C   0  0  1  0  0  3  0  0  0  0  0  0
  186.7750  178.7600  145.3600 O   0  0  0  0  0  0  0  0  0  0  0  0
  188.7460  176.7160  145.3680 C   0  0  0  0  0  0  0  0  0  0  0  0
  188.4060  177.4870  144.2320 C   0  0  0  0  0  0  0  0  0  0  0  0
  189.3360  177.6560  143.2040 C   0  0  0  0  0  3  0  0  0  0  0  0
  190.9590  176.3400  144.4290 C   0  0  0  0  0  0  0  0  0  0  0  0
  186.4300  176.4970  146.2710 C   0  0  0  0  0  2  0  0  0  0  0  0
  190.6060  177.0820  143.3000 C   0  0  0  0  0  3  0  0  0  0  0  0
  187.0840  178.1750  144.1260 C   0  0  0  0  0  2  0  0  0  0  0  0
  185.9390  179.8070  147.4400 F   0  0  0  0  0  0  0  0  0  0  0  0
  185.3770  178.5500  147.3000 C   0  0  0  0  0  0  0  0  0  0  0  0
  185.7610  177.7710  148.3760 F   0  0  0  0  0  0  0  0  0  0  0  0
  183.9980  178.6650  147.2940 F   0  0  0  0  0  0  0  0  0  0  0  0
  194.7490  176.5760  144.3480 C   0  0  0  0  0  1  0  0  0  0  0  0
  193.5880  176.5370  146.5530 C   0  0  0  0  0  1  0  0  0  0  0  0
  193.4100  176.7040  145.0560 C   0  0  0  0  0  3  0  0  0  0  0  0
  192.3400  174.1450  145.3810 S   0  0  0  0  0  0  0  0  0  0  0  0
  193.1290  173.1190  141.7540 C   0  0  0  0  0  2  0  0  0  0  0  0
  190.8200  172.1940  141.2420 N   0  0  0  0  0  0  0  0  0  0  0  0
  190.1770  172.5060  142.3350 C   0  0  0  0  0  0  0  0  0  0  0  0
  193.0940  172.5280  143.1360 C   0  0  2  0  0  3  0  0  0  0  0  0
  190.7600  173.1600  143.4790 N   0  0  0  0  0  0  0  0  0  0  0  0
  188.7810  172.2360  142.3780 N   0  0  0  0  0  1  0  0  0  0  0  0
  192.1730  172.4150  140.9230 N   0  0  0  0  0  2  0  0  0  0  0  0
  191.9950  173.2190  143.8780 C   0  0  0  0  0  0  0  0  0  0  0  0
  196.8270  171.0180  146.2400 C   0  0  0  0  0  2  0  0  0  0  0  0
  194.8710  169.6010  145.8060 C   0  0  0  0  0  2  0  0  0  0  0  0
  196.3910  169.6170  145.8480 C   0  0  0  0  0  2  0  0  0  0  0  0
  196.3750  172.0290  145.1850 C   0  0  1  0  0  3  0  0  0  0  0  0
  194.3830  172.7240  143.7880 N   0  0  0  0  0  2  0  0  0  0  0  0
  194.3590  170.6450  144.9190 N   0  0  0  0  0  0  0  0  0  0  0  0
  194.9740  171.7700  144.6770 C   0  0  0  0  0  0  0  0  0  0  0  0
  196.4930  173.4410  145.7390 C   0  0  0  0  0  2  0  0  0  0  0  0
  197.3770  174.1880  144.9610 O   0  0  0  0  0  1  0  0  0  0  0  0
  1 19  1  1  0  0  0
  1 20  1  0  0  0  0
  4 10  1  0  0  0  0
  4 14  1  1  0  0  0
  5  4  1  0  0  0  0
  6  2  1  0  0  0  0
  6  3  1  0  0  0  0
  7  6  2  0  0  0  0
  8 11  2  0  0  0  0
  8  7  1  0  0  0  0
  9  1  1  0  0  0  0
  9  2  2  0  0  0  0
 10  3  1  0  0  0  0
 11  9  1  0  0  0  0
 12  7  1  0  0  0  0
 12  5  1  0  0  0  0
 14 13  1  0  0  0  0
 14 15  1  0  0  0  0
 16 14  1  0  0  0  0
 17 19  1  0  0  0  0
 19 18  1  0  0  0  0
 21 24  1  0  0  0  0
 22 23  2  0  0  0  0
 23 26  1  0  0  0  0
 23 25  1  0  0  0  0
 24 33  1  1  0  0  0
 24 28  1  0  0  0  0
 25 28  2  0  0  0  0
 27 22  1  0  0  0  0
 27 21  1  0  0  0  0
 28 20  1  0  0  0  0
 30 31  1  0  0  0  0
 31 29  1  0  0  0  0
 32 36  1  1  0  0  0
 32 29  1  0  0  0  0
 33 35  1  0  0  0  0
 34 30  1  0  0  0  0
 35 34  2  0  0  0  0
 35 32  1  0  0  0  0
 37 36  1  0  0  0  0
M  END
>  <MODEL>
7

>  <REMARK>
 VINA RESULT:      -7.4      3.058      4.964
  Name = 
  7 active torsions:
  status: ('A' for Active; 'I' for Inactive)
    1  A    between atoms: C_7  and  C_16
    2  A    between atoms: C_13  and  C_29
    3  A    between atoms: C_15  and  S_21
    4  A    between atoms: C_15  and  C_22
    5  A    between atoms: C_15  and  C_23
    6  A    between atoms: N_17  and  C_25
    7  A    between atoms: S_21  and  C_32
                            x       y       z     vdW  Elec       q    Type
                         _______ _______ _______ _____ _____    ______ ____

>  <TORSDO>
F 7

$$$$
=
 OpenBabel11062421523D

 37 40  0  0  1  0  0  0  0  0999 V2000
  190.7640  175.8380  145.7450 C   0  0  1  0  0  3  0  0  0  0  0  0
  192.6210  174.1280  145.5130 C   0  0  0  0  0  3  0  0  0  0  0  0
  194.3230  172.4420  145.3030 O   0  0  0  0  0  0  0  0  0  0  0  0
  196.7670  172.3520  144.9250 C   0  0  1  0  0  3  0  0  0  0  0  0
  196.5840  173.6220  144.3450 O   0  0  0  0  0  0  0  0  0  0  0  0
  193.9770  173.7950  145.4580 C   0  0  0  0  0  0  0  0  0  0  0  0
  194.9460  174.8220  145.5400 C   0  0  0  0  0  0  0  0  0  0  0  0
  194.5390  176.1480  145.7110 C   0  0  0  0  0  3  0  0  0  0  0  0
  192.2170  175.4610  145.6790 C   0  0  0  0  0  0  0  0  0  0  0  0
  195.5560  171.8870  145.7600 C   0  0  0  0  0  2  0  0  0  0  0  0
  193.1820  176.4660  145.7840 C   0  0  0  0  0  3  0  0  0  0  0  0
  196.4040  174.5310  145.3960 C   0  0  0  0  0  2  0  0  0  0  0  0
  195.9390  170.8400  143.2790 F   0  0  0  0  0  0  0  0  0  0  0  0
  197.1030  171.3320  143.8410 C   0  0  0  0  0  0  0  0  0  0  0  0
  197.8060  170.2800  144.3980 F   0  0  0  0  0  0  0  0  0  0  0  0
  197.8750  171.9190  142.8540 F   0  0  0  0  0  0  0  0  0  0  0  0
  191.1950  175.6400  148.2540 C   0  0  0  0  0  1  0  0  0  0  0  0
  189.1160  174.6840  147.2650 C   0  0  0  0  0  1  0  0  0  0  0  0
  190.1550  175.7830  147.1540 C   0  0  0  0  0  3  0  0  0  0  0  0
  190.4390  177.4330  144.9180 S   0  0  0  0  0  0  0  0  0  0  0  0
  188.0590  176.8880  141.9400 C   0  0  0  0  0  2  0  0  0  0  0  0
  185.9710  176.5400  143.3430 N   0  0  0  0  0  0  0  0  0  0  0  0
  186.4290  176.7880  144.5410 C   0  0  0  0  0  0  0  0  0  0  0  0
  188.8850  176.0940  142.9150 C   0  0  2  0  0  3  0  0  0  0  0  0
  187.7990  177.1130  144.8510 N   0  0  0  0  0  0  0  0  0  0  0  0
  185.4970  176.7980  145.6150 N   0  0  0  0  0  1  0  0  0  0  0  0
  186.6640  176.5370  142.1180 N   0  0  0  0  0  2  0  0  0  0  0  0
  188.8940  176.8570  144.2010 C   0  0  0  0  0  0  0  0  0  0  0  0
  192.9310  173.2200  141.8150 C   0  0  0  0  0  2  0  0  0  0  0  0
  190.8940  172.2480  142.7780 C   0  0  0  0  0  2  0  0  0  0  0  0
  191.9150  172.1020  141.6610 C   0  0  0  0  0  2  0  0  0  0  0  0
  192.2510  174.5810  141.6560 C   0  0  1  0  0  3  0  0  0  0  0  0
  190.2330  175.9190  142.3890 N   0  0  0  0  0  2  0  0  0  0  0  0
  190.3010  173.5850  142.7770 N   0  0  0  0  0  0  0  0  0  0  0  0
  190.9080  174.6580  142.3480 C   0  0  0  0  0  0  0  0  0  0  0  0
  193.1760  175.6810  142.1560 C   0  0  0  0  0  2  0  0  0  0  0  0
  194.5050  175.2720  142.0510 O   0  0  0  0  0  1  0  0  0  0  0  0
  1 20  1  1  0  0  0
  1 19  1  0  0  0  0
  2  9  1  0  0  0  0
  3  6  1  0  0  0  0
  3 10  1  0  0  0  0
  4 14  1  6  0  0  0
  4 10  1  0  0  0  0
  5  4  1  0  0  0  0
  5 12  1  0  0  0  0
  6  2  2  0  0  0  0
  6  7  1  0  0  0  0
  7  8  2  0  0  0  0
  8 11  1  0  0  0  0
  9  1  1  0  0  0  0
  9 11  2  0  0  0  0
 12  7  1  0  0  0  0
 13 14  1  0  0  0  0
 14 15  1  0  0  0  0
 16 14  1  0  0  0  0
 19 18  1  0  0  0  0
 19 17  1  0  0  0  0
 21 27  1  0  0  0  0
 21 24  1  0  0  0  0
 22 23  2  0  0  0  0
 23 25  1  0  0  0  0
 23 26  1  0  0  0  0
 24 33  1  6  0  0  0
 24 28  1  0  0  0  0
 27 22  1  0  0  0  0
 28 25  2  0  0  0  0
 28 20  1  0  0  0  0
 31 29  1  0  0  0  0
 31 30  1  0  0  0  0
 32 29  1  0  0  0  0
 32 36  1  1  0  0  0
 32 35  1  0  0  0  0
 34 30  1  0  0  0  0
 35 33  1  0  0  0  0
 35 34  2  0  0  0  0
 37 36  1  0  0  0  0
M  END
>  <MODEL>
8

>  <REMARK>
 VINA RESULT:      -7.4      5.626      8.104
  Name = 
  7 active torsions:
  status: ('A' for Active; 'I' for Inactive)
    1  A    between atoms: C_7  and  C_16
    2  A    between atoms: C_13  and  C_29
    3  A    between atoms: C_15  and  S_21
    4  A    between atoms: C_15  and  C_22
    5  A    between atoms: C_15  and  C_23
    6  A    between atoms: N_17  and  C_25
    7  A    between atoms: S_21  and  C_32
                            x       y       z     vdW  Elec       q    Type
                         _______ _______ _______ _____ _____    ______ ____

>  <TORSDO>
F 7

$$$$
=
 OpenBabel11062421523D

 37 40  0  0  1  0  0  0  0  0999 V2000
  193.1160  175.5480  145.0780 C   0  0  1  0  0  3  0  0  0  0  0  0
  191.0720  176.7900  145.9150 C   0  0  0  0  0  3  0  0  0  0  0  0
  189.1810  178.0420  146.7170 O   0  0  0  0  0  0  0  0  0  0  0  0
  186.7880  177.6310  147.1920 C   0  0  1  0  0  3  0  0  0  0  0  0
  186.9300  176.5720  146.2750 O   0  0  0  0  0  0  0  0  0  0  0  0
  189.7580  176.8030  146.3930 C   0  0  0  0  0  0  0  0  0  0  0  0
  189.0550  175.5820  146.5170 C   0  0  0  0  0  0  0  0  0  0  0  0
  189.6900  174.3790  146.1950 C   0  0  0  0  0  3  0  0  0  0  0  0
  191.7030  175.5810  145.5890 C   0  0  0  0  0  0  0  0  0  0  0  0
  188.1370  178.1990  147.6780 C   0  0  0  0  0  2  0  0  0  0  0  0
  191.0090  174.3790  145.7370 C   0  0  0  0  0  3  0  0  0  0  0  0
  187.6220  175.5480  146.9350 C   0  0  0  0  0  2  0  0  0  0  0  0
  186.4200  179.0820  145.3370 F   0  0  0  0  0  0  0  0  0  0  0  0
  185.9240  178.7310  146.5800 C   0  0  0  0  0  0  0  0  0  0  0  0
  185.9470  179.8450  147.3990 F   0  0  0  0  0  0  0  0  0  0  0  0
  184.6180  178.2950  146.4440 F   0  0  0  0  0  0  0  0  0  0  0  0
  194.7270  177.3260  145.9520 C   0  0  0  0  0  1  0  0  0  0  0  0
  195.3140  174.9110  146.1370 C   0  0  0  0  0  1  0  0  0  0  0  0
  194.1800  175.9170  146.1230 C   0  0  0  0  0  3  0  0  0  0  0  0
  193.4960  173.9710  144.2390 S   0  0  0  0  0  0  0  0  0  0  0  0
  194.1120  174.0800  140.4390 C   0  0  0  0  0  2  0  0  0  0  0  0
  195.7440  176.0240  140.5010 N   0  0  0  0  0  0  0  0  0  0  0  0
  195.8750  176.2020  141.7890 C   0  0  0  0  0  0  0  0  0  0  0  0
  193.2490  174.7290  141.4850 C   0  0  2  0  0  3  0  0  0  0  0  0
  195.1750  175.4510  142.8020 N   0  0  0  0  0  0  0  0  0  0  0  0
  196.8220  177.1670  142.2290 N   0  0  0  0  0  1  0  0  0  0  0  0
  194.9350  175.0980  139.8170 N   0  0  0  0  0  2  0  0  0  0  0  0
  194.0580  174.7920  142.7410 C   0  0  0  0  0  0  0  0  0  0  0  0
  188.3260  174.3170  142.6850 C   0  0  0  0  0  2  0  0  0  0  0  0
  189.4600  176.4930  142.6640 C   0  0  0  0  0  2  0  0  0  0  0  0
  188.2300  175.7450  142.1760 C   0  0  0  0  0  2  0  0  0  0  0  0
  189.5600  173.6260  142.1010 C   0  0  1  0  0  3  0  0  0  0  0  0
  192.0320  173.9490  141.6730 N   0  0  0  0  0  2  0  0  0  0  0  0
  190.6870  175.8070  142.2600 N   0  0  0  0  0  0  0  0  0  0  0  0
  190.7800  174.5190  142.0700 C   0  0  0  0  0  0  0  0  0  0  0  0
  189.8480  172.3480  142.8720 C   0  0  0  0  0  2  0  0  0  0  0  0
  188.7020  171.9260  143.5460 O   0  0  0  0  0  1  0  0  0  0  0  0
  1 20  1  1  0  0  0
  1  9  1  0  0  0  0
  1 19  1  0  0  0  0
  2  6  1  0  0  0  0
  3 10  1  0  0  0  0
  4 14  1  6  0  0  0
  4 10  1  0  0  0  0
  5 12  1  0  0  0  0
  5  4  1  0  0  0  0
  6  7  2  0  0  0  0
  6  3  1  0  0  0  0
  7 12  1  0  0  0  0
  8  7  1  0  0  0  0
  9 11  1  0  0  0  0
  9  2  2  0  0  0  0
 11  8  2  0  0  0  0
 13 14  1  0  0  0  0
 14 15  1  0  0  0  0
 16 14  1  0  0  0  0
 17 19  1  0  0  0  0
 19 18  1  0  0  0  0
 21 24  1  0  0  0  0
 22 23  2  0  0  0  0
 23 26  1  0  0  0  0
 23 25  1  0  0  0  0
 24 33  1  1  0  0  0
 24 28  1  0  0  0  0
 27 21  1  0  0  0  0
 27 22  1  0  0  0  0
 28 25  2  0  0  0  0
 28 20  1  0  0  0  0
 31 30  1  0  0  0  0
 31 29  1  0  0  0  0
 32 29  1  0  0  0  0
 32 36  1  1  0  0  0
 33 35  1  0  0  0  0
 34 30  1  0  0  0  0
 35 32  1  0  0  0  0
 35 34  2  0  0  0  0
 36 37  1  0  0  0  0
M  END
>  <MODEL>
9

>  <REMARK>
 VINA RESULT:      -7.2      1.916      2.727
  Name = 
  7 active torsions:
  status: ('A' for Active; 'I' for Inactive)
    1  A    between atoms: C_7  and  C_16
    2  A    between atoms: C_13  and  C_29
    3  A    between atoms: C_15  and  S_21
    4  A    between atoms: C_15  and  C_22
    5  A    between atoms: C_15  and  C_23
    6  A    between atoms: N_17  and  C_25
    7  A    between atoms: S_21  and  C_32
                            x       y       z     vdW  Elec       q    Type
                         _______ _______ _______ _____ _____    ______ ____

>  <TORSDO>
F 7

$$$$
