=
 OpenBabel11062419353D

 42 48  0  0  1  0  0  0  0  0999 V2000
  191.4370  176.6110  145.6700 C   0  0  0  0  0  0  0  0  0  0  0  0
  188.9900  177.4950  145.8380 C   0  0  0  0  0  3  0  0  0  0  0  0
  193.1610  175.8710  144.2350 N   0  0  0  0  0  2  0  0  0  0  0  0
  192.3100  177.0150  144.5450 C   0  0  0  0  0  2  0  0  0  0  0  0
  192.5190  174.7160  144.8570 C   0  0  2  0  0  3  0  0  0  0  0  0
  190.2190  177.0640  145.7520 C   0  0  0  0  0  0  0  0  0  0  0  0
  191.7160  175.2160  146.0390 C   0  0  0  0  0  2  0  0  0  0  0  0
  187.6570  177.2090  142.8950 C   0  0  2  0  0  3  0  0  0  0  0  0
  185.7770  177.8970  144.5220 C   0  0  0  0  0  0  0  0  0  0  0  0
  185.4720  178.0290  142.0840 C   0  0  0  0  0  3  0  0  0  0  0  0
  184.8020  178.1260  147.1490 C   0  0  0  0  0  3  0  0  0  0  0  0
  187.3440  177.6710  140.5290 N   0  0  0  0  0  2  0  0  0  0  0  0
  186.0090  177.4690  146.9070 C   0  0  0  0  0  3  0  0  0  0  0  0
  185.8880  177.7360  140.6660 C   0  0  0  0  0  2  0  0  0  0  0  0
  184.5600  178.5510  144.7820 C   0  0  0  0  0  3  0  0  0  0  0  0
  188.5530  175.1580  143.7100 O   0  0  0  0  0  0  0  0  0  0  0  0
  187.8380  176.6400  145.4050 C   0  0  2  0  0  3  0  0  0  0  0  0
  187.8450  176.6760  141.4740 C   0  0  0  0  0  2  0  0  0  0  0  0
  188.0390  176.2350  143.9730 C   0  0  0  0  0  0  0  0  0  0  0  0
  186.2540  177.7150  143.1280 C   0  0  0  0  0  0  0  0  0  0  0  0
  184.0790  178.6690  146.0880 C   0  0  0  0  0  3  0  0  0  0  0  0
  186.5140  177.3510  145.6050 C   0  0  0  0  0  0  0  0  0  0  0  0
  191.1380  173.1780  140.8280 O   0  0  0  0  0  0  0  0  0  0  0  0
  191.8040  172.3740  141.5310 C   0  0  0  0  0  0  0  0  0  0  0  0
  192.9500  172.0460  143.6120 C   0  0  0  0  0  0  0  0  0  0  0  0
  193.4870  169.7480  144.2740 C   0  0  0  0  0  3  0  0  0  0  0  0
  194.7360  171.6700  145.3810 C   0  0  0  0  0  2  0  0  0  0  0  0
  193.7030  172.5700  144.7810 C   0  0  0  0  0  0  0  0  0  0  0  0
  192.0740  170.0180  142.2930 C   0  0  0  0  0  2  0  0  0  0  0  0
  192.4130  172.8460  142.7390 N   0  0  0  0  0  0  0  0  0  0  0  0
  192.9020  170.5790  143.4070 C   0  0  0  0  0  0  0  0  0  0  0  0
  192.0540  170.9500  141.0690 C   0  0  1  0  0  3  0  0  0  0  0  0
  194.1810  170.2460  145.5190 C   0  0  2  0  0  3  0  0  0  0  0  0
  193.5230  173.7540  145.2950 N   0  0  0  0  0  0  0  0  0  0  0  0
  191.1150  169.4710  138.0420 C   0  0  0  0  0  2  0  0  0  0  0  0
  191.6690  170.5730  138.8080 N   0  0  0  0  0  2  0  0  0  0  0  0
  191.0630  170.5090  140.0730 N   0  0  1  0  0  0  0  0  0  0  0  0
  190.6260  168.4710  138.9710 N   0  0  0  0  0  2  0  0  0  0  0  0
  190.7650  169.0960  140.2710 C   0  0  0  0  0  2  0  0  0  0  0  0
  195.1920  169.3340  145.9460 O   0  0  0  0  0  0  0  0  0  0  0  0
  195.4560  169.0750  147.2790 N   0  0  0  0  0  2  0  0  0  0  0  0
  194.6510  168.4490  147.9990 O   0  0  0  0  0  1  0  0  0  0  0  0
  1  6  2  0  0  0  0
  1  7  1  0  0  0  0
  3  4  1  0  0  0  0
  3  5  1  0  0  0  0
  4  1  1  0  0  0  0
  5 34  1  1  0  0  0
  5  7  1  0  0  0  0
  6  2  2  0  0  0  0
  8 18  1  6  0  0  0
  8 20  1  0  0  0  0
  8 19  1  0  0  0  0
  9 15  2  0  0  0  0
  9 22  1  0  0  0  0
 10 20  2  0  0  0  0
 12 14  1  0  0  0  0
 12 18  1  0  0  0  0
 13 11  1  0  0  0  0
 14 10  1  0  0  0  0
 15 21  1  0  0  0  0
 16 19  2  0  0  0  0
 17 22  1  0  0  0  0
 17  2  1  6  0  0  0
 19 17  1  0  0  0  0
 20  9  1  0  0  0  0
 21 11  2  0  0  0  0
 22 13  2  0  0  0  0
 23 24  2  0  0  0  0
 24 30  1  0  0  0  0
 25 28  1  0  0  0  0
 26 33  1  0  0  0  0
 27 33  1  0  0  0  0
 28 34  2  0  0  0  0
 28 27  1  0  0  0  0
 29 31  1  0  0  0  0
 30 25  2  0  0  0  0
 31 25  1  0  0  0  0
 31 26  2  0  0  0  0
 32 24  1  0  0  0  0
 32 29  1  1  0  0  0
 33 40  1  6  0  0  0
 35 36  1  0  0  0  0
 35 38  1  0  0  0  0
 36 37  1  0  0  0  0
 37 39  1  1  0  0  0
 37 32  1  0  0  0  0
 38 39  1  0  0  0  0
 40 41  1  0  0  0  0
 41 42  1  0  0  0  0
M  END
>  <MODEL>
1

>  <REMARK>
 VINA RESULT:      -9.5      0.000      0.000
  Name = 
  5 active torsions:
  status: ('A' for Active; 'I' for Inactive)
    1  A    between atoms: N_1  and  O_26
    2  A    between atoms: C_9  and  C_24
    3  A    between atoms: O_26  and  C_38
    4  A    between atoms: C_27  and  N_41
    5  A    between atoms: N_33  and  C_34
                            x       y       z     vdW  Elec       q    Type
                         _______ _______ _______ _____ _____    ______ ____

>  <TORSDO>
F 5

$$$$
=
 OpenBabel11062419353D

 42 48  0  0  1  0  0  0  0  0999 V2000
  191.4870  175.9120  146.5610 C   0  0  0  0  0  0  0  0  0  0  0  0
  193.9350  175.2300  145.9780 C   0  0  0  0  0  3  0  0  0  0  0  0
  189.3110  175.1550  147.0790 N   0  0  0  0  0  2  0  0  0  0  0  0
  190.6970  175.1260  147.5350 C   0  0  0  0  0  2  0  0  0  0  0  0
  189.3590  175.5680  145.6790 C   0  0  2  0  0  3  0  0  0  0  0  0
  192.7130  175.5710  146.2810 C   0  0  0  0  0  0  0  0  0  0  0  0
  190.6100  176.3990  145.4870 C   0  0  0  0  0  2  0  0  0  0  0  0
  195.4720  172.3950  145.6320 C   0  0  2  0  0  3  0  0  0  0  0  0
  196.7290  174.1270  144.1910 C   0  0  0  0  0  0  0  0  0  0  0  0
  197.7240  171.9400  144.7240 C   0  0  0  0  0  3  0  0  0  0  0  0
  196.7790  176.6060  142.8670 C   0  0  0  0  0  3  0  0  0  0  0  0
  196.6800  170.4070  146.3380 N   0  0  0  0  0  2  0  0  0  0  0  0
  195.5930  176.1440  143.4390 C   0  0  0  0  0  3  0  0  0  0  0  0
  197.6540  170.5310  145.2530 C   0  0  0  0  0  2  0  0  0  0  0  0
  197.9140  174.6040  143.6050 C   0  0  0  0  0  3  0  0  0  0  0  0
  193.2290  172.3360  144.8340 O   0  0  0  0  0  0  0  0  0  0  0  0
  194.2370  174.4690  144.7220 C   0  0  2  0  0  3  0  0  0  0  0  0
  195.3890  170.8830  145.8470 C   0  0  0  0  0  2  0  0  0  0  0  0
  194.2370  172.9990  145.0270 C   0  0  0  0  0  0  0  0  0  0  0  0
  196.6870  172.7850  144.8250 C   0  0  0  0  0  0  0  0  0  0  0  0
  197.9400  175.8380  142.9520 C   0  0  0  0  0  3  0  0  0  0  0  0
  195.5510  174.9130  144.1080 C   0  0  0  0  0  0  0  0  0  0  0  0
  189.7420  172.5410  142.3330 O   0  0  0  0  0  0  0  0  0  0  0  0
  188.9560  173.5010  142.1260 C   0  0  0  0  0  0  0  0  0  0  0  0
  188.0160  175.5180  143.0230 C   0  0  0  0  0  0  0  0  0  0  0  0
  186.9060  177.0540  141.4690 C   0  0  0  0  0  3  0  0  0  0  0  0
  186.4190  177.2590  143.9590 C   0  0  0  0  0  2  0  0  0  0  0  0
  187.5940  176.3580  144.1730 C   0  0  0  0  0  0  0  0  0  0  0  0
  188.0930  175.1570  140.4770 C   0  0  0  0  0  2  0  0  0  0  0  0
  188.6590  174.4020  143.2000 N   0  0  0  0  0  0  0  0  0  0  0  0
  187.6040  175.9310  141.6610 C   0  0  0  0  0  0  0  0  0  0  0  0
  188.2430  173.6590  140.7950 C   0  0  1  0  0  3  0  0  0  0  0  0
  186.5400  177.9760  142.6080 C   0  0  2  0  0  3  0  0  0  0  0  0
  188.1750  176.3460  145.3390 N   0  0  0  0  0  0  0  0  0  0  0  0
  188.9760  173.0480  137.4300 C   0  0  0  0  0  2  0  0  0  0  0  0
  188.0970  172.9600  138.5830 N   0  0  0  0  0  2  0  0  0  0  0  0
  188.9360  172.9450  139.7090 N   0  0  1  0  0  0  0  0  0  0  0  0
  190.2370  173.6160  137.8610 N   0  0  0  0  0  2  0  0  0  0  0  0
  190.1170  173.6980  139.3030 C   0  0  0  0  0  2  0  0  0  0  0  0
  185.3620  178.7230  142.3090 O   0  0  0  0  0  0  0  0  0  0  0  0
  184.1240  178.1330  142.1280 N   0  0  0  0  0  2  0  0  0  0  0  0
  183.5440  178.1480  141.0230 O   0  0  0  0  0  1  0  0  0  0  0  0
  1  4  1  0  0  0  0
  2  6  2  0  0  0  0
  3  4  1  0  0  0  0
  5 34  1  1  0  0  0
  5  3  1  0  0  0  0
  6  1  2  0  0  0  0
  7  5  1  0  0  0  0
  7  1  1  0  0  0  0
  8 18  1  6  0  0  0
  9 20  1  0  0  0  0
 10 20  2  0  0  0  0
 10 14  1  0  0  0  0
 11 21  2  0  0  0  0
 11 13  1  0  0  0  0
 13 22  2  0  0  0  0
 14 12  1  0  0  0  0
 15  9  2  0  0  0  0
 16 19  2  0  0  0  0
 17 19  1  0  0  0  0
 17  2  1  1  0  0  0
 18 12  1  0  0  0  0
 19  8  1  0  0  0  0
 20  8  1  0  0  0  0
 21 15  1  0  0  0  0
 22  9  1  0  0  0  0
 22 17  1  0  0  0  0
 24 23  2  0  0  0  0
 24 30  1  0  0  0  0
 25 30  2  0  0  0  0
 25 28  1  0  0  0  0
 26 31  2  0  0  0  0
 26 33  1  0  0  0  0
 27 28  1  0  0  0  0
 28 34  2  0  0  0  0
 29 31  1  0  0  0  0
 31 25  1  0  0  0  0
 32 29  1  6  0  0  0
 32 24  1  0  0  0  0
 33 40  1  6  0  0  0
 33 27  1  0  0  0  0
 35 38  1  0  0  0  0
 35 36  1  0  0  0  0
 36 37  1  0  0  0  0
 37 39  1  6  0  0  0
 37 32  1  0  0  0  0
 38 39  1  0  0  0  0
 41 40  1  0  0  0  0
 42 41  1  0  0  0  0
M  END
>  <MODEL>
2

>  <REMARK>
 VINA RESULT:      -9.2      3.145      9.063
  Name = 
  5 active torsions:
  status: ('A' for Active; 'I' for Inactive)
    1  A    between atoms: N_1  and  O_26
    2  A    between atoms: C_9  and  C_24
    3  A    between atoms: O_26  and  C_38
    4  A    between atoms: C_27  and  N_41
    5  A    between atoms: N_33  and  C_34
                            x       y       z     vdW  Elec       q    Type
                         _______ _______ _______ _____ _____    ______ ____

>  <TORSDO>
F 5

$$$$
=
 OpenBabel11062419353D

 42 48  0  0  1  0  0  0  0  0999 V2000
  187.6650  174.2740  141.6420 C   0  0  0  0  0  0  0  0  0  0  0  0
  186.4890  176.0660  143.1270 C   0  0  0  0  0  3  0  0  0  0  0  0
  189.4120  172.6910  141.4910 N   0  0  0  0  0  2  0  0  0  0  0  0
  188.2090  173.0360  142.2440 C   0  0  0  0  0  2  0  0  0  0  0  0
  189.7930  173.9030  140.7710 C   0  0  2  0  0  3  0  0  0  0  0  0
  187.0710  175.1610  142.3880 C   0  0  0  0  0  0  0  0  0  0  0  0
  188.5380  174.7200  140.5470 C   0  0  0  0  0  2  0  0  0  0  0  0
  189.1750  176.3070  144.9280 C   0  0  2  0  0  3  0  0  0  0  0  0
  187.3430  177.6940  146.0990 C   0  0  0  0  0  0  0  0  0  0  0  0
  189.4290  177.0920  147.2570 C   0  0  0  0  0  3  0  0  0  0  0  0
  184.8730  179.0340  145.9970 C   0  0  0  0  0  3  0  0  0  0  0  0
  191.0440  175.5220  146.2700 N   0  0  0  0  0  2  0  0  0  0  0  0
  185.4380  178.5220  144.8280 C   0  0  0  0  0  3  0  0  0  0  0  0
  190.8370  176.5560  147.2850 C   0  0  0  0  0  2  0  0  0  0  0  0
  186.7630  178.2210  147.2660 C   0  0  0  0  0  3  0  0  0  0  0  0
  189.4390  177.2220  142.7450 O   0  0  0  0  0  0  0  0  0  0  0  0
  187.2240  177.2980  143.5620 C   0  0  2  0  0  3  0  0  0  0  0  0
  190.6880  176.0840  144.9700 C   0  0  0  0  0  2  0  0  0  0  0  0
  188.6870  176.9810  143.6770 C   0  0  0  0  0  0  0  0  0  0  0  0
  188.6800  177.0520  146.1440 C   0  0  0  0  0  0  0  0  0  0  0  0
  185.5330  178.8820  147.2160 C   0  0  0  0  0  3  0  0  0  0  0  0
  186.6660  177.8460  144.8610 C   0  0  0  0  0  0  0  0  0  0  0  0
  193.2480  174.1780  143.6850 O   0  0  0  0  0  0  0  0  0  0  0  0
  193.5520  174.1630  142.4640 C   0  0  0  0  0  0  0  0  0  0  0  0
  192.7140  174.0650  140.2180 C   0  0  0  0  0  0  0  0  0  0  0  0
  194.2320  174.6970  138.4010 C   0  0  0  0  0  3  0  0  0  0  0  0
  192.1600  173.3240  137.8510 C   0  0  0  0  0  2  0  0  0  0  0  0
  191.6830  173.6550  139.2300 C   0  0  0  0  0  0  0  0  0  0  0  0
  195.0320  175.0800  140.6820 C   0  0  0  0  0  2  0  0  0  0  0  0
  192.5260  173.9090  141.4950 N   0  0  0  0  0  0  0  0  0  0  0  0
  194.0110  174.5730  139.7120 C   0  0  0  0  0  0  0  0  0  0  0  0
  194.9940  174.3060  142.0110 C   0  0  1  0  0  3  0  0  0  0  0  0
  193.1720  174.3740  137.3740 C   0  0  2  0  0  3  0  0  0  0  0  0
  190.4110  173.5600  139.4970 N   0  0  0  0  0  0  0  0  0  0  0  0
  197.9410  175.8160  143.1340 C   0  0  0  0  0  2  0  0  0  0  0  0
  197.1720  174.6470  142.7450 N   0  0  0  0  0  2  0  0  0  0  0  0
  195.8320  174.9510  143.0350 N   0  0  1  0  0  0  0  0  0  0  0  0
  197.0570  176.9640  143.1350 N   0  0  0  0  0  2  0  0  0  0  0  0
  195.7430  176.4000  142.8990 C   0  0  0  0  0  2  0  0  0  0  0  0
  193.7580  174.0030  136.1280 O   0  0  0  0  0  0  0  0  0  0  0  0
  195.0550  173.5350  136.0170 N   0  0  0  0  0  2  0  0  0  0  0  0
  195.8960  174.0980  135.2860 O   0  0  0  0  0  1  0  0  0  0  0  0
  1  4  1  0  0  0  0
  1  6  2  0  0  0  0
  3  4  1  0  0  0  0
  5 34  1  6  0  0  0
  5  3  1  0  0  0  0
  6  2  2  0  0  0  0
  7  5  1  0  0  0  0
  7  1  1  0  0  0  0
  8 18  1  6  0  0  0
  8 20  1  0  0  0  0
  9 20  1  0  0  0  0
  9 15  1  0  0  0  0
 10 14  1  0  0  0  0
 11 21  1  0  0  0  0
 12 14  1  0  0  0  0
 13 22  1  0  0  0  0
 13 11  2  0  0  0  0
 16 19  2  0  0  0  0
 17  2  1  1  0  0  0
 17 19  1  0  0  0  0
 17 22  1  0  0  0  0
 18 12  1  0  0  0  0
 19  8  1  0  0  0  0
 20 10  2  0  0  0  0
 21 15  2  0  0  0  0
 22  9  2  0  0  0  0
 24 23  2  0  0  0  0
 25 30  2  0  0  0  0
 26 31  2  0  0  0  0
 27 28  1  0  0  0  0
 28 34  2  0  0  0  0
 28 25  1  0  0  0  0
 30 24  1  0  0  0  0
 31 25  1  0  0  0  0
 31 29  1  0  0  0  0
 32 29  1  6  0  0  0
 32 24  1  0  0  0  0
 32 37  1  0  0  0  0
 33 40  1  6  0  0  0
 33 27  1  0  0  0  0
 33 26  1  0  0  0  0
 35 38  1  0  0  0  0
 36 37  1  0  0  0  0
 36 35  1  0  0  0  0
 37 39  1  6  0  0  0
 39 38  1  0  0  0  0
 41 40  1  0  0  0  0
 42 41  1  0  0  0  0
M  END
>  <MODEL>
3

>  <REMARK>
 VINA RESULT:      -8.6      3.322      6.510
  Name = 
  5 active torsions:
  status: ('A' for Active; 'I' for Inactive)
    1  A    between atoms: N_1  and  O_26
    2  A    between atoms: C_9  and  C_24
    3  A    between atoms: O_26  and  C_38
    4  A    between atoms: C_27  and  N_41
    5  A    between atoms: N_33  and  C_34
                            x       y       z     vdW  Elec       q    Type
                         _______ _______ _______ _____ _____    ______ ____

>  <TORSDO>
F 5

$$$$
=
 OpenBabel11062419353D

 42 48  0  0  1  0  0  0  0  0999 V2000
  196.2590  173.7090  141.8320 C   0  0  0  0  0  0  0  0  0  0  0  0
  197.8280  172.9270  143.7620 C   0  0  0  0  0  3  0  0  0  0  0  0
  194.6370  175.2800  141.1380 N   0  0  0  0  0  2  0  0  0  0  0  0
  196.0180  175.1500  141.5930 C   0  0  0  0  0  2  0  0  0  0  0  0
  193.9740  174.0330  141.5100 C   0  0  2  0  0  3  0  0  0  0  0  0
  197.0510  173.3260  142.7930 C   0  0  0  0  0  0  0  0  0  0  0  0
  195.0310  172.9490  141.5620 C   0  0  0  0  0  2  0  0  0  0  0  0
  195.8530  170.4160  144.3190 C   0  0  2  0  0  3  0  0  0  0  0  0
  194.6950  172.5220  145.2580 C   0  0  0  0  0  0  0  0  0  0  0  0
  193.4610  170.4170  144.9370 C   0  0  0  0  0  3  0  0  0  0  0  0
  194.8480  175.1850  146.1450 C   0  0  0  0  0  3  0  0  0  0  0  0
  194.4620  168.5010  143.7650 N   0  0  0  0  0  2  0  0  0  0  0  0
  196.0150  174.4830  145.8410 C   0  0  0  0  0  3  0  0  0  0  0  0
  193.3870  168.9390  144.6570 C   0  0  0  0  0  2  0  0  0  0  0  0
  193.5300  173.2410  145.5740 C   0  0  0  0  0  3  0  0  0  0  0  0
  197.9410  170.2210  145.4470 O   0  0  0  0  0  0  0  0  0  0  0  0
  197.2580  172.4480  145.0630 C   0  0  2  0  0  3  0  0  0  0  0  0
  195.7360  168.8920  144.3640 C   0  0  0  0  0  2  0  0  0  0  0  0
  197.0770  170.9590  145.0000 C   0  0  0  0  0  0  0  0  0  0  0  0
  194.6170  171.0940  144.8600 C   0  0  0  0  0  0  0  0  0  0  0  0
  193.6050  174.5660  146.0090 C   0  0  0  0  0  3  0  0  0  0  0  0
  195.9570  173.1560  145.3920 C   0  0  0  0  0  0  0  0  0  0  0  0
  191.9680  176.9610  144.3210 O   0  0  0  0  0  0  0  0  0  0  0  0
  191.2060  176.3160  143.5540 C   0  0  0  0  0  0  0  0  0  0  0  0
  191.0810  174.6590  141.8230 C   0  0  0  0  0  0  0  0  0  0  0  0
  188.8970  173.6490  141.3600 C   0  0  0  0  0  3  0  0  0  0  0  0
  190.7310  173.4710  139.6040 C   0  0  0  0  0  2  0  0  0  0  0  0
  191.6740  173.9350  140.6700 C   0  0  0  0  0  0  0  0  0  0  0  0
  189.0340  175.1190  143.3130 C   0  0  0  0  0  2  0  0  0  0  0  0
  191.7820  175.4990  142.5270 N   0  0  0  0  0  0  0  0  0  0  0  0
  189.6380  174.4770  142.1030 C   0  0  0  0  0  0  0  0  0  0  0  0
  189.6980  176.4700  143.6340 C   0  0  1  0  0  3  0  0  0  0  0  0
  189.4890  172.8300  140.2390 C   0  0  2  0  0  3  0  0  0  0  0  0
  192.9470  173.6950  140.5330 N   0  0  0  0  0  0  0  0  0  0  0  0
  187.2720  177.4200  145.9670 C   0  0  0  0  0  2  0  0  0  0  0  0
  188.0430  177.6530  144.7590 N   0  0  0  0  0  2  0  0  0  0  0  0
  189.2640  176.9840  144.9440 N   0  0  1  0  0  0  0  0  0  0  0  0
  187.7750  176.2210  146.6050 N   0  0  0  0  0  2  0  0  0  0  0  0
  188.9470  175.8690  145.8280 C   0  0  0  0  0  2  0  0  0  0  0  0
  188.5060  172.5170  139.2530 O   0  0  0  0  0  0  0  0  0  0  0  0
  188.3820  173.2190  138.0680 N   0  0  0  0  0  2  0  0  0  0  0  0
  187.8000  174.3220  138.0150 O   0  0  0  0  0  1  0  0  0  0  0  0
  1  6  2  0  0  0  0
  3  5  1  0  0  0  0
  3  4  1  0  0  0  0
  4  1  1  0  0  0  0
  5 34  1  6  0  0  0
  5  7  1  0  0  0  0
  6  2  2  0  0  0  0
  7  1  1  0  0  0  0
  8 18  1  1  0  0  0
  8 20  1  0  0  0  0
  8 19  1  0  0  0  0
  9 22  2  0  0  0  0
  9 15  1  0  0  0  0
 12 18  1  0  0  0  0
 12 14  1  0  0  0  0
 13 11  2  0  0  0  0
 14 10  1  0  0  0  0
 15 21  2  0  0  0  0
 17  2  1  6  0  0  0
 17 22  1  0  0  0  0
 19 17  1  0  0  0  0
 19 16  2  0  0  0  0
 20 10  2  0  0  0  0
 20  9  1  0  0  0  0
 21 11  1  0  0  0  0
 22 13  1  0  0  0  0
 24 32  1  0  0  0  0
 24 23  2  0  0  0  0
 25 31  1  0  0  0  0
 25 30  2  0  0  0  0
 26 31  2  0  0  0  0
 27 33  1  0  0  0  0
 27 28  1  0  0  0  0
 28 25  1  0  0  0  0
 30 24  1  0  0  0  0
 31 29  1  0  0  0  0
 32 29  1  1  0  0  0
 32 37  1  0  0  0  0
 33 40  1  6  0  0  0
 33 26  1  0  0  0  0
 34 28  2  0  0  0  0
 35 38  1  0  0  0  0
 36 37  1  0  0  0  0
 36 35  1  0  0  0  0
 37 39  1  1  0  0  0
 39 38  1  0  0  0  0
 41 40  1  0  0  0  0
 42 41  1  0  0  0  0
M  END
>  <MODEL>
4

>  <REMARK>
 VINA RESULT:      -8.6      2.949      9.002
  Name = 
  5 active torsions:
  status: ('A' for Active; 'I' for Inactive)
    1  A    between atoms: N_1  and  O_26
    2  A    between atoms: C_9  and  C_24
    3  A    between atoms: O_26  and  C_38
    4  A    between atoms: C_27  and  N_41
    5  A    between atoms: N_33  and  C_34
                            x       y       z     vdW  Elec       q    Type
                         _______ _______ _______ _____ _____    ______ ____

>  <TORSDO>
F 5

$$$$
=
 OpenBabel11062419353D

 42 48  0  0  1  0  0  0  0  0999 V2000
  187.7610  174.4000  141.7290 C   0  0  0  0  0  0  0  0  0  0  0  0
  186.3020  176.1640  142.9770 C   0  0  0  0  0  3  0  0  0  0  0  0
  189.5740  172.8930  141.8820 N   0  0  0  0  0  2  0  0  0  0  0  0
  188.2570  173.1970  142.4350 C   0  0  0  0  0  2  0  0  0  0  0  0
  190.0110  174.1080  141.1990 C   0  0  2  0  0  3  0  0  0  0  0  0
  187.0250  175.2730  142.3570 C   0  0  0  0  0  0  0  0  0  0  0  0
  188.7720  174.8650  140.7690 C   0  0  0  0  0  2  0  0  0  0  0  0
  188.9650  176.5620  144.7840 C   0  0  2  0  0  3  0  0  0  0  0  0
  187.0100  177.6770  146.0470 C   0  0  0  0  0  0  0  0  0  0  0  0
  189.1570  177.2170  147.1590 C   0  0  0  0  0  3  0  0  0  0  0  0
  184.4160  178.7610  146.0360 C   0  0  0  0  0  3  0  0  0  0  0  0
  190.9150  175.8870  146.0690 N   0  0  0  0  0  2  0  0  0  0  0  0
  185.0210  178.3850  144.8360 C   0  0  0  0  0  3  0  0  0  0  0  0
  190.6120  176.8270  147.1490 C   0  0  0  0  0  2  0  0  0  0  0  0
  186.3900  178.0660  147.2460 C   0  0  0  0  0  3  0  0  0  0  0  0
  189.1150  177.6370  142.6650 O   0  0  0  0  0  0  0  0  0  0  0  0
  186.9110  177.4340  143.4890 C   0  0  2  0  0  3  0  0  0  0  0  0
  190.4920  176.4930  144.8080 C   0  0  0  0  0  2  0  0  0  0  0  0
  188.3990  177.2620  143.5810 C   0  0  0  0  0  0  0  0  0  0  0  0
  188.4070  177.1730  146.0480 C   0  0  0  0  0  0  0  0  0  0  0  0
  185.0990  178.5990  147.2420 C   0  0  0  0  0  3  0  0  0  0  0  0
  186.3110  177.8380  144.8230 C   0  0  0  0  0  0  0  0  0  0  0  0
  192.7760  173.5920  144.7480 O   0  0  0  0  0  0  0  0  0  0  0  0
  193.3250  173.6240  143.6160 C   0  0  0  0  0  0  0  0  0  0  0  0
  192.9750  173.8400  141.2520 C   0  0  0  0  0  0  0  0  0  0  0  0
  194.9170  174.3580  139.8500 C   0  0  0  0  0  3  0  0  0  0  0  0
  192.8340  173.3860  138.7560 C   0  0  0  0  0  2  0  0  0  0  0  0
  192.1290  173.6800  140.0420 C   0  0  0  0  0  0  0  0  0  0  0  0
  195.2630  174.4270  142.2720 C   0  0  0  0  0  2  0  0  0  0  0  0
  192.5020  173.6160  142.4430 N   0  0  0  0  0  0  0  0  0  0  0  0
  194.4080  174.1690  141.0710 C   0  0  0  0  0  0  0  0  0  0  0  0
  194.8350  173.5670  143.4740 C   0  0  1  0  0  3  0  0  0  0  0  0
  194.0630  174.2930  138.6060 C   0  0  2  0  0  3  0  0  0  0  0  0
  190.8290  173.7710  140.0410 N   0  0  0  0  0  0  0  0  0  0  0  0
  197.0460  173.0740  146.1380 C   0  0  0  0  0  2  0  0  0  0  0  0
  195.7820  172.8350  145.4670 N   0  0  0  0  0  2  0  0  0  0  0  0
  195.5220  173.9870  144.7070 N   0  0  1  0  0  0  0  0  0  0  0  0
  197.7770  174.0770  145.3900 N   0  0  0  0  0  2  0  0  0  0  0  0
  196.8390  174.5190  144.3780 C   0  0  0  0  0  2  0  0  0  0  0  0
  194.8390  173.9310  137.4660 O   0  0  0  0  0  0  0  0  0  0  0  0
  196.2010  174.1580  137.3820 N   0  0  0  0  0  2  0  0  0  0  0  0
  196.6670  175.1480  136.7790 O   0  0  0  0  0  1  0  0  0  0  0  0
  1  6  2  0  0  0  0
  1  4  1  0  0  0  0
  3  4  1  0  0  0  0
  5 34  1  6  0  0  0
  5  3  1  0  0  0  0
  6  2  2  0  0  0  0
  7  5  1  0  0  0  0
  7  1  1  0  0  0  0
  8 18  1  1  0  0  0
  8 20  1  0  0  0  0
  9 20  1  0  0  0  0
  9 15  1  0  0  0  0
 11 21  1  0  0  0  0
 12 14  1  0  0  0  0
 13 11  2  0  0  0  0
 14 10  1  0  0  0  0
 16 19  2  0  0  0  0
 17  2  1  1  0  0  0
 17 19  1  0  0  0  0
 17 22  1  0  0  0  0
 18 12  1  0  0  0  0
 19  8  1  0  0  0  0
 20 10  2  0  0  0  0
 21 15  2  0  0  0  0
 22 13  1  0  0  0  0
 22  9  2  0  0  0  0
 24 23  2  0  0  0  0
 25 30  2  0  0  0  0
 26 31  2  0  0  0  0
 27 28  1  0  0  0  0
 28 25  1  0  0  0  0
 30 24  1  0  0  0  0
 31 25  1  0  0  0  0
 31 29  1  0  0  0  0
 32 29  1  6  0  0  0
 32 24  1  0  0  0  0
 32 37  1  0  0  0  0
 33 40  1  6  0  0  0
 33 27  1  0  0  0  0
 33 26  1  0  0  0  0
 34 28  2  0  0  0  0
 36 35  1  0  0  0  0
 37 39  1  6  0  0  0
 37 36  1  0  0  0  0
 38 35  1  0  0  0  0
 39 38  1  0  0  0  0
 41 40  1  0  0  0  0
 42 41  1  0  0  0  0
M  END
>  <MODEL>
5

>  <REMARK>
 VINA RESULT:      -8.5      2.940      6.136
  Name = 
  5 active torsions:
  status: ('A' for Active; 'I' for Inactive)
    1  A    between atoms: N_1  and  O_26
    2  A    between atoms: C_9  and  C_24
    3  A    between atoms: O_26  and  C_38
    4  A    between atoms: C_27  and  N_41
    5  A    between atoms: N_33  and  C_34
                            x       y       z     vdW  Elec       q    Type
                         _______ _______ _______ _____ _____    ______ ____

>  <TORSDO>
F 5

$$$$
=
 OpenBabel11062419353D

 42 48  0  0  1  0  0  0  0  0999 V2000
  189.8170  173.4040  144.8470 C   0  0  0  0  0  0  0  0  0  0  0  0
  189.4780  175.1590  146.7440 C   0  0  0  0  0  3  0  0  0  0  0  0
  191.2930  172.5340  143.2200 N   0  0  0  0  0  2  0  0  0  0  0  0
  191.1280  172.7440  144.6550 C   0  0  0  0  0  2  0  0  0  0  0  0
  190.3270  173.4190  142.5740 C   0  0  2  0  0  3  0  0  0  0  0  0
  189.6530  174.2730  145.8020 C   0  0  0  0  0  0  0  0  0  0  0  0
  189.1830  173.6360  143.5420 C   0  0  0  0  0  2  0  0  0  0  0  0
  187.3720  176.9390  145.0380 C   0  0  2  0  0  3  0  0  0  0  0  0
  189.6930  177.2550  143.9550 C   0  0  0  0  0  0  0  0  0  0  0  0
  187.6340  177.9480  142.7980 C   0  0  0  0  0  3  0  0  0  0  0  0
  192.4940  177.0780  144.1210 C   0  0  0  0  0  3  0  0  0  0  0  0
  185.4080  177.3810  143.6750 N   0  0  0  0  0  2  0  0  0  0  0  0
  191.7110  176.8370  145.2510 C   0  0  0  0  0  3  0  0  0  0  0  0
  186.1570  178.2380  142.7540 C   0  0  0  0  0  2  0  0  0  0  0  0
  190.4950  177.5010  142.8280 C   0  0  0  0  0  3  0  0  0  0  0  0
  187.5680  177.6530  147.3010 O   0  0  0  0  0  0  0  0  0  0  0  0
  189.5140  176.6270  146.4420 C   0  0  2  0  0  3  0  0  0  0  0  0
  185.9700  177.5510  145.0120 C   0  0  0  0  0  2  0  0  0  0  0  0
  188.1070  177.1390  146.3330 C   0  0  0  0  0  0  0  0  0  0  0  0
  188.2190  177.4190  143.8830 C   0  0  0  0  0  0  0  0  0  0  0  0
  191.8870  177.4080  142.9090 C   0  0  0  0  0  3  0  0  0  0  0  0
  190.3130  176.9140  145.1850 C   0  0  0  0  0  0  0  0  0  0  0  0
  194.6740  174.3830  141.7490 O   0  0  0  0  0  0  0  0  0  0  0  0
  193.9650  174.1080  140.7460 C   0  0  0  0  0  0  0  0  0  0  0  0
  191.7740  173.5110  139.9740 C   0  0  0  0  0  0  0  0  0  0  0  0
  191.2940  173.7610  137.5840 C   0  0  0  0  0  3  0  0  0  0  0  0
  189.7900  172.2640  138.9900 C   0  0  0  0  0  2  0  0  0  0  0  0
  190.4470  172.8780  140.1860 C   0  0  0  0  0  0  0  0  0  0  0  0
  193.4370  174.6450  138.3710 C   0  0  0  0  0  2  0  0  0  0  0  0
  192.6290  173.6320  140.9460 N   0  0  0  0  0  0  0  0  0  0  0  0
  192.1470  173.9210  138.6000 C   0  0  0  0  0  0  0  0  0  0  0  0
  194.5360  174.1760  139.3410 C   0  0  1  0  0  3  0  0  0  0  0  0
  189.9040  173.2050  137.7830 C   0  0  2  0  0  3  0  0  0  0  0  0
  189.8400  172.8190  141.3380 N   0  0  0  0  0  0  0  0  0  0  0  0
  197.9380  174.7720  138.7910 C   0  0  0  0  0  2  0  0  0  0  0  0
  196.8440  174.2660  139.6000 N   0  0  0  0  0  2  0  0  0  0  0  0
  195.7230  175.0440  139.2670 N   0  0  1  0  0  0  0  0  0  0  0  0
  197.3770  175.4420  137.6350 N   0  0  0  0  0  2  0  0  0  0  0  0
  195.9500  175.4490  137.8850 C   0  0  0  0  0  2  0  0  0  0  0  0
  189.4220  172.5830  136.5930 O   0  0  0  0  0  0  0  0  0  0  0  0
  189.5460  171.2260  136.3520 N   0  0  0  0  0  2  0  0  0  0  0  0
  190.5650  170.7450  135.8130 O   0  0  0  0  0  1  0  0  0  0  0  0
  1  6  2  0  0  0  0
  3  4  1  0  0  0  0
  4  1  1  0  0  0  0
  5 34  1  6  0  0  0
  5  3  1  0  0  0  0
  5  7  1  0  0  0  0
  6  2  2  0  0  0  0
  7  1  1  0  0  0  0
  8 18  1  1  0  0  0
  8 19  1  0  0  0  0
  9 22  1  0  0  0  0
 10 20  2  0  0  0  0
 11 13  1  0  0  0  0
 12 18  1  0  0  0  0
 14 10  1  0  0  0  0
 14 12  1  0  0  0  0
 15 21  1  0  0  0  0
 15  9  2  0  0  0  0
 17  2  1  6  0  0  0
 19 17  1  0  0  0  0
 19 16  2  0  0  0  0
 20  9  1  0  0  0  0
 20  8  1  0  0  0  0
 21 11  2  0  0  0  0
 22 13  2  0  0  0  0
 22 17  1  0  0  0  0
 24 30  1  0  0  0  0
 24 23  2  0  0  0  0
 25 28  1  0  0  0  0
 25 30  2  0  0  0  0
 26 33  1  0  0  0  0
 26 31  2  0  0  0  0
 27 28  1  0  0  0  0
 28 34  2  0  0  0  0
 29 31  1  0  0  0  0
 31 25  1  0  0  0  0
 32 29  1  6  0  0  0
 32 24  1  0  0  0  0
 33 40  1  6  0  0  0
 33 27  1  0  0  0  0
 35 36  1  0  0  0  0
 37 39  1  6  0  0  0
 37 32  1  0  0  0  0
 37 36  1  0  0  0  0
 38 39  1  0  0  0  0
 38 35  1  0  0  0  0
 41 40  1  0  0  0  0
 42 41  1  0  0  0  0
M  END
>  <MODEL>
6

>  <REMARK>
 VINA RESULT:      -8.3      3.427      6.220
  Name = 
  5 active torsions:
  status: ('A' for Active; 'I' for Inactive)
    1  A    between atoms: N_1  and  O_26
    2  A    between atoms: C_9  and  C_24
    3  A    between atoms: O_26  and  C_38
    4  A    between atoms: C_27  and  N_41
    5  A    between atoms: N_33  and  C_34
                            x       y       z     vdW  Elec       q    Type
                         _______ _______ _______ _____ _____    ______ ____

>  <TORSDO>
F 5

$$$$
=
 OpenBabel11062419353D

 42 48  0  0  1  0  0  0  0  0999 V2000
  191.3810  176.3630  147.0350 C   0  0  0  0  0  0  0  0  0  0  0  0
  188.8820  177.1070  147.0400 C   0  0  0  0  0  3  0  0  0  0  0  0
  193.3630  176.1540  145.7670 N   0  0  0  0  0  2  0  0  0  0  0  0
  192.3930  177.1240  146.2680 C   0  0  0  0  0  2  0  0  0  0  0  0
  192.7130  174.8500  145.8680 C   0  0  2  0  0  3  0  0  0  0  0  0
  190.1360  176.7460  147.0400 C   0  0  0  0  0  0  0  0  0  0  0  0
  191.6950  174.9290  146.9870 C   0  0  0  0  0  2  0  0  0  0  0  0
  188.4980  177.3240  143.8270 C   0  0  2  0  0  3  0  0  0  0  0  0
  186.2440  177.9590  144.9120 C   0  0  0  0  0  0  0  0  0  0  0  0
  186.7030  178.4320  142.5400 C   0  0  0  0  0  3  0  0  0  0  0  0
  184.5260  177.9300  147.1370 C   0  0  0  0  0  3  0  0  0  0  0  0
  188.9410  178.1150  141.5720 N   0  0  0  0  0  2  0  0  0  0  0  0
  185.7190  177.2060  147.1660 C   0  0  0  0  0  3  0  0  0  0  0  0
  187.5170  178.2900  141.2810 C   0  0  0  0  0  2  0  0  0  0  0  0
  185.0370  178.6780  144.8960 C   0  0  0  0  0  3  0  0  0  0  0  0
  189.0090  175.1140  144.5520 O   0  0  0  0  0  0  0  0  0  0  0  0
  187.8800  176.4200  146.1630 C   0  0  2  0  0  3  0  0  0  0  0  0
  189.0850  176.9660  142.4620 C   0  0  0  0  0  2  0  0  0  0  0  0
  188.4880  176.1880  144.8110 C   0  0  0  0  0  0  0  0  0  0  0  0
  187.1140  177.9170  143.7090 C   0  0  0  0  0  0  0  0  0  0  0  0
  184.1860  178.6680  146.0040 C   0  0  0  0  0  3  0  0  0  0  0  0
  186.5900  177.2140  146.0680 C   0  0  0  0  0  0  0  0  0  0  0  0
  193.8550  176.4450  141.7870 O   0  0  0  0  0  0  0  0  0  0  0  0
  194.3900  175.3590  142.1280 C   0  0  0  0  0  0  0  0  0  0  0  0
  194.5600  173.6880  143.8420 C   0  0  0  0  0  0  0  0  0  0  0  0
  195.5380  171.5240  143.2400 C   0  0  0  0  0  3  0  0  0  0  0  0
  195.4110  172.1740  145.6980 C   0  0  0  0  0  2  0  0  0  0  0  0
  194.4920  173.2740  145.2670 C   0  0  0  0  0  0  0  0  0  0  0  0
  195.1260  173.0910  141.4050 C   0  0  0  0  0  2  0  0  0  0  0  0
  194.2060  174.8830  143.4670 N   0  0  0  0  0  0  0  0  0  0  0  0
  195.1310  172.7380  142.8600 C   0  0  0  0  0  0  0  0  0  0  0  0
  195.3050  174.6030  141.1820 C   0  0  1  0  0  3  0  0  0  0  0  0
  195.3990  171.0410  144.6640 C   0  0  2  0  0  3  0  0  0  0  0  0
  193.6990  173.8140  146.1490 N   0  0  0  0  0  0  0  0  0  0  0  0
  196.2390  174.8440  137.8200 C   0  0  0  0  0  2  0  0  0  0  0  0
  196.3120  175.2860  139.2010 N   0  0  0  0  0  2  0  0  0  0  0  0
  195.0700  174.9710  139.7750 N   0  0  1  0  0  0  0  0  0  0  0  0
  195.2190  173.8200  137.7230 N   0  0  0  0  0  2  0  0  0  0  0  0
  194.6040  173.8040  139.0350 C   0  0  0  0  0  2  0  0  0  0  0  0
  196.3780  170.0500  144.9700 O   0  0  0  0  0  0  0  0  0  0  0  0
  196.6150  169.6000  146.2570 N   0  0  0  0  0  2  0  0  0  0  0  0
  197.7590  169.2800  146.6420 O   0  0  0  0  0  1  0  0  0  0  0  0
  1  6  2  0  0  0  0
  3  5  1  0  0  0  0
  3  4  1  0  0  0  0
  4  1  1  0  0  0  0
  5 34  1  1  0  0  0
  5  7  1  0  0  0  0
  6  2  2  0  0  0  0
  7  1  1  0  0  0  0
  8 18  1  6  0  0  0
  8 19  1  0  0  0  0
  9 22  1  0  0  0  0
 10 20  2  0  0  0  0
 11 13  1  0  0  0  0
 12 18  1  0  0  0  0
 14 12  1  0  0  0  0
 14 10  1  0  0  0  0
 15  9  2  0  0  0  0
 15 21  1  0  0  0  0
 16 19  2  0  0  0  0
 17  2  1  1  0  0  0
 19 17  1  0  0  0  0
 20  8  1  0  0  0  0
 20  9  1  0  0  0  0
 21 11  2  0  0  0  0
 22 17  1  0  0  0  0
 22 13  2  0  0  0  0
 23 24  2  0  0  0  0
 24 30  1  0  0  0  0
 25 28  1  0  0  0  0
 26 33  1  0  0  0  0
 28 27  1  0  0  0  0
 28 34  2  0  0  0  0
 29 31  1  0  0  0  0
 30 25  2  0  0  0  0
 31 26  2  0  0  0  0
 31 25  1  0  0  0  0
 32 29  1  6  0  0  0
 32 24  1  0  0  0  0
 33 40  1  1  0  0  0
 33 27  1  0  0  0  0
 35 36  1  0  0  0  0
 36 37  1  0  0  0  0
 37 39  1  6  0  0  0
 37 32  1  0  0  0  0
 38 35  1  0  0  0  0
 38 39  1  0  0  0  0
 40 41  1  0  0  0  0
 41 42  1  0  0  0  0
M  END
>  <MODEL>
7

>  <REMARK>
 VINA RESULT:      -8.2      2.750      3.044
  Name = 
  5 active torsions:
  status: ('A' for Active; 'I' for Inactive)
    1  A    between atoms: N_1  and  O_26
    2  A    between atoms: C_9  and  C_24
    3  A    between atoms: O_26  and  C_38
    4  A    between atoms: C_27  and  N_41
    5  A    between atoms: N_33  and  C_34
                            x       y       z     vdW  Elec       q    Type
                         _______ _______ _______ _____ _____    ______ ____

>  <TORSDO>
F 5

$$$$
=
 OpenBabel11062419353D

 42 48  0  0  1  0  0  0  0  0999 V2000
  188.2780  174.5580  141.4190 C   0  0  0  0  0  0  0  0  0  0  0  0
  188.8590  172.6890  139.6970 C   0  0  0  0  0  3  0  0  0  0  0  0
  188.4230  176.8580  141.9410 N   0  0  0  0  0  2  0  0  0  0  0  0
  187.8950  175.9130  140.9600 C   0  0  0  0  0  2  0  0  0  0  0  0
  189.4350  176.1250  142.6970 C   0  0  2  0  0  3  0  0  0  0  0  0
  188.5580  173.6270  140.5520 C   0  0  0  0  0  0  0  0  0  0  0  0
  189.0670  174.6560  142.6540 C   0  0  0  0  0  2  0  0  0  0  0  0
  190.1770  171.7870  136.8740 C   0  0  2  0  0  3  0  0  0  0  0  0
  190.7220  169.9440  138.5960 C   0  0  0  0  0  0  0  0  0  0  0  0
  191.0200  169.5700  136.1820 C   0  0  0  0  0  3  0  0  0  0  0  0
  190.9540  169.1130  141.2720 C   0  0  0  0  0  3  0  0  0  0  0  0
  190.2230  171.1940  134.5170 N   0  0  0  0  0  2  0  0  0  0  0  0
  190.7010  170.4530  140.9770 C   0  0  0  0  0  3  0  0  0  0  0  0
  191.0960  170.0430  134.7540 C   0  0  0  0  0  2  0  0  0  0  0  0
  190.9820  168.5990  138.9100 C   0  0  0  0  0  3  0  0  0  0  0  0
  191.0990  173.8120  137.7220 O   0  0  0  0  0  0  0  0  0  0  0  0
  190.2860  172.3500  139.3890 C   0  0  2  0  0  3  0  0  0  0  0  0
  190.5810  172.2400  135.4710 C   0  0  0  0  0  2  0  0  0  0  0  0
  190.5850  172.7310  137.9690 C   0  0  0  0  0  0  0  0  0  0  0  0
  190.6720  170.3930  137.1820 C   0  0  0  0  0  0  0  0  0  0  0  0
  191.0920  168.1850  140.2400 C   0  0  0  0  0  3  0  0  0  0  0  0
  190.5760  170.8840  139.6490 C   0  0  0  0  0  0  0  0  0  0  0  0
  193.7800  175.7290  141.4850 O   0  0  0  0  0  0  0  0  0  0  0  0
  193.5560  175.8610  142.7170 C   0  0  0  0  0  0  0  0  0  0  0  0
  191.8720  176.1190  144.4060 C   0  0  0  0  0  0  0  0  0  0  0  0
  192.5120  175.7020  146.7350 C   0  0  0  0  0  3  0  0  0  0  0  0
  190.3990  177.0390  146.2610 C   0  0  0  0  0  2  0  0  0  0  0  0
  190.5280  176.5730  144.8450 C   0  0  0  0  0  0  0  0  0  0  0  0
  194.1760  175.1550  145.0240 C   0  0  0  0  0  2  0  0  0  0  0  0
  192.2240  176.1580  143.1550 N   0  0  0  0  0  0  0  0  0  0  0  0
  192.8480  175.7050  145.4410 C   0  0  0  0  0  0  0  0  0  0  0  0
  194.6860  175.8110  143.7290 C   0  0  1  0  0  3  0  0  0  0  0  0
  191.1260  176.0720  147.2040 C   0  0  2  0  0  3  0  0  0  0  0  0
  189.4770  176.5980  144.0750 N   0  0  0  0  0  0  0  0  0  0  0  0
  197.7310  174.1270  144.0800 C   0  0  0  0  0  2  0  0  0  0  0  0
  196.9340  175.3400  144.0890 N   0  0  0  0  0  2  0  0  0  0  0  0
  195.8700  175.1110  143.2020 N   0  0  1  0  0  0  0  0  0  0  0  0
  196.8890  173.0310  143.6430 N   0  0  0  0  0  2  0  0  0  0  0  0
  195.6490  173.6710  143.2490 C   0  0  0  0  0  2  0  0  0  0  0  0
  191.1500  176.5700  148.5410 O   0  0  0  0  0  0  0  0  0  0  0  0
  191.0610  177.9170  148.8420 N   0  0  0  0  0  2  0  0  0  0  0  0
  191.4950  178.3810  149.9170 O   0  0  0  0  0  1  0  0  0  0  0  0
  1  7  1  0  0  0  0
  2  6  2  0  0  0  0
  3  5  1  0  0  0  0
  4  1  1  0  0  0  0
  4  3  1  0  0  0  0
  5 34  1  1  0  0  0
  6  1  2  0  0  0  0
  7  5  1  0  0  0  0
  8 18  1  6  0  0  0
  8 20  1  0  0  0  0
  8 19  1  0  0  0  0
  9 15  2  0  0  0  0
  9 22  1  0  0  0  0
 10 20  2  0  0  0  0
 12 14  1  0  0  0  0
 12 18  1  0  0  0  0
 13 11  1  0  0  0  0
 14 10  1  0  0  0  0
 15 21  1  0  0  0  0
 16 19  2  0  0  0  0
 17 22  1  0  0  0  0
 17  2  1  6  0  0  0
 19 17  1  0  0  0  0
 20  9  1  0  0  0  0
 21 11  2  0  0  0  0
 22 13  2  0  0  0  0
 23 24  2  0  0  0  0
 24 30  1  0  0  0  0
 24 32  1  0  0  0  0
 25 28  1  0  0  0  0
 25 31  1  0  0  0  0
 26 33  1  0  0  0  0
 27 33  1  0  0  0  0
 28 27  1  0  0  0  0
 29 31  1  0  0  0  0
 30 25  2  0  0  0  0
 31 26  2  0  0  0  0
 32 29  1  1  0  0  0
 33 40  1  1  0  0  0
 34 28  2  0  0  0  0
 35 36  1  0  0  0  0
 37 39  1  1  0  0  0
 37 32  1  0  0  0  0
 37 36  1  0  0  0  0
 38 35  1  0  0  0  0
 39 38  1  0  0  0  0
 40 41  1  0  0  0  0
 41 42  1  0  0  0  0
M  END
>  <MODEL>
8

>  <REMARK>
 VINA RESULT:      -7.8      3.858      8.219
  Name = 
  5 active torsions:
  status: ('A' for Active; 'I' for Inactive)
    1  A    between atoms: N_1  and  O_26
    2  A    between atoms: C_9  and  C_24
    3  A    between atoms: O_26  and  C_38
    4  A    between atoms: C_27  and  N_41
    5  A    between atoms: N_33  and  C_34
                            x       y       z     vdW  Elec       q    Type
                         _______ _______ _______ _____ _____    ______ ____

>  <TORSDO>
F 5

$$$$
=
 OpenBabel11062419353D

 42 48  0  0  1  0  0  0  0  0999 V2000
  192.7700  175.9290  146.7950 C   0  0  0  0  0  0  0  0  0  0  0  0
  195.2820  175.2910  146.5130 C   0  0  0  0  0  3  0  0  0  0  0  0
  190.5360  175.1630  146.7540 N   0  0  0  0  0  2  0  0  0  0  0  0
  191.8190  174.9860  147.4270 C   0  0  0  0  0  2  0  0  0  0  0  0
  190.8320  175.8580  145.5050 C   0  0  2  0  0  3  0  0  0  0  0  0
  194.0250  175.6070  146.6660 C   0  0  0  0  0  0  0  0  0  0  0  0
  192.0980  176.6630  145.7150 C   0  0  0  0  0  2  0  0  0  0  0  0
  193.9100  175.4850  143.5810 C   0  0  2  0  0  3  0  0  0  0  0  0
  194.3890  172.9910  144.0370 C   0  0  0  0  0  0  0  0  0  0  0  0
  192.9030  173.6960  142.2060 C   0  0  0  0  0  3  0  0  0  0  0  0
  195.7640  171.0070  145.4780 C   0  0  0  0  0  3  0  0  0  0  0  0
  192.1950  176.0360  141.9480 N   0  0  0  0  0  2  0  0  0  0  0  0
  196.0920  172.3520  145.6550 C   0  0  0  0  0  3  0  0  0  0  0  0
  192.3060  174.7330  141.2910 C   0  0  0  0  0  2  0  0  0  0  0  0
  194.0760  171.6320  143.8660 C   0  0  0  0  0  3  0  0  0  0  0  0
  196.0000  176.6190  143.7020 O   0  0  0  0  0  0  0  0  0  0  0  0
  195.8020  174.8000  145.1960 C   0  0  2  0  0  3  0  0  0  0  0  0
  193.5210  176.4160  142.4320 C   0  0  0  0  0  2  0  0  0  0  0  0
  195.3010  175.7020  144.1050 C   0  0  0  0  0  0  0  0  0  0  0  0
  193.7120  174.0310  143.2230 C   0  0  0  0  0  0  0  0  0  0  0  0
  194.7550  170.6460  144.5850 C   0  0  0  0  0  3  0  0  0  0  0  0
  195.4130  173.3550  144.9500 C   0  0  0  0  0  0  0  0  0  0  0  0
  190.1350  172.0740  143.1170 O   0  0  0  0  0  0  0  0  0  0  0  0
  189.4670  173.0830  142.7680 C   0  0  0  0  0  0  0  0  0  0  0  0
  189.0110  175.3990  143.1950 C   0  0  0  0  0  0  0  0  0  0  0  0
  187.8520  176.6780  141.4550 C   0  0  0  0  0  3  0  0  0  0  0  0
  187.8860  177.5870  143.8320 C   0  0  0  0  0  2  0  0  0  0  0  0
  188.9410  176.5640  144.1140 C   0  0  0  0  0  0  0  0  0  0  0  0
  188.5470  174.4050  140.8680 C   0  0  0  0  0  2  0  0  0  0  0  0
  189.5120  174.2620  143.5800 N   0  0  0  0  0  0  0  0  0  0  0  0
  188.4090  175.5290  141.8470 C   0  0  0  0  0  0  0  0  0  0  0  0
  188.5420  173.0330  141.5660 C   0  0  1  0  0  3  0  0  0  0  0  0
  187.8460  177.9070  142.3320 C   0  0  2  0  0  3  0  0  0  0  0  0
  189.7270  176.7350  145.1400 N   0  0  0  0  0  0  0  0  0  0  0  0
  189.2990  171.7730  138.3930 C   0  0  0  0  0  2  0  0  0  0  0  0
  188.3550  172.2670  139.3790 N   0  0  0  0  0  2  0  0  0  0  0  0
  188.9060  171.9540  140.6330 N   0  0  1  0  0  0  0  0  0  0  0  0
  190.6010  171.6700  139.0190 N   0  0  0  0  0  2  0  0  0  0  0  0
  190.3480  171.9580  140.4170 C   0  0  0  0  0  2  0  0  0  0  0  0
  186.7510  178.7630  142.0130 O   0  0  0  0  0  0  0  0  0  0  0  0
  185.5470  178.2910  141.5220 N   0  0  0  0  0  2  0  0  0  0  0  0
  184.6050  177.9800  142.2800 O   0  0  0  0  0  1  0  0  0  0  0  0
  1  4  1  0  0  0  0
  2  6  2  0  0  0  0
  3  4  1  0  0  0  0
  5 34  1  1  0  0  0
  5  7  1  0  0  0  0
  5  3  1  0  0  0  0
  6  1  2  0  0  0  0
  7  1  1  0  0  0  0
  8 18  1  6  0  0  0
  8 19  1  0  0  0  0
  9 22  1  0  0  0  0
 10 20  2  0  0  0  0
 11 13  1  0  0  0  0
 12 18  1  0  0  0  0
 14 12  1  0  0  0  0
 14 10  1  0  0  0  0
 15  9  2  0  0  0  0
 15 21  1  0  0  0  0
 16 19  2  0  0  0  0
 17  2  1  1  0  0  0
 19 17  1  0  0  0  0
 20  8  1  0  0  0  0
 20  9  1  0  0  0  0
 21 11  2  0  0  0  0
 22 17  1  0  0  0  0
 22 13  2  0  0  0  0
 24 23  2  0  0  0  0
 24 30  1  0  0  0  0
 25 30  2  0  0  0  0
 25 28  1  0  0  0  0
 26 31  2  0  0  0  0
 26 33  1  0  0  0  0
 27 28  1  0  0  0  0
 28 34  2  0  0  0  0
 29 31  1  0  0  0  0
 31 25  1  0  0  0  0
 32 29  1  6  0  0  0
 32 24  1  0  0  0  0
 33 40  1  1  0  0  0
 33 27  1  0  0  0  0
 35 38  1  0  0  0  0
 35 36  1  0  0  0  0
 36 37  1  0  0  0  0
 37 39  1  6  0  0  0
 37 32  1  0  0  0  0
 38 39  1  0  0  0  0
 41 40  1  0  0  0  0
 41 42  1  0  0  0  0
M  END
>  <MODEL>
9

>  <REMARK>
 VINA RESULT:      -7.7      3.026      7.793
  Name = 
  5 active torsions:
  status: ('A' for Active; 'I' for Inactive)
    1  A    between atoms: N_1  and  O_26
    2  A    between atoms: C_9  and  C_24
    3  A    between atoms: O_26  and  C_38
    4  A    between atoms: C_27  and  N_41
    5  A    between atoms: N_33  and  C_34
                            x       y       z     vdW  Elec       q    Type
                         _______ _______ _______ _____ _____    ______ ____

>  <TORSDO>
F 5

$$$$
