=
 OpenBabel11062419483D

 46 49  0  0  1  0  0  0  0  0999 V2000
  190.4220  175.6080  147.2320 C   0  0  0  0  0  2  0  0  0  0  0  0
  190.1840  177.0810  146.9780 C   0  0  0  0  0  2  0  0  0  0  0  0
  190.0940  177.3280  145.4810 C   0  0  0  0  0  2  0  0  0  0  0  0
  186.6940  177.0600  144.3640 C   0  0  2  0  0  3  0  0  0  0  0  0
  187.9320  177.7070  144.4860 O   0  0  0  0  0  0  0  0  0  0  0  0
  186.5900  176.1070  142.8000 S   0  0  0  0  0  0  0  0  0  0  0  0
  188.8380  176.7080  144.8800 C   0  0  1  0  0  3  0  0  0  0  0  0
  188.3920  176.0660  142.4660 C   0  0  1  0  0  3  0  0  0  0  0  0
  189.1860  175.7490  143.7280 C   0  0  0  0  0  2  0  0  0  0  0  0
  185.6200  178.0410  144.4050 N   0  0  0  0  0  2  0  0  0  0  0  0
  185.2160  178.1900  145.7940 C   0  0  0  0  0  3  0  0  0  0  0  0
  185.1300  176.8260  146.4520 C   0  0  0  0  0  1  0  0  0  0  0  0
  183.8580  178.8590  145.8530 C   0  0  0  0  0  1  0  0  0  0  0  0
  188.7060  175.0360  141.3970 C   0  0  0  0  0  2  0  0  0  0  0  0
  189.9020  174.3850  141.7020 O   0  0  0  0  0  0  0  0  0  0  0  0
  189.6380  173.0360  141.4670 C   0  0  0  0  0  2  0  0  0  0  0  0
  191.2640  170.9780  139.7880 Cl  0  0  0  0  0  0  0  0  0  0  0  0
  192.3120  170.4430  142.2420 C   0  0  0  0  0  3  0  0  0  0  0  0
  192.4490  170.6110  143.6220 C   0  0  0  0  0  0  0  0  0  0  0  0
  191.6760  171.5640  144.2900 C   0  0  0  0  0  3  0  0  0  0  0  0
  191.4050  171.2280  141.5220 C   0  0  0  0  0  0  0  0  0  0  0  0
  190.7680  172.3520  143.5770 C   0  0  0  0  0  3  0  0  0  0  0  0
  190.6330  172.1950  142.1930 C   0  0  0  0  0  0  0  0  0  0  0  0
  193.5860  169.6250  144.5150 Cl  0  0  0  0  0  0  0  0  0  0  0  0
  191.7400  175.4140  147.6500 O   0  0  0  0  0  0  0  0  0  0  0  0
  192.4050  175.0230  146.5360 N   0  0  0  0  0  2  0  0  0  0  0  0
  193.8940  176.8170  146.6210 O   0  0  0  0  0  0  0  0  0  0  0  0
  193.5040  175.7820  146.0220 C   0  0  0  0  0  0  0  0  0  0  0  0
  193.1670  175.0860  143.6630 C   0  0  0  0  0  2  0  0  0  0  0  0
  194.2700  173.3390  140.5310 C   0  0  0  0  0  0  0  0  0  0  0  0
  194.1990  175.3480  144.7720 C   0  0  2  0  0  3  0  0  0  0  0  0
  195.2080  173.0020  144.0710 C   0  0  0  0  0  2  0  0  0  0  0  0
  193.7720  174.3170  142.5340 C   0  0  0  0  0  0  0  0  0  0  0  0
  195.0050  172.7370  141.4600 C   0  0  0  0  0  2  0  0  0  0  0  0
  193.3960  174.4140  141.1010 C   0  0  0  0  0  3  0  0  0  0  0  0
  195.1320  174.1710  145.0230 C   0  0  0  0  0  0  0  0  0  0  0  0
  194.6770  173.3760  142.7220 C   0  0  0  0  0  0  0  0  0  0  0  0
  195.8690  174.1810  145.9960 O   0  0  0  0  0  0  0  0  0  0  0  0
  194.3150  172.9700  139.0870 C   0  0  0  0  0  2  0  0  0  0  0  0
  195.8490  172.6650  137.2850 O   0  0  0  0  0  1  0  0  0  0  0  0
  195.6420  173.3790  138.4670 C   0  0  1  0  0  3  0  0  0  0  0  0
  195.6160  174.8670  138.1680 C   0  0  0  0  0  2  0  0  0  0  0  0
  196.9970  175.3860  137.9300 C   0  0  0  0  0  0  0  0  0  0  0  0
  197.7650  175.5400  138.8680 O   0  0  0  0  0  0  0  0  0  0  0  0
  197.4240  175.7490  136.5480 C   0  0  0  0  0  2  0  0  0  0  0  0
  196.3010  175.9090  135.7350 O   0  0  0  0  0  1  0  0  0  0  0  0
  1 25  1  0  0  0  0
  2  1  1  0  0  0  0
  3  2  1  0  0  0  0
  4 10  1  6  0  0  0
  4  5  1  0  0  0  0
  5  7  1  0  0  0  0
  6  4  1  0  0  0  0
  7  3  1  6  0  0  0
  8 14  1  6  0  0  0
  8  6  1  0  0  0  0
  8  9  1  0  0  0  0
  9  7  1  0  0  0  0
 10 11  1  0  0  0  0
 11 13  1  0  0  0  0
 11 12  1  0  0  0  0
 14 15  1  0  0  0  0
 16 15  1  0  0  0  0
 16 23  1  0  0  0  0
 17 21  1  0  0  0  0
 18 19  1  0  0  0  0
 19 20  2  0  0  0  0
 19 24  1  0  0  0  0
 21 23  1  0  0  0  0
 21 18  2  0  0  0  0
 22 20  1  0  0  0  0
 23 22  2  0  0  0  0
 26 25  1  0  0  0  0
 28 26  1  0  0  0  0
 28 27  2  0  0  0  0
 29 31  1  0  0  0  0
 30 35  2  0  0  0  0
 30 34  1  0  0  0  0
 31 36  1  0  0  0  0
 31 28  1  1  0  0  0
 32 36  1  0  0  0  0
 33 37  2  0  0  0  0
 33 29  1  0  0  0  0
 34 37  1  0  0  0  0
 35 33  1  0  0  0  0
 36 38  2  0  0  0  0
 37 32  1  0  0  0  0
 39 30  1  0  0  0  0
 41 40  1  6  0  0  0
 41 39  1  0  0  0  0
 42 41  1  0  0  0  0
 43 42  1  0  0  0  0
 43 44  2  0  0  0  0
 45 43  1  0  0  0  0
 46 45  1  0  0  0  0
M  END
>  <MODEL>
1

>  <REMARK>
 VINA RESULT:      -5.7      0.000      0.000
  Name = 
  17 active torsions:
  status: ('A' for Active; 'I' for Inactive)
    1  A    between atoms: C_4  and  N_42
    2  A    between atoms: C_6  and  O_12
    3  A    between atoms: C_6  and  C_40
    4  A    between atoms: C_8  and  C_17
    5  A    between atoms: C_9  and  C_17
    6  A    between atoms: C_9  and  C_45
    7  A    between atoms: C_10  and  C_19
    8  A    between atoms: C_10  and  O_31
    9  A    between atoms: O_12  and  C_43
   10  A    between atoms: C_14  and  C_44
   11  A    between atoms: N_16  and  O_31
   12  A    between atoms: C_18  and  N_42
   13  A    between atoms: C_19  and  C_26
   14  A    between atoms: C_22  and  C_26
   15  A    between atoms: C_25  and  C_41
   16  A    between atoms: C_28  and  C_43
   17  A    between atoms: C_44  and  C_45
                            x       y       z     vdW  Elec       q    Type
                         _______ _______ _______ _____ _____    ______ ____

>  <TORSDO>
F 17

$$$$
=
 OpenBabel11062419483D

 46 49  0  0  1  0  0  0  0  0999 V2000
  191.1670  173.3170  138.4050 C   0  0  0  0  0  2  0  0  0  0  0  0
  192.6670  173.1590  138.5250 C   0  0  0  0  0  2  0  0  0  0  0  0
  193.3300  174.5210  138.3980 C   0  0  0  0  0  2  0  0  0  0  0  0
  196.8900  174.9440  138.2130 C   0  0  2  0  0  3  0  0  0  0  0  0
  195.5620  175.3630  138.0490 O   0  0  0  0  0  0  0  0  0  0  0  0
  197.5700  175.4990  139.8250 S   0  0  0  0  0  0  0  0  0  0  0  0
  194.7930  174.4810  138.8270 C   0  0  1  0  0  3  0  0  0  0  0  0
  195.9550  175.8560  140.6150 C   0  0  1  0  0  3  0  0  0  0  0  0
  194.9400  174.7530  140.3340 C   0  0  0  0  0  2  0  0  0  0  0  0
  197.7100  175.4730  137.1340 N   0  0  0  0  0  2  0  0  0  0  0  0
  197.9360  174.3930  136.1870 C   0  0  0  0  0  3  0  0  0  0  0  0
  196.8940  174.4500  135.0860 C   0  0  0  0  0  1  0  0  0  0  0  0
  197.8300  173.0640  136.9050 C   0  0  0  0  0  1  0  0  0  0  0  0
  196.1260  176.0170  142.1140 C   0  0  0  0  0  2  0  0  0  0  0  0
  194.9950  175.5370  142.7760 O   0  0  0  0  0  0  0  0  0  0  0  0
  195.3680  175.4890  144.1190 C   0  0  0  0  0  2  0  0  0  0  0  0
  194.8610  177.8480  146.0870 Cl  0  0  0  0  0  0  0  0  0  0  0  0
  192.7040  176.3100  146.7080 C   0  0  0  0  0  3  0  0  0  0  0  0
  191.8730  175.1930  146.5940 C   0  0  0  0  0  0  0  0  0  0  0  0
  192.1810  174.1830  145.6790 C   0  0  0  0  0  3  0  0  0  0  0  0
  193.8440  176.4270  145.9050 C   0  0  0  0  0  0  0  0  0  0  0  0
  193.3180  174.2930  144.8740 C   0  0  0  0  0  3  0  0  0  0  0  0
  194.1490  175.4150  144.9760 C   0  0  0  0  0  0  0  0  0  0  0  0
  190.4480  175.0550  147.6010 Cl  0  0  0  0  0  0  0  0  0  0  0  0
  190.5330  172.3970  139.2420 O   0  0  0  0  0  0  0  0  0  0  0  0
  190.6230  172.9340  140.4830 N   0  0  0  0  0  2  0  0  0  0  0  0
  188.6780  174.1970  140.2330 O   0  0  0  0  0  0  0  0  0  0  0  0
  189.6550  173.8750  140.9570 C   0  0  0  0  0  0  0  0  0  0  0  0
  188.4390  175.0310  142.7870 C   0  0  0  0  0  2  0  0  0  0  0  0
  188.3300  177.2450  145.8140 C   0  0  0  0  0  0  0  0  0  0  0  0
  189.7960  174.4800  142.3170 C   0  0  2  0  0  3  0  0  0  0  0  0
  190.7560  176.8260  143.0830 C   0  0  0  0  0  2  0  0  0  0  0  0
  188.6060  175.9480  143.9540 C   0  0  0  0  0  0  0  0  0  0  0  0
  189.4810  177.5970  145.2530 C   0  0  0  0  0  2  0  0  0  0  0  0
  187.6330  176.1560  145.0570 C   0  0  0  0  0  3  0  0  0  0  0  0
  190.9190  175.5070  142.3650 C   0  0  0  0  0  0  0  0  0  0  0  0
  189.6390  176.7590  144.0770 C   0  0  0  0  0  0  0  0  0  0  0  0
  191.9940  175.2530  141.8470 O   0  0  0  0  0  0  0  0  0  0  0  0
  187.8000  177.8760  147.0560 C   0  0  0  0  0  2  0  0  0  0  0  0
  185.7790  177.7080  148.3150 O   0  0  0  0  0  1  0  0  0  0  0  0
  186.2800  177.9260  147.0300 C   0  0  1  0  0  3  0  0  0  0  0  0
  185.8330  179.2890  146.5310 C   0  0  0  0  0  2  0  0  0  0  0  0
  184.9510  179.1530  145.3320 C   0  0  0  0  0  0  0  0  0  0  0  0
  183.8080  178.7390  145.4550 O   0  0  0  0  0  0  0  0  0  0  0  0
  185.4830  179.4900  143.9800 C   0  0  0  0  0  2  0  0  0  0  0  0
  185.6870  178.3200  143.2480 O   0  0  0  0  0  1  0  0  0  0  0  0
  1  2  1  0  0  0  0
  1 25  1  0  0  0  0
  3  2  1  0  0  0  0
  4 10  1  6  0  0  0
  4  6  1  0  0  0  0
  5  4  1  0  0  0  0
  5  7  1  0  0  0  0
  6  8  1  0  0  0  0
  7  3  1  6  0  0  0
  7  9  1  0  0  0  0
  8 14  1  1  0  0  0
  9  8  1  0  0  0  0
 11 13  1  0  0  0  0
 11 10  1  0  0  0  0
 12 11  1  0  0  0  0
 14 15  1  0  0  0  0
 15 16  1  0  0  0  0
 16 23  1  0  0  0  0
 19 18  1  0  0  0  0
 19 24  1  0  0  0  0
 20 19  2  0  0  0  0
 21 17  1  0  0  0  0
 21 18  2  0  0  0  0
 22 23  2  0  0  0  0
 22 20  1  0  0  0  0
 23 21  1  0  0  0  0
 25 26  1  0  0  0  0
 26 28  1  0  0  0  0
 27 28  2  0  0  0  0
 29 33  1  0  0  0  0
 30 39  1  0  0  0  0
 31 28  1  6  0  0  0
 31 36  1  0  0  0  0
 31 29  1  0  0  0  0
 32 37  1  0  0  0  0
 33 37  2  0  0  0  0
 33 35  1  0  0  0  0
 34 30  1  0  0  0  0
 35 30  2  0  0  0  0
 36 32  1  0  0  0  0
 37 34  1  0  0  0  0
 38 36  2  0  0  0  0
 41 39  1  0  0  0  0
 41 40  1  1  0  0  0
 42 41  1  0  0  0  0
 43 44  2  0  0  0  0
 43 42  1  0  0  0  0
 45 43  1  0  0  0  0
 46 45  1  0  0  0  0
M  END
>  <MODEL>
2

>  <REMARK>
 VINA RESULT:      -5.6      3.594      9.985
  Name = 
  17 active torsions:
  status: ('A' for Active; 'I' for Inactive)
    1  A    between atoms: C_4  and  N_42
    2  A    between atoms: C_6  and  O_12
    3  A    between atoms: C_6  and  C_40
    4  A    between atoms: C_8  and  C_17
    5  A    between atoms: C_9  and  C_17
    6  A    between atoms: C_9  and  C_45
    7  A    between atoms: C_10  and  C_19
    8  A    between atoms: C_10  and  O_31
    9  A    between atoms: O_12  and  C_43
   10  A    between atoms: C_14  and  C_44
   11  A    between atoms: N_16  and  O_31
   12  A    between atoms: C_18  and  N_42
   13  A    between atoms: C_19  and  C_26
   14  A    between atoms: C_22  and  C_26
   15  A    between atoms: C_25  and  C_41
   16  A    between atoms: C_28  and  C_43
   17  A    between atoms: C_44  and  C_45
                            x       y       z     vdW  Elec       q    Type
                         _______ _______ _______ _____ _____    ______ ____

>  <TORSDO>
F 17

$$$$
=
 OpenBabel11062419483D

 46 49  0  0  1  0  0  0  0  0999 V2000
  187.7160  175.8480  140.6200 C   0  0  0  0  0  2  0  0  0  0  0  0
  187.4710  177.3420  140.6370 C   0  0  0  0  0  2  0  0  0  0  0  0
  186.2200  177.6580  139.8360 C   0  0  0  0  0  2  0  0  0  0  0  0
  182.9550  178.5860  141.0040 C   0  0  2  0  0  3  0  0  0  0  0  0
  183.9170  177.6730  140.5490 O   0  0  0  0  0  0  0  0  0  0  0  0
  182.9060  178.6430  142.8380 S   0  0  0  0  0  0  0  0  0  0  0  0
  185.1520  178.3280  140.6930 C   0  0  1  0  0  3  0  0  0  0  0  0
  184.5400  177.8570  143.1100 C   0  0  1  0  0  3  0  0  0  0  0  0
  185.5940  178.4200  142.1630 C   0  0  0  0  0  2  0  0  0  0  0  0
  181.6440  178.2130  140.4970 N   0  0  0  0  0  2  0  0  0  0  0  0
  180.6490  178.8820  141.3200 C   0  0  0  0  0  3  0  0  0  0  0  0
  179.4740  177.9530  141.5590 C   0  0  0  0  0  1  0  0  0  0  0  0
  180.1640  180.1280  140.6090 C   0  0  0  0  0  1  0  0  0  0  0  0
  184.9880  178.0580  144.5460 C   0  0  0  0  0  2  0  0  0  0  0  0
  185.7630  176.9730  144.9580 O   0  0  0  0  0  0  0  0  0  0  0  0
  186.7410  177.5310  145.7810 C   0  0  0  0  0  2  0  0  0  0  0  0
  188.3760  175.3120  147.2300 Cl  0  0  0  0  0  0  0  0  0  0  0  0
  190.1850  175.9850  145.3120 C   0  0  0  0  0  3  0  0  0  0  0  0
  190.6470  176.7030  144.2060 C   0  0  0  0  0  0  0  0  0  0  0  0
  189.8400  177.6800  143.6200 C   0  0  0  0  0  3  0  0  0  0  0  0
  188.9130  176.2370  145.8350 C   0  0  0  0  0  0  0  0  0  0  0  0
  188.5670  177.9370  144.1380 C   0  0  0  0  0  3  0  0  0  0  0  0
  188.0950  177.2150  145.2390 C   0  0  0  0  0  0  0  0  0  0  0  0
  192.2400  176.3800  143.5570 Cl  0  0  0  0  0  0  0  0  0  0  0  0
  187.6230  175.3460  141.9200 O   0  0  0  0  0  0  0  0  0  0  0  0
  188.7330  174.5850  142.0800 N   0  0  0  0  0  2  0  0  0  0  0  0
  187.5430  172.5790  142.0080 O   0  0  0  0  0  0  0  0  0  0  0  0
  188.6530  173.1580  142.1380 C   0  0  0  0  0  0  0  0  0  0  0  0
  190.7660  172.9920  143.4310 C   0  0  0  0  0  2  0  0  0  0  0  0
  194.2800  171.7650  143.8970 C   0  0  0  0  0  0  0  0  0  0  0  0
  189.8880  172.3420  142.3490 C   0  0  2  0  0  3  0  0  0  0  0  0
  192.1290  172.1900  140.9460 C   0  0  0  0  0  2  0  0  0  0  0  0
  192.1480  172.4270  143.4150 C   0  0  0  0  0  0  0  0  0  0  0  0
  194.1200  171.6590  142.5830 C   0  0  0  0  0  3  0  0  0  0  0  0
  193.0480  172.2670  144.5860 C   0  0  0  0  0  2  0  0  0  0  0  0
  190.6260  172.0850  141.0410 C   0  0  0  0  0  0  0  0  0  0  0  0
  192.7600  172.0800  142.2990 C   0  0  0  0  0  0  0  0  0  0  0  0
  189.9990  171.7480  140.0500 O   0  0  0  0  0  0  0  0  0  0  0  0
  195.5530  171.4240  144.5950 C   0  0  0  0  0  2  0  0  0  0  0  0
  196.9280  172.0980  146.4250 O   0  0  0  0  0  1  0  0  0  0  0  0
  195.9950  172.5660  145.4980 C   0  0  1  0  0  3  0  0  0  0  0  0
  196.6200  173.6600  144.6500 C   0  0  0  0  0  2  0  0  0  0  0  0
  195.9070  174.9580  144.8470 C   0  0  0  0  0  0  0  0  0  0  0  0
  195.4290  175.2370  145.9360 O   0  0  0  0  0  0  0  0  0  0  0  0
  195.7490  175.8960  143.6980 C   0  0  0  0  0  2  0  0  0  0  0  0
  195.3580  175.1890  142.5610 O   0  0  0  0  0  1  0  0  0  0  0  0
  1  2  1  0  0  0  0
  1 25  1  0  0  0  0
  3  2  1  0  0  0  0
  4 10  1  1  0  0  0
  4  6  1  0  0  0  0
  5  7  1  0  0  0  0
  5  4  1  0  0  0  0
  6  8  1  0  0  0  0
  7  3  1  6  0  0  0
  7  9  1  0  0  0  0
  8 14  1  1  0  0  0
  9  8  1  0  0  0  0
 10 11  1  0  0  0  0
 11 12  1  0  0  0  0
 13 11  1  0  0  0  0
 14 15  1  0  0  0  0
 15 16  1  0  0  0  0
 18 21  1  0  0  0  0
 19 18  2  0  0  0  0
 20 22  2  0  0  0  0
 20 19  1  0  0  0  0
 21 17  1  0  0  0  0
 22 23  1  0  0  0  0
 23 16  1  0  0  0  0
 23 21  2  0  0  0  0
 24 19  1  0  0  0  0
 25 26  1  0  0  0  0
 26 28  1  0  0  0  0
 27 28  2  0  0  0  0
 30 35  1  0  0  0  0
 30 39  1  0  0  0  0
 31 28  1  6  0  0  0
 31 29  1  0  0  0  0
 32 36  1  0  0  0  0
 32 37  1  0  0  0  0
 33 29  1  0  0  0  0
 33 35  1  0  0  0  0
 34 30  2  0  0  0  0
 36 31  1  0  0  0  0
 37 34  1  0  0  0  0
 37 33  2  0  0  0  0
 38 36  2  0  0  0  0
 39 41  1  0  0  0  0
 41 40  1  1  0  0  0
 42 43  1  0  0  0  0
 42 41  1  0  0  0  0
 43 44  2  0  0  0  0
 45 43  1  0  0  0  0
 46 45  1  0  0  0  0
M  END
>  <MODEL>
3

>  <REMARK>
 VINA RESULT:      -5.5      3.441      6.301
  Name = 
  17 active torsions:
  status: ('A' for Active; 'I' for Inactive)
    1  A    between atoms: C_4  and  N_42
    2  A    between atoms: C_6  and  O_12
    3  A    between atoms: C_6  and  C_40
    4  A    between atoms: C_8  and  C_17
    5  A    between atoms: C_9  and  C_17
    6  A    between atoms: C_9  and  C_45
    7  A    between atoms: C_10  and  C_19
    8  A    between atoms: C_10  and  O_31
    9  A    between atoms: O_12  and  C_43
   10  A    between atoms: C_14  and  C_44
   11  A    between atoms: N_16  and  O_31
   12  A    between atoms: C_18  and  N_42
   13  A    between atoms: C_19  and  C_26
   14  A    between atoms: C_22  and  C_26
   15  A    between atoms: C_25  and  C_41
   16  A    between atoms: C_28  and  C_43
   17  A    between atoms: C_44  and  C_45
                            x       y       z     vdW  Elec       q    Type
                         _______ _______ _______ _____ _____    ______ ____

>  <TORSDO>
F 17

$$$$
=
 OpenBabel11062419483D

 46 49  0  0  1  0  0  0  0  0999 V2000
  187.8840  176.6970  141.2140 C   0  0  0  0  0  2  0  0  0  0  0  0
  186.5470  176.7760  141.9200 C   0  0  0  0  0  2  0  0  0  0  0  0
  186.5650  175.8690  143.1400 C   0  0  0  0  0  2  0  0  0  0  0  0
  186.8670  177.4210  146.3620 C   0  0  2  0  0  3  0  0  0  0  0  0
  186.4060  176.4350  145.4770 O   0  0  0  0  0  0  0  0  0  0  0  0
  188.4110  176.8940  147.2020 S   0  0  0  0  0  0  0  0  0  0  0  0
  187.2210  176.5460  144.3380 C   0  0  1  0  0  3  0  0  0  0  0  0
  188.8380  175.5560  146.0240 C   0  0  1  0  0  3  0  0  0  0  0  0
  188.6390  176.0010  144.5790 C   0  0  0  0  0  2  0  0  0  0  0  0
  185.8460  177.7020  147.3590 N   0  0  0  0  0  2  0  0  0  0  0  0
  185.1220  178.8860  146.9220 C   0  0  0  0  0  3  0  0  0  0  0  0
  183.8370  178.4730  146.2290 C   0  0  0  0  0  1  0  0  0  0  0  0
  185.9810  179.6710  145.9530 C   0  0  0  0  0  1  0  0  0  0  0  0
  190.2760  175.1160  146.2260 C   0  0  0  0  0  2  0  0  0  0  0  0
  191.0830  175.6550  145.2230 O   0  0  0  0  0  0  0  0  0  0  0  0
  192.0600  176.3780  145.9080 C   0  0  0  0  0  2  0  0  0  0  0  0
  192.6170  176.6890  142.8600 Cl  0  0  0  0  0  0  0  0  0  0  0  0
  195.0240  175.6790  143.6270 C   0  0  0  0  0  3  0  0  0  0  0  0
  195.9520  175.1850  144.5470 C   0  0  0  0  0  0  0  0  0  0  0  0
  195.6120  175.0830  145.8980 C   0  0  0  0  0  3  0  0  0  0  0  0
  193.7530  176.0780  144.0530 C   0  0  0  0  0  0  0  0  0  0  0  0
  194.3430  175.4800  146.3310 C   0  0  0  0  0  3  0  0  0  0  0  0
  193.4130  175.9860  145.4160 C   0  0  0  0  0  0  0  0  0  0  0  0
  197.5410  174.6890  144.0070 Cl  0  0  0  0  0  0  0  0  0  0  0  0
  187.9180  175.5590  140.4050 O   0  0  0  0  0  0  0  0  0  0  0  0
  188.9930  174.8560  140.8370 N   0  0  0  0  0  2  0  0  0  0  0  0
  187.8470  172.8240  140.8290 O   0  0  0  0  0  0  0  0  0  0  0  0
  188.9160  173.4450  141.0620 C   0  0  0  0  0  0  0  0  0  0  0  0
  190.4680  173.1890  142.9820 C   0  0  0  0  0  2  0  0  0  0  0  0
  193.7520  172.1580  144.4770 C   0  0  0  0  0  0  0  0  0  0  0  0
  190.1070  172.6980  141.5710 C   0  0  2  0  0  3  0  0  0  0  0  0
  192.6880  172.9880  141.0570 C   0  0  0  0  0  2  0  0  0  0  0  0
  191.8390  172.7410  143.3740 C   0  0  0  0  0  0  0  0  0  0  0  0
  194.0620  172.2990  143.1940 C   0  0  0  0  0  3  0  0  0  0  0  0
  192.3020  172.4240  144.7490 C   0  0  0  0  0  2  0  0  0  0  0  0
  191.2720  172.7550  140.5910 C   0  0  0  0  0  0  0  0  0  0  0  0
  192.8340  172.6640  142.5110 C   0  0  0  0  0  0  0  0  0  0  0  0
  191.0700  172.5720  139.4010 O   0  0  0  0  0  0  0  0  0  0  0  0
  194.7470  171.7840  145.5230 C   0  0  0  0  0  2  0  0  0  0  0  0
  197.0820  171.3360  145.7170 O   0  0  0  0  0  1  0  0  0  0  0  0
  195.9720  171.1370  144.8950 C   0  0  1  0  0  3  0  0  0  0  0  0
  195.7200  169.6490  144.7260 C   0  0  0  0  0  2  0  0  0  0  0  0
  195.2440  169.0420  146.0070 C   0  0  0  0  0  0  0  0  0  0  0  0
  195.8920  169.1880  147.0320 O   0  0  0  0  0  0  0  0  0  0  0  0
  193.9950  168.2280  146.0200 C   0  0  0  0  0  2  0  0  0  0  0  0
  193.1520  168.6400  144.9870 O   0  0  0  0  0  1  0  0  0  0  0  0
  1  2  1  0  0  0  0
  2  3  1  0  0  0  0
  4  6  1  0  0  0  0
  4 10  1  1  0  0  0
  5  4  1  0  0  0  0
  7  3  1  6  0  0  0
  7  9  1  0  0  0  0
  7  5  1  0  0  0  0
  8 14  1  6  0  0  0
  8  6  1  0  0  0  0
  9  8  1  0  0  0  0
 11 10  1  0  0  0  0
 12 11  1  0  0  0  0
 13 11  1  0  0  0  0
 15 16  1  0  0  0  0
 15 14  1  0  0  0  0
 17 21  1  0  0  0  0
 18 21  2  0  0  0  0
 18 19  1  0  0  0  0
 19 20  2  0  0  0  0
 20 22  1  0  0  0  0
 21 23  1  0  0  0  0
 23 16  1  0  0  0  0
 23 22  2  0  0  0  0
 24 19  1  0  0  0  0
 25 26  1  0  0  0  0
 25  1  1  0  0  0  0
 26 28  1  0  0  0  0
 27 28  2  0  0  0  0
 29 33  1  0  0  0  0
 30 35  1  0  0  0  0
 30 39  1  0  0  0  0
 31 28  1  6  0  0  0
 31 29  1  0  0  0  0
 32 37  1  0  0  0  0
 33 35  1  0  0  0  0
 34 30  2  0  0  0  0
 36 32  1  0  0  0  0
 36 31  1  0  0  0  0
 37 34  1  0  0  0  0
 37 33  2  0  0  0  0
 38 36  2  0  0  0  0
 41 39  1  0  0  0  0
 41 40  1  1  0  0  0
 42 41  1  0  0  0  0
 42 43  1  0  0  0  0
 43 45  1  0  0  0  0
 43 44  2  0  0  0  0
 46 45  1  0  0  0  0
M  END
>  <MODEL>
4

>  <REMARK>
 VINA RESULT:      -5.4      3.373      6.186
  Name = 
  17 active torsions:
  status: ('A' for Active; 'I' for Inactive)
    1  A    between atoms: C_4  and  N_42
    2  A    between atoms: C_6  and  O_12
    3  A    between atoms: C_6  and  C_40
    4  A    between atoms: C_8  and  C_17
    5  A    between atoms: C_9  and  C_17
    6  A    between atoms: C_9  and  C_45
    7  A    between atoms: C_10  and  C_19
    8  A    between atoms: C_10  and  O_31
    9  A    between atoms: O_12  and  C_43
   10  A    between atoms: C_14  and  C_44
   11  A    between atoms: N_16  and  O_31
   12  A    between atoms: C_18  and  N_42
   13  A    between atoms: C_19  and  C_26
   14  A    between atoms: C_22  and  C_26
   15  A    between atoms: C_25  and  C_41
   16  A    between atoms: C_28  and  C_43
   17  A    between atoms: C_44  and  C_45
                            x       y       z     vdW  Elec       q    Type
                         _______ _______ _______ _____ _____    ______ ____

>  <TORSDO>
F 17

$$$$
=
 OpenBabel11062419483D

 46 49  0  0  1  0  0  0  0  0999 V2000
  194.4270  171.4050  145.1640 C   0  0  0  0  0  2  0  0  0  0  0  0
  195.6500  172.0680  145.7610 C   0  0  0  0  0  2  0  0  0  0  0  0
  196.7090  172.2390  144.6840 C   0  0  0  0  0  2  0  0  0  0  0  0
  197.3660  175.2030  142.7690 C   0  0  2  0  0  3  0  0  0  0  0  0
  196.6960  174.0010  143.0390 O   0  0  0  0  0  0  0  0  0  0  0  0
  196.4550  176.6420  143.4530 S   0  0  0  0  0  0  0  0  0  0  0  0
  196.9790  173.7090  144.3840 C   0  0  1  0  0  3  0  0  0  0  0  0
  195.4060  175.6860  144.6140 C   0  0  1  0  0  3  0  0  0  0  0  0
  196.2150  174.6260  145.3530 C   0  0  0  0  0  2  0  0  0  0  0  0
  197.5210  175.3680  141.3320 N   0  0  0  0  0  2  0  0  0  0  0  0
  196.5570  174.4930  140.6840 C   0  0  0  0  0  3  0  0  0  0  0  0
  197.2380  173.7110  139.5770 C   0  0  0  0  0  1  0  0  0  0  0  0
  195.4400  175.3270  140.0920 C   0  0  0  0  0  1  0  0  0  0  0  0
  194.7490  176.6150  145.6170 C   0  0  0  0  0  2  0  0  0  0  0  0
  193.5400  176.0680  146.0510 O   0  0  0  0  0  0  0  0  0  0  0  0
  192.6720  176.2340  144.9710 C   0  0  0  0  0  2  0  0  0  0  0  0
  190.9380  178.5740  143.8690 Cl  0  0  0  0  0  0  0  0  0  0  0  0
  189.1120  177.4460  145.5410 C   0  0  0  0  0  3  0  0  0  0  0  0
  188.6600  176.5080  146.4730 C   0  0  0  0  0  0  0  0  0  0  0  0
  189.5120  175.4900  146.9080 C   0  0  0  0  0  3  0  0  0  0  0  0
  190.4140  177.3690  145.0360 C   0  0  0  0  0  0  0  0  0  0  0  0
  190.8140  175.4070  146.4080 C   0  0  0  0  0  3  0  0  0  0  0  0
  191.2690  176.3380  145.4660 C   0  0  0  0  0  0  0  0  0  0  0  0
  187.0300  176.6100  147.0990 Cl  0  0  0  0  0  0  0  0  0  0  0  0
  194.5190  171.4270  143.7710 O   0  0  0  0  0  0  0  0  0  0  0  0
  193.3340  171.9360  143.3520 N   0  0  0  0  0  2  0  0  0  0  0  0
  194.0020  172.0350  141.1190 O   0  0  0  0  0  0  0  0  0  0  0  0
  193.1070  172.2540  141.9760 C   0  0  0  0  0  0  0  0  0  0  0  0
  191.2580  173.7690  142.6470 C   0  0  0  0  0  2  0  0  0  0  0  0
  187.7180  174.9890  142.4060 C   0  0  0  0  0  0  0  0  0  0  0  0
  191.8030  172.8450  141.5450 C   0  0  2  0  0  3  0  0  0  0  0  0
  189.3610  171.8240  141.5100 C   0  0  0  0  0  2  0  0  0  0  0  0
  189.8160  174.0860  142.4190 C   0  0  0  0  0  0  0  0  0  0  0  0
  187.6240  173.7610  141.9070 C   0  0  0  0  0  3  0  0  0  0  0  0
  189.1210  175.3440  142.7930 C   0  0  0  0  0  2  0  0  0  0  0  0
  190.8140  171.7740  141.1050 C   0  0  0  0  0  0  0  0  0  0  0  0
  188.9670  173.2080  141.9210 C   0  0  0  0  0  0  0  0  0  0  0  0
  191.1880  170.8690  140.3770 O   0  0  0  0  0  0  0  0  0  0  0  0
  186.5480  175.8990  142.5620 C   0  0  0  0  0  2  0  0  0  0  0  0
  187.2820  177.0490  140.6040 O   0  0  0  0  0  1  0  0  0  0  0  0
  186.8190  177.2450  141.9070 C   0  0  1  0  0  3  0  0  0  0  0  0
  185.5340  178.0540  141.8770 C   0  0  0  0  0  2  0  0  0  0  0  0
  185.3990  178.8820  143.1140 C   0  0  0  0  0  0  0  0  0  0  0  0
  186.3240  179.5910  143.4820 O   0  0  0  0  0  0  0  0  0  0  0  0
  184.1440  178.8120  143.9170 C   0  0  0  0  0  2  0  0  0  0  0  0
  184.3730  178.0890  145.0880 O   0  0  0  0  0  1  0  0  0  0  0  0
  1  2  1  0  0  0  0
  3  2  1  0  0  0  0
  4 10  1  6  0  0  0
  4  5  1  0  0  0  0
  4  6  1  0  0  0  0
  5  7  1  0  0  0  0
  6  8  1  0  0  0  0
  7  3  1  1  0  0  0
  7  9  1  0  0  0  0
  8  9  1  0  0  0  0
  8 14  1  1  0  0  0
 11 10  1  0  0  0  0
 12 11  1  0  0  0  0
 13 11  1  0  0  0  0
 14 15  1  0  0  0  0
 16 23  1  0  0  0  0
 16 15  1  0  0  0  0
 17 21  1  0  0  0  0
 18 19  1  0  0  0  0
 19 20  2  0  0  0  0
 19 24  1  0  0  0  0
 21 23  1  0  0  0  0
 21 18  2  0  0  0  0
 22 20  1  0  0  0  0
 23 22  2  0  0  0  0
 25  1  1  0  0  0  0
 26 25  1  0  0  0  0
 27 28  2  0  0  0  0
 28 26  1  0  0  0  0
 30 39  1  0  0  0  0
 30 35  1  0  0  0  0
 31 28  1  1  0  0  0
 31 29  1  0  0  0  0
 32 37  1  0  0  0  0
 33 29  1  0  0  0  0
 33 35  1  0  0  0  0
 34 37  1  0  0  0  0
 34 30  2  0  0  0  0
 36 32  1  0  0  0  0
 36 31  1  0  0  0  0
 37 33  2  0  0  0  0
 38 36  2  0  0  0  0
 41 40  1  6  0  0  0
 41 39  1  0  0  0  0
 42 41  1  0  0  0  0
 42 43  1  0  0  0  0
 43 44  2  0  0  0  0
 43 45  1  0  0  0  0
 45 46  1  0  0  0  0
M  END
>  <MODEL>
5

>  <REMARK>
 VINA RESULT:      -5.4      3.709      8.895
  Name = 
  17 active torsions:
  status: ('A' for Active; 'I' for Inactive)
    1  A    between atoms: C_4  and  N_42
    2  A    between atoms: C_6  and  O_12
    3  A    between atoms: C_6  and  C_40
    4  A    between atoms: C_8  and  C_17
    5  A    between atoms: C_9  and  C_17
    6  A    between atoms: C_9  and  C_45
    7  A    between atoms: C_10  and  C_19
    8  A    between atoms: C_10  and  O_31
    9  A    between atoms: O_12  and  C_43
   10  A    between atoms: C_14  and  C_44
   11  A    between atoms: N_16  and  O_31
   12  A    between atoms: C_18  and  N_42
   13  A    between atoms: C_19  and  C_26
   14  A    between atoms: C_22  and  C_26
   15  A    between atoms: C_25  and  C_41
   16  A    between atoms: C_28  and  C_43
   17  A    between atoms: C_44  and  C_45
                            x       y       z     vdW  Elec       q    Type
                         _______ _______ _______ _____ _____    ______ ____

>  <TORSDO>
F 17

$$$$
=
 OpenBabel11062419483D

 46 49  0  0  1  0  0  0  0  0999 V2000
  190.9970  176.9270  147.0850 C   0  0  0  0  0  2  0  0  0  0  0  0
  190.1740  175.8880  146.3530 C   0  0  0  0  0  2  0  0  0  0  0  0
  188.7350  175.9500  146.8390 C   0  0  0  0  0  2  0  0  0  0  0  0
  186.4540  177.9070  144.8780 C   0  0  2  0  0  3  0  0  0  0  0  0
  187.6360  177.7040  145.6040 O   0  0  0  0  0  0  0  0  0  0  0  0
  186.7150  177.6190  143.0840 S   0  0  0  0  0  0  0  0  0  0  0  0
  187.7720  176.3090  145.7130 C   0  0  1  0  0  3  0  0  0  0  0  0
  188.2800  176.6790  143.2550 C   0  0  1  0  0  3  0  0  0  0  0  0
  188.1980  175.6590  144.3860 C   0  0  0  0  0  2  0  0  0  0  0  0
  185.9770  179.2660  145.0850 N   0  0  0  0  0  2  0  0  0  0  0  0
  185.0680  179.2430  146.2200 C   0  0  0  0  0  3  0  0  0  0  0  0
  185.8610  179.3000  147.5120 C   0  0  0  0  0  1  0  0  0  0  0  0
  184.2570  177.9640  146.1880 C   0  0  0  0  0  1  0  0  0  0  0  0
  188.6130  175.9690  141.9560 C   0  0  0  0  0  2  0  0  0  0  0  0
  189.2420  174.7530  142.2260 O   0  0  0  0  0  0  0  0  0  0  0  0
  190.5980  175.0060  142.0250 C   0  0  0  0  0  2  0  0  0  0  0  0
  191.7440  173.2620  144.3360 Cl  0  0  0  0  0  0  0  0  0  0  0  0
  192.5230  171.7310  142.2260 C   0  0  0  0  0  3  0  0  0  0  0  0
  192.6360  171.4090  140.8710 C   0  0  0  0  0  0  0  0  0  0  0  0
  192.0870  172.2550  139.9040 C   0  0  0  0  0  3  0  0  0  0  0  0
  191.8570  172.8960  142.6210 C   0  0  0  0  0  0  0  0  0  0  0  0
  191.4210  173.4200  140.2920 C   0  0  0  0  0  3  0  0  0  0  0  0
  191.2950  173.7430  141.6480 C   0  0  0  0  0  0  0  0  0  0  0  0
  193.4700  169.9500  140.3850 Cl  0  0  0  0  0  0  0  0  0  0  0  0
  192.1380  176.3250  147.6200 O   0  0  0  0  0  0  0  0  0  0  0  0
  192.8540  175.9170  146.5440 N   0  0  0  0  0  2  0  0  0  0  0  0
  194.5200  177.5190  146.8660 O   0  0  0  0  0  0  0  0  0  0  0  0
  194.0730  176.5680  146.1730 C   0  0  0  0  0  0  0  0  0  0  0  0
  193.9130  176.1740  143.7270 C   0  0  0  0  0  2  0  0  0  0  0  0
  195.0550  174.5370  140.5510 C   0  0  0  0  0  0  0  0  0  0  0  0
  194.8270  176.1200  144.9620 C   0  0  2  0  0  3  0  0  0  0  0  0
  195.4570  173.6950  144.1070 C   0  0  0  0  0  2  0  0  0  0  0  0
  194.5000  175.4070  142.5890 C   0  0  0  0  0  0  0  0  0  0  0  0
  195.5400  173.7170  141.4770 C   0  0  0  0  0  2  0  0  0  0  0  0
  194.3340  175.7090  141.1440 C   0  0  0  0  0  3  0  0  0  0  0  0
  195.4830  174.7620  145.1750 C   0  0  0  0  0  0  0  0  0  0  0  0
  195.1810  174.2900  142.7620 C   0  0  0  0  0  0  0  0  0  0  0  0
  196.0790  174.5340  146.2150 O   0  0  0  0  0  0  0  0  0  0  0  0
  195.2120  174.3010  139.0870 C   0  0  0  0  0  2  0  0  0  0  0  0
  197.3300  175.3730  139.3320 O   0  0  0  0  0  1  0  0  0  0  0  0
  196.2220  175.2690  138.4900 C   0  0  1  0  0  3  0  0  0  0  0  0
  196.6600  174.7570  137.1280 C   0  0  0  0  0  2  0  0  0  0  0  0
  196.0040  175.5340  136.0330 C   0  0  0  0  0  0  0  0  0  0  0  0
  194.8280  175.3440  135.7640 O   0  0  0  0  0  0  0  0  0  0  0  0
  196.8020  176.5180  135.2440 C   0  0  0  0  0  2  0  0  0  0  0  0
  196.1650  177.7590  135.2560 O   0  0  0  0  0  1  0  0  0  0  0  0
  1 25  1  0  0  0  0
  2  3  1  0  0  0  0
  2  1  1  0  0  0  0
  4 10  1  6  0  0  0
  4  5  1  0  0  0  0
  5  7  1  0  0  0  0
  6  8  1  0  0  0  0
  6  4  1  0  0  0  0
  7  3  1  1  0  0  0
  8 14  1  6  0  0  0
  8  9  1  0  0  0  0
  9  7  1  0  0  0  0
 10 11  1  0  0  0  0
 11 12  1  0  0  0  0
 13 11  1  0  0  0  0
 14 15  1  0  0  0  0
 16 15  1  0  0  0  0
 18 21  1  0  0  0  0
 19 18  2  0  0  0  0
 20 22  2  0  0  0  0
 20 19  1  0  0  0  0
 21 17  1  0  0  0  0
 22 23  1  0  0  0  0
 23 16  1  0  0  0  0
 23 21  2  0  0  0  0
 24 19  1  0  0  0  0
 26 25  1  0  0  0  0
 28 26  1  0  0  0  0
 28 27  2  0  0  0  0
 29 31  1  0  0  0  0
 30 35  2  0  0  0  0
 30 34  1  0  0  0  0
 31 36  1  0  0  0  0
 31 28  1  1  0  0  0
 32 36  1  0  0  0  0
 33 37  2  0  0  0  0
 33 29  1  0  0  0  0
 34 37  1  0  0  0  0
 35 33  1  0  0  0  0
 36 38  2  0  0  0  0
 37 32  1  0  0  0  0
 39 30  1  0  0  0  0
 41 39  1  0  0  0  0
 41 40  1  1  0  0  0
 42 41  1  0  0  0  0
 43 42  1  0  0  0  0
 44 43  2  0  0  0  0
 45 46  1  0  0  0  0
 45 43  1  0  0  0  0
M  END
>  <MODEL>
6

>  <REMARK>
 VINA RESULT:      -5.3      1.481      2.081
  Name = 
  17 active torsions:
  status: ('A' for Active; 'I' for Inactive)
    1  A    between atoms: C_4  and  N_42
    2  A    between atoms: C_6  and  O_12
    3  A    between atoms: C_6  and  C_40
    4  A    between atoms: C_8  and  C_17
    5  A    between atoms: C_9  and  C_17
    6  A    between atoms: C_9  and  C_45
    7  A    between atoms: C_10  and  C_19
    8  A    between atoms: C_10  and  O_31
    9  A    between atoms: O_12  and  C_43
   10  A    between atoms: C_14  and  C_44
   11  A    between atoms: N_16  and  O_31
   12  A    between atoms: C_18  and  N_42
   13  A    between atoms: C_19  and  C_26
   14  A    between atoms: C_22  and  C_26
   15  A    between atoms: C_25  and  C_41
   16  A    between atoms: C_28  and  C_43
   17  A    between atoms: C_44  and  C_45
                            x       y       z     vdW  Elec       q    Type
                         _______ _______ _______ _____ _____    ______ ____

>  <TORSDO>
F 17

$$$$
=
 OpenBabel11062419483D

 46 49  0  0  1  0  0  0  0  0999 V2000
  192.7620  176.5300  146.5410 C   0  0  0  0  0  2  0  0  0  0  0  0
  191.5210  175.7540  146.1550 C   0  0  0  0  0  2  0  0  0  0  0  0
  190.3050  176.3850  146.8120 C   0  0  0  0  0  2  0  0  0  0  0  0
  187.1630  177.1250  145.2410 C   0  0  2  0  0  3  0  0  0  0  0  0
  188.4920  177.4040  145.5930 O   0  0  0  0  0  0  0  0  0  0  0  0
  187.0630  176.3530  143.5790 S   0  0  0  0  0  0  0  0  0  0  0  0
  189.0410  176.1720  145.9870 C   0  0  1  0  0  3  0  0  0  0  0  0
  188.8240  175.8550  143.4790 C   0  0  1  0  0  3  0  0  0  0  0  0
  189.3060  175.2430  144.7900 C   0  0  0  0  0  2  0  0  0  0  0  0
  186.3830  178.3520  145.2530 N   0  0  0  0  0  2  0  0  0  0  0  0
  185.4250  178.2520  146.3420 C   0  0  0  0  0  3  0  0  0  0  0  0
  185.3690  176.8220  146.8450 C   0  0  0  0  0  1  0  0  0  0  0  0
  184.0540  178.6600  145.8440 C   0  0  0  0  0  1  0  0  0  0  0  0
  189.0270  174.8610  142.3510 C   0  0  0  0  0  2  0  0  0  0  0  0
  188.8260  173.5620  142.8200 O   0  0  0  0  0  0  0  0  0  0  0  0
  189.4130  172.7440  141.8550 C   0  0  0  0  0  2  0  0  0  0  0  0
  190.4380  170.2500  140.2970 Cl  0  0  0  0  0  0  0  0  0  0  0  0
  192.0780  170.0980  142.4630 C   0  0  0  0  0  3  0  0  0  0  0  0
  192.5870  170.5150  143.6960 C   0  0  0  0  0  0  0  0  0  0  0  0
  192.0640  171.6510  144.3190 C   0  0  0  0  0  3  0  0  0  0  0  0
  191.0480  170.8150  141.8450 C   0  0  0  0  0  0  0  0  0  0  0  0
  191.0350  172.3720  143.7080 C   0  0  0  0  0  3  0  0  0  0  0  0
  190.5280  171.9650  142.4680 C   0  0  0  0  0  0  0  0  0  0  0  0
  193.8760  169.6130  144.4610 Cl  0  0  0  0  0  0  0  0  0  0  0  0
  193.8610  175.6690  146.5680 O   0  0  0  0  0  0  0  0  0  0  0  0
  193.9170  175.1370  145.3230 N   0  0  0  0  0  2  0  0  0  0  0  0
  195.4530  176.7190  144.5600 O   0  0  0  0  0  0  0  0  0  0  0  0
  194.7380  175.7150  144.3040 C   0  0  0  0  0  0  0  0  0  0  0  0
  193.3190  175.0000  142.3960 C   0  0  0  0  0  2  0  0  0  0  0  0
  192.7090  172.9840  139.2910 C   0  0  0  0  0  0  0  0  0  0  0  0
  194.7560  175.1290  142.9290 C   0  0  2  0  0  3  0  0  0  0  0  0
  195.0410  172.6270  142.1120 C   0  0  0  0  0  2  0  0  0  0  0  0
  193.2660  174.1020  141.2040 C   0  0  0  0  0  0  0  0  0  0  0  0
  193.6890  172.3040  139.8760 C   0  0  0  0  0  3  0  0  0  0  0  0
  192.3200  174.2070  140.0640 C   0  0  0  0  0  2  0  0  0  0  0  0
  195.5420  173.8260  142.8800 C   0  0  0  0  0  0  0  0  0  0  0  0
  194.0300  173.0330  141.0850 C   0  0  0  0  0  0  0  0  0  0  0  0
  196.6230  173.7500  143.4410 O   0  0  0  0  0  0  0  0  0  0  0  0
  192.0720  172.5610  138.0110 C   0  0  0  0  0  2  0  0  0  0  0  0
  191.3230  173.9570  136.2270 O   0  0  0  0  0  1  0  0  0  0  0  0
  191.0550  173.5930  137.5480 C   0  0  1  0  0  3  0  0  0  0  0  0
  189.6610  172.9980  137.6420 C   0  0  0  0  0  2  0  0  0  0  0  0
  188.6430  174.0650  137.8800 C   0  0  0  0  0  0  0  0  0  0  0  0
  188.3710  174.4110  139.0200 O   0  0  0  0  0  0  0  0  0  0  0  0
  187.9340  174.6820  136.7220 C   0  0  0  0  0  2  0  0  0  0  0  0
  187.0570  175.6680  137.1760 O   0  0  0  0  0  1  0  0  0  0  0  0
  1 25  1  0  0  0  0
  2  1  1  0  0  0  0
  2  3  1  0  0  0  0
  4 10  1  6  0  0  0
  4  5  1  0  0  0  0
  5  7  1  0  0  0  0
  6  4  1  0  0  0  0
  7  3  1  6  0  0  0
  8 14  1  6  0  0  0
  8  6  1  0  0  0  0
  8  9  1  0  0  0  0
  9  7  1  0  0  0  0
 10 11  1  0  0  0  0
 11 12  1  0  0  0  0
 13 11  1  0  0  0  0
 14 15  1  0  0  0  0
 16 23  1  0  0  0  0
 16 15  1  0  0  0  0
 17 21  1  0  0  0  0
 18 19  1  0  0  0  0
 19 20  2  0  0  0  0
 19 24  1  0  0  0  0
 21 18  2  0  0  0  0
 21 23  1  0  0  0  0
 22 20  1  0  0  0  0
 23 22  2  0  0  0  0
 26 25  1  0  0  0  0
 28 27  2  0  0  0  0
 28 26  1  0  0  0  0
 29 31  1  0  0  0  0
 30 34  2  0  0  0  0
 30 35  1  0  0  0  0
 31 28  1  1  0  0  0
 32 36  1  0  0  0  0
 33 29  1  0  0  0  0
 34 37  1  0  0  0  0
 35 33  1  0  0  0  0
 36 31  1  0  0  0  0
 36 38  2  0  0  0  0
 37 33  2  0  0  0  0
 37 32  1  0  0  0  0
 39 30  1  0  0  0  0
 41 40  1  6  0  0  0
 41 42  1  0  0  0  0
 41 39  1  0  0  0  0
 42 43  1  0  0  0  0
 43 44  2  0  0  0  0
 45 46  1  0  0  0  0
 45 43  1  0  0  0  0
M  END
>  <MODEL>
7

>  <REMARK>
 VINA RESULT:      -5.2      2.131      3.361
  Name = 
  17 active torsions:
  status: ('A' for Active; 'I' for Inactive)
    1  A    between atoms: C_4  and  N_42
    2  A    between atoms: C_6  and  O_12
    3  A    between atoms: C_6  and  C_40
    4  A    between atoms: C_8  and  C_17
    5  A    between atoms: C_9  and  C_17
    6  A    between atoms: C_9  and  C_45
    7  A    between atoms: C_10  and  C_19
    8  A    between atoms: C_10  and  O_31
    9  A    between atoms: O_12  and  C_43
   10  A    between atoms: C_14  and  C_44
   11  A    between atoms: N_16  and  O_31
   12  A    between atoms: C_18  and  N_42
   13  A    between atoms: C_19  and  C_26
   14  A    between atoms: C_22  and  C_26
   15  A    between atoms: C_25  and  C_41
   16  A    between atoms: C_28  and  C_43
   17  A    between atoms: C_44  and  C_45
                            x       y       z     vdW  Elec       q    Type
                         _______ _______ _______ _____ _____    ______ ____

>  <TORSDO>
F 17

$$$$
=
 OpenBabel11062419483D

 46 49  0  0  1  0  0  0  0  0999 V2000
  194.2190  168.5630  141.6100 C   0  0  0  0  0  2  0  0  0  0  0  0
  192.8430  168.6710  142.2320 C   0  0  0  0  0  2  0  0  0  0  0  0
  191.7900  168.6420  141.1370 C   0  0  0  0  0  2  0  0  0  0  0  0
  191.2210  170.9770  138.4710 C   0  0  2  0  0  3  0  0  0  0  0  0
  190.9010  169.8600  139.2560 O   0  0  0  0  0  0  0  0  0  0  0  0
  190.3850  172.4890  139.0890 S   0  0  0  0  0  0  0  0  0  0  0  0
  191.6870  169.9810  140.4150 C   0  0  1  0  0  3  0  0  0  0  0  0
  189.9900  171.8360  140.7560 C   0  0  1  0  0  3  0  0  0  0  0  0
  191.1740  171.0840  141.3560 C   0  0  0  0  0  2  0  0  0  0  0  0
  190.8280  170.7370  137.0910 N   0  0  0  0  0  2  0  0  0  0  0  0
  190.7220  172.0300  136.4350 C   0  0  0  0  0  3  0  0  0  0  0  0
  189.6830  171.9610  135.3320 C   0  0  0  0  0  1  0  0  0  0  0  0
  192.0630  172.4000  135.8340 C   0  0  0  0  0  1  0  0  0  0  0  0
  189.5860  172.9680  141.6830 C   0  0  0  0  0  2  0  0  0  0  0  0
  190.3200  174.1150  141.3800 O   0  0  0  0  0  0  0  0  0  0  0  0
  190.8420  174.5330  142.6040 C   0  0  0  0  0  2  0  0  0  0  0  0
  191.7670  177.4680  143.0820 Cl  0  0  0  0  0  0  0  0  0  0  0  0
  194.1760  176.3600  142.4710 C   0  0  0  0  0  3  0  0  0  0  0  0
  195.0340  175.3160  142.1160 C   0  0  0  0  0  0  0  0  0  0  0  0
  194.5260  174.0290  141.9240 C   0  0  0  0  0  3  0  0  0  0  0  0
  192.8080  176.1230  142.6400 C   0  0  0  0  0  0  0  0  0  0  0  0
  193.1600  173.7840  142.0910 C   0  0  0  0  0  3  0  0  0  0  0  0
  192.2970  174.8240  142.4570 C   0  0  0  0  0  0  0  0  0  0  0  0
  196.7440  175.6210  141.9070 Cl  0  0  0  0  0  0  0  0  0  0  0  0
  195.1740  168.4070  142.6170 O   0  0  0  0  0  0  0  0  0  0  0  0
  195.1410  169.5700  143.3110 N   0  0  0  0  0  2  0  0  0  0  0  0
  195.4770  168.5200  145.3670 O   0  0  0  0  0  0  0  0  0  0  0  0
  195.2850  169.5910  144.7340 C   0  0  0  0  0  0  0  0  0  0  0  0
  193.9180  171.6290  145.1100 C   0  0  0  0  0  2  0  0  0  0  0  0
  193.5250  175.2110  146.1520 C   0  0  0  0  0  0  0  0  0  0  0  0
  195.2110  170.8840  145.4810 C   0  0  2  0  0  3  0  0  0  0  0  0
  196.4030  173.2080  145.0480 C   0  0  0  0  0  2  0  0  0  0  0  0
  193.9770  173.0580  145.5410 C   0  0  0  0  0  0  0  0  0  0  0  0
  194.8230  175.1410  145.8810 C   0  0  0  0  0  3  0  0  0  0  0  0
  192.8290  173.8970  145.9670 C   0  0  0  0  0  2  0  0  0  0  0  0
  196.4700  171.7190  145.2890 C   0  0  0  0  0  0  0  0  0  0  0  0
  195.0900  173.7660  145.5000 C   0  0  0  0  0  0  0  0  0  0  0  0
  197.5660  171.1890  145.3690 O   0  0  0  0  0  0  0  0  0  0  0  0
  192.8470  176.4670  146.5840 C   0  0  0  0  0  2  0  0  0  0  0  0
  191.3120  176.9030  148.3590 O   0  0  0  0  0  1  0  0  0  0  0  0
  191.4830  176.1640  147.1870 C   0  0  1  0  0  3  0  0  0  0  0  0
  190.4020  176.5340  146.1870 C   0  0  0  0  0  2  0  0  0  0  0  0
  189.2540  175.5810  146.2690 C   0  0  0  0  0  0  0  0  0  0  0  0
  189.4290  174.3890  146.0640 O   0  0  0  0  0  0  0  0  0  0  0  0
  187.8860  176.0960  146.5680 C   0  0  0  0  0  2  0  0  0  0  0  0
  187.9720  177.3780  147.1100 O   0  0  0  0  0  1  0  0  0  0  0  0
  1  2  1  0  0  0  0
  1 25  1  0  0  0  0
  3  2  1  0  0  0  0
  4 10  1  6  0  0  0
  4  6  1  0  0  0  0
  4  5  1  0  0  0  0
  5  7  1  0  0  0  0
  6  8  1  0  0  0  0
  7  3  1  1  0  0  0
  7  9  1  0  0  0  0
  8  9  1  0  0  0  0
  8 14  1  1  0  0  0
 11 10  1  0  0  0  0
 12 11  1  0  0  0  0
 13 11  1  0  0  0  0
 15 14  1  0  0  0  0
 15 16  1  0  0  0  0
 18 21  1  0  0  0  0
 19 18  2  0  0  0  0
 20 22  2  0  0  0  0
 20 19  1  0  0  0  0
 21 17  1  0  0  0  0
 22 23  1  0  0  0  0
 23 16  1  0  0  0  0
 23 21  2  0  0  0  0
 24 19  1  0  0  0  0
 25 26  1  0  0  0  0
 26 28  1  0  0  0  0
 28 27  2  0  0  0  0
 29 31  1  0  0  0  0
 29 33  1  0  0  0  0
 30 39  1  0  0  0  0
 31 28  1  6  0  0  0
 32 36  1  0  0  0  0
 32 37  1  0  0  0  0
 33 35  1  0  0  0  0
 34 30  2  0  0  0  0
 35 30  1  0  0  0  0
 36 38  2  0  0  0  0
 36 31  1  0  0  0  0
 37 33  2  0  0  0  0
 37 34  1  0  0  0  0
 39 41  1  0  0  0  0
 41 40  1  1  0  0  0
 42 43  1  0  0  0  0
 42 41  1  0  0  0  0
 43 45  1  0  0  0  0
 44 43  2  0  0  0  0
 45 46  1  0  0  0  0
M  END
>  <MODEL>
8

>  <REMARK>
 VINA RESULT:      -5.1      4.012      8.152
  Name = 
  17 active torsions:
  status: ('A' for Active; 'I' for Inactive)
    1  A    between atoms: C_4  and  N_42
    2  A    between atoms: C_6  and  O_12
    3  A    between atoms: C_6  and  C_40
    4  A    between atoms: C_8  and  C_17
    5  A    between atoms: C_9  and  C_17
    6  A    between atoms: C_9  and  C_45
    7  A    between atoms: C_10  and  C_19
    8  A    between atoms: C_10  and  O_31
    9  A    between atoms: O_12  and  C_43
   10  A    between atoms: C_14  and  C_44
   11  A    between atoms: N_16  and  O_31
   12  A    between atoms: C_18  and  N_42
   13  A    between atoms: C_19  and  C_26
   14  A    between atoms: C_22  and  C_26
   15  A    between atoms: C_25  and  C_41
   16  A    between atoms: C_28  and  C_43
   17  A    between atoms: C_44  and  C_45
                            x       y       z     vdW  Elec       q    Type
                         _______ _______ _______ _____ _____    ______ ____

>  <TORSDO>
F 17

$$$$
=
 OpenBabel11062419483D

 46 49  0  0  1  0  0  0  0  0999 V2000
  188.2000  177.9360  142.1090 C   0  0  0  0  0  2  0  0  0  0  0  0
  189.6630  177.5600  142.0130 C   0  0  0  0  0  2  0  0  0  0  0  0
  190.4000  178.0800  143.2370 C   0  0  0  0  0  2  0  0  0  0  0  0
  193.0220  176.3040  144.9260 C   0  0  2  0  0  3  0  0  0  0  0  0
  192.2510  177.4410  144.6430 O   0  0  0  0  0  0  0  0  0  0  0  0
  192.3700  175.4020  146.3840 S   0  0  0  0  0  0  0  0  0  0  0  0
  191.1000  176.9590  143.9960 C   0  0  1  0  0  3  0  0  0  0  0  0
  190.7090  176.1770  146.3780 C   0  0  1  0  0  3  0  0  0  0  0  0
  190.1360  176.2560  144.9670 C   0  0  0  0  0  2  0  0  0  0  0  0
  194.4010  176.6960  145.1760 N   0  0  0  0  0  2  0  0  0  0  0  0
  195.2490  175.8880  144.3150 C   0  0  0  0  0  3  0  0  0  0  0  0
  194.4100  175.2440  143.2270 C   0  0  0  0  0  1  0  0  0  0  0  0
  195.9130  174.8040  145.1390 C   0  0  0  0  0  1  0  0  0  0  0  0
  189.7600  175.3960  147.2680 C   0  0  0  0  0  2  0  0  0  0  0  0
  188.4880  175.3660  146.6950 O   0  0  0  0  0  0  0  0  0  0  0  0
  187.7490  176.2930  147.4290 C   0  0  0  0  0  2  0  0  0  0  0  0
  186.6920  179.0610  148.3880 Cl  0  0  0  0  0  0  0  0  0  0  0  0
  185.3730  178.9050  146.0140 C   0  0  0  0  0  3  0  0  0  0  0  0
  185.0100  178.3020  144.8060 C   0  0  0  0  0  0  0  0  0  0  0  0
  185.5380  177.0570  144.4600 C   0  0  0  0  0  3  0  0  0  0  0  0
  186.2690  178.2670  146.8780 C   0  0  0  0  0  0  0  0  0  0  0  0
  186.4340  176.4150  145.3190 C   0  0  0  0  0  3  0  0  0  0  0  0
  186.8090  177.0170  146.5250 C   0  0  0  0  0  0  0  0  0  0  0  0
  183.8890  179.1070  143.7300 Cl  0  0  0  0  0  0  0  0  0  0  0  0
  187.4250  176.9500  141.4960 O   0  0  0  0  0  0  0  0  0  0  0  0
  187.9430  175.7770  141.9340 N   0  0  0  0  0  2  0  0  0  0  0  0
  188.1910  174.9150  139.7810 O   0  0  0  0  0  0  0  0  0  0  0  0
  188.3130  174.7400  141.0210 C   0  0  0  0  0  0  0  0  0  0  0  0
  190.0380  173.7020  142.4740 C   0  0  0  0  0  2  0  0  0  0  0  0
  192.1940  170.8140  143.5160 C   0  0  0  0  0  0  0  0  0  0  0  0
  188.8510  173.4420  141.5320 C   0  0  2  0  0  3  0  0  0  0  0  0
  190.4380  171.6530  140.3970 C   0  0  0  0  0  2  0  0  0  0  0  0
  190.8190  172.4520  142.7130 C   0  0  0  0  0  0  0  0  0  0  0  0
  191.8830  170.4920  142.2660 C   0  0  0  0  0  3  0  0  0  0  0  0
  191.5580  172.0990  143.9520 C   0  0  0  0  0  2  0  0  0  0  0  0
  189.1740  172.4780  140.3980 C   0  0  0  0  0  0  0  0  0  0  0  0
  191.0070  171.5420  141.7770 C   0  0  0  0  0  0  0  0  0  0  0  0
  188.3810  172.3340  139.4820 O   0  0  0  0  0  0  0  0  0  0  0  0
  193.0850  169.9840  144.3770 C   0  0  0  0  0  2  0  0  0  0  0  0
  194.5820  171.6280  143.5100 O   0  0  0  0  0  1  0  0  0  0  0  0
  194.5090  170.5170  144.3520 C   0  0  1  0  0  3  0  0  0  0  0  0
  194.9180  170.9140  145.7600 C   0  0  0  0  0  2  0  0  0  0  0  0
  196.3740  170.6590  145.9830 C   0  0  0  0  0  0  0  0  0  0  0  0
  197.1910  171.5400  145.7620 O   0  0  0  0  0  0  0  0  0  0  0  0
  196.8280  169.3140  146.4400 C   0  0  0  0  0  2  0  0  0  0  0  0
  196.1740  168.9730  147.6240 O   0  0  0  0  0  1  0  0  0  0  0  0
  2  1  1  0  0  0  0
  2  3  1  0  0  0  0
  4 10  1  1  0  0  0
  4  6  1  0  0  0  0
  5  4  1  0  0  0  0
  7  3  1  1  0  0  0
  7  5  1  0  0  0  0
  7  9  1  0  0  0  0
  8  6  1  0  0  0  0
  8 14  1  1  0  0  0
  9  8  1  0  0  0  0
 11 13  1  0  0  0  0
 11 10  1  0  0  0  0
 12 11  1  0  0  0  0
 15 14  1  0  0  0  0
 15 16  1  0  0  0  0
 18 21  1  0  0  0  0
 19 18  2  0  0  0  0
 20 19  1  0  0  0  0
 20 22  2  0  0  0  0
 21 17  1  0  0  0  0
 22 23  1  0  0  0  0
 23 21  2  0  0  0  0
 23 16  1  0  0  0  0
 24 19  1  0  0  0  0
 25 26  1  0  0  0  0
 25  1  1  0  0  0  0
 27 28  2  0  0  0  0
 28 26  1  0  0  0  0
 29 33  1  0  0  0  0
 30 35  1  0  0  0  0
 30 39  1  0  0  0  0
 31 28  1  6  0  0  0
 31 29  1  0  0  0  0
 32 36  1  0  0  0  0
 32 37  1  0  0  0  0
 33 35  1  0  0  0  0
 34 30  2  0  0  0  0
 36 31  1  0  0  0  0
 37 34  1  0  0  0  0
 37 33  2  0  0  0  0
 38 36  2  0  0  0  0
 41 40  1  6  0  0  0
 41 39  1  0  0  0  0
 41 42  1  0  0  0  0
 42 43  1  0  0  0  0
 43 45  1  0  0  0  0
 44 43  2  0  0  0  0
 45 46  1  0  0  0  0
M  END
>  <MODEL>
9

>  <REMARK>
 VINA RESULT:      -5.1      4.174      7.912
  Name = 
  17 active torsions:
  status: ('A' for Active; 'I' for Inactive)
    1  A    between atoms: C_4  and  N_42
    2  A    between atoms: C_6  and  O_12
    3  A    between atoms: C_6  and  C_40
    4  A    between atoms: C_8  and  C_17
    5  A    between atoms: C_9  and  C_17
    6  A    between atoms: C_9  and  C_45
    7  A    between atoms: C_10  and  C_19
    8  A    between atoms: C_10  and  O_31
    9  A    between atoms: O_12  and  C_43
   10  A    between atoms: C_14  and  C_44
   11  A    between atoms: N_16  and  O_31
   12  A    between atoms: C_18  and  N_42
   13  A    between atoms: C_19  and  C_26
   14  A    between atoms: C_22  and  C_26
   15  A    between atoms: C_25  and  C_41
   16  A    between atoms: C_28  and  C_43
   17  A    between atoms: C_44  and  C_45
                            x       y       z     vdW  Elec       q    Type
                         _______ _______ _______ _____ _____    ______ ____

>  <TORSDO>
F 17

$$$$
