=
 OpenBabel11062422563D

 29 33  0  0  1  0  0  0  0  0999 V2000
  187.2790  175.4050  142.7570 N   0  0  0  0  0  2  0  0  0  0  0  0
  190.2090  177.2020  143.2390 C   0  0  2  0  0  3  0  0  0  0  0  0
  188.0220  177.4040  143.9050 C   0  0  1  0  0  3  0  0  0  0  0  0
  188.1960  176.1620  143.4970 C   0  0  2  0  0  3  0  0  0  0  0  0
  189.3960  175.1090  141.9060 C   0  0  0  0  0  2  0  0  0  0  0  0
  189.2430  178.0620  143.8490 O   0  0  0  0  0  0  0  0  0  0  0  0
  187.9860  174.6590  141.7970 N   0  0  0  0  0  2  0  0  0  0  0  0
  189.5070  175.9280  143.1060 N   0  0  1  0  0  0  0  0  0  0  0  0
  184.6210  179.1230  143.6460 C   0  0  0  0  0  3  0  0  0  0  0  0
  184.2030  179.1030  144.9850 C   0  0  0  0  0  2  0  0  0  0  0  0
  185.8820  178.6170  143.2600 C   0  0  0  0  0  0  0  0  0  0  0  0
  186.0650  177.7540  147.6870 C   0  0  0  0  0  3  0  0  0  0  0  0
  186.2910  178.0570  145.5780 C   0  0  0  0  0  0  0  0  0  0  0  0
  186.7490  178.0610  144.2500 C   0  0  0  0  0  0  0  0  0  0  0  0
  184.8940  178.3900  147.2740 C   0  0  0  0  0  3  0  0  0  0  0  0
  185.0710  178.5640  145.9220 C   0  0  0  0  0  0  0  0  0  0  0  0
  186.9140  177.5440  146.6520 N   0  0  0  0  0  0  0  0  0  0  0  0
  186.2000  178.7010  141.8960 O   0  0  0  0  0  0  0  0  0  0  0  0
  185.5230  178.0030  140.8610 C   0  0  0  0  0  1  0  0  0  0  0  0
  192.0920  176.5940  146.2680 C   0  0  2  0  0  3  0  0  0  0  0  0
  191.4140  177.0410  144.1570 C   0  0  1  0  0  3  0  0  0  0  0  0
  193.6790  176.0570  144.4110 C   0  0  0  0  0  2  0  0  0  0  0  0
  191.0120  176.4600  145.3740 O   0  0  0  0  0  0  0  0  0  0  0  0
  194.3450  175.8540  146.6890 O   0  0  0  0  0  1  0  0  0  0  0  0
  193.2560  175.6890  145.8320 C   0  0  1  0  0  3  0  0  0  0  0  0
  192.4650  176.1500  143.4930 C   0  0  0  0  0  2  0  0  0  0  0  0
  191.3270  175.0730  147.9500 O   0  0  0  0  0  0  0  0  0  0  0  0
  191.6380  176.2560  147.6510 C   0  0  0  0  0  0  0  0  0  0  0  0
  191.5660  177.2770  148.6390 N   0  0  0  0  0  1  0  0  0  0  0  0
  2  6  1  1  0  0  0
  2 21  1  0  0  0  0
  3 14  1  6  0  0  0
  4  1  1  6  0  0  0
  4  3  1  0  0  0  0
  6  3  1  0  0  0  0
  7  5  1  0  0  0  0
  7  1  1  0  0  0  0
  8  5  1  6  0  0  0
  8  2  1  0  0  0  0
  8  4  1  0  0  0  0
  9 10  1  0  0  0  0
 10 16  1  0  0  0  0
 11  9  2  0  0  0  0
 11 14  1  0  0  0  0
 13 16  1  0  0  0  0
 13 17  1  0  0  0  0
 14 13  2  0  0  0  0
 15 12  1  0  0  0  0
 16 15  2  0  0  0  0
 17 12  2  0  0  0  0
 18 11  1  0  0  0  0
 19 18  1  0  0  0  0
 20 28  1  1  0  0  0
 21 26  1  6  0  0  0
 21 23  1  0  0  0  0
 22 25  1  0  0  0  0
 23 20  1  0  0  0  0
 25 20  1  0  0  0  0
 25 24  1  1  0  0  0
 26 22  1  0  0  0  0
 28 27  2  0  0  0  0
 28 29  1  0  0  0  0
M  END
>  <MODEL>
1

>  <REMARK>
 VINA RESULT:      -8.2      0.000      0.000
  Name = 
  4 active torsions:
  status: ('A' for Active; 'I' for Inactive)
    1  A    between atoms: C_2  and  C_16
    2  A    between atoms: C_6  and  O_9
    3  A    between atoms: C_8  and  C_10
    4  A    between atoms: C_14  and  C_18
                            x       y       z     vdW  Elec       q    Type
                         _______ _______ _______ _____ _____    ______ ____

>  <TORSDO>
F 4

$$$$
=
 OpenBabel11062422563D

 29 33  0  0  1  0  0  0  0  0999 V2000
  187.2280  175.2830  142.6040 N   0  0  0  0  0  2  0  0  0  0  0  0
  190.4090  176.5010  143.2720 C   0  0  2  0  0  3  0  0  0  0  0  0
  188.2690  177.0570  143.8840 C   0  0  1  0  0  3  0  0  0  0  0  0
  188.2360  175.8260  143.4130 C   0  0  2  0  0  3  0  0  0  0  0  0
  189.2910  174.6560  141.8000 C   0  0  0  0  0  2  0  0  0  0  0  0
  189.5880  177.4890  143.9010 O   0  0  0  0  0  0  0  0  0  0  0  0
  187.8300  174.4710  141.6250 N   0  0  0  0  0  2  0  0  0  0  0  0
  189.4990  175.3810  143.0470 N   0  0  1  0  0  0  0  0  0  0  0  0
  185.1980  179.3140  143.6210 C   0  0  0  0  0  3  0  0  0  0  0  0
  184.7760  179.3570  144.9580 C   0  0  0  0  0  2  0  0  0  0  0  0
  186.3610  178.6090  143.2370 C   0  0  0  0  0  0  0  0  0  0  0  0
  186.3780  177.7070  147.6600 C   0  0  0  0  0  3  0  0  0  0  0  0
  186.6610  177.9790  145.5530 C   0  0  0  0  0  0  0  0  0  0  0  0
  187.1200  177.9130  144.2270 C   0  0  0  0  0  0  0  0  0  0  0  0
  185.3300  178.5290  147.2460 C   0  0  0  0  0  3  0  0  0  0  0  0
  185.5400  178.6770  145.8960 C   0  0  0  0  0  0  0  0  0  0  0  0
  187.1860  177.3650  146.6270 N   0  0  0  0  0  0  0  0  0  0  0  0
  186.6950  178.6460  141.8740 O   0  0  0  0  0  0  0  0  0  0  0  0
  185.9220  178.0650  140.8340 C   0  0  0  0  0  1  0  0  0  0  0  0
  193.7630  175.7940  144.4300 C   0  0  2  0  0  3  0  0  0  0  0  0
  191.5300  176.0820  144.2140 C   0  0  1  0  0  3  0  0  0  0  0  0
  192.4580  176.2740  146.5090 C   0  0  0  0  0  2  0  0  0  0  0  0
  192.7750  176.4450  143.6680 O   0  0  0  0  0  0  0  0  0  0  0  0
  194.7740  175.7250  146.6150 O   0  0  0  0  0  1  0  0  0  0  0  0
  193.8270  176.3990  145.8420 C   0  0  1  0  0  3  0  0  0  0  0  0
  191.3560  176.7600  145.5740 C   0  0  0  0  0  2  0  0  0  0  0  0
  195.8600  176.8630  143.9980 O   0  0  0  0  0  0  0  0  0  0  0  0
  195.0820  175.9080  143.7370 C   0  0  0  0  0  0  0  0  0  0  0  0
  195.4640  174.9270  142.7810 N   0  0  0  0  0  1  0  0  0  0  0  0
  2  6  1  1  0  0  0
  2 21  1  0  0  0  0
  3  6  1  0  0  0  0
  3 14  1  6  0  0  0
  4  1  1  6  0  0  0
  4  3  1  0  0  0  0
  7  5  1  0  0  0  0
  7  1  1  0  0  0  0
  8  5  1  6  0  0  0
  8  2  1  0  0  0  0
  8  4  1  0  0  0  0
  9 10  1  0  0  0  0
 10 16  1  0  0  0  0
 11  9  2  0  0  0  0
 11 14  1  0  0  0  0
 13 16  1  0  0  0  0
 13 17  1  0  0  0  0
 14 13  2  0  0  0  0
 15 12  1  0  0  0  0
 16 15  2  0  0  0  0
 17 12  2  0  0  0  0
 18 11  1  0  0  0  0
 19 18  1  0  0  0  0
 20 28  1  6  0  0  0
 20 25  1  0  0  0  0
 21 26  1  1  0  0  0
 23 21  1  0  0  0  0
 23 20  1  0  0  0  0
 25 22  1  0  0  0  0
 25 24  1  1  0  0  0
 26 22  1  0  0  0  0
 28 27  2  0  0  0  0
 29 28  1  0  0  0  0
M  END
>  <MODEL>
2

>  <REMARK>
 VINA RESULT:      -8.0      1.478      2.295
  Name = 
  4 active torsions:
  status: ('A' for Active; 'I' for Inactive)
    1  A    between atoms: C_2  and  C_16
    2  A    between atoms: C_6  and  O_9
    3  A    between atoms: C_8  and  C_10
    4  A    between atoms: C_14  and  C_18
                            x       y       z     vdW  Elec       q    Type
                         _______ _______ _______ _____ _____    ______ ____

>  <TORSDO>
F 4

$$$$
=
 OpenBabel11062422563D

 29 33  0  0  1  0  0  0  0  0999 V2000
  187.7950  174.4640  142.2880 N   0  0  0  0  0  2  0  0  0  0  0  0
  190.3750  176.7160  142.8530 C   0  0  2  0  0  3  0  0  0  0  0  0
  188.1110  176.6760  143.2220 C   0  0  1  0  0  3  0  0  0  0  0  0
  188.4970  175.4330  143.0170 C   0  0  2  0  0  3  0  0  0  0  0  0
  190.0290  174.3780  141.7430 C   0  0  0  0  0  2  0  0  0  0  0  0
  189.2320  177.4940  143.2170 O   0  0  0  0  0  0  0  0  0  0  0  0
  188.7180  173.7160  141.5340 N   0  0  0  0  0  2  0  0  0  0  0  0
  189.8690  175.3460  142.8200 N   0  0  1  0  0  0  0  0  0  0  0  0
  184.8170  178.0480  144.5870 C   0  0  0  0  0  3  0  0  0  0  0  0
  184.1400  178.3640  143.3990 C   0  0  0  0  0  3  0  0  0  0  0  0
  186.0990  177.4540  144.5690 C   0  0  0  0  0  0  0  0  0  0  0  0
  185.4180  177.8700  140.1260 C   0  0  0  0  0  3  0  0  0  0  0  0
  186.0180  177.5120  142.1520 C   0  0  0  0  0  0  0  0  0  0  0  0
  186.7280  177.1780  143.3170 C   0  0  0  0  0  0  0  0  0  0  0  0
  184.3560  178.3140  140.9140 C   0  0  0  0  0  2  0  0  0  0  0  0
  184.7760  178.0750  142.2000 C   0  0  0  0  0  0  0  0  0  0  0  0
  186.4350  177.3870  140.8810 N   0  0  0  0  0  0  0  0  0  0  0  0
  186.6750  177.1710  145.8170 O   0  0  0  0  0  0  0  0  0  0  0  0
  186.6010  178.0170  146.9550 C   0  0  0  0  0  1  0  0  0  0  0  0
  191.9140  176.6630  146.1260 C   0  0  2  0  0  3  0  0  0  0  0  0
  191.4540  176.8480  143.9200 C   0  0  1  0  0  3  0  0  0  0  0  0
  193.8090  176.3480  144.5250 C   0  0  0  0  0  2  0  0  0  0  0  0
  191.0100  176.2690  145.1230 O   0  0  0  0  0  0  0  0  0  0  0  0
  194.1890  176.4080  146.8760 O   0  0  0  0  0  1  0  0  0  0  0  0
  193.2760  175.9830  145.9090 C   0  0  1  0  0  3  0  0  0  0  0  0
  192.7350  176.1470  143.4620 C   0  0  0  0  0  2  0  0  0  0  0  0
  191.4350  177.1360  148.4230 O   0  0  0  0  0  0  0  0  0  0  0  0
  191.3510  176.3200  147.4680 C   0  0  0  0  0  0  0  0  0  0  0  0
  190.7080  175.0670  147.6630 N   0  0  0  0  0  1  0  0  0  0  0  0
  2  6  1  1  0  0  0
  2 21  1  0  0  0  0
  3 14  1  6  0  0  0
  4  1  1  6  0  0  0
  4  3  1  0  0  0  0
  6  3  1  0  0  0  0
  7  5  1  0  0  0  0
  7  1  1  0  0  0  0
  8  5  1  6  0  0  0
  8  2  1  0  0  0  0
  8  4  1  0  0  0  0
 10  9  2  0  0  0  0
 11  9  1  0  0  0  0
 11 18  1  0  0  0  0
 12 17  2  0  0  0  0
 12 15  1  0  0  0  0
 13 16  2  0  0  0  0
 13 14  1  0  0  0  0
 14 11  2  0  0  0  0
 15 16  1  0  0  0  0
 16 10  1  0  0  0  0
 17 13  1  0  0  0  0
 18 19  1  0  0  0  0
 20 28  1  1  0  0  0
 21 26  1  6  0  0  0
 21 23  1  0  0  0  0
 22 25  1  0  0  0  0
 23 20  1  0  0  0  0
 25 20  1  0  0  0  0
 25 24  1  1  0  0  0
 26 22  1  0  0  0  0
 28 29  1  0  0  0  0
 28 27  2  0  0  0  0
M  END
>  <MODEL>
3

>  <REMARK>
 VINA RESULT:      -7.4      1.506      2.899
  Name = 
  4 active torsions:
  status: ('A' for Active; 'I' for Inactive)
    1  A    between atoms: C_2  and  C_16
    2  A    between atoms: C_6  and  O_9
    3  A    between atoms: C_8  and  C_10
    4  A    between atoms: C_14  and  C_18
                            x       y       z     vdW  Elec       q    Type
                         _______ _______ _______ _____ _____    ______ ____

>  <TORSDO>
F 4

$$$$
=
 OpenBabel11062422563D

 29 33  0  0  1  0  0  0  0  0999 V2000
  190.4240  178.0780  143.6210 N   0  0  0  0  0  2  0  0  0  0  0  0
  189.5740  174.7150  143.7370 C   0  0  2  0  0  3  0  0  0  0  0  0
  188.4310  176.7020  143.6450 C   0  0  1  0  0  3  0  0  0  0  0  0
  189.6730  176.9460  143.2770 C   0  0  2  0  0  3  0  0  0  0  0  0
  191.7260  176.1910  143.8240 C   0  0  0  0  0  2  0  0  0  0  0  0
  188.2920  175.3380  143.8560 O   0  0  0  0  0  0  0  0  0  0  0  0
  191.7440  177.6730  143.8920 N   0  0  0  0  0  2  0  0  0  0  0  0
  190.4420  175.7900  143.2630 N   0  0  1  0  0  0  0  0  0  0  0  0
  185.5570  179.1820  143.2150 C   0  0  0  0  0  3  0  0  0  0  0  0
  185.1860  179.4030  144.5500 C   0  0  0  0  0  2  0  0  0  0  0  0
  186.6410  178.3400  142.8820 C   0  0  0  0  0  0  0  0  0  0  0  0
  186.7310  177.9120  147.3740 C   0  0  0  0  0  3  0  0  0  0  0  0
  186.9650  177.9340  145.2440 C   0  0  0  0  0  0  0  0  0  0  0  0
  187.3710  177.6890  143.9220 C   0  0  0  0  0  0  0  0  0  0  0  0
  185.7440  178.7750  146.9000 C   0  0  0  0  0  3  0  0  0  0  0  0
  185.9200  178.7610  145.5370 C   0  0  0  0  0  0  0  0  0  0  0  0
  187.4710  177.3930  146.3640 N   0  0  0  0  0  0  0  0  0  0  0  0
  186.9310  178.2040  141.5150 O   0  0  0  0  0  0  0  0  0  0  0  0
  185.9720  177.9140  140.5080 C   0  0  0  0  0  1  0  0  0  0  0  0
  189.4350  173.1190  140.4920 C   0  0  2  0  0  3  0  0  0  0  0  0
  189.5140  173.5990  142.7010 C   0  0  1  0  0  3  0  0  0  0  0  0
  190.4220  171.3940  142.0110 C   0  0  0  0  0  2  0  0  0  0  0  0
  189.7750  174.1210  141.4210 O   0  0  0  0  0  0  0  0  0  0  0  0
  190.0660  170.9340  139.7010 O   0  0  0  0  0  1  0  0  0  0  0  0
  190.4280  171.9490  140.5880 C   0  0  1  0  0  3  0  0  0  0  0  0
  190.5490  172.5210  143.0300 C   0  0  0  0  0  2  0  0  0  0  0  0
  190.4840  173.7910  138.4490 O   0  0  0  0  0  0  0  0  0  0  0  0
  189.4200  173.7000  139.1160 C   0  0  0  0  0  0  0  0  0  0  0  0
  188.1930  174.1460  138.5520 N   0  0  0  0  0  1  0  0  0  0  0  0
  1  7  1  0  0  0  0
  2  6  1  6  0  0  0
  3  6  1  0  0  0  0
  3 14  1  1  0  0  0
  4  1  1  1  0  0  0
  4  3  1  0  0  0  0
  5  7  1  0  0  0  0
  8  4  1  0  0  0  0
  8  2  1  0  0  0  0
  8  5  1  1  0  0  0
  9 10  1  0  0  0  0
 10 16  1  0  0  0  0
 11  9  2  0  0  0  0
 11 14  1  0  0  0  0
 13 16  1  0  0  0  0
 13 17  1  0  0  0  0
 14 13  2  0  0  0  0
 15 12  1  0  0  0  0
 16 15  2  0  0  0  0
 17 12  2  0  0  0  0
 18 11  1  0  0  0  0
 19 18  1  0  0  0  0
 20 28  1  6  0  0  0
 20 25  1  0  0  0  0
 20 23  1  0  0  0  0
 21 26  1  1  0  0  0
 21  2  1  0  0  0  0
 22 26  1  0  0  0  0
 23 21  1  0  0  0  0
 25 24  1  6  0  0  0
 25 22  1  0  0  0  0
 27 28  2  0  0  0  0
 29 28  1  0  0  0  0
M  END
>  <MODEL>
4

>  <REMARK>
 VINA RESULT:      -7.4      2.857      4.815
  Name = 
  4 active torsions:
  status: ('A' for Active; 'I' for Inactive)
    1  A    between atoms: C_2  and  C_16
    2  A    between atoms: C_6  and  O_9
    3  A    between atoms: C_8  and  C_10
    4  A    between atoms: C_14  and  C_18
                            x       y       z     vdW  Elec       q    Type
                         _______ _______ _______ _____ _____    ______ ____

>  <TORSDO>
F 4

$$$$
=
 OpenBabel11062422563D

 29 33  0  0  1  0  0  0  0  0999 V2000
  188.0910  174.8040  143.1700 N   0  0  0  0  0  2  0  0  0  0  0  0
  190.8170  176.8850  142.6390 C   0  0  2  0  0  3  0  0  0  0  0  0
  189.0560  176.8180  144.1080 C   0  0  1  0  0  3  0  0  0  0  0  0
  189.1590  175.6220  143.5620 C   0  0  2  0  0  3  0  0  0  0  0  0
  189.7240  174.7790  141.5500 C   0  0  0  0  0  2  0  0  0  0  0  0
  190.0990  177.6070  143.6430 O   0  0  0  0  0  0  0  0  0  0  0  0
  188.4260  174.1830  141.9530 N   0  0  0  0  0  2  0  0  0  0  0  0
  190.2270  175.5490  142.6790 N   0  0  1  0  0  0  0  0  0  0  0  0
  186.9580  177.7390  147.1650 C   0  0  0  0  0  3  0  0  0  0  0  0
  185.9480  178.5160  146.5780 C   0  0  0  0  0  2  0  0  0  0  0  0
  187.9670  177.1300  146.3850 C   0  0  0  0  0  0  0  0  0  0  0  0
  185.6760  179.2350  143.1140 C   0  0  0  0  0  3  0  0  0  0  0  0
  186.9420  178.1040  144.4220 C   0  0  0  0  0  0  0  0  0  0  0  0
  187.9690  177.3170  144.9690 C   0  0  0  0  0  0  0  0  0  0  0  0
  185.1380  179.4020  144.3900 C   0  0  0  0  0  3  0  0  0  0  0  0
  185.9740  178.6700  145.2000 C   0  0  0  0  0  0  0  0  0  0  0  0
  186.7800  178.4500  143.1340 N   0  0  0  0  0  0  0  0  0  0  0  0
  188.9180  176.3640  147.0780 O   0  0  0  0  0  0  0  0  0  0  0  0
  188.8650  174.9540  147.2330 C   0  0  0  0  0  1  0  0  0  0  0  0
  193.7770  176.6330  144.7050 C   0  0  2  0  0  3  0  0  0  0  0  0
  192.2940  176.8150  143.0060 C   0  0  1  0  0  3  0  0  0  0  0  0
  194.4970  175.8130  142.4540 C   0  0  0  0  0  2  0  0  0  0  0  0
  192.4330  176.4110  144.3470 O   0  0  0  0  0  0  0  0  0  0  0  0
  196.0290  175.8950  144.2770 O   0  0  0  0  0  1  0  0  0  0  0  0
  194.6920  175.6470  143.9600 C   0  0  1  0  0  3  0  0  0  0  0  0
  193.0150  175.8160  142.0990 C   0  0  0  0  0  2  0  0  0  0  0  0
  194.5090  177.3870  146.8550 O   0  0  0  0  0  0  0  0  0  0  0  0
  193.9280  176.4930  146.1850 C   0  0  0  0  0  0  0  0  0  0  0  0
  193.4050  175.3450  146.8410 N   0  0  0  0  0  1  0  0  0  0  0  0
  2  8  1  0  0  0  0
  2 21  1  0  0  0  0
  2  6  1  1  0  0  0
  3 14  1  6  0  0  0
  4  1  1  6  0  0  0
  4  3  1  0  0  0  0
  5  7  1  0  0  0  0
  6  3  1  0  0  0  0
  7  1  1  0  0  0  0
  8  5  1  6  0  0  0
  8  4  1  0  0  0  0
 10  9  1  0  0  0  0
 11 18  1  0  0  0  0
 11  9  2  0  0  0  0
 12 17  2  0  0  0  0
 12 15  1  0  0  0  0
 13 14  2  0  0  0  0
 13 16  1  0  0  0  0
 14 11  1  0  0  0  0
 15 16  2  0  0  0  0
 16 10  1  0  0  0  0
 17 13  1  0  0  0  0
 18 19  1  0  0  0  0
 20 28  1  1  0  0  0
 21 26  1  6  0  0  0
 21 23  1  0  0  0  0
 22 25  1  0  0  0  0
 23 20  1  0  0  0  0
 25 24  1  6  0  0  0
 25 20  1  0  0  0  0
 26 22  1  0  0  0  0
 28 29  1  0  0  0  0
 28 27  2  0  0  0  0
M  END
>  <MODEL>
5

>  <REMARK>
 VINA RESULT:      -7.4      1.790      3.039
  Name = 
  4 active torsions:
  status: ('A' for Active; 'I' for Inactive)
    1  A    between atoms: C_2  and  C_16
    2  A    between atoms: C_6  and  O_9
    3  A    between atoms: C_8  and  C_10
    4  A    between atoms: C_14  and  C_18
                            x       y       z     vdW  Elec       q    Type
                         _______ _______ _______ _____ _____    ______ ____

>  <TORSDO>
F 4

$$$$
=
 OpenBabel11062422563D

 29 33  0  0  1  0  0  0  0  0999 V2000
  187.7820  174.8350  142.7210 N   0  0  0  0  0  2  0  0  0  0  0  0
  190.8360  176.4660  142.9570 C   0  0  2  0  0  3  0  0  0  0  0  0
  188.9140  176.3780  144.2060 C   0  0  1  0  0  3  0  0  0  0  0  0
  188.9030  175.3400  143.3930 C   0  0  2  0  0  3  0  0  0  0  0  0
  189.5840  174.8910  141.2920 C   0  0  0  0  0  2  0  0  0  0  0  0
  190.1130  177.0550  144.0410 O   0  0  0  0  0  0  0  0  0  0  0  0
  188.1710  174.4580  141.4230 N   0  0  0  0  0  2  0  0  0  0  0  0
  190.0510  175.2820  142.6160 N   0  0  1  0  0  0  0  0  0  0  0  0
  186.6550  177.0010  147.2230 C   0  0  0  0  0  3  0  0  0  0  0  0
  185.8000  177.9950  146.7230 C   0  0  0  0  0  2  0  0  0  0  0  0
  187.6560  176.4160  146.4160 C   0  0  0  0  0  0  0  0  0  0  0  0
  185.9410  179.3530  143.4480 C   0  0  0  0  0  3  0  0  0  0  0  0
  186.9400  177.8510  144.6050 C   0  0  0  0  0  0  0  0  0  0  0  0
  187.8140  176.8520  145.0650 C   0  0  0  0  0  0  0  0  0  0  0  0
  185.3080  179.3570  144.6910 C   0  0  0  0  0  3  0  0  0  0  0  0
  185.9750  178.3900  145.4050 C   0  0  0  0  0  0  0  0  0  0  0  0
  186.9420  178.4400  143.3980 N   0  0  0  0  0  0  0  0  0  0  0  0
  188.4430  175.4210  147.0180 O   0  0  0  0  0  0  0  0  0  0  0  0
  189.8340  175.5370  147.2820 C   0  0  0  0  0  1  0  0  0  0  0  0
  194.3710  175.7130  142.7880 C   0  0  2  0  0  3  0  0  0  0  0  0
  192.2270  176.0540  143.4220 C   0  0  1  0  0  3  0  0  0  0  0  0
  193.9590  176.3120  145.1810 C   0  0  0  0  0  2  0  0  0  0  0  0
  193.1740  176.3610  142.4280 O   0  0  0  0  0  0  0  0  0  0  0  0
  196.1360  175.7040  144.4270 O   0  0  0  0  0  1  0  0  0  0  0  0
  194.9730  176.3720  144.0400 C   0  0  1  0  0  3  0  0  0  0  0  0
  192.5900  176.7910  144.7130 C   0  0  0  0  0  2  0  0  0  0  0  0
  195.8140  176.8620  141.2630 O   0  0  0  0  0  0  0  0  0  0  0  0
  195.3290  175.7640  141.6420 C   0  0  0  0  0  0  0  0  0  0  0  0
  195.7000  174.5610  140.9810 N   0  0  0  0  0  1  0  0  0  0  0  0
  2 21  1  0  0  0  0
  2  6  1  1  0  0  0
  3 14  1  6  0  0  0
  4  1  1  6  0  0  0
  4  3  1  0  0  0  0
  5  7  1  0  0  0  0
  6  3  1  0  0  0  0
  7  1  1  0  0  0  0
  8  5  1  6  0  0  0
  8  2  1  0  0  0  0
  8  4  1  0  0  0  0
 10  9  1  0  0  0  0
 11 18  1  0  0  0  0
 11  9  2  0  0  0  0
 12 15  1  0  0  0  0
 13 14  2  0  0  0  0
 13 16  1  0  0  0  0
 14 11  1  0  0  0  0
 15 16  2  0  0  0  0
 16 10  1  0  0  0  0
 17 12  2  0  0  0  0
 17 13  1  0  0  0  0
 18 19  1  0  0  0  0
 20 28  1  6  0  0  0
 20 25  1  0  0  0  0
 21 26  1  1  0  0  0
 23 20  1  0  0  0  0
 23 21  1  0  0  0  0
 25 24  1  1  0  0  0
 25 22  1  0  0  0  0
 26 22  1  0  0  0  0
 27 28  2  0  0  0  0
 29 28  1  0  0  0  0
M  END
>  <MODEL>
6

>  <REMARK>
 VINA RESULT:      -7.4      2.342      3.983
  Name = 
  4 active torsions:
  status: ('A' for Active; 'I' for Inactive)
    1  A    between atoms: C_2  and  C_16
    2  A    between atoms: C_6  and  O_9
    3  A    between atoms: C_8  and  C_10
    4  A    between atoms: C_14  and  C_18
                            x       y       z     vdW  Elec       q    Type
                         _______ _______ _______ _____ _____    ______ ____

>  <TORSDO>
F 4

$$$$
=
 OpenBabel11062422563D

 29 33  0  0  1  0  0  0  0  0999 V2000
  190.1340  177.7920  145.0390 N   0  0  0  0  0  2  0  0  0  0  0  0
  189.2370  174.8340  143.4590 C   0  0  2  0  0  3  0  0  0  0  0  0
  188.2210  176.8440  143.8950 C   0  0  1  0  0  3  0  0  0  0  0  0
  189.5190  177.0200  144.0440 C   0  0  2  0  0  3  0  0  0  0  0  0
  191.2650  175.8040  144.7880 C   0  0  0  0  0  2  0  0  0  0  0  0
  187.9980  175.5480  143.4540 O   0  0  0  0  0  0  0  0  0  0  0  0
  191.2840  177.1140  145.4830 N   0  0  0  0  0  2  0  0  0  0  0  0
  190.2300  175.8610  143.7640 N   0  0  1  0  0  0  0  0  0  0  0  0
  185.3850  179.3920  143.6470 C   0  0  0  0  0  3  0  0  0  0  0  0
  184.9230  179.4150  144.9720 C   0  0  0  0  0  2  0  0  0  0  0  0
  186.4900  178.5980  143.2660 C   0  0  0  0  0  0  0  0  0  0  0  0
  186.2690  177.5000  147.6380 C   0  0  0  0  0  3  0  0  0  0  0  0
  186.6490  177.8390  145.5570 C   0  0  0  0  0  0  0  0  0  0  0  0
  187.1450  177.7900  144.2440 C   0  0  0  0  0  0  0  0  0  0  0  0
  185.3170  178.4350  147.2330 C   0  0  0  0  0  3  0  0  0  0  0  0
  185.5870  178.6240  145.8990 C   0  0  0  0  0  0  0  0  0  0  0  0
  187.0760  177.1300  146.6150 N   0  0  0  0  0  0  0  0  0  0  0  0
  186.8720  178.6650  141.9170 O   0  0  0  0  0  0  0  0  0  0  0  0
  186.3260  177.8660  140.8780 C   0  0  0  0  0  1  0  0  0  0  0  0
  190.3700  172.4900  140.9470 C   0  0  2  0  0  3  0  0  0  0  0  0
  189.5030  174.2450  142.0790 C   0  0  1  0  0  3  0  0  0  0  0  0
  188.5660  173.8080  139.8220 C   0  0  0  0  0  2  0  0  0  0  0  0
  189.8730  172.8930  142.2010 O   0  0  0  0  0  0  0  0  0  0  0  0
  189.7250  172.0800  138.6620 O   0  0  0  0  0  1  0  0  0  0  0  0
  189.2290  172.4350  139.9180 C   0  0  1  0  0  3  0  0  0  0  0  0
  188.2480  174.3510  141.2110 C   0  0  0  0  0  2  0  0  0  0  0  0
  190.4430  170.2000  141.6380 O   0  0  0  0  0  0  0  0  0  0  0  0
  191.0370  171.1590  141.0800 C   0  0  0  0  0  0  0  0  0  0  0  0
  192.3500  170.9750  140.5650 N   0  0  0  0  0  1  0  0  0  0  0  0
  1  7  1  0  0  0  0
  2  6  1  6  0  0  0
  2  8  1  0  0  0  0
  3  4  1  0  0  0  0
  3 14  1  1  0  0  0
  4  1  1  1  0  0  0
  5  7  1  0  0  0  0
  6  3  1  0  0  0  0
  8  4  1  0  0  0  0
  8  5  1  1  0  0  0
  9 10  1  0  0  0  0
 10 16  1  0  0  0  0
 11  9  2  0  0  0  0
 11 14  1  0  0  0  0
 13 16  1  0  0  0  0
 13 17  1  0  0  0  0
 14 13  2  0  0  0  0
 15 12  1  0  0  0  0
 16 15  2  0  0  0  0
 17 12  2  0  0  0  0
 18 11  1  0  0  0  0
 19 18  1  0  0  0  0
 20 28  1  1  0  0  0
 20 23  1  0  0  0  0
 21 26  1  6  0  0  0
 21 23  1  0  0  0  0
 21  2  1  0  0  0  0
 22 25  1  0  0  0  0
 22 26  1  0  0  0  0
 25 24  1  6  0  0  0
 25 20  1  0  0  0  0
 28 27  2  0  0  0  0
 29 28  1  0  0  0  0
M  END
>  <MODEL>
7

>  <REMARK>
 VINA RESULT:      -7.3      2.994      4.742
  Name = 
  4 active torsions:
  status: ('A' for Active; 'I' for Inactive)
    1  A    between atoms: C_2  and  C_16
    2  A    between atoms: C_6  and  O_9
    3  A    between atoms: C_8  and  C_10
    4  A    between atoms: C_14  and  C_18
                            x       y       z     vdW  Elec       q    Type
                         _______ _______ _______ _____ _____    ______ ____

>  <TORSDO>
F 4

$$$$
=
 OpenBabel11062422563D

 29 33  0  0  1  0  0  0  0  0999 V2000
  187.7560  174.0830  141.9680 N   0  0  0  0  0  2  0  0  0  0  0  0
  190.5810  175.8560  142.9280 C   0  0  2  0  0  3  0  0  0  0  0  0
  188.3200  176.0470  143.2670 C   0  0  1  0  0  3  0  0  0  0  0  0
  188.5530  174.8160  142.8570 C   0  0  2  0  0  3  0  0  0  0  0  0
  189.9760  173.8020  141.4330 C   0  0  0  0  0  2  0  0  0  0  0  0
  189.5350  176.7030  143.4100 O   0  0  0  0  0  0  0  0  0  0  0  0
  188.5990  173.3600  141.1040 N   0  0  0  0  0  2  0  0  0  0  0  0
  189.9080  174.5880  142.6580 N   0  0  1  0  0  0  0  0  0  0  0  0
  185.2320  177.6730  144.8190 C   0  0  0  0  0  3  0  0  0  0  0  0
  184.5850  178.1730  143.6790 C   0  0  0  0  0  3  0  0  0  0  0  0
  186.4320  176.9350  144.7210 C   0  0  0  0  0  0  0  0  0  0  0  0
  185.7590  177.8300  140.3490 C   0  0  0  0  0  3  0  0  0  0  0  0
  186.3320  177.2200  142.3210 C   0  0  0  0  0  0  0  0  0  0  0  0
  187.0090  176.7000  143.4370 C   0  0  0  0  0  0  0  0  0  0  0  0
  184.7670  178.3250  141.1950 C   0  0  0  0  0  2  0  0  0  0  0  0
  185.1680  177.9210  142.4460 C   0  0  0  0  0  0  0  0  0  0  0  0
  186.7180  177.1630  141.0360 N   0  0  0  0  0  0  0  0  0  0  0  0
  186.9820  176.4720  145.9270 O   0  0  0  0  0  0  0  0  0  0  0  0
  187.8360  177.2300  146.7720 C   0  0  0  0  0  1  0  0  0  0  0  0
  193.8450  175.3990  144.4210 C   0  0  2  0  0  3  0  0  0  0  0  0
  191.6370  175.6660  144.0090 C   0  0  1  0  0  3  0  0  0  0  0  0
  192.4500  176.4140  146.2320 C   0  0  0  0  0  2  0  0  0  0  0  0
  192.9200  175.8560  143.4630 O   0  0  0  0  0  0  0  0  0  0  0  0
  194.7380  175.8650  146.6090 O   0  0  0  0  0  1  0  0  0  0  0  0
  193.8550  176.3400  145.6370 C   0  0  1  0  0  3  0  0  0  0  0  0
  191.4150  176.6700  145.1430 C   0  0  0  0  0  2  0  0  0  0  0  0
  195.7450  174.1890  143.6140 O   0  0  0  0  0  0  0  0  0  0  0  0
  195.2010  175.3090  143.8000 C   0  0  0  0  0  0  0  0  0  0  0  0
  195.8780  176.4970  143.4100 N   0  0  0  0  0  1  0  0  0  0  0  0
  2  6  1  1  0  0  0
  2 21  1  0  0  0  0
  3  6  1  0  0  0  0
  3 14  1  6  0  0  0
  4  1  1  6  0  0  0
  4  3  1  0  0  0  0
  7  5  1  0  0  0  0
  7  1  1  0  0  0  0
  8  5  1  6  0  0  0
  8  4  1  0  0  0  0
  8  2  1  0  0  0  0
 10  9  2  0  0  0  0
 11  9  1  0  0  0  0
 11 18  1  0  0  0  0
 12 17  2  0  0  0  0
 12 15  1  0  0  0  0
 13 16  2  0  0  0  0
 13 14  1  0  0  0  0
 14 11  2  0  0  0  0
 15 16  1  0  0  0  0
 16 10  1  0  0  0  0
 17 13  1  0  0  0  0
 18 19  1  0  0  0  0
 20 28  1  6  0  0  0
 20 25  1  0  0  0  0
 21 26  1  1  0  0  0
 23 21  1  0  0  0  0
 23 20  1  0  0  0  0
 25 22  1  0  0  0  0
 25 24  1  1  0  0  0
 26 22  1  0  0  0  0
 27 28  2  0  0  0  0
 29 28  1  0  0  0  0
M  END
>  <MODEL>
8

>  <REMARK>
 VINA RESULT:      -7.2      2.323      3.637
  Name = 
  4 active torsions:
  status: ('A' for Active; 'I' for Inactive)
    1  A    between atoms: C_2  and  C_16
    2  A    between atoms: C_6  and  O_9
    3  A    between atoms: C_8  and  C_10
    4  A    between atoms: C_14  and  C_18
                            x       y       z     vdW  Elec       q    Type
                         _______ _______ _______ _____ _____    ______ ____

>  <TORSDO>
F 4

$$$$
=
 OpenBabel11062422563D

 29 33  0  0  1  0  0  0  0  0999 V2000
  189.9600  174.5100  146.3190 N   0  0  0  0  0  2  0  0  0  0  0  0
  188.5230  177.5390  145.4210 C   0  0  2  0  0  3  0  0  0  0  0  0
  190.2920  176.2730  144.6920 C   0  0  1  0  0  3  0  0  0  0  0  0
  189.5200  175.4890  145.4180 C   0  0  2  0  0  3  0  0  0  0  0  0
  188.2240  175.7000  147.2500 C   0  0  0  0  0  2  0  0  0  0  0  0
  189.6870  177.5170  144.5890 O   0  0  0  0  0  0  0  0  0  0  0  0
  189.1280  174.5410  147.4530 N   0  0  0  0  0  2  0  0  0  0  0  0
  188.3940  176.1570  145.8770 N   0  0  1  0  0  0  0  0  0  0  0  0
  193.1690  175.3650  142.3480 C   0  0  0  0  0  3  0  0  0  0  0  0
  194.2790  175.6240  143.1660 C   0  0  0  0  0  2  0  0  0  0  0  0
  191.8480  175.5230  142.8260 C   0  0  0  0  0  0  0  0  0  0  0  0
  194.1230  176.7910  146.5130 C   0  0  0  0  0  3  0  0  0  0  0  0
  192.7730  176.2190  144.9500 C   0  0  0  0  0  0  0  0  0  0  0  0
  191.6350  175.9670  144.1660 C   0  0  0  0  0  0  0  0  0  0  0  0
  194.9310  176.4010  145.4460 C   0  0  0  0  0  3  0  0  0  0  0  0
  194.0360  176.0460  144.4650 C   0  0  0  0  0  0  0  0  0  0  0  0
  192.8060  176.6870  146.2080 N   0  0  0  0  0  0  0  0  0  0  0  0
  190.8160  175.2210  141.9240 O   0  0  0  0  0  0  0  0  0  0  0  0
  190.2030  173.9470  141.7900 C   0  0  0  0  0  1  0  0  0  0  0  0
  186.3790  177.9310  142.5320 C   0  0  2  0  0  3  0  0  0  0  0  0
  187.3030  177.9320  144.5970 C   0  0  1  0  0  3  0  0  0  0  0  0
  184.8230  177.9550  144.4900 C   0  0  0  0  0  2  0  0  0  0  0  0
  187.3640  177.3200  143.3310 O   0  0  0  0  0  0  0  0  0  0  0  0
  183.9990  178.1820  142.2660 O   0  0  0  0  0  1  0  0  0  0  0  0
  184.9770  177.5410  143.0280 C   0  0  1  0  0  3  0  0  0  0  0  0
  186.0230  177.4950  145.3110 C   0  0  0  0  0  2  0  0  0  0  0  0
  185.9920  178.1540  140.1810 O   0  0  0  0  0  0  0  0  0  0  0  0
  186.5760  177.5300  141.1060 C   0  0  0  0  0  0  0  0  0  0  0  0
  187.4360  176.4420  140.7920 N   0  0  0  0  0  1  0  0  0  0  0  0
  1  7  1  0  0  0  0
  2  6  1  6  0  0  0
  2  8  1  0  0  0  0
  3 14  1  1  0  0  0
  3  4  1  0  0  0  0
  4  8  1  0  0  0  0
  4  1  1  1  0  0  0
  5  7  1  0  0  0  0
  6  3  1  0  0  0  0
  8  5  1  1  0  0  0
  9 11  2  0  0  0  0
  9 10  1  0  0  0  0
 10 16  1  0  0  0  0
 11 14  1  0  0  0  0
 13 17  1  0  0  0  0
 14 13  2  0  0  0  0
 15 12  1  0  0  0  0
 16 13  1  0  0  0  0
 16 15  2  0  0  0  0
 17 12  2  0  0  0  0
 18 11  1  0  0  0  0
 19 18  1  0  0  0  0
 20 28  1  6  0  0  0
 20 25  1  0  0  0  0
 20 23  1  0  0  0  0
 21 26  1  1  0  0  0
 21  2  1  0  0  0  0
 22 26  1  0  0  0  0
 23 21  1  0  0  0  0
 25 24  1  6  0  0  0
 25 22  1  0  0  0  0
 27 28  2  0  0  0  0
 29 28  1  0  0  0  0
M  END
>  <MODEL>
9

>  <REMARK>
 VINA RESULT:      -7.2      2.154      7.156
  Name = 
  4 active torsions:
  status: ('A' for Active; 'I' for Inactive)
    1  A    between atoms: C_2  and  C_16
    2  A    between atoms: C_6  and  O_9
    3  A    between atoms: C_8  and  C_10
    4  A    between atoms: C_14  and  C_18
                            x       y       z     vdW  Elec       q    Type
                         _______ _______ _______ _____ _____    ______ ____

>  <TORSDO>
F 4

$$$$
