=
 OpenBabel11062421173D

 56 62  0  0  1  0  0  0  0  0999 V2000
  190.6520  174.6570  144.5300 C   0  0  0  0  0  2  0  0  0  0  0  0
  188.1960  177.2340  147.5900 O   0  0  0  0  0  0  0  0  0  0  0  0
  194.3970  171.6760  141.8820 C   0  0  0  0  0  0  0  0  0  0  0  0
  194.0980  174.0830  144.5910 C   0  0  0  0  0  1  0  0  0  0  0  0
  184.8060  179.1840  144.5530 N   0  0  0  0  0  0  0  0  0  0  0  0
  195.0740  170.5200  141.1960 C   0  0  1  0  0  3  0  0  0  0  0  0
  189.1340  172.2680  142.1120 F   0  0  0  0  0  0  0  0  0  0  0  0
  188.5150  175.8750  142.0730 C   0  0  0  0  0  3  0  0  0  0  0  0
  195.7560  170.0290  143.7880 O   0  0  0  0  0  0  0  0  0  0  0  0
  193.6690  172.8070  141.2050 C   0  0  2  0  0  0  0  0  0  0  0  0
  191.3040  173.7710  140.9280 C   0  0  0  0  0  0  0  0  0  0  0  0
  194.4170  171.9550  143.1940 C   0  0  0  0  0  0  0  0  0  0  0  0
  191.5660  171.9920  143.9150 C   0  0  0  0  0  1  0  0  0  0  0  0
  187.1750  173.5010  142.4700 N   0  0  0  0  0  0  0  0  0  0  0  0
  190.9730  173.7380  139.6390 C   0  0  0  0  0  2  0  0  0  0  0  0
  190.7130  174.7470  141.8880 C   0  0  2  0  0  3  0  0  0  0  0  0
  194.1610  173.9480  142.0600 C   0  0  0  0  0  2  0  0  0  0  0  0
  196.5680  170.3830  141.5300 C   0  0  2  0  0  3  0  0  0  0  0  0
  193.7170  173.2900  143.3460 C   0  0  2  0  0  0  0  0  0  0  0  0
  196.8930  170.3550  143.0330 C   0  0  2  0  0  3  0  0  0  0  0  0
  185.3280  177.2350  143.4290 C   0  0  2  0  0  3  0  0  0  0  0  0
  194.4010  169.3350  141.4800 O   0  0  0  0  0  1  0  0  0  0  0  0
  187.1570  175.8900  142.3750 C   0  0  0  0  0  0  0  0  0  0  0  0
  192.1940  173.1170  143.0830 C   0  0  2  0  0  0  0  0  0  0  0  0
  183.5920  177.6430  141.5660 N   0  0  0  0  0  2  0  0  0  0  0  0
  186.4950  177.1390  142.5720 N   0  0  0  0  0  2  0  0  0  0  0  0
  182.4660  178.3190  141.0000 C   0  0  0  0  0  0  0  0  0  0  0  0
  191.4360  174.4650  143.2160 C   0  0  2  0  0  3  0  0  0  0  0  0
  188.5060  173.4680  142.1890 C   0  0  0  0  0  0  0  0  0  0  0  0
  189.8970  176.3400  146.1850 C   0  0  1  0  0  3  0  0  0  0  0  0
  189.2090  174.6700  141.9840 C   0  0  0  0  0  0  0  0  0  0  0  0
  188.5450  176.9550  146.4100 C   0  0  0  0  0  0  0  0  0  0  0  0
  186.4960  174.6730  142.5790 C   0  0  0  0  0  3  0  0  0  0  0  0
  183.9740  179.1040  143.4340 N   0  0  0  0  0  0  0  0  0  0  0  0
  195.2400  171.2470  144.2540 C   0  0  1  0  0  3  0  0  0  0  0  0
  187.6630  177.2040  145.3540 O   0  0  0  0  0  0  0  0  0  0  0  0
  184.2580  178.0330  142.7710 C   0  0  0  0  0  0  0  0  0  0  0  0
  185.5960  178.1650  144.5660 C   0  0  0  0  0  0  0  0  0  0  0  0
  186.5590  177.9840  145.5560 O   0  0  0  0  0  0  0  0  0  0  0  0
  182.0140  177.9290  139.8520 N   0  0  0  0  0  2  0  0  0  0  0  0
  197.2860  171.4080  140.9090 O   0  0  0  0  0  1  0  0  0  0  0  0
  192.1660  172.7300  141.5830 C   0  0  2  0  0  3  0  0  0  0  0  0
  190.1910  176.0880  144.7150 C   0  0  0  0  0  2  0  0  0  0  0  0
  197.9410  169.3740  143.2980 N   0  0  0  0  0  2  0  0  0  0  0  0
  197.0000  168.5550  145.2800 O   0  0  0  0  0  0  0  0  0  0  0  0
  197.9410  168.5170  144.4420 C   0  0  0  0  0  3  0  0  0  0  0  0
  194.3900  170.9820  145.4850 C   0  0  0  0  0  2  0  0  0  0  0  0
  193.8260  169.7110  145.4040 O   0  0  0  0  0  1  0  0  0  0  0  0
  190.8880  177.1670  146.7150 O   0  0  0  0  0  0  0  0  0  0  0  0
  191.5540  176.3840  147.6700 C   0  0  0  0  0  1  0  0  0  0  0  0
  180.4670  179.4210  141.9280 C   0  0  0  0  0  1  0  0  0  0  0  0
  181.8620  179.3830  141.6740 O   0  0  0  0  0  0  0  0  0  0  0  0
  193.9670  172.9780  139.8180 O   0  0  0  0  0  0  0  0  0  0  0  0
  194.7470  174.0210  139.3110 C   0  0  0  0  0  0  0  0  0  0  0  0
  196.0010  173.9040  139.1960 O   0  0  0  0  0  1  0  0  0  0  0  0
  194.1270  175.1870  138.8860 O   0  0  0  0  0  0  0  0  0  0  0  0
  1 43  1  0  0  0  0
  3 12  2  0  0  0  0
  5 38  2  0  0  0  0
  6 22  1  1  0  0  0
  6 18  1  0  0  0  0
  6  3  1  0  0  0  0
  7 29  1  0  0  0  0
  8 23  1  0  0  0  0
  9 35  1  0  0  0  0
 10 53  1  6  0  0  0
 10 42  1  0  0  0  0
 10  3  1  0  0  0  0
 10 17  1  0  0  0  0
 12 19  1  0  0  0  0
 12 35  1  0  0  0  0
 14 33  1  0  0  0  0
 15 11  2  0  0  0  0
 16 11  1  6  0  0  0
 16 31  1  0  0  0  0
 16 28  1  0  0  0  0
 17 19  1  0  0  0  0
 18 41  1  6  0  0  0
 18 20  1  0  0  0  0
 19  4  1  1  0  0  0
 20 44  1  6  0  0  0
 20  9  1  0  0  0  0
 21 26  1  6  0  0  0
 21 38  1  0  0  0  0
 23 26  1  0  0  0  0
 23 33  2  0  0  0  0
 24 28  1  0  0  0  0
 24 19  1  0  0  0  0
 24 13  1  1  0  0  0
 25 37  1  0  0  0  0
 27 25  1  0  0  0  0
 27 52  1  0  0  0  0
 28  1  1  1  0  0  0
 29 14  2  0  0  0  0
 30 32  1  0  0  0  0
 30 49  1  6  0  0  0
 31  8  2  0  0  0  0
 31 29  1  0  0  0  0
 32  2  2  0  0  0  0
 34  5  1  0  0  0  0
 35 47  1  1  0  0  0
 36 39  1  0  0  0  0
 36 32  1  0  0  0  0
 37 21  1  0  0  0  0
 37 34  2  0  0  0  0
 38 39  1  0  0  0  0
 40 27  2  0  0  0  0
 42 11  1  6  0  0  0
 42 24  1  0  0  0  0
 43 30  1  0  0  0  0
 44 46  1  0  0  0  0
 46 45  2  0  0  0  0
 48 47  1  0  0  0  0
 49 50  1  0  0  0  0
 52 51  1  0  0  0  0
 54 53  1  0  0  0  0
 55 54  1  0  0  0  0
 56 54  2  0  0  0  0
M  END
>  <MODEL>
1

>  <REMARK>
 VINA RESULT:      -6.1      0.000      0.000
  Name = 
  6 active torsions:
  status: ('A' for Active; 'I' for Inactive)
    1  A    between atoms: C_10  and  O_37
    2  A    between atoms: C_15  and  C_45
    3  A    between atoms: C_16  and  O_37
    4  A    between atoms: N_19  and  C_25
    5  A    between atoms: C_33  and  O_50
    6  A    between atoms: O_38  and  C_39
                            x       y       z     vdW  Elec       q    Type
                         _______ _______ _______ _____ _____    ______ ____

>  <TORSDO>
F 6

$$$$
=
 OpenBabel11062421173D

 56 62  0  0  1  0  0  0  0  0999 V2000
  190.7150  174.1800  140.0280 C   0  0  0  0  0  2  0  0  0  0  0  0
  186.7160  176.2980  138.7800 O   0  0  0  0  0  0  0  0  0  0  0  0
  195.3110  171.2270  140.3060 C   0  0  0  0  0  0  0  0  0  0  0  0
  192.1850  171.4260  138.4590 C   0  0  0  0  0  1  0  0  0  0  0  0
  184.9640  177.5350  143.2440 N   0  0  0  0  0  0  0  0  0  0  0  0
  196.7660  170.8630  140.4250 C   0  0  1  0  0  3  0  0  0  0  0  0
  193.2200  175.6430  142.3610 F   0  0  0  0  0  0  0  0  0  0  0  0
  189.7930  174.7910  143.3240 C   0  0  0  0  0  3  0  0  0  0  0  0
  196.5770  171.2790  137.7400 O   0  0  0  0  0  0  0  0  0  0  0  0
  194.2980  171.2130  141.4200 C   0  0  2  0  0  0  0  0  0  0  0  0
  192.8480  172.8110  142.8130 C   0  0  0  0  0  0  0  0  0  0  0  0
  194.6460  171.5190  139.1780 C   0  0  0  0  0  0  0  0  0  0  0  0
  193.5800  174.2080  139.7050 C   0  0  0  0  0  1  0  0  0  0  0  0
  191.4370  176.9870  143.0720 N   0  0  0  0  0  0  0  0  0  0  0  0
  193.1950  172.7020  144.0940 C   0  0  0  0  0  2  0  0  0  0  0  0
  191.4920  173.2550  142.3810 C   0  0  2  0  0  3  0  0  0  0  0  0
  193.1310  170.6210  140.6690 C   0  0  0  0  0  2  0  0  0  0  0  0
  197.2050  169.7240  139.4910 C   0  0  2  0  0  3  0  0  0  0  0  0
  193.1920  171.6660  139.5780 C   0  0  2  0  0  0  0  0  0  0  0  0
  196.8430  169.9300  138.0100 C   0  0  2  0  0  3  0  0  0  0  0  0
  187.2330  177.4690  143.6700 C   0  0  2  0  0  3  0  0  0  0  0  0
  197.5580  171.9900  140.2250 O   0  0  0  0  0  1  0  0  0  0  0  0
  189.3010  176.0610  143.6120 C   0  0  0  0  0  0  0  0  0  0  0  0
  193.0040  172.9700  140.4020 C   0  0  2  0  0  0  0  0  0  0  0  0
  186.9680  178.2300  146.1190 N   0  0  0  0  0  2  0  0  0  0  0  0
  187.9210  176.2200  143.9400 N   0  0  0  0  0  2  0  0  0  0  0  0
  186.2190  178.7700  147.2120 C   0  0  0  0  0  0  0  0  0  0  0  0
  191.5270  173.1560  140.8460 C   0  0  2  0  0  3  0  0  0  0  0  0
  191.9320  175.7550  142.7740 C   0  0  0  0  0  0  0  0  0  0  0  0
  188.4520  174.7180  139.1730 C   0  0  1  0  0  3  0  0  0  0  0  0
  191.1070  174.6200  142.8940 C   0  0  0  0  0  0  0  0  0  0  0  0
  187.4420  175.7280  139.6400 C   0  0  0  0  0  0  0  0  0  0  0  0
  190.1510  177.1640  143.4720 C   0  0  0  0  0  3  0  0  0  0  0  0
  185.1580  177.9330  144.5690 N   0  0  0  0  0  0  0  0  0  0  0  0
  195.1810  171.4110  137.7620 C   0  0  1  0  0  3  0  0  0  0  0  0
  187.3050  176.0640  140.9900 O   0  0  0  0  0  0  0  0  0  0  0  0
  186.4180  177.8850  144.8440 C   0  0  0  0  0  0  0  0  0  0  0  0
  186.1040  177.2410  142.7190 C   0  0  0  0  0  0  0  0  0  0  0  0
  186.2230  176.7880  141.4070 O   0  0  0  0  0  0  0  0  0  0  0  0
  186.8110  178.9470  148.3490 N   0  0  0  0  0  2  0  0  0  0  0  0
  196.6770  168.5130  139.9440 O   0  0  0  0  0  1  0  0  0  0  0  0
  193.8240  172.6670  141.6820 C   0  0  2  0  0  3  0  0  0  0  0  0
  189.2310  174.0920  140.3200 C   0  0  0  0  0  2  0  0  0  0  0  0
  197.9410  169.4770  137.1620 N   0  0  0  0  0  2  0  0  0  0  0  0
  196.6430  169.1920  135.2320 O   0  0  0  0  0  0  0  0  0  0  0  0
  197.7720  169.1130  135.7900 C   0  0  0  0  0  3  0  0  0  0  0  0
  194.7890  172.6400  136.9600 C   0  0  0  0  0  2  0  0  0  0  0  0
  195.1830  172.4820  135.6320 O   0  0  0  0  0  1  0  0  0  0  0  0
  187.8130  173.7090  138.4510 O   0  0  0  0  0  0  0  0  0  0  0  0
  188.5250  173.6090  137.2450 C   0  0  0  0  0  1  0  0  0  0  0  0
  183.8280  178.2260  147.4500 C   0  0  0  0  0  1  0  0  0  0  0  0
  184.8710  179.1020  147.0560 O   0  0  0  0  0  0  0  0  0  0  0  0
  194.6690  170.4490  142.5680 O   0  0  0  0  0  0  0  0  0  0  0  0
  194.1210  169.2030  142.8880 C   0  0  0  0  0  0  0  0  0  0  0  0
  194.3720  168.1800  142.1870 O   0  0  0  0  0  0  0  0  0  0  0  0
  193.3260  169.0810  144.0180 O   0  0  0  0  0  1  0  0  0  0  0  0
  1 43  1  0  0  0  0
  2 32  2  0  0  0  0
  3  6  1  0  0  0  0
  3 10  1  0  0  0  0
  5 34  1  0  0  0  0
  6 22  1  6  0  0  0
  7 29  1  0  0  0  0
  8 23  1  0  0  0  0
  9 35  1  0  0  0  0
  9 20  1  0  0  0  0
 10 42  1  0  0  0  0
 10 53  1  1  0  0  0
 11 15  2  0  0  0  0
 12 19  1  0  0  0  0
 12  3  2  0  0  0  0
 14 33  1  0  0  0  0
 16 11  1  1  0  0  0
 16 31  1  0  0  0  0
 17 10  1  0  0  0  0
 18 41  1  1  0  0  0
 18  6  1  0  0  0  0
 19  4  1  6  0  0  0
 19 24  1  0  0  0  0
 19 17  1  0  0  0  0
 20 44  1  6  0  0  0
 20 18  1  0  0  0  0
 21 38  1  6  0  0  0
 21 26  1  0  0  0  0
 21 37  1  0  0  0  0
 23 26  1  0  0  0  0
 24 13  1  6  0  0  0
 24 28  1  0  0  0  0
 24 42  1  0  0  0  0
 25 27  1  0  0  0  0
 27 40  2  0  0  0  0
 28  1  1  6  0  0  0
 28 16  1  0  0  0  0
 29 31  1  0  0  0  0
 29 14  2  0  0  0  0
 30 49  1  1  0  0  0
 30 32  1  0  0  0  0
 30 43  1  0  0  0  0
 31  8  2  0  0  0  0
 32 36  1  0  0  0  0
 33 23  2  0  0  0  0
 34 37  2  0  0  0  0
 35 47  1  6  0  0  0
 35 12  1  0  0  0  0
 36 39  1  0  0  0  0
 37 25  1  0  0  0  0
 38  5  2  0  0  0  0
 39 38  1  0  0  0  0
 42 11  1  1  0  0  0
 45 46  2  0  0  0  0
 46 44  1  0  0  0  0
 48 47  1  0  0  0  0
 50 49  1  0  0  0  0
 52 27  1  0  0  0  0
 52 51  1  0  0  0  0
 53 54  1  0  0  0  0
 54 56  1  0  0  0  0
 55 54  2  0  0  0  0
M  END
>  <MODEL>
2

>  <REMARK>
 VINA RESULT:      -5.5      2.995      5.618
  Name = 
  6 active torsions:
  status: ('A' for Active; 'I' for Inactive)
    1  A    between atoms: C_10  and  O_37
    2  A    between atoms: C_15  and  C_45
    3  A    between atoms: C_16  and  O_37
    4  A    between atoms: N_19  and  C_25
    5  A    between atoms: C_33  and  O_50
    6  A    between atoms: O_38  and  C_39
                            x       y       z     vdW  Elec       q    Type
                         _______ _______ _______ _____ _____    ______ ____

>  <TORSDO>
F 6

$$$$
=
 OpenBabel11062421173D

 56 62  0  0  1  0  0  0  0  0999 V2000
  192.6250  172.6260  143.7760 C   0  0  0  0  0  2  0  0  0  0  0  0
  196.0920  169.5060  144.3090 O   0  0  0  0  0  0  0  0  0  0  0  0
  188.3490  175.9840  144.3750 C   0  0  0  0  0  0  0  0  0  0  0  0
  189.8440  173.0180  145.8540 C   0  0  0  0  0  1  0  0  0  0  0  0
  197.0720  168.4850  139.5640 N   0  0  0  0  0  0  0  0  0  0  0  0
  187.5220  177.2390  144.4540 C   0  0  1  0  0  3  0  0  0  0  0  0
  192.8010  175.5860  141.5250 F   0  0  0  0  0  0  0  0  0  0  0  0
  192.9490  172.1220  140.3510 C   0  0  0  0  0  3  0  0  0  0  0  0
  188.4140  177.0690  147.0230 O   0  0  0  0  0  0  0  0  0  0  0  0
  188.4780  175.0790  143.1780 C   0  0  2  0  0  0  0  0  0  0  0  0
  190.2040  174.3140  141.4370 C   0  0  0  0  0  0  0  0  0  0  0  0
  189.0210  175.4010  145.3790 C   0  0  0  0  0  0  0  0  0  0  0  0
  191.7850  175.3180  144.3780 C   0  0  0  0  0  1  0  0  0  0  0  0
  194.5090  174.3900  140.4570 N   0  0  0  0  0  0  0  0  0  0  0  0
  189.7800  174.6670  140.2250 C   0  0  0  0  0  2  0  0  0  0  0  0
  191.1260  173.1650  141.6650 C   0  0  2  0  0  3  0  0  0  0  0  0
  188.4250  173.7470  143.8840 C   0  0  0  0  0  2  0  0  0  0  0  0
  186.4730  177.2270  145.5770 C   0  0  2  0  0  3  0  0  0  0  0  0
  189.5590  174.1000  144.8180 C   0  0  2  0  0  0  0  0  0  0  0  0
  187.0250  176.8830  146.9710 C   0  0  2  0  0  3  0  0  0  0  0  0
  196.2110  170.6200  139.3810 C   0  0  2  0  0  3  0  0  0  0  0  0
  188.3510  178.3510  144.5740 O   0  0  0  0  0  1  0  0  0  0  0  0
  194.2430  172.0960  139.8410 C   0  0  0  0  0  0  0  0  0  0  0  0
  190.7000  174.3970  143.8060 C   0  0  2  0  0  0  0  0  0  0  0  0
  196.6030  170.7430  136.8350 N   0  0  0  0  0  2  0  0  0  0  0  0
  194.7820  170.8650  139.3580 N   0  0  0  0  0  2  0  0  0  0  0  0
  197.1670  170.2710  135.6080 C   0  0  0  0  0  0  0  0  0  0  0  0
  191.2750  173.0900  143.1950 C   0  0  2  0  0  3  0  0  0  0  0  0
  193.2510  174.4310  140.9730 C   0  0  0  0  0  0  0  0  0  0  0  0
  193.9960  170.6330  144.3160 C   0  0  1  0  0  3  0  0  0  0  0  0
  192.4380  173.2820  140.9310 C   0  0  0  0  0  0  0  0  0  0  0  0
  195.1860  170.0420  143.6150 C   0  0  0  0  0  0  0  0  0  0  0  0
  195.0220  173.2570  139.9110 C   0  0  0  0  0  3  0  0  0  0  0  0
  197.1630  168.8650  138.2230 N   0  0  0  0  0  0  0  0  0  0  0  0
  188.9820  175.8000  146.8430 C   0  0  1  0  0  3  0  0  0  0  0  0
  195.3200  170.0910  142.2240 O   0  0  0  0  0  0  0  0  0  0  0  0
  196.6680  170.0490  138.0840 C   0  0  0  0  0  0  0  0  0  0  0  0
  196.5190  169.4350  140.2360 C   0  0  0  0  0  0  0  0  0  0  0  0
  196.2740  169.3330  141.6040 O   0  0  0  0  0  0  0  0  0  0  0  0
  196.9540  170.9420  134.5230 N   0  0  0  0  0  2  0  0  0  0  0  0
  185.4390  176.3490  145.2470 O   0  0  0  0  0  1  0  0  0  0  0  0
  189.9430  175.1300  142.6700 C   0  0  2  0  0  3  0  0  0  0  0  0
  192.9730  171.2140  143.3530 C   0  0  0  0  0  2  0  0  0  0  0  0
  186.3900  177.7260  147.9800 N   0  0  0  0  0  2  0  0  0  0  0  0
  185.9160  179.5050  146.5320 O   0  0  0  0  0  0  0  0  0  0  0  0
  185.8690  179.0270  147.6980 C   0  0  0  0  0  3  0  0  0  0  0  0
  190.3860  175.8010  147.4220 C   0  0  0  0  0  2  0  0  0  0  0  0
  190.7480  177.1000  147.7750 O   0  0  0  0  0  1  0  0  0  0  0  0
  193.3800  169.6610  145.1050 O   0  0  0  0  0  0  0  0  0  0  0  0
  192.6930  168.8320  144.2040 C   0  0  0  0  0  1  0  0  0  0  0  0
  197.8440  168.1660  134.5210 C   0  0  0  0  0  1  0  0  0  0  0  0
  197.9360  169.1050  135.5810 O   0  0  0  0  0  0  0  0  0  0  0  0
  187.4570  175.2300  142.1910 O   0  0  0  0  0  0  0  0  0  0  0  0
  187.0710  176.4590  141.6480 C   0  0  0  0  0  0  0  0  0  0  0  0
  187.8330  177.0980  140.8670 O   0  0  0  0  0  0  0  0  0  0  0  0
  185.8120  176.9630  141.9400 O   0  0  0  0  0  1  0  0  0  0  0  0
  3  6  1  0  0  0  0
  3 12  2  0  0  0  0
  5 38  2  0  0  0  0
  6 22  1  1  0  0  0
  6 18  1  0  0  0  0
  8 31  1  0  0  0  0
 10 53  1  6  0  0  0
 10 17  1  0  0  0  0
 10  3  1  0  0  0  0
 11 16  1  0  0  0  0
 12 35  1  0  0  0  0
 14 29  1  0  0  0  0
 15 11  2  0  0  0  0
 16 31  1  6  0  0  0
 16 28  1  0  0  0  0
 17 19  1  0  0  0  0
 18 41  1  6  0  0  0
 18 20  1  0  0  0  0
 19 12  1  0  0  0  0
 19  4  1  1  0  0  0
 20  9  1  0  0  0  0
 20 44  1  1  0  0  0
 21 37  1  6  0  0  0
 21 38  1  0  0  0  0
 23 33  1  0  0  0  0
 23  8  2  0  0  0  0
 24 13  1  1  0  0  0
 24 19  1  0  0  0  0
 25 37  1  0  0  0  0
 26 21  1  0  0  0  0
 26 23  1  0  0  0  0
 27 25  1  0  0  0  0
 28  1  1  6  0  0  0
 28 24  1  0  0  0  0
 29  7  1  0  0  0  0
 30 49  1  6  0  0  0
 31 29  2  0  0  0  0
 32  2  2  0  0  0  0
 32 30  1  0  0  0  0
 33 14  2  0  0  0  0
 34  5  1  0  0  0  0
 35  9  1  0  0  0  0
 35 47  1  6  0  0  0
 36 32  1  0  0  0  0
 37 34  2  0  0  0  0
 38 39  1  0  0  0  0
 39 36  1  0  0  0  0
 40 27  2  0  0  0  0
 42 11  1  6  0  0  0
 42 10  1  0  0  0  0
 42 24  1  0  0  0  0
 43  1  1  0  0  0  0
 43 30  1  0  0  0  0
 45 46  2  0  0  0  0
 46 44  1  0  0  0  0
 47 48  1  0  0  0  0
 50 49  1  0  0  0  0
 51 52  1  0  0  0  0
 52 27  1  0  0  0  0
 54 56  1  0  0  0  0
 54 53  1  0  0  0  0
 55 54  2  0  0  0  0
M  END
>  <MODEL>
3

>  <REMARK>
 VINA RESULT:      -5.3      3.233     10.753
  Name = 
  6 active torsions:
  status: ('A' for Active; 'I' for Inactive)
    1  A    between atoms: C_10  and  O_37
    2  A    between atoms: C_15  and  C_45
    3  A    between atoms: C_16  and  O_37
    4  A    between atoms: N_19  and  C_25
    5  A    between atoms: C_33  and  O_50
    6  A    between atoms: O_38  and  C_39
                            x       y       z     vdW  Elec       q    Type
                         _______ _______ _______ _____ _____    ______ ____

>  <TORSDO>
F 6

$$$$
=
 OpenBabel11062421173D

 56 62  0  0  1  0  0  0  0  0999 V2000
  188.7380  176.5710  141.4680 C   0  0  0  0  0  2  0  0  0  0  0  0
  186.0390  177.0240  137.6540 O   0  0  0  0  0  0  0  0  0  0  0  0
  192.7160  175.5540  145.0830 C   0  0  0  0  0  0  0  0  0  0  0  0
  191.5670  174.5460  141.7830 C   0  0  0  0  0  1  0  0  0  0  0  0
  181.6070  177.5760  139.7920 N   0  0  0  0  0  0  0  0  0  0  0  0
  193.7940  175.7620  146.1110 C   0  0  1  0  0  3  0  0  0  0  0  0
  188.6620  178.8960  144.3740 F   0  0  0  0  0  0  0  0  0  0  0  0
  185.8180  176.8380  143.3370 C   0  0  0  0  0  3  0  0  0  0  0  0
  195.2360  176.0410  143.8170 O   0  0  0  0  0  0  0  0  0  0  0  0
  191.2840  175.1770  145.3600 C   0  0  2  0  0  0  0  0  0  0  0  0
  188.9060  176.1360  145.2050 C   0  0  0  0  0  0  0  0  0  0  0  0
  192.8650  175.5610  143.7500 C   0  0  0  0  0  0  0  0  0  0  0  0
  191.0040  177.6640  142.8770 C   0  0  0  0  0  1  0  0  0  0  0  0
  186.5460  179.4860  143.5590 N   0  0  0  0  0  0  0  0  0  0  0  0
  188.3790  176.1820  146.4270 C   0  0  0  0  0  2  0  0  0  0  0  0
  188.0750  176.0360  143.9720 C   0  0  2  0  0  3  0  0  0  0  0  0
  191.0820  174.1820  144.2450 C   0  0  0  0  0  2  0  0  0  0  0  0
  195.0220  174.8570  145.9220 C   0  0  2  0  0  3  0  0  0  0  0  0
  191.5200  175.1590  143.1780 C   0  0  2  0  0  0  0  0  0  0  0  0
  195.6380  174.8920  144.5130 C   0  0  2  0  0  3  0  0  0  0  0  0
  182.9960  178.3690  141.4580 C   0  0  2  0  0  3  0  0  0  0  0  0
  194.1750  177.1000  146.1400 O   0  0  0  0  0  1  0  0  0  0  0  0
  184.9240  177.8350  142.9630 C   0  0  0  0  0  0  0  0  0  0  0  0
  190.4960  176.3100  143.3870 C   0  0  2  0  0  0  0  0  0  0  0  0
  181.0430  179.0090  143.0160 N   0  0  0  0  0  2  0  0  0  0  0  0
  183.6740  177.4720  142.3750 N   0  0  0  0  0  2  0  0  0  0  0  0
  179.6600  179.2450  143.2950 C   0  0  0  0  0  0  0  0  0  0  0  0
  189.0970  175.9360  142.8260 C   0  0  2  0  0  3  0  0  0  0  0  0
  187.4390  178.5240  143.9180 C   0  0  0  0  0  0  0  0  0  0  0  0
  187.4910  176.2130  139.3570 C   0  0  1  0  0  3  0  0  0  0  0  0
  187.0880  177.1650  143.8100 C   0  0  0  0  0  0  0  0  0  0  0  0
  186.1820  176.7790  138.8830 C   0  0  0  0  0  0  0  0  0  0  0  0
  185.3150  179.1740  143.0770 C   0  0  0  0  0  3  0  0  0  0  0  0
  180.7990  178.0360  140.8340 N   0  0  0  0  0  0  0  0  0  0  0  0
  194.1760  175.6420  142.9890 C   0  0  1  0  0  3  0  0  0  0  0  0
  185.1360  177.0570  139.7680 O   0  0  0  0  0  0  0  0  0  0  0  0
  181.5490  178.4670  141.7920 C   0  0  0  0  0  0  0  0  0  0  0  0
  182.8450  177.7240  140.1200 C   0  0  0  0  0  0  0  0  0  0  0  0
  183.8870  177.3300  139.2840 O   0  0  0  0  0  0  0  0  0  0  0  0
  179.3200  179.6460  144.4770 N   0  0  0  0  0  2  0  0  0  0  0  0
  194.6960  173.5420  146.2640 O   0  0  0  0  0  1  0  0  0  0  0  0
  190.3660  176.3520  144.9310 C   0  0  2  0  0  3  0  0  0  0  0  0
  187.5060  175.9390  140.8520 C   0  0  0  0  0  2  0  0  0  0  0  0
  197.0940  174.8720  144.6050 N   0  0  0  0  0  2  0  0  0  0  0  0
  197.3070  172.5470  144.4060 O   0  0  0  0  0  0  0  0  0  0  0  0
  197.8640  173.6680  144.5580 C   0  0  0  0  0  3  0  0  0  0  0  0
  194.0530  176.6240  141.8380 C   0  0  0  0  0  2  0  0  0  0  0  0
  195.2670  176.7090  141.1590 O   0  0  0  0  0  1  0  0  0  0  0  0
  187.7700  175.0290  138.6720 O   0  0  0  0  0  0  0  0  0  0  0  0
  188.3180  174.1650  139.6340 C   0  0  0  0  0  1  0  0  0  0  0  0
  177.7530  177.9850  142.3740 C   0  0  0  0  0  1  0  0  0  0  0  0
  178.6920  179.0470  142.3080 O   0  0  0  0  0  0  0  0  0  0  0  0
  191.0420  174.6230  146.6550 O   0  0  0  0  0  0  0  0  0  0  0  0
  191.2380  175.3190  147.8510 C   0  0  0  0  0  0  0  0  0  0  0  0
  191.5620  174.7150  148.9140 O   0  0  0  0  0  1  0  0  0  0  0  0
  191.1170  176.7010  147.8590 O   0  0  0  0  0  0  0  0  0  0  0  0
  2 32  2  0  0  0  0
  3 10  1  0  0  0  0
  3  6  1  0  0  0  0
  5 38  2  0  0  0  0
  5 34  1  0  0  0  0
  6 22  1  6  0  0  0
  8 31  1  0  0  0  0
  9 20  1  0  0  0  0
 10 53  1  1  0  0  0
 11 15  2  0  0  0  0
 12  3  2  0  0  0  0
 14 29  1  0  0  0  0
 16 31  1  6  0  0  0
 16 11  1  0  0  0  0
 17 10  1  0  0  0  0
 18  6  1  0  0  0  0
 18 41  1  6  0  0  0
 19  4  1  6  0  0  0
 19 24  1  0  0  0  0
 19 12  1  0  0  0  0
 19 17  1  0  0  0  0
 20 44  1  1  0  0  0
 20 18  1  0  0  0  0
 21 38  1  6  0  0  0
 21 37  1  0  0  0  0
 21 26  1  0  0  0  0
 23 33  1  0  0  0  0
 23  8  2  0  0  0  0
 24 13  1  6  0  0  0
 24 42  1  0  0  0  0
 25 27  1  0  0  0  0
 26 23  1  0  0  0  0
 27 40  2  0  0  0  0
 28  1  1  6  0  0  0
 28 24  1  0  0  0  0
 28 16  1  0  0  0  0
 29  7  1  0  0  0  0
 30 49  1  6  0  0  0
 30 43  1  0  0  0  0
 31 29  2  0  0  0  0
 32 30  1  0  0  0  0
 32 36  1  0  0  0  0
 33 14  2  0  0  0  0
 34 37  2  0  0  0  0
 35 47  1  6  0  0  0
 35 12  1  0  0  0  0
 35  9  1  0  0  0  0
 37 25  1  0  0  0  0
 39 36  1  0  0  0  0
 39 38  1  0  0  0  0
 42 11  1  6  0  0  0
 42 10  1  0  0  0  0
 43  1  1  0  0  0  0
 45 46  2  0  0  0  0
 46 44  1  0  0  0  0
 48 47  1  0  0  0  0
 49 50  1  0  0  0  0
 52 51  1  0  0  0  0
 52 27  1  0  0  0  0
 53 54  1  0  0  0  0
 54 56  2  0  0  0  0
 54 55  1  0  0  0  0
M  END
>  <MODEL>
4

>  <REMARK>
 VINA RESULT:      -5.3      3.122      5.962
  Name = 
  6 active torsions:
  status: ('A' for Active; 'I' for Inactive)
    1  A    between atoms: C_10  and  O_37
    2  A    between atoms: C_15  and  C_45
    3  A    between atoms: C_16  and  O_37
    4  A    between atoms: N_19  and  C_25
    5  A    between atoms: C_33  and  O_50
    6  A    between atoms: O_38  and  C_39
                            x       y       z     vdW  Elec       q    Type
                         _______ _______ _______ _____ _____    ______ ____

>  <TORSDO>
F 6

$$$$
=
 OpenBabel11062421173D

 56 62  0  0  1  0  0  0  0  0999 V2000
  189.8210  173.8570  140.4820 C   0  0  0  0  0  2  0  0  0  0  0  0
  189.0630  172.3800  136.0910 O   0  0  0  0  0  0  0  0  0  0  0  0
  189.6460  176.2560  145.3950 C   0  0  0  0  0  0  0  0  0  0  0  0
  188.4220  176.6770  141.9970 C   0  0  0  0  0  1  0  0  0  0  0  0
  193.5480  170.5900  134.9950 N   0  0  0  0  0  0  0  0  0  0  0  0
  189.5370  176.4500  146.8830 C   0  0  1  0  0  3  0  0  0  0  0  0
  191.3910  171.7840  143.1460 F   0  0  0  0  0  0  0  0  0  0  0  0
  193.1060  172.7940  140.0740 C   0  0  0  0  0  3  0  0  0  0  0  0
  186.9060  176.5110  146.1800 O   0  0  0  0  0  0  0  0  0  0  0  0
  190.9230  176.1820  144.6000 C   0  0  2  0  0  0  0  0  0  0  0  0
  192.3180  174.5230  143.2220 C   0  0  0  0  0  0  0  0  0  0  0  0
  188.6360  176.2240  144.5130 C   0  0  0  0  0  0  0  0  0  0  0  0
  188.9550  173.6020  143.2200 C   0  0  0  0  0  1  0  0  0  0  0  0
  192.2240  170.5210  141.3570 N   0  0  0  0  0  0  0  0  0  0  0  0
  193.5100  174.3800  143.7960 C   0  0  0  0  0  2  0  0  0  0  0  0
  192.0920  174.2920  141.7660 C   0  0  2  0  0  3  0  0  0  0  0  0
  190.5040  177.0030  143.4060 C   0  0  0  0  0  2  0  0  0  0  0  0
  188.7150  177.6810  147.2950 C   0  0  2  0  0  3  0  0  0  0  0  0
  189.2810  176.1550  143.1440 C   0  0  2  0  0  0  0  0  0  0  0  0
  187.3160  177.7640  146.6590 C   0  0  2  0  0  3  0  0  0  0  0  0
  193.5370  170.3610  137.2930 C   0  0  2  0  0  3  0  0  0  0  0  0
  189.0260  175.3010  147.4790 O   0  0  0  0  0  1  0  0  0  0  0  0
  193.2930  171.5480  139.4820 C   0  0  0  0  0  0  0  0  0  0  0  0
  189.9240  174.7560  142.9360 C   0  0  2  0  0  0  0  0  0  0  0  0
  195.8530  169.2280  137.3610 N   0  0  0  0  0  2  0  0  0  0  0  0
  193.8520  171.4720  138.1710 N   0  0  0  0  0  2  0  0  0  0  0  0
  196.9780  168.5880  136.7510 C   0  0  0  0  0  0  0  0  0  0  0  0
  190.6100  174.6440  141.5470 C   0  0  2  0  0  3  0  0  0  0  0  0
  192.0210  171.7310  141.9450 C   0  0  0  0  0  0  0  0  0  0  0  0
  189.3450  173.6940  138.0550 C   0  0  1  0  0  3  0  0  0  0  0  0
  192.4630  172.9050  141.3050 C   0  0  0  0  0  0  0  0  0  0  0  0
  189.8420  172.7240  137.0210 C   0  0  0  0  0  0  0  0  0  0  0  0
  192.8320  170.4070  140.1470 C   0  0  0  0  0  3  0  0  0  0  0  0
  194.7380  169.9580  135.3630 N   0  0  0  0  0  0  0  0  0  0  0  0
  187.1750  176.5150  144.8040 C   0  0  1  0  0  3  0  0  0  0  0  0
  191.1300  172.1810  137.0790 O   0  0  0  0  0  0  0  0  0  0  0  0
  194.7710  169.8350  136.6480 C   0  0  0  0  0  0  0  0  0  0  0  0
  192.8640  170.8540  136.0550 C   0  0  0  0  0  0  0  0  0  0  0  0
  191.6340  171.5070  136.0020 O   0  0  0  0  0  0  0  0  0  0  0  0
  197.9410  168.1660  137.5020 N   0  0  0  0  0  2  0  0  0  0  0  0
  189.4330  178.8450  147.0120 O   0  0  0  0  0  1  0  0  0  0  0  0
  191.0540  174.7580  143.9970 C   0  0  2  0  0  3  0  0  0  0  0  0
  190.4010  174.0390  139.0940 C   0  0  0  0  0  2  0  0  0  0  0  0
  186.3490  178.2420  147.6420 N   0  0  0  0  0  2  0  0  0  0  0  0
  184.8050  179.0500  146.0770 O   0  0  0  0  0  0  0  0  0  0  0  0
  185.1230  178.8850  147.2860 C   0  0  0  0  0  3  0  0  0  0  0  0
  186.2910  175.4830  144.1260 C   0  0  0  0  0  2  0  0  0  0  0  0
  185.6500  176.0580  143.0300 O   0  0  0  0  0  1  0  0  0  0  0  0
  188.9140  174.8680  137.4350 O   0  0  0  0  0  0  0  0  0  0  0  0
  187.5740  175.0220  137.8230 C   0  0  0  0  0  1  0  0  0  0  0  0
  197.8950  169.1970  134.5460 C   0  0  0  0  0  1  0  0  0  0  0  0
  197.0340  168.4210  135.3640 O   0  0  0  0  0  0  0  0  0  0  0  0
  192.0790  176.7020  145.2580 O   0  0  0  0  0  0  0  0  0  0  0  0
  192.6540  176.1280  146.3960 C   0  0  0  0  0  0  0  0  0  0  0  0
  192.5260  174.8940  146.6410 O   0  0  0  0  0  0  0  0  0  0  0  0
  193.4120  176.9200  147.2460 O   0  0  0  0  0  1  0  0  0  0  0  0
  2 32  2  0  0  0  0
  3  6  1  0  0  0  0
  5 34  1  0  0  0  0
  5 38  2  0  0  0  0
  6 18  1  0  0  0  0
  6 22  1  1  0  0  0
  8 31  1  0  0  0  0
  9 20  1  0  0  0  0
 10 53  1  1  0  0  0
 10  3  1  0  0  0  0
 11 15  2  0  0  0  0
 12 35  1  0  0  0  0
 12  3  2  0  0  0  0
 14 29  1  0  0  0  0
 16 31  1  1  0  0  0
 16 11  1  0  0  0  0
 17 10  1  0  0  0  0
 18 41  1  6  0  0  0
 19  4  1  6  0  0  0
 19 17  1  0  0  0  0
 19 12  1  0  0  0  0
 20 18  1  0  0  0  0
 20 44  1  1  0  0  0
 21 38  1  6  0  0  0
 21 26  1  0  0  0  0
 23  8  2  0  0  0  0
 23 33  1  0  0  0  0
 24 19  1  0  0  0  0
 24 13  1  1  0  0  0
 24 42  1  0  0  0  0
 26 23  1  0  0  0  0
 27 25  1  0  0  0  0
 27 40  2  0  0  0  0
 28  1  1  6  0  0  0
 28 16  1  0  0  0  0
 28 24  1  0  0  0  0
 29  7  1  0  0  0  0
 30 49  1  6  0  0  0
 30 43  1  0  0  0  0
 31 29  2  0  0  0  0
 32 36  1  0  0  0  0
 32 30  1  0  0  0  0
 33 14  2  0  0  0  0
 34 37  2  0  0  0  0
 35 47  1  6  0  0  0
 35  9  1  0  0  0  0
 37 21  1  0  0  0  0
 37 25  1  0  0  0  0
 39 38  1  0  0  0  0
 39 36  1  0  0  0  0
 42 11  1  6  0  0  0
 42 10  1  0  0  0  0
 43  1  1  0  0  0  0
 45 46  2  0  0  0  0
 46 44  1  0  0  0  0
 48 47  1  0  0  0  0
 49 50  1  0  0  0  0
 51 52  1  0  0  0  0
 52 27  1  0  0  0  0
 53 54  1  0  0  0  0
 54 55  2  0  0  0  0
 54 56  1  0  0  0  0
M  END
>  <MODEL>
5

>  <REMARK>
 VINA RESULT:      -4.9      3.927     10.717
  Name = 
  6 active torsions:
  status: ('A' for Active; 'I' for Inactive)
    1  A    between atoms: C_10  and  O_37
    2  A    between atoms: C_15  and  C_45
    3  A    between atoms: C_16  and  O_37
    4  A    between atoms: N_19  and  C_25
    5  A    between atoms: C_33  and  O_50
    6  A    between atoms: O_38  and  C_39
                            x       y       z     vdW  Elec       q    Type
                         _______ _______ _______ _____ _____    ______ ____

>  <TORSDO>
F 6

$$$$
=
 OpenBabel11062421173D

 56 62  0  0  1  0  0  0  0  0999 V2000
  191.1610  174.7080  143.1560 C   0  0  0  0  0  2  0  0  0  0  0  0
  189.7000  177.6250  146.5320 O   0  0  0  0  0  0  0  0  0  0  0  0
  193.9740  171.3890  139.8420 C   0  0  0  0  0  0  0  0  0  0  0  0
  194.4760  174.0400  142.2780 C   0  0  0  0  0  1  0  0  0  0  0  0
  185.5810  179.3900  144.4250 N   0  0  0  0  0  0  0  0  0  0  0  0
  194.4220  170.1550  139.1040 C   0  0  1  0  0  3  0  0  0  0  0  0
  189.0040  172.1550  141.5180 F   0  0  0  0  0  0  0  0  0  0  0  0
  188.4080  175.7610  141.3130 C   0  0  0  0  0  3  0  0  0  0  0  0
  195.8230  169.8830  141.4250 O   0  0  0  0  0  0  0  0  0  0  0  0
  193.0840  172.4740  139.2980 C   0  0  2  0  0  0  0  0  0  0  0  0
  190.7420  173.4780  139.6220 C   0  0  0  0  0  0  0  0  0  0  0  0
  194.3730  171.7850  141.0600 C   0  0  0  0  0  0  0  0  0  0  0  0
  191.8530  171.9730  142.5630 C   0  0  0  0  0  1  0  0  0  0  0  0
  187.2340  173.4730  142.3040 N   0  0  0  0  0  0  0  0  0  0  0  0
  190.0520  173.3380  138.4920 C   0  0  0  0  0  2  0  0  0  0  0  0
  190.4550  174.5550  140.6120 C   0  0  2  0  0  3  0  0  0  0  0  0
  193.8050  173.6730  139.8620 C   0  0  0  0  0  2  0  0  0  0  0  0
  195.9480  170.0050  139.0060 C   0  0  2  0  0  3  0  0  0  0  0  0
  193.7490  173.1490  141.2780 C   0  0  2  0  0  0  0  0  0  0  0  0
  196.6940  170.1040  140.3480 C   0  0  2  0  0  3  0  0  0  0  0  0
  185.7520  177.3320  143.3910 C   0  0  2  0  0  3  0  0  0  0  0  0
  193.8570  169.0220  139.6820 O   0  0  0  0  0  1  0  0  0  0  0  0
  187.1950  175.8420  141.9890 C   0  0  0  0  0  0  0  0  0  0  0  0
  192.2160  172.9970  141.4820 C   0  0  2  0  0  0  0  0  0  0  0  0
  183.5520  177.6200  142.0760 N   0  0  0  0  0  2  0  0  0  0  0  0
  186.6210  177.1240  142.2480 N   0  0  0  0  0  2  0  0  0  0  0  0
  182.3110  178.2750  141.7950 C   0  0  0  0  0  0  0  0  0  0  0  0
  191.5310  174.3740  141.6980 C   0  0  2  0  0  3  0  0  0  0  0  0
  188.4270  173.3750  141.6570 C   0  0  0  0  0  0  0  0  0  0  0  0
  190.9200  176.5560  144.7900 C   0  0  1  0  0  3  0  0  0  0  0  0
  189.0440  174.5320  141.1440 C   0  0  0  0  0  0  0  0  0  0  0  0
  189.6920  177.2300  145.3340 C   0  0  0  0  0  0  0  0  0  0  0  0
  186.6190  174.6700  142.4910 C   0  0  0  0  0  3  0  0  0  0  0  0
  184.4600  179.2330  143.6060 N   0  0  0  0  0  0  0  0  0  0  0  0
  195.4660  171.1530  141.9010 C   0  0  1  0  0  3  0  0  0  0  0  0
  188.5430  177.4070  144.5570 O   0  0  0  0  0  0  0  0  0  0  0  0
  184.5380  178.0980  142.9950 C   0  0  0  0  0  0  0  0  0  0  0  0
  186.3390  178.3540  144.3080 C   0  0  0  0  0  0  0  0  0  0  0  0
  187.5470  178.2350  144.9920 O   0  0  0  0  0  0  0  0  0  0  0  0
  181.5470  177.7950  140.8690 N   0  0  0  0  0  2  0  0  0  0  0  0
  196.4580  170.9470  138.1100 O   0  0  0  0  0  1  0  0  0  0  0  0
  191.7540  172.4770  140.0970 C   0  0  2  0  0  3  0  0  0  0  0  0
  190.7760  176.1630  143.3280 C   0  0  0  0  0  2  0  0  0  0  0  0
  197.7720  169.1210  140.3920 N   0  0  0  0  0  2  0  0  0  0  0  0
  197.1330  168.1660  142.4340 O   0  0  0  0  0  0  0  0  0  0  0  0
  197.9410  168.1930  141.4660 C   0  0  0  0  0  3  0  0  0  0  0  0
  195.0080  171.0260  143.3440 C   0  0  0  0  0  2  0  0  0  0  0  0
  196.0730  170.6120  144.1420 O   0  0  0  0  0  1  0  0  0  0  0  0
  192.0230  177.3990  144.9300 O   0  0  0  0  0  0  0  0  0  0  0  0
  192.8540  176.7690  145.8700 C   0  0  0  0  0  1  0  0  0  0  0  0
  180.5690  179.7630  142.7010 C   0  0  0  0  0  1  0  0  0  0  0  0
  181.9300  179.4130  142.5100 O   0  0  0  0  0  0  0  0  0  0  0  0
  192.9690  172.5090  137.8740 O   0  0  0  0  0  0  0  0  0  0  0  0
  193.5880  173.4650  137.0640 C   0  0  0  0  0  0  0  0  0  0  0  0
  194.8300  173.4190  136.8310 O   0  0  0  0  0  1  0  0  0  0  0  0
  192.8170  174.4550  136.4730 O   0  0  0  0  0  0  0  0  0  0  0  0
  1 43  1  0  0  0  0
  3 12  2  0  0  0  0
  6 22  1  1  0  0  0
  6  3  1  0  0  0  0
  7 29  1  0  0  0  0
  8 23  1  0  0  0  0
  9 35  1  0  0  0  0
 10 53  1  6  0  0  0
 10  3  1  0  0  0  0
 10 17  1  0  0  0  0
 10 42  1  0  0  0  0
 12 19  1  0  0  0  0
 12 35  1  0  0  0  0
 14 33  1  0  0  0  0
 15 11  2  0  0  0  0
 16 11  1  6  0  0  0
 16 31  1  0  0  0  0
 16 28  1  0  0  0  0
 17 19  1  0  0  0  0
 18 41  1  6  0  0  0
 18  6  1  0  0  0  0
 18 20  1  0  0  0  0
 19 24  1  0  0  0  0
 19  4  1  1  0  0  0
 20 44  1  6  0  0  0
 20  9  1  0  0  0  0
 21 26  1  6  0  0  0
 21 38  1  0  0  0  0
 23 26  1  0  0  0  0
 23 33  2  0  0  0  0
 24 28  1  0  0  0  0
 24 13  1  1  0  0  0
 25 37  1  0  0  0  0
 27 25  1  0  0  0  0
 27 52  1  0  0  0  0
 28  1  1  1  0  0  0
 29 14  2  0  0  0  0
 30 49  1  6  0  0  0
 30 32  1  0  0  0  0
 31  8  2  0  0  0  0
 31 29  1  0  0  0  0
 32  2  2  0  0  0  0
 34  5  1  0  0  0  0
 35 47  1  1  0  0  0
 36 39  1  0  0  0  0
 36 32  1  0  0  0  0
 37 21  1  0  0  0  0
 37 34  2  0  0  0  0
 38  5  2  0  0  0  0
 38 39  1  0  0  0  0
 40 27  2  0  0  0  0
 42 11  1  6  0  0  0
 42 24  1  0  0  0  0
 43 30  1  0  0  0  0
 44 46  1  0  0  0  0
 46 45  2  0  0  0  0
 47 48  1  0  0  0  0
 49 50  1  0  0  0  0
 52 51  1  0  0  0  0
 54 53  1  0  0  0  0
 55 54  1  0  0  0  0
 56 54  2  0  0  0  0
M  END
>  <MODEL>
6

>  <REMARK>
 VINA RESULT:      -4.8      1.491      1.818
  Name = 
  6 active torsions:
  status: ('A' for Active; 'I' for Inactive)
    1  A    between atoms: C_10  and  O_37
    2  A    between atoms: C_15  and  C_45
    3  A    between atoms: C_16  and  O_37
    4  A    between atoms: N_19  and  C_25
    5  A    between atoms: C_33  and  O_50
    6  A    between atoms: O_38  and  C_39
                            x       y       z     vdW  Elec       q    Type
                         _______ _______ _______ _____ _____    ______ ____

>  <TORSDO>
F 6

$$$$
