=
 OpenBabel11062423063D

 57 63  0  0  1  0  0  0  0  0999 V2000
  194.2890  173.2270  142.4130 C   0  0  1  0  0  3  0  0  0  0  0  0
  189.8780  173.5510  139.3290 O   0  0  0  0  0  0  0  0  0  0  0  0
  190.0010  171.2420  139.8700 C   0  0  0  0  0  2  0  0  0  0  0  0
  189.8540  172.6760  140.2330 C   0  0  0  0  0  0  0  0  0  0  0  0
  191.9930  170.7220  141.1130 O   0  0  0  0  0  0  0  0  0  0  0  0
  191.2450  178.0320  143.7960 C   0  0  0  0  0  2  0  0  0  0  0  0
  190.4860  175.7370  143.8350 C   0  0  0  0  0  0  0  0  0  0  0  0
  193.6500  171.8660  142.3810 C   0  0  0  0  0  0  0  0  0  0  0  0
  189.5130  174.6380  143.5440 C   0  0  0  0  0  2  0  0  0  0  0  0
  189.7360  173.0440  141.6110 N   0  0  0  0  0  2  0  0  0  0  0  0
  193.5270  171.2090  143.4040 O   0  0  0  0  0  0  0  0  0  0  0  0
  191.4690  170.8470  139.8150 C   0  0  1  0  0  3  0  0  0  0  0  0
  192.3860  174.3530  143.4390 O   0  0  0  0  0  0  0  0  0  0  0  0
  193.7890  174.1510  143.5330 C   0  0  1  0  0  3  0  0  0  0  0  0
  189.0870  175.2710  141.2830 O   0  0  0  0  0  0  0  0  0  0  0  0
  189.4370  174.3600  142.0810 C   0  0  0  0  0  0  0  0  0  0  0  0
  191.7990  175.5730  143.7850 C   0  0  0  0  0  0  0  0  0  0  0  0
  190.0370  177.1460  144.0730 C   0  0  1  0  0  3  0  0  0  0  0  0
  193.2820  171.2660  141.0580 C   0  0  1  0  0  3  0  0  0  0  0  0
  195.6790  173.1040  142.4600 O   0  0  0  0  0  1  0  0  0  0  0  0
  192.7480  177.0510  144.1190 S   0  0  0  0  0  0  0  0  0  0  0  0
  197.3750  170.3390  138.3370 C   0  0  0  0  0  2  0  0  0  0  0  0
  196.5760  169.1960  139.5220 S   0  0  0  0  0  0  0  0  0  0  0  0
  194.2440  170.2230  140.7200 N   0  0  0  0  0  2  0  0  0  0  0  0
  195.4330  171.5190  139.1210 N   0  0  0  0  0  0  0  0  0  0  0  0
  195.3210  170.4350  139.8060 C   0  0  0  0  0  0  0  0  0  0  0  0
  196.8690  172.6710  137.4500 C   0  0  0  0  0  1  0  0  0  0  0  0
  196.5460  171.5290  138.2840 N   0  0  0  0  0  0  0  0  0  0  0  0
  188.2680  176.6100  145.8450 C   0  0  1  0  0  3  0  0  0  0  0  0
  189.4610  177.4730  145.4690 C   0  0  1  0  0  3  0  0  0  0  0  0
  189.8450  176.9640  147.8610 C   0  0  0  0  0  1  0  0  0  0  0  0
  189.6470  176.3560  146.4790 C   0  0  1  0  0  3  0  0  0  0  0  0
  186.6780  176.6170  147.6720 O   0  0  0  0  0  0  0  0  0  0  0  0
  185.9340  176.8370  146.4980 C   0  0  1  0  0  3  0  0  0  0  0  0
  186.2180  178.2140  145.9330 C   0  0  1  0  0  3  0  0  0  0  0  0
  187.2860  177.4260  146.6930 C   0  0  2  0  0  0  0  0  0  0  0  0
  186.3260  178.1540  144.3990 C   0  0  2  0  0  3  0  0  0  0  0  0
  185.4810  180.4990  144.5010 O   0  0  0  0  0  1  0  0  0  0  0  0
  186.1030  179.4960  143.7700 C   0  0  0  0  0  0  0  0  0  0  0  0
  186.5150  179.7380  142.6020 O   0  0  0  0  0  0  0  0  0  0  0  0
  185.4170  177.0950  143.7610 C   0  0  1  0  0  3  0  0  0  0  0  0
  184.2560  177.6800  143.2530 O   0  0  0  0  0  1  0  0  0  0  0  0
  186.3780  176.8350  141.4590 O   0  0  0  0  0  0  0  0  0  0  0  0
  186.0950  176.2820  142.7020 C   0  0  0  0  0  0  0  0  0  0  0  0
  186.4200  175.0900  142.9450 O   0  0  0  0  0  1  0  0  0  0  0  0
  194.1530  173.6640  144.9330 C   0  0  0  0  0  2  0  0  0  0  0  0
  194.9830  174.5940  145.5620 O   0  0  0  0  0  1  0  0  0  0  0  0
  191.6360  169.5490  139.0190 C   0  0  0  0  0  2  0  0  0  0  0  0
  192.2430  169.7730  137.6350 C   0  0  1  0  0  3  0  0  0  0  0  0
  192.3020  168.4560  136.8820 C   0  0  0  0  0  1  0  0  0  0  0  0
  192.0070  172.0670  136.5970 C   0  0  0  0  0  3  0  0  0  0  0  0
  191.8020  174.2180  135.5930 F   0  0  0  0  0  0  0  0  0  0  0  0
  189.4810  171.3890  135.6050 C   0  0  0  0  0  3  0  0  0  0  0  0
  190.0180  172.6540  135.3470 C   0  0  0  0  0  3  0  0  0  0  0  0
  191.4710  170.7950  136.8590 C   0  0  0  0  0  0  0  0  0  0  0  0
  191.2810  172.9930  135.8440 C   0  0  0  0  0  0  0  0  0  0  0  0
  190.2060  170.4630  136.3590 C   0  0  0  0  0  3  0  0  0  0  0  0
  1 20  1  1  0  0  0
  1 14  1  0  0  0  0
  2  4  2  0  0  0  0
  3  4  1  0  0  0  0
  4 10  1  0  0  0  0
  6 21  1  0  0  0  0
  7 18  1  0  0  0  0
  8  1  1  0  0  0  0
  8 11  2  0  0  0  0
  9  7  1  0  0  0  0
 10 16  1  0  0  0  0
 12 48  1  1  0  0  0
 12  3  1  0  0  0  0
 12  5  1  0  0  0  0
 13 14  1  0  0  0  0
 13 17  1  0  0  0  0
 14 46  1  1  0  0  0
 15 16  2  0  0  0  0
 16  9  1  0  0  0  0
 17  7  2  0  0  0  0
 17 21  1  0  0  0  0
 18  6  1  1  0  0  0
 19 24  1  1  0  0  0
 19  5  1  0  0  0  0
 19  8  1  0  0  0  0
 22 23  1  0  0  0  0
 23 26  1  0  0  0  0
 25 26  2  0  0  0  0
 26 24  1  0  0  0  0
 27 28  1  0  0  0  0
 28 22  1  0  0  0  0
 28 25  1  0  0  0  0
 29 32  1  0  0  0  0
 29 36  1  1  0  0  0
 30 18  1  6  0  0  0
 30 29  1  0  0  0  0
 30 32  1  0  0  0  0
 32 31  1  1  0  0  0
 34 36  1  0  0  0  0
 34 33  1  1  0  0  0
 35 37  1  6  0  0  0
 35 34  1  0  0  0  0
 35 36  1  0  0  0  0
 36 33  1  1  0  0  0
 37 39  1  6  0  0  0
 39 38  1  0  0  0  0
 40 39  2  0  0  0  0
 41 42  1  6  0  0  0
 41 37  1  0  0  0  0
 43 44  2  0  0  0  0
 44 45  1  0  0  0  0
 44 41  1  0  0  0  0
 46 47  1  0  0  0  0
 49 50  1  6  0  0  0
 49 48  1  0  0  0  0
 51 55  1  0  0  0  0
 52 56  1  0  0  0  0
 53 57  1  0  0  0  0
 54 53  2  0  0  0  0
 54 56  1  0  0  0  0
 55 49  1  0  0  0  0
 56 51  2  0  0  0  0
 57 55  2  0  0  0  0
M  END
>  <MODEL>
1

>  <REMARK>
 VINA RESULT:      -6.6      0.000      0.000
  Name = 
  11 active torsions:
  status: ('A' for Active; 'I' for Inactive)
    1  A    between atoms: N_10  and  C_54
    2  A    between atoms: C_11  and  C_48
    3  A    between atoms: C_14  and  C_46
    4  A    between atoms: C_22  and  C_38
    5  A    between atoms: C_24  and  C_33
    6  A    between atoms: C_24  and  C_48
    7  A    between atoms: C_25  and  C_30
    8  A    between atoms: C_25  and  C_40
    9  A    between atoms: C_28  and  C_52
   10  A    between atoms: C_34  and  C_48
   11  A    between atoms: C_36  and  C_40
                            x       y       z     vdW  Elec       q    Type
                         _______ _______ _______ _____ _____    ______ ____

>  <TORSDO>
F 11

$$$$
=
 OpenBabel11062423063D

 57 63  0  0  1  0  0  0  0  0999 V2000
  191.3800  171.5770  143.4190 C   0  0  1  0  0  3  0  0  0  0  0  0
  187.1260  174.1800  141.3700 O   0  0  0  0  0  0  0  0  0  0  0  0
  188.4590  175.9280  142.2680 C   0  0  0  0  0  2  0  0  0  0  0  0
  188.2210  174.7990  141.3300 C   0  0  0  0  0  0  0  0  0  0  0  0
  190.3810  175.0750  143.4350 O   0  0  0  0  0  0  0  0  0  0  0  0
  189.8990  169.2200  138.2690 C   0  0  0  0  0  2  0  0  0  0  0  0
  190.5000  171.5160  138.7280 C   0  0  0  0  0  0  0  0  0  0  0  0
  191.6260  173.0520  143.5740 C   0  0  0  0  0  0  0  0  0  0  0  0
  190.3170  172.9980  138.6310 C   0  0  0  0  0  2  0  0  0  0  0  0
  189.2600  174.4010  140.4310 N   0  0  0  0  0  2  0  0  0  0  0  0
  192.7160  173.5350  143.3050 O   0  0  0  0  0  0  0  0  0  0  0  0
  189.0290  175.4240  143.5860 C   0  0  1  0  0  3  0  0  0  0  0  0
  191.2620  171.6150  140.9850 O   0  0  0  0  0  0  0  0  0  0  0  0
  191.8710  170.9730  142.0960 C   0  0  1  0  0  3  0  0  0  0  0  0
  187.9720  172.9920  139.0720 O   0  0  0  0  0  0  0  0  0  0  0  0
  189.1090  173.4420  139.3820 C   0  0  0  0  0  0  0  0  0  0  0  0
  190.9410  170.9110  139.8200 C   0  0  0  0  0  0  0  0  0  0  0  0
  190.0630  170.5930  137.6320 C   0  0  1  0  0  3  0  0  0  0  0  0
  190.5600  173.9070  144.1870 C   0  0  1  0  0  3  0  0  0  0  0  0
  191.9170  170.8830  144.5060 O   0  0  0  0  0  1  0  0  0  0  0  0
  191.0190  169.1290  139.7060 S   0  0  0  0  0  0  0  0  0  0  0  0
  193.7400  176.6980  146.8520 C   0  0  0  0  0  2  0  0  0  0  0  0
  192.3710  175.6810  147.5130 S   0  0  0  0  0  0  0  0  0  0  0  0
  190.9450  174.2520  145.5500 N   0  0  0  0  0  2  0  0  0  0  0  0
  192.7900  175.6150  144.9280 N   0  0  0  0  0  0  0  0  0  0  0  0
  192.0130  175.1530  145.8440 C   0  0  0  0  0  0  0  0  0  0  0  0
  194.7290  177.1230  144.5450 C   0  0  0  0  0  1  0  0  0  0  0  0
  193.7710  176.4730  145.4190 N   0  0  0  0  0  0  0  0  0  0  0  0
  192.2560  171.3080  136.5200 C   0  0  1  0  0  3  0  0  0  0  0  0
  190.9830  170.4870  136.3950 C   0  0  1  0  0  3  0  0  0  0  0  0
  192.7200  169.0120  135.4290 C   0  0  0  0  0  1  0  0  0  0  0  0
  192.2950  169.7770  136.6740 C   0  0  1  0  0  3  0  0  0  0  0  0
  194.0540  171.7750  134.9660 O   0  0  0  0  0  0  0  0  0  0  0  0
  193.5430  173.0220  135.3680 C   0  0  1  0  0  3  0  0  0  0  0  0
  192.1630  173.2490  134.7860 C   0  0  1  0  0  3  0  0  0  0  0  0
  192.6600  171.8480  135.1430 C   0  0  2  0  0  0  0  0  0  0  0  0
  191.2400  173.9040  135.8290 C   0  0  2  0  0  3  0  0  0  0  0  0
  188.9170  174.8030  135.9370 O   0  0  0  0  0  1  0  0  0  0  0  0
  189.8050  173.8810  135.4000 C   0  0  0  0  0  0  0  0  0  0  0  0
  189.4050  173.0680  134.5220 O   0  0  0  0  0  0  0  0  0  0  0  0
  191.6690  175.3240  136.2230 C   0  0  1  0  0  3  0  0  0  0  0  0
  192.7800  175.2870  137.0680 O   0  0  0  0  0  1  0  0  0  0  0  0
  193.2240  176.3580  134.5490 O   0  0  0  0  0  1  0  0  0  0  0  0
  191.9360  176.2170  135.0520 C   0  0  0  0  0  0  0  0  0  0  0  0
  190.9820  176.8380  134.5130 O   0  0  0  0  0  0  0  0  0  0  0  0
  193.3900  170.9970  141.9410 C   0  0  0  0  0  2  0  0  0  0  0  0
  193.8880  169.6920  141.9140 O   0  0  0  0  0  1  0  0  0  0  0  0
  188.8450  176.4820  144.6780 C   0  0  0  0  0  2  0  0  0  0  0  0
  187.7490  176.1220  145.6780 C   0  0  1  0  0  3  0  0  0  0  0  0
  188.3520  175.9550  147.0620 C   0  0  0  0  0  1  0  0  0  0  0  0
  186.6720  178.2340  144.7970 C   0  0  0  0  0  3  0  0  0  0  0  0
  185.6450  180.2060  143.9420 F   0  0  0  0  0  0  0  0  0  0  0  0
  184.5610  177.9480  146.6090 C   0  0  0  0  0  3  0  0  0  0  0  0
  184.5750  179.0230  145.7150 C   0  0  0  0  0  3  0  0  0  0  0  0
  186.6620  177.1530  145.6940 C   0  0  0  0  0  0  0  0  0  0  0  0
  185.6320  179.1670  144.8090 C   0  0  0  0  0  0  0  0  0  0  0  0
  185.6020  177.0160  146.5980 C   0  0  0  0  0  3  0  0  0  0  0  0
  1  8  1  0  0  0  0
  1 20  1  1  0  0  0
  3 12  1  0  0  0  0
  4  2  2  0  0  0  0
  4  3  1  0  0  0  0
  5 12  1  0  0  0  0
  5 19  1  0  0  0  0
  6 21  1  0  0  0  0
  7 17  2  0  0  0  0
  8 19  1  0  0  0  0
  9  7  1  0  0  0  0
  9 16  1  0  0  0  0
 10  4  1  0  0  0  0
 11  8  2  0  0  0  0
 12 48  1  1  0  0  0
 13 14  1  0  0  0  0
 14 46  1  6  0  0  0
 14  1  1  0  0  0  0
 15 16  2  0  0  0  0
 16 10  1  0  0  0  0
 17 13  1  0  0  0  0
 18  6  1  1  0  0  0
 18  7  1  0  0  0  0
 19 24  1  1  0  0  0
 21 17  1  0  0  0  0
 22 23  1  0  0  0  0
 24 26  1  0  0  0  0
 25 28  1  0  0  0  0
 25 26  2  0  0  0  0
 26 23  1  0  0  0  0
 27 28  1  0  0  0  0
 28 22  1  0  0  0  0
 29 36  1  6  0  0  0
 29 32  1  0  0  0  0
 30 29  1  0  0  0  0
 30 32  1  0  0  0  0
 30 18  1  1  0  0  0
 32 31  1  6  0  0  0
 34 33  1  6  0  0  0
 35 36  1  0  0  0  0
 35 34  1  0  0  0  0
 35 37  1  1  0  0  0
 36 33  1  6  0  0  0
 36 34  1  0  0  0  0
 37 39  1  6  0  0  0
 37 41  1  0  0  0  0
 39 38  1  0  0  0  0
 40 39  2  0  0  0  0
 41 42  1  6  0  0  0
 43 44  1  0  0  0  0
 44 41  1  0  0  0  0
 45 44  2  0  0  0  0
 47 46  1  0  0  0  0
 48 49  1  0  0  0  0
 49 55  1  0  0  0  0
 49 50  1  1  0  0  0
 51 56  2  0  0  0  0
 51 55  1  0  0  0  0
 52 56  1  0  0  0  0
 54 53  2  0  0  0  0
 55 57  2  0  0  0  0
 56 54  1  0  0  0  0
 57 53  1  0  0  0  0
M  END
>  <MODEL>
2

>  <REMARK>
 VINA RESULT:      -6.2      3.439      9.535
  Name = 
  11 active torsions:
  status: ('A' for Active; 'I' for Inactive)
    1  A    between atoms: N_10  and  C_54
    2  A    between atoms: C_11  and  C_48
    3  A    between atoms: C_14  and  C_46
    4  A    between atoms: C_22  and  C_38
    5  A    between atoms: C_24  and  C_33
    6  A    between atoms: C_24  and  C_48
    7  A    between atoms: C_25  and  C_30
    8  A    between atoms: C_25  and  C_40
    9  A    between atoms: C_28  and  C_52
   10  A    between atoms: C_34  and  C_48
   11  A    between atoms: C_36  and  C_40
                            x       y       z     vdW  Elec       q    Type
                         _______ _______ _______ _____ _____    ______ ____

>  <TORSDO>
F 11

$$$$
=
 OpenBabel11062423063D

 57 63  0  0  1  0  0  0  0  0999 V2000
  191.6890  171.6430  143.3470 C   0  0  1  0  0  3  0  0  0  0  0  0
  187.2780  173.9570  141.2820 O   0  0  0  0  0  0  0  0  0  0  0  0
  188.5450  175.8020  142.0770 C   0  0  0  0  0  2  0  0  0  0  0  0
  188.3420  174.6240  141.1930 C   0  0  0  0  0  0  0  0  0  0  0  0
  190.5270  175.0890  143.2370 O   0  0  0  0  0  0  0  0  0  0  0  0
  190.2200  169.0010  138.3340 C   0  0  0  0  0  2  0  0  0  0  0  0
  190.7210  171.3400  138.6830 C   0  0  0  0  0  0  0  0  0  0  0  0
  191.8680  173.1330  143.4340 C   0  0  0  0  0  0  0  0  0  0  0  0
  190.4670  172.8070  138.5270 C   0  0  0  0  0  2  0  0  0  0  0  0
  189.3810  174.2360  140.2890 N   0  0  0  0  0  2  0  0  0  0  0  0
  192.9290  173.6540  143.1220 O   0  0  0  0  0  0  0  0  0  0  0  0
  189.1630  175.3820  143.4020 C   0  0  1  0  0  3  0  0  0  0  0  0
  191.5210  171.5710  140.9160 O   0  0  0  0  0  0  0  0  0  0  0  0
  192.1820  171.0060  142.0400 C   0  0  1  0  0  3  0  0  0  0  0  0
  188.1340  172.7120  139.0180 O   0  0  0  0  0  0  0  0  0  0  0  0
  189.2540  173.2260  139.2850 C   0  0  0  0  0  0  0  0  0  0  0  0
  191.2110  170.8040  139.7900 C   0  0  0  0  0  0  0  0  0  0  0  0
  190.3060  170.3520  137.6360 C   0  0  1  0  0  3  0  0  0  0  0  0
  190.7750  173.9640  144.0340 C   0  0  1  0  0  3  0  0  0  0  0  0
  192.2790  171.0230  144.4500 O   0  0  0  0  0  1  0  0  0  0  0  0
  191.3700  169.0240  139.7490 S   0  0  0  0  0  0  0  0  0  0  0  0
  194.1140  176.7280  146.5270 C   0  0  0  0  0  2  0  0  0  0  0  0
  192.6720  175.8600  147.2430 S   0  0  0  0  0  0  0  0  0  0  0  0
  191.1710  174.3850  145.3720 N   0  0  0  0  0  2  0  0  0  0  0  0
  193.1110  175.5690  144.6770 N   0  0  0  0  0  0  0  0  0  0  0  0
  192.2950  175.2310  145.6130 C   0  0  0  0  0  0  0  0  0  0  0  0
  195.1520  176.9090  144.2090 C   0  0  0  0  0  1  0  0  0  0  0  0
  194.1430  176.3930  145.1160 N   0  0  0  0  0  0  0  0  0  0  0  0
  192.6030  169.7210  136.6950 C   0  0  1  0  0  3  0  0  0  0  0  0
  191.2070  170.2350  136.3850 C   0  0  1  0  0  3  0  0  0  0  0  0
  191.6810  168.6870  134.5130 C   0  0  0  0  0  1  0  0  0  0  0  0
  191.5630  168.8040  136.0260 C   0  0  1  0  0  3  0  0  0  0  0  0
  194.3210  169.4030  135.0180 O   0  0  0  0  0  0  0  0  0  0  0  0
  194.9690  169.9130  136.1570 C   0  0  1  0  0  3  0  0  0  0  0  0
  194.5980  171.3650  136.3800 C   0  0  1  0  0  3  0  0  0  0  0  0
  193.6160  170.3770  135.7490 C   0  0  2  0  0  0  0  0  0  0  0  0
  194.3800  171.6410  137.8780 C   0  0  2  0  0  3  0  0  0  0  0  0
  193.8000  173.5100  139.4230 O   0  0  0  0  0  1  0  0  0  0  0  0
  193.8650  173.0260  138.1240 C   0  0  0  0  0  0  0  0  0  0  0  0
  193.5360  173.7730  137.1620 O   0  0  0  0  0  0  0  0  0  0  0  0
  195.6190  171.3590  138.7410 C   0  0  1  0  0  3  0  0  0  0  0  0
  195.7280  169.9940  139.0160 O   0  0  0  0  0  1  0  0  0  0  0  0
  197.0960  173.2380  137.9830 O   0  0  0  0  0  1  0  0  0  0  0  0
  196.8930  171.8730  138.1470 C   0  0  0  0  0  0  0  0  0  0  0  0
  197.7920  171.0610  137.8040 O   0  0  0  0  0  0  0  0  0  0  0  0
  193.6940  171.0930  141.8520 C   0  0  0  0  0  2  0  0  0  0  0  0
  194.2640  169.8240  141.9670 O   0  0  0  0  0  1  0  0  0  0  0  0
  188.9510  176.4770  144.4520 C   0  0  0  0  0  2  0  0  0  0  0  0
  187.8680  176.1250  145.4700 C   0  0  1  0  0  3  0  0  0  0  0  0
  188.4840  176.0000  146.8520 C   0  0  0  0  0  1  0  0  0  0  0  0
  186.7940  178.2420  144.5990 C   0  0  0  0  0  3  0  0  0  0  0  0
  185.7690  180.2200  143.7540 F   0  0  0  0  0  0  0  0  0  0  0  0
  184.6220  177.8830  146.3250 C   0  0  0  0  0  3  0  0  0  0  0  0
  184.6530  178.9800  145.4580 C   0  0  0  0  0  3  0  0  0  0  0  0
  186.7660  177.1400  145.4690 C   0  0  0  0  0  0  0  0  0  0  0  0
  185.7400  179.1600  144.5960 C   0  0  0  0  0  0  0  0  0  0  0  0
  185.6760  176.9670  146.3300 C   0  0  0  0  0  3  0  0  0  0  0  0
  1  8  1  0  0  0  0
  1 20  1  1  0  0  0
  3 12  1  0  0  0  0
  4  2  2  0  0  0  0
  4  3  1  0  0  0  0
  5 12  1  0  0  0  0
  5 19  1  0  0  0  0
  6 21  1  0  0  0  0
  7 17  2  0  0  0  0
  8 19  1  0  0  0  0
  9  7  1  0  0  0  0
  9 16  1  0  0  0  0
 10  4  1  0  0  0  0
 11  8  2  0  0  0  0
 12 48  1  1  0  0  0
 13 14  1  0  0  0  0
 14 46  1  6  0  0  0
 14  1  1  0  0  0  0
 15 16  2  0  0  0  0
 16 10  1  0  0  0  0
 17 13  1  0  0  0  0
 18  6  1  1  0  0  0
 18  7  1  0  0  0  0
 19 24  1  1  0  0  0
 21 17  1  0  0  0  0
 22 23  1  0  0  0  0
 24 26  1  0  0  0  0
 25 28  1  0  0  0  0
 25 26  2  0  0  0  0
 26 23  1  0  0  0  0
 27 28  1  0  0  0  0
 28 22  1  0  0  0  0
 29 36  1  6  0  0  0
 30 29  1  0  0  0  0
 30 18  1  1  0  0  0
 32 31  1  6  0  0  0
 32 30  1  0  0  0  0
 32 29  1  0  0  0  0
 34 33  1  6  0  0  0
 34 35  1  0  0  0  0
 35 37  1  1  0  0  0
 36 33  1  6  0  0  0
 36 34  1  0  0  0  0
 36 35  1  0  0  0  0
 37 39  1  6  0  0  0
 37 41  1  0  0  0  0
 39 38  1  0  0  0  0
 40 39  2  0  0  0  0
 41 42  1  6  0  0  0
 43 44  1  0  0  0  0
 44 41  1  0  0  0  0
 45 44  2  0  0  0  0
 46 47  1  0  0  0  0
 48 49  1  0  0  0  0
 49 50  1  1  0  0  0
 51 55  1  0  0  0  0
 52 56  1  0  0  0  0
 53 57  1  0  0  0  0
 54 53  2  0  0  0  0
 55 49  1  0  0  0  0
 55 57  2  0  0  0  0
 56 51  2  0  0  0  0
 56 54  1  0  0  0  0
M  END
>  <MODEL>
3

>  <REMARK>
 VINA RESULT:      -6.1      3.330      9.986
  Name = 
  11 active torsions:
  status: ('A' for Active; 'I' for Inactive)
    1  A    between atoms: N_10  and  C_54
    2  A    between atoms: C_11  and  C_48
    3  A    between atoms: C_14  and  C_46
    4  A    between atoms: C_22  and  C_38
    5  A    between atoms: C_24  and  C_33
    6  A    between atoms: C_24  and  C_48
    7  A    between atoms: C_25  and  C_30
    8  A    between atoms: C_25  and  C_40
    9  A    between atoms: C_28  and  C_52
   10  A    between atoms: C_34  and  C_48
   11  A    between atoms: C_36  and  C_40
                            x       y       z     vdW  Elec       q    Type
                         _______ _______ _______ _____ _____    ______ ____

>  <TORSDO>
F 11

$$$$
=
 OpenBabel11062423063D

 57 63  0  0  1  0  0  0  0  0999 V2000
  192.0570  172.2740  143.3030 C   0  0  1  0  0  3  0  0  0  0  0  0
  195.8900  175.5710  145.1770 O   0  0  0  0  0  0  0  0  0  0  0  0
  196.2130  175.6330  142.8250 C   0  0  0  0  0  2  0  0  0  0  0  0
  195.4080  175.8690  144.0530 C   0  0  0  0  0  0  0  0  0  0  0  0
  194.7520  174.1030  141.6830 O   0  0  0  0  0  0  0  0  0  0  0  0
  189.9080  175.5490  147.6530 C   0  0  0  0  0  2  0  0  0  0  0  0
  190.9150  176.3050  145.5890 C   0  0  0  0  0  0  0  0  0  0  0  0
  192.7540  172.8860  142.1200 C   0  0  0  0  0  0  0  0  0  0  0  0
  191.8390  177.1580  144.7780 C   0  0  0  0  0  2  0  0  0  0  0  0
  194.0800  176.3860  143.9340 N   0  0  0  0  0  2  0  0  0  0  0  0
  192.1150  173.3120  141.1700 O   0  0  0  0  0  0  0  0  0  0  0  0
  196.0050  174.2180  142.3070 C   0  0  1  0  0  3  0  0  0  0  0  0
  191.2520  174.3850  144.2170 O   0  0  0  0  0  0  0  0  0  0  0  0
  190.8600  173.0740  143.8350 C   0  0  1  0  0  3  0  0  0  0  0  0
  193.7390  176.8900  146.1970 O   0  0  0  0  0  0  0  0  0  0  0  0
  193.2640  176.8000  145.0320 C   0  0  0  0  0  0  0  0  0  0  0  0
  190.6610  175.0380  145.3030 C   0  0  0  0  0  0  0  0  0  0  0  0
  190.3130  176.7920  146.8710 C   0  0  1  0  0  3  0  0  0  0  0  0
  194.2510  172.8500  142.0590 C   0  0  1  0  0  3  0  0  0  0  0  0
  191.6800  170.9610  143.0120 O   0  0  0  0  0  1  0  0  0  0  0  0
  189.5670  174.2180  146.4540 S   0  0  0  0  0  0  0  0  0  0  0  0
  195.9950  168.1800  141.6690 C   0  0  0  0  0  2  0  0  0  0  0  0
  195.5140  169.2790  140.2880 S   0  0  0  0  0  0  0  0  0  0  0  0
  194.6690  171.8410  141.0940 N   0  0  0  0  0  2  0  0  0  0  0  0
  195.3750  170.2520  142.7160 N   0  0  0  0  0  0  0  0  0  0  0  0
  195.1520  170.5550  141.4850 C   0  0  0  0  0  0  0  0  0  0  0  0
  196.1320  168.4080  144.2010 C   0  0  0  0  0  1  0  0  0  0  0  0
  195.8470  168.9540  142.8870 N   0  0  0  0  0  0  0  0  0  0  0  0
  187.9250  177.1520  146.0210 C   0  0  1  0  0  3  0  0  0  0  0  0
  189.1080  177.7540  146.7610 C   0  0  1  0  0  3  0  0  0  0  0  0
  187.1540  178.5240  148.0710 C   0  0  0  0  0  1  0  0  0  0  0  0
  187.8950  177.2990  147.5520 C   0  0  1  0  0  3  0  0  0  0  0  0
  185.8810  178.4110  145.7040 O   0  0  0  0  0  0  0  0  0  0  0  0
  186.0350  177.6120  144.5570 C   0  0  1  0  0  3  0  0  0  0  0  0
  187.1910  178.1060  143.7110 C   0  0  1  0  0  3  0  0  0  0  0  0
  187.1970  178.2480  145.2340 C   0  0  2  0  0  0  0  0  0  0  0  0
  188.0000  176.9190  143.1590 C   0  0  2  0  0  3  0  0  0  0  0  0
  189.7750  178.6430  142.8490 O   0  0  0  0  0  1  0  0  0  0  0  0
  189.3260  177.3510  142.6120 C   0  0  0  0  0  0  0  0  0  0  0  0
  190.0590  176.5420  141.9800 O   0  0  0  0  0  0  0  0  0  0  0  0
  187.2320  176.0790  142.1300 C   0  0  1  0  0  3  0  0  0  0  0  0
  186.2870  175.2680  142.7600 O   0  0  0  0  0  1  0  0  0  0  0  0
  185.4270  177.6160  141.3150 O   0  0  0  0  0  1  0  0  0  0  0  0
  186.5840  176.8930  141.0540 C   0  0  0  0  0  0  0  0  0  0  0  0
  187.0980  176.9290  139.9050 O   0  0  0  0  0  0  0  0  0  0  0  0
  189.6910  173.1460  142.8570 C   0  0  0  0  0  2  0  0  0  0  0  0
  188.5990  172.4350  143.3620 O   0  0  0  0  0  1  0  0  0  0  0  0
  197.1410  173.8340  141.3540 C   0  0  0  0  0  2  0  0  0  0  0  0
  197.0010  174.4720  139.9730 C   0  0  1  0  0  3  0  0  0  0  0  0
  197.9110  175.6830  139.8740 C   0  0  0  0  0  1  0  0  0  0  0  0
  197.3370  173.8840  137.5360 C   0  0  0  0  0  3  0  0  0  0  0  0
  197.6840  173.3420  135.2420 F   0  0  0  0  0  0  0  0  0  0  0  0
  197.9060  171.2340  138.2250 C   0  0  0  0  0  3  0  0  0  0  0  0
  197.9370  171.6310  136.8840 C   0  0  0  0  0  3  0  0  0  0  0  0
  197.3040  173.4890  138.8840 C   0  0  0  0  0  0  0  0  0  0  0  0
  197.6520  172.9570  136.5400 C   0  0  0  0  0  0  0  0  0  0  0  0
  197.5890  172.1610  139.2210 C   0  0  0  0  0  3  0  0  0  0  0  0
  1 20  1  6  0  0  0
  1 14  1  0  0  0  0
  3  4  1  0  0  0  0
  4  2  2  0  0  0  0
  5 19  1  0  0  0  0
  5 12  1  0  0  0  0
  7 18  1  0  0  0  0
  8  1  1  0  0  0  0
  9 16  1  0  0  0  0
  9  7  1  0  0  0  0
 10  4  1  0  0  0  0
 10 16  1  0  0  0  0
 11  8  2  0  0  0  0
 12 48  1  6  0  0  0
 12  3  1  0  0  0  0
 13 17  1  0  0  0  0
 14 46  1  6  0  0  0
 14 13  1  0  0  0  0
 16 15  2  0  0  0  0
 17  7  2  0  0  0  0
 17 21  1  0  0  0  0
 18  6  1  1  0  0  0
 19 24  1  6  0  0  0
 19  8  1  0  0  0  0
 21  6  1  0  0  0  0
 22 28  1  0  0  0  0
 23 26  1  0  0  0  0
 23 22  1  0  0  0  0
 24 26  1  0  0  0  0
 25 28  1  0  0  0  0
 26 25  2  0  0  0  0
 28 27  1  0  0  0  0
 29 36  1  6  0  0  0
 29 30  1  0  0  0  0
 29 32  1  0  0  0  0
 30 18  1  1  0  0  0
 30 32  1  0  0  0  0
 32 31  1  6  0  0  0
 34 36  1  0  0  0  0
 34 33  1  6  0  0  0
 35 37  1  1  0  0  0
 35 34  1  0  0  0  0
 35 36  1  0  0  0  0
 36 33  1  1  0  0  0
 37 39  1  6  0  0  0
 39 38  1  0  0  0  0
 40 39  2  0  0  0  0
 41 42  1  1  0  0  0
 41 37  1  0  0  0  0
 44 43  1  0  0  0  0
 44 41  1  0  0  0  0
 45 44  2  0  0  0  0
 46 47  1  0  0  0  0
 49 50  1  1  0  0  0
 49 48  1  0  0  0  0
 51 55  1  0  0  0  0
 52 56  1  0  0  0  0
 53 57  1  0  0  0  0
 54 53  2  0  0  0  0
 55 57  2  0  0  0  0
 55 49  1  0  0  0  0
 56 54  1  0  0  0  0
 56 51  2  0  0  0  0
M  END
>  <MODEL>
4

>  <REMARK>
 VINA RESULT:      -5.9      3.197      4.975
  Name = 
  11 active torsions:
  status: ('A' for Active; 'I' for Inactive)
    1  A    between atoms: N_10  and  C_54
    2  A    between atoms: C_11  and  C_48
    3  A    between atoms: C_14  and  C_46
    4  A    between atoms: C_22  and  C_38
    5  A    between atoms: C_24  and  C_33
    6  A    between atoms: C_24  and  C_48
    7  A    between atoms: C_25  and  C_30
    8  A    between atoms: C_25  and  C_40
    9  A    between atoms: C_28  and  C_52
   10  A    between atoms: C_34  and  C_48
   11  A    between atoms: C_36  and  C_40
                            x       y       z     vdW  Elec       q    Type
                         _______ _______ _______ _____ _____    ______ ____

>  <TORSDO>
F 11

$$$$
=
 OpenBabel11062423063D

 57 63  0  0  1  0  0  0  0  0999 V2000
  192.8900  172.5560  140.2490 C   0  0  1  0  0  3  0  0  0  0  0  0
  193.0280  173.8830  145.4740 O   0  0  0  0  0  0  0  0  0  0  0  0
  194.8920  175.0390  144.5640 C   0  0  0  0  0  2  0  0  0  0  0  0
  193.4350  174.7630  144.6710 C   0  0  0  0  0  0  0  0  0  0  0  0
  195.2250  174.5090  142.2430 O   0  0  0  0  0  0  0  0  0  0  0  0
  187.4590  173.5650  142.1890 C   0  0  0  0  0  2  0  0  0  0  0  0
  189.3500  175.0710  142.2310 C   0  0  0  0  0  0  0  0  0  0  0  0
  193.9970  173.5550  140.4410 C   0  0  0  0  0  0  0  0  0  0  0  0
  190.2660  176.0590  142.8820 C   0  0  0  0  0  2  0  0  0  0  0  0
  192.5220  175.4680  143.8260 N   0  0  0  0  0  2  0  0  0  0  0  0
  194.1430  174.4840  139.6600 O   0  0  0  0  0  0  0  0  0  0  0  0
  195.5440  174.1100  143.5510 C   0  0  1  0  0  3  0  0  0  0  0  0
  191.1060  174.0440  140.9890 O   0  0  0  0  0  0  0  0  0  0  0  0
  191.5130  173.1650  139.9490 C   0  0  1  0  0  3  0  0  0  0  0  0
  190.5440  174.8440  144.9160 O   0  0  0  0  0  0  0  0  0  0  0  0
  191.0980  175.4090  143.9340 C   0  0  0  0  0  0  0  0  0  0  0  0
  189.7640  174.1620  141.3620 C   0  0  0  0  0  0  0  0  0  0  0  0
  187.9090  174.9530  142.6260 C   0  0  1  0  0  3  0  0  0  0  0  0
  195.0040  173.3250  141.5260 C   0  0  1  0  0  3  0  0  0  0  0  0
  193.2430  171.6290  139.2660 O   0  0  0  0  0  1  0  0  0  0  0  0
  188.4870  173.0610  140.7690 S   0  0  0  0  0  0  0  0  0  0  0  0
  197.2670  169.3140  139.5760 C   0  0  0  0  0  2  0  0  0  0  0  0
  197.9400  171.0140  139.6470 S   0  0  0  0  0  0  0  0  0  0  0  0
  196.2550  172.8680  140.9320 N   0  0  0  0  0  2  0  0  0  0  0  0
  195.6020  170.5890  140.7510 N   0  0  0  0  0  0  0  0  0  0  0  0
  196.4600  171.5190  140.5110 C   0  0  0  0  0  0  0  0  0  0  0  0
  195.1490  168.1700  140.4050 C   0  0  0  0  0  1  0  0  0  0  0  0
  195.9900  169.3440  140.2640 N   0  0  0  0  0  0  0  0  0  0  0  0
  187.1100  177.3840  142.7020 C   0  0  1  0  0  3  0  0  0  0  0  0
  186.9380  176.0160  142.0640 C   0  0  1  0  0  3  0  0  0  0  0  0
  186.7110  177.5760  140.1560 C   0  0  0  0  0  1  0  0  0  0  0  0
  187.6300  177.1150  141.2790 C   0  0  1  0  0  3  0  0  0  0  0  0
  185.8230  179.3860  142.2540 O   0  0  0  0  0  0  0  0  0  0  0  0
  185.9260  179.2870  143.6530 C   0  0  1  0  0  3  0  0  0  0  0  0
  185.0940  178.1320  144.1720 C   0  0  1  0  0  3  0  0  0  0  0  0
  185.7510  178.0870  142.7910 C   0  0  2  0  0  0  0  0  0  0  0  0
  185.8490  177.3810  145.2820 C   0  0  2  0  0  3  0  0  0  0  0  0
  184.1270  177.9980  146.9770 O   0  0  0  0  0  1  0  0  0  0  0  0
  184.9520  177.0260  146.4290 C   0  0  0  0  0  0  0  0  0  0  0  0
  184.9030  175.8440  146.8690 O   0  0  0  0  0  0  0  0  0  0  0  0
  187.1020  178.1160  145.7780 C   0  0  1  0  0  3  0  0  0  0  0  0
  186.7590  179.1240  146.6810 O   0  0  0  0  0  1  0  0  0  0  0  0
  189.1010  177.7130  147.2390 O   0  0  0  0  0  1  0  0  0  0  0  0
  188.1320  177.2100  146.3790 C   0  0  0  0  0  0  0  0  0  0  0  0
  188.1120  175.9800  146.1090 O   0  0  0  0  0  0  0  0  0  0  0  0
  191.4440  173.8850  138.6050 C   0  0  0  0  0  2  0  0  0  0  0  0
  190.4510  173.3130  137.8060 O   0  0  0  0  0  1  0  0  0  0  0  0
  197.0600  174.0740  143.7680 C   0  0  0  0  0  2  0  0  0  0  0  0
  197.4680  173.2410  144.9810 C   0  0  1  0  0  3  0  0  0  0  0  0
  197.0070  173.9270  146.2540 C   0  0  0  0  0  1  0  0  0  0  0  0
  197.4500  170.9100  143.9990 C   0  0  0  0  0  3  0  0  0  0  0  0
  197.4560  168.7060  143.0940 F   0  0  0  0  0  0  0  0  0  0  0  0
  195.3720  170.1720  145.7200 C   0  0  0  0  0  3  0  0  0  0  0  0
  195.9020  169.2390  144.8220 C   0  0  0  0  0  3  0  0  0  0  0  0
  196.9190  171.8500  144.8990 C   0  0  0  0  0  0  0  0  0  0  0  0
  196.9410  169.6100  143.9610 C   0  0  0  0  0  0  0  0  0  0  0  0
  195.8790  171.4730  145.7560 C   0  0  0  0  0  3  0  0  0  0  0  0
  1 20  1  6  0  0  0
  1  8  1  0  0  0  0
  3  4  1  0  0  0  0
  4  2  2  0  0  0  0
  5 12  1  0  0  0  0
  7 18  1  0  0  0  0
  7  9  1  0  0  0  0
  8 19  1  0  0  0  0
  9 16  1  0  0  0  0
 10 16  1  0  0  0  0
 10  4  1  0  0  0  0
 11  8  2  0  0  0  0
 12 48  1  6  0  0  0
 12  3  1  0  0  0  0
 13 17  1  0  0  0  0
 14 46  1  6  0  0  0
 14  1  1  0  0  0  0
 14 13  1  0  0  0  0
 16 15  2  0  0  0  0
 17  7  2  0  0  0  0
 18  6  1  6  0  0  0
 19 24  1  6  0  0  0
 19  5  1  0  0  0  0
 21 17  1  0  0  0  0
 21  6  1  0  0  0  0
 22 23  1  0  0  0  0
 22 28  1  0  0  0  0
 23 26  1  0  0  0  0
 26 25  2  0  0  0  0
 26 24  1  0  0  0  0
 28 27  1  0  0  0  0
 28 25  1  0  0  0  0
 29 36  1  6  0  0  0
 30 18  1  1  0  0  0
 30 29  1  0  0  0  0
 32 31  1  6  0  0  0
 32 30  1  0  0  0  0
 32 29  1  0  0  0  0
 34 33  1  6  0  0  0
 34 35  1  0  0  0  0
 35 37  1  1  0  0  0
 36 33  1  6  0  0  0
 36 34  1  0  0  0  0
 36 35  1  0  0  0  0
 37 41  1  0  0  0  0
 37 39  1  1  0  0  0
 39 40  2  0  0  0  0
 39 38  1  0  0  0  0
 41 44  1  0  0  0  0
 41 42  1  1  0  0  0
 44 43  1  0  0  0  0
 45 44  2  0  0  0  0
 47 46  1  0  0  0  0
 48 49  1  0  0  0  0
 49 50  1  1  0  0  0
 51 55  1  0  0  0  0
 52 56  1  0  0  0  0
 53 57  1  0  0  0  0
 54 53  2  0  0  0  0
 55 49  1  0  0  0  0
 55 57  2  0  0  0  0
 56 51  2  0  0  0  0
 56 54  1  0  0  0  0
M  END
>  <MODEL>
5

>  <REMARK>
 VINA RESULT:      -5.8      2.896      6.128
  Name = 
  11 active torsions:
  status: ('A' for Active; 'I' for Inactive)
    1  A    between atoms: N_10  and  C_54
    2  A    between atoms: C_11  and  C_48
    3  A    between atoms: C_14  and  C_46
    4  A    between atoms: C_22  and  C_38
    5  A    between atoms: C_24  and  C_33
    6  A    between atoms: C_24  and  C_48
    7  A    between atoms: C_25  and  C_30
    8  A    between atoms: C_25  and  C_40
    9  A    between atoms: C_28  and  C_52
   10  A    between atoms: C_34  and  C_48
   11  A    between atoms: C_36  and  C_40
                            x       y       z     vdW  Elec       q    Type
                         _______ _______ _______ _____ _____    ______ ____

>  <TORSDO>
F 11

$$$$
=
 OpenBabel11062423063D

 57 63  0  0  1  0  0  0  0  0999 V2000
  192.9850  175.4300  143.6220 C   0  0  1  0  0  3  0  0  0  0  0  0
  189.4370  171.9160  141.5870 O   0  0  0  0  0  0  0  0  0  0  0  0
  188.3970  174.0190  141.2230 C   0  0  0  0  0  2  0  0  0  0  0  0
  189.4930  173.0360  141.0150 C   0  0  0  0  0  0  0  0  0  0  0  0
  189.6620  175.8190  142.1930 O   0  0  0  0  0  0  0  0  0  0  0  0
  195.8110  171.2230  140.6920 C   0  0  0  0  0  2  0  0  0  0  0  0
  194.1080  172.7210  139.8560 C   0  0  0  0  0  0  0  0  0  0  0  0
  191.8660  176.2160  142.9960 C   0  0  0  0  0  0  0  0  0  0  0  0
  192.8520  173.0450  139.1080 C   0  0  0  0  0  2  0  0  0  0  0  0
  190.6170  173.3950  140.2070 N   0  0  0  0  0  2  0  0  0  0  0  0
  192.1030  177.1880  142.2950 O   0  0  0  0  0  0  0  0  0  0  0  0
  188.6620  174.8690  142.4560 C   0  0  1  0  0  3  0  0  0  0  0  0
  193.6790  174.3320  141.5590 O   0  0  0  0  0  0  0  0  0  0  0  0
  194.1410  175.0820  142.6740 C   0  0  1  0  0  3  0  0  0  0  0  0
  191.5540  171.2570  140.0090 O   0  0  0  0  0  0  0  0  0  0  0  0
  191.6540  172.4980  139.8060 C   0  0  0  0  0  0  0  0  0  0  0  0
  194.4630  173.3330  140.9740 C   0  0  0  0  0  0  0  0  0  0  0  0
  194.9890  171.5760  139.4600 C   0  0  1  0  0  3  0  0  0  0  0  0
  190.4510  175.8740  143.3490 C   0  0  1  0  0  3  0  0  0  0  0  0
  193.4600  176.0900  144.7570 O   0  0  0  0  0  1  0  0  0  0  0  0
  195.9770  172.7280  141.7080 S   0  0  0  0  0  0  0  0  0  0  0  0
  190.3870  177.2840  148.1470 C   0  0  0  0  0  2  0  0  0  0  0  0
  189.6530  178.1910  146.7380 S   0  0  0  0  0  0  0  0  0  0  0  0
  189.9240  176.8850  144.2590 N   0  0  0  0  0  2  0  0  0  0  0  0
  190.7730  175.8770  146.2370 N   0  0  0  0  0  0  0  0  0  0  0  0
  190.1770  176.8630  145.6640 C   0  0  0  0  0  0  0  0  0  0  0  0
  191.5890  175.0590  148.4380 C   0  0  0  0  0  1  0  0  0  0  0  0
  190.9170  176.0440  147.6120 N   0  0  0  0  0  0  0  0  0  0  0  0
  195.3600  172.7520  137.2160 C   0  0  1  0  0  3  0  0  0  0  0  0
  195.9290  171.7980  138.2530 C   0  0  1  0  0  3  0  0  0  0  0  0
  197.8860  173.1560  137.5820 C   0  0  0  0  0  1  0  0  0  0  0  0
  196.4810  173.2090  138.1660 C   0  0  1  0  0  3  0  0  0  0  0  0
  196.0920  173.4420  135.0130 O   0  0  0  0  0  0  0  0  0  0  0  0
  194.8220  172.8610  134.8440 C   0  0  1  0  0  3  0  0  0  0  0  0
  194.8840  171.3640  135.0640 C   0  0  1  0  0  3  0  0  0  0  0  0
  195.8110  172.3210  135.8150 C   0  0  2  0  0  0  0  0  0  0  0  0
  193.6540  170.8850  135.8560 C   0  0  2  0  0  3  0  0  0  0  0  0
  194.5300  168.5800  135.4830 O   0  0  0  0  0  0  0  0  0  0  0  0
  193.7730  169.4470  136.2590 C   0  0  0  0  0  0  0  0  0  0  0  0
  193.2340  169.0270  137.3200 O   0  0  0  0  0  1  0  0  0  0  0  0
  192.3230  171.1410  135.1360 C   0  0  1  0  0  3  0  0  0  0  0  0
  191.8660  169.9770  134.5140 O   0  0  0  0  0  1  0  0  0  0  0  0
  190.4480  170.8680  136.7780 O   0  0  0  0  0  1  0  0  0  0  0  0
  191.2590  171.7070  136.0240 C   0  0  0  0  0  0  0  0  0  0  0  0
  191.1060  172.9550  136.0940 O   0  0  0  0  0  0  0  0  0  0  0  0
  194.9230  176.3010  142.1930 C   0  0  0  0  0  2  0  0  0  0  0  0
  196.2120  176.2860  142.7320 O   0  0  0  0  0  1  0  0  0  0  0  0
  187.3650  175.5380  142.9230 C   0  0  0  0  0  2  0  0  0  0  0  0
  187.2890  177.0170  142.5480 C   0  0  1  0  0  3  0  0  0  0  0  0
  186.6540  177.1660  141.1780 C   0  0  0  0  0  1  0  0  0  0  0  0
  186.3900  177.3330  144.8900 C   0  0  0  0  0  3  0  0  0  0  0  0
  185.5710  177.6430  147.1060 F   0  0  0  0  0  0  0  0  0  0  0  0
  185.3000  179.8060  144.1680 C   0  0  0  0  0  3  0  0  0  0  0  0
  185.1600  179.3350  145.4770 C   0  0  0  0  0  3  0  0  0  0  0  0
  186.5320  177.8020  143.5740 C   0  0  0  0  0  0  0  0  0  0  0  0
  185.7040  178.0980  145.8380 C   0  0  0  0  0  0  0  0  0  0  0  0
  185.9830  179.0410  143.2200 C   0  0  0  0  0  3  0  0  0  0  0  0
  1 20  1  1  0  0  0
  3 12  1  0  0  0  0
  4  3  1  0  0  0  0
  4  2  2  0  0  0  0
  5 12  1  0  0  0  0
  5 19  1  0  0  0  0
  6 21  1  0  0  0  0
  7 17  2  0  0  0  0
  8 19  1  0  0  0  0
  8  1  1  0  0  0  0
  9 16  1  0  0  0  0
  9  7  1  0  0  0  0
 10  4  1  0  0  0  0
 11  8  2  0  0  0  0
 12 48  1  6  0  0  0
 13 14  1  0  0  0  0
 14 46  1  6  0  0  0
 14  1  1  0  0  0  0
 16 15  2  0  0  0  0
 16 10  1  0  0  0  0
 17 13  1  0  0  0  0
 17 21  1  0  0  0  0
 18  7  1  0  0  0  0
 18  6  1  1  0  0  0
 19 24  1  1  0  0  0
 23 22  1  0  0  0  0
 24 26  1  0  0  0  0
 25 28  1  0  0  0  0
 26 25  2  0  0  0  0
 26 23  1  0  0  0  0
 28 22  1  0  0  0  0
 28 27  1  0  0  0  0
 29 36  1  6  0  0  0
 29 32  1  0  0  0  0
 29 30  1  0  0  0  0
 30 18  1  1  0  0  0
 32 31  1  6  0  0  0
 32 30  1  0  0  0  0
 34 33  1  6  0  0  0
 34 35  1  0  0  0  0
 34 36  1  0  0  0  0
 35 36  1  0  0  0  0
 35 37  1  1  0  0  0
 36 33  1  6  0  0  0
 37 39  1  6  0  0  0
 38 39  2  0  0  0  0
 39 40  1  0  0  0  0
 41 42  1  1  0  0  0
 41 37  1  0  0  0  0
 41 44  1  0  0  0  0
 44 45  2  0  0  0  0
 44 43  1  0  0  0  0
 46 47  1  0  0  0  0
 49 50  1  6  0  0  0
 49 48  1  0  0  0  0
 49 55  1  0  0  0  0
 51 56  1  0  0  0  0
 53 54  1  0  0  0  0
 54 56  2  0  0  0  0
 55 51  2  0  0  0  0
 56 52  1  0  0  0  0
 57 55  1  0  0  0  0
 57 53  2  0  0  0  0
M  END
>  <MODEL>
6

>  <REMARK>
 VINA RESULT:      -5.8      3.371     10.136
  Name = 
  11 active torsions:
  status: ('A' for Active; 'I' for Inactive)
    1  A    between atoms: N_10  and  C_54
    2  A    between atoms: C_11  and  C_48
    3  A    between atoms: C_14  and  C_46
    4  A    between atoms: C_22  and  C_38
    5  A    between atoms: C_24  and  C_33
    6  A    between atoms: C_24  and  C_48
    7  A    between atoms: C_25  and  C_30
    8  A    between atoms: C_25  and  C_40
    9  A    between atoms: C_28  and  C_52
   10  A    between atoms: C_34  and  C_48
   11  A    between atoms: C_36  and  C_40
                            x       y       z     vdW  Elec       q    Type
                         _______ _______ _______ _____ _____    ______ ____

>  <TORSDO>
F 11

$$$$
=
 OpenBabel11062423063D

 57 63  0  0  1  0  0  0  0  0999 V2000
  194.4000  175.2750  141.1730 C   0  0  1  0  0  3  0  0  0  0  0  0
  189.8830  173.5550  138.7830 O   0  0  0  0  0  0  0  0  0  0  0  0
  191.0920  171.5500  139.1800 C   0  0  0  0  0  2  0  0  0  0  0  0
  190.3850  172.7770  139.6350 C   0  0  0  0  0  0  0  0  0  0  0  0
  193.2730  171.9890  140.0920 O   0  0  0  0  0  0  0  0  0  0  0  0
  189.8030  178.2590  143.2300 C   0  0  0  0  0  2  0  0  0  0  0  0
  190.1480  175.8660  143.2600 C   0  0  0  0  0  0  0  0  0  0  0  0
  194.4290  173.7720  141.1630 C   0  0  0  0  0  0  0  0  0  0  0  0
  189.7270  174.4450  143.0570 C   0  0  0  0  0  2  0  0  0  0  0  0
  190.3300  173.0800  141.0320 N   0  0  0  0  0  2  0  0  0  0  0  0
  194.7660  173.1480  142.1580 O   0  0  0  0  0  0  0  0  0  0  0  0
  192.5560  171.8460  138.8920 C   0  0  1  0  0  3  0  0  0  0  0  0
  192.3780  175.4600  142.5210 O   0  0  0  0  0  0  0  0  0  0  0  0
  193.7230  175.9030  142.3990 C   0  0  1  0  0  3  0  0  0  0  0  0
  188.7250  174.7830  140.9170 O   0  0  0  0  0  0  0  0  0  0  0  0
  189.5580  174.1360  141.6080 C   0  0  0  0  0  0  0  0  0  0  0  0
  191.3740  176.3000  143.0110 C   0  0  0  0  0  0  0  0  0  0  0  0
  189.1670  176.9350  143.6330 C   0  0  1  0  0  3  0  0  0  0  0  0
  194.1660  173.0470  139.8790 C   0  0  1  0  0  3  0  0  0  0  0  0
  195.6910  175.7820  141.0110 O   0  0  0  0  0  1  0  0  0  0  0  0
  191.6140  178.0510  143.2800 S   0  0  0  0  0  0  0  0  0  0  0  0
  197.7370  173.9370  136.4930 C   0  0  0  0  0  2  0  0  0  0  0  0
  197.7400  172.6090  137.7510 S   0  0  0  0  0  0  0  0  0  0  0  0
  195.4240  172.5330  139.3510 N   0  0  0  0  0  2  0  0  0  0  0  0
  195.6280  174.1540  137.6250 N   0  0  0  0  0  0  0  0  0  0  0  0
  196.1270  173.1650  138.2810 C   0  0  0  0  0  0  0  0  0  0  0  0
  196.1030  175.7550  135.7830 C   0  0  0  0  0  1  0  0  0  0  0  0
  196.4660  174.6260  136.6180 N   0  0  0  0  0  0  0  0  0  0  0  0
  187.4110  176.2860  145.3800 C   0  0  1  0  0  3  0  0  0  0  0  0
  188.7260  176.9980  145.1130 C   0  0  1  0  0  3  0  0  0  0  0  0
  189.1170  175.8510  147.2720 C   0  0  0  0  0  1  0  0  0  0  0  0
  188.7450  175.6490  145.8100 C   0  0  1  0  0  3  0  0  0  0  0  0
  185.9390  176.1110  147.2950 O   0  0  0  0  0  0  0  0  0  0  0  0
  185.1940  176.7370  146.2800 C   0  0  1  0  0  3  0  0  0  0  0  0
  185.7030  178.1420  146.0300 C   0  0  1  0  0  3  0  0  0  0  0  0
  186.6400  177.0210  146.4830 C   0  0  2  0  0  0  0  0  0  0  0  0
  185.7250  178.4460  144.5220 C   0  0  2  0  0  3  0  0  0  0  0  0
  185.5650  180.8260  145.2490 O   0  0  0  0  0  1  0  0  0  0  0  0
  185.8660  179.9130  144.2480 C   0  0  0  0  0  0  0  0  0  0  0  0
  186.3000  180.3240  143.1380 O   0  0  0  0  0  0  0  0  0  0  0  0
  184.5270  177.8630  143.7600 C   0  0  1  0  0  3  0  0  0  0  0  0
  183.4240  178.7140  143.8460 O   0  0  0  0  0  1  0  0  0  0  0  0
  183.9610  177.9480  141.3190 O   0  0  0  0  0  0  0  0  0  0  0  0
  184.8240  177.5410  142.3290 C   0  0  0  0  0  0  0  0  0  0  0  0
  185.8710  176.9050  142.0380 O   0  0  0  0  0  1  0  0  0  0  0  0
  194.4730  175.6530  143.7050 C   0  0  0  0  0  2  0  0  0  0  0  0
  194.7260  176.8650  144.3510 O   0  0  0  0  0  1  0  0  0  0  0  0
  193.1530  170.7420  138.0140 C   0  0  0  0  0  2  0  0  0  0  0  0
  193.4220  169.4490  138.7820 C   0  0  1  0  0  3  0  0  0  0  0  0
  192.7120  168.2920  138.1020 C   0  0  0  0  0  1  0  0  0  0  0  0
  195.4940  168.9680  140.1490 C   0  0  0  0  0  3  0  0  0  0  0  0
  197.4390  168.4840  141.4380 F   0  0  0  0  0  0  0  0  0  0  0  0
  197.0310  168.8160  137.8170 C   0  0  0  0  0  3  0  0  0  0  0  0
  197.6290  168.6090  139.0640 C   0  0  0  0  0  3  0  0  0  0  0  0
  194.8900  169.1770  138.8980 C   0  0  0  0  0  0  0  0  0  0  0  0
  196.8600  168.6870  140.2300 C   0  0  0  0  0  0  0  0  0  0  0  0
  195.6650  169.1000  137.7350 C   0  0  0  0  0  3  0  0  0  0  0  0
  1 20  1  1  0  0  0
  1 14  1  0  0  0  0
  2  4  2  0  0  0  0
  3  4  1  0  0  0  0
  4 10  1  0  0  0  0
  6 21  1  0  0  0  0
  7 18  1  0  0  0  0
  8  1  1  0  0  0  0
  8 11  2  0  0  0  0
  9  7  1  0  0  0  0
 10 16  1  0  0  0  0
 12 48  1  6  0  0  0
 12  3  1  0  0  0  0
 12  5  1  0  0  0  0
 13 17  1  0  0  0  0
 14 13  1  0  0  0  0
 14 46  1  1  0  0  0
 15 16  2  0  0  0  0
 16  9  1  0  0  0  0
 17  7  2  0  0  0  0
 17 21  1  0  0  0  0
 18  6  1  1  0  0  0
 19 24  1  1  0  0  0
 19  5  1  0  0  0  0
 19  8  1  0  0  0  0
 22 28  1  0  0  0  0
 22 23  1  0  0  0  0
 23 26  1  0  0  0  0
 25 26  2  0  0  0  0
 26 24  1  0  0  0  0
 27 28  1  0  0  0  0
 28 25  1  0  0  0  0
 29 32  1  0  0  0  0
 29 36  1  1  0  0  0
 30 18  1  6  0  0  0
 30 29  1  0  0  0  0
 30 32  1  0  0  0  0
 32 31  1  1  0  0  0
 34 36  1  0  0  0  0
 34 33  1  1  0  0  0
 35 37  1  6  0  0  0
 35 34  1  0  0  0  0
 35 36  1  0  0  0  0
 36 33  1  1  0  0  0
 37 39  1  1  0  0  0
 39 38  1  0  0  0  0
 40 39  2  0  0  0  0
 41 42  1  6  0  0  0
 41 37  1  0  0  0  0
 43 44  2  0  0  0  0
 44 41  1  0  0  0  0
 45 44  1  0  0  0  0
 46 47  1  0  0  0  0
 48 49  1  0  0  0  0
 49 50  1  6  0  0  0
 49 55  1  0  0  0  0
 51 56  1  0  0  0  0
 53 54  1  0  0  0  0
 54 56  2  0  0  0  0
 55 51  2  0  0  0  0
 56 52  1  0  0  0  0
 57 53  2  0  0  0  0
 57 55  1  0  0  0  0
M  END
>  <MODEL>
7

>  <REMARK>
 VINA RESULT:      -5.7      2.227      3.262
  Name = 
  11 active torsions:
  status: ('A' for Active; 'I' for Inactive)
    1  A    between atoms: N_10  and  C_54
    2  A    between atoms: C_11  and  C_48
    3  A    between atoms: C_14  and  C_46
    4  A    between atoms: C_22  and  C_38
    5  A    between atoms: C_24  and  C_33
    6  A    between atoms: C_24  and  C_48
    7  A    between atoms: C_25  and  C_30
    8  A    between atoms: C_25  and  C_40
    9  A    between atoms: C_28  and  C_52
   10  A    between atoms: C_34  and  C_48
   11  A    between atoms: C_36  and  C_40
                            x       y       z     vdW  Elec       q    Type
                         _______ _______ _______ _____ _____    ______ ____

>  <TORSDO>
F 11

$$$$
=
 OpenBabel11062423063D

 57 63  0  0  1  0  0  0  0  0999 V2000
  193.6600  175.3500  141.2640 C   0  0  1  0  0  3  0  0  0  0  0  0
  189.9080  173.4180  137.9080 O   0  0  0  0  0  0  0  0  0  0  0  0
  191.1340  171.4830  138.5340 C   0  0  0  0  0  2  0  0  0  0  0  0
  190.2620  172.6490  138.8390 C   0  0  0  0  0  0  0  0  0  0  0  0
  193.0250  172.0320  139.9120 O   0  0  0  0  0  0  0  0  0  0  0  0
  188.5300  177.9740  142.2960 C   0  0  0  0  0  2  0  0  0  0  0  0
  189.0240  175.6090  142.3660 C   0  0  0  0  0  0  0  0  0  0  0  0
  193.7930  173.8530  141.2390 C   0  0  0  0  0  0  0  0  0  0  0  0
  188.7550  174.1700  142.0540 C   0  0  0  0  0  2  0  0  0  0  0  0
  189.8810  172.9060  140.1930 N   0  0  0  0  0  2  0  0  0  0  0  0
  193.9450  173.2220  142.2740 O   0  0  0  0  0  0  0  0  0  0  0  0
  192.6020  171.8790  138.5810 C   0  0  1  0  0  3  0  0  0  0  0  0
  191.3830  175.3670  142.1340 O   0  0  0  0  0  0  0  0  0  0  0  0
  192.6890  175.8970  142.3190 C   0  0  1  0  0  3  0  0  0  0  0  0
  188.2270  174.5070  139.7510 O   0  0  0  0  0  0  0  0  0  0  0  0
  188.9310  173.8940  140.6000 C   0  0  0  0  0  0  0  0  0  0  0  0
  190.2410  176.1270  142.4010 C   0  0  0  0  0  0  0  0  0  0  0  0
  187.9130  176.6020  142.5280 C   0  0  1  0  0  3  0  0  0  0  0  0
  193.8690  173.1510  139.9170 C   0  0  1  0  0  3  0  0  0  0  0  0
  194.9180  175.9420  141.3990 O   0  0  0  0  0  1  0  0  0  0  0  0
  190.2960  177.8810  142.7420 S   0  0  0  0  0  0  0  0  0  0  0  0
  197.9410  174.2010  137.2110 C   0  0  0  0  0  2  0  0  0  0  0  0
  197.8120  172.9480  138.5380 S   0  0  0  0  0  0  0  0  0  0  0  0
  195.2450  172.7330  139.6730 N   0  0  0  0  0  2  0  0  0  0  0  0
  195.6420  174.2730  137.9070 N   0  0  0  0  0  0  0  0  0  0  0  0
  196.0860  173.3730  138.7130 C   0  0  0  0  0  0  0  0  0  0  0  0
  196.3280  175.8130  136.0800 C   0  0  0  0  0  1  0  0  0  0  0  0
  196.6170  174.7700  137.0460 N   0  0  0  0  0  0  0  0  0  0  0  0
  188.0430  176.9070  145.0680 C   0  0  1  0  0  3  0  0  0  0  0  0
  187.1550  176.5930  143.8750 C   0  0  1  0  0  3  0  0  0  0  0  0
  185.7410  178.0620  145.2790 C   0  0  0  0  0  1  0  0  0  0  0  0
  187.0600  177.9610  144.5270 C   0  0  1  0  0  3  0  0  0  0  0  0
  187.0520  176.9820  147.2760 O   0  0  0  0  0  0  0  0  0  0  0  0
  188.3810  176.5570  147.4520 C   0  0  1  0  0  3  0  0  0  0  0  0
  188.5710  175.1530  146.9180 C   0  0  1  0  0  3  0  0  0  0  0  0
  187.5640  176.1170  146.2910 C   0  0  2  0  0  0  0  0  0  0  0  0
  189.9150  175.0340  146.1790 C   0  0  2  0  0  3  0  0  0  0  0  0
  191.0680  173.5390  144.5500 O   0  0  0  0  0  0  0  0  0  0  0  0
  190.0610  173.7120  145.4900 C   0  0  0  0  0  0  0  0  0  0  0  0
  189.3130  172.7410  145.7890 O   0  0  0  0  0  1  0  0  0  0  0  0
  191.1320  175.3230  147.0680 C   0  0  1  0  0  3  0  0  0  0  0  0
  192.0500  174.2730  147.0060 O   0  0  0  0  0  1  0  0  0  0  0  0
  193.0760  176.8960  147.2540 O   0  0  0  0  0  1  0  0  0  0  0  0
  191.8080  176.6230  146.7570 C   0  0  0  0  0  0  0  0  0  0  0  0
  191.2240  177.4700  146.0310 O   0  0  0  0  0  0  0  0  0  0  0  0
  193.1490  175.6570  143.7540 C   0  0  0  0  0  2  0  0  0  0  0  0
  194.0260  176.6690  144.1510 O   0  0  0  0  0  1  0  0  0  0  0  0
  193.4510  170.8420  137.8410 C   0  0  0  0  0  2  0  0  0  0  0  0
  193.1000  169.4040  138.2190 C   0  0  1  0  0  3  0  0  0  0  0  0
  193.6060  168.4550  137.1480 C   0  0  0  0  0  1  0  0  0  0  0  0
  192.8160  168.8140  140.6610 C   0  0  0  0  0  3  0  0  0  0  0  0
  192.5430  168.2260  142.9540 F   0  0  0  0  0  0  0  0  0  0  0  0
  195.5840  168.5190  140.9400 C   0  0  0  0  0  3  0  0  0  0  0  0
  194.7420  168.2960  142.0350 C   0  0  0  0  0  3  0  0  0  0  0  0
  193.6580  169.0390  139.5600 C   0  0  0  0  0  0  0  0  0  0  0  0
  193.3580  168.4440  141.8950 C   0  0  0  0  0  0  0  0  0  0  0  0
  195.0420  168.8900  139.7070 C   0  0  0  0  0  3  0  0  0  0  0  0
  1 20  1  1  0  0  0
  1 14  1  0  0  0  0
  2  4  2  0  0  0  0
  3 12  1  0  0  0  0
  3  4  1  0  0  0  0
  4 10  1  0  0  0  0
  5 19  1  0  0  0  0
  6 21  1  0  0  0  0
  7 17  2  0  0  0  0
  7 18  1  0  0  0  0
  8  1  1  0  0  0  0
  8 11  2  0  0  0  0
  9  7  1  0  0  0  0
 10 16  1  0  0  0  0
 12 48  1  1  0  0  0
 12  5  1  0  0  0  0
 13 14  1  0  0  0  0
 13 17  1  0  0  0  0
 14 46  1  1  0  0  0
 15 16  2  0  0  0  0
 16  9  1  0  0  0  0
 17 21  1  0  0  0  0
 18  6  1  1  0  0  0
 19 24  1  1  0  0  0
 19  8  1  0  0  0  0
 22 23  1  0  0  0  0
 23 26  1  0  0  0  0
 25 26  2  0  0  0  0
 26 24  1  0  0  0  0
 27 28  1  0  0  0  0
 28 22  1  0  0  0  0
 28 25  1  0  0  0  0
 29 36  1  1  0  0  0
 30 18  1  6  0  0  0
 30 32  1  0  0  0  0
 30 29  1  0  0  0  0
 32 29  1  0  0  0  0
 32 31  1  1  0  0  0
 34 33  1  1  0  0  0
 35 37  1  6  0  0  0
 35 34  1  0  0  0  0
 36 35  1  0  0  0  0
 36 33  1  1  0  0  0
 36 34  1  0  0  0  0
 37 39  1  1  0  0  0
 37 41  1  0  0  0  0
 38 39  2  0  0  0  0
 39 40  1  0  0  0  0
 41 42  1  6  0  0  0
 44 41  1  0  0  0  0
 44 43  1  0  0  0  0
 45 44  2  0  0  0  0
 46 47  1  0  0  0  0
 48 49  1  0  0  0  0
 49 50  1  6  0  0  0
 49 55  1  0  0  0  0
 51 56  1  0  0  0  0
 53 54  1  0  0  0  0
 55 57  1  0  0  0  0
 55 51  2  0  0  0  0
 56 54  2  0  0  0  0
 56 52  1  0  0  0  0
 57 53  2  0  0  0  0
M  END
>  <MODEL>
8

>  <REMARK>
 VINA RESULT:      -5.6      2.660      4.586
  Name = 
  11 active torsions:
  status: ('A' for Active; 'I' for Inactive)
    1  A    between atoms: N_10  and  C_54
    2  A    between atoms: C_11  and  C_48
    3  A    between atoms: C_14  and  C_46
    4  A    between atoms: C_22  and  C_38
    5  A    between atoms: C_24  and  C_33
    6  A    between atoms: C_24  and  C_48
    7  A    between atoms: C_25  and  C_30
    8  A    between atoms: C_25  and  C_40
    9  A    between atoms: C_28  and  C_52
   10  A    between atoms: C_34  and  C_48
   11  A    between atoms: C_36  and  C_40
                            x       y       z     vdW  Elec       q    Type
                         _______ _______ _______ _____ _____    ______ ____

>  <TORSDO>
F 11

$$$$
=
 OpenBabel11062423063D

 57 63  0  0  1  0  0  0  0  0999 V2000
  191.3670  174.5980  145.4720 C   0  0  1  0  0  3  0  0  0  0  0  0
  187.4520  174.1780  141.7890 O   0  0  0  0  0  0  0  0  0  0  0  0
  188.0950  176.4600  141.6500 C   0  0  0  0  0  2  0  0  0  0  0  0
  188.3660  175.0030  141.5290 C   0  0  0  0  0  0  0  0  0  0  0  0
  189.7300  177.0300  143.3170 O   0  0  0  0  0  0  0  0  0  0  0  0
  191.9270  169.5620  142.5410 C   0  0  0  0  0  2  0  0  0  0  0  0
  191.9010  171.8050  141.6390 C   0  0  0  0  0  0  0  0  0  0  0  0
  191.2600  175.9200  144.7630 C   0  0  0  0  0  0  0  0  0  0  0  0
  191.4630  172.8600  140.6710 C   0  0  0  0  0  2  0  0  0  0  0  0
  189.6770  174.5600  141.1660 N   0  0  0  0  0  2  0  0  0  0  0  0
  192.2620  176.5150  144.3980 O   0  0  0  0  0  0  0  0  0  0  0  0
  188.3500  176.9410  143.0700 C   0  0  1  0  0  3  0  0  0  0  0  0
  191.9480  173.3140  143.4830 O   0  0  0  0  0  0  0  0  0  0  0  0
  192.3280  173.5910  144.8240 C   0  0  1  0  0  3  0  0  0  0  0  0
  189.1400  172.3180  140.7440 O   0  0  0  0  0  0  0  0  0  0  0  0
  190.0270  173.2060  140.8680 C   0  0  0  0  0  0  0  0  0  0  0  0
  192.1210  172.0460  142.9220 C   0  0  0  0  0  0  0  0  0  0  0  0
  191.9900  170.3620  141.2460 C   0  0  1  0  0  3  0  0  0  0  0  0
  189.9140  176.5640  144.6260 C   0  0  1  0  0  3  0  0  0  0  0  0
  191.6960  174.7980  146.8150 O   0  0  0  0  0  1  0  0  0  0  0  0
  192.5820  170.6100  143.8820 S   0  0  0  0  0  0  0  0  0  0  0  0
  187.2020  178.3510  148.4280 C   0  0  0  0  0  2  0  0  0  0  0  0
  188.7570  179.0610  147.7750 S   0  0  0  0  0  0  0  0  0  0  0  0
  189.8160  177.6760  145.5640 N   0  0  0  0  0  2  0  0  0  0  0  0
  187.7810  176.9550  146.5600 N   0  0  0  0  0  0  0  0  0  0  0  0
  188.7750  177.7730  146.5360 C   0  0  0  0  0  0  0  0  0  0  0  0
  185.6980  176.3980  147.7960 C   0  0  0  0  0  1  0  0  0  0  0  0
  186.8720  177.2220  147.5800 N   0  0  0  0  0  0  0  0  0  0  0  0
  193.7120  171.0000  139.4620 C   0  0  1  0  0  3  0  0  0  0  0  0
  193.2290  169.9320  140.4280 C   0  0  1  0  0  3  0  0  0  0  0  0
  195.6940  169.8110  140.6180 C   0  0  0  0  0  1  0  0  0  0  0  0
  194.4820  170.7200  140.7650 C   0  0  1  0  0  3  0  0  0  0  0  0
  195.4050  171.0370  137.7310 O   0  0  0  0  0  0  0  0  0  0  0  0
  194.1850  171.3300  137.0970 C   0  0  1  0  0  3  0  0  0  0  0  0
  193.2950  170.1050  137.0520 C   0  0  1  0  0  3  0  0  0  0  0  0
  194.2780  170.3380  138.2000 C   0  0  2  0  0  0  0  0  0  0  0  0
  191.8350  170.4880  137.3490 C   0  0  2  0  0  3  0  0  0  0  0  0
  191.2560  168.1660  136.6480 O   0  0  0  0  0  0  0  0  0  0  0  0
  190.9400  169.2870  137.4030 C   0  0  0  0  0  0  0  0  0  0  0  0
  189.9320  169.2660  138.1610 O   0  0  0  0  0  1  0  0  0  0  0  0
  191.2700  171.5460  136.3910 C   0  0  1  0  0  3  0  0  0  0  0  0
  190.3890  170.9650  135.4780 O   0  0  0  0  0  1  0  0  0  0  0  0
  191.3360  173.8440  137.3940 O   0  0  0  0  0  1  0  0  0  0  0  0
  190.6130  172.6970  137.0870 C   0  0  0  0  0  0  0  0  0  0  0  0
  189.3930  172.6280  137.3890 O   0  0  0  0  0  0  0  0  0  0  0  0
  193.7900  174.0260  144.8710 C   0  0  0  0  0  2  0  0  0  0  0  0
  194.5260  173.1440  145.6640 O   0  0  0  0  0  1  0  0  0  0  0  0
  187.6540  178.2850  143.3040 C   0  0  0  0  0  2  0  0  0  0  0  0
  186.2140  178.1330  143.7900 C   0  0  1  0  0  3  0  0  0  0  0  0
  185.8990  179.2160  144.8070 C   0  0  0  0  0  1  0  0  0  0  0  0
  183.8590  178.2170  142.8730 C   0  0  0  0  0  3  0  0  0  0  0  0
  181.6390  178.3280  142.0130 F   0  0  0  0  0  0  0  0  0  0  0  0
  184.8490  178.2890  140.2580 C   0  0  0  0  0  3  0  0  0  0  0  0
  183.4700  178.3260  140.4850 C   0  0  0  0  0  3  0  0  0  0  0  0
  185.2450  178.1780  142.6490 C   0  0  0  0  0  0  0  0  0  0  0  0
  182.9750  178.2890  141.7930 C   0  0  0  0  0  0  0  0  0  0  0  0
  185.7330  178.2140  141.3370 C   0  0  0  0  0  3  0  0  0  0  0  0
  1 20  1  1  0  0  0
  3 12  1  0  0  0  0
  4  3  1  0  0  0  0
  4  2  2  0  0  0  0
  5 19  1  0  0  0  0
  6 21  1  0  0  0  0
  7 17  2  0  0  0  0
  8  1  1  0  0  0  0
  9 16  1  0  0  0  0
  9  7  1  0  0  0  0
 10  4  1  0  0  0  0
 11  8  2  0  0  0  0
 12 48  1  6  0  0  0
 12  5  1  0  0  0  0
 13 14  1  0  0  0  0
 14 46  1  6  0  0  0
 14  1  1  0  0  0  0
 15 16  2  0  0  0  0
 16 10  1  0  0  0  0
 17 13  1  0  0  0  0
 17 21  1  0  0  0  0
 18  7  1  0  0  0  0
 18  6  1  1  0  0  0
 19  8  1  0  0  0  0
 19 24  1  1  0  0  0
 23 22  1  0  0  0  0
 24 26  1  0  0  0  0
 25 28  1  0  0  0  0
 26 25  2  0  0  0  0
 26 23  1  0  0  0  0
 28 27  1  0  0  0  0
 28 22  1  0  0  0  0
 29 36  1  6  0  0  0
 29 30  1  0  0  0  0
 29 32  1  0  0  0  0
 30 32  1  0  0  0  0
 30 18  1  1  0  0  0
 32 31  1  6  0  0  0
 34 33  1  6  0  0  0
 34 36  1  0  0  0  0
 35 34  1  0  0  0  0
 35 37  1  1  0  0  0
 35 36  1  0  0  0  0
 36 33  1  1  0  0  0
 37 39  1  6  0  0  0
 38 39  2  0  0  0  0
 39 40  1  0  0  0  0
 41 42  1  6  0  0  0
 41 44  1  0  0  0  0
 41 37  1  0  0  0  0
 44 45  2  0  0  0  0
 44 43  1  0  0  0  0
 46 47  1  0  0  0  0
 48 49  1  0  0  0  0
 49 50  1  1  0  0  0
 53 54  2  0  0  0  0
 53 57  1  0  0  0  0
 54 56  1  0  0  0  0
 55 51  1  0  0  0  0
 55 49  1  0  0  0  0
 56 52  1  0  0  0  0
 56 51  2  0  0  0  0
 57 55  2  0  0  0  0
M  END
>  <MODEL>
9

>  <REMARK>
 VINA RESULT:      -5.5      3.350      9.870
  Name = 
  11 active torsions:
  status: ('A' for Active; 'I' for Inactive)
    1  A    between atoms: N_10  and  C_54
    2  A    between atoms: C_11  and  C_48
    3  A    between atoms: C_14  and  C_46
    4  A    between atoms: C_22  and  C_38
    5  A    between atoms: C_24  and  C_33
    6  A    between atoms: C_24  and  C_48
    7  A    between atoms: C_25  and  C_30
    8  A    between atoms: C_25  and  C_40
    9  A    between atoms: C_28  and  C_52
   10  A    between atoms: C_34  and  C_48
   11  A    between atoms: C_36  and  C_40
                            x       y       z     vdW  Elec       q    Type
                         _______ _______ _______ _____ _____    ______ ____

>  <TORSDO>
F 11

$$$$
