=
 OpenBabel11062422543D

 29 31  0  0  1  0  0  0  0  0999 V2000
  185.3000  177.8390  141.6610 C   0  0  2  0  0  3  0  0  0  0  0  0
  186.2800  178.7970  143.6130 C   0  0  1  0  0  3  0  0  0  0  0  0
  184.9720  178.1930  143.9030 C   0  0  0  0  0  0  0  0  0  0  0  0
  187.3730  177.8830  145.6570 C   0  0  0  0  0  0  0  0  0  0  0  0
  185.0450  178.8740  146.1900 C   0  0  0  0  0  2  0  0  0  0  0  0
  184.3980  178.2190  145.0630 N   0  0  0  0  0  0  0  0  0  0  0  0
  187.3450  178.1310  144.3760 N   0  0  0  0  0  0  0  0  0  0  0  0
  184.3790  177.6260  142.7660 N   0  0  0  0  0  2  0  0  0  0  0  0
  186.2780  178.1790  146.5420 N   0  0  0  0  0  2  0  0  0  0  0  0
  186.4360  178.6480  142.1420 N   0  0  0  0  0  0  0  0  0  0  0  0
  189.6780  175.0580  146.8160 C   0  0  0  0  0  2  0  0  0  0  0  0
  190.8110  176.6880  145.2490 C   0  0  0  0  0  3  0  0  0  0  0  0
  190.7230  175.2570  145.7170 C   0  0  1  0  0  3  0  0  0  0  0  0
  188.3700  175.7130  146.3920 C   0  0  0  0  0  2  0  0  0  0  0  0
  189.8170  177.5670  145.4460 C   0  0  0  0  0  3  0  0  0  0  0  0
  188.5800  177.2230  146.2400 C   0  0  1  0  0  3  0  0  0  0  0  0
  192.0650  174.7510  146.1450 C   0  0  0  0  0  0  0  0  0  0  0  0
  192.5820  175.1730  147.2130 O   0  0  0  0  0  0  0  0  0  0  0  0
  192.7740  173.7910  145.3560 N   0  0  0  0  0  2  0  0  0  0  0  0
  191.6310  171.9330  144.2750 C   0  0  0  0  0  1  0  0  0  0  0  0
  192.2840  173.2880  144.0810 C   0  0  0  0  0  2  0  0  0  0  0  0
  184.5970  178.5680  140.5290 C   0  0  0  0  0  2  0  0  0  0  0  0
  183.1190  178.2290  140.5230 C   0  0  0  0  0  1  0  0  0  0  0  0
  187.6550  177.9430  141.7460 C   0  0  0  0  0  2  0  0  0  0  0  0
  187.3120  176.7630  140.8570 C   0  0  0  0  0  2  0  0  0  0  0  0
  188.6500  174.3600  140.0610 O   0  0  0  0  0  0  0  0  0  0  0  0
  189.6540  175.7980  142.1940 O   0  0  0  0  0  1  0  0  0  0  0  0
  187.3920  174.4940  142.3510 O   0  0  0  0  0  1  0  0  0  0  0  0
  188.2420  175.3060  141.4020 P   0  0  0  0  0  0  0  0  0  0  0  0
  1 22  1  6  0  0  0
  1 10  1  0  0  0  0
  1  8  1  0  0  0  0
  2  3  1  1  0  0  0
  2  7  1  0  0  0  0
  3  6  2  0  0  0  0
  4  9  1  0  0  0  0
  5  9  1  0  0  0  0
  6  5  1  0  0  0  0
  7  4  2  0  0  0  0
  8  3  1  0  0  0  0
 10  2  1  0  0  0  0
 12 15  2  0  0  0  0
 12 13  1  0  0  0  0
 13 17  1  1  0  0  0
 13 11  1  0  0  0  0
 14 11  1  0  0  0  0
 15 16  1  0  0  0  0
 16  4  1  6  0  0  0
 16 14  1  0  0  0  0
 17 18  2  0  0  0  0
 19 17  1  0  0  0  0
 21 20  1  0  0  0  0
 21 19  1  0  0  0  0
 23 22  1  0  0  0  0
 24 10  1  0  0  0  0
 25 29  1  0  0  0  0
 25 24  1  0  0  0  0
 26 29  2  0  0  0  0
 29 27  1  0  0  0  0
 29 28  1  0  0  0  0
M  END
>  <MODEL>
1

>  <REMARK>
 VINA RESULT:      -7.2      0.000      0.000
  Name = 
  7 active torsions:
  status: ('A' for Active; 'I' for Inactive)
    1  A    between atoms: C_1  and  C_9
    2  A    between atoms: C_3  and  C_19
    3  A    between atoms: C_8  and  C_17
    4  A    between atoms: C_8  and  P_29
    5  A    between atoms: C_12  and  C_28
    6  A    between atoms: C_17  and  N_26
    7  A    between atoms: C_23  and  N_25
                            x       y       z     vdW  Elec       q    Type
                         _______ _______ _______ _____ _____    ______ ____

>  <TORSDO>
F 7

$$$$
=
 OpenBabel11062422543D

 29 31  0  0  1  0  0  0  0  0999 V2000
  185.4540  178.2010  142.2310 C   0  0  2  0  0  3  0  0  0  0  0  0
  186.7850  176.3770  142.9970 C   0  0  1  0  0  3  0  0  0  0  0  0
  187.0280  176.6670  141.5770 C   0  0  0  0  0  0  0  0  0  0  0  0
  189.1970  176.0750  143.5490 C   0  0  0  0  0  0  0  0  0  0  0  0
  188.5640  174.8520  141.3600 C   0  0  0  0  0  2  0  0  0  0  0  0
  187.8290  175.9870  140.8210 N   0  0  0  0  0  0  0  0  0  0  0  0
  188.0100  176.5650  143.7870 N   0  0  0  0  0  0  0  0  0  0  0  0
  186.2520  177.7350  141.1080 N   0  0  0  0  0  2  0  0  0  0  0  0
  189.5070  175.2960  142.3790 N   0  0  0  0  0  2  0  0  0  0  0  0
  185.6950  177.3120  143.3830 N   0  0  0  0  0  0  0  0  0  0  0  0
  191.8350  175.4290  146.2430 C   0  0  0  0  0  2  0  0  0  0  0  0
  192.7760  176.5370  144.1730 C   0  0  0  0  0  3  0  0  0  0  0  0
  193.0390  175.5860  145.3140 C   0  0  1  0  0  3  0  0  0  0  0  0
  190.5880  175.1580  145.4110 C   0  0  0  0  0  2  0  0  0  0  0  0
  191.5330  176.8520  143.7790 C   0  0  0  0  0  3  0  0  0  0  0  0
  190.3050  176.3630  144.5080 C   0  0  1  0  0  3  0  0  0  0  0  0
  194.2640  175.9890  146.0750 C   0  0  0  0  0  0  0  0  0  0  0  0
  194.3030  177.1090  146.6510 O   0  0  0  0  0  0  0  0  0  0  0  0
  195.3960  175.1200  146.1580 N   0  0  0  0  0  2  0  0  0  0  0  0
  196.6810  173.0610  145.9610 C   0  0  0  0  0  1  0  0  0  0  0  0
  195.4670  173.8340  145.4810 C   0  0  0  0  0  2  0  0  0  0  0  0
  183.9790  178.1780  141.8670 C   0  0  0  0  0  2  0  0  0  0  0  0
  183.8070  178.2200  140.3610 C   0  0  0  0  0  1  0  0  0  0  0  0
  186.0270  178.1710  144.5190 C   0  0  0  0  0  2  0  0  0  0  0  0
  185.2360  177.7500  145.7430 C   0  0  0  0  0  2  0  0  0  0  0  0
  185.8490  176.7450  148.3520 O   0  0  0  0  0  1  0  0  0  0  0  0
  187.8990  177.7430  146.7970 O   0  0  0  0  0  0  0  0  0  0  0  0
  186.0610  179.2980  147.8200 O   0  0  0  0  0  1  0  0  0  0  0  0
  186.2710  177.9270  147.2200 P   0  0  0  0  0  0  0  0  0  0  0  0
  1 22  1  6  0  0  0
  1 10  1  0  0  0  0
  2  3  1  6  0  0  0
  2 10  1  0  0  0  0
  2  7  1  0  0  0  0
  4  7  2  0  0  0  0
  5  9  1  0  0  0  0
  6  5  1  0  0  0  0
  6  3  2  0  0  0  0
  8  3  1  0  0  0  0
  8  1  1  0  0  0  0
  9  4  1  0  0  0  0
 10 24  1  0  0  0  0
 12 13  1  0  0  0  0
 13 17  1  1  0  0  0
 13 11  1  0  0  0  0
 14 11  1  0  0  0  0
 15 12  2  0  0  0  0
 15 16  1  0  0  0  0
 16  4  1  6  0  0  0
 16 14  1  0  0  0  0
 17 19  1  0  0  0  0
 17 18  2  0  0  0  0
 21 20  1  0  0  0  0
 21 19  1  0  0  0  0
 23 22  1  0  0  0  0
 24 25  1  0  0  0  0
 25 29  1  0  0  0  0
 27 29  2  0  0  0  0
 29 28  1  0  0  0  0
 29 26  1  0  0  0  0
M  END
>  <MODEL>
2

>  <REMARK>
 VINA RESULT:      -6.8      3.204      4.225
  Name = 
  7 active torsions:
  status: ('A' for Active; 'I' for Inactive)
    1  A    between atoms: C_1  and  C_9
    2  A    between atoms: C_3  and  C_19
    3  A    between atoms: C_8  and  C_17
    4  A    between atoms: C_8  and  P_29
    5  A    between atoms: C_12  and  C_28
    6  A    between atoms: C_17  and  N_26
    7  A    between atoms: C_23  and  N_25
                            x       y       z     vdW  Elec       q    Type
                         _______ _______ _______ _____ _____    ______ ____

>  <TORSDO>
F 7

$$$$
=
 OpenBabel11062422543D

 29 31  0  0  1  0  0  0  0  0999 V2000
  193.0230  174.8560  143.5320 C   0  0  2  0  0  3  0  0  0  0  0  0
  191.1330  174.6790  144.9750 C   0  0  1  0  0  3  0  0  0  0  0  0
  192.3070  175.2140  145.6810 C   0  0  0  0  0  0  0  0  0  0  0  0
  189.5400  176.3060  145.9880 C   0  0  0  0  0  0  0  0  0  0  0  0
  191.1410  175.3180  147.7620 C   0  0  0  0  0  2  0  0  0  0  0  0
  192.3280  175.5080  146.9410 N   0  0  0  0  0  0  0  0  0  0  0  0
  190.0350  175.6560  144.9690 N   0  0  0  0  0  0  0  0  0  0  0  0
  193.4290  175.3230  144.8480 N   0  0  0  0  0  2  0  0  0  0  0  0
  190.0720  176.2060  147.3210 N   0  0  0  0  0  2  0  0  0  0  0  0
  191.6360  174.3600  143.6130 N   0  0  0  0  0  0  0  0  0  0  0  0
  186.9330  178.3530  144.0770 C   0  0  0  0  0  2  0  0  0  0  0  0
  185.9220  176.8540  145.8460 C   0  0  0  0  0  3  0  0  0  0  0  0
  185.7360  177.4970  144.4940 C   0  0  1  0  0  3  0  0  0  0  0  0
  188.2160  177.5560  144.2770 C   0  0  0  0  0  2  0  0  0  0  0  0
  187.1320  176.6930  146.4000 C   0  0  0  0  0  3  0  0  0  0  0  0
  188.3910  177.2340  145.7640 C   0  0  1  0  0  3  0  0  0  0  0  0
  184.4630  178.2830  144.4460 C   0  0  0  0  0  0  0  0  0  0  0  0
  183.9540  178.7170  145.5130 O   0  0  0  0  0  0  0  0  0  0  0  0
  183.8110  178.5500  143.2020 N   0  0  0  0  0  2  0  0  0  0  0  0
  183.2750  178.3360  140.8360 C   0  0  0  0  0  1  0  0  0  0  0  0
  184.2900  178.0440  141.9240 C   0  0  0  0  0  2  0  0  0  0  0  0
  193.9410  173.7360  143.0710 C   0  0  0  0  0  2  0  0  0  0  0  0
  193.3440  172.3870  143.4250 C   0  0  0  0  0  1  0  0  0  0  0  0
  190.8900  175.0150  142.5390 C   0  0  0  0  0  2  0  0  0  0  0  0
  190.5270  174.0080  141.4640 C   0  0  0  0  0  2  0  0  0  0  0  0
  188.1640  172.8620  140.3240 O   0  0  0  0  0  0  0  0  0  0  0  0
  188.9590  172.0430  142.8380 O   0  0  0  0  0  1  0  0  0  0  0  0
  188.0140  174.4430  142.4030 O   0  0  0  0  0  1  0  0  0  0  0  0
  188.8640  173.3610  141.7810 P   0  0  0  0  0  0  0  0  0  0  0  0
  1 22  1  1  0  0  0
  1 10  1  0  0  0  0
  1  8  1  0  0  0  0
  2  7  1  6  0  0  0
  2  3  1  0  0  0  0
  3  6  2  0  0  0  0
  4  9  1  0  0  0  0
  6  5  1  0  0  0  0
  7  4  2  0  0  0  0
  8  3  1  0  0  0  0
  9  5  1  0  0  0  0
 10  2  1  0  0  0  0
 11 14  1  0  0  0  0
 11 13  1  0  0  0  0
 12 15  2  0  0  0  0
 13 17  1  1  0  0  0
 13 12  1  0  0  0  0
 14 16  1  0  0  0  0
 16  4  1  6  0  0  0
 16 15  1  0  0  0  0
 17 18  2  0  0  0  0
 19 17  1  0  0  0  0
 20 21  1  0  0  0  0
 21 19  1  0  0  0  0
 22 23  1  0  0  0  0
 24 10  1  0  0  0  0
 25 29  1  0  0  0  0
 25 24  1  0  0  0  0
 26 29  2  0  0  0  0
 29 28  1  0  0  0  0
 29 27  1  0  0  0  0
M  END
>  <MODEL>
3

>  <REMARK>
 VINA RESULT:      -6.8      2.240      6.930
  Name = 
  7 active torsions:
  status: ('A' for Active; 'I' for Inactive)
    1  A    between atoms: C_1  and  C_9
    2  A    between atoms: C_3  and  C_19
    3  A    between atoms: C_8  and  C_17
    4  A    between atoms: C_8  and  P_29
    5  A    between atoms: C_12  and  C_28
    6  A    between atoms: C_17  and  N_26
    7  A    between atoms: C_23  and  N_25
                            x       y       z     vdW  Elec       q    Type
                         _______ _______ _______ _____ _____    ______ ____

>  <TORSDO>
F 7

$$$$
=
 OpenBabel11062422543D

 29 31  0  0  1  0  0  0  0  0999 V2000
  192.1940  173.1070  144.3260 C   0  0  2  0  0  3  0  0  0  0  0  0
  191.0170  174.0610  142.4840 C   0  0  1  0  0  3  0  0  0  0  0  0
  190.4620  172.7540  142.8640 C   0  0  0  0  0  0  0  0  0  0  0  0
  188.7900  175.1410  142.1940 C   0  0  0  0  0  0  0  0  0  0  0  0
  188.8590  172.8010  141.0950 C   0  0  0  0  0  2  0  0  0  0  0  0
  189.4870  172.1690  142.2460 N   0  0  0  0  0  0  0  0  0  0  0  0
  190.0150  175.1240  142.6470 N   0  0  0  0  0  0  0  0  0  0  0  0
  191.1430  172.1770  143.9440 N   0  0  0  0  0  2  0  0  0  0  0  0
  188.1930  174.0350  141.4930 N   0  0  0  0  0  2  0  0  0  0  0  0
  192.1960  174.2330  143.3730 N   0  0  0  0  0  0  0  0  0  0  0  0
  185.7190  177.1930  143.1930 C   0  0  0  0  0  2  0  0  0  0  0  0
  187.8280  177.9080  144.3910 C   0  0  0  0  0  3  0  0  0  0  0  0
  186.3290  177.7610  144.4740 C   0  0  1  0  0  3  0  0  0  0  0  0
  186.4980  175.9540  142.7690 C   0  0  0  0  0  2  0  0  0  0  0  0
  188.5640  177.2290  143.4990 C   0  0  0  0  0  3  0  0  0  0  0  0
  187.9430  176.3460  142.4440 C   0  0  1  0  0  3  0  0  0  0  0  0
  185.6840  179.0570  144.8550 C   0  0  0  0  0  0  0  0  0  0  0  0
  185.5680  179.9740  144.0000 O   0  0  0  0  0  0  0  0  0  0  0  0
  185.1950  179.2720  146.1820 N   0  0  0  0  0  2  0  0  0  0  0  0
  186.5950  178.5730  148.0480 C   0  0  0  0  0  1  0  0  0  0  0  0
  185.3340  178.2960  147.2520 C   0  0  0  0  0  2  0  0  0  0  0  0
  193.5430  172.4100  144.2970 C   0  0  0  0  0  2  0  0  0  0  0  0
  194.0970  172.2760  145.7030 C   0  0  0  0  0  1  0  0  0  0  0  0
  192.1630  175.4600  144.1680 C   0  0  0  0  0  2  0  0  0  0  0  0
  193.4110  176.2840  143.9100 C   0  0  0  0  0  2  0  0  0  0  0  0
  195.8290  175.3390  145.1180 O   0  0  0  0  0  0  0  0  0  0  0  0
  194.9190  177.8650  145.7620 O   0  0  0  0  0  1  0  0  0  0  0  0
  193.6730  175.7060  146.5540 O   0  0  0  0  0  1  0  0  0  0  0  0
  194.4520  176.2810  145.3940 P   0  0  0  0  0  0  0  0  0  0  0  0
  1 22  1  6  0  0  0
  2  7  1  1  0  0  0
  2  3  1  0  0  0  0
  2 10  1  0  0  0  0
  3  8  1  0  0  0  0
  4  7  2  0  0  0  0
  5  9  1  0  0  0  0
  5  6  1  0  0  0  0
  6  3  2  0  0  0  0
  8  1  1  0  0  0  0
  9  4  1  0  0  0  0
 10 24  1  0  0  0  0
 10  1  1  0  0  0  0
 11 13  1  0  0  0  0
 12 13  1  0  0  0  0
 13 17  1  6  0  0  0
 14 11  1  0  0  0  0
 15 12  2  0  0  0  0
 16  4  1  1  0  0  0
 16 14  1  0  0  0  0
 16 15  1  0  0  0  0
 17 19  1  0  0  0  0
 18 17  2  0  0  0  0
 19 21  1  0  0  0  0
 21 20  1  0  0  0  0
 22 23  1  0  0  0  0
 25 24  1  0  0  0  0
 25 29  1  0  0  0  0
 26 29  2  0  0  0  0
 29 27  1  0  0  0  0
 29 28  1  0  0  0  0
M  END
>  <MODEL>
4

>  <REMARK>
 VINA RESULT:      -6.7      3.355      7.631
  Name = 
  7 active torsions:
  status: ('A' for Active; 'I' for Inactive)
    1  A    between atoms: C_1  and  C_9
    2  A    between atoms: C_3  and  C_19
    3  A    between atoms: C_8  and  C_17
    4  A    between atoms: C_8  and  P_29
    5  A    between atoms: C_12  and  C_28
    6  A    between atoms: C_17  and  N_26
    7  A    between atoms: C_23  and  N_25
                            x       y       z     vdW  Elec       q    Type
                         _______ _______ _______ _____ _____    ______ ____

>  <TORSDO>
F 7

$$$$
=
 OpenBabel11062422543D

 29 31  0  0  1  0  0  0  0  0999 V2000
  186.3650  177.4990  146.1060 C   0  0  2  0  0  3  0  0  0  0  0  0
  188.5090  177.2920  145.0820 C   0  0  1  0  0  3  0  0  0  0  0  0
  188.5780  177.0780  146.5350 C   0  0  0  0  0  0  0  0  0  0  0  0
  190.0140  175.3830  144.5330 C   0  0  0  0  0  0  0  0  0  0  0  0
  190.9480  176.7960  146.4870 C   0  0  0  0  0  2  0  0  0  0  0  0
  189.6730  176.8530  147.1870 N   0  0  0  0  0  0  0  0  0  0  0  0
  188.9280  176.0850  144.3540 N   0  0  0  0  0  0  0  0  0  0  0  0
  187.3260  177.1980  147.1540 N   0  0  0  0  0  2  0  0  0  0  0  0
  190.9730  175.6640  145.5690 N   0  0  0  0  0  2  0  0  0  0  0  0
  187.0900  177.6590  144.8310 N   0  0  0  0  0  0  0  0  0  0  0  0
  189.2520  172.2730  142.4400 C   0  0  0  0  0  2  0  0  0  0  0  0
  190.5700  174.0240  141.1780 C   0  0  0  0  0  3  0  0  0  0  0  0
  189.5370  172.9280  141.0880 C   0  0  1  0  0  3  0  0  0  0  0  0
  189.0020  173.3550  143.4830 C   0  0  0  0  0  2  0  0  0  0  0  0
  190.8660  174.6340  142.3350 C   0  0  0  0  0  3  0  0  0  0  0  0
  190.2660  174.2030  143.6520 C   0  0  1  0  0  3  0  0  0  0  0  0
  189.9250  171.9110  140.0610 C   0  0  0  0  0  0  0  0  0  0  0  0
  190.7120  170.9770  140.3710 O   0  0  0  0  0  0  0  0  0  0  0  0
  189.4150  171.9820  138.7270 N   0  0  0  0  0  2  0  0  0  0  0  0
  189.2870  173.9220  137.2610 C   0  0  0  0  0  1  0  0  0  0  0  0
  188.5480  173.0530  138.2600 C   0  0  0  0  0  2  0  0  0  0  0  0
  185.6190  178.7810  146.4340 C   0  0  0  0  0  2  0  0  0  0  0  0
  184.1440  178.6290  146.1150 C   0  0  0  0  0  1  0  0  0  0  0  0
  186.4210  176.8010  143.8530 C   0  0  0  0  0  2  0  0  0  0  0  0
  185.9920  177.6160  142.6490 C   0  0  0  0  0  2  0  0  0  0  0  0
  186.5110  177.9040  139.8480 O   0  0  0  0  0  0  0  0  0  0  0  0
  188.5820  178.2950  141.6310 O   0  0  0  0  0  1  0  0  0  0  0  0
  187.5560  175.9260  141.2040 O   0  0  0  0  0  1  0  0  0  0  0  0
  187.1900  177.3880  141.3080 P   0  0  0  0  0  0  0  0  0  0  0  0
  1 22  1  1  0  0  0
  1  8  1  0  0  0  0
  2  7  1  6  0  0  0
  2  3  1  0  0  0  0
  3  8  1  0  0  0  0
  3  6  2  0  0  0  0
  4  9  1  0  0  0  0
  5  6  1  0  0  0  0
  7  4  2  0  0  0  0
  9  5  1  0  0  0  0
 10  2  1  0  0  0  0
 10  1  1  0  0  0  0
 11 14  1  0  0  0  0
 12 15  2  0  0  0  0
 13 17  1  6  0  0  0
 13 12  1  0  0  0  0
 13 11  1  0  0  0  0
 14 16  1  0  0  0  0
 15 16  1  0  0  0  0
 16  4  1  1  0  0  0
 17 18  2  0  0  0  0
 19 17  1  0  0  0  0
 20 21  1  0  0  0  0
 21 19  1  0  0  0  0
 23 22  1  0  0  0  0
 24 10  1  0  0  0  0
 25 24  1  0  0  0  0
 26 29  2  0  0  0  0
 28 29  1  0  0  0  0
 29 27  1  0  0  0  0
 29 25  1  0  0  0  0
M  END
>  <MODEL>
5

>  <REMARK>
 VINA RESULT:      -6.5      3.090      5.057
  Name = 
  7 active torsions:
  status: ('A' for Active; 'I' for Inactive)
    1  A    between atoms: C_1  and  C_9
    2  A    between atoms: C_3  and  C_19
    3  A    between atoms: C_8  and  C_17
    4  A    between atoms: C_8  and  P_29
    5  A    between atoms: C_12  and  C_28
    6  A    between atoms: C_17  and  N_26
    7  A    between atoms: C_23  and  N_25
                            x       y       z     vdW  Elec       q    Type
                         _______ _______ _______ _____ _____    ______ ____

>  <TORSDO>
F 7

$$$$
=
 OpenBabel11062422543D

 29 31  0  0  1  0  0  0  0  0999 V2000
  193.6550  175.4170  141.7960 C   0  0  2  0  0  3  0  0  0  0  0  0
  192.9880  174.8930  144.0250 C   0  0  1  0  0  3  0  0  0  0  0  0
  194.1560  175.7850  144.0040 C   0  0  0  0  0  0  0  0  0  0  0  0
  191.8290  176.1360  145.8480 C   0  0  0  0  0  0  0  0  0  0  0  0
  194.3340  175.7840  146.3850 C   0  0  0  0  0  2  0  0  0  0  0  0
  194.7780  176.1970  145.0620 N   0  0  0  0  0  0  0  0  0  0  0  0
  191.8460  175.5420  144.6850 N   0  0  0  0  0  0  0  0  0  0  0  0
  194.5650  176.1020  142.7010 N   0  0  0  0  0  2  0  0  0  0  0  0
  193.0030  176.3120  146.6610 N   0  0  0  0  0  2  0  0  0  0  0  0
  192.7340  174.5850  142.5930 N   0  0  0  0  0  0  0  0  0  0  0  0
  188.4280  177.8870  145.7560 C   0  0  0  0  0  2  0  0  0  0  0  0
  188.3500  175.6180  146.8710 C   0  0  0  0  0  3  0  0  0  0  0  0
  187.6050  176.6300  146.0350 C   0  0  1  0  0  3  0  0  0  0  0  0
  189.8100  177.4840  145.2560 C   0  0  0  0  0  2  0  0  0  0  0  0
  189.6880  175.6250  146.9750 C   0  0  0  0  0  3  0  0  0  0  0  0
  190.5420  176.7030  146.3520 C   0  0  1  0  0  3  0  0  0  0  0  0
  186.2870  176.9700  146.6590 C   0  0  0  0  0  0  0  0  0  0  0  0
  186.1160  176.7980  147.8950 O   0  0  0  0  0  0  0  0  0  0  0  0
  185.2140  177.4900  145.8700 N   0  0  0  0  0  2  0  0  0  0  0  0
  185.2810  179.1480  144.0880 C   0  0  0  0  0  1  0  0  0  0  0  0
  185.2970  177.6700  144.4290 C   0  0  0  0  0  2  0  0  0  0  0  0
  194.4390  174.5370  140.8370 C   0  0  0  0  0  2  0  0  0  0  0  0
  195.2020  175.3910  139.8430 C   0  0  0  0  0  1  0  0  0  0  0  0
  191.3790  174.9110  142.1500 C   0  0  0  0  0  2  0  0  0  0  0  0
  190.6040  173.6400  141.8550 C   0  0  0  0  0  2  0  0  0  0  0  0
  187.9390  172.5990  141.9210 O   0  0  0  0  0  1  0  0  0  0  0  0
  188.4150  175.1020  142.9840 O   0  0  0  0  0  1  0  0  0  0  0  0
  188.5350  174.6500  140.4110 O   0  0  0  0  0  0  0  0  0  0  0  0
  188.8360  174.0220  141.7510 P   0  0  0  0  0  0  0  0  0  0  0  0
  1 22  1  6  0  0  0
  1 10  1  0  0  0  0
  1  8  1  0  0  0  0
  2  3  1  6  0  0  0
  2  7  1  0  0  0  0
  3  6  2  0  0  0  0
  4  9  1  0  0  0  0
  5  9  1  0  0  0  0
  6  5  1  0  0  0  0
  7  4  2  0  0  0  0
  8  3  1  0  0  0  0
 10  2  1  0  0  0  0
 11 13  1  0  0  0  0
 12 15  2  0  0  0  0
 13 17  1  1  0  0  0
 13 12  1  0  0  0  0
 14 11  1  0  0  0  0
 14 16  1  0  0  0  0
 16  4  1  6  0  0  0
 16 15  1  0  0  0  0
 17 18  2  0  0  0  0
 19 17  1  0  0  0  0
 20 21  1  0  0  0  0
 21 19  1  0  0  0  0
 23 22  1  0  0  0  0
 24 10  1  0  0  0  0
 25 24  1  0  0  0  0
 28 29  2  0  0  0  0
 29 25  1  0  0  0  0
 29 26  1  0  0  0  0
 29 27  1  0  0  0  0
M  END
>  <MODEL>
6

>  <REMARK>
 VINA RESULT:      -6.5      2.612      6.920
  Name = 
  7 active torsions:
  status: ('A' for Active; 'I' for Inactive)
    1  A    between atoms: C_1  and  C_9
    2  A    between atoms: C_3  and  C_19
    3  A    between atoms: C_8  and  C_17
    4  A    between atoms: C_8  and  P_29
    5  A    between atoms: C_12  and  C_28
    6  A    between atoms: C_17  and  N_26
    7  A    between atoms: C_23  and  N_25
                            x       y       z     vdW  Elec       q    Type
                         _______ _______ _______ _____ _____    ______ ____

>  <TORSDO>
F 7

$$$$
=
 OpenBabel11062422543D

 29 31  0  0  1  0  0  0  0  0999 V2000
  186.5120  176.8180  143.8030 C   0  0  2  0  0  3  0  0  0  0  0  0
  188.5510  177.6700  144.7010 C   0  0  1  0  0  3  0  0  0  0  0  0
  187.6340  177.2270  145.7610 C   0  0  0  0  0  0  0  0  0  0  0  0
  190.5680  176.6500  145.7510 C   0  0  0  0  0  0  0  0  0  0  0  0
  189.1310  177.9140  147.4890 C   0  0  0  0  0  2  0  0  0  0  0  0
  187.8790  177.3310  147.0270 N   0  0  0  0  0  0  0  0  0  0  0  0
  189.7950  176.8890  144.7250 N   0  0  0  0  0  0  0  0  0  0  0  0
  186.4280  176.7250  145.2520 N   0  0  0  0  0  2  0  0  0  0  0  0
  190.2580  177.0820  147.0880 N   0  0  0  0  0  2  0  0  0  0  0  0
  187.7760  177.4900  143.4450 N   0  0  0  0  0  0  0  0  0  0  0  0
  193.6240  175.2150  143.9510 C   0  0  0  0  0  2  0  0  0  0  0  0
  194.1950  176.3350  146.1450 C   0  0  0  0  0  3  0  0  0  0  0  0
  194.6550  176.0180  144.7430 C   0  0  1  0  0  3  0  0  0  0  0  0
  192.2590  175.8800  144.0800 C   0  0  0  0  0  2  0  0  0  0  0  0
  192.9010  176.3070  146.4960 C   0  0  0  0  0  3  0  0  0  0  0  0
  191.8160  175.8560  145.5470 C   0  0  1  0  0  3  0  0  0  0  0  0
  195.9840  175.3300  144.7600 C   0  0  0  0  0  0  0  0  0  0  0  0
  196.2270  174.4580  145.6360 O   0  0  0  0  0  0  0  0  0  0  0  0
  196.9880  175.6470  143.7930 N   0  0  0  0  0  2  0  0  0  0  0  0
  196.7720  176.0470  141.4010 C   0  0  0  0  0  1  0  0  0  0  0  0
  196.8230  176.6780  142.7790 C   0  0  0  0  0  2  0  0  0  0  0  0
  185.3370  177.6150  143.2620 C   0  0  0  0  0  2  0  0  0  0  0  0
  185.7490  179.0520  143.0070 C   0  0  0  0  0  1  0  0  0  0  0  0
  188.4410  176.6420  142.4560 C   0  0  0  0  0  2  0  0  0  0  0  0
  187.7890  175.2730  142.4170 C   0  0  0  0  0  2  0  0  0  0  0  0
  190.3960  174.3690  141.6560 O   0  0  0  0  0  1  0  0  0  0  0  0
  188.3010  172.5710  141.6150 O   0  0  0  0  0  1  0  0  0  0  0  0
  188.4710  174.5320  139.8920 O   0  0  0  0  0  0  0  0  0  0  0  0
  188.7470  174.1790  141.3350 P   0  0  0  0  0  0  0  0  0  0  0  0
  1 22  1  1  0  0  0
  1  8  1  0  0  0  0
  2  7  1  6  0  0  0
  2  3  1  0  0  0  0
  3  6  2  0  0  0  0
  4  9  1  0  0  0  0
  6  5  1  0  0  0  0
  7  4  2  0  0  0  0
  8  3  1  0  0  0  0
  9  5  1  0  0  0  0
 10  1  1  0  0  0  0
 10  2  1  0  0  0  0
 11 14  1  0  0  0  0
 11 13  1  0  0  0  0
 12 15  2  0  0  0  0
 13 17  1  1  0  0  0
 13 12  1  0  0  0  0
 14 16  1  0  0  0  0
 16  4  1  6  0  0  0
 16 15  1  0  0  0  0
 17 18  2  0  0  0  0
 19 17  1  0  0  0  0
 20 21  1  0  0  0  0
 21 19  1  0  0  0  0
 23 22  1  0  0  0  0
 24 10  1  0  0  0  0
 25 24  1  0  0  0  0
 28 29  2  0  0  0  0
 29 27  1  0  0  0  0
 29 26  1  0  0  0  0
 29 25  1  0  0  0  0
M  END
>  <MODEL>
7

>  <REMARK>
 VINA RESULT:      -6.4      2.751      3.778
  Name = 
  7 active torsions:
  status: ('A' for Active; 'I' for Inactive)
    1  A    between atoms: C_1  and  C_9
    2  A    between atoms: C_3  and  C_19
    3  A    between atoms: C_8  and  C_17
    4  A    between atoms: C_8  and  P_29
    5  A    between atoms: C_12  and  C_28
    6  A    between atoms: C_17  and  N_26
    7  A    between atoms: C_23  and  N_25
                            x       y       z     vdW  Elec       q    Type
                         _______ _______ _______ _____ _____    ______ ____

>  <TORSDO>
F 7

$$$$
=
 OpenBabel11062422543D

 29 31  0  0  1  0  0  0  0  0999 V2000
  186.8460  177.8090  142.2720 C   0  0  2  0  0  3  0  0  0  0  0  0
  187.7610  175.6570  142.7420 C   0  0  1  0  0  3  0  0  0  0  0  0
  187.7580  175.9420  141.3000 C   0  0  0  0  0  0  0  0  0  0  0  0
  190.0570  174.6880  142.7420 C   0  0  0  0  0  0  0  0  0  0  0  0
  188.6510  173.7940  140.7650 C   0  0  0  0  0  2  0  0  0  0  0  0
  188.1550  175.1100  140.3910 N   0  0  0  0  0  0  0  0  0  0  0  0
  189.1330  175.4680  143.2350 N   0  0  0  0  0  0  0  0  0  0  0  0
  187.2200  177.2030  141.0040 N   0  0  0  0  0  2  0  0  0  0  0  0
  189.8790  173.9150  141.5420 N   0  0  0  0  0  2  0  0  0  0  0  0
  187.0810  176.8300  143.3510 N   0  0  0  0  0  0  0  0  0  0  0  0
  193.8510  174.3840  143.1330 C   0  0  0  0  0  2  0  0  0  0  0  0
  192.8890  176.4120  144.2990 C   0  0  0  0  0  3  0  0  0  0  0  0
  194.0740  175.8340  143.5650 C   0  0  1  0  0  3  0  0  0  0  0  0
  192.5010  174.2670  142.4370 C   0  0  0  0  0  2  0  0  0  0  0  0
  191.6590  175.8870  144.1960 C   0  0  0  0  0  3  0  0  0  0  0  0
  191.3840  174.6180  143.4240 C   0  0  1  0  0  3  0  0  0  0  0  0
  195.3240  175.9740  144.3760 C   0  0  0  0  0  0  0  0  0  0  0  0
  195.2960  175.7470  145.6150 O   0  0  0  0  0  0  0  0  0  0  0  0
  196.5570  176.3640  143.7640 N   0  0  0  0  0  2  0  0  0  0  0  0
  197.2610  175.5300  141.5870 C   0  0  0  0  0  1  0  0  0  0  0  0
  196.6760  176.7010  142.3540 C   0  0  0  0  0  2  0  0  0  0  0  0
  185.3790  178.2020  142.2490 C   0  0  0  0  0  2  0  0  0  0  0  0
  184.8840  178.3060  140.8190 C   0  0  0  0  0  1  0  0  0  0  0  0
  187.8760  177.5100  144.3730 C   0  0  0  0  0  2  0  0  0  0  0  0
  187.5170  176.9860  145.7500 C   0  0  0  0  0  2  0  0  0  0  0  0
  186.3410  178.3080  148.0020 O   0  0  0  0  0  1  0  0  0  0  0  0
  185.8490  179.2980  145.4720 O   0  0  0  0  0  0  0  0  0  0  0  0
  184.8500  177.0190  146.2810 O   0  0  0  0  0  1  0  0  0  0  0  0
  186.0800  177.8910  146.3840 P   0  0  0  0  0  0  0  0  0  0  0  0
  1 22  1  6  0  0  0
  1 10  1  0  0  0  0
  2  3  1  6  0  0  0
  2  7  1  0  0  0  0
  2 10  1  0  0  0  0
  4  7  2  0  0  0  0
  5  9  1  0  0  0  0
  6  5  1  0  0  0  0
  6  3  2  0  0  0  0
  8  3  1  0  0  0  0
  8  1  1  0  0  0  0
  9  4  1  0  0  0  0
 10 24  1  0  0  0  0
 11 13  1  0  0  0  0
 13 12  1  0  0  0  0
 13 17  1  1  0  0  0
 14 11  1  0  0  0  0
 14 16  1  0  0  0  0
 15 12  2  0  0  0  0
 16  4  1  6  0  0  0
 16 15  1  0  0  0  0
 17 18  2  0  0  0  0
 19 17  1  0  0  0  0
 20 21  1  0  0  0  0
 21 19  1  0  0  0  0
 23 22  1  0  0  0  0
 24 25  1  0  0  0  0
 25 29  1  0  0  0  0
 27 29  2  0  0  0  0
 28 29  1  0  0  0  0
 29 26  1  0  0  0  0
M  END
>  <MODEL>
8

>  <REMARK>
 VINA RESULT:      -6.3      3.643      5.038
  Name = 
  7 active torsions:
  status: ('A' for Active; 'I' for Inactive)
    1  A    between atoms: C_1  and  C_9
    2  A    between atoms: C_3  and  C_19
    3  A    between atoms: C_8  and  C_17
    4  A    between atoms: C_8  and  P_29
    5  A    between atoms: C_12  and  C_28
    6  A    between atoms: C_17  and  N_26
    7  A    between atoms: C_23  and  N_25
                            x       y       z     vdW  Elec       q    Type
                         _______ _______ _______ _____ _____    ______ ____

>  <TORSDO>
F 7

$$$$
=
 OpenBabel11062422543D

 29 31  0  0  1  0  0  0  0  0999 V2000
  186.2930  177.3050  142.6080 C   0  0  2  0  0  3  0  0  0  0  0  0
  187.8120  177.3220  144.4460 C   0  0  1  0  0  3  0  0  0  0  0  0
  186.4590  176.9280  144.8640 C   0  0  0  0  0  0  0  0  0  0  0  0
  188.9510  175.5650  145.7980 C   0  0  0  0  0  0  0  0  0  0  0  0
  187.1020  176.7560  147.1570 C   0  0  0  0  0  2  0  0  0  0  0  0
  186.1200  176.6700  146.0860 N   0  0  0  0  0  0  0  0  0  0  0  0
  188.7730  176.2370  144.6920 N   0  0  0  0  0  0  0  0  0  0  0  0
  185.5510  176.9150  143.7960 N   0  0  0  0  0  2  0  0  0  0  0  0
  188.1430  175.7530  146.9730 N   0  0  0  0  0  2  0  0  0  0  0  0
  187.6700  177.6570  143.0050 N   0  0  0  0  0  0  0  0  0  0  0  0
  191.4150  172.9300  144.5230 C   0  0  0  0  0  2  0  0  0  0  0  0
  192.5060  174.7010  145.9620 C   0  0  0  0  0  3  0  0  0  0  0  0
  192.6720  173.7550  144.7980 C   0  0  1  0  0  3  0  0  0  0  0  0
  190.2050  173.8550  144.4770 C   0  0  0  0  0  2  0  0  0  0  0  0
  191.3000  175.0830  146.4050 C   0  0  0  0  0  3  0  0  0  0  0  0
  190.0160  174.5190  145.8440 C   0  0  1  0  0  3  0  0  0  0  0  0
  193.8680  172.8760  144.9900 C   0  0  0  0  0  0  0  0  0  0  0  0
  193.7850  171.8570  145.7260 O   0  0  0  0  0  0  0  0  0  0  0  0
  195.1110  173.1750  144.3480 N   0  0  0  0  0  2  0  0  0  0  0  0
  195.9620  175.4570  144.3520 C   0  0  0  0  0  1  0  0  0  0  0  0
  195.3200  174.3580  143.5260 C   0  0  0  0  0  2  0  0  0  0  0  0
  185.6290  178.5020  141.9490 C   0  0  0  0  0  2  0  0  0  0  0  0
  184.4930  178.0470  141.0520 C   0  0  0  0  0  1  0  0  0  0  0  0
  188.5680  176.9030  142.1310 C   0  0  0  0  0  2  0  0  0  0  0  0
  187.7670  176.0040  141.2080 C   0  0  0  0  0  2  0  0  0  0  0  0
  187.9630  173.1980  141.7410 O   0  0  0  0  0  1  0  0  0  0  0  0
  188.6930  174.1320  139.2480 O   0  0  0  0  0  0  0  0  0  0  0  0
  190.1140  174.6430  141.3840 O   0  0  0  0  0  1  0  0  0  0  0  0
  188.6910  174.4750  140.9050 P   0  0  0  0  0  0  0  0  0  0  0  0
  1 22  1  1  0  0  0
  1 10  1  0  0  0  0
  1  8  1  0  0  0  0
  2  7  1  6  0  0  0
  2  3  1  0  0  0  0
  3  6  2  0  0  0  0
  4  9  1  0  0  0  0
  6  5  1  0  0  0  0
  7  4  2  0  0  0  0
  8  3  1  0  0  0  0
  9  5  1  0  0  0  0
 10  2  1  0  0  0  0
 11 13  1  0  0  0  0
 12 15  2  0  0  0  0
 13 17  1  1  0  0  0
 13 12  1  0  0  0  0
 14 11  1  0  0  0  0
 14 16  1  0  0  0  0
 16  4  1  6  0  0  0
 16 15  1  0  0  0  0
 17 18  2  0  0  0  0
 19 17  1  0  0  0  0
 21 19  1  0  0  0  0
 21 20  1  0  0  0  0
 23 22  1  0  0  0  0
 24 10  1  0  0  0  0
 25 24  1  0  0  0  0
 27 29  2  0  0  0  0
 29 25  1  0  0  0  0
 29 28  1  0  0  0  0
 29 26  1  0  0  0  0
M  END
>  <MODEL>
9

>  <REMARK>
 VINA RESULT:      -6.2      1.910      2.755
  Name = 
  7 active torsions:
  status: ('A' for Active; 'I' for Inactive)
    1  A    between atoms: C_1  and  C_9
    2  A    between atoms: C_3  and  C_19
    3  A    between atoms: C_8  and  C_17
    4  A    between atoms: C_8  and  P_29
    5  A    between atoms: C_12  and  C_28
    6  A    between atoms: C_17  and  N_26
    7  A    between atoms: C_23  and  N_25
                            x       y       z     vdW  Elec       q    Type
                         _______ _______ _______ _____ _____    ______ ____

>  <TORSDO>
F 7

$$$$
