=
 OpenBabel11062418523D

 37 41  0  0  1  0  0  0  0  0999 V2000
  190.5120  174.3360  142.7330 C   0  0  1  0  0  0  0  0  0  0  0  0
  191.6530  174.6560  141.9870 O   0  0  0  0  0  1  0  0  0  0  0  0
  192.8440  175.7670  146.7330 N   0  0  0  0  0  0  0  0  0  0  0  0
  192.2660  174.8680  145.8940 C   0  0  0  0  0  0  0  0  0  0  0  0
  192.1300  176.3790  147.7110 C   0  0  0  0  0  3  0  0  0  0  0  0
  193.1060  174.2630  144.7960 C   0  0  1  0  0  3  0  0  0  0  0  0
  190.9130  173.3150  143.8410 C   0  0  1  0  0  3  0  0  0  0  0  0
  190.1810  175.2130  147.0550 C   0  0  0  0  0  0  0  0  0  0  0  0
  192.4210  173.1120  144.0460 C   0  0  0  0  0  2  0  0  0  0  0  0
  190.8960  174.5730  146.0340 C   0  0  0  0  0  0  0  0  0  0  0  0
  190.2300  173.5180  145.1950 C   0  0  0  0  0  2  0  0  0  0  0  0
  188.8000  174.9300  147.2640 N   0  0  0  0  0  1  0  0  0  0  0  0
  190.8110  176.1000  147.8670 N   0  0  0  0  0  0  0  0  0  0  0  0
  194.8750  175.0140  143.6980 C   0  0  0  0  0  1  0  0  0  0  0  0
  193.5150  175.2520  143.8980 O   0  0  0  0  0  0  0  0  0  0  0  0
  191.5400  177.5620  143.4320 C   0  0  0  0  0  1  0  0  0  0  0  0
  189.9440  175.6570  143.3220 C   0  0  2  0  0  3  0  0  0  0  0  0
  189.2470  177.9080  142.5890 C   0  0  2  0  0  3  0  0  0  0  0  0
  188.0260  177.0880  142.9300 C   0  0  1  0  0  0  0  0  0  0  0  0
  188.2550  177.5100  141.4970 C   0  0  0  0  0  2  0  0  0  0  0  0
  188.4230  175.7020  143.3780 C   0  0  0  0  0  2  0  0  0  0  0  0
  190.4180  176.9370  142.6300 C   0  0  1  0  0  3  0  0  0  0  0  0
  187.0470  178.1320  145.0340 C   0  0  0  0  0  0  0  0  0  0  0  0
  185.1310  179.1920  144.1730 C   0  0  2  0  0  3  0  0  0  0  0  0
  186.9870  177.8050  143.6590 N   0  0  0  0  0  0  0  0  0  0  0  0
  185.7620  178.3280  143.0750 C   0  0  0  0  0  2  0  0  0  0  0  0
  185.8470  178.8600  145.5050 C   0  0  1  0  0  3  0  0  0  0  0  0
  188.0180  177.8220  145.7740 O   0  0  0  0  0  0  0  0  0  0  0  0
  183.6150  179.0700  144.1830 C   0  0  0  0  0  1  0  0  0  0  0  0
  185.0550  177.9800  146.4310 C   0  0  0  0  0  0  0  0  0  0  0  0
  184.9880  176.6060  146.2220 O   0  0  0  0  0  0  0  0  0  0  0  0
  184.4500  178.4920  147.4090 O   0  0  0  0  0  1  0  0  0  0  0  0
  189.4700  173.7700  141.7670 C   0  0  0  0  0  0  0  0  0  0  0  0
  188.6690  172.9500  142.1960 O   0  0  0  0  0  0  0  0  0  0  0  0
  189.3980  174.0860  140.2880 C   0  0  2  0  0  3  0  0  0  0  0  0
  188.1260  174.4860  139.8730 O   0  0  0  0  0  1  0  0  0  0  0  0
  189.8620  172.9010  139.4620 C   0  0  0  0  0  1  0  0  0  0  0  0
  1  2  1  6  0  0  0
  3  5  1  0  0  0  0
  4 10  1  0  0  0  0
  4  3  2  0  0  0  0
  5 13  2  0  0  0  0
  6 15  1  6  0  0  0
  6  4  1  0  0  0  0
  7  1  1  6  0  0  0
  7  9  1  0  0  0  0
  7 11  1  0  0  0  0
  8 12  1  0  0  0  0
  8 13  1  0  0  0  0
  9  6  1  0  0  0  0
 10  8  2  0  0  0  0
 11 10  1  0  0  0  0
 14 15  1  0  0  0  0
 17  1  1  6  0  0  0
 17 21  1  0  0  0  0
 18 20  1  6  0  0  0
 18 22  1  0  0  0  0
 18 19  1  0  0  0  0
 19 20  1  6  0  0  0
 19 21  1  0  0  0  0
 19 25  1  0  0  0  0
 22 17  1  0  0  0  0
 22 16  1  1  0  0  0
 23 27  1  0  0  0  0
 23 28  2  0  0  0  0
 24 29  1  1  0  0  0
 24 27  1  0  0  0  0
 25 23  1  0  0  0  0
 26 25  1  0  0  0  0
 26 24  1  0  0  0  0
 27 30  1  1  0  0  0
 30 32  1  0  0  0  0
 31 30  2  0  0  0  0
 33 34  2  0  0  0  0
 33  1  1  0  0  0  0
 35 37  1  6  0  0  0
 35 33  1  0  0  0  0
 36 35  1  0  0  0  0
M  END
>  <MODEL>
1

>  <REMARK>
 VINA RESULT:      -7.9      0.000      0.000
  Name = 
  7 active torsions:
  status: ('A' for Active; 'I' for Inactive)
    1  A    between atoms: C_4  and  C_18
    2  A    between atoms: C_7  and  O_32
    3  A    between atoms: C_8  and  C_21
    4  A    between atoms: C_8  and  C_25
    5  A    between atoms: C_10  and  C_25
    6  A    between atoms: C_13  and  C_25
    7  A    between atoms: N_16  and  C_22
                            x       y       z     vdW  Elec       q    Type
                         _______ _______ _______ _____ _____    ______ ____

>  <TORSDO>
F 7

$$$$
=
 OpenBabel11062418523D

 37 41  0  0  1  0  0  0  0  0999 V2000
  190.7320  174.6200  142.8510 C   0  0  1  0  0  0  0  0  0  0  0  0
  191.8200  175.0080  142.0590 O   0  0  0  0  0  1  0  0  0  0  0  0
  192.8630  176.2750  146.8760 N   0  0  0  0  0  0  0  0  0  0  0  0
  192.3980  175.3230  146.0260 C   0  0  0  0  0  0  0  0  0  0  0  0
  192.0790  176.7910  147.8560 C   0  0  0  0  0  3  0  0  0  0  0  0
  193.3080  174.8290  144.9280 C   0  0  1  0  0  3  0  0  0  0  0  0
  191.2440  173.6420  143.9520 C   0  0  1  0  0  3  0  0  0  0  0  0
  190.2810  175.4130  147.1770 C   0  0  0  0  0  0  0  0  0  0  0  0
  192.7650  173.6130  144.1650 C   0  0  0  0  0  2  0  0  0  0  0  0
  191.0710  174.8690  146.1550 C   0  0  0  0  0  0  0  0  0  0  0  0
  190.5360  173.7520  145.3040 C   0  0  0  0  0  2  0  0  0  0  0  0
  188.9420  174.9710  147.3760 N   0  0  0  0  0  1  0  0  0  0  0  0
  190.8000  176.3600  148.0010 N   0  0  0  0  0  0  0  0  0  0  0  0
  194.9920  175.8390  143.9080 C   0  0  0  0  0  1  0  0  0  0  0  0
  193.6040  175.8670  144.0420 O   0  0  0  0  0  0  0  0  0  0  0  0
  191.5930  177.8910  143.5660 C   0  0  0  0  0  1  0  0  0  0  0  0
  190.0980  175.9060  143.4490 C   0  0  2  0  0  3  0  0  0  0  0  0
  189.2830  178.1210  142.7290 C   0  0  2  0  0  3  0  0  0  0  0  0
  188.1070  177.2370  143.0670 C   0  0  1  0  0  0  0  0  0  0  0  0
  188.3110  177.6780  141.6370 C   0  0  0  0  0  2  0  0  0  0  0  0
  188.5770  175.8710  143.5070 C   0  0  0  0  0  2  0  0  0  0  0  0
  190.5030  177.2130  142.7630 C   0  0  1  0  0  3  0  0  0  0  0  0
  187.0570  178.1700  145.1900 C   0  0  0  0  0  0  0  0  0  0  0  0
  185.1280  179.2070  144.3320 C   0  0  2  0  0  3  0  0  0  0  0  0
  187.0340  177.8950  143.8030 N   0  0  0  0  0  0  0  0  0  0  0  0
  185.8040  178.4040  143.2150 C   0  0  0  0  0  2  0  0  0  0  0  0
  185.8280  178.8440  145.6650 C   0  0  1  0  0  3  0  0  0  0  0  0
  188.0230  177.8590  145.9370 O   0  0  0  0  0  0  0  0  0  0  0  0
  183.6160  179.0410  144.3060 C   0  0  0  0  0  1  0  0  0  0  0  0
  185.0450  177.9050  146.5400 C   0  0  0  0  0  0  0  0  0  0  0  0
  184.9830  176.5460  146.2490 O   0  0  0  0  0  0  0  0  0  0  0  0
  184.4420  178.3550  147.5490 O   0  0  0  0  0  1  0  0  0  0  0  0
  189.6970  173.9720  141.9310 C   0  0  0  0  0  0  0  0  0  0  0  0
  189.4160  174.5410  140.8850 O   0  0  0  0  0  0  0  0  0  0  0  0
  188.9240  172.7100  142.2490 C   0  0  2  0  0  3  0  0  0  0  0  0
  189.5520  171.5500  141.7910 O   0  0  0  0  0  1  0  0  0  0  0  0
  187.5140  172.7880  141.6930 C   0  0  0  0  0  1  0  0  0  0  0  0
  1  2  1  6  0  0  0
  3  5  1  0  0  0  0
  4 10  1  0  0  0  0
  4  3  2  0  0  0  0
  5 13  2  0  0  0  0
  6 15  1  6  0  0  0
  6  4  1  0  0  0  0
  7  1  1  6  0  0  0
  7  9  1  0  0  0  0
  7 11  1  0  0  0  0
  8 12  1  0  0  0  0
  8 13  1  0  0  0  0
  9  6  1  0  0  0  0
 10  8  2  0  0  0  0
 11 10  1  0  0  0  0
 14 15  1  0  0  0  0
 17  1  1  6  0  0  0
 17 21  1  0  0  0  0
 18 20  1  6  0  0  0
 18 22  1  0  0  0  0
 18 19  1  0  0  0  0
 19 20  1  6  0  0  0
 19 21  1  0  0  0  0
 19 25  1  0  0  0  0
 22 17  1  0  0  0  0
 22 16  1  1  0  0  0
 23 27  1  0  0  0  0
 23 28  2  0  0  0  0
 24 29  1  1  0  0  0
 24 27  1  0  0  0  0
 25 23  1  0  0  0  0
 26 25  1  0  0  0  0
 26 24  1  0  0  0  0
 27 30  1  1  0  0  0
 30 32  1  0  0  0  0
 31 30  2  0  0  0  0
 33 35  1  0  0  0  0
 33  1  1  0  0  0  0
 34 33  2  0  0  0  0
 35 37  1  6  0  0  0
 36 35  1  0  0  0  0
M  END
>  <MODEL>
2

>  <REMARK>
 VINA RESULT:      -7.9      0.739      1.042
  Name = 
  7 active torsions:
  status: ('A' for Active; 'I' for Inactive)
    1  A    between atoms: C_4  and  C_18
    2  A    between atoms: C_7  and  O_32
    3  A    between atoms: C_8  and  C_21
    4  A    between atoms: C_8  and  C_25
    5  A    between atoms: C_10  and  C_25
    6  A    between atoms: C_13  and  C_25
    7  A    between atoms: N_16  and  C_22
                            x       y       z     vdW  Elec       q    Type
                         _______ _______ _______ _____ _____    ______ ____

>  <TORSDO>
F 7

$$$$
=
 OpenBabel11062418523D

 37 41  0  0  1  0  0  0  0  0999 V2000
  191.4230  174.3460  142.6700 C   0  0  1  0  0  0  0  0  0  0  0  0
  192.1020  174.9660  141.6130 O   0  0  0  0  0  1  0  0  0  0  0  0
  194.8960  176.6410  145.1520 N   0  0  0  0  0  0  0  0  0  0  0  0
  194.2110  175.5600  144.6970 C   0  0  0  0  0  0  0  0  0  0  0  0
  194.5600  177.2490  146.3180 C   0  0  0  0  0  3  0  0  0  0  0  0
  194.6050  174.9630  143.3680 C   0  0  1  0  0  3  0  0  0  0  0  0
  192.4570  173.5550  143.5290 C   0  0  1  0  0  3  0  0  0  0  0  0
  192.7990  175.7060  146.6470 C   0  0  0  0  0  0  0  0  0  0  0  0
  193.9150  173.6290  143.0520 C   0  0  0  0  0  2  0  0  0  0  0  0
  193.1240  175.0650  145.4430 C   0  0  0  0  0  0  0  0  0  0  0  0
  192.3930  173.8170  145.0340 C   0  0  0  0  0  2  0  0  0  0  0  0
  191.7300  175.2320  147.4590 N   0  0  0  0  0  1  0  0  0  0  0  0
  193.5210  176.7820  147.0550 N   0  0  0  0  0  0  0  0  0  0  0  0
  195.5610  175.8810  141.5950 C   0  0  0  0  0  1  0  0  0  0  0  0
  194.3810  175.8820  142.3400 O   0  0  0  0  0  0  0  0  0  0  0  0
  191.7390  177.7130  143.3890 C   0  0  0  0  0  1  0  0  0  0  0  0
  190.7010  175.4540  143.4860 C   0  0  2  0  0  3  0  0  0  0  0  0
  189.2990  177.4530  143.1280 C   0  0  2  0  0  3  0  0  0  0  0  0
  188.4470  176.3300  143.6680 C   0  0  1  0  0  0  0  0  0  0  0  0
  188.2050  176.8300  142.2620 C   0  0  0  0  0  2  0  0  0  0  0  0
  189.2790  175.0900  143.8920 C   0  0  0  0  0  2  0  0  0  0  0  0
  190.6510  176.8290  142.8160 C   0  0  1  0  0  3  0  0  0  0  0  0
  186.0770  176.8240  144.4520 C   0  0  0  0  0  0  0  0  0  0  0  0
  186.4140  177.1560  146.7570 C   0  0  2  0  0  3  0  0  0  0  0  0
  187.4700  176.7280  144.6750 N   0  0  0  0  0  0  0  0  0  0  0  0
  187.7760  177.0380  146.0620 C   0  0  0  0  0  2  0  0  0  0  0  0
  185.3300  177.2540  145.6560 C   0  0  1  0  0  3  0  0  0  0  0  0
  185.5390  176.5800  143.3390 O   0  0  0  0  0  0  0  0  0  0  0  0
  186.4090  178.2630  147.7980 C   0  0  0  0  0  1  0  0  0  0  0  0
  184.7870  178.6400  145.4430 C   0  0  0  0  0  0  0  0  0  0  0  0
  185.5620  179.6220  144.8350 O   0  0  0  0  0  0  0  0  0  0  0  0
  183.6160  178.9120  145.8180 O   0  0  0  0  0  1  0  0  0  0  0  0
  190.3520  173.4380  142.0650 C   0  0  0  0  0  0  0  0  0  0  0  0
  190.1280  172.3650  142.6090 O   0  0  0  0  0  0  0  0  0  0  0  0
  189.5920  173.7270  140.7870 C   0  0  2  0  0  3  0  0  0  0  0  0
  188.2170  173.5200  140.9060 O   0  0  0  0  0  1  0  0  0  0  0  0
  190.1410  172.9040  139.6370 C   0  0  0  0  0  1  0  0  0  0  0  0
  1  2  1  6  0  0  0
  3  5  1  0  0  0  0
  4  3  2  0  0  0  0
  4 10  1  0  0  0  0
  5 13  2  0  0  0  0
  6 15  1  6  0  0  0
  6  4  1  0  0  0  0
  7  1  1  6  0  0  0
  7 11  1  0  0  0  0
  8 13  1  0  0  0  0
  8 12  1  0  0  0  0
  9  6  1  0  0  0  0
  9  7  1  0  0  0  0
 10  8  2  0  0  0  0
 11 10  1  0  0  0  0
 14 15  1  0  0  0  0
 17  1  1  6  0  0  0
 17 21  1  0  0  0  0
 18 20  1  6  0  0  0
 18 19  1  0  0  0  0
 19 20  1  6  0  0  0
 19 21  1  0  0  0  0
 19 25  1  0  0  0  0
 22 18  1  0  0  0  0
 22 16  1  1  0  0  0
 22 17  1  0  0  0  0
 23 25  1  0  0  0  0
 23 27  1  0  0  0  0
 24 29  1  1  0  0  0
 25 26  1  0  0  0  0
 26 24  1  0  0  0  0
 27 30  1  6  0  0  0
 27 24  1  0  0  0  0
 28 23  2  0  0  0  0
 30 32  1  0  0  0  0
 31 30  2  0  0  0  0
 33 34  2  0  0  0  0
 33  1  1  0  0  0  0
 35 37  1  6  0  0  0
 35 36  1  0  0  0  0
 35 33  1  0  0  0  0
M  END
>  <MODEL>
3

>  <REMARK>
 VINA RESULT:      -7.6      1.532      2.180
  Name = 
  7 active torsions:
  status: ('A' for Active; 'I' for Inactive)
    1  A    between atoms: C_4  and  C_18
    2  A    between atoms: C_7  and  O_32
    3  A    between atoms: C_8  and  C_21
    4  A    between atoms: C_8  and  C_25
    5  A    between atoms: C_10  and  C_25
    6  A    between atoms: C_13  and  C_25
    7  A    between atoms: N_16  and  C_22
                            x       y       z     vdW  Elec       q    Type
                         _______ _______ _______ _____ _____    ______ ____

>  <TORSDO>
F 7

$$$$
=
 OpenBabel11062418523D

 37 41  0  0  1  0  0  0  0  0999 V2000
  191.5180  174.0820  144.6180 C   0  0  1  0  0  0  0  0  0  0  0  0
  191.9430  174.9210  143.5800 O   0  0  0  0  0  1  0  0  0  0  0  0
  196.0340  174.6500  142.9550 N   0  0  0  0  0  0  0  0  0  0  0  0
  195.0860  174.2980  143.8620 C   0  0  0  0  0  0  0  0  0  0  0  0
  196.5610  175.9000  142.9350 C   0  0  0  0  0  3  0  0  0  0  0  0
  194.5070  172.9060  143.7950 C   0  0  1  0  0  3  0  0  0  0  0  0
  192.7530  173.7130  145.4960 C   0  0  1  0  0  3  0  0  0  0  0  0
  195.1950  176.5340  144.7580 C   0  0  0  0  0  0  0  0  0  0  0  0
  193.6090  172.5450  144.9860 C   0  0  0  0  0  2  0  0  0  0  0  0
  194.6320  175.2510  144.7940 C   0  0  0  0  0  0  0  0  0  0  0  0
  193.6570  174.8870  145.8780 C   0  0  0  0  0  2  0  0  0  0  0  0
  194.7980  177.5290  145.6960 N   0  0  0  0  0  1  0  0  0  0  0  0
  196.1430  176.8300  143.8310 N   0  0  0  0  0  0  0  0  0  0  0  0
  194.3250  171.5400  142.0630 C   0  0  0  0  0  1  0  0  0  0  0  0
  193.8170  172.7260  142.5940 O   0  0  0  0  0  0  0  0  0  0  0  0
  191.1510  175.7850  147.6040 C   0  0  0  0  0  1  0  0  0  0  0  0
  190.4240  174.8380  145.4210 C   0  0  2  0  0  3  0  0  0  0  0  0
  189.7940  177.1400  146.0510 C   0  0  2  0  0  3  0  0  0  0  0  0
  188.8400  176.6250  145.0010 C   0  0  1  0  0  0  0  0  0  0  0  0
  189.7630  177.7710  144.6600 C   0  0  0  0  0  2  0  0  0  0  0  0
  189.2050  175.2180  144.5920 C   0  0  0  0  0  2  0  0  0  0  0  0
  190.9010  176.1000  146.1440 C   0  0  1  0  0  3  0  0  0  0  0  0
  186.4700  177.0940  144.2000 C   0  0  0  0  0  0  0  0  0  0  0  0
  185.3180  177.2620  146.2440 C   0  0  2  0  0  3  0  0  0  0  0  0
  187.4390  176.9650  145.2220 N   0  0  0  0  0  0  0  0  0  0  0  0
  186.8230  177.1750  146.5230 C   0  0  0  0  0  2  0  0  0  0  0  0
  185.1300  177.4500  144.7190 C   0  0  1  0  0  3  0  0  0  0  0  0
  186.7320  176.9330  142.9780 O   0  0  0  0  0  0  0  0  0  0  0  0
  184.6410  178.2950  147.1310 C   0  0  0  0  0  1  0  0  0  0  0  0
  184.7850  178.8530  144.3050 C   0  0  0  0  0  0  0  0  0  0  0  0
  185.7430  179.8610  144.3460 O   0  0  0  0  0  1  0  0  0  0  0  0
  183.6180  179.1170  143.9150 O   0  0  0  0  0  0  0  0  0  0  0  0
  190.8660  172.8530  143.9840 C   0  0  0  0  0  0  0  0  0  0  0  0
  190.4770  171.9580  144.7220 O   0  0  0  0  0  0  0  0  0  0  0  0
  190.7310  172.6150  142.4950 C   0  0  2  0  0  3  0  0  0  0  0  0
  189.6400  173.2770  141.9280 O   0  0  0  0  0  1  0  0  0  0  0  0
  190.6480  171.1300  142.1930 C   0  0  0  0  0  1  0  0  0  0  0  0
  1  2  1  6  0  0  0
  3  4  1  0  0  0  0
  4 10  2  0  0  0  0
  5  3  2  0  0  0  0
  5 13  1  0  0  0  0
  6 15  1  6  0  0  0
  6  4  1  0  0  0  0
  6  9  1  0  0  0  0
  7  1  1  6  0  0  0
  7 11  1  0  0  0  0
  8 10  1  0  0  0  0
  8 12  1  0  0  0  0
  9  7  1  0  0  0  0
 10 11  1  0  0  0  0
 13  8  2  0  0  0  0
 14 15  1  0  0  0  0
 17  1  1  6  0  0  0
 17 22  1  0  0  0  0
 18 20  1  6  0  0  0
 18 22  1  0  0  0  0
 19 21  1  6  0  0  0
 19 25  1  0  0  0  0
 19 18  1  0  0  0  0
 20 19  1  0  0  0  0
 21 17  1  0  0  0  0
 22 16  1  1  0  0  0
 23 27  1  0  0  0  0
 23 25  1  0  0  0  0
 24 26  1  0  0  0  0
 24 29  1  1  0  0  0
 25 26  1  0  0  0  0
 27 30  1  1  0  0  0
 27 24  1  0  0  0  0
 28 23  2  0  0  0  0
 30 31  1  0  0  0  0
 32 30  2  0  0  0  0
 33  1  1  0  0  0  0
 33 34  2  0  0  0  0
 35 37  1  1  0  0  0
 35 33  1  0  0  0  0
 36 35  1  0  0  0  0
M  END
>  <MODEL>
4

>  <REMARK>
 VINA RESULT:      -7.6      2.241      3.605
  Name = 
  7 active torsions:
  status: ('A' for Active; 'I' for Inactive)
    1  A    between atoms: C_4  and  C_18
    2  A    between atoms: C_7  and  O_32
    3  A    between atoms: C_8  and  C_21
    4  A    between atoms: C_8  and  C_25
    5  A    between atoms: C_10  and  C_25
    6  A    between atoms: C_13  and  C_25
    7  A    between atoms: N_16  and  C_22
                            x       y       z     vdW  Elec       q    Type
                         _______ _______ _______ _____ _____    ______ ____

>  <TORSDO>
F 7

$$$$
=
 OpenBabel11062418523D

 37 41  0  0  1  0  0  0  0  0999 V2000
  190.9590  174.2480  143.5000 C   0  0  1  0  0  0  0  0  0  0  0  0
  192.0450  174.5700  142.6760 O   0  0  0  0  0  1  0  0  0  0  0  0
  195.6200  172.9600  143.8140 N   0  0  0  0  0  0  0  0  0  0  0  0
  194.3170  172.9900  144.1980 C   0  0  0  0  0  0  0  0  0  0  0  0
  196.5120  173.8730  144.2730 C   0  0  0  0  0  3  0  0  0  0  0  0
  193.3680  171.9740  143.6110 C   0  0  1  0  0  3  0  0  0  0  0  0
  191.4700  173.3520  144.6690 C   0  0  1  0  0  3  0  0  0  0  0  0
  194.8200  174.9250  145.5470 C   0  0  0  0  0  0  0  0  0  0  0  0
  191.9810  171.9600  144.2670 C   0  0  0  0  0  2  0  0  0  0  0  0
  193.8790  173.9950  145.0820 C   0  0  0  0  0  0  0  0  0  0  0  0
  192.4730  174.0170  145.6120 C   0  0  0  0  0  2  0  0  0  0  0  0
  194.4420  175.9450  146.4660 N   0  0  0  0  0  1  0  0  0  0  0  0
  196.1110  174.8450  145.1320 N   0  0  0  0  0  0  0  0  0  0  0  0
  193.4400  170.8940  141.6800 C   0  0  0  0  0  1  0  0  0  0  0  0
  193.2520  172.1620  142.2310 O   0  0  0  0  0  0  0  0  0  0  0  0
  191.9100  177.4920  144.2260 C   0  0  0  0  0  1  0  0  0  0  0  0
  190.3350  175.5790  144.0030 C   0  0  2  0  0  3  0  0  0  0  0  0
  189.7090  177.8110  143.1580 C   0  0  2  0  0  3  0  0  0  0  0  0
  188.4620  176.9950  143.3960 C   0  0  1  0  0  0  0  0  0  0  0  0
  188.8280  177.3870  141.9840 C   0  0  0  0  0  2  0  0  0  0  0  0
  188.8160  175.6200  143.9100 C   0  0  0  0  0  2  0  0  0  0  0  0
  190.8720  176.8460  143.3330 C   0  0  1  0  0  3  0  0  0  0  0  0
  187.2470  178.0150  145.3860 C   0  0  0  0  0  0  0  0  0  0  0  0
  185.4840  179.1500  144.3170 C   0  0  2  0  0  3  0  0  0  0  0  0
  187.3560  177.7230  144.0060 N   0  0  0  0  0  0  0  0  0  0  0  0
  186.2290  178.2950  143.2850 C   0  0  0  0  0  2  0  0  0  0  0  0
  186.0150  178.7650  145.7200 C   0  0  1  0  0  3  0  0  0  0  0  0
  188.1070  177.6590  146.2350 O   0  0  0  0  0  0  0  0  0  0  0  0
  183.9780  179.0710  144.1290 C   0  0  0  0  0  1  0  0  0  0  0  0
  185.0890  177.8860  146.5120 C   0  0  0  0  0  0  0  0  0  0  0  0
  185.0080  176.5210  146.2530 O   0  0  0  0  0  0  0  0  0  0  0  0
  184.3810  178.3900  147.4230 O   0  0  0  0  0  1  0  0  0  0  0  0
  189.9150  173.5410  142.6350 C   0  0  0  0  0  0  0  0  0  0  0  0
  189.1390  172.7680  143.1810 O   0  0  0  0  0  0  0  0  0  0  0  0
  189.8120  173.6600  141.1290 C   0  0  2  0  0  3  0  0  0  0  0  0
  188.5640  174.1100  140.6970 O   0  0  0  0  0  1  0  0  0  0  0  0
  190.1440  172.3380  140.4620 C   0  0  0  0  0  1  0  0  0  0  0  0
  1  2  1  6  0  0  0
  3  4  2  0  0  0  0
  3  5  1  0  0  0  0
  4 10  1  0  0  0  0
  5 13  2  0  0  0  0
  6 15  1  6  0  0  0
  6  4  1  0  0  0  0
  6  9  1  0  0  0  0
  7  1  1  6  0  0  0
  7 11  1  0  0  0  0
  8 12  1  0  0  0  0
  9  7  1  0  0  0  0
 10  8  2  0  0  0  0
 10 11  1  0  0  0  0
 13  8  1  0  0  0  0
 14 15  1  0  0  0  0
 17  1  1  6  0  0  0
 18 20  1  6  0  0  0
 18 22  1  0  0  0  0
 18 19  1  0  0  0  0
 19 20  1  6  0  0  0
 19 21  1  0  0  0  0
 19 25  1  0  0  0  0
 21 17  1  0  0  0  0
 22 17  1  0  0  0  0
 22 16  1  1  0  0  0
 23 27  1  0  0  0  0
 23 28  2  0  0  0  0
 24 29  1  1  0  0  0
 24 27  1  0  0  0  0
 25 23  1  0  0  0  0
 26 25  1  0  0  0  0
 26 24  1  0  0  0  0
 27 30  1  6  0  0  0
 30 32  1  0  0  0  0
 31 30  2  0  0  0  0
 33 34  2  0  0  0  0
 33  1  1  0  0  0  0
 35 37  1  6  0  0  0
 35 33  1  0  0  0  0
 36 35  1  0  0  0  0
M  END
>  <MODEL>
5

>  <REMARK>
 VINA RESULT:      -7.3      1.568      2.544
  Name = 
  7 active torsions:
  status: ('A' for Active; 'I' for Inactive)
    1  A    between atoms: C_4  and  C_18
    2  A    between atoms: C_7  and  O_32
    3  A    between atoms: C_8  and  C_21
    4  A    between atoms: C_8  and  C_25
    5  A    between atoms: C_10  and  C_25
    6  A    between atoms: C_13  and  C_25
    7  A    between atoms: N_16  and  C_22
                            x       y       z     vdW  Elec       q    Type
                         _______ _______ _______ _____ _____    ______ ____

>  <TORSDO>
F 7

$$$$
=
 OpenBabel11062418523D

 37 41  0  0  1  0  0  0  0  0999 V2000
  192.2300  174.9470  144.3180 C   0  0  1  0  0  0  0  0  0  0  0  0
  191.7250  173.7320  144.7980 O   0  0  0  0  0  1  0  0  0  0  0  0
  192.7420  170.5840  142.2730 N   0  0  0  0  0  0  0  0  0  0  0  0
  192.7060  171.9420  142.2960 C   0  0  0  0  0  0  0  0  0  0  0  0
  191.6260  169.8520  142.0270 C   0  0  0  0  0  3  0  0  0  0  0  0
  193.9730  172.6920  142.6250 C   0  0  1  0  0  3  0  0  0  0  0  0
  192.5080  174.8010  142.7910 C   0  0  1  0  0  3  0  0  0  0  0  0
  190.3460  171.8280  141.8130 C   0  0  0  0  0  0  0  0  0  0  0  0
  193.8750  174.2090  142.4160 C   0  0  0  0  0  2  0  0  0  0  0  0
  191.4840  172.6050  142.0700 C   0  0  0  0  0  0  0  0  0  0  0  0
  191.4070  174.1040  141.9900 C   0  0  0  0  0  2  0  0  0  0  0  0
  189.0890  172.4440  141.5470 N   0  0  0  0  0  1  0  0  0  0  0  0
  190.4410  170.4740  141.7990 N   0  0  0  0  0  0  0  0  0  0  0  0
  195.7680  172.5340  143.9110 C   0  0  0  0  0  1  0  0  0  0  0  0
  194.3780  172.4070  143.9310 O   0  0  0  0  0  0  0  0  0  0  0  0
  191.5960  178.2590  143.5560 C   0  0  0  0  0  1  0  0  0  0  0  0
  191.1820  176.0520  144.6260 C   0  0  2  0  0  3  0  0  0  0  0  0
  189.3370  177.2660  143.5250 C   0  0  2  0  0  3  0  0  0  0  0  0
  188.7700  176.2800  144.5180 C   0  0  1  0  0  0  0  0  0  0  0  0
  188.5150  176.0720  143.0440 C   0  0  0  0  0  2  0  0  0  0  0  0
  189.8780  175.5180  145.2050 C   0  0  0  0  0  2  0  0  0  0  0  0
  190.8260  176.9600  143.4480 C   0  0  1  0  0  3  0  0  0  0  0  0
  186.3050  176.8100  144.8650 C   0  0  0  0  0  0  0  0  0  0  0  0
  186.2840  177.4350  147.1330 C   0  0  2  0  0  3  0  0  0  0  0  0
  187.6490  176.7760  145.3070 N   0  0  0  0  0  0  0  0  0  0  0  0
  187.7360  177.2650  146.6740 C   0  0  0  0  0  2  0  0  0  0  0  0
  185.3800  177.3690  145.8770 C   0  0  1  0  0  3  0  0  0  0  0  0
  185.9450  176.4160  143.7240 O   0  0  0  0  0  0  0  0  0  0  0  0
  186.1130  178.6640  148.0130 C   0  0  0  0  0  1  0  0  0  0  0  0
  184.8690  178.7030  145.4110 C   0  0  0  0  0  0  0  0  0  0  0  0
  185.6920  179.5700  144.6980 O   0  0  0  0  0  0  0  0  0  0  0  0
  183.6830  179.0380  145.6650 O   0  0  0  0  0  1  0  0  0  0  0  0
  193.4960  175.2690  145.1130 C   0  0  0  0  0  0  0  0  0  0  0  0
  193.7670  174.5670  146.0780 O   0  0  0  0  0  0  0  0  0  0  0  0
  194.4100  176.4460  144.8470 C   0  0  2  0  0  3  0  0  0  0  0  0
  195.6780  176.0690  144.4010 O   0  0  0  0  0  1  0  0  0  0  0  0
  194.5360  177.3180  146.0820 C   0  0  0  0  0  1  0  0  0  0  0  0
  1  2  1  1  0  0  0
  1 33  1  0  0  0  0
  3  4  1  0  0  0  0
  4  6  1  0  0  0  0
  5  3  2  0  0  0  0
  6 15  1  1  0  0  0
  7  1  1  1  0  0  0
  8 10  1  0  0  0  0
  9  6  1  0  0  0  0
  9  7  1  0  0  0  0
 10  4  2  0  0  0  0
 11 10  1  0  0  0  0
 11  7  1  0  0  0  0
 12  8  1  0  0  0  0
 13  8  2  0  0  0  0
 13  5  1  0  0  0  0
 14 15  1  0  0  0  0
 17  1  1  6  0  0  0
 17 21  1  0  0  0  0
 18 20  1  6  0  0  0
 18 19  1  0  0  0  0
 19 20  1  6  0  0  0
 19 21  1  0  0  0  0
 19 25  1  0  0  0  0
 22 18  1  0  0  0  0
 22 16  1  1  0  0  0
 22 17  1  0  0  0  0
 23 25  1  0  0  0  0
 23 27  1  0  0  0  0
 24 29  1  6  0  0  0
 25 26  1  0  0  0  0
 26 24  1  0  0  0  0
 27 30  1  6  0  0  0
 27 24  1  0  0  0  0
 28 23  2  0  0  0  0
 30 32  1  0  0  0  0
 31 30  2  0  0  0  0
 33 34  2  0  0  0  0
 35 33  1  0  0  0  0
 35 37  1  1  0  0  0
 36 35  1  0  0  0  0
M  END
>  <MODEL>
6

>  <REMARK>
 VINA RESULT:      -7.1      2.738      4.565
  Name = 
  7 active torsions:
  status: ('A' for Active; 'I' for Inactive)
    1  A    between atoms: C_4  and  C_18
    2  A    between atoms: C_7  and  O_32
    3  A    between atoms: C_8  and  C_21
    4  A    between atoms: C_8  and  C_25
    5  A    between atoms: C_10  and  C_25
    6  A    between atoms: C_13  and  C_25
    7  A    between atoms: N_16  and  C_22
                            x       y       z     vdW  Elec       q    Type
                         _______ _______ _______ _____ _____    ______ ____

>  <TORSDO>
F 7

$$$$
=
 OpenBabel11062418523D

 37 41  0  0  1  0  0  0  0  0999 V2000
  192.0490  175.3230  144.0970 C   0  0  1  0  0  0  0  0  0  0  0  0
  192.7110  174.1830  144.5720 O   0  0  0  0  0  1  0  0  0  0  0  0
  195.2480  172.4320  141.8840 N   0  0  0  0  0  0  0  0  0  0  0  0
  194.3510  173.4490  141.9660 C   0  0  0  0  0  0  0  0  0  0  0  0
  194.8600  171.1740  141.5560 C   0  0  0  0  0  3  0  0  0  0  0  0
  194.8430  174.8120  142.3860 C   0  0  1  0  0  3  0  0  0  0  0  0
  192.3660  175.4840  142.5790 C   0  0  1  0  0  3  0  0  0  0  0  0
  192.6130  171.8860  141.3730 C   0  0  0  0  0  0  0  0  0  0  0  0
  193.7970  175.9270  142.2400 C   0  0  0  0  0  2  0  0  0  0  0  0
  192.9890  173.1920  141.7160 C   0  0  0  0  0  0  0  0  0  0  0  0
  191.9710  174.2970  141.6990 C   0  0  0  0  0  2  0  0  0  0  0  0
  191.2550  171.5730  141.0780 N   0  0  0  0  0  1  0  0  0  0  0  0
  193.5530  170.9080  141.3030 N   0  0  0  0  0  0  0  0  0  0  0  0
  196.5190  175.4960  143.6590 C   0  0  0  0  0  1  0  0  0  0  0  0
  195.3280  174.7700  143.6950 O   0  0  0  0  0  0  0  0  0  0  0  0
  189.7660  172.7890  144.6610 C   0  0  0  0  0  1  0  0  0  0  0  0
  190.5310  175.1380  144.3690 C   0  0  2  0  0  3  0  0  0  0  0  0
  188.9990  174.5480  146.2120 C   0  0  2  0  0  3  0  0  0  0  0  0
  188.8920  176.0250  145.9210 C   0  0  1  0  0  0  0  0  0  0  0  0
  189.4590  175.5740  147.2470 C   0  0  0  0  0  2  0  0  0  0  0  0
  189.8230  176.4160  144.7980 C   0  0  0  0  0  2  0  0  0  0  0  0
  190.1780  174.0520  145.3880 C   0  0  1  0  0  3  0  0  0  0  0  0
  186.6470  176.5510  144.8430 C   0  0  0  0  0  0  0  0  0  0  0  0
  185.4170  177.3240  146.6940 C   0  0  2  0  0  3  0  0  0  0  0  0
  187.5360  176.5600  145.9430 N   0  0  0  0  0  0  0  0  0  0  0  0
  186.8820  177.1400  147.1070 C   0  0  0  0  0  2  0  0  0  0  0  0
  185.3370  177.1660  145.1550 C   0  0  1  0  0  3  0  0  0  0  0  0
  186.9520  176.0780  143.7160 O   0  0  0  0  0  0  0  0  0  0  0  0
  184.8310  178.6070  147.2630 C   0  0  0  0  0  1  0  0  0  0  0  0
  185.1960  178.4610  144.4050 C   0  0  0  0  0  0  0  0  0  0  0  0
  186.2830  179.3160  144.2540 O   0  0  0  0  0  1  0  0  0  0  0  0
  184.0830  178.7720  143.9070 O   0  0  0  0  0  0  0  0  0  0  0  0
  192.5300  176.5160  144.9240 C   0  0  0  0  0  0  0  0  0  0  0  0
  192.3480  177.6400  144.4770 O   0  0  0  0  0  0  0  0  0  0  0  0
  193.2920  176.4150  146.2290 C   0  0  2  0  0  3  0  0  0  0  0  0
  192.5340  176.7910  147.3390 O   0  0  0  0  0  1  0  0  0  0  0  0
  194.5660  177.2370  146.1710 C   0  0  0  0  0  1  0  0  0  0  0  0
  1  2  1  1  0  0  0
  1 33  1  0  0  0  0
  3  4  1  0  0  0  0
  4  6  1  0  0  0  0
  5  3  2  0  0  0  0
  6 15  1  1  0  0  0
  7  1  1  1  0  0  0
  8 10  1  0  0  0  0
  9  6  1  0  0  0  0
  9  7  1  0  0  0  0
 10  4  2  0  0  0  0
 11 10  1  0  0  0  0
 11  7  1  0  0  0  0
 12  8  1  0  0  0  0
 13  8  2  0  0  0  0
 13  5  1  0  0  0  0
 14 15  1  0  0  0  0
 17  1  1  1  0  0  0
 17 21  1  0  0  0  0
 17 22  1  0  0  0  0
 18 20  1  1  0  0  0
 19 21  1  6  0  0  0
 19 25  1  0  0  0  0
 19 18  1  0  0  0  0
 19 20  1  0  0  0  0
 22 16  1  6  0  0  0
 22 18  1  0  0  0  0
 23 27  1  0  0  0  0
 23 25  1  0  0  0  0
 24 26  1  0  0  0  0
 24 29  1  6  0  0  0
 25 26  1  0  0  0  0
 27 30  1  6  0  0  0
 27 24  1  0  0  0  0
 28 23  2  0  0  0  0
 31 30  1  0  0  0  0
 32 30  2  0  0  0  0
 33 35  1  0  0  0  0
 34 33  2  0  0  0  0
 35 37  1  6  0  0  0
 35 36  1  0  0  0  0
M  END
>  <MODEL>
7

>  <REMARK>
 VINA RESULT:      -6.9      2.866      4.966
  Name = 
  7 active torsions:
  status: ('A' for Active; 'I' for Inactive)
    1  A    between atoms: C_4  and  C_18
    2  A    between atoms: C_7  and  O_32
    3  A    between atoms: C_8  and  C_21
    4  A    between atoms: C_8  and  C_25
    5  A    between atoms: C_10  and  C_25
    6  A    between atoms: C_13  and  C_25
    7  A    between atoms: N_16  and  C_22
                            x       y       z     vdW  Elec       q    Type
                         _______ _______ _______ _____ _____    ______ ____

>  <TORSDO>
F 7

$$$$
=
 OpenBabel11062418523D

 37 41  0  0  1  0  0  0  0  0999 V2000
  191.8100  174.1370  142.3900 C   0  0  1  0  0  0  0  0  0  0  0  0
  192.3100  175.3980  142.0420 O   0  0  0  0  0  1  0  0  0  0  0  0
  196.4500  175.5120  142.6340 N   0  0  0  0  0  0  0  0  0  0  0  0
  195.3600  174.7760  142.9720 C   0  0  0  0  0  0  0  0  0  0  0  0
  196.7460  176.6710  143.2750 C   0  0  0  0  0  3  0  0  0  0  0  0
  195.0620  173.5250  142.1840 C   0  0  1  0  0  3  0  0  0  0  0  0
  192.7950  173.4740  143.4010 C   0  0  1  0  0  3  0  0  0  0  0  0
  194.8420  176.4250  144.6550 C   0  0  0  0  0  0  0  0  0  0  0  0
  193.9420  172.6620  142.7800 C   0  0  0  0  0  2  0  0  0  0  0  0
  194.5130  175.2280  144.0030 C   0  0  0  0  0  0  0  0  0  0  0  0
  193.3490  174.4060  144.4800 C   0  0  0  0  0  2  0  0  0  0  0  0
  194.0400  176.9150  145.7250 N   0  0  0  0  0  1  0  0  0  0  0  0
  195.9470  177.1180  144.2770 N   0  0  0  0  0  0  0  0  0  0  0  0
  195.2420  172.7620  140.1140 C   0  0  0  0  0  1  0  0  0  0  0  0
  194.7730  173.8470  140.8560 O   0  0  0  0  0  0  0  0  0  0  0  0
  189.6440  172.5930  144.5990 C   0  0  0  0  0  1  0  0  0  0  0  0
  190.3910  174.3380  142.9910 C   0  0  2  0  0  3  0  0  0  0  0  0
  189.3130  174.9830  145.1150 C   0  0  2  0  0  3  0  0  0  0  0  0
  189.1850  176.1120  144.1220 C   0  0  1  0  0  0  0  0  0  0  0  0
  190.0310  176.3090  145.3580 C   0  0  0  0  0  2  0  0  0  0  0  0
  189.8420  175.7470  142.8120 C   0  0  0  0  0  2  0  0  0  0  0  0
  190.2520  173.9740  144.4710 C   0  0  1  0  0  3  0  0  0  0  0  0
  186.7680  176.3470  143.3620 C   0  0  0  0  0  0  0  0  0  0  0  0
  186.0280  178.1180  144.7230 C   0  0  2  0  0  3  0  0  0  0  0  0
  187.8890  176.7780  144.1090 N   0  0  0  0  0  0  0  0  0  0  0  0
  187.5420  177.9530  144.8940 C   0  0  0  0  0  2  0  0  0  0  0  0
  185.5860  177.2200  143.5410 C   0  0  1  0  0  3  0  0  0  0  0  0
  186.7870  175.3320  142.6150 O   0  0  0  0  0  0  0  0  0  0  0  0
  185.6290  179.5820  144.6330 C   0  0  0  0  0  1  0  0  0  0  0  0
  185.3130  177.9670  142.2650 C   0  0  0  0  0  0  0  0  0  0  0  0
  184.0080  178.2210  141.8560 O   0  0  0  0  0  1  0  0  0  0  0  0
  186.2760  178.3680  141.5610 O   0  0  0  0  0  0  0  0  0  0  0  0
  191.6620  173.3250  141.1030 C   0  0  0  0  0  0  0  0  0  0  0  0
  191.9440  173.8660  140.0430 O   0  0  0  0  0  0  0  0  0  0  0  0
  191.1130  171.9160  141.0260 C   0  0  2  0  0  3  0  0  0  0  0  0
  191.9870  171.0180  140.4090 O   0  0  0  0  0  1  0  0  0  0  0  0
  189.7720  171.8990  140.3180 C   0  0  0  0  0  1  0  0  0  0  0  0
  1  2  1  6  0  0  0
  3  4  2  0  0  0  0
  3  5  1  0  0  0  0
  4 10  1  0  0  0  0
  5 13  2  0  0  0  0
  6 15  1  6  0  0  0
  6  9  1  0  0  0  0
  6  4  1  0  0  0  0
  7  1  1  6  0  0  0
  7 11  1  0  0  0  0
  8 12  1  0  0  0  0
  9  7  1  0  0  0  0
 10 11  1  0  0  0  0
 10  8  2  0  0  0  0
 13  8  1  0  0  0  0
 14 15  1  0  0  0  0
 17  1  1  1  0  0  0
 17 22  1  0  0  0  0
 18 20  1  1  0  0  0
 19 21  1  6  0  0  0
 19 18  1  0  0  0  0
 19 20  1  0  0  0  0
 21 17  1  0  0  0  0
 22 16  1  6  0  0  0
 22 18  1  0  0  0  0
 23 27  1  0  0  0  0
 23 25  1  0  0  0  0
 24 29  1  6  0  0  0
 24 26  1  0  0  0  0
 25 19  1  0  0  0  0
 25 26  1  0  0  0  0
 27 30  1  6  0  0  0
 27 24  1  0  0  0  0
 28 23  2  0  0  0  0
 31 30  1  0  0  0  0
 32 30  2  0  0  0  0
 33  1  1  0  0  0  0
 34 33  2  0  0  0  0
 35 37  1  6  0  0  0
 35 33  1  0  0  0  0
 36 35  1  0  0  0  0
M  END
>  <MODEL>
8

>  <REMARK>
 VINA RESULT:      -6.8      2.375      3.821
  Name = 
  7 active torsions:
  status: ('A' for Active; 'I' for Inactive)
    1  A    between atoms: C_4  and  C_18
    2  A    between atoms: C_7  and  O_32
    3  A    between atoms: C_8  and  C_21
    4  A    between atoms: C_8  and  C_25
    5  A    between atoms: C_10  and  C_25
    6  A    between atoms: C_13  and  C_25
    7  A    between atoms: N_16  and  C_22
                            x       y       z     vdW  Elec       q    Type
                         _______ _______ _______ _____ _____    ______ ____

>  <TORSDO>
F 7

$$$$
=
 OpenBabel11062418523D

 37 41  0  0  1  0  0  0  0  0999 V2000
  191.6630  174.0010  143.5270 C   0  0  1  0  0  0  0  0  0  0  0  0
  190.7490  172.9500  143.3740 O   0  0  0  0  0  1  0  0  0  0  0  0
  191.2770  171.0300  139.7180 N   0  0  0  0  0  0  0  0  0  0  0  0
  191.6270  172.1730  140.3640 C   0  0  0  0  0  0  0  0  0  0  0  0
  190.0640  170.8990  139.1230 C   0  0  0  0  0  3  0  0  0  0  0  0
  192.9710  172.2320  141.0470 C   0  0  1  0  0  3  0  0  0  0  0  0
  192.1670  174.4300  142.1150 C   0  0  1  0  0  3  0  0  0  0  0  0
  189.4660  173.0840  139.8010 C   0  0  0  0  0  0  0  0  0  0  0  0
  193.3520  173.6280  141.5580 C   0  0  0  0  0  2  0  0  0  0  0  0
  190.7110  173.2400  140.4270 C   0  0  0  0  0  0  0  0  0  0  0  0
  191.0820  174.5590  141.0450 C   0  0  0  0  0  2  0  0  0  0  0  0
  188.5120  174.1410  139.8050 N   0  0  0  0  0  1  0  0  0  0  0  0
  189.1710  171.9200  139.1660 N   0  0  0  0  0  0  0  0  0  0  0  0
  194.3670  170.9190  142.1540 C   0  0  0  0  0  1  0  0  0  0  0  0
  193.0270  171.3020  142.0870 O   0  0  0  0  0  0  0  0  0  0  0  0
  192.2140  177.2830  144.4620 C   0  0  0  0  0  1  0  0  0  0  0  0
  190.9400  175.1550  144.2750 C   0  0  2  0  0  3  0  0  0  0  0  0
  189.8360  177.3110  143.8040 C   0  0  2  0  0  3  0  0  0  0  0  0
  188.7930  176.2740  144.1430 C   0  0  1  0  0  0  0  0  0  0  0  0
  188.8380  176.8460  142.7460 C   0  0  0  0  0  2  0  0  0  0  0  0
  189.4400  174.9410  144.4310 C   0  0  0  0  0  2  0  0  0  0  0  0
  191.1470  176.5490  143.6790 C   0  0  1  0  0  3  0  0  0  0  0  0
  186.3480  176.7820  144.6340 C   0  0  0  0  0  0  0  0  0  0  0  0
  186.4440  177.3510  146.9150 C   0  0  2  0  0  3  0  0  0  0  0  0
  187.7130  176.7440  145.0020 N   0  0  0  0  0  0  0  0  0  0  0  0
  187.8710  177.2000  146.3750 C   0  0  0  0  0  2  0  0  0  0  0  0
  185.4760  177.3110  145.7070 C   0  0  1  0  0  3  0  0  0  0  0  0
  185.9290  176.4140  143.5030 O   0  0  0  0  0  0  0  0  0  0  0  0
  186.3150  178.5560  147.8320 C   0  0  0  0  0  1  0  0  0  0  0  0
  184.9350  178.6540  145.3020 C   0  0  0  0  0  0  0  0  0  0  0  0
  185.7350  179.5650  144.6190 O   0  0  0  0  0  0  0  0  0  0  0  0
  183.7450  178.9550  145.5810 O   0  0  0  0  0  1  0  0  0  0  0  0
  192.7970  173.5010  144.4240 C   0  0  0  0  0  0  0  0  0  0  0  0
  192.6440  172.4390  145.0110 O   0  0  0  0  0  0  0  0  0  0  0  0
  194.0750  174.2610  144.7090 C   0  0  2  0  0  3  0  0  0  0  0  0
  195.2270  173.5120  144.4590 O   0  0  0  0  0  1  0  0  0  0  0  0
  194.0900  174.7710  146.1370 C   0  0  0  0  0  1  0  0  0  0  0  0
  1  2  1  6  0  0  0
  1 33  1  0  0  0  0
  3  4  1  0  0  0  0
  4 10  2  0  0  0  0
  4  6  1  0  0  0  0
  5 13  1  0  0  0  0
  5  3  2  0  0  0  0
  6  9  1  0  0  0  0
  6 15  1  1  0  0  0
  7  1  1  1  0  0  0
  8 12  1  0  0  0  0
  8 10  1  0  0  0  0
  9  7  1  0  0  0  0
 10 11  1  0  0  0  0
 11  7  1  0  0  0  0
 13  8  2  0  0  0  0
 15 14  1  0  0  0  0
 17  1  1  6  0  0  0
 17 21  1  0  0  0  0
 18 20  1  6  0  0  0
 18 19  1  0  0  0  0
 19 20  1  6  0  0  0
 19 21  1  0  0  0  0
 19 25  1  0  0  0  0
 22 18  1  0  0  0  0
 22 17  1  0  0  0  0
 22 16  1  1  0  0  0
 23 25  1  0  0  0  0
 23 27  1  0  0  0  0
 24 29  1  6  0  0  0
 25 26  1  0  0  0  0
 26 24  1  0  0  0  0
 27 30  1  6  0  0  0
 27 24  1  0  0  0  0
 28 23  2  0  0  0  0
 30 32  1  0  0  0  0
 31 30  2  0  0  0  0
 33 35  1  0  0  0  0
 33 34  2  0  0  0  0
 35 37  1  1  0  0  0
 36 35  1  0  0  0  0
M  END
>  <MODEL>
9

>  <REMARK>
 VINA RESULT:      -6.8      2.856      4.892
  Name = 
  7 active torsions:
  status: ('A' for Active; 'I' for Inactive)
    1  A    between atoms: C_4  and  C_18
    2  A    between atoms: C_7  and  O_32
    3  A    between atoms: C_8  and  C_21
    4  A    between atoms: C_8  and  C_25
    5  A    between atoms: C_10  and  C_25
    6  A    between atoms: C_13  and  C_25
    7  A    between atoms: N_16  and  C_22
                            x       y       z     vdW  Elec       q    Type
                         _______ _______ _______ _____ _____    ______ ____

>  <TORSDO>
F 7

$$$$
