=
 OpenBabel11072409413D

 25 26  0  0  1  0  0  0  0  0999 V2000
  186.1270  176.7270  145.0800 N   0  0  0  0  0  2  0  0  0  0  0  0
  186.9850  177.3980  146.0500 C   0  0  2  0  0  3  0  0  0  0  0  0
  188.3170  176.7180  146.1660 C   0  0  0  0  0  0  0  0  0  0  0  0
  189.7240  174.9020  147.0280 C   0  0  0  0  0  3  0  0  0  0  0  0
  190.6540  176.6340  145.6410 C   0  0  0  0  0  0  0  0  0  0  0  0
  192.1120  175.0840  146.3260 O   0  0  0  0  0  0  0  0  0  0  0  0
  192.8450  176.0200  145.5230 C   0  0  0  0  0  2  0  0  0  0  0  0
  190.7960  175.4950  146.3670 C   0  0  0  0  0  0  0  0  0  0  0  0
  191.8760  176.9910  145.1040 O   0  0  0  0  0  0  0  0  0  0  0  0
  189.4300  177.2830  145.5130 C   0  0  0  0  0  3  0  0  0  0  0  0
  188.4690  175.5290  146.9220 C   0  0  0  0  0  3  0  0  0  0  0  0
  186.2860  177.5550  147.4020 C   0  0  0  0  0  2  0  0  0  0  0  0
  186.6390  178.8630  148.0940 C   0  0  0  0  0  1  0  0  0  0  0  0
  185.2340  177.7340  144.5310 C   0  0  0  0  0  2  0  0  0  0  0  0
  186.0350  178.9050  143.9880 C   0  0  2  0  0  3  0  0  0  0  0  0
  185.4120  180.1040  144.3400 O   0  0  0  0  0  1  0  0  0  0  0  0
  186.1140  178.7900  142.4770 C   0  0  0  0  0  2  0  0  0  0  0  0
  187.4370  178.1650  142.0610 C   0  0  0  0  0  2  0  0  0  0  0  0
  187.2680  177.3530  140.7870 C   0  0  0  0  0  2  0  0  0  0  0  0
  187.8170  175.9430  140.9530 C   0  0  0  0  0  2  0  0  0  0  0  0
  187.5100  175.4510  142.2230 O   0  0  0  0  0  0  0  0  0  0  0  0
  188.1330  174.2040  142.2770 C   0  0  0  0  0  2  0  0  0  0  0  0
  189.3080  174.2640  143.2340 C   0  0  0  0  0  2  0  0  0  0  0  0
  188.8790  171.9230  143.0500 O   0  0  0  0  0  1  0  0  0  0  0  0
  189.6910  172.8650  143.6820 C   0  0  0  0  0  2  0  0  0  0  0  0
  1  2  1  0  0  0  0
  2  3  1  0  0  0  0
  2 12  1  1  0  0  0
  3 11  1  0  0  0  0
  5  8  2  0  0  0  0
  6  8  1  0  0  0  0
  7  6  1  0  0  0  0
  8  4  1  0  0  0  0
  9  7  1  0  0  0  0
  9  5  1  0  0  0  0
 10  5  1  0  0  0  0
 10  3  2  0  0  0  0
 11  4  2  0  0  0  0
 12 13  1  0  0  0  0
 14  1  1  0  0  0  0
 15 16  1  6  0  0  0
 15 14  1  0  0  0  0
 17 15  1  0  0  0  0
 18 17  1  0  0  0  0
 19 20  1  0  0  0  0
 19 18  1  0  0  0  0
 20 21  1  0  0  0  0
 21 22  1  0  0  0  0
 22 23  1  0  0  0  0
 23 25  1  0  0  0  0
 24 25  1  0  0  0  0
M  END
>  <MODEL>
1

>  <REMARK>
 VINA RESULT:      -5.4      0.000      0.000
  Name = 
  13 active torsions:
  status: ('A' for Active; 'I' for Inactive)
    1  A    between atoms: C_1  and  C_12
    2  A    between atoms: C_2  and  C_10
    3  A    between atoms: C_2  and  O_16
    4  A    between atoms: C_4  and  C_13
    5  A    between atoms: C_4  and  C_18
    6  A    between atoms: C_5  and  C_12
    7  A    between atoms: C_7  and  C_11
    8  A    between atoms: C_7  and  O_16
    9  A    between atoms: C_8  and  C_10
   10  A    between atoms: C_8  and  C_13
   11  A    between atoms: C_11  and  C_25
   12  A    between atoms: C_12  and  N_19
   13  A    between atoms: C_18  and  N_19
                            x       y       z     vdW  Elec       q    Type
                         _______ _______ _______ _____ _____    ______ ____

>  <TORSDO>
F 13

$$$$
=
 OpenBabel11072409413D

 25 26  0  0  1  0  0  0  0  0999 V2000
  188.0420  177.1980  146.8780 N   0  0  0  0  0  2  0  0  0  0  0  0
  186.6130  177.2740  146.5980 C   0  0  2  0  0  3  0  0  0  0  0  0
  186.3530  177.7320  145.1930 C   0  0  0  0  0  0  0  0  0  0  0  0
  185.5940  179.4430  143.6060 C   0  0  0  0  0  3  0  0  0  0  0  0
  186.3690  177.2990  142.8360 C   0  0  0  0  0  0  0  0  0  0  0  0
  185.7140  178.7040  141.2250 O   0  0  0  0  0  0  0  0  0  0  0  0
  186.1340  177.4940  140.5780 C   0  0  0  0  0  2  0  0  0  0  0  0
  185.8750  178.5380  142.5860 C   0  0  0  0  0  0  0  0  0  0  0  0
  186.5460  176.6250  141.6430 O   0  0  0  0  0  0  0  0  0  0  0  0
  186.6230  176.8500  144.1280 C   0  0  0  0  0  3  0  0  0  0  0  0
  185.8390  179.0260  144.9270 C   0  0  0  0  0  3  0  0  0  0  0  0
  185.8840  178.1280  147.6380 C   0  0  0  0  0  2  0  0  0  0  0  0
  186.8200  179.0730  148.3770 C   0  0  0  0  0  1  0  0  0  0  0  0
  188.3800  175.7890  146.9960 C   0  0  0  0  0  2  0  0  0  0  0  0
  189.7010  175.5080  146.3000 C   0  0  2  0  0  3  0  0  0  0  0  0
  189.5620  174.3980  145.4620 O   0  0  0  0  0  1  0  0  0  0  0  0
  190.7620  175.2320  147.3470 C   0  0  0  0  0  2  0  0  0  0  0  0
  191.7890  176.3540  147.3700 C   0  0  0  0  0  2  0  0  0  0  0  0
  193.0320  175.9570  146.5890 C   0  0  0  0  0  2  0  0  0  0  0  0
  193.0410  176.5910  145.2050 C   0  0  0  0  0  2  0  0  0  0  0  0
  192.6110  175.6700  144.2490 O   0  0  0  0  0  0  0  0  0  0  0  0
  191.9000  176.4330  143.3230 C   0  0  0  0  0  2  0  0  0  0  0  0
  191.5240  177.7650  143.9430 C   0  0  0  0  0  2  0  0  0  0  0  0
  189.7880  177.8580  142.3070 O   0  0  0  0  0  1  0  0  0  0  0  0
  190.0690  178.0860  143.6550 C   0  0  0  0  0  2  0  0  0  0  0  0
  1 14  1  0  0  0  0
  2  1  1  0  0  0  0
  2 12  1  1  0  0  0
  3  2  1  0  0  0  0
  4 11  2  0  0  0  0
  5 10  1  0  0  0  0
  6  8  1  0  0  0  0
  7  6  1  0  0  0  0
  7  9  1  0  0  0  0
  8  5  2  0  0  0  0
  8  4  1  0  0  0  0
  9  5  1  0  0  0  0
 10  3  2  0  0  0  0
 11  3  1  0  0  0  0
 12 13  1  0  0  0  0
 15 16  1  6  0  0  0
 15 14  1  0  0  0  0
 15 17  1  0  0  0  0
 17 18  1  0  0  0  0
 19 18  1  0  0  0  0
 20 19  1  0  0  0  0
 21 20  1  0  0  0  0
 22 23  1  0  0  0  0
 22 21  1  0  0  0  0
 24 25  1  0  0  0  0
 25 23  1  0  0  0  0
M  END
>  <MODEL>
2

>  <REMARK>
 VINA RESULT:      -5.3      2.028      5.726
  Name = 
  13 active torsions:
  status: ('A' for Active; 'I' for Inactive)
    1  A    between atoms: C_1  and  C_12
    2  A    between atoms: C_2  and  C_10
    3  A    between atoms: C_2  and  O_16
    4  A    between atoms: C_4  and  C_13
    5  A    between atoms: C_4  and  C_18
    6  A    between atoms: C_5  and  C_12
    7  A    between atoms: C_7  and  C_11
    8  A    between atoms: C_7  and  O_16
    9  A    between atoms: C_8  and  C_10
   10  A    between atoms: C_8  and  C_13
   11  A    between atoms: C_11  and  C_25
   12  A    between atoms: C_12  and  N_19
   13  A    between atoms: C_18  and  N_19
                            x       y       z     vdW  Elec       q    Type
                         _______ _______ _______ _____ _____    ______ ____

>  <TORSDO>
F 13

$$$$
=
 OpenBabel11072409413D

 25 26  0  0  1  0  0  0  0  0999 V2000
  189.5950  177.5490  145.6700 N   0  0  0  0  0  2  0  0  0  0  0  0
  190.2860  176.4520  146.3380 C   0  0  2  0  0  3  0  0  0  0  0  0
  191.7270  176.3800  145.9270 C   0  0  0  0  0  0  0  0  0  0  0  0
  194.1140  176.3090  146.4940 C   0  0  0  0  0  3  0  0  0  0  0  0
  193.3860  176.2630  144.2000 C   0  0  0  0  0  0  0  0  0  0  0  0
  195.6010  176.2010  144.4930 O   0  0  0  0  0  0  0  0  0  0  0  0
  195.3660  176.1680  143.0780 C   0  0  0  0  0  2  0  0  0  0  0  0
  194.3770  176.2570  145.1280 C   0  0  0  0  0  0  0  0  0  0  0  0
  193.9390  176.2070  142.9360 O   0  0  0  0  0  0  0  0  0  0  0  0
  192.0410  176.3250  144.5550 C   0  0  0  0  0  3  0  0  0  0  0  0
  192.7660  176.3720  146.8910 C   0  0  0  0  0  3  0  0  0  0  0  0
  189.5510  175.1250  146.1390 C   0  0  0  0  0  2  0  0  0  0  0  0
  189.1080  174.5000  147.4530 C   0  0  0  0  0  1  0  0  0  0  0  0
  188.2970  177.0460  145.2520 C   0  0  0  0  0  2  0  0  0  0  0  0
  187.1950  177.7090  146.0600 C   0  0  2  0  0  3  0  0  0  0  0  0
  187.6510  177.9660  147.3550 O   0  0  0  0  0  1  0  0  0  0  0  0
  185.9950  176.7830  146.1110 C   0  0  0  0  0  2  0  0  0  0  0  0
  184.7040  177.5870  146.1220 C   0  0  0  0  0  2  0  0  0  0  0  0
  184.9520  179.0060  145.6340 C   0  0  0  0  0  2  0  0  0  0  0  0
  184.2540  179.2640  144.3070 C   0  0  0  0  0  2  0  0  0  0  0  0
  185.1640  179.1570  143.2530 O   0  0  0  0  0  0  0  0  0  0  0  0
  184.7230  178.0560  142.5190 C   0  0  0  0  0  2  0  0  0  0  0  0
  185.8480  177.0460  142.3940 C   0  0  0  0  0  2  0  0  0  0  0  0
  187.7380  176.5890  141.0100 O   0  0  0  0  0  1  0  0  0  0  0  0
  186.9800  177.6210  141.5630 C   0  0  0  0  0  2  0  0  0  0  0  0
  1  2  1  0  0  0  0
  2 12  1  6  0  0  0
  3  2  1  0  0  0  0
  3 11  1  0  0  0  0
  4 11  2  0  0  0  0
  5 10  1  0  0  0  0
  5  8  2  0  0  0  0
  6  8  1  0  0  0  0
  7  6  1  0  0  0  0
  8  4  1  0  0  0  0
  9  7  1  0  0  0  0
  9  5  1  0  0  0  0
 10  3  2  0  0  0  0
 12 13  1  0  0  0  0
 14  1  1  0  0  0  0
 14 15  1  0  0  0  0
 15 17  1  0  0  0  0
 15 16  1  1  0  0  0
 17 18  1  0  0  0  0
 19 18  1  0  0  0  0
 20 19  1  0  0  0  0
 21 20  1  0  0  0  0
 22 21  1  0  0  0  0
 23 22  1  0  0  0  0
 24 25  1  0  0  0  0
 25 23  1  0  0  0  0
M  END
>  <MODEL>
3

>  <REMARK>
 VINA RESULT:      -5.2      2.325      4.319
  Name = 
  13 active torsions:
  status: ('A' for Active; 'I' for Inactive)
    1  A    between atoms: C_1  and  C_12
    2  A    between atoms: C_2  and  C_10
    3  A    between atoms: C_2  and  O_16
    4  A    between atoms: C_4  and  C_13
    5  A    between atoms: C_4  and  C_18
    6  A    between atoms: C_5  and  C_12
    7  A    between atoms: C_7  and  C_11
    8  A    between atoms: C_7  and  O_16
    9  A    between atoms: C_8  and  C_10
   10  A    between atoms: C_8  and  C_13
   11  A    between atoms: C_11  and  C_25
   12  A    between atoms: C_12  and  N_19
   13  A    between atoms: C_18  and  N_19
                            x       y       z     vdW  Elec       q    Type
                         _______ _______ _______ _____ _____    ______ ____

>  <TORSDO>
F 13

$$$$
=
 OpenBabel11072409413D

 25 26  0  0  1  0  0  0  0  0999 V2000
  189.8030  177.5310  144.8970 N   0  0  0  0  0  2  0  0  0  0  0  0
  190.3830  176.5960  145.8540 C   0  0  2  0  0  3  0  0  0  0  0  0
  191.8520  176.4060  145.6140 C   0  0  0  0  0  0  0  0  0  0  0  0
  194.1340  176.0850  146.4570 C   0  0  0  0  0  3  0  0  0  0  0  0
  193.6950  176.2120  144.0940 C   0  0  0  0  0  0  0  0  0  0  0  0
  195.8430  175.9270  144.6450 O   0  0  0  0  0  0  0  0  0  0  0  0
  195.7840  175.9810  143.2120 C   0  0  0  0  0  2  0  0  0  0  0  0
  194.5600  176.0700  145.1320 C   0  0  0  0  0  0  0  0  0  0  0  0
  194.3940  176.1610  142.9030 O   0  0  0  0  0  0  0  0  0  0  0  0
  192.3280  176.3850  144.2880 C   0  0  0  0  0  3  0  0  0  0  0  0
  192.7580  176.2570  146.6930 C   0  0  0  0  0  3  0  0  0  0  0  0
  189.6160  175.2710  145.8760 C   0  0  0  0  0  2  0  0  0  0  0  0
  189.3500  174.7750  147.2890 C   0  0  0  0  0  1  0  0  0  0  0  0
  188.4900  177.0190  144.5400 C   0  0  0  0  0  2  0  0  0  0  0  0
  188.2920  177.0910  143.0360 C   0  0  2  0  0  3  0  0  0  0  0  0
  189.5340  177.1700  142.4020 O   0  0  0  0  0  1  0  0  0  0  0  0
  187.4670  178.3200  142.7050 C   0  0  0  0  0  2  0  0  0  0  0  0
  186.1830  177.9200  141.9930 C   0  0  0  0  0  2  0  0  0  0  0  0
  185.1530  177.4140  142.9900 C   0  0  0  0  0  2  0  0  0  0  0  0
  184.0610  178.4480  143.2290 C   0  0  0  0  0  2  0  0  0  0  0  0
  184.4820  179.3880  144.1700 O   0  0  0  0  0  0  0  0  0  0  0  0
  184.1500  178.8250  145.4020 C   0  0  0  0  0  2  0  0  0  0  0  0
  185.3030  179.0040  146.3710 C   0  0  0  0  0  2  0  0  0  0  0  0
  184.9030  176.6520  146.4650 O   0  0  0  0  0  1  0  0  0  0  0  0
  185.7920  177.6520  146.8600 C   0  0  0  0  0  2  0  0  0  0  0  0
  1  2  1  0  0  0  0
  2 12  1  6  0  0  0
  3  2  1  0  0  0  0
  3 11  1  0  0  0  0
  4 11  2  0  0  0  0
  5 10  1  0  0  0  0
  5  8  2  0  0  0  0
  6  8  1  0  0  0  0
  7  6  1  0  0  0  0
  8  4  1  0  0  0  0
  9  7  1  0  0  0  0
  9  5  1  0  0  0  0
 10  3  2  0  0  0  0
 12 13  1  0  0  0  0
 14  1  1  0  0  0  0
 15 16  1  6  0  0  0
 15 14  1  0  0  0  0
 17 15  1  0  0  0  0
 18 17  1  0  0  0  0
 18 19  1  0  0  0  0
 19 20  1  0  0  0  0
 20 21  1  0  0  0  0
 21 22  1  0  0  0  0
 22 23  1  0  0  0  0
 23 25  1  0  0  0  0
 24 25  1  0  0  0  0
M  END
>  <MODEL>
4

>  <REMARK>
 VINA RESULT:      -5.1      2.367      4.538
  Name = 
  13 active torsions:
  status: ('A' for Active; 'I' for Inactive)
    1  A    between atoms: C_1  and  C_12
    2  A    between atoms: C_2  and  C_10
    3  A    between atoms: C_2  and  O_16
    4  A    between atoms: C_4  and  C_13
    5  A    between atoms: C_4  and  C_18
    6  A    between atoms: C_5  and  C_12
    7  A    between atoms: C_7  and  C_11
    8  A    between atoms: C_7  and  O_16
    9  A    between atoms: C_8  and  C_10
   10  A    between atoms: C_8  and  C_13
   11  A    between atoms: C_11  and  C_25
   12  A    between atoms: C_12  and  N_19
   13  A    between atoms: C_18  and  N_19
                            x       y       z     vdW  Elec       q    Type
                         _______ _______ _______ _____ _____    ______ ____

>  <TORSDO>
F 13

$$$$
=
 OpenBabel11072409413D

 25 26  0  0  1  0  0  0  0  0999 V2000
  191.6570  174.5880  143.4340 N   0  0  0  0  0  2  0  0  0  0  0  0
  190.2930  174.2540  143.0410 C   0  0  2  0  0  3  0  0  0  0  0  0
  189.4590  175.4860  142.8540 C   0  0  0  0  0  0  0  0  0  0  0  0
  189.2630  177.9200  142.6070 C   0  0  0  0  0  3  0  0  0  0  0  0
  187.3100  176.5150  142.5910 C   0  0  0  0  0  0  0  0  0  0  0  0
  186.9060  178.7010  142.3620 O   0  0  0  0  0  0  0  0  0  0  0  0
  185.6340  178.0370  142.3310 C   0  0  0  0  0  2  0  0  0  0  0  0
  187.8850  177.7430  142.5200 C   0  0  0  0  0  0  0  0  0  0  0  0
  185.9390  176.6420  142.4780 O   0  0  0  0  0  0  0  0  0  0  0  0
  188.0600  175.3550  142.7600 C   0  0  0  0  0  3  0  0  0  0  0  0
  190.0550  176.7700  142.7780 C   0  0  0  0  0  3  0  0  0  0  0  0
  189.6590  173.2580  144.0150 C   0  0  0  0  0  2  0  0  0  0  0  0
  189.2730  171.9490  143.3420 C   0  0  0  0  0  1  0  0  0  0  0  0
  191.8370  174.1190  144.7980 C   0  0  0  0  0  2  0  0  0  0  0  0
  192.6300  175.1360  145.6010 C   0  0  2  0  0  3  0  0  0  0  0  0
  193.8520  174.5800  145.9860 O   0  0  0  0  0  1  0  0  0  0  0  0
  191.8310  175.5240  146.8300 C   0  0  0  0  0  2  0  0  0  0  0  0
  190.5550  176.2470  146.4270 C   0  0  0  0  0  2  0  0  0  0  0  0
  189.3350  175.5350  146.9900 C   0  0  0  0  0  2  0  0  0  0  0  0
  188.0550  176.0280  146.3320 C   0  0  0  0  0  2  0  0  0  0  0  0
  187.5510  177.1330  147.0210 O   0  0  0  0  0  0  0  0  0  0  0  0
  186.7730  177.8080  146.0810 C   0  0  0  0  0  2  0  0  0  0  0  0
  185.4230  177.1260  145.9550 C   0  0  0  0  0  2  0  0  0  0  0  0
  183.8790  178.9270  145.6910 O   0  0  0  0  0  1  0  0  0  0  0  0
  184.3440  177.9760  146.6000 C   0  0  0  0  0  2  0  0  0  0  0  0
  1 14  1  0  0  0  0
  2  1  1  0  0  0  0
  2 12  1  1  0  0  0
  3  2  1  0  0  0  0
  4 11  2  0  0  0  0
  5 10  1  0  0  0  0
  6  8  1  0  0  0  0
  7  6  1  0  0  0  0
  7  9  1  0  0  0  0
  8  5  2  0  0  0  0
  8  4  1  0  0  0  0
  9  5  1  0  0  0  0
 10  3  2  0  0  0  0
 11  3  1  0  0  0  0
 13 12  1  0  0  0  0
 14 15  1  0  0  0  0
 15 16  1  1  0  0  0
 15 17  1  0  0  0  0
 18 17  1  0  0  0  0
 18 19  1  0  0  0  0
 20 19  1  0  0  0  0
 20 21  1  0  0  0  0
 22 21  1  0  0  0  0
 23 22  1  0  0  0  0
 23 25  1  0  0  0  0
 24 25  1  0  0  0  0
M  END
>  <MODEL>
5

>  <REMARK>
 VINA RESULT:      -5.1      2.231      6.628
  Name = 
  13 active torsions:
  status: ('A' for Active; 'I' for Inactive)
    1  A    between atoms: C_1  and  C_12
    2  A    between atoms: C_2  and  C_10
    3  A    between atoms: C_2  and  O_16
    4  A    between atoms: C_4  and  C_13
    5  A    between atoms: C_4  and  C_18
    6  A    between atoms: C_5  and  C_12
    7  A    between atoms: C_7  and  C_11
    8  A    between atoms: C_7  and  O_16
    9  A    between atoms: C_8  and  C_10
   10  A    between atoms: C_8  and  C_13
   11  A    between atoms: C_11  and  C_25
   12  A    between atoms: C_12  and  N_19
   13  A    between atoms: C_18  and  N_19
                            x       y       z     vdW  Elec       q    Type
                         _______ _______ _______ _____ _____    ______ ____

>  <TORSDO>
F 13

$$$$
=
 OpenBabel11072409413D

 25 26  0  0  1  0  0  0  0  0999 V2000
  186.5210  178.7990  143.4860 N   0  0  0  0  0  2  0  0  0  0  0  0
  186.5250  178.3170  144.8620 C   0  0  2  0  0  3  0  0  0  0  0  0
  187.7340  177.4750  145.1440 C   0  0  0  0  0  0  0  0  0  0  0  0
  188.8010  175.5690  146.2620 C   0  0  0  0  0  3  0  0  0  0  0  0
  190.0670  177.0270  144.8270 C   0  0  0  0  0  0  0  0  0  0  0  0
  191.2350  175.3610  145.7530 O   0  0  0  0  0  0  0  0  0  0  0  0
  192.1510  176.1140  144.9440 C   0  0  0  0  0  2  0  0  0  0  0  0
  189.9920  175.9500  145.6500 C   0  0  0  0  0  0  0  0  0  0  0  0
  191.3630  177.1660  144.3700 O   0  0  0  0  0  0  0  0  0  0  0  0
  188.9610  177.8230  144.5460 C   0  0  0  0  0  3  0  0  0  0  0  0
  187.6590  176.3480  146.0010 C   0  0  0  0  0  3  0  0  0  0  0  0
  185.2170  177.6010  145.2070 C   0  0  0  0  0  2  0  0  0  0  0  0
  184.4120  178.3360  146.2680 C   0  0  0  0  0  1  0  0  0  0  0  0
  186.0040  177.7230  142.6560 C   0  0  0  0  0  2  0  0  0  0  0  0
  186.7320  177.6940  141.3230 C   0  0  2  0  0  3  0  0  0  0  0  0
  185.8020  177.7150  140.2800 O   0  0  0  0  0  1  0  0  0  0  0  0
  187.5650  176.4300  141.2440 C   0  0  0  0  0  2  0  0  0  0  0  0
  187.1080  175.4270  142.2920 C   0  0  0  0  0  2  0  0  0  0  0  0
  187.9740  174.1780  142.2520 C   0  0  0  0  0  2  0  0  0  0  0  0
  189.4550  174.5320  142.2620 C   0  0  0  0  0  2  0  0  0  0  0  0
  190.2270  173.3780  142.4090 O   0  0  0  0  0  0  0  0  0  0  0  0
  189.4470  172.5310  143.1960 C   0  0  0  0  0  2  0  0  0  0  0  0
  190.1450  172.2800  144.5190 C   0  0  0  0  0  2  0  0  0  0  0  0
  191.9730  170.8480  143.9660 O   0  0  0  0  0  1  0  0  0  0  0  0
  191.6430  172.1600  144.3060 C   0  0  0  0  0  2  0  0  0  0  0  0
  1  2  1  0  0  0  0
  2  3  1  0  0  0  0
  2 12  1  6  0  0  0
  3 11  1  0  0  0  0
  5  8  2  0  0  0  0
  7  6  1  0  0  0  0
  8  6  1  0  0  0  0
  8  4  1  0  0  0  0
  9  5  1  0  0  0  0
  9  7  1  0  0  0  0
 10  5  1  0  0  0  0
 10  3  2  0  0  0  0
 11  4  2  0  0  0  0
 12 13  1  0  0  0  0
 14  1  1  0  0  0  0
 15 16  1  6  0  0  0
 15 14  1  0  0  0  0
 17 15  1  0  0  0  0
 17 18  1  0  0  0  0
 19 20  1  0  0  0  0
 19 18  1  0  0  0  0
 20 21  1  0  0  0  0
 21 22  1  0  0  0  0
 22 23  1  0  0  0  0
 24 25  1  0  0  0  0
 25 23  1  0  0  0  0
M  END
>  <MODEL>
6

>  <REMARK>
 VINA RESULT:      -5.0      1.750      2.432
  Name = 
  13 active torsions:
  status: ('A' for Active; 'I' for Inactive)
    1  A    between atoms: C_1  and  C_12
    2  A    between atoms: C_2  and  C_10
    3  A    between atoms: C_2  and  O_16
    4  A    between atoms: C_4  and  C_13
    5  A    between atoms: C_4  and  C_18
    6  A    between atoms: C_5  and  C_12
    7  A    between atoms: C_7  and  C_11
    8  A    between atoms: C_7  and  O_16
    9  A    between atoms: C_8  and  C_10
   10  A    between atoms: C_8  and  C_13
   11  A    between atoms: C_11  and  C_25
   12  A    between atoms: C_12  and  N_19
   13  A    between atoms: C_18  and  N_19
                            x       y       z     vdW  Elec       q    Type
                         _______ _______ _______ _____ _____    ______ ____

>  <TORSDO>
F 13

$$$$
=
 OpenBabel11072409413D

 25 26  0  0  1  0  0  0  0  0999 V2000
  187.5660  176.2730  142.0510 N   0  0  0  0  0  2  0  0  0  0  0  0
  188.1560  175.1670  142.7970 C   0  0  2  0  0  3  0  0  0  0  0  0
  189.0780  175.6610  143.8710 C   0  0  0  0  0  0  0  0  0  0  0  0
  190.7920  177.2280  144.6670 C   0  0  0  0  0  3  0  0  0  0  0  0
  189.9660  175.4710  146.0900 C   0  0  0  0  0  0  0  0  0  0  0  0
  191.5300  176.7770  147.0080 O   0  0  0  0  0  0  0  0  0  0  0  0
  191.1700  175.8010  147.9960 C   0  0  0  0  0  2  0  0  0  0  0  0
  190.7780  176.5380  145.8760 C   0  0  0  0  0  0  0  0  0  0  0  0
  190.1670  174.9890  147.3680 O   0  0  0  0  0  0  0  0  0  0  0  0
  189.0980  174.9940  145.1120 C   0  0  0  0  0  3  0  0  0  0  0  0
  189.9270  176.7760  143.6540 C   0  0  0  0  0  3  0  0  0  0  0  0
  188.8290  174.1590  141.8620 C   0  0  0  0  0  2  0  0  0  0  0  0
  188.5830  174.4710  140.3940 C   0  0  0  0  0  1  0  0  0  0  0  0
  186.2590  176.5320  142.6330 C   0  0  0  0  0  2  0  0  0  0  0  0
  185.4800  177.5010  141.7610 C   0  0  2  0  0  3  0  0  0  0  0  0
  186.3590  178.1760  140.9100 O   0  0  0  0  0  1  0  0  0  0  0  0
  184.7600  178.4970  142.6500 C   0  0  0  0  0  2  0  0  0  0  0  0
  185.7630  179.3690  143.3890 C   0  0  0  0  0  2  0  0  0  0  0  0
  185.4070  179.4620  144.8650 C   0  0  0  0  0  2  0  0  0  0  0  0
  184.1800  178.6220  145.1910 C   0  0  0  0  0  2  0  0  0  0  0  0
  184.3770  177.9220  146.3830 O   0  0  0  0  0  0  0  0  0  0  0  0
  185.3030  176.9310  146.0590 C   0  0  0  0  0  2  0  0  0  0  0  0
  186.3820  176.8760  147.1230 C   0  0  0  0  0  2  0  0  0  0  0  0
  186.9830  178.9210  148.1970 O   0  0  0  0  0  1  0  0  0  0  0  0
  186.0740  177.8640  148.2340 C   0  0  0  0  0  2  0  0  0  0  0  0
  1 14  1  0  0  0  0
  1  2  1  0  0  0  0
  2 12  1  6  0  0  0
  2  3  1  0  0  0  0
  3 10  1  0  0  0  0
  4  8  2  0  0  0  0
  5  9  1  0  0  0  0
  6  7  1  0  0  0  0
  8  5  1  0  0  0  0
  8  6  1  0  0  0  0
  9  7  1  0  0  0  0
 10  5  2  0  0  0  0
 11  3  2  0  0  0  0
 11  4  1  0  0  0  0
 13 12  1  0  0  0  0
 15 16  1  6  0  0  0
 15 14  1  0  0  0  0
 15 17  1  0  0  0  0
 17 18  1  0  0  0  0
 18 19  1  0  0  0  0
 19 20  1  0  0  0  0
 20 21  1  0  0  0  0
 22 21  1  0  0  0  0
 22 23  1  0  0  0  0
 23 25  1  0  0  0  0
 24 25  1  0  0  0  0
M  END
>  <MODEL>
7

>  <REMARK>
 VINA RESULT:      -5.0      2.132      4.726
  Name = 
  13 active torsions:
  status: ('A' for Active; 'I' for Inactive)
    1  A    between atoms: C_1  and  C_12
    2  A    between atoms: C_2  and  C_10
    3  A    between atoms: C_2  and  O_16
    4  A    between atoms: C_4  and  C_13
    5  A    between atoms: C_4  and  C_18
    6  A    between atoms: C_5  and  C_12
    7  A    between atoms: C_7  and  C_11
    8  A    between atoms: C_7  and  O_16
    9  A    between atoms: C_8  and  C_10
   10  A    between atoms: C_8  and  C_13
   11  A    between atoms: C_11  and  C_25
   12  A    between atoms: C_12  and  N_19
   13  A    between atoms: C_18  and  N_19
                            x       y       z     vdW  Elec       q    Type
                         _______ _______ _______ _____ _____    ______ ____

>  <TORSDO>
F 13

$$$$
=
 OpenBabel11072409413D

 25 26  0  0  1  0  0  0  0  0999 V2000
  187.1850  177.3070  146.2330 N   0  0  0  0  0  2  0  0  0  0  0  0
  185.7890  177.1820  145.8310 C   0  0  2  0  0  3  0  0  0  0  0  0
  185.6150  177.4430  144.3640 C   0  0  0  0  0  0  0  0  0  0  0  0
  184.3320  178.3830  142.4950 C   0  0  0  0  0  3  0  0  0  0  0  0
  186.4050  177.2220  142.1120 C   0  0  0  0  0  0  0  0  0  0  0  0
  185.3940  177.9890  140.2720 O   0  0  0  0  0  0  0  0  0  0  0  0
  186.5970  177.3330  139.8440 C   0  0  0  0  0  2  0  0  0  0  0  0
  185.3220  177.8970  141.6460 C   0  0  0  0  0  0  0  0  0  0  0  0
  187.2130  176.8610  141.0520 O   0  0  0  0  0  0  0  0  0  0  0  0
  186.5930  176.9700  143.4680 C   0  0  0  0  0  3  0  0  0  0  0  0
  184.4870  178.1480  143.8740 C   0  0  0  0  0  3  0  0  0  0  0  0
  184.8780  178.0570  146.6950 C   0  0  0  0  0  2  0  0  0  0  0  0
  185.6330  179.1840  147.3840 C   0  0  0  0  0  1  0  0  0  0  0  0
  187.5120  176.1270  147.0170 C   0  0  0  0  0  2  0  0  0  0  0  0
  188.8800  175.5980  146.6210 C   0  0  2  0  0  3  0  0  0  0  0  0
  189.1460  174.4170  147.3180 O   0  0  0  0  0  1  0  0  0  0  0  0
  189.9280  176.6420  146.9570 C   0  0  0  0  0  2  0  0  0  0  0  0
  191.0860  176.0050  147.7120 C   0  0  0  0  0  2  0  0  0  0  0  0
  192.3550  176.0420  146.8750 C   0  0  0  0  0  2  0  0  0  0  0  0
  192.4360  174.8440  145.9410 C   0  0  0  0  0  2  0  0  0  0  0  0
  192.0120  175.1990  144.6600 O   0  0  0  0  0  0  0  0  0  0  0  0
  192.2620  174.0700  143.8810 C   0  0  0  0  0  2  0  0  0  0  0  0
  191.8330  172.8270  144.6360 C   0  0  0  0  0  2  0  0  0  0  0  0
  189.5780  172.1010  144.9310 O   0  0  0  0  0  1  0  0  0  0  0  0
  190.6010  172.2200  143.9890 C   0  0  0  0  0  2  0  0  0  0  0  0
  1 14  1  0  0  0  0
  2  1  1  0  0  0  0
  2 12  1  1  0  0  0
  3  2  1  0  0  0  0
  4 11  2  0  0  0  0
  5 10  1  0  0  0  0
  6  8  1  0  0  0  0
  7  6  1  0  0  0  0
  7  9  1  0  0  0  0
  8  5  2  0  0  0  0
  8  4  1  0  0  0  0
  9  5  1  0  0  0  0
 10  3  2  0  0  0  0
 11  3  1  0  0  0  0
 12 13  1  0  0  0  0
 15 17  1  0  0  0  0
 15 14  1  0  0  0  0
 15 16  1  1  0  0  0
 17 18  1  0  0  0  0
 19 18  1  0  0  0  0
 20 19  1  0  0  0  0
 21 20  1  0  0  0  0
 22 23  1  0  0  0  0
 22 21  1  0  0  0  0
 25 23  1  0  0  0  0
 25 24  1  0  0  0  0
M  END
>  <MODEL>
8

>  <REMARK>
 VINA RESULT:      -5.0      1.872      5.565
  Name = 
  13 active torsions:
  status: ('A' for Active; 'I' for Inactive)
    1  A    between atoms: C_1  and  C_12
    2  A    between atoms: C_2  and  C_10
    3  A    between atoms: C_2  and  O_16
    4  A    between atoms: C_4  and  C_13
    5  A    between atoms: C_4  and  C_18
    6  A    between atoms: C_5  and  C_12
    7  A    between atoms: C_7  and  C_11
    8  A    between atoms: C_7  and  O_16
    9  A    between atoms: C_8  and  C_10
   10  A    between atoms: C_8  and  C_13
   11  A    between atoms: C_11  and  C_25
   12  A    between atoms: C_12  and  N_19
   13  A    between atoms: C_18  and  N_19
                            x       y       z     vdW  Elec       q    Type
                         _______ _______ _______ _____ _____    ______ ____

>  <TORSDO>
F 13

$$$$
=
 OpenBabel11072409413D

 25 26  0  0  1  0  0  0  0  0999 V2000
  190.9440  175.5500  145.1300 N   0  0  0  0  0  2  0  0  0  0  0  0
  191.9350  176.3900  145.7950 C   0  0  2  0  0  3  0  0  0  0  0  0
  193.3310  175.9910  145.4200 C   0  0  0  0  0  0  0  0  0  0  0  0
  195.3230  174.5990  145.7610 C   0  0  0  0  0  3  0  0  0  0  0  0
  195.2660  176.2740  144.0330 C   0  0  0  0  0  0  0  0  0  0  0  0
  197.1790  175.1270  144.1780 O   0  0  0  0  0  0  0  0  0  0  0  0
  197.3370  176.0680  143.1060 C   0  0  0  0  0  2  0  0  0  0  0  0
  195.9150  175.2880  144.7060 C   0  0  0  0  0  0  0  0  0  0  0  0
  196.0910  176.7770  143.0470 O   0  0  0  0  0  0  0  0  0  0  0  0
  193.9690  176.6610  144.3580 C   0  0  0  0  0  3  0  0  0  0  0  0
  194.0120  174.9620  146.1180 C   0  0  0  0  0  3  0  0  0  0  0  0
  191.7180  176.4180  147.3090 C   0  0  0  0  0  2  0  0  0  0  0  0
  190.8170  175.2910  147.7910 C   0  0  0  0  0  1  0  0  0  0  0  0
  190.1310  176.4240  144.3000 C   0  0  0  0  0  2  0  0  0  0  0  0
  188.7180  175.8760  144.1910 C   0  0  2  0  0  3  0  0  0  0  0  0
  188.3620  175.7600  142.8450 O   0  0  0  0  0  1  0  0  0  0  0  0
  187.7660  176.8240  144.8950 C   0  0  0  0  0  2  0  0  0  0  0  0
  187.7030  176.5040  146.3810 C   0  0  0  0  0  2  0  0  0  0  0  0
  186.9560  177.5950  147.1320 C   0  0  0  0  0  2  0  0  0  0  0  0
  185.4870  177.6320  146.7350 C   0  0  0  0  0  2  0  0  0  0  0  0
  185.0430  178.9520  146.6460 O   0  0  0  0  0  0  0  0  0  0  0  0
  184.4340  179.0340  145.3940 C   0  0  0  0  0  2  0  0  0  0  0  0
  185.3740  179.7110  144.4150 C   0  0  0  0  0  2  0  0  0  0  0  0
  184.4440  177.9360  143.1180 O   0  0  0  0  0  1  0  0  0  0  0  0
  185.4040  178.9480  143.1030 C   0  0  0  0  0  2  0  0  0  0  0  0
  1  2  1  0  0  0  0
  2 12  1  1  0  0  0
  3  2  1  0  0  0  0
  3 11  1  0  0  0  0
  4 11  2  0  0  0  0
  5 10  1  0  0  0  0
  5  8  2  0  0  0  0
  6  8  1  0  0  0  0
  7  6  1  0  0  0  0
  8  4  1  0  0  0  0
  9  7  1  0  0  0  0
  9  5  1  0  0  0  0
 10  3  2  0  0  0  0
 12 13  1  0  0  0  0
 14  1  1  0  0  0  0
 15 16  1  6  0  0  0
 15 14  1  0  0  0  0
 15 17  1  0  0  0  0
 17 18  1  0  0  0  0
 18 19  1  0  0  0  0
 20 19  1  0  0  0  0
 21 20  1  0  0  0  0
 22 21  1  0  0  0  0
 23 22  1  0  0  0  0
 25 24  1  0  0  0  0
 25 23  1  0  0  0  0
M  END
>  <MODEL>
9

>  <REMARK>
 VINA RESULT:      -5.0      2.623      5.610
  Name = 
  13 active torsions:
  status: ('A' for Active; 'I' for Inactive)
    1  A    between atoms: C_1  and  C_12
    2  A    between atoms: C_2  and  C_10
    3  A    between atoms: C_2  and  O_16
    4  A    between atoms: C_4  and  C_13
    5  A    between atoms: C_4  and  C_18
    6  A    between atoms: C_5  and  C_12
    7  A    between atoms: C_7  and  C_11
    8  A    between atoms: C_7  and  O_16
    9  A    between atoms: C_8  and  C_10
   10  A    between atoms: C_8  and  C_13
   11  A    between atoms: C_11  and  C_25
   12  A    between atoms: C_12  and  N_19
   13  A    between atoms: C_18  and  N_19
                            x       y       z     vdW  Elec       q    Type
                         _______ _______ _______ _____ _____    ______ ____

>  <TORSDO>
F 13

$$$$
