=
 OpenBabel11062422043D

 34 37  0  0  1  0  0  0  0  0999 V2000
  193.7490  175.0950  141.3520 C   0  0  0  0  0  2  0  0  0  0  0  0
  195.4630  176.3470  142.0690 C   0  0  0  0  0  2  0  0  0  0  0  0
  193.8710  175.5190  143.8760 C   0  0  2  0  0  3  0  0  0  0  0  0
  191.0880  176.4390  147.1180 C   0  0  0  0  0  2  0  0  0  0  0  0
  188.4040  176.2270  146.5520 S   0  0  0  0  0  0  0  0  0  0  0  0
  188.7430  176.4740  141.9630 C   0  0  1  0  0  3  0  0  0  0  0  0
  191.8190  174.3830  142.8270 C   0  0  0  0  0  2  0  0  0  0  0  0
  192.4340  174.9660  145.8550 C   0  0  1  0  0  3  0  0  0  0  0  0
  189.0650  176.4370  144.8690 C   0  0  2  0  0  3  0  0  0  0  0  0
  195.2670  176.0730  143.5660 C   0  0  0  0  0  2  0  0  0  0  0  0
  191.0230  175.6680  142.6430 C   0  0  0  0  0  2  0  0  0  0  0  0
  188.2050  177.5560  142.8750 C   0  0  0  0  0  0  0  0  0  0  0  0
  193.8390  174.8930  145.2770 C   0  0  1  0  0  3  0  0  0  0  0  0
  189.5300  175.3630  142.6720 C   0  0  1  0  0  3  0  0  0  0  0  0
  193.3290  174.6080  142.7480 C   0  0  1  0  0  3  0  0  0  0  0  0
  192.3880  174.4710  147.1230 O   0  0  0  0  0  0  0  0  0  0  0  0
  194.2300  176.4160  141.3980 O   0  0  0  0  0  0  0  0  0  0  0  0
  192.4320  175.8510  146.9980 N   0  0  2  0  0  0  0  0  0  0  0  0
  189.9210  175.4450  147.1860 C   0  0  0  0  0  2  0  0  0  0  0  0
  188.3250  177.4850  144.1710 N   0  0  0  0  0  0  0  0  0  0  0  0
  189.0230  175.1260  144.0950 C   0  0  0  0  0  2  0  0  0  0  0  0
  195.7770  173.3120  145.7400 N   0  0  0  0  0  2  0  0  0  0  0  0
  196.5520  174.3560  146.1190 O   0  0  0  0  0  1  0  0  0  0  0  0
  194.4270  173.5070  145.3240 C   0  0  0  0  0  0  0  0  0  0  0  0
  193.7370  172.5100  144.9800 O   0  0  0  0  0  0  0  0  0  0  0  0
  187.6320  175.8790  141.1020 C   0  0  0  0  0  2  0  0  0  0  0  0
  188.1360  174.8970  140.2460 O   0  0  0  0  0  1  0  0  0  0  0  0
  187.5370  178.6370  142.2910 O   0  0  0  0  0  0  0  0  0  0  0  0
  186.1430  178.8660  142.4610 C   0  0  0  0  0  2  0  0  0  0  0  0
  185.9340  179.7900  143.4890 O   0  0  0  0  0  0  0  0  0  0  0  0
  184.7810  179.3990  144.0830 N   0  0  0  0  0  2  0  0  0  0  0  0
  185.9110  179.0510  146.2200 O   0  0  0  0  0  1  0  0  0  0  0  0
  184.7480  179.0270  145.4600 C   0  0  0  0  0  0  0  0  0  0  0  0
  183.6620  178.6750  145.9880 O   0  0  0  0  0  0  0  0  0  0  0  0
  1 17  1  0  0  0  0
  2 10  1  0  0  0  0
  3 10  1  6  0  0  0
  3 13  1  0  0  0  0
  4 19  1  0  0  0  0
  5 19  1  0  0  0  0
  6 26  1  1  0  0  0
  6 14  1  0  0  0  0
  6 12  1  0  0  0  0
  8 18  1  0  0  0  0
  8 16  1  1  0  0  0
  9 21  1  6  0  0  0
  9  5  1  0  0  0  0
 11  7  1  0  0  0  0
 12 20  2  0  0  0  0
 13 24  1  6  0  0  0
 13  8  1  0  0  0  0
 14 11  1  1  0  0  0
 14 21  1  0  0  0  0
 15  1  1  6  0  0  0
 15  7  1  0  0  0  0
 15  3  1  0  0  0  0
 17  2  1  0  0  0  0
 18  4  1  6  0  0  0
 18 16  1  0  0  0  0
 20  9  1  0  0  0  0
 22 23  1  0  0  0  0
 24 22  1  0  0  0  0
 25 24  2  0  0  0  0
 27 26  1  0  0  0  0
 28 29  1  0  0  0  0
 28 12  1  0  0  0  0
 29 30  1  0  0  0  0
 30 31  1  0  0  0  0
 31 33  1  0  0  0  0
 33 34  2  0  0  0  0
 33 32  1  0  0  0  0
M  END
>  <MODEL>
1

>  <REMARK>
 VINA RESULT:      -7.2      0.000      0.000
  Name = 
  6 active torsions:
  status: ('A' for Active; 'I' for Inactive)
    1  A    between atoms: C_1  and  O_15
    2  A    between atoms: C_1  and  O_26
    3  A    between atoms: C_7  and  C_16
    4  A    between atoms: N_12  and  O_26
    5  A    between atoms: C_14  and  C_20
    6  A    between atoms: O_15  and  C_19
                            x       y       z     vdW  Elec       q    Type
                         _______ _______ _______ _____ _____    ______ ____

>  <TORSDO>
F 6

$$$$
=
 OpenBabel11062422043D

 34 37  0  0  1  0  0  0  0  0999 V2000
  190.8030  175.2910  148.0130 C   0  0  0  0  0  2  0  0  0  0  0  0
  191.1920  177.4600  148.4170 C   0  0  0  0  0  2  0  0  0  0  0  0
  189.3870  176.9660  146.6890 C   0  0  2  0  0  3  0  0  0  0  0  0
  187.9030  177.3960  142.6000 C   0  0  0  0  0  2  0  0  0  0  0  0
  188.1910  175.2230  140.9370 S   0  0  0  0  0  0  0  0  0  0  0  0
  191.4980  173.0800  143.3260 C   0  0  1  0  0  3  0  0  0  0  0  0
  189.3160  174.4570  146.1410 C   0  0  0  0  0  2  0  0  0  0  0  0
  187.6620  176.8120  144.8750 C   0  0  1  0  0  3  0  0  0  0  0  0
  189.4800  174.8510  142.1680 C   0  0  2  0  0  3  0  0  0  0  0  0
  189.9730  178.0020  147.6560 C   0  0  0  0  0  2  0  0  0  0  0  0
  190.3980  174.5140  145.0700 C   0  0  0  0  0  2  0  0  0  0  0  0
  191.6770  173.7950  142.0030 C   0  0  0  0  0  0  0  0  0  0  0  0
  187.9730  177.3770  146.2530 C   0  0  1  0  0  3  0  0  0  0  0  0
  190.1860  173.3940  144.0590 C   0  0  1  0  0  3  0  0  0  0  0  0
  189.5030  175.5190  147.2250 C   0  0  1  0  0  3  0  0  0  0  0  0
  186.4350  177.2100  144.4370 O   0  0  0  0  0  0  0  0  0  0  0  0
  191.7260  176.3260  147.7810 O   0  0  0  0  0  0  0  0  0  0  0  0
  187.5280  177.8990  143.9320 N   0  0  2  0  0  0  0  0  0  0  0  0
  187.1560  176.1470  142.1160 C   0  0  0  0  0  2  0  0  0  0  0  0
  190.7370  174.5400  141.4930 N   0  0  0  0  0  0  0  0  0  0  0  0
  189.0520  173.7110  143.0840 C   0  0  0  0  0  2  0  0  0  0  0  0
  186.1390  178.1000  147.8610 N   0  0  0  0  0  2  0  0  0  0  0  0
  186.3160  179.3920  147.4980 O   0  0  0  0  0  1  0  0  0  0  0  0
  186.9170  177.0560  147.2780 C   0  0  0  0  0  0  0  0  0  0  0  0
  186.7220  175.8650  147.6400 O   0  0  0  0  0  0  0  0  0  0  0  0
  191.6760  171.5730  143.1640 C   0  0  0  0  0  2  0  0  0  0  0  0
  190.9130  171.0930  142.0970 O   0  0  0  0  0  1  0  0  0  0  0  0
  192.8790  173.6120  141.3130 O   0  0  0  0  0  0  0  0  0  0  0  0
  194.1310  174.0670  141.8120 C   0  0  0  0  0  2  0  0  0  0  0  0
  194.1200  175.4600  141.9310 O   0  0  0  0  0  0  0  0  0  0  0  0
  194.4560  175.7050  143.2200 N   0  0  0  0  0  2  0  0  0  0  0  0
  192.3520  176.8790  143.6250 O   0  0  0  0  0  0  0  0  0  0  0  0
  193.5760  176.4160  144.0900 C   0  0  0  0  0  0  0  0  0  0  0  0
  193.9120  176.6240  145.2850 O   0  0  0  0  0  1  0  0  0  0  0  0
  3 15  1  0  0  0  0
  3 10  1  1  0  0  0
  5 19  1  0  0  0  0
  5  9  1  0  0  0  0
  6 26  1  6  0  0  0
  6 14  1  0  0  0  0
  8 16  1  1  0  0  0
  8 13  1  0  0  0  0
  9 21  1  6  0  0  0
 10  2  1  0  0  0  0
 11  7  1  0  0  0  0
 12  6  1  0  0  0  0
 13  3  1  0  0  0  0
 13 24  1  1  0  0  0
 14 21  1  6  0  0  0
 14 11  1  0  0  0  0
 15  7  1  6  0  0  0
 15  1  1  0  0  0  0
 17  1  1  0  0  0  0
 17  2  1  0  0  0  0
 18  4  1  6  0  0  0
 18 16  1  0  0  0  0
 18  8  1  0  0  0  0
 19  4  1  0  0  0  0
 20 12  2  0  0  0  0
 20  9  1  0  0  0  0
 23 22  1  0  0  0  0
 24 25  2  0  0  0  0
 24 22  1  0  0  0  0
 27 26  1  0  0  0  0
 28 29  1  0  0  0  0
 28 12  1  0  0  0  0
 29 30  1  0  0  0  0
 30 31  1  0  0  0  0
 31 33  1  0  0  0  0
 32 33  2  0  0  0  0
 33 34  1  0  0  0  0
M  END
>  <MODEL>
2

>  <REMARK>
 VINA RESULT:      -6.6      2.594      7.044
  Name = 
  6 active torsions:
  status: ('A' for Active; 'I' for Inactive)
    1  A    between atoms: C_1  and  O_15
    2  A    between atoms: C_1  and  O_26
    3  A    between atoms: C_7  and  C_16
    4  A    between atoms: N_12  and  O_26
    5  A    between atoms: C_14  and  C_20
    6  A    between atoms: O_15  and  C_19
                            x       y       z     vdW  Elec       q    Type
                         _______ _______ _______ _____ _____    ______ ____

>  <TORSDO>
F 6

$$$$
=
 OpenBabel11062422043D

 34 37  0  0  1  0  0  0  0  0999 V2000
  192.7800  177.1520  145.0180 C   0  0  0  0  0  2  0  0  0  0  0  0
  193.2350  175.9960  146.8820 C   0  0  0  0  0  2  0  0  0  0  0  0
  192.5090  174.6080  144.8740 C   0  0  2  0  0  3  0  0  0  0  0  0
  189.6910  171.7720  143.1070 C   0  0  0  0  0  2  0  0  0  0  0  0
  187.8190  172.7960  141.3700 S   0  0  0  0  0  0  0  0  0  0  0  0
  188.0720  177.1870  142.7450 C   0  0  1  0  0  3  0  0  0  0  0  0
  191.7340  176.1280  142.9520 C   0  0  0  0  0  2  0  0  0  0  0  0
  191.7150  172.9890  143.1310 C   0  0  1  0  0  3  0  0  0  0  0  0
  188.2390  174.3020  142.3030 C   0  0  2  0  0  3  0  0  0  0  0  0
  193.2140  174.6040  146.2350 C   0  0  0  0  0  2  0  0  0  0  0  0
  190.2990  176.2600  143.4440 C   0  0  0  0  0  2  0  0  0  0  0  0
  186.9260  176.2340  143.0160 C   0  0  0  0  0  0  0  0  0  0  0  0
  192.8460  173.3330  144.0890 C   0  0  1  0  0  3  0  0  0  0  0  0
  189.3690  176.5190  142.2660 C   0  0  1  0  0  3  0  0  0  0  0  0
  192.7320  175.9260  144.0920 C   0  0  1  0  0  3  0  0  0  0  0  0
  191.9600  171.8270  142.4630 O   0  0  0  0  0  0  0  0  0  0  0  0
  192.2800  176.8440  146.2960 O   0  0  0  0  0  0  0  0  0  0  0  0
  191.0970  171.7500  143.5460 N   0  0  2  0  0  0  0  0  0  0  0  0
  189.4550  172.0360  141.6140 C   0  0  0  0  0  2  0  0  0  0  0  0
  187.0200  174.9590  142.7640 N   0  0  0  0  0  0  0  0  0  0  0  0
  189.0910  175.2470  141.4650 C   0  0  0  0  0  2  0  0  0  0  0  0
  195.3140  172.7240  144.0070 N   0  0  0  0  0  2  0  0  0  0  0  0
  195.1910  172.0260  145.1600 O   0  0  0  0  0  1  0  0  0  0  0  0
  194.1940  173.3830  143.4190 C   0  0  0  0  0  0  0  0  0  0  0  0
  194.3480  174.0220  142.3440 O   0  0  0  0  0  0  0  0  0  0  0  0
  187.6490  178.2940  141.7830 C   0  0  0  0  0  2  0  0  0  0  0  0
  186.9610  177.7670  140.6870 O   0  0  0  0  0  1  0  0  0  0  0  0
  185.7350  176.7630  143.5230 O   0  0  0  0  0  0  0  0  0  0  0  0
  185.6850  177.5590  144.7020 C   0  0  0  0  0  2  0  0  0  0  0  0
  186.0440  176.7880  145.8120 O   0  0  0  0  0  0  0  0  0  0  0  0
  187.0410  177.4810  146.4130 N   0  0  0  0  0  2  0  0  0  0  0  0
  188.5390  175.5530  146.3170 O   0  0  0  0  0  0  0  0  0  0  0  0
  188.3080  176.8760  146.6720 C   0  0  0  0  0  0  0  0  0  0  0  0
  189.2190  177.5450  147.2250 O   0  0  0  0  0  1  0  0  0  0  0  0
  1 17  1  0  0  0  0
  3 10  1  1  0  0  0
  5 19  1  0  0  0  0
  5  9  1  0  0  0  0
  6 26  1  6  0  0  0
  6 12  1  0  0  0  0
  7 11  1  0  0  0  0
  8 16  1  6  0  0  0
  8 18  1  0  0  0  0
  8 13  1  0  0  0  0
  9 21  1  6  0  0  0
  9 20  1  0  0  0  0
 10  2  1  0  0  0  0
 12 28  1  0  0  0  0
 13 24  1  6  0  0  0
 13  3  1  0  0  0  0
 14 21  1  1  0  0  0
 14  6  1  0  0  0  0
 14 11  1  0  0  0  0
 15  7  1  6  0  0  0
 15  3  1  0  0  0  0
 15  1  1  0  0  0  0
 16 18  1  0  0  0  0
 17  2  1  0  0  0  0
 18  4  1  6  0  0  0
 19  4  1  0  0  0  0
 20 12  2  0  0  0  0
 22 23  1  0  0  0  0
 24 22  1  0  0  0  0
 25 24  2  0  0  0  0
 27 26  1  0  0  0  0
 28 29  1  0  0  0  0
 29 30  1  0  0  0  0
 30 31  1  0  0  0  0
 31 33  1  0  0  0  0
 32 33  2  0  0  0  0
 33 34  1  0  0  0  0
M  END
>  <MODEL>
3

>  <REMARK>
 VINA RESULT:      -6.5      2.578      3.797
  Name = 
  6 active torsions:
  status: ('A' for Active; 'I' for Inactive)
    1  A    between atoms: C_1  and  O_15
    2  A    between atoms: C_1  and  O_26
    3  A    between atoms: C_7  and  C_16
    4  A    between atoms: N_12  and  O_26
    5  A    between atoms: C_14  and  C_20
    6  A    between atoms: O_15  and  C_19
                            x       y       z     vdW  Elec       q    Type
                         _______ _______ _______ _____ _____    ______ ____

>  <TORSDO>
F 6

$$$$
=
 OpenBabel11062422043D

 34 37  0  0  1  0  0  0  0  0999 V2000
  193.5010  174.0300  140.6310 C   0  0  0  0  0  2  0  0  0  0  0  0
  195.2700  175.3980  140.4930 C   0  0  0  0  0  2  0  0  0  0  0  0
  194.3180  175.0580  142.8310 C   0  0  2  0  0  3  0  0  0  0  0  0
  192.5370  176.7780  146.4320 C   0  0  0  0  0  2  0  0  0  0  0  0
  189.8210  176.4680  146.7470 S   0  0  0  0  0  0  0  0  0  0  0  0
  188.8090  175.5790  142.3400 C   0  0  1  0  0  3  0  0  0  0  0  0
  192.1240  173.7250  142.7330 C   0  0  0  0  0  2  0  0  0  0  0  0
  193.5480  175.0240  145.2170 C   0  0  1  0  0  3  0  0  0  0  0  0
  189.9550  176.2510  144.9440 C   0  0  2  0  0  3  0  0  0  0  0  0
  195.5300  175.5010  142.0020 C   0  0  0  0  0  2  0  0  0  0  0  0
  191.2320  174.9360  142.4910 C   0  0  0  0  0  2  0  0  0  0  0  0
  188.4920  176.8580  143.0850 C   0  0  0  0  0  0  0  0  0  0  0  0
  194.7290  174.7940  144.2860 C   0  0  1  0  0  3  0  0  0  0  0  0
  189.8330  174.6660  143.0290 C   0  0  1  0  0  3  0  0  0  0  0  0
  193.5310  173.9050  142.1620 C   0  0  1  0  0  3  0  0  0  0  0  0
  193.8990  174.8550  146.5220 O   0  0  0  0  0  0  0  0  0  0  0  0
  193.8950  175.3160  140.2180 O   0  0  0  0  0  0  0  0  0  0  0  0
  193.8220  176.1620  146.0650 N   0  0  2  0  0  0  0  0  0  0  0  0
  191.5000  175.8460  147.0730 C   0  0  0  0  0  2  0  0  0  0  0  0
  188.9840  177.1050  144.2670 N   0  0  0  0  0  0  0  0  0  0  0  0
  189.7720  174.7910  144.5520 C   0  0  0  0  0  2  0  0  0  0  0  0
  196.8040  173.3640  144.6340 N   0  0  0  0  0  2  0  0  0  0  0  0
  197.5820  174.4710  144.6160 O   0  0  0  0  0  1  0  0  0  0  0  0
  195.3880  173.4540  144.4860 C   0  0  0  0  0  0  0  0  0  0  0  0
  194.6970  172.4010  144.5080 O   0  0  0  0  0  0  0  0  0  0  0  0
  187.5350  174.8060  142.0100 C   0  0  0  0  0  2  0  0  0  0  0  0
  187.8050  173.4450  141.8500 O   0  0  0  0  0  1  0  0  0  0  0  0
  187.6210  177.7720  142.4840 O   0  0  0  0  0  0  0  0  0  0  0  0
  186.5190  178.3540  143.1700 C   0  0  0  0  0  2  0  0  0  0  0  0
  185.6380  177.3530  143.5920 O   0  0  0  0  0  0  0  0  0  0  0  0
  184.8120  177.9620  144.4760 N   0  0  0  0  0  2  0  0  0  0  0  0
  185.8380  176.7860  146.3560 O   0  0  0  0  0  0  0  0  0  0  0  0
  184.9010  177.6920  145.8750 C   0  0  0  0  0  0  0  0  0  0  0  0
  184.1260  178.2770  146.6760 O   0  0  0  0  0  1  0  0  0  0  0  0
  2 10  1  0  0  0  0
  3 10  1  6  0  0  0
  3 13  1  0  0  0  0
  4 19  1  0  0  0  0
  5 19  1  0  0  0  0
  6 26  1  1  0  0  0
  6 14  1  0  0  0  0
  6 12  1  0  0  0  0
  8 18  1  0  0  0  0
  8 16  1  1  0  0  0
  9 21  1  1  0  0  0
  9  5  1  0  0  0  0
 11  7  1  0  0  0  0
 12 20  2  0  0  0  0
 13 24  1  6  0  0  0
 13  8  1  0  0  0  0
 14 11  1  6  0  0  0
 14 21  1  0  0  0  0
 15  1  1  6  0  0  0
 15  7  1  0  0  0  0
 15  3  1  0  0  0  0
 17  2  1  0  0  0  0
 17  1  1  0  0  0  0
 18  4  1  1  0  0  0
 18 16  1  0  0  0  0
 20  9  1  0  0  0  0
 23 22  1  0  0  0  0
 24 25  2  0  0  0  0
 24 22  1  0  0  0  0
 27 26  1  0  0  0  0
 28 12  1  0  0  0  0
 28 29  1  0  0  0  0
 29 30  1  0  0  0  0
 30 31  1  0  0  0  0
 31 33  1  0  0  0  0
 33 32  2  0  0  0  0
 33 34  1  0  0  0  0
M  END
>  <MODEL>
4

>  <REMARK>
 VINA RESULT:      -6.3      1.344      1.419
  Name = 
  6 active torsions:
  status: ('A' for Active; 'I' for Inactive)
    1  A    between atoms: C_1  and  O_15
    2  A    between atoms: C_1  and  O_26
    3  A    between atoms: C_7  and  C_16
    4  A    between atoms: N_12  and  O_26
    5  A    between atoms: C_14  and  C_20
    6  A    between atoms: O_15  and  C_19
                            x       y       z     vdW  Elec       q    Type
                         _______ _______ _______ _____ _____    ______ ____

>  <TORSDO>
F 6

$$$$
=
 OpenBabel11062422043D

 34 37  0  0  1  0  0  0  0  0999 V2000
  190.1510  171.1610  142.4550 C   0  0  0  0  0  2  0  0  0  0  0  0
  190.8500  171.2600  140.3280 C   0  0  0  0  0  2  0  0  0  0  0  0
  192.4770  172.1630  142.0670 C   0  0  2  0  0  3  0  0  0  0  0  0
  194.8310  175.5080  143.6070 C   0  0  0  0  0  2  0  0  0  0  0  0
  193.8460  176.8070  145.8240 S   0  0  0  0  0  0  0  0  0  0  0  0
  189.4770  175.3930  145.4490 C   0  0  1  0  0  3  0  0  0  0  0  0
  191.3710  172.2530  144.3850 C   0  0  0  0  0  2  0  0  0  0  0  0
  194.2300  173.2270  143.5110 C   0  0  1  0  0  3  0  0  0  0  0  0
  192.3140  176.0510  145.1950 C   0  0  2  0  0  3  0  0  0  0  0  0
  192.3070  171.6310  140.6390 C   0  0  0  0  0  2  0  0  0  0  0  0
  190.7390  173.6250  144.1890 C   0  0  0  0  0  2  0  0  0  0  0  0
  189.9870  176.7920  145.1710 C   0  0  0  0  0  0  0  0  0  0  0  0
  193.9560  172.1460  142.4750 C   0  0  1  0  0  3  0  0  0  0  0  0
  190.5650  174.3140  145.5360 C   0  0  1  0  0  3  0  0  0  0  0  0
  191.5200  171.4800  143.0750 C   0  0  1  0  0  3  0  0  0  0  0  0
  195.5490  173.2740  143.8480 O   0  0  0  0  0  0  0  0  0  0  0  0
  189.9660  171.8540  141.2450 O   0  0  0  0  0  0  0  0  0  0  0  0
  195.1060  174.2250  142.9400 N   0  0  2  0  0  0  0  0  0  0  0  0
  194.9190  175.5050  145.1390 C   0  0  0  0  0  2  0  0  0  0  0  0
  191.2610  177.0590  145.1100 N   0  0  0  0  0  0  0  0  0  0  0  0
  191.8840  174.8770  146.0660 C   0  0  0  0  0  2  0  0  0  0  0  0
  195.2190  169.9880  142.0050 N   0  0  0  0  0  2  0  0  0  0  0  0
  195.5520  170.4400  140.7730 O   0  0  0  0  0  1  0  0  0  0  0  0
  194.4430  170.7840  142.8980 C   0  0  0  0  0  0  0  0  0  0  0  0
  194.1540  170.3300  144.0370 O   0  0  0  0  0  0  0  0  0  0  0  0
  188.5930  175.3680  146.6930 C   0  0  0  0  0  2  0  0  0  0  0  0
  189.0240  174.3880  147.5910 O   0  0  0  0  0  1  0  0  0  0  0  0
  189.0470  177.8150  145.0080 O   0  0  0  0  0  0  0  0  0  0  0  0
  188.1220  177.8470  143.9270 C   0  0  0  0  0  2  0  0  0  0  0  0
  186.8540  177.4610  144.3740 O   0  0  0  0  0  0  0  0  0  0  0  0
  186.5980  178.2610  145.4360 N   0  0  0  0  0  2  0  0  0  0  0  0
  185.0070  176.6520  146.3580 O   0  0  0  0  0  0  0  0  0  0  0  0
  185.6720  177.8680  146.4490 C   0  0  0  0  0  0  0  0  0  0  0  0
  185.4580  178.6270  147.4300 O   0  0  0  0  0  1  0  0  0  0  0  0
  2 10  1  0  0  0  0
  2 17  1  0  0  0  0
  3 10  1  6  0  0  0
  3 13  1  0  0  0  0
  3 15  1  0  0  0  0
  4 19  1  0  0  0  0
  6 14  1  0  0  0  0
  6 26  1  1  0  0  0
  8 16  1  1  0  0  0
  9  5  1  0  0  0  0
  9 21  1  1  0  0  0
 11  7  1  0  0  0  0
 12  6  1  0  0  0  0
 13 24  1  1  0  0  0
 13  8  1  0  0  0  0
 14 11  1  6  0  0  0
 14 21  1  0  0  0  0
 15  1  1  6  0  0  0
 15  7  1  0  0  0  0
 17  1  1  0  0  0  0
 18  8  1  0  0  0  0
 18  4  1  1  0  0  0
 18 16  1  0  0  0  0
 19  5  1  0  0  0  0
 20 12  2  0  0  0  0
 20  9  1  0  0  0  0
 22 24  1  0  0  0  0
 23 22  1  0  0  0  0
 24 25  2  0  0  0  0
 26 27  1  0  0  0  0
 28 12  1  0  0  0  0
 29 30  1  0  0  0  0
 29 28  1  0  0  0  0
 30 31  1  0  0  0  0
 31 33  1  0  0  0  0
 32 33  2  0  0  0  0
 33 34  1  0  0  0  0
M  END
>  <MODEL>
5

>  <REMARK>
 VINA RESULT:      -6.2      2.822      4.374
  Name = 
  6 active torsions:
  status: ('A' for Active; 'I' for Inactive)
    1  A    between atoms: C_1  and  O_15
    2  A    between atoms: C_1  and  O_26
    3  A    between atoms: C_7  and  C_16
    4  A    between atoms: N_12  and  O_26
    5  A    between atoms: C_14  and  C_20
    6  A    between atoms: O_15  and  C_19
                            x       y       z     vdW  Elec       q    Type
                         _______ _______ _______ _____ _____    ______ ____

>  <TORSDO>
F 6

$$$$
=
 OpenBabel11062422043D

 34 37  0  0  1  0  0  0  0  0999 V2000
  190.0870  171.3010  142.4550 C   0  0  0  0  0  2  0  0  0  0  0  0
  190.8170  171.4250  140.3410 C   0  0  0  0  0  2  0  0  0  0  0  0
  192.4400  172.2570  142.1190 C   0  0  2  0  0  3  0  0  0  0  0  0
  194.8480  175.5170  143.7560 C   0  0  0  0  0  2  0  0  0  0  0  0
  193.8630  176.7940  145.9850 S   0  0  0  0  0  0  0  0  0  0  0  0
  189.4680  175.4890  145.5230 C   0  0  1  0  0  3  0  0  0  0  0  0
  191.3040  172.3270  144.4230 C   0  0  0  0  0  2  0  0  0  0  0  0
  194.1970  173.2520  143.6070 C   0  0  1  0  0  3  0  0  0  0  0  0
  192.3220  176.0860  145.3210 C   0  0  2  0  0  3  0  0  0  0  0  0
  192.2780  171.7570  140.6790 C   0  0  0  0  0  2  0  0  0  0  0  0
  190.7070  173.7170  144.2450 C   0  0  0  0  0  2  0  0  0  0  0  0
  190.0130  176.8800  145.2800 C   0  0  0  0  0  0  0  0  0  0  0  0
  193.9130  172.1980  142.5470 C   0  0  1  0  0  3  0  0  0  0  0  0
  190.5300  174.3830  145.6040 C   0  0  1  0  0  3  0  0  0  0  0  0
  191.4550  171.5760  143.1000 C   0  0  1  0  0  3  0  0  0  0  0  0
  195.5120  173.2620  143.9630 O   0  0  0  0  0  0  0  0  0  0  0  0
  189.9350  172.0220  141.2570 O   0  0  0  0  0  0  0  0  0  0  0  0
  195.1040  174.2400  143.0680 N   0  0  2  0  0  0  0  0  0  0  0  0
  194.9140  175.4810  145.2890 C   0  0  0  0  0  2  0  0  0  0  0  0
  191.2940  177.1190  145.2420 N   0  0  0  0  0  0  0  0  0  0  0  0
  191.8540  174.9060  146.1620 C   0  0  0  0  0  2  0  0  0  0  0  0
  195.1300  170.0200  142.0490 N   0  0  0  0  0  2  0  0  0  0  0  0
  195.4870  170.4870  140.8290 O   0  0  0  0  0  1  0  0  0  0  0  0
  194.3620  170.8170  142.9490 C   0  0  0  0  0  0  0  0  0  0  0  0
  194.0500  170.3490  144.0760 O   0  0  0  0  0  0  0  0  0  0  0  0
  188.5660  175.4600  146.7550 C   0  0  0  0  0  2  0  0  0  0  0  0
  188.9390  174.4300  147.6220 O   0  0  0  0  0  1  0  0  0  0  0  0
  189.0990  177.9270  145.1250 O   0  0  0  0  0  0  0  0  0  0  0  0
  188.0730  177.9160  144.1390 C   0  0  0  0  0  2  0  0  0  0  0  0
  188.6400  177.8580  142.8620 O   0  0  0  0  0  0  0  0  0  0  0  0
  187.6500  178.2390  142.0210 N   0  0  0  0  0  2  0  0  0  0  0  0
  187.7620  176.1210  140.8080 O   0  0  0  0  0  1  0  0  0  0  0  0
  187.1900  177.3750  140.9810 C   0  0  0  0  0  0  0  0  0  0  0  0
  186.2640  177.7520  140.2180 O   0  0  0  0  0  0  0  0  0  0  0  0
  2 10  1  0  0  0  0
  2 17  1  0  0  0  0
  3 10  1  6  0  0  0
  3 13  1  0  0  0  0
  3 15  1  0  0  0  0
  4 19  1  0  0  0  0
  6 14  1  0  0  0  0
  6 26  1  1  0  0  0
  8 16  1  1  0  0  0
  9  5  1  0  0  0  0
  9 21  1  1  0  0  0
 11  7  1  0  0  0  0
 12  6  1  0  0  0  0
 13 24  1  1  0  0  0
 13  8  1  0  0  0  0
 14 11  1  6  0  0  0
 14 21  1  0  0  0  0
 15  1  1  6  0  0  0
 15  7  1  0  0  0  0
 17  1  1  0  0  0  0
 18  8  1  0  0  0  0
 18  4  1  1  0  0  0
 18 16  1  0  0  0  0
 19  5  1  0  0  0  0
 20 12  2  0  0  0  0
 20  9  1  0  0  0  0
 22 24  1  0  0  0  0
 23 22  1  0  0  0  0
 24 25  2  0  0  0  0
 26 27  1  0  0  0  0
 28 12  1  0  0  0  0
 29 28  1  0  0  0  0
 30 29  1  0  0  0  0
 31 30  1  0  0  0  0
 32 33  1  0  0  0  0
 33 31  1  0  0  0  0
 34 33  2  0  0  0  0
M  END
>  <MODEL>
6

>  <REMARK>
 VINA RESULT:      -6.2      2.767      4.694
  Name = 
  6 active torsions:
  status: ('A' for Active; 'I' for Inactive)
    1  A    between atoms: C_1  and  O_15
    2  A    between atoms: C_1  and  O_26
    3  A    between atoms: C_7  and  C_16
    4  A    between atoms: N_12  and  O_26
    5  A    between atoms: C_14  and  C_20
    6  A    between atoms: O_15  and  C_19
                            x       y       z     vdW  Elec       q    Type
                         _______ _______ _______ _____ _____    ______ ____

>  <TORSDO>
F 6

$$$$
=
 OpenBabel11062422043D

 34 37  0  0  1  0  0  0  0  0999 V2000
  195.8670  175.3960  144.7360 C   0  0  0  0  0  2  0  0  0  0  0  0
  196.5500  173.7590  146.1060 C   0  0  0  0  0  2  0  0  0  0  0  0
  194.9250  173.0580  144.2740 C   0  0  2  0  0  3  0  0  0  0  0  0
  191.0820  171.3060  143.1510 C   0  0  0  0  0  2  0  0  0  0  0  0
  189.1010  173.0480  142.3700 S   0  0  0  0  0  0  0  0  0  0  0  0
  190.8660  176.8510  144.2820 C   0  0  1  0  0  3  0  0  0  0  0  0
  194.0250  175.1140  143.0230 C   0  0  0  0  0  2  0  0  0  0  0  0
  193.2600  172.0840  142.6720 C   0  0  1  0  0  3  0  0  0  0  0  0
  190.1520  174.1790  143.3350 C   0  0  2  0  0  3  0  0  0  0  0  0
  195.9810  172.5940  145.2850 C   0  0  0  0  0  2  0  0  0  0  0  0
  192.8870  175.3870  143.9980 C   0  0  0  0  0  2  0  0  0  0  0  0
  189.6520  176.0900  144.7710 C   0  0  0  0  0  0  0  0  0  0  0  0
  194.6740  171.9700  143.2200 C   0  0  1  0  0  3  0  0  0  0  0  0
  191.7440  176.0910  143.2770 C   0  0  1  0  0  3  0  0  0  0  0  0
  195.2330  174.4600  143.6950 C   0  0  1  0  0  3  0  0  0  0  0  0
  192.9880  171.0940  141.7770 O   0  0  0  0  0  0  0  0  0  0  0  0
  195.7130  174.8860  146.0380 O   0  0  0  0  0  0  0  0  0  0  0  0
  192.5000  170.9180  143.0630 N   0  0  2  0  0  0  0  0  0  0  0  0
  190.4850  171.9620  141.8990 C   0  0  0  0  0  2  0  0  0  0  0  0
  189.3360  174.9200  144.2930 N   0  0  0  0  0  0  0  0  0  0  0  0
  190.9240  175.1240  142.4230 C   0  0  0  0  0  2  0  0  0  0  0  0
  196.7180  170.9050  142.1420 N   0  0  0  0  0  2  0  0  0  0  0  0
  196.7280  169.9400  143.0910 O   0  0  0  0  0  1  0  0  0  0  0  0
  195.7260  171.9300  142.1420 C   0  0  0  0  0  0  0  0  0  0  0  0
  195.7480  172.8110  141.2410 O   0  0  0  0  0  0  0  0  0  0  0  0
  190.4710  178.2160  143.7250 C   0  0  0  0  0  2  0  0  0  0  0  0
  189.4970  178.0870  142.7320 O   0  0  0  0  0  1  0  0  0  0  0  0
  188.8440  176.6930  145.7410 O   0  0  0  0  0  0  0  0  0  0  0  0
  187.4330  176.8110  145.6050 C   0  0  0  0  0  2  0  0  0  0  0  0
  187.1030  178.0930  145.1550 O   0  0  0  0  0  0  0  0  0  0  0  0
  185.7500  178.1070  145.0970 N   0  0  0  0  0  2  0  0  0  0  0  0
  185.5950  179.2580  147.2470 O   0  0  0  0  0  1  0  0  0  0  0  0
  184.9720  178.6940  146.1400 C   0  0  0  0  0  0  0  0  0  0  0  0
  183.7170  178.7000  146.0580 O   0  0  0  0  0  0  0  0  0  0  0  0
  1 17  1  0  0  0  0
  3 10  1  6  0  0  0
  5  9  1  0  0  0  0
  6 26  1  6  0  0  0
  6 12  1  0  0  0  0
  7 11  1  0  0  0  0
  8 16  1  6  0  0  0
  8 18  1  0  0  0  0
  8 13  1  0  0  0  0
  9 21  1  6  0  0  0
  9 20  1  0  0  0  0
 10  2  1  0  0  0  0
 12 28  1  0  0  0  0
 13 24  1  6  0  0  0
 13  3  1  0  0  0  0
 14 21  1  1  0  0  0
 14 11  1  0  0  0  0
 14  6  1  0  0  0  0
 15  7  1  1  0  0  0
 15  3  1  0  0  0  0
 15  1  1  0  0  0  0
 16 18  1  0  0  0  0
 17  2  1  0  0  0  0
 18  4  1  6  0  0  0
 19  5  1  0  0  0  0
 19  4  1  0  0  0  0
 20 12  2  0  0  0  0
 22 24  1  0  0  0  0
 22 23  1  0  0  0  0
 25 24  2  0  0  0  0
 27 26  1  0  0  0  0
 29 28  1  0  0  0  0
 30 29  1  0  0  0  0
 31 30  1  0  0  0  0
 31 33  1  0  0  0  0
 33 32  1  0  0  0  0
 34 33  2  0  0  0  0
M  END
>  <MODEL>
7

>  <REMARK>
 VINA RESULT:      -6.0      2.624      3.982
  Name = 
  6 active torsions:
  status: ('A' for Active; 'I' for Inactive)
    1  A    between atoms: C_1  and  O_15
    2  A    between atoms: C_1  and  O_26
    3  A    between atoms: C_7  and  C_16
    4  A    between atoms: N_12  and  O_26
    5  A    between atoms: C_14  and  C_20
    6  A    between atoms: O_15  and  C_19
                            x       y       z     vdW  Elec       q    Type
                         _______ _______ _______ _____ _____    ______ ____

>  <TORSDO>
F 6

$$$$
=
 OpenBabel11062422043D

 34 37  0  0  1  0  0  0  0  0999 V2000
  188.7460  172.2350  141.3850 C   0  0  0  0  0  2  0  0  0  0  0  0
  188.6780  173.0980  139.3180 C   0  0  0  0  0  2  0  0  0  0  0  0
  190.8440  173.4800  140.6030 C   0  0  2  0  0  3  0  0  0  0  0  0
  193.7430  176.2750  142.3020 C   0  0  0  0  0  2  0  0  0  0  0  0
  193.6420  176.6710  145.0240 S   0  0  0  0  0  0  0  0  0  0  0  0
  189.3450  175.1440  145.6870 C   0  0  1  0  0  3  0  0  0  0  0  0
  190.6050  172.6990  143.0380 C   0  0  0  0  0  2  0  0  0  0  0  0
  193.0350  174.1210  141.6400 C   0  0  1  0  0  3  0  0  0  0  0  0
  191.9520  176.0590  144.7320 C   0  0  2  0  0  3  0  0  0  0  0  0
  190.1700  173.4500  139.2260 C   0  0  0  0  0  2  0  0  0  0  0  0
  190.0120  174.0050  143.5500 C   0  0  0  0  0  2  0  0  0  0  0  0
  189.7960  176.5880  145.7500 C   0  0  0  0  0  0  0  0  0  0  0  0
  192.3710  173.4370  140.4550 C   0  0  1  0  0  3  0  0  0  0  0  0
  190.3440  174.1820  145.0260 C   0  0  1  0  0  3  0  0  0  0  0  0
  190.2590  172.4270  141.5750 C   0  0  1  0  0  3  0  0  0  0  0  0
  194.3910  174.1500  141.5060 O   0  0  0  0  0  0  0  0  0  0  0  0
  188.1920  173.2800  140.6240 O   0  0  0  0  0  0  0  0  0  0  0  0
  193.7110  175.3160  141.1850 N   0  0  2  0  0  0  0  0  0  0  0  0
  194.3500  175.7600  143.6150 C   0  0  0  0  0  2  0  0  0  0  0  0
  190.9840  176.9540  145.3580 N   0  0  0  0  0  0  0  0  0  0  0  0
  191.7900  174.6320  145.2380 C   0  0  0  0  0  2  0  0  0  0  0  0
  193.2660  171.6570  138.8720 N   0  0  0  0  0  2  0  0  0  0  0  0
  193.1540  172.5140  137.8290 O   0  0  0  0  0  1  0  0  0  0  0  0
  192.9060  172.0520  140.1940 C   0  0  0  0  0  0  0  0  0  0  0  0
  193.0250  171.2280  141.1390 O   0  0  0  0  0  0  0  0  0  0  0  0
  188.9410  174.6340  147.0670 C   0  0  0  0  0  2  0  0  0  0  0  0
  189.9310  174.9150  148.0130 O   0  0  0  0  0  1  0  0  0  0  0  0
  188.9080  177.5320  146.2750 O   0  0  0  0  0  0  0  0  0  0  0  0
  187.5380  177.5970  145.8970 C   0  0  0  0  0  2  0  0  0  0  0  0
  187.4060  178.3190  144.7070 O   0  0  0  0  0  0  0  0  0  0  0  0
  187.0340  177.4050  143.7800 N   0  0  0  0  0  2  0  0  0  0  0  0
  188.9750  177.9170  142.3870 O   0  0  0  0  0  1  0  0  0  0  0  0
  187.8150  177.1850  142.6060 C   0  0  0  0  0  0  0  0  0  0  0  0
  187.4500  176.3240  141.7640 O   0  0  0  0  0  0  0  0  0  0  0  0
  2 17  1  0  0  0  0
  3 10  1  6  0  0  0
  3 15  1  0  0  0  0
  4 19  1  0  0  0  0
  6 12  1  0  0  0  0
  6 26  1  1  0  0  0
  7 11  1  0  0  0  0
  8 16  1  6  0  0  0
  9  5  1  0  0  0  0
  9 21  1  1  0  0  0
  9 20  1  0  0  0  0
 10  2  1  0  0  0  0
 12 28  1  0  0  0  0
 13 24  1  1  0  0  0
 13  3  1  0  0  0  0
 13  8  1  0  0  0  0
 14 11  1  6  0  0  0
 14 21  1  0  0  0  0
 14  6  1  0  0  0  0
 15  1  1  1  0  0  0
 15  7  1  0  0  0  0
 17  1  1  0  0  0  0
 18 16  1  0  0  0  0
 18  8  1  0  0  0  0
 18  4  1  1  0  0  0
 19  5  1  0  0  0  0
 20 12  2  0  0  0  0
 22 24  1  0  0  0  0
 23 22  1  0  0  0  0
 24 25  2  0  0  0  0
 26 27  1  0  0  0  0
 29 28  1  0  0  0  0
 30 29  1  0  0  0  0
 31 30  1  0  0  0  0
 32 33  1  0  0  0  0
 33 31  1  0  0  0  0
 34 33  2  0  0  0  0
M  END
>  <MODEL>
8

>  <REMARK>
 VINA RESULT:      -5.9      3.008      5.258
  Name = 
  6 active torsions:
  status: ('A' for Active; 'I' for Inactive)
    1  A    between atoms: C_1  and  O_15
    2  A    between atoms: C_1  and  O_26
    3  A    between atoms: C_7  and  C_16
    4  A    between atoms: N_12  and  O_26
    5  A    between atoms: C_14  and  C_20
    6  A    between atoms: O_15  and  C_19
                            x       y       z     vdW  Elec       q    Type
                         _______ _______ _______ _____ _____    ______ ____

>  <TORSDO>
F 6

$$$$
=
 OpenBabel11062422043D

 34 37  0  0  1  0  0  0  0  0999 V2000
  193.7420  177.1390  144.8620 C   0  0  0  0  0  2  0  0  0  0  0  0
  194.5660  175.8670  146.5130 C   0  0  0  0  0  2  0  0  0  0  0  0
  193.5620  174.6030  144.5420 C   0  0  2  0  0  3  0  0  0  0  0  0
  190.6080  171.7560  143.0360 C   0  0  0  0  0  2  0  0  0  0  0  0
  188.4180  172.8030  141.7400 S   0  0  0  0  0  0  0  0  0  0  0  0
  188.7130  177.0780  143.4360 C   0  0  1  0  0  3  0  0  0  0  0  0
  192.3980  176.2230  142.9220 C   0  0  0  0  0  2  0  0  0  0  0  0
  192.5490  173.0840  142.8230 C   0  0  1  0  0  3  0  0  0  0  0  0
  188.9280  174.2520  142.7180 C   0  0  2  0  0  3  0  0  0  0  0  0
  194.4930  174.5320  145.7580 C   0  0  0  0  0  2  0  0  0  0  0  0
  191.0660  176.2310  143.6610 C   0  0  0  0  0  2  0  0  0  0  0  0
  187.6750  176.0410  143.8120 C   0  0  0  0  0  0  0  0  0  0  0  0
  193.8130  173.4160  143.6010 C   0  0  1  0  0  3  0  0  0  0  0  0
  189.9340  176.5280  142.6850 C   0  0  1  0  0  3  0  0  0  0  0  0
  193.5880  175.9900  143.8540 C   0  0  1  0  0  3  0  0  0  0  0  0
  192.7250  171.9960  142.0230 O   0  0  0  0  0  0  0  0  0  0  0  0
  193.4870  176.7010  146.1740 O   0  0  0  0  0  0  0  0  0  0  0  0
  192.0680  171.7820  143.2250 N   0  0  2  0  0  0  0  0  0  0  0  0
  190.1040  172.1240  141.6340 C   0  0  0  0  0  2  0  0  0  0  0  0
  187.7790  174.7970  143.4350 N   0  0  0  0  0  0  0  0  0  0  0  0
  189.5780  175.3090  141.8340 C   0  0  0  0  0  2  0  0  0  0  0  0
  196.2490  172.9460  143.0360 N   0  0  0  0  0  2  0  0  0  0  0  0
  196.3540  172.1380  144.1170 O   0  0  0  0  0  1  0  0  0  0  0  0
  195.0210  173.5990  142.7190 C   0  0  0  0  0  0  0  0  0  0  0  0
  194.9610  174.3430  141.7040 O   0  0  0  0  0  0  0  0  0  0  0  0
  188.0800  178.2310  142.6610 C   0  0  0  0  0  2  0  0  0  0  0  0
  188.9240  178.6660  141.6360 O   0  0  0  0  0  1  0  0  0  0  0  0
  186.5690  176.4570  144.5590 O   0  0  0  0  0  0  0  0  0  0  0  0
  186.6510  176.7910  145.9390 C   0  0  0  0  0  2  0  0  0  0  0  0
  185.6040  177.6490  146.2860 O   0  0  0  0  0  0  0  0  0  0  0  0
  185.9400  178.8470  145.7520 N   0  0  0  0  0  2  0  0  0  0  0  0
  184.0850  178.7440  144.1640 O   0  0  0  0  0  0  0  0  0  0  0  0
  185.1840  179.4180  144.6840 C   0  0  0  0  0  0  0  0  0  0  0  0
  185.5140  180.5360  144.2100 O   0  0  0  0  0  1  0  0  0  0  0  0
  1 17  1  0  0  0  0
  3 10  1  1  0  0  0
  5  9  1  0  0  0  0
  6 26  1  6  0  0  0
  6 12  1  0  0  0  0
  7 11  1  0  0  0  0
  8 16  1  6  0  0  0
  8 18  1  0  0  0  0
  8 13  1  0  0  0  0
  9 21  1  6  0  0  0
  9 20  1  0  0  0  0
 10  2  1  0  0  0  0
 12 28  1  0  0  0  0
 13 24  1  6  0  0  0
 13  3  1  0  0  0  0
 14 21  1  1  0  0  0
 14  6  1  0  0  0  0
 14 11  1  0  0  0  0
 15  7  1  1  0  0  0
 15  3  1  0  0  0  0
 15  1  1  0  0  0  0
 16 18  1  0  0  0  0
 17  2  1  0  0  0  0
 18  4  1  6  0  0  0
 19  5  1  0  0  0  0
 19  4  1  0  0  0  0
 20 12  2  0  0  0  0
 22 23  1  0  0  0  0
 24 22  1  0  0  0  0
 25 24  2  0  0  0  0
 27 26  1  0  0  0  0
 28 29  1  0  0  0  0
 29 30  1  0  0  0  0
 31 30  1  0  0  0  0
 32 33  2  0  0  0  0
 33 31  1  0  0  0  0
 34 33  1  0  0  0  0
M  END
>  <MODEL>
9

>  <REMARK>
 VINA RESULT:      -5.9      2.494      3.567
  Name = 
  6 active torsions:
  status: ('A' for Active; 'I' for Inactive)
    1  A    between atoms: C_1  and  O_15
    2  A    between atoms: C_1  and  O_26
    3  A    between atoms: C_7  and  C_16
    4  A    between atoms: N_12  and  O_26
    5  A    between atoms: C_14  and  C_20
    6  A    between atoms: O_15  and  C_19
                            x       y       z     vdW  Elec       q    Type
                         _______ _______ _______ _____ _____    ______ ____

>  <TORSDO>
F 6

$$$$
