=
 OpenBabel11072409393D

 25 26  0  0  1  0  0  0  0  0999 V2000
  185.1320  178.1250  145.2180 C   0  0  1  0  0  3  0  0  0  0  0  0
  184.8590  178.5980  147.4750 N   0  0  0  0  0  2  0  0  0  0  0  0
  186.2460  177.0930  145.4890 C   0  0  2  0  0  3  0  0  0  0  0  0
  185.1560  179.1840  146.2290 N   0  0  0  0  0  2  0  0  0  0  0  0
  186.0170  177.8110  147.8920 C   0  0  0  0  0  2  0  0  0  0  0  0
  186.1970  176.6250  146.9460 C   0  0  0  0  0  2  0  0  0  0  0  0
  185.1940  178.6880  143.8290 C   0  0  0  0  0  0  0  0  0  0  0  0
  184.9190  177.8330  142.7180 N   0  0  0  0  0  2  0  0  0  0  0  0
  185.5420  179.8860  143.6430 O   0  0  0  0  0  0  0  0  0  0  0  0
  185.0850  178.2630  141.3350 C   0  0  0  0  0  2  0  0  0  0  0  0
  186.2140  177.4890  140.6690 C   0  0  0  0  0  2  0  0  0  0  0  0
  187.3330  177.4680  141.5020 O   0  0  0  0  0  0  0  0  0  0  0  0
  187.9310  176.2310  141.2540 C   0  0  0  0  0  2  0  0  0  0  0  0
  188.6010  174.6910  142.9480 O   0  0  0  0  0  1  0  0  0  0  0  0
  187.4880  175.2270  142.3010 C   0  0  0  0  0  2  0  0  0  0  0  0
  188.7430  176.9840  145.5630 C   0  0  0  0  0  3  0  0  0  0  0  0
  187.6270  177.5510  145.0920 C   0  0  0  0  0  3  0  0  0  0  0  0
  191.8560  176.5950  146.2930 O   0  0  0  0  0  1  0  0  0  0  0  0
  191.4640  177.7540  143.2430 C   0  0  0  0  0  2  0  0  0  0  0  0
  190.0920  178.0550  143.7750 C   0  0  0  0  0  2  0  0  0  0  0  0
  190.1040  177.4750  145.1700 C   0  0  2  0  0  3  0  0  0  0  0  0
  191.9390  176.5520  144.0330 C   0  0  1  0  0  3  0  0  0  0  0  0
  191.0790  176.3900  145.2040 N   0  0  0  0  0  0  0  0  0  0  0  0
  191.8610  175.4080  143.2370 O   0  0  0  0  0  0  0  0  0  0  0  0
  192.9080  174.5950  143.6760 C   0  0  0  0  0  1  0  0  0  0  0  0
  1  7  1  6  0  0  0
  1  3  1  0  0  0  0
  1  4  1  0  0  0  0
  2  5  1  0  0  0  0
  3 17  1  1  0  0  0
  3  6  1  0  0  0  0
  4  2  1  0  0  0  0
  6  5  1  0  0  0  0
  8  7  1  0  0  0  0
  9  7  2  0  0  0  0
 10  8  1  0  0  0  0
 11 10  1  0  0  0  0
 11 12  1  0  0  0  0
 13 12  1  0  0  0  0
 13 15  1  0  0  0  0
 15 14  1  0  0  0  0
 17 16  2  0  0  0  0
 19 20  1  0  0  0  0
 19 22  1  0  0  0  0
 20 21  1  0  0  0  0
 21 23  1  0  0  0  0
 21 16  1  6  0  0  0
 22 24  1  6  0  0  0
 22 23  1  0  0  0  0
 23 18  1  0  0  0  0
 24 25  1  0  0  0  0
M  END
>  <MODEL>
1

>  <REMARK>
 VINA RESULT:      -6.1      0.000      0.000
  Name = 
  9 active torsions:
  status: ('A' for Active; 'I' for Inactive)
    1  A    between atoms: C_1  and  O_12
    2  A    between atoms: C_1  and  C_20
    3  A    between atoms: C_2  and  C_16
    4  A    between atoms: C_5  and  C_8
    5  A    between atoms: C_6  and  O_12
    6  A    between atoms: C_6  and  C_23
    7  A    between atoms: O_9  and  C_21
    8  A    between atoms: C_11  and  C_13
    9  A    between atoms: N_18  and  C_20
                            x       y       z     vdW  Elec       q    Type
                         _______ _______ _______ _____ _____    ______ ____

>  <TORSDO>
F 9

$$$$
=
 OpenBabel11072409393D

 25 26  0  0  1  0  0  0  0  0999 V2000
  185.2330  177.2900  144.9580 C   0  0  1  0  0  3  0  0  0  0  0  0
  184.2090  178.6370  146.5470 N   0  0  0  0  0  2  0  0  0  0  0  0
  186.3450  176.8490  145.9320 C   0  0  2  0  0  3  0  0  0  0  0  0
  184.7910  178.6510  145.2650 N   0  0  0  0  0  2  0  0  0  0  0  0
  185.2830  178.4820  147.5270 C   0  0  0  0  0  2  0  0  0  0  0  0
  185.9140  177.0990  147.3800 C   0  0  0  0  0  2  0  0  0  0  0  0
  185.6410  177.1540  143.5200 C   0  0  0  0  0  0  0  0  0  0  0  0
  185.4620  178.2630  142.6370 N   0  0  0  0  0  2  0  0  0  0  0  0
  186.0810  176.0550  143.0840 O   0  0  0  0  0  0  0  0  0  0  0  0
  185.7060  178.1750  141.2040 C   0  0  0  0  0  2  0  0  0  0  0  0
  184.3990  178.2850  140.4330 C   0  0  0  0  0  2  0  0  0  0  0  0
  183.3280  178.3800  141.3220 O   0  0  0  0  0  0  0  0  0  0  0  0
  182.2140  178.0000  140.5720 C   0  0  0  0  0  2  0  0  0  0  0  0
  180.7170  179.0950  142.0710 O   0  0  0  0  0  1  0  0  0  0  0  0
  181.1090  179.0250  140.7350 C   0  0  0  0  0  2  0  0  0  0  0  0
  188.8390  176.7570  145.7900 C   0  0  0  0  0  3  0  0  0  0  0  0
  187.7000  177.4410  145.6380 C   0  0  0  0  0  3  0  0  0  0  0  0
  191.9210  176.5870  146.7090 O   0  0  0  0  0  1  0  0  0  0  0  0
  191.6250  177.8710  143.6980 C   0  0  0  0  0  2  0  0  0  0  0  0
  190.2020  178.0290  144.1500 C   0  0  0  0  0  2  0  0  0  0  0  0
  190.1750  177.3780  145.5130 C   0  0  2  0  0  3  0  0  0  0  0  0
  192.1510  176.6710  144.4610 C   0  0  1  0  0  3  0  0  0  0  0  0
  191.2360  176.3770  145.5610 N   0  0  0  0  0  0  0  0  0  0  0  0
  192.2210  175.5690  143.6070 O   0  0  0  0  0  0  0  0  0  0  0  0
  192.8780  176.0410  142.4680 C   0  0  0  0  0  1  0  0  0  0  0  0
  1  7  1  6  0  0  0
  1  4  1  0  0  0  0
  1  3  1  0  0  0  0
  2  5  1  0  0  0  0
  3 17  1  6  0  0  0
  3  6  1  0  0  0  0
  4  2  1  0  0  0  0
  6  5  1  0  0  0  0
  8  7  1  0  0  0  0
  9  7  2  0  0  0  0
 10  8  1  0  0  0  0
 11 10  1  0  0  0  0
 11 12  1  0  0  0  0
 13 15  1  0  0  0  0
 13 12  1  0  0  0  0
 15 14  1  0  0  0  0
 17 16  2  0  0  0  0
 19 20  1  0  0  0  0
 19 22  1  0  0  0  0
 20 21  1  0  0  0  0
 21 23  1  0  0  0  0
 21 16  1  6  0  0  0
 22 24  1  6  0  0  0
 22 23  1  0  0  0  0
 23 18  1  0  0  0  0
 25 24  1  0  0  0  0
M  END
>  <MODEL>
2

>  <REMARK>
 VINA RESULT:      -5.9      1.856      3.010
  Name = 
  9 active torsions:
  status: ('A' for Active; 'I' for Inactive)
    1  A    between atoms: C_1  and  O_12
    2  A    between atoms: C_1  and  C_20
    3  A    between atoms: C_2  and  C_16
    4  A    between atoms: C_5  and  C_8
    5  A    between atoms: C_6  and  O_12
    6  A    between atoms: C_6  and  C_23
    7  A    between atoms: O_9  and  C_21
    8  A    between atoms: C_11  and  C_13
    9  A    between atoms: N_18  and  C_20
                            x       y       z     vdW  Elec       q    Type
                         _______ _______ _______ _____ _____    ______ ____

>  <TORSDO>
F 9

$$$$
=
 OpenBabel11072409393D

 25 26  0  0  1  0  0  0  0  0999 V2000
  185.2180  177.6700  144.2150 C   0  0  1  0  0  3  0  0  0  0  0  0
  183.8440  178.8140  145.6960 N   0  0  0  0  0  2  0  0  0  0  0  0
  185.9940  176.9720  145.3510 C   0  0  2  0  0  3  0  0  0  0  0  0
  184.7620  178.9940  144.6430 N   0  0  0  0  0  2  0  0  0  0  0  0
  184.5930  178.3990  146.8800 C   0  0  0  0  0  2  0  0  0  0  0  0
  185.1850  177.0090  146.6500 C   0  0  0  0  0  2  0  0  0  0  0  0
  186.0070  177.7440  142.9410 C   0  0  0  0  0  0  0  0  0  0  0  0
  186.4580  176.5350  142.3280 N   0  0  0  0  0  2  0  0  0  0  0  0
  186.3180  178.8640  142.4490 O   0  0  0  0  0  0  0  0  0  0  0  0
  187.3380  176.5210  141.1670 C   0  0  0  0  0  2  0  0  0  0  0  0
  188.3420  175.3830  141.2730 C   0  0  0  0  0  2  0  0  0  0  0  0
  187.7530  174.2840  141.9000 O   0  0  0  0  0  0  0  0  0  0  0  0
  188.8040  173.3880  142.0970 C   0  0  0  0  0  2  0  0  0  0  0  0
  189.6170  173.5740  144.3320 O   0  0  0  0  0  1  0  0  0  0  0  0
  189.8370  174.0010  143.0230 C   0  0  0  0  0  2  0  0  0  0  0  0
  188.4810  176.7170  145.3600 C   0  0  0  0  0  3  0  0  0  0  0  0
  187.4000  177.4800  145.5480 C   0  0  0  0  0  3  0  0  0  0  0  0
  190.7440  176.9140  147.6440 O   0  0  0  0  0  1  0  0  0  0  0  0
  192.0390  177.1500  144.6320 C   0  0  0  0  0  2  0  0  0  0  0  0
  190.6040  177.4170  144.2800 C   0  0  0  0  0  2  0  0  0  0  0  0
  189.8670  177.2420  145.5870 C   0  0  2  0  0  3  0  0  0  0  0  0
  191.9870  176.2720  145.8660 C   0  0  1  0  0  3  0  0  0  0  0  0
  190.6380  176.3310  146.4270 N   0  0  0  0  0  0  0  0  0  0  0  0
  192.2870  174.9540  145.5160 O   0  0  0  0  0  0  0  0  0  0  0  0
  193.4800  175.0400  144.7950 C   0  0  0  0  0  1  0  0  0  0  0  0
  1  7  1  6  0  0  0
  1  4  1  0  0  0  0
  1  3  1  0  0  0  0
  2  5  1  0  0  0  0
  3 17  1  1  0  0  0
  3  6  1  0  0  0  0
  4  2  1  0  0  0  0
  6  5  1  0  0  0  0
  8  7  1  0  0  0  0
  9  7  2  0  0  0  0
 10 11  1  0  0  0  0
 10  8  1  0  0  0  0
 11 12  1  0  0  0  0
 12 13  1  0  0  0  0
 13 15  1  0  0  0  0
 15 14  1  0  0  0  0
 16 17  2  0  0  0  0
 19 22  1  0  0  0  0
 20 19  1  0  0  0  0
 20 21  1  0  0  0  0
 21 16  1  6  0  0  0
 21 23  1  0  0  0  0
 22 24  1  6  0  0  0
 22 23  1  0  0  0  0
 23 18  1  0  0  0  0
 25 24  1  0  0  0  0
M  END
>  <MODEL>
3

>  <REMARK>
 VINA RESULT:      -5.8      1.500      1.915
  Name = 
  9 active torsions:
  status: ('A' for Active; 'I' for Inactive)
    1  A    between atoms: C_1  and  O_12
    2  A    between atoms: C_1  and  C_20
    3  A    between atoms: C_2  and  C_16
    4  A    between atoms: C_5  and  C_8
    5  A    between atoms: C_6  and  O_12
    6  A    between atoms: C_6  and  C_23
    7  A    between atoms: O_9  and  C_21
    8  A    between atoms: C_11  and  C_13
    9  A    between atoms: N_18  and  C_20
                            x       y       z     vdW  Elec       q    Type
                         _______ _______ _______ _____ _____    ______ ____

>  <TORSDO>
F 9

$$$$
=
 OpenBabel11072409393D

 25 26  0  0  1  0  0  0  0  0999 V2000
  190.1580  176.6520  143.3890 C   0  0  1  0  0  3  0  0  0  0  0  0
  191.2660  174.7560  144.1420 N   0  0  0  0  0  2  0  0  0  0  0  0
  190.0290  177.2380  144.8100 C   0  0  2  0  0  3  0  0  0  0  0  0
  190.1300  175.1890  143.4320 N   0  0  0  0  0  2  0  0  0  0  0  0
  191.0590  175.0640  145.5560 C   0  0  0  0  0  2  0  0  0  0  0  0
  191.0410  176.5790  145.7520 C   0  0  0  0  0  2  0  0  0  0  0  0
  189.1250  177.1960  142.4470 C   0  0  0  0  0  0  0  0  0  0  0  0
  188.1420  176.3110  141.9050 N   0  0  0  0  0  2  0  0  0  0  0  0
  189.1600  178.4060  142.0920 O   0  0  0  0  0  0  0  0  0  0  0  0
  187.1870  176.7260  140.8850 C   0  0  0  0  0  2  0  0  0  0  0  0
  185.9470  177.3260  141.5300 C   0  0  0  0  0  2  0  0  0  0  0  0
  185.6150  178.5260  140.8990 O   0  0  0  0  0  0  0  0  0  0  0  0
  184.2850  178.3610  140.5110 C   0  0  0  0  0  2  0  0  0  0  0  0
  182.0720  178.0770  141.3560 O   0  0  0  0  0  1  0  0  0  0  0  0
  183.4100  178.1770  141.7360 C   0  0  0  0  0  2  0  0  0  0  0  0
  188.2750  177.8670  146.4770 C   0  0  0  0  0  3  0  0  0  0  0  0
  188.6310  177.2010  145.3730 C   0  0  0  0  0  3  0  0  0  0  0  0
  186.0070  179.7250  147.8120 O   0  0  0  0  0  1  0  0  0  0  0  0
  184.7130  177.0370  146.4300 C   0  0  0  0  0  2  0  0  0  0  0  0
  186.1460  176.5910  146.4900 C   0  0  0  0  0  2  0  0  0  0  0  0
  186.8830  177.7940  147.0290 C   0  0  2  0  0  3  0  0  0  0  0  0
  184.7750  178.5480  146.3240 C   0  0  1  0  0  3  0  0  0  0  0  0
  186.1220  178.9890  146.6810 N   0  0  0  0  0  0  0  0  0  0  0  0
  184.4890  178.9370  145.0140 O   0  0  0  0  0  0  0  0  0  0  0  0
  185.6120  179.6580  144.6030 C   0  0  0  0  0  1  0  0  0  0  0  0
  1  7  1  6  0  0  0
  1  4  1  0  0  0  0
  1  3  1  0  0  0  0
  2  5  1  0  0  0  0
  3 17  1  1  0  0  0
  3  6  1  0  0  0  0
  4  2  1  0  0  0  0
  5  6  1  0  0  0  0
  8  7  1  0  0  0  0
  9  7  2  0  0  0  0
 10 11  1  0  0  0  0
 10  8  1  0  0  0  0
 12 11  1  0  0  0  0
 13 12  1  0  0  0  0
 13 15  1  0  0  0  0
 14 15  1  0  0  0  0
 17 16  2  0  0  0  0
 19 20  1  0  0  0  0
 20 21  1  0  0  0  0
 21 16  1  6  0  0  0
 22 24  1  6  0  0  0
 22 19  1  0  0  0  0
 22 23  1  0  0  0  0
 23 21  1  0  0  0  0
 23 18  1  0  0  0  0
 25 24  1  0  0  0  0
M  END
>  <MODEL>
4

>  <REMARK>
 VINA RESULT:      -5.6      2.194      5.572
  Name = 
  9 active torsions:
  status: ('A' for Active; 'I' for Inactive)
    1  A    between atoms: C_1  and  O_12
    2  A    between atoms: C_1  and  C_20
    3  A    between atoms: C_2  and  C_16
    4  A    between atoms: C_5  and  C_8
    5  A    between atoms: C_6  and  O_12
    6  A    between atoms: C_6  and  C_23
    7  A    between atoms: O_9  and  C_21
    8  A    between atoms: C_11  and  C_13
    9  A    between atoms: N_18  and  C_20
                            x       y       z     vdW  Elec       q    Type
                         _______ _______ _______ _____ _____    ______ ____

>  <TORSDO>
F 9

$$$$
=
 OpenBabel11072409393D

 25 26  0  0  1  0  0  0  0  0999 V2000
  186.8070  177.6830  146.4780 C   0  0  1  0  0  3  0  0  0  0  0  0
  184.4900  177.7650  146.3530 N   0  0  0  0  0  2  0  0  0  0  0  0
  186.9840  178.3990  145.1240 C   0  0  2  0  0  3  0  0  0  0  0  0
  185.5800  176.8820  146.4790 N   0  0  0  0  0  2  0  0  0  0  0  0
  184.4730  178.2690  144.9810 C   0  0  0  0  0  2  0  0  0  0  0  0
  185.7020  179.1450  144.7430 C   0  0  0  0  0  2  0  0  0  0  0  0
  188.0020  176.8580  146.8530 C   0  0  0  0  0  0  0  0  0  0  0  0
  189.2700  177.4990  147.0100 N   0  0  0  0  0  2  0  0  0  0  0  0
  187.9010  175.6060  146.9710 O   0  0  0  0  0  0  0  0  0  0  0  0
  190.5030  176.7580  147.2420 C   0  0  0  0  0  2  0  0  0  0  0  0
  191.1910  176.4420  145.9220 C   0  0  0  0  0  2  0  0  0  0  0  0
  192.1120  175.4090  146.0990 O   0  0  0  0  0  0  0  0  0  0  0  0
  193.2450  175.8260  145.4000 C   0  0  0  0  0  2  0  0  0  0  0  0
  194.4360  177.3380  146.8080 O   0  0  0  0  0  1  0  0  0  0  0  0
  194.4020  176.0180  146.3610 C   0  0  0  0  0  2  0  0  0  0  0  0
  188.5880  177.7550  143.3170 C   0  0  0  0  0  3  0  0  0  0  0  0
  187.4690  177.5090  144.0070 C   0  0  0  0  0  3  0  0  0  0  0  0
  191.0580  175.8870  142.4300 O   0  0  0  0  0  1  0  0  0  0  0  0
  188.2750  175.0190  140.9090 C   0  0  0  0  0  2  0  0  0  0  0  0
  187.8570  176.3820  141.3820 C   0  0  0  0  0  2  0  0  0  0  0  0
  189.0340  176.8660  142.1960 C   0  0  2  0  0  3  0  0  0  0  0  0
  189.3060  174.5510  141.9170 C   0  0  1  0  0  3  0  0  0  0  0  0
  189.7460  175.6990  142.7070 N   0  0  0  0  0  0  0  0  0  0  0  0
  188.7340  173.5970  142.7610 O   0  0  0  0  0  0  0  0  0  0  0  0
  188.0670  172.7180  141.9060 C   0  0  0  0  0  1  0  0  0  0  0  0
  1  4  1  0  0  0  0
  1  7  1  6  0  0  0
  2  4  1  0  0  0  0
  3 17  1  6  0  0  0
  3  1  1  0  0  0  0
  5  2  1  0  0  0  0
  6  5  1  0  0  0  0
  6  3  1  0  0  0  0
  7  9  2  0  0  0  0
  7  8  1  0  0  0  0
  8 10  1  0  0  0  0
 11 12  1  0  0  0  0
 11 10  1  0  0  0  0
 13 12  1  0  0  0  0
 13 15  1  0  0  0  0
 15 14  1  0  0  0  0
 16 17  2  0  0  0  0
 18 23  1  0  0  0  0
 19 20  1  0  0  0  0
 19 22  1  0  0  0  0
 20 21  1  0  0  0  0
 21 23  1  0  0  0  0
 21 16  1  1  0  0  0
 22 23  1  0  0  0  0
 22 24  1  1  0  0  0
 25 24  1  0  0  0  0
M  END
>  <MODEL>
5

>  <REMARK>
 VINA RESULT:      -5.6      2.309      4.906
  Name = 
  9 active torsions:
  status: ('A' for Active; 'I' for Inactive)
    1  A    between atoms: C_1  and  O_12
    2  A    between atoms: C_1  and  C_20
    3  A    between atoms: C_2  and  C_16
    4  A    between atoms: C_5  and  C_8
    5  A    between atoms: C_6  and  O_12
    6  A    between atoms: C_6  and  C_23
    7  A    between atoms: O_9  and  C_21
    8  A    between atoms: C_11  and  C_13
    9  A    between atoms: N_18  and  C_20
                            x       y       z     vdW  Elec       q    Type
                         _______ _______ _______ _____ _____    ______ ____

>  <TORSDO>
F 9

$$$$
=
 OpenBabel11072409393D

 25 26  0  0  1  0  0  0  0  0999 V2000
  185.4200  177.6100  144.1560 C   0  0  1  0  0  3  0  0  0  0  0  0
  184.0340  178.9580  145.4420 N   0  0  0  0  0  2  0  0  0  0  0  0
  185.9320  176.8290  145.3840 C   0  0  2  0  0  3  0  0  0  0  0  0
  185.1010  178.9910  144.5230 N   0  0  0  0  0  2  0  0  0  0  0  0
  184.5520  178.4620  146.7160 C   0  0  0  0  0  2  0  0  0  0  0  0
  184.9690  177.0000  146.5630 C   0  0  0  0  0  2  0  0  0  0  0  0
  186.3750  177.5540  143.0010 C   0  0  0  0  0  0  0  0  0  0  0  0
  186.7660  176.2820  142.4800 N   0  0  0  0  0  2  0  0  0  0  0  0
  186.8710  178.6150  142.5320 O   0  0  0  0  0  0  0  0  0  0  0  0
  187.7850  176.1330  141.4500 C   0  0  0  0  0  2  0  0  0  0  0  0
  188.9140  175.2390  141.9440 C   0  0  0  0  0  2  0  0  0  0  0  0
  189.4780  174.5460  140.8730 O   0  0  0  0  0  0  0  0  0  0  0  0
  188.5860  173.5030  140.6220 C   0  0  0  0  0  2  0  0  0  0  0  0
  187.0670  172.3860  142.0830 O   0  0  0  0  0  1  0  0  0  0  0  0
  188.4180  172.6580  141.8700 C   0  0  0  0  0  2  0  0  0  0  0  0
  188.2880  176.1950  145.9280 C   0  0  0  0  0  3  0  0  0  0  0  0
  187.3550  177.1400  145.7710 C   0  0  0  0  0  3  0  0  0  0  0  0
  190.5650  175.3160  148.0300 O   0  0  0  0  0  1  0  0  0  0  0  0
  191.8550  176.8040  145.3980 C   0  0  0  0  0  2  0  0  0  0  0  0
  190.4280  177.2370  145.2230 C   0  0  0  0  0  2  0  0  0  0  0  0
  189.6910  176.5300  146.3360 C   0  0  2  0  0  3  0  0  0  0  0  0
  191.7790  175.4780  146.1280 C   0  0  1  0  0  3  0  0  0  0  0  0
  190.4360  175.3240  146.6820 N   0  0  0  0  0  0  0  0  0  0  0  0
  192.0360  174.4370  145.2340 O   0  0  0  0  0  0  0  0  0  0  0  0
  193.2470  174.7780  144.6280 C   0  0  0  0  0  1  0  0  0  0  0  0
  1  7  1  6  0  0  0
  1  4  1  0  0  0  0
  1  3  1  0  0  0  0
  2  5  1  0  0  0  0
  3 17  1  1  0  0  0
  3  6  1  0  0  0  0
  4  2  1  0  0  0  0
  6  5  1  0  0  0  0
  8  7  1  0  0  0  0
  9  7  2  0  0  0  0
 10 11  1  0  0  0  0
 10  8  1  0  0  0  0
 12 11  1  0  0  0  0
 13 12  1  0  0  0  0
 13 15  1  0  0  0  0
 15 14  1  0  0  0  0
 17 16  2  0  0  0  0
 19 22  1  0  0  0  0
 20 19  1  0  0  0  0
 20 21  1  0  0  0  0
 21 16  1  6  0  0  0
 21 23  1  0  0  0  0
 22 24  1  6  0  0  0
 22 23  1  0  0  0  0
 23 18  1  0  0  0  0
 25 24  1  0  0  0  0
M  END
>  <MODEL>
6

>  <REMARK>
 VINA RESULT:      -5.5      1.791      2.255
  Name = 
  9 active torsions:
  status: ('A' for Active; 'I' for Inactive)
    1  A    between atoms: C_1  and  O_12
    2  A    between atoms: C_1  and  C_20
    3  A    between atoms: C_2  and  C_16
    4  A    between atoms: C_5  and  C_8
    5  A    between atoms: C_6  and  O_12
    6  A    between atoms: C_6  and  C_23
    7  A    between atoms: O_9  and  C_21
    8  A    between atoms: C_11  and  C_13
    9  A    between atoms: N_18  and  C_20
                            x       y       z     vdW  Elec       q    Type
                         _______ _______ _______ _____ _____    ______ ____

>  <TORSDO>
F 9

$$$$
=
 OpenBabel11072409393D

 25 26  0  0  1  0  0  0  0  0999 V2000
  186.8780  177.8570  146.5540 C   0  0  1  0  0  3  0  0  0  0  0  0
  184.5560  177.8300  146.5860 N   0  0  0  0  0  2  0  0  0  0  0  0
  186.9290  178.5480  145.1760 C   0  0  2  0  0  3  0  0  0  0  0  0
  185.6940  177.0020  146.6560 N   0  0  0  0  0  2  0  0  0  0  0  0
  184.4230  178.2980  145.2080 C   0  0  0  0  0  2  0  0  0  0  0  0
  185.5900  179.2250  144.8680 C   0  0  0  0  0  2  0  0  0  0  0  0
  188.1340  177.0980  146.8640 C   0  0  0  0  0  0  0  0  0  0  0  0
  188.1030  175.6700  146.8640 N   0  0  0  0  0  2  0  0  0  0  0  0
  189.1890  177.7140  147.1790 O   0  0  0  0  0  0  0  0  0  0  0  0
  189.2390  174.8580  147.2820 C   0  0  0  0  0  2  0  0  0  0  0  0
  190.2230  174.6890  146.1330 C   0  0  0  0  0  2  0  0  0  0  0  0
  191.4310  175.3130  146.4450 O   0  0  0  0  0  0  0  0  0  0  0  0
  192.3250  174.8480  145.4790 C   0  0  0  0  0  2  0  0  0  0  0  0
  192.4100  173.2580  143.7030 O   0  0  0  0  0  1  0  0  0  0  0  0
  191.8720  173.4940  144.9680 C   0  0  0  0  0  2  0  0  0  0  0  0
  188.5760  177.7710  143.4630 C   0  0  0  0  0  3  0  0  0  0  0  0
  187.3790  177.6540  144.0480 C   0  0  0  0  0  3  0  0  0  0  0  0
  191.0810  176.0340  142.4210 O   0  0  0  0  0  1  0  0  0  0  0  0
  188.2490  174.9650  141.1390 C   0  0  0  0  0  2  0  0  0  0  0  0
  187.7850  176.3110  141.6170 C   0  0  0  0  0  2  0  0  0  0  0  0
  188.9890  176.8840  142.3270 C   0  0  2  0  0  3  0  0  0  0  0  0
  189.3810  174.5830  142.0720 C   0  0  1  0  0  3  0  0  0  0  0  0
  189.8080  175.7740  142.8030 N   0  0  0  0  0  0  0  0  0  0  0  0
  188.9350  173.6170  142.9760 O   0  0  0  0  0  0  0  0  0  0  0  0
  189.2040  172.3960  142.3560 C   0  0  0  0  0  1  0  0  0  0  0  0
  1  4  1  0  0  0  0
  1  7  1  6  0  0  0
  2  4  1  0  0  0  0
  3 17  1  6  0  0  0
  3  1  1  0  0  0  0
  5  2  1  0  0  0  0
  6  3  1  0  0  0  0
  6  5  1  0  0  0  0
  7  9  2  0  0  0  0
  8  7  1  0  0  0  0
  8 10  1  0  0  0  0
 11 12  1  0  0  0  0
 11 10  1  0  0  0  0
 13 12  1  0  0  0  0
 14 15  1  0  0  0  0
 15 13  1  0  0  0  0
 16 17  2  0  0  0  0
 18 23  1  0  0  0  0
 19 20  1  0  0  0  0
 19 22  1  0  0  0  0
 20 21  1  0  0  0  0
 21 23  1  0  0  0  0
 21 16  1  1  0  0  0
 22 23  1  0  0  0  0
 22 24  1  1  0  0  0
 25 24  1  0  0  0  0
M  END
>  <MODEL>
7

>  <REMARK>
 VINA RESULT:      -5.4      2.308      4.425
  Name = 
  9 active torsions:
  status: ('A' for Active; 'I' for Inactive)
    1  A    between atoms: C_1  and  O_12
    2  A    between atoms: C_1  and  C_20
    3  A    between atoms: C_2  and  C_16
    4  A    between atoms: C_5  and  C_8
    5  A    between atoms: C_6  and  O_12
    6  A    between atoms: C_6  and  C_23
    7  A    between atoms: O_9  and  C_21
    8  A    between atoms: C_11  and  C_13
    9  A    between atoms: N_18  and  C_20
                            x       y       z     vdW  Elec       q    Type
                         _______ _______ _______ _____ _____    ______ ____

>  <TORSDO>
F 9

$$$$
=
 OpenBabel11072409393D

 25 26  0  0  1  0  0  0  0  0999 V2000
  191.4930  176.0550  144.3700 C   0  0  1  0  0  3  0  0  0  0  0  0
  192.7890  174.4700  145.4650 N   0  0  0  0  0  2  0  0  0  0  0  0
  191.1060  176.7620  145.6850 C   0  0  2  0  0  3  0  0  0  0  0  0
  191.6900  174.6210  144.5970 N   0  0  0  0  0  2  0  0  0  0  0  0
  192.3700  174.8910  146.8000 C   0  0  0  0  0  2  0  0  0  0  0  0
  192.0910  176.3940  146.7980 C   0  0  0  0  0  2  0  0  0  0  0  0
  190.5060  176.3070  143.2690 C   0  0  0  0  0  0  0  0  0  0  0  0
  189.6900  175.2300  142.8040 N   0  0  0  0  0  2  0  0  0  0  0  0
  190.4400  177.4410  142.7200 O   0  0  0  0  0  0  0  0  0  0  0  0
  188.8030  175.3540  141.6550 C   0  0  0  0  0  2  0  0  0  0  0  0
  187.3480  175.3310  142.1000 C   0  0  0  0  0  2  0  0  0  0  0  0
  186.8650  176.6340  142.2190 O   0  0  0  0  0  0  0  0  0  0  0  0
  187.2970  177.2760  141.0580 C   0  0  0  0  0  2  0  0  0  0  0  0
  185.3770  178.5380  140.4180 O   0  0  0  0  0  1  0  0  0  0  0  0
  186.1390  177.4180  140.0880 C   0  0  0  0  0  2  0  0  0  0  0  0
  188.9030  177.5370  146.5770 C   0  0  0  0  0  3  0  0  0  0  0  0
  189.6740  176.5510  146.1070 C   0  0  0  0  0  3  0  0  0  0  0  0
  186.6480  178.7230  148.5470 O   0  0  0  0  0  1  0  0  0  0  0  0
  185.3200  176.9770  146.0990 C   0  0  0  0  0  2  0  0  0  0  0  0
  186.7340  176.4840  145.9850 C   0  0  0  0  0  2  0  0  0  0  0  0
  187.4890  177.2930  147.0120 C   0  0  2  0  0  3  0  0  0  0  0  0
  185.4340  178.3760  146.6690 C   0  0  1  0  0  3  0  0  0  0  0  0
  186.7810  178.5540  147.2100 N   0  0  0  0  0  0  0  0  0  0  0  0
  185.2120  179.3120  145.6580 O   0  0  0  0  0  0  0  0  0  0  0  0
  184.0900  178.8400  144.9750 C   0  0  0  0  0  1  0  0  0  0  0  0
  1  7  1  6  0  0  0
  1  4  1  0  0  0  0
  1  3  1  0  0  0  0
  2  5  1  0  0  0  0
  3 17  1  1  0  0  0
  3  6  1  0  0  0  0
  4  2  1  0  0  0  0
  6  5  1  0  0  0  0
  8  7  1  0  0  0  0
  9  7  2  0  0  0  0
 10 11  1  0  0  0  0
 10  8  1  0  0  0  0
 11 12  1  0  0  0  0
 13 12  1  0  0  0  0
 15 14  1  0  0  0  0
 15 13  1  0  0  0  0
 17 16  2  0  0  0  0
 19 22  1  0  0  0  0
 20 19  1  0  0  0  0
 20 21  1  0  0  0  0
 21 16  1  6  0  0  0
 21 23  1  0  0  0  0
 22 24  1  6  0  0  0
 22 23  1  0  0  0  0
 23 18  1  0  0  0  0
 25 24  1  0  0  0  0
M  END
>  <MODEL>
8

>  <REMARK>
 VINA RESULT:      -5.3      2.055      5.788
  Name = 
  9 active torsions:
  status: ('A' for Active; 'I' for Inactive)
    1  A    between atoms: C_1  and  O_12
    2  A    between atoms: C_1  and  C_20
    3  A    between atoms: C_2  and  C_16
    4  A    between atoms: C_5  and  C_8
    5  A    between atoms: C_6  and  O_12
    6  A    between atoms: C_6  and  C_23
    7  A    between atoms: O_9  and  C_21
    8  A    between atoms: C_11  and  C_13
    9  A    between atoms: N_18  and  C_20
                            x       y       z     vdW  Elec       q    Type
                         _______ _______ _______ _____ _____    ______ ____

>  <TORSDO>
F 9

$$$$
=
 OpenBabel11072409393D

 25 26  0  0  1  0  0  0  0  0999 V2000
  188.3850  174.9130  141.4780 C   0  0  1  0  0  3  0  0  0  0  0  0
  188.5320  172.6010  141.6300 N   0  0  0  0  0  2  0  0  0  0  0  0
  189.8510  175.1140  141.9140 C   0  0  2  0  0  3  0  0  0  0  0  0
  187.8210  173.7180  142.1090 N   0  0  0  0  0  2  0  0  0  0  0  0
  189.8600  172.6170  142.2390 C   0  0  0  0  0  2  0  0  0  0  0  0
  190.6470  173.8200  141.7200 C   0  0  0  0  0  2  0  0  0  0  0  0
  187.5370  176.1240  141.7340 C   0  0  0  0  0  0  0  0  0  0  0  0
  186.4830  176.0450  142.6960 N   0  0  0  0  0  2  0  0  0  0  0  0
  187.7150  177.1800  141.0670 O   0  0  0  0  0  0  0  0  0  0  0  0
  185.5310  177.1280  142.9110 C   0  0  0  0  0  2  0  0  0  0  0  0
  185.6810  177.6970  144.3140 C   0  0  0  0  0  2  0  0  0  0  0  0
  186.0460  176.6850  145.2030 O   0  0  0  0  0  0  0  0  0  0  0  0
  185.7850  177.2180  146.4660 C   0  0  0  0  0  2  0  0  0  0  0  0
  185.8100  179.3240  147.5870 O   0  0  0  0  0  1  0  0  0  0  0  0
  185.5600  178.7140  146.3580 C   0  0  0  0  0  2  0  0  0  0  0  0
  191.0570  176.4300  143.6640 C   0  0  0  0  0  3  0  0  0  0  0  0
  190.0150  175.6730  143.3040 C   0  0  0  0  0  3  0  0  0  0  0  0
  189.3200  177.6650  146.0790 O   0  0  0  0  0  1  0  0  0  0  0  0
  192.1210  176.3290  147.1610 C   0  0  0  0  0  2  0  0  0  0  0  0
  192.4700  176.4320  145.7040 C   0  0  0  0  0  2  0  0  0  0  0  0
  191.2080  176.9540  145.0600 C   0  0  2  0  0  3  0  0  0  0  0  0
  190.6130  176.1840  147.1970 C   0  0  1  0  0  3  0  0  0  0  0  0
  190.0750  176.5580  145.8900 N   0  0  0  0  0  0  0  0  0  0  0  0
  190.2780  174.8580  147.4760 O   0  0  0  0  0  0  0  0  0  0  0  0
  188.8860  174.8110  147.3700 C   0  0  0  0  0  1  0  0  0  0  0  0
  1  7  1  1  0  0  0
  1  3  1  0  0  0  0
  1  4  1  0  0  0  0
  2  4  1  0  0  0  0
  2  5  1  0  0  0  0
  3 17  1  1  0  0  0
  6  3  1  0  0  0  0
  6  5  1  0  0  0  0
  7  8  1  0  0  0  0
  8 10  1  0  0  0  0
  9  7  2  0  0  0  0
 10 11  1  0  0  0  0
 11 12  1  0  0  0  0
 12 13  1  0  0  0  0
 15 13  1  0  0  0  0
 15 14  1  0  0  0  0
 17 16  2  0  0  0  0
 19 22  1  0  0  0  0
 20 19  1  0  0  0  0
 21 16  1  6  0  0  0
 21 20  1  0  0  0  0
 21 23  1  0  0  0  0
 22 24  1  6  0  0  0
 23 18  1  0  0  0  0
 23 22  1  0  0  0  0
 25 24  1  0  0  0  0
M  END
>  <MODEL>
9

>  <REMARK>
 VINA RESULT:      -5.1      2.689      5.082
  Name = 
  9 active torsions:
  status: ('A' for Active; 'I' for Inactive)
    1  A    between atoms: C_1  and  O_12
    2  A    between atoms: C_1  and  C_20
    3  A    between atoms: C_2  and  C_16
    4  A    between atoms: C_5  and  C_8
    5  A    between atoms: C_6  and  O_12
    6  A    between atoms: C_6  and  C_23
    7  A    between atoms: O_9  and  C_21
    8  A    between atoms: C_11  and  C_13
    9  A    between atoms: N_18  and  C_20
                            x       y       z     vdW  Elec       q    Type
                         _______ _______ _______ _____ _____    ______ ____

>  <TORSDO>
F 9

$$$$
