=
 OpenBabel11062420083D

 35 40  0  0  1  0  0  0  0  0999 V2000
  186.5920  177.9160  139.7780 O   0  0  0  0  0  1  0  0  0  0  0  0
  188.2880  174.1370  139.0730 C   0  0  0  0  0  2  0  0  0  0  0  0
  186.7570  177.0630  140.8610 C   0  0  1  0  0  3  0  0  0  0  0  0
  186.6840  176.2650  142.9940 C   0  0  1  0  0  3  0  0  0  0  0  0
  185.6500  178.3150  142.6580 N   0  0  0  0  0  2  0  0  0  0  0  0
  188.5090  173.0250  139.9440 C   0  0  2  0  0  3  0  0  0  0  0  0
  185.9700  178.2110  143.8890 N   0  0  0  0  0  0  0  0  0  0  0  0
  187.8170  176.0720  141.0280 C   0  0  2  0  0  3  0  0  0  0  0  0
  186.0940  177.1330  142.0130 C   0  0  1  0  0  3  0  0  0  0  0  0
  188.1220  174.9560  140.3230 C   0  0  1  0  0  3  0  0  0  0  0  0
  187.7800  175.5520  142.3450 C   0  0  2  0  0  3  0  0  0  0  0  0
  188.2700  173.8560  141.1040 N   0  0  1  0  0  0  0  0  0  0  0  0
  188.0380  174.1470  142.3910 C   0  0  0  0  0  2  0  0  0  0  0  0
  186.6680  176.9740  144.1170 C   0  0  0  0  0  0  0  0  0  0  0  0
  188.9150  176.6740  145.1840 N   0  0  0  0  0  2  0  0  0  0  0  0
  186.9390  176.5550  146.4330 O   0  0  0  0  0  0  0  0  0  0  0  0
  187.4880  176.7220  145.3100 C   0  0  0  0  0  0  0  0  0  0  0  0
  189.8010  177.5350  147.2850 C   0  0  0  0  0  1  0  0  0  0  0  0
  189.8500  176.3940  146.2770 C   0  0  0  0  0  0  0  0  0  0  0  0
  189.4560  175.0990  146.9740 C   0  0  0  0  0  1  0  0  0  0  0  0
  191.7470  177.1470  144.6470 C   0  0  0  0  0  1  0  0  0  0  0  0
  192.1800  175.5440  146.4050 C   0  0  0  0  0  2  0  0  0  0  0  0
  191.2610  176.2490  145.7410 C   0  0  0  0  0  0  0  0  0  0  0  0
  189.9680  172.5870  139.8990 C   0  0  0  0  0  2  0  0  0  0  0  0
  190.4330  172.2630  141.2410 N   0  0  0  0  0  2  0  0  0  0  0  0
  192.9770  174.8860  142.1470 C   0  0  0  0  0  3  0  0  0  0  0  0
  192.0160  172.4150  143.2040 C   0  0  2  0  0  3  0  0  0  0  0  0
  193.6290  174.3220  143.1170 N   0  0  0  0  0  0  0  0  0  0  0  0
  191.4790  172.9740  141.9140 C   0  0  0  0  0  0  0  0  0  0  0  0
  190.8300  172.7250  144.5000 Cl  0  0  0  0  0  0  0  0  0  0  0  0
  191.8990  174.1620  141.4640 C   0  0  0  0  0  3  0  0  0  0  0  0
  193.3050  173.0250  143.5570 N   0  0  0  0  0  0  0  0  0  0  0  0
  194.1880  172.4190  145.7630 C   0  0  0  0  0  2  0  0  0  0  0  0
  194.3170  172.2400  144.2590 C   0  0  0  0  0  3  0  0  0  0  0  0
  195.2620  173.1650  145.0070 C   0  0  0  0  0  2  0  0  0  0  0  0
  2  6  1  0  0  0  0
  2 10  1  0  0  0  0
  3  1  1  1  0  0  0
  3  8  1  0  0  0  0
  3  9  1  0  0  0  0
  4 14  1  1  0  0  0
  5  7  1  0  0  0  0
  6 24  1  1  0  0  0
  6 12  1  0  0  0  0
  7 14  2  0  0  0  0
  8 11  1  0  0  0  0
  9  5  1  0  0  0  0
  9  4  1  0  0  0  0
 10  8  1  0  0  0  0
 10 12  1  0  0  0  0
 11 13  1  0  0  0  0
 11  4  1  0  0  0  0
 12 13  1  0  0  0  0
 14 17  1  0  0  0  0
 15 17  1  0  0  0  0
 15 19  1  0  0  0  0
 17 16  2  0  0  0  0
 19 20  1  0  0  0  0
 19 18  1  0  0  0  0
 21 23  1  0  0  0  0
 23 19  1  0  0  0  0
 23 22  2  0  0  0  0
 24 25  1  0  0  0  0
 25 29  1  0  0  0  0
 26 28  2  0  0  0  0
 27 32  1  0  0  0  0
 27 30  1  0  0  0  0
 28 32  1  0  0  0  0
 29 27  1  0  0  0  0
 31 29  2  0  0  0  0
 31 26  1  0  0  0  0
 32 34  1  0  0  0  0
 34 35  1  0  0  0  0
 34 33  1  0  0  0  0
 35 33  1  0  0  0  0
M  END
>  <MODEL>
1

>  <REMARK>
 VINA RESULT:      -6.9      0.000      0.000
  Name = 
  7 active torsions:
  status: ('A' for Active; 'I' for Inactive)
    1  A    between atoms: N_1  and  C_11
    2  A    between atoms: N_1  and  C_22
    3  A    between atoms: C_11  and  C_12
    4  A    between atoms: C_18  and  N_35
    5  A    between atoms: C_21  and  C_24
    6  A    between atoms: C_24  and  N_25
    7  A    between atoms: C_28  and  C_34
                            x       y       z     vdW  Elec       q    Type
                         _______ _______ _______ _____ _____    ______ ____

>  <TORSDO>
F 7

$$$$
=
 OpenBabel11062420083D

 35 40  0  0  1  0  0  0  0  0999 V2000
  186.6310  177.9130  139.8000 O   0  0  0  0  0  1  0  0  0  0  0  0
  188.4000  174.1510  139.1920 C   0  0  0  0  0  2  0  0  0  0  0  0
  186.7820  177.0780  140.8990 C   0  0  1  0  0  3  0  0  0  0  0  0
  186.6700  176.3090  143.0410 C   0  0  1  0  0  3  0  0  0  0  0  0
  185.6130  178.3380  142.6500 N   0  0  0  0  0  2  0  0  0  0  0  0
  188.6160  173.0540  140.0830 C   0  0  2  0  0  3  0  0  0  0  0  0
  185.9050  178.2570  143.8900 N   0  0  0  0  0  0  0  0  0  0  0  0
  187.8530  176.1060  141.1060 C   0  0  2  0  0  3  0  0  0  0  0  0
  186.0900  177.1550  142.0330 C   0  0  1  0  0  3  0  0  0  0  0  0
  188.1910  174.9850  140.4250 C   0  0  1  0  0  3  0  0  0  0  0  0
  187.7910  175.6040  142.4290 C   0  0  2  0  0  3  0  0  0  0  0  0
  188.3370  173.8990  141.2250 N   0  0  1  0  0  0  0  0  0  0  0  0
  188.0690  174.2040  142.5010 C   0  0  0  0  0  2  0  0  0  0  0  0
  186.6150  177.0340  144.1530 C   0  0  0  0  0  0  0  0  0  0  0  0
  188.8320  176.6650  145.2620 N   0  0  0  0  0  2  0  0  0  0  0  0
  186.8440  176.7540  146.4940 O   0  0  0  0  0  0  0  0  0  0  0  0
  187.4100  176.8120  145.3690 C   0  0  0  0  0  0  0  0  0  0  0  0
  189.6440  177.5410  147.3870 C   0  0  0  0  0  1  0  0  0  0  0  0
  189.7400  176.4010  146.3810 C   0  0  0  0  0  0  0  0  0  0  0  0
  189.3480  175.1000  147.0670 C   0  0  0  0  0  1  0  0  0  0  0  0
  191.5350  176.7680  144.5200 C   0  0  0  0  0  1  0  0  0  0  0  0
  192.1690  176.0170  146.7300 C   0  0  0  0  0  2  0  0  0  0  0  0
  191.1680  176.2800  145.8860 C   0  0  0  0  0  0  0  0  0  0  0  0
  190.0820  172.6380  140.0790 C   0  0  0  0  0  2  0  0  0  0  0  0
  190.3950  171.9030  141.2980 N   0  0  0  0  0  2  0  0  0  0  0  0
  191.9490  172.6980  144.6330 C   0  0  0  0  0  3  0  0  0  0  0  0
  192.6160  172.9620  141.8700 C   0  0  2  0  0  3  0  0  0  0  0  0
  192.9710  173.4240  144.3010 N   0  0  0  0  0  0  0  0  0  0  0  0
  191.2990  172.3760  142.3030 C   0  0  0  0  0  0  0  0  0  0  0  0
  193.6990  171.6340  141.3740 Cl  0  0  0  0  0  0  0  0  0  0  0  0
  191.0270  172.2050  143.6030 C   0  0  0  0  0  3  0  0  0  0  0  0
  193.2410  173.7320  142.9540 N   0  0  0  0  0  0  0  0  0  0  0  0
  195.5260  174.5530  142.6090 C   0  0  0  0  0  2  0  0  0  0  0  0
  194.0490  174.9090  142.6430 C   0  0  0  0  0  3  0  0  0  0  0  0
  194.9480  175.2450  143.8200 C   0  0  0  0  0  2  0  0  0  0  0  0
  2  6  1  0  0  0  0
  2 10  1  0  0  0  0
  3  1  1  1  0  0  0
  3  8  1  0  0  0  0
  3  9  1  0  0  0  0
  4 14  1  1  0  0  0
  5  7  1  0  0  0  0
  6 24  1  1  0  0  0
  6 12  1  0  0  0  0
  7 14  2  0  0  0  0
  8 11  1  0  0  0  0
  9  5  1  0  0  0  0
  9  4  1  0  0  0  0
 10  8  1  0  0  0  0
 10 12  1  0  0  0  0
 11 13  1  0  0  0  0
 11  4  1  0  0  0  0
 12 13  1  0  0  0  0
 14 17  1  0  0  0  0
 15 17  1  0  0  0  0
 15 19  1  0  0  0  0
 17 16  2  0  0  0  0
 19 20  1  0  0  0  0
 19 18  1  0  0  0  0
 21 23  1  0  0  0  0
 23 19  1  0  0  0  0
 23 22  2  0  0  0  0
 24 25  1  0  0  0  0
 25 29  1  0  0  0  0
 27 29  1  0  0  0  0
 27 32  1  0  0  0  0
 28 26  2  0  0  0  0
 29 31  2  0  0  0  0
 30 27  1  0  0  0  0
 31 26  1  0  0  0  0
 32 28  1  0  0  0  0
 33 34  1  0  0  0  0
 33 35  1  0  0  0  0
 34 32  1  0  0  0  0
 34 35  1  0  0  0  0
M  END
>  <MODEL>
2

>  <REMARK>
 VINA RESULT:      -6.7      1.134      1.511
  Name = 
  7 active torsions:
  status: ('A' for Active; 'I' for Inactive)
    1  A    between atoms: N_1  and  C_11
    2  A    between atoms: N_1  and  C_22
    3  A    between atoms: C_11  and  C_12
    4  A    between atoms: C_18  and  N_35
    5  A    between atoms: C_21  and  C_24
    6  A    between atoms: C_24  and  N_25
    7  A    between atoms: C_28  and  C_34
                            x       y       z     vdW  Elec       q    Type
                         _______ _______ _______ _____ _____    ______ ____

>  <TORSDO>
F 7

$$$$
=
 OpenBabel11062420083D

 35 40  0  0  1  0  0  0  0  0999 V2000
  191.0380  172.3130  139.0070 O   0  0  0  0  0  1  0  0  0  0  0  0
  193.0810  170.9250  142.4050 C   0  0  0  0  0  2  0  0  0  0  0  0
  190.6130  172.7600  140.2510 C   0  0  1  0  0  3  0  0  0  0  0  0
  189.3920  173.8480  141.8390 C   0  0  1  0  0  3  0  0  0  0  0  0
  188.5990  174.0340  139.6660 N   0  0  0  0  0  2  0  0  0  0  0  0
  192.8400  171.1280  143.8000 C   0  0  2  0  0  3  0  0  0  0  0  0
  188.1680  175.0220  140.3490 N   0  0  0  0  0  0  0  0  0  0  0  0
  191.4530  172.9690  141.4280 C   0  0  2  0  0  3  0  0  0  0  0  0
  189.4090  173.2550  140.5290 C   0  0  1  0  0  3  0  0  0  0  0  0
  192.1780  172.1050  142.1780 C   0  0  1  0  0  3  0  0  0  0  0  0
  190.7070  173.6320  142.4340 C   0  0  2  0  0  3  0  0  0  0  0  0
  191.9290  172.2130  143.5070 N   0  0  1  0  0  0  0  0  0  0  0  0
  190.9870  173.1350  143.7450 C   0  0  0  0  0  2  0  0  0  0  0  0
  188.6920  174.9660  141.6870 C   0  0  0  0  0  0  0  0  0  0  0  0
  188.4510  175.9190  143.9920 N   0  0  0  0  0  2  0  0  0  0  0  0
  188.9310  177.2770  142.1480 O   0  0  0  0  0  0  0  0  0  0  0  0
  188.7010  176.1210  142.5950 C   0  0  0  0  0  0  0  0  0  0  0  0
  189.7480  177.6640  145.0930 C   0  0  0  0  0  1  0  0  0  0  0  0
  188.3900  176.9790  145.0020 C   0  0  0  0  0  0  0  0  0  0  0  0
  187.3410  178.0090  144.6060 C   0  0  0  0  0  1  0  0  0  0  0  0
  186.7030  176.7350  146.9800 C   0  0  0  0  0  1  0  0  0  0  0  0
  188.7030  175.3810  146.8760 C   0  0  0  0  0  2  0  0  0  0  0  0
  188.0210  176.4020  146.3540 C   0  0  0  0  0  0  0  0  0  0  0  0
  194.0910  171.6600  144.4900 C   0  0  0  0  0  2  0  0  0  0  0  0
  193.7200  172.5970  145.5420 N   0  0  0  0  0  2  0  0  0  0  0  0
  193.8220  176.3000  146.2140 C   0  0  0  0  0  3  0  0  0  0  0  0
  195.4840  174.3220  145.0000 C   0  0  2  0  0  3  0  0  0  0  0  0
  194.8490  176.6830  145.5220 N   0  0  0  0  0  0  0  0  0  0  0  0
  194.1380  173.9670  145.5730 C   0  0  0  0  0  0  0  0  0  0  0  0
  196.7490  173.8020  146.1450 Cl  0  0  0  0  0  0  0  0  0  0  0  0
  193.3980  174.8950  146.1910 C   0  0  0  0  0  3  0  0  0  0  0  0
  195.5990  175.7670  144.7590 N   0  0  0  0  0  0  0  0  0  0  0  0
  195.5760  176.2590  142.3570 C   0  0  0  0  0  2  0  0  0  0  0  0
  196.3940  176.2600  143.6380 C   0  0  0  0  0  3  0  0  0  0  0  0
  196.5780  175.1580  142.6090 C   0  0  0  0  0  2  0  0  0  0  0  0
  2  6  1  0  0  0  0
  3  1  1  6  0  0  0
  3  9  1  0  0  0  0
  3  8  1  0  0  0  0
  4 14  1  6  0  0  0
  4 11  1  0  0  0  0
  5  7  1  0  0  0  0
  5  9  1  0  0  0  0
  6 24  1  1  0  0  0
  7 14  2  0  0  0  0
  8 10  1  0  0  0  0
  8 11  1  0  0  0  0
  9  4  1  0  0  0  0
 10  2  1  0  0  0  0
 10 12  1  0  0  0  0
 11 13  1  0  0  0  0
 12 13  1  0  0  0  0
 12  6  1  0  0  0  0
 14 17  1  0  0  0  0
 15 19  1  0  0  0  0
 16 17  2  0  0  0  0
 17 15  1  0  0  0  0
 19 18  1  0  0  0  0
 19 23  1  0  0  0  0
 20 19  1  0  0  0  0
 23 22  2  0  0  0  0
 23 21  1  0  0  0  0
 24 25  1  0  0  0  0
 25 29  1  0  0  0  0
 27 29  1  0  0  0  0
 27 30  1  0  0  0  0
 28 26  2  0  0  0  0
 29 31  2  0  0  0  0
 31 26  1  0  0  0  0
 32 27  1  0  0  0  0
 32 28  1  0  0  0  0
 33 35  1  0  0  0  0
 33 34  1  0  0  0  0
 34 32  1  0  0  0  0
 35 34  1  0  0  0  0
M  END
>  <MODEL>
3

>  <REMARK>
 VINA RESULT:      -6.7      2.440      4.720
  Name = 
  7 active torsions:
  status: ('A' for Active; 'I' for Inactive)
    1  A    between atoms: N_1  and  C_11
    2  A    between atoms: N_1  and  C_22
    3  A    between atoms: C_11  and  C_12
    4  A    between atoms: C_18  and  N_35
    5  A    between atoms: C_21  and  C_24
    6  A    between atoms: C_24  and  N_25
    7  A    between atoms: C_28  and  C_34
                            x       y       z     vdW  Elec       q    Type
                         _______ _______ _______ _____ _____    ______ ____

>  <TORSDO>
F 7

$$$$
=
 OpenBabel11062420083D

 35 40  0  0  1  0  0  0  0  0999 V2000
  192.8910  174.5790  146.8790 O   0  0  0  0  0  1  0  0  0  0  0  0
  194.3600  174.7180  142.9450 C   0  0  0  0  0  2  0  0  0  0  0  0
  192.3040  175.4750  145.9950 C   0  0  1  0  0  3  0  0  0  0  0  0
  190.9390  177.1120  145.1900 C   0  0  1  0  0  3  0  0  0  0  0  0
  190.7710  176.7010  147.4680 N   0  0  0  0  0  2  0  0  0  0  0  0
  194.0330  175.5700  141.8450 C   0  0  2  0  0  3  0  0  0  0  0  0
  189.6860  177.2380  147.0630 N   0  0  0  0  0  0  0  0  0  0  0  0
  192.1530  175.2940  144.5530 C   0  0  2  0  0  3  0  0  0  0  0  0
  191.6100  176.5590  146.3340 C   0  0  1  0  0  3  0  0  0  0  0  0
  193.0700  175.1830  143.5620 C   0  0  1  0  0  3  0  0  0  0  0  0
  191.3190  176.3120  144.0290 C   0  0  2  0  0  3  0  0  0  0  0  0
  192.8390  176.0270  142.5250 N   0  0  1  0  0  0  0  0  0  0  0  0
  191.7680  176.7950  142.7620 C   0  0  0  0  0  2  0  0  0  0  0  0
  189.7380  177.4510  145.6420 C   0  0  0  0  0  0  0  0  0  0  0  0
  187.2510  177.6890  145.4460 N   0  0  0  0  0  2  0  0  0  0  0  0
  188.6540  177.9020  143.5840 O   0  0  0  0  0  0  0  0  0  0  0  0
  188.5420  177.6920  144.8220 C   0  0  0  0  0  0  0  0  0  0  0  0
  185.9580  179.2490  144.0910 C   0  0  0  0  0  1  0  0  0  0  0  0
  185.9760  177.8750  144.7480 C   0  0  0  0  0  0  0  0  0  0  0  0
  185.8170  176.8090  143.6720 C   0  0  0  0  0  1  0  0  0  0  0  0
  184.8850  176.7920  146.8590 C   0  0  0  0  0  1  0  0  0  0  0  0
  183.8650  178.6940  145.7690 C   0  0  0  0  0  2  0  0  0  0  0  0
  184.8190  177.7610  145.7200 C   0  0  0  0  0  0  0  0  0  0  0  0
  193.6590  174.7460  140.6190 C   0  0  0  0  0  2  0  0  0  0  0  0
  193.0840  173.4720  141.0300 N   0  0  0  0  0  2  0  0  0  0  0  0
  190.2380  172.0540  139.0150 C   0  0  0  0  0  3  0  0  0  0  0  0
  190.6770  173.0340  141.6590 C   0  0  2  0  0  3  0  0  0  0  0  0
  189.2140  172.2740  139.7800 N   0  0  0  0  0  0  0  0  0  0  0  0
  191.7820  173.0230  140.6370 C   0  0  0  0  0  0  0  0  0  0  0  0
  190.9220  171.6700  142.7830 Cl  0  0  0  0  0  0  0  0  0  0  0  0
  191.5740  172.5050  139.4210 C   0  0  0  0  0  3  0  0  0  0  0  0
  189.3570  172.9190  141.0230 N   0  0  0  0  0  0  0  0  0  0  0  0
  188.2800  175.0900  141.3950 C   0  0  0  0  0  2  0  0  0  0  0  0
  188.2010  173.5880  141.6130 C   0  0  0  0  0  3  0  0  0  0  0  0
  188.6510  174.5050  142.7370 C   0  0  0  0  0  2  0  0  0  0  0  0
  2 10  1  0  0  0  0
  3  9  1  0  0  0  0
  3  1  1  1  0  0  0
  4 14  1  1  0  0  0
  4  9  1  0  0  0  0
  6 24  1  6  0  0  0
  6 12  1  0  0  0  0
  6  2  1  0  0  0  0
  7  5  1  0  0  0  0
  8  3  1  0  0  0  0
  9  5  1  0  0  0  0
 10  8  1  0  0  0  0
 11  8  1  0  0  0  0
 11  4  1  0  0  0  0
 12 13  1  0  0  0  0
 12 10  1  0  0  0  0
 13 11  1  0  0  0  0
 14  7  2  0  0  0  0
 16 17  2  0  0  0  0
 17 15  1  0  0  0  0
 17 14  1  0  0  0  0
 18 19  1  0  0  0  0
 19 15  1  0  0  0  0
 19 23  1  0  0  0  0
 20 19  1  0  0  0  0
 23 22  2  0  0  0  0
 23 21  1  0  0  0  0
 24 25  1  0  0  0  0
 26 31  1  0  0  0  0
 26 28  2  0  0  0  0
 27 30  1  0  0  0  0
 28 32  1  0  0  0  0
 29 25  1  0  0  0  0
 29 27  1  0  0  0  0
 31 29  2  0  0  0  0
 32 34  1  0  0  0  0
 32 27  1  0  0  0  0
 33 34  1  0  0  0  0
 33 35  1  0  0  0  0
 34 35  1  0  0  0  0
M  END
>  <MODEL>
4

>  <REMARK>
 VINA RESULT:      -6.6      2.121      5.608
  Name = 
  7 active torsions:
  status: ('A' for Active; 'I' for Inactive)
    1  A    between atoms: N_1  and  C_11
    2  A    between atoms: N_1  and  C_22
    3  A    between atoms: C_11  and  C_12
    4  A    between atoms: C_18  and  N_35
    5  A    between atoms: C_21  and  C_24
    6  A    between atoms: C_24  and  N_25
    7  A    between atoms: C_28  and  C_34
                            x       y       z     vdW  Elec       q    Type
                         _______ _______ _______ _____ _____    ______ ____

>  <TORSDO>
F 7

$$$$
=
 OpenBabel11062420083D

 35 40  0  0  1  0  0  0  0  0999 V2000
  186.7310  177.9140  140.2740 O   0  0  0  0  0  1  0  0  0  0  0  0
  188.3300  174.1700  139.2370 C   0  0  0  0  0  2  0  0  0  0  0  0
  186.9920  177.0120  141.2960 C   0  0  1  0  0  3  0  0  0  0  0  0
  187.1170  176.1140  143.3870 C   0  0  1  0  0  3  0  0  0  0  0  0
  186.0680  178.1790  143.2460 N   0  0  0  0  0  2  0  0  0  0  0  0
  188.6250  173.0180  140.0290 C   0  0  2  0  0  3  0  0  0  0  0  0
  186.5030  178.0170  144.4350 N   0  0  0  0  0  0  0  0  0  0  0  0
  188.0580  176.0120  141.3160 C   0  0  2  0  0  3  0  0  0  0  0  0
  186.4410  177.0290  142.5070 C   0  0  1  0  0  3  0  0  0  0  0  0
  188.2870  174.9300  140.5330 C   0  0  1  0  0  3  0  0  0  0  0  0
  188.1420  175.4300  142.6040 C   0  0  2  0  0  3  0  0  0  0  0  0
  188.5020  173.7940  141.2440 N   0  0  1  0  0  0  0  0  0  0  0  0
  188.3950  174.0240  142.5590 C   0  0  0  0  0  2  0  0  0  0  0  0
  187.2110  176.7690  144.5380 C   0  0  0  0  0  0  0  0  0  0  0  0
  189.5470  176.6360  145.4340 N   0  0  0  0  0  2  0  0  0  0  0  0
  187.6970  176.0490  146.7420 O   0  0  0  0  0  0  0  0  0  0  0  0
  188.1380  176.4600  145.6350 C   0  0  0  0  0  0  0  0  0  0  0  0
  190.4730  177.3060  147.5870 C   0  0  0  0  0  1  0  0  0  0  0  0
  190.5860  176.3310  146.4220 C   0  0  0  0  0  0  0  0  0  0  0  0
  190.4000  174.9130  146.9430 C   0  0  0  0  0  1  0  0  0  0  0  0
  192.1090  176.9250  144.3860 C   0  0  0  0  0  1  0  0  0  0  0  0
  193.0650  176.4040  146.5460 C   0  0  0  0  0  2  0  0  0  0  0  0
  191.9610  176.4440  145.7960 C   0  0  0  0  0  0  0  0  0  0  0  0
  190.0710  172.5800  139.8260 C   0  0  0  0  0  2  0  0  0  0  0  0
  190.3010  171.2990  140.4810 N   0  0  0  0  0  2  0  0  0  0  0  0
  192.3150  169.7200  143.2410 C   0  0  0  0  0  3  0  0  0  0  0  0
  191.9990  172.2990  142.0610 C   0  0  2  0  0  3  0  0  0  0  0  0
  192.8330  170.7500  143.8360 N   0  0  0  0  0  0  0  0  0  0  0  0
  191.1990  171.1180  141.5820 C   0  0  0  0  0  0  0  0  0  0  0  0
  193.3200  172.6050  140.9010 Cl  0  0  0  0  0  0  0  0  0  0  0  0
  191.4020  169.9040  142.1060 C   0  0  0  0  0  3  0  0  0  0  0  0
  192.5610  172.0590  143.3970 N   0  0  0  0  0  0  0  0  0  0  0  0
  194.1350  173.7240  144.2700 C   0  0  0  0  0  2  0  0  0  0  0  0
  192.7220  173.1690  144.3330 C   0  0  0  0  0  3  0  0  0  0  0  0
  193.7390  172.8040  145.3990 C   0  0  0  0  0  2  0  0  0  0  0  0
  2  6  1  0  0  0  0
  2 10  1  0  0  0  0
  3  1  1  1  0  0  0
  3  8  1  0  0  0  0
  3  9  1  0  0  0  0
  4 14  1  1  0  0  0
  5  7  1  0  0  0  0
  6 24  1  6  0  0  0
  6 12  1  0  0  0  0
  7 14  2  0  0  0  0
  8 11  1  0  0  0  0
  9  5  1  0  0  0  0
  9  4  1  0  0  0  0
 10 12  1  0  0  0  0
 10  8  1  0  0  0  0
 11  4  1  0  0  0  0
 12 13  1  0  0  0  0
 13 11  1  0  0  0  0
 14 17  1  0  0  0  0
 15 17  1  0  0  0  0
 15 19  1  0  0  0  0
 17 16  2  0  0  0  0
 19 20  1  0  0  0  0
 19 18  1  0  0  0  0
 21 23  1  0  0  0  0
 23 19  1  0  0  0  0
 23 22  2  0  0  0  0
 24 25  1  0  0  0  0
 25 29  1  0  0  0  0
 26 28  2  0  0  0  0
 27 32  1  0  0  0  0
 29 27  1  0  0  0  0
 29 31  2  0  0  0  0
 30 27  1  0  0  0  0
 31 26  1  0  0  0  0
 32 28  1  0  0  0  0
 32 34  1  0  0  0  0
 33 34  1  0  0  0  0
 33 35  1  0  0  0  0
 34 35  1  0  0  0  0
M  END
>  <MODEL>
5

>  <REMARK>
 VINA RESULT:      -6.6      1.333      1.758
  Name = 
  7 active torsions:
  status: ('A' for Active; 'I' for Inactive)
    1  A    between atoms: N_1  and  C_11
    2  A    between atoms: N_1  and  C_22
    3  A    between atoms: C_11  and  C_12
    4  A    between atoms: C_18  and  N_35
    5  A    between atoms: C_21  and  C_24
    6  A    between atoms: C_24  and  N_25
    7  A    between atoms: C_28  and  C_34
                            x       y       z     vdW  Elec       q    Type
                         _______ _______ _______ _____ _____    ______ ____

>  <TORSDO>
F 7

$$$$
=
 OpenBabel11062420083D

 35 40  0  0  1  0  0  0  0  0999 V2000
  185.4550  178.3210  145.4620 O   0  0  0  0  0  1  0  0  0  0  0  0
  189.1360  177.5820  147.3470 C   0  0  0  0  0  2  0  0  0  0  0  0
  186.5190  177.9060  144.6730 C   0  0  1  0  0  3  0  0  0  0  0  0
  187.7240  177.3200  142.8290 C   0  0  1  0  0  3  0  0  0  0  0  0
  185.5720  178.0860  142.4160 N   0  0  0  0  0  2  0  0  0  0  0  0
  190.4160  177.2320  146.8140 C   0  0  2  0  0  3  0  0  0  0  0  0
  185.9480  177.3620  141.4350 N   0  0  0  0  0  0  0  0  0  0  0  0
  187.6050  177.0180  145.0830 C   0  0  2  0  0  3  0  0  0  0  0  0
  186.6300  178.0880  143.3590 C   0  0  1  0  0  3  0  0  0  0  0  0
  188.5760  177.1600  146.0170 C   0  0  1  0  0  3  0  0  0  0  0  0
  188.3760  176.6540  143.9520 C   0  0  2  0  0  3  0  0  0  0  0  0
  189.8190  176.9070  145.5360 N   0  0  1  0  0  0  0  0  0  0  0  0
  189.7770  176.6110  144.2300 C   0  0  0  0  0  2  0  0  0  0  0  0
  187.2580  176.8240  141.6900 C   0  0  0  0  0  0  0  0  0  0  0  0
  188.4030  174.5950  141.6900 N   0  0  0  0  0  2  0  0  0  0  0  0
  187.7570  175.6420  139.6980 O   0  0  0  0  0  0  0  0  0  0  0  0
  187.8090  175.6750  140.9570 C   0  0  0  0  0  0  0  0  0  0  0  0
  188.0020  172.6890  140.2230 C   0  0  0  0  0  1  0  0  0  0  0  0
  189.0250  173.4110  141.0910 C   0  0  0  0  0  0  0  0  0  0  0  0
  190.2030  173.8300  140.2230 C   0  0  0  0  0  1  0  0  0  0  0  0
  190.2730  171.2300  141.8030 C   0  0  0  0  0  1  0  0  0  0  0  0
  189.5760  172.8590  143.4490 C   0  0  0  0  0  2  0  0  0  0  0  0
  189.5260  172.4730  142.1720 C   0  0  0  0  0  0  0  0  0  0  0  0
  190.9500  175.9710  147.4830 C   0  0  0  0  0  2  0  0  0  0  0  0
  192.4070  175.9690  147.4520 N   0  0  0  0  0  2  0  0  0  0  0  0
  195.0080  176.7320  144.8400 C   0  0  0  0  0  3  0  0  0  0  0  0
  192.8620  174.8880  145.2150 C   0  0  2  0  0  3  0  0  0  0  0  0
  194.6160  176.0120  143.8340 N   0  0  0  0  0  0  0  0  0  0  0  0
  193.1780  175.9380  146.2450 C   0  0  0  0  0  0  0  0  0  0  0  0
  193.4970  173.3200  145.7820 Cl  0  0  0  0  0  0  0  0  0  0  0  0
  194.2250  176.7560  146.0810 C   0  0  0  0  0  3  0  0  0  0  0  0
  193.4560  175.2190  143.9130 N   0  0  0  0  0  0  0  0  0  0  0  0
  193.3950  173.5840  142.0870 C   0  0  0  0  0  2  0  0  0  0  0  0
  192.7730  174.8370  142.6790 C   0  0  0  0  0  3  0  0  0  0  0  0
  193.7310  174.9360  141.5050 C   0  0  0  0  0  2  0  0  0  0  0  0
  3  8  1  0  0  0  0
  3  1  1  6  0  0  0
  4 14  1  6  0  0  0
  4  9  1  0  0  0  0
  4 11  1  0  0  0  0
  5  9  1  0  0  0  0
  6  2  1  0  0  0  0
  6 24  1  1  0  0  0
  7 14  2  0  0  0  0
  7  5  1  0  0  0  0
  8 10  1  0  0  0  0
  9  3  1  0  0  0  0
 10  2  1  0  0  0  0
 11 13  1  0  0  0  0
 11  8  1  0  0  0  0
 12 10  1  0  0  0  0
 12  6  1  0  0  0  0
 13 12  1  0  0  0  0
 16 17  2  0  0  0  0
 17 14  1  0  0  0  0
 17 15  1  0  0  0  0
 18 19  1  0  0  0  0
 19 15  1  0  0  0  0
 19 23  1  0  0  0  0
 20 19  1  0  0  0  0
 21 23  1  0  0  0  0
 23 22  2  0  0  0  0
 25 24  1  0  0  0  0
 26 31  1  0  0  0  0
 27 30  1  0  0  0  0
 27 29  1  0  0  0  0
 28 32  1  0  0  0  0
 28 26  2  0  0  0  0
 29 25  1  0  0  0  0
 31 29  2  0  0  0  0
 32 27  1  0  0  0  0
 33 34  1  0  0  0  0
 34 32  1  0  0  0  0
 35 33  1  0  0  0  0
 35 34  1  0  0  0  0
M  END
>  <MODEL>
6

>  <REMARK>
 VINA RESULT:      -6.6      1.775      5.186
  Name = 
  7 active torsions:
  status: ('A' for Active; 'I' for Inactive)
    1  A    between atoms: N_1  and  C_11
    2  A    between atoms: N_1  and  C_22
    3  A    between atoms: C_11  and  C_12
    4  A    between atoms: C_18  and  N_35
    5  A    between atoms: C_21  and  C_24
    6  A    between atoms: C_24  and  N_25
    7  A    between atoms: C_28  and  C_34
                            x       y       z     vdW  Elec       q    Type
                         _______ _______ _______ _____ _____    ______ ____

>  <TORSDO>
F 7

$$$$
=
 OpenBabel11062420083D

 35 40  0  0  1  0  0  0  0  0999 V2000
  193.9790  177.5420  145.3910 O   0  0  0  0  0  1  0  0  0  0  0  0
  190.3700  176.4880  147.2670 C   0  0  0  0  0  2  0  0  0  0  0  0
  193.3800  176.3440  145.0260 C   0  0  1  0  0  3  0  0  0  0  0  0
  193.0380  174.3450  143.9860 C   0  0  1  0  0  3  0  0  0  0  0  0
  195.0660  175.3770  143.5280 N   0  0  0  0  0  2  0  0  0  0  0  0
  189.5680  175.3090  147.1740 C   0  0  2  0  0  3  0  0  0  0  0  0
  194.7840  174.5770  142.5740 N   0  0  0  0  0  0  0  0  0  0  0  0
  191.9460  176.0650  145.0030 C   0  0  2  0  0  3  0  0  0  0  0  0
  193.9950  175.3110  144.4540 C   0  0  1  0  0  3  0  0  0  0  0  0
  191.0240  176.0250  145.9950 C   0  0  1  0  0  3  0  0  0  0  0  0
  191.7130  174.8180  144.3730 C   0  0  2  0  0  3  0  0  0  0  0  0
  190.2840  174.8880  145.9890 N   0  0  1  0  0  0  0  0  0  0  0  0
  190.6830  174.0620  145.0130 C   0  0  0  0  0  2  0  0  0  0  0  0
  193.5020  173.9660  142.8010 C   0  0  0  0  0  0  0  0  0  0  0  0
  191.4380  173.8220  141.3880 N   0  0  0  0  0  2  0  0  0  0  0  0
  193.1980  172.2980  141.1470 O   0  0  0  0  0  0  0  0  0  0  0  0
  192.7280  173.3060  141.7410 C   0  0  0  0  0  0  0  0  0  0  0  0
  191.1620  173.4140  139.0010 C   0  0  0  0  0  1  0  0  0  0  0  0
  190.5430  173.2430  140.3820 C   0  0  0  0  0  0  0  0  0  0  0  0
  190.3500  171.7580  140.6580 C   0  0  0  0  0  1  0  0  0  0  0  0
  188.4140  174.1320  139.1590 C   0  0  0  0  0  1  0  0  0  0  0  0
  188.5360  174.0920  141.5740 C   0  0  0  0  0  2  0  0  0  0  0  0
  189.1900  173.9250  140.4220 C   0  0  0  0  0  0  0  0  0  0  0  0
  188.1280  175.6640  146.8220 C   0  0  0  0  0  2  0  0  0  0  0  0
  187.9860  177.1090  146.7000 N   0  0  0  0  0  2  0  0  0  0  0  0
  185.6980  179.3970  144.7740 C   0  0  0  0  0  3  0  0  0  0  0  0
  187.6320  177.3740  144.2120 C   0  0  2  0  0  3  0  0  0  0  0  0
  185.7870  178.9320  143.5670 N   0  0  0  0  0  0  0  0  0  0  0  0
  187.2870  177.7520  145.6270 C   0  0  0  0  0  0  0  0  0  0  0  0
  189.1920  178.1230  143.7820 Cl  0  0  0  0  0  0  0  0  0  0  0  0
  186.4220  178.7440  145.8720 C   0  0  0  0  0  3  0  0  0  0  0  0
  186.5940  177.8170  143.2710 N   0  0  0  0  0  0  0  0  0  0  0  0
  187.0960  177.5390  140.8870 C   0  0  0  0  0  2  0  0  0  0  0  0
  186.3030  177.0270  142.0780 C   0  0  0  0  0  3  0  0  0  0  0  0
  185.6360  177.8990  141.0290 C   0  0  0  0  0  2  0  0  0  0  0  0
  3  1  1  6  0  0  0
  4 14  1  6  0  0  0
  4 11  1  0  0  0  0
  4  9  1  0  0  0  0
  5  9  1  0  0  0  0
  6 24  1  6  0  0  0
  6  2  1  0  0  0  0
  7 14  2  0  0  0  0
  7  5  1  0  0  0  0
  8  3  1  0  0  0  0
  8 10  1  0  0  0  0
  9  3  1  0  0  0  0
 10  2  1  0  0  0  0
 11  8  1  0  0  0  0
 11 13  1  0  0  0  0
 12 10  1  0  0  0  0
 12  6  1  0  0  0  0
 13 12  1  0  0  0  0
 15 17  1  0  0  0  0
 16 17  2  0  0  0  0
 17 14  1  0  0  0  0
 18 19  1  0  0  0  0
 19 23  1  0  0  0  0
 19 20  1  0  0  0  0
 19 15  1  0  0  0  0
 21 23  1  0  0  0  0
 23 22  2  0  0  0  0
 25 24  1  0  0  0  0
 26 31  1  0  0  0  0
 27 29  1  0  0  0  0
 28 26  2  0  0  0  0
 29 31  2  0  0  0  0
 29 25  1  0  0  0  0
 30 27  1  0  0  0  0
 32 28  1  0  0  0  0
 32 27  1  0  0  0  0
 33 35  1  0  0  0  0
 33 34  1  0  0  0  0
 34 32  1  0  0  0  0
 35 34  1  0  0  0  0
M  END
>  <MODEL>
7

>  <REMARK>
 VINA RESULT:      -6.6      2.605      7.819
  Name = 
  7 active torsions:
  status: ('A' for Active; 'I' for Inactive)
    1  A    between atoms: N_1  and  C_11
    2  A    between atoms: N_1  and  C_22
    3  A    between atoms: C_11  and  C_12
    4  A    between atoms: C_18  and  N_35
    5  A    between atoms: C_21  and  C_24
    6  A    between atoms: C_24  and  N_25
    7  A    between atoms: C_28  and  C_34
                            x       y       z     vdW  Elec       q    Type
                         _______ _______ _______ _____ _____    ______ ____

>  <TORSDO>
F 7

$$$$
=
 OpenBabel11062420083D

 35 40  0  0  1  0  0  0  0  0999 V2000
  194.9440  177.9170  146.0320 O   0  0  0  0  0  1  0  0  0  0  0  0
  191.4180  176.4590  147.7890 C   0  0  0  0  0  2  0  0  0  0  0  0
  194.3960  176.7480  145.5200 C   0  0  1  0  0  3  0  0  0  0  0  0
  194.1300  174.8870  144.2330 C   0  0  1  0  0  3  0  0  0  0  0  0
  196.1010  176.0640  143.8930 N   0  0  0  0  0  2  0  0  0  0  0  0
  190.6690  175.2640  147.5520 C   0  0  2  0  0  3  0  0  0  0  0  0
  195.8410  175.3820  142.8460 N   0  0  0  0  0  0  0  0  0  0  0  0
  192.9760  176.4070  145.4750 C   0  0  2  0  0  3  0  0  0  0  0  0
  195.0480  175.8290  144.8120 C   0  0  1  0  0  3  0  0  0  0  0  0
  192.0720  176.1960  146.4620 C   0  0  1  0  0  3  0  0  0  0  0  0
  192.7900  175.2420  144.6910 C   0  0  2  0  0  3  0  0  0  0  0  0
  191.3860  175.0340  146.3160 N   0  0  1  0  0  0  0  0  0  0  0  0
  191.8060  174.3610  145.2360 C   0  0  0  0  0  2  0  0  0  0  0  0
  194.5920  174.6870  143.0040 C   0  0  0  0  0  0  0  0  0  0  0  0
  193.6750  172.7120  141.7630 N   0  0  0  0  0  2  0  0  0  0  0  0
  193.3220  174.9020  141.0160 O   0  0  0  0  0  0  0  0  0  0  0  0
  193.8320  174.1330  141.8750 C   0  0  0  0  0  0  0  0  0  0  0  0
  193.5320  172.5080  139.3380 C   0  0  0  0  0  1  0  0  0  0  0  0
  192.9800  172.0230  140.6730 C   0  0  0  0  0  0  0  0  0  0  0  0
  193.2040  170.5220  140.7860 C   0  0  0  0  0  1  0  0  0  0  0  0
  190.7760  172.8540  139.5450 C   0  0  0  0  0  1  0  0  0  0  0  0
  190.7390  171.7980  141.7200 C   0  0  0  0  0  2  0  0  0  0  0  0
  191.4910  172.2990  140.7370 C   0  0  0  0  0  0  0  0  0  0  0  0
  189.2090  175.5930  147.2630 C   0  0  0  0  0  2  0  0  0  0  0  0
  189.0950  176.9540  146.7550 N   0  0  0  0  0  2  0  0  0  0  0  0
  186.5900  178.2500  144.2620 C   0  0  0  0  0  3  0  0  0  0  0  0
  189.1760  177.0430  144.2310 C   0  0  2  0  0  3  0  0  0  0  0  0
  187.0730  177.8320  143.1340 N   0  0  0  0  0  0  0  0  0  0  0  0
  188.4460  177.2920  145.5240 C   0  0  0  0  0  0  0  0  0  0  0  0
  190.4310  178.2950  144.0320 Cl  0  0  0  0  0  0  0  0  0  0  0  0
  187.2600  177.9130  145.5240 C   0  0  0  0  0  3  0  0  0  0  0  0
  188.2590  177.0760  143.0830 N   0  0  0  0  0  0  0  0  0  0  0  0
  188.1060  174.7830  142.2270 C   0  0  0  0  0  2  0  0  0  0  0  0
  188.5050  176.2180  141.9270 C   0  0  0  0  0  3  0  0  0  0  0  0
  189.5620  175.1820  142.2660 C   0  0  0  0  0  2  0  0  0  0  0  0
  3  1  1  6  0  0  0
  4 14  1  6  0  0  0
  4 11  1  0  0  0  0
  4  9  1  0  0  0  0
  5  9  1  0  0  0  0
  6 24  1  6  0  0  0
  6  2  1  0  0  0  0
  7 14  2  0  0  0  0
  7  5  1  0  0  0  0
  8  3  1  0  0  0  0
  8 10  1  0  0  0  0
  9  3  1  0  0  0  0
 10  2  1  0  0  0  0
 11 13  1  0  0  0  0
 11  8  1  0  0  0  0
 12 10  1  0  0  0  0
 12  6  1  0  0  0  0
 13 12  1  0  0  0  0
 15 17  1  0  0  0  0
 16 17  2  0  0  0  0
 17 14  1  0  0  0  0
 18 19  1  0  0  0  0
 19 23  1  0  0  0  0
 19 20  1  0  0  0  0
 19 15  1  0  0  0  0
 21 23  1  0  0  0  0
 23 22  2  0  0  0  0
 25 24  1  0  0  0  0
 26 31  1  0  0  0  0
 27 29  1  0  0  0  0
 28 26  2  0  0  0  0
 29 25  1  0  0  0  0
 30 27  1  0  0  0  0
 31 29  2  0  0  0  0
 32 28  1  0  0  0  0
 32 27  1  0  0  0  0
 33 35  1  0  0  0  0
 34 33  1  0  0  0  0
 34 35  1  0  0  0  0
 34 32  1  0  0  0  0
M  END
>  <MODEL>
8

>  <REMARK>
 VINA RESULT:      -6.5      2.804      7.752
  Name = 
  7 active torsions:
  status: ('A' for Active; 'I' for Inactive)
    1  A    between atoms: N_1  and  C_11
    2  A    between atoms: N_1  and  C_22
    3  A    between atoms: C_11  and  C_12
    4  A    between atoms: C_18  and  N_35
    5  A    between atoms: C_21  and  C_24
    6  A    between atoms: C_24  and  N_25
    7  A    between atoms: C_28  and  C_34
                            x       y       z     vdW  Elec       q    Type
                         _______ _______ _______ _____ _____    ______ ____

>  <TORSDO>
F 7

$$$$
=
 OpenBabel11062420083D

 35 40  0  0  1  0  0  0  0  0999 V2000
  187.0120  176.3830  147.2620 O   0  0  0  0  0  1  0  0  0  0  0  0
  191.1940  176.5340  147.6350 C   0  0  0  0  0  2  0  0  0  0  0  0
  187.7680  176.4330  146.0990 C   0  0  1  0  0  3  0  0  0  0  0  0
  188.2950  176.5200  143.8830 C   0  0  1  0  0  3  0  0  0  0  0  0
  186.0310  176.6450  144.3780 N   0  0  0  0  0  2  0  0  0  0  0  0
  192.2240  176.6730  146.6540 C   0  0  2  0  0  3  0  0  0  0  0  0
  186.1700  176.2220  143.1820 N   0  0  0  0  0  0  0  0  0  0  0  0
  189.1030  175.8690  145.9100 C   0  0  2  0  0  3  0  0  0  0  0  0
  187.3340  176.8320  144.9060 C   0  0  1  0  0  3  0  0  0  0  0  0
  190.2910  176.1620  146.4920 C   0  0  1  0  0  3  0  0  0  0  0  0
  189.4560  175.9270  144.5400 C   0  0  2  0  0  3  0  0  0  0  0  0
  191.2860  176.3730  145.5930 N   0  0  1  0  0  0  0  0  0  0  0  0
  190.8280  176.2730  144.3380 C   0  0  0  0  0  2  0  0  0  0  0  0
  187.5660  176.0770  142.8660 C   0  0  0  0  0  0  0  0  0  0  0  0
  188.7340  174.0370  141.9980 N   0  0  0  0  0  2  0  0  0  0  0  0
  187.8730  175.6660  140.5540 O   0  0  0  0  0  0  0  0  0  0  0  0
  188.0540  175.2730  141.7380 C   0  0  0  0  0  0  0  0  0  0  0  0
  188.1990  172.6830  140.0430 C   0  0  0  0  0  1  0  0  0  0  0  0
  189.3060  173.1570  140.9760 C   0  0  0  0  0  0  0  0  0  0  0  0
  190.3470  173.9160  140.1660 C   0  0  0  0  0  1  0  0  0  0  0  0
  189.7700  171.6800  143.0800 C   0  0  0  0  0  1  0  0  0  0  0  0
  190.5000  170.9810  140.8830 C   0  0  0  0  0  2  0  0  0  0  0  0
  189.9730  171.9590  141.6230 C   0  0  0  0  0  0  0  0  0  0  0  0
  193.2480  175.5510  146.7860 C   0  0  0  0  0  2  0  0  0  0  0  0
  194.5470  176.0030  146.3060 N   0  0  0  0  0  2  0  0  0  0  0  0
  196.3020  176.0220  142.9750 C   0  0  0  0  0  3  0  0  0  0  0  0
  195.1840  174.1020  144.7680 C   0  0  2  0  0  3  0  0  0  0  0  0
  196.1490  174.7990  142.5700 N   0  0  0  0  0  0  0  0  0  0  0  0
  195.1310  175.5760  145.0690 C   0  0  0  0  0  0  0  0  0  0  0  0
  196.4740  173.3620  145.7520 Cl  0  0  0  0  0  0  0  0  0  0  0  0
  195.7130  176.4570  144.2470 C   0  0  0  0  0  3  0  0  0  0  0  0
  195.4450  173.8560  143.3430 N   0  0  0  0  0  0  0  0  0  0  0  0
  193.5980  173.0700  141.9370 C   0  0  0  0  0  2  0  0  0  0  0  0
  194.8650  172.6890  142.6840 C   0  0  0  0  0  3  0  0  0  0  0  0
  193.5010  172.3840  143.2790 C   0  0  0  0  0  2  0  0  0  0  0  0
  3  1  1  6  0  0  0
  4 14  1  6  0  0  0
  4 11  1  0  0  0  0
  4  9  1  0  0  0  0
  5  9  1  0  0  0  0
  6 24  1  1  0  0  0
  6  2  1  0  0  0  0
  7  5  1  0  0  0  0
  8  3  1  0  0  0  0
  8 10  1  0  0  0  0
  9  3  1  0  0  0  0
 10  2  1  0  0  0  0
 11  8  1  0  0  0  0
 12 10  1  0  0  0  0
 12  6  1  0  0  0  0
 13 11  1  0  0  0  0
 13 12  1  0  0  0  0
 14  7  2  0  0  0  0
 16 17  2  0  0  0  0
 17 15  1  0  0  0  0
 17 14  1  0  0  0  0
 18 19  1  0  0  0  0
 19 23  1  0  0  0  0
 19 15  1  0  0  0  0
 20 19  1  0  0  0  0
 22 23  2  0  0  0  0
 23 21  1  0  0  0  0
 25 24  1  0  0  0  0
 26 31  1  0  0  0  0
 27 29  1  0  0  0  0
 27 30  1  0  0  0  0
 28 26  2  0  0  0  0
 28 32  1  0  0  0  0
 29 25  1  0  0  0  0
 31 29  2  0  0  0  0
 32 27  1  0  0  0  0
 33 34  1  0  0  0  0
 33 35  1  0  0  0  0
 34 35  1  0  0  0  0
 34 32  1  0  0  0  0
M  END
>  <MODEL>
9

>  <REMARK>
 VINA RESULT:      -6.5      2.095      5.466
  Name = 
  7 active torsions:
  status: ('A' for Active; 'I' for Inactive)
    1  A    between atoms: N_1  and  C_11
    2  A    between atoms: N_1  and  C_22
    3  A    between atoms: C_11  and  C_12
    4  A    between atoms: C_18  and  N_35
    5  A    between atoms: C_21  and  C_24
    6  A    between atoms: C_24  and  N_25
    7  A    between atoms: C_28  and  C_34
                            x       y       z     vdW  Elec       q    Type
                         _______ _______ _______ _____ _____    ______ ____

>  <TORSDO>
F 7

$$$$
