=
 OpenBabel11062422133D

 44 49  0  0  1  0  0  0  0  0999 V2000
  192.0530  172.6290  144.6340 C   0  0  0  0  0  2  0  0  0  0  0  0
  192.7530  171.3260  144.2490 C   0  0  1  0  0  3  0  0  0  0  0  0
  190.1230  171.8350  143.2110 C   0  0  0  0  0  0  0  0  0  0  0  0
  191.0570  171.0240  142.4930 N   0  0  0  0  0  2  0  0  0  0  0  0
  190.5320  172.5010  144.5020 C   0  0  2  0  0  3  0  0  0  0  0  0
  192.4900  171.0730  142.7660 C   0  0  0  0  0  2  0  0  0  0  0  0
  188.9300  171.9020  142.8130 O   0  0  0  0  0  0  0  0  0  0  0  0
  185.3540  176.2860  143.9670 O   0  0  0  0  0  1  0  0  0  0  0  0
  187.3100  177.1210  141.8290 C   0  0  1  0  0  3  0  0  0  0  0  0
  187.7110  177.5190  146.3300 C   0  0  1  0  0  3  0  0  0  0  0  0
  188.6150  175.5800  143.3740 C   0  0  0  0  0  0  0  0  0  0  0  0
  188.3110  176.2950  145.7480 C   0  0  0  0  0  0  0  0  0  0  0  0
  188.5580  176.2660  142.0420 C   0  0  0  0  0  2  0  0  0  0  0  0
  186.9220  177.9110  143.0860 C   0  0  2  0  0  3  0  0  0  0  0  0
  189.5490  174.6350  143.4890 C   0  0  0  0  0  3  0  0  0  0  0  0
  186.4270  177.7120  145.5460 C   0  0  0  0  0  2  0  0  0  0  0  0
  189.2120  175.5640  146.4070 C   0  0  0  0  0  3  0  0  0  0  0  0
  189.8760  173.8350  144.6910 C   0  0  0  0  0  0  0  0  0  0  0  0
  187.6380  175.8650  144.4970 C   0  0  1  0  0  3  0  0  0  0  0  0
  189.7750  174.2830  145.9490 C   0  0  0  0  0  3  0  0  0  0  0  0
  186.5590  176.9360  144.2350 C   0  0  1  0  0  0  0  0  0  0  0  0
  187.3960  177.3270  147.6770 O   0  0  0  0  0  1  0  0  0  0  0  0
  187.3910  177.9040  140.6530 O   0  0  0  0  0  0  0  0  0  0  0  0
  186.7550  177.2260  139.5990 C   0  0  0  0  0  1  0  0  0  0  0  0
  185.7640  179.9200  143.8190 O   0  0  0  0  0  1  0  0  0  0  0  0
  185.8720  179.0020  142.7730 C   0  0  2  0  0  3  0  0  0  0  0  0
  183.5530  178.8600  143.3300 O   0  0  0  0  0  1  0  0  0  0  0  0
  184.5030  178.4520  142.3940 C   0  0  0  0  0  2  0  0  0  0  0  0
  194.2620  171.4220  144.4940 C   0  0  2  0  0  3  0  0  0  0  0  0
  195.2960  177.1230  144.4380 C   0  0  0  0  0  3  0  0  0  0  0  0
  197.5890  173.7100  141.4620 S   0  0  0  0  0  0  0  0  0  0  0  0
  196.2420  175.2880  143.0870 N   0  0  0  0  0  2  0  0  0  0  0  0
  196.5200  173.9430  142.6750 C   0  0  0  0  0  0  0  0  0  0  0  0
  194.7750  172.8340  144.1970 C   0  0  1  0  0  3  0  0  0  0  0  0
  194.6510  177.4230  145.6370 C   0  0  0  0  0  3  0  0  0  0  0  0
  195.2640  173.4980  145.4650 C   0  0  0  0  0  2  0  0  0  0  0  0
  195.5610  175.7590  144.2580 C   0  0  0  0  0  0  0  0  0  0  0  0
  194.4310  175.9710  146.4610 S   0  0  0  0  0  0  0  0  0  0  0  0
  195.8440  172.7990  143.2110 N   0  0  0  0  0  2  0  0  0  0  0  0
  195.1330  174.9690  145.3200 C   0  0  0  0  0  0  0  0  0  0  0  0
  194.9890  170.4350  143.6970 N   0  0  0  0  0  2  0  0  0  0  0  0
  195.8410  168.1670  143.7960 C   0  0  0  0  0  1  0  0  0  0  0  0
  195.4260  169.3830  144.6000 C   0  0  0  0  0  3  0  0  0  0  0  0
  196.6100  169.8680  145.4180 C   0  0  0  0  0  1  0  0  0  0  0  0
  2 29  1  6  0  0  0
  2  1  1  0  0  0  0
  3  5  1  0  0  0  0
  4  6  1  0  0  0  0
  4  3  1  0  0  0  0
  5  1  1  0  0  0  0
  5 18  1  6  0  0  0
  6  2  1  0  0  0  0
  7  3  2  0  0  0  0
  9 23  1  6  0  0  0
  9 13  1  0  0  0  0
  9 14  1  0  0  0  0
 10 22  1  1  0  0  0
 11 15  2  0  0  0  0
 12 10  1  0  0  0  0
 12 17  2  0  0  0  0
 13 11  1  0  0  0  0
 14 26  1  6  0  0  0
 14 21  1  0  0  0  0
 15 18  1  0  0  0  0
 16 10  1  0  0  0  0
 18 20  2  0  0  0  0
 19 11  1  6  0  0  0
 19 12  1  0  0  0  0
 20 17  1  0  0  0  0
 21  8  1  6  0  0  0
 21 19  1  0  0  0  0
 21 16  1  0  0  0  0
 24 23  1  0  0  0  0
 26 25  1  1  0  0  0
 28 26  1  0  0  0  0
 28 27  1  0  0  0  0
 29 41  1  6  0  0  0
 30 35  2  0  0  0  0
 31 33  2  0  0  0  0
 32 37  1  0  0  0  0
 33 32  1  0  0  0  0
 33 39  1  0  0  0  0
 34 29  1  1  0  0  0
 34 36  1  0  0  0  0
 35 38  1  0  0  0  0
 37 30  1  0  0  0  0
 37 40  2  0  0  0  0
 39 34  1  0  0  0  0
 40 36  1  0  0  0  0
 40 38  1  0  0  0  0
 41 43  1  0  0  0  0
 42 43  1  0  0  0  0
 43 44  1  0  0  0  0
M  END
>  <MODEL>
1

>  <REMARK>
 VINA RESULT:      -7.9      0.000      0.000
  Name = 
  8 active torsions:
  status: ('A' for Active; 'I' for Inactive)
    1  A    between atoms: C_3  and  O_10
    2  A    between atoms: C_9  and  C_38
    3  A    between atoms: C_11  and  C_38
    4  A    between atoms: C_20  and  C_34
    5  A    between atoms: C_22  and  C_32
    6  A    between atoms: C_23  and  C_32
    7  A    between atoms: C_28  and  N_37
    8  A    between atoms: N_37  and  C_38
                            x       y       z     vdW  Elec       q    Type
                         _______ _______ _______ _____ _____    ______ ____

>  <TORSDO>
F 8

$$$$
=
 OpenBabel11062422133D

 44 49  0  0  1  0  0  0  0  0999 V2000
  189.4680  175.7380  145.1760 C   0  0  0  0  0  2  0  0  0  0  0  0
  188.2160  176.4030  145.7460 C   0  0  1  0  0  3  0  0  0  0  0  0
  190.6890  176.6630  147.1840 C   0  0  0  0  0  0  0  0  0  0  0  0
  189.6750  177.6690  147.2680 N   0  0  0  0  0  2  0  0  0  0  0  0
  190.5030  175.4740  146.2740 C   0  0  2  0  0  3  0  0  0  0  0  0
  188.6140  177.7810  146.2720 C   0  0  0  0  0  2  0  0  0  0  0  0
  191.6850  176.7260  147.9520 O   0  0  0  0  0  0  0  0  0  0  0  0
  196.1780  176.7940  143.5380 O   0  0  0  0  0  1  0  0  0  0  0  0
  194.3520  175.7500  141.3770 C   0  0  1  0  0  3  0  0  0  0  0  0
  196.0640  173.5270  144.9420 C   0  0  1  0  0  3  0  0  0  0  0  0
  193.1590  175.2550  143.5670 C   0  0  0  0  0  0  0  0  0  0  0  0
  194.7180  174.1130  145.1500 C   0  0  0  0  0  0  0  0  0  0  0  0
  193.0490  175.3630  142.0750 C   0  0  0  0  0  2  0  0  0  0  0  0
  195.5710  175.0390  141.9810 C   0  0  2  0  0  3  0  0  0  0  0  0
  191.9980  175.1760  144.2190 C   0  0  0  0  0  3  0  0  0  0  0  0
  196.8010  174.5710  144.1250 C   0  0  0  0  0  2  0  0  0  0  0  0
  193.9150  173.7150  146.1380 C   0  0  0  0  0  3  0  0  0  0  0  0
  191.7940  175.0060  145.6750 C   0  0  0  0  0  0  0  0  0  0  0  0
  194.4790  175.3130  144.3090 C   0  0  1  0  0  3  0  0  0  0  0  0
  192.6150  174.3160  146.4790 C   0  0  0  0  0  3  0  0  0  0  0  0
  195.7570  175.4660  143.4580 C   0  0  1  0  0  0  0  0  0  0  0  0
  196.7240  173.3530  146.1600 O   0  0  0  0  0  1  0  0  0  0  0  0
  194.2570  175.6440  139.9690 O   0  0  0  0  0  0  0  0  0  0  0  0
  193.4470  174.5440  139.6400 C   0  0  0  0  0  1  0  0  0  0  0  0
  196.7920  176.3750  140.3560 O   0  0  0  0  0  1  0  0  0  0  0  0
  196.8180  175.1800  141.0780 C   0  0  2  0  0  3  0  0  0  0  0  0
  196.4050  172.8640  140.6560 O   0  0  0  0  0  1  0  0  0  0  0  0
  197.0460  173.9940  140.1490 C   0  0  0  0  0  2  0  0  0  0  0  0
  187.1380  176.5570  144.6670 C   0  0  2  0  0  3  0  0  0  0  0  0
  189.7340  173.6420  140.3850 C   0  0  0  0  0  3  0  0  0  0  0  0
  186.5450  177.5390  139.7500 S   0  0  0  0  0  0  0  0  0  0  0  0
  188.1910  175.5660  140.3370 N   0  0  0  0  0  2  0  0  0  0  0  0
  187.2610  176.5430  140.8270 C   0  0  0  0  0  0  0  0  0  0  0  0
  187.6410  176.0400  143.3160 C   0  0  1  0  0  3  0  0  0  0  0  0
  190.1630  172.5610  141.1530 C   0  0  0  0  0  3  0  0  0  0  0  0
  187.3910  174.5540  143.1920 C   0  0  0  0  0  2  0  0  0  0  0  0
  188.7550  174.4300  141.0050 C   0  0  0  0  0  0  0  0  0  0  0  0
  189.3000  172.6020  142.5990 S   0  0  0  0  0  0  0  0  0  0  0  0
  186.9960  176.7450  142.2200 N   0  0  0  0  0  2  0  0  0  0  0  0
  188.3970  173.9720  142.2680 C   0  0  0  0  0  0  0  0  0  0  0  0
  186.7030  177.9480  144.5540 N   0  0  0  0  0  2  0  0  0  0  0  0
  184.8880  177.8880  146.1610 C   0  0  0  0  0  1  0  0  0  0  0  0
  185.2550  177.9630  144.6920 C   0  0  0  0  0  3  0  0  0  0  0  0
  184.6960  179.2450  144.1020 C   0  0  0  0  0  1  0  0  0  0  0  0
  1  2  1  0  0  0  0
  1  5  1  0  0  0  0
  2 29  1  6  0  0  0
  2  6  1  0  0  0  0
  3  4  1  0  0  0  0
  3  7  2  0  0  0  0
  5 18  1  6  0  0  0
  5  3  1  0  0  0  0
  6  4  1  0  0  0  0
  9 23  1  6  0  0  0
  9 14  1  0  0  0  0
  9 13  1  0  0  0  0
 10 12  1  0  0  0  0
 10 22  1  1  0  0  0
 11 15  2  0  0  0  0
 12 17  2  0  0  0  0
 13 11  1  0  0  0  0
 14 26  1  6  0  0  0
 14 21  1  0  0  0  0
 15 18  1  0  0  0  0
 16 10  1  0  0  0  0
 17 20  1  0  0  0  0
 18 20  2  0  0  0  0
 19 11  1  6  0  0  0
 19 12  1  0  0  0  0
 21  8  1  1  0  0  0
 21 16  1  0  0  0  0
 21 19  1  0  0  0  0
 24 23  1  0  0  0  0
 26 25  1  6  0  0  0
 28 27  1  0  0  0  0
 28 26  1  0  0  0  0
 29 41  1  6  0  0  0
 30 37  1  0  0  0  0
 30 35  2  0  0  0  0
 31 33  2  0  0  0  0
 32 33  1  0  0  0  0
 32 37  1  0  0  0  0
 33 39  1  0  0  0  0
 34 29  1  1  0  0  0
 35 38  1  0  0  0  0
 36 34  1  0  0  0  0
 37 40  2  0  0  0  0
 39 34  1  0  0  0  0
 40 38  1  0  0  0  0
 40 36  1  0  0  0  0
 41 43  1  0  0  0  0
 43 42  1  0  0  0  0
 44 43  1  0  0  0  0
M  END
>  <MODEL>
2

>  <REMARK>
 VINA RESULT:      -7.5      4.481      9.025
  Name = 
  8 active torsions:
  status: ('A' for Active; 'I' for Inactive)
    1  A    between atoms: C_3  and  O_10
    2  A    between atoms: C_9  and  C_38
    3  A    between atoms: C_11  and  C_38
    4  A    between atoms: C_20  and  C_34
    5  A    between atoms: C_22  and  C_32
    6  A    between atoms: C_23  and  C_32
    7  A    between atoms: C_28  and  N_37
    8  A    between atoms: N_37  and  C_38
                            x       y       z     vdW  Elec       q    Type
                         _______ _______ _______ _____ _____    ______ ____

>  <TORSDO>
F 8

$$$$
=
 OpenBabel11062422133D

 44 49  0  0  1  0  0  0  0  0999 V2000
  189.6750  172.8560  140.5030 C   0  0  0  0  0  2  0  0  0  0  0  0
  189.6110  171.9510  139.2730 C   0  0  1  0  0  3  0  0  0  0  0  0
  188.2460  174.4780  139.1970 C   0  0  0  0  0  0  0  0  0  0  0  0
  188.7460  173.8710  138.0020 N   0  0  0  0  0  2  0  0  0  0  0  0
  188.4930  173.8290  140.5370 C   0  0  2  0  0  3  0  0  0  0  0  0
  189.7700  172.8310  138.0340 C   0  0  0  0  0  2  0  0  0  0  0  0
  187.5110  175.4970  139.1100 O   0  0  0  0  0  0  0  0  0  0  0  0
  187.9770  175.4550  146.7440 O   0  0  0  0  0  1  0  0  0  0  0  0
  185.8030  176.9090  145.2430 C   0  0  1  0  0  3  0  0  0  0  0  0
  190.2930  177.5020  144.9820 C   0  0  1  0  0  3  0  0  0  0  0  0
  187.3510  175.9770  143.4540 C   0  0  0  0  0  0  0  0  0  0  0  0
  189.7190  176.5710  143.9800 C   0  0  0  0  0  0  0  0  0  0  0  0
  186.0110  176.5730  143.7670 C   0  0  0  0  0  2  0  0  0  0  0  0
  187.0550  177.5240  145.8830 C   0  0  2  0  0  3  0  0  0  0  0  0
  187.4660  175.4400  142.2390 C   0  0  0  0  0  3  0  0  0  0  0  0
  189.5230  177.2000  146.2530 C   0  0  0  0  0  2  0  0  0  0  0  0
  190.3750  176.2310  142.8700 C   0  0  0  0  0  3  0  0  0  0  0  0
  188.6730  174.8340  141.6330 C   0  0  0  0  0  0  0  0  0  0  0  0
  188.4820  175.9050  144.4590 C   0  0  1  0  0  3  0  0  0  0  0  0
  189.9270  175.2360  141.8810 C   0  0  0  0  0  3  0  0  0  0  0  0
  188.2210  176.5040  145.8570 C   0  0  1  0  0  0  0  0  0  0  0  0
  191.6460  177.2310  145.1940 O   0  0  0  0  0  1  0  0  0  0  0  0
  184.6160  177.6490  145.4620 O   0  0  0  0  0  0  0  0  0  0  0  0
  184.3050  178.3800  144.3030 C   0  0  0  0  0  1  0  0  0  0  0  0
  186.0390  177.2630  148.0770 O   0  0  0  0  0  1  0  0  0  0  0  0
  186.7410  178.1520  147.2610 C   0  0  2  0  0  3  0  0  0  0  0  0
  186.3350  180.2660  148.2980 O   0  0  0  0  0  1  0  0  0  0  0  0
  186.0230  179.4920  147.1800 C   0  0  0  0  0  2  0  0  0  0  0  0
  190.7280  170.9030  139.3040 C   0  0  2  0  0  3  0  0  0  0  0  0
  194.2730  172.4110  143.6330 C   0  0  0  0  0  3  0  0  0  0  0  0
  195.4600  172.5590  138.7000 S   0  0  0  0  0  0  0  0  0  0  0  0
  194.5990  172.4260  141.1880 N   0  0  0  0  0  2  0  0  0  0  0  0
  194.3230  172.1660  139.8040 C   0  0  0  0  0  0  0  0  0  0  0  0
  191.9030  171.3840  140.1610 C   0  0  1  0  0  3  0  0  0  0  0  0
  193.5250  171.8500  144.6660 C   0  0  0  0  0  3  0  0  0  0  0  0
  192.2510  170.3520  141.2100 C   0  0  0  0  0  2  0  0  0  0  0  0
  193.9090  171.9630  142.3560 C   0  0  0  0  0  0  0  0  0  0  0  0
  192.4210  170.7900  143.9640 S   0  0  0  0  0  0  0  0  0  0  0  0
  193.0670  171.6610  139.3340 N   0  0  0  0  0  2  0  0  0  0  0  0
  192.8720  171.0360  142.3720 C   0  0  0  0  0  0  0  0  0  0  0  0
  191.1800  170.5750  137.9530 N   0  0  0  0  0  2  0  0  0  0  0  0
  191.3570  168.6640  136.4700 C   0  0  0  0  0  1  0  0  0  0  0  0
  190.5570  169.3150  137.5810 C   0  0  0  0  0  3  0  0  0  0  0  0
  190.5200  168.3860  138.7800 C   0  0  0  0  0  1  0  0  0  0  0  0
  1  5  1  0  0  0  0
  2 29  1  1  0  0  0
  2  1  1  0  0  0  0
  3  5  1  0  0  0  0
  4  6  1  0  0  0  0
  4  3  1  0  0  0  0
  5 18  1  1  0  0  0
  6  2  1  0  0  0  0
  7  3  2  0  0  0  0
  9 23  1  6  0  0  0
  9 14  1  0  0  0  0
 10 22  1  1  0  0  0
 10 16  1  0  0  0  0
 11 13  1  0  0  0  0
 12 19  1  0  0  0  0
 12 10  1  0  0  0  0
 13  9  1  0  0  0  0
 14 26  1  1  0  0  0
 15 11  2  0  0  0  0
 17 12  2  0  0  0  0
 18 20  2  0  0  0  0
 18 15  1  0  0  0  0
 19 11  1  6  0  0  0
 19 21  1  0  0  0  0
 20 17  1  0  0  0  0
 21 14  1  0  0  0  0
 21 16  1  0  0  0  0
 21  8  1  1  0  0  0
 24 23  1  0  0  0  0
 26 25  1  1  0  0  0
 28 26  1  0  0  0  0
 28 27  1  0  0  0  0
 29 41  1  6  0  0  0
 30 35  2  0  0  0  0
 31 33  2  0  0  0  0
 32 37  1  0  0  0  0
 33 32  1  0  0  0  0
 34 29  1  6  0  0  0
 34 36  1  0  0  0  0
 36 40  1  0  0  0  0
 37 40  2  0  0  0  0
 37 30  1  0  0  0  0
 38 35  1  0  0  0  0
 39 33  1  0  0  0  0
 39 34  1  0  0  0  0
 40 38  1  0  0  0  0
 42 43  1  0  0  0  0
 43 41  1  0  0  0  0
 43 44  1  0  0  0  0
M  END
>  <MODEL>
3

>  <REMARK>
 VINA RESULT:      -7.4      3.157      5.037
  Name = 
  8 active torsions:
  status: ('A' for Active; 'I' for Inactive)
    1  A    between atoms: C_3  and  O_10
    2  A    between atoms: C_9  and  C_38
    3  A    between atoms: C_11  and  C_38
    4  A    between atoms: C_20  and  C_34
    5  A    between atoms: C_22  and  C_32
    6  A    between atoms: C_23  and  C_32
    7  A    between atoms: C_28  and  N_37
    8  A    between atoms: N_37  and  C_38
                            x       y       z     vdW  Elec       q    Type
                         _______ _______ _______ _____ _____    ______ ____

>  <TORSDO>
F 8

$$$$
=
 OpenBabel11062422133D

 44 49  0  0  1  0  0  0  0  0999 V2000
  192.5560  174.0370  144.4280 C   0  0  0  0  0  2  0  0  0  0  0  0
  193.4470  172.8310  144.1320 C   0  0  1  0  0  3  0  0  0  0  0  0
  190.6260  172.4070  144.4770 C   0  0  0  0  0  0  0  0  0  0  0  0
  191.4090  171.5400  143.6500 N   0  0  0  0  0  2  0  0  0  0  0  0
  191.2620  173.6100  145.1290 C   0  0  2  0  0  3  0  0  0  0  0  0
  192.7140  171.9400  143.1310 C   0  0  0  0  0  2  0  0  0  0  0  0
  189.4340  172.0980  144.7390 O   0  0  0  0  0  0  0  0  0  0  0  0
  185.4510  176.1730  144.0790 O   0  0  0  0  0  1  0  0  0  0  0  0
  187.3590  177.4150  142.1010 C   0  0  1  0  0  3  0  0  0  0  0  0
  187.2660  177.8900  146.6120 C   0  0  1  0  0  3  0  0  0  0  0  0
  188.8270  176.1960  143.7820 C   0  0  0  0  0  0  0  0  0  0  0  0
  188.1680  176.8270  146.1080 C   0  0  0  0  0  0  0  0  0  0  0  0
  188.7400  176.8530  142.4370 C   0  0  0  0  0  2  0  0  0  0  0  0
  186.7000  178.1010  143.3060 C   0  0  2  0  0  3  0  0  0  0  0  0
  189.9310  175.4780  143.9950 C   0  0  0  0  0  3  0  0  0  0  0  0
  186.0450  177.7980  145.7170 C   0  0  0  0  0  2  0  0  0  0  0  0
  189.1450  176.3110  146.8550 C   0  0  0  0  0  3  0  0  0  0  0  0
  190.3170  174.7680  145.2350 C   0  0  0  0  0  0  0  0  0  0  0  0
  187.7170  176.2610  144.8110 C   0  0  1  0  0  3  0  0  0  0  0  0
  190.0110  175.1830  146.4720 C   0  0  0  0  0  3  0  0  0  0  0  0
  186.4580  177.0700  144.4370 C   0  0  1  0  0  0  0  0  0  0  0  0
  186.8840  177.6340  147.9310 O   0  0  0  0  0  1  0  0  0  0  0  0
  187.3710  178.1970  140.9230 O   0  0  0  0  0  0  0  0  0  0  0  0
  186.8410  177.4450  139.8610 C   0  0  0  0  0  1  0  0  0  0  0  0
  185.2110  179.9600  143.7960 O   0  0  0  0  0  1  0  0  0  0  0  0
  185.4700  178.9360  142.8830 C   0  0  2  0  0  3  0  0  0  0  0  0
  183.7840  178.2880  141.3180 O   0  0  0  0  0  1  0  0  0  0  0  0
  184.2170  178.1080  142.6310 C   0  0  0  0  0  2  0  0  0  0  0  0
  194.7880  173.2740  143.5380 C   0  0  2  0  0  3  0  0  0  0  0  0
  194.3070  172.3170  137.8440 C   0  0  0  0  0  3  0  0  0  0  0  0
  197.6660  170.0640  140.9100 S   0  0  0  0  0  0  0  0  0  0  0  0
  195.8150  171.3370  139.5330 N   0  0  0  0  0  2  0  0  0  0  0  0
  196.4690  171.1690  140.7990 C   0  0  0  0  0  0  0  0  0  0  0  0
  194.9410  172.7700  142.1000 C   0  0  1  0  0  3  0  0  0  0  0  0
  193.5020  173.4170  137.5550 C   0  0  0  0  0  3  0  0  0  0  0  0
  195.1250  173.9320  141.1490 C   0  0  0  0  0  2  0  0  0  0  0  0
  194.9330  172.3790  139.0960 C   0  0  0  0  0  0  0  0  0  0  0  0
  193.5920  174.4610  138.8740 S   0  0  0  0  0  0  0  0  0  0  0  0
  196.0670  171.8560  141.9900 N   0  0  0  0  0  2  0  0  0  0  0  0
  194.6300  173.5370  139.8060 C   0  0  0  0  0  0  0  0  0  0  0  0
  195.9050  172.8170  144.3630 N   0  0  0  0  0  2  0  0  0  0  0  0
  197.0830  173.5960  146.3340 C   0  0  0  0  0  1  0  0  0  0  0  0
  196.4850  173.9900  144.9980 C   0  0  0  0  0  3  0  0  0  0  0  0
  197.5740  174.5680  144.1130 C   0  0  0  0  0  1  0  0  0  0  0  0
  1  5  1  0  0  0  0
  2 29  1  6  0  0  0
  2  1  1  0  0  0  0
  3  7  2  0  0  0  0
  3  5  1  0  0  0  0
  4  3  1  0  0  0  0
  5 18  1  6  0  0  0
  6  4  1  0  0  0  0
  6  2  1  0  0  0  0
  9 23  1  6  0  0  0
  9 13  1  0  0  0  0
  9 14  1  0  0  0  0
 10 22  1  1  0  0  0
 11 15  2  0  0  0  0
 12 10  1  0  0  0  0
 12 17  2  0  0  0  0
 13 11  1  0  0  0  0
 14 26  1  6  0  0  0
 14 21  1  0  0  0  0
 15 18  1  0  0  0  0
 16 10  1  0  0  0  0
 18 20  2  0  0  0  0
 19 11  1  6  0  0  0
 19 12  1  0  0  0  0
 20 17  1  0  0  0  0
 21  8  1  6  0  0  0
 21 19  1  0  0  0  0
 21 16  1  0  0  0  0
 24 23  1  0  0  0  0
 26 25  1  1  0  0  0
 27 28  1  0  0  0  0
 28 26  1  0  0  0  0
 29 41  1  1  0  0  0
 30 37  1  0  0  0  0
 32 33  1  0  0  0  0
 33 31  2  0  0  0  0
 33 39  1  0  0  0  0
 34 29  1  1  0  0  0
 35 30  2  0  0  0  0
 35 38  1  0  0  0  0
 36 34  1  0  0  0  0
 37 32  1  0  0  0  0
 37 40  2  0  0  0  0
 38 40  1  0  0  0  0
 39 34  1  0  0  0  0
 40 36  1  0  0  0  0
 41 43  1  0  0  0  0
 43 42  1  0  0  0  0
 44 43  1  0  0  0  0
M  END
>  <MODEL>
4

>  <REMARK>
 VINA RESULT:      -7.4      2.171      3.324
  Name = 
  8 active torsions:
  status: ('A' for Active; 'I' for Inactive)
    1  A    between atoms: C_3  and  O_10
    2  A    between atoms: C_9  and  C_38
    3  A    between atoms: C_11  and  C_38
    4  A    between atoms: C_20  and  C_34
    5  A    between atoms: C_22  and  C_32
    6  A    between atoms: C_23  and  C_32
    7  A    between atoms: C_28  and  N_37
    8  A    between atoms: N_37  and  C_38
                            x       y       z     vdW  Elec       q    Type
                         _______ _______ _______ _____ _____    ______ ____

>  <TORSDO>
F 8

$$$$
=
 OpenBabel11062422133D

 44 49  0  0  1  0  0  0  0  0999 V2000
  190.1130  174.5250  142.7960 C   0  0  0  0  0  2  0  0  0  0  0  0
  189.3810  174.2770  144.1140 C   0  0  1  0  0  3  0  0  0  0  0  0
  190.2620  172.0120  142.5820 C   0  0  0  0  0  0  0  0  0  0  0  0
  190.1360  171.9390  144.0050 N   0  0  0  0  0  2  0  0  0  0  0  0
  190.0010  173.3140  141.8640 C   0  0  2  0  0  3  0  0  0  0  0  0
  190.0920  173.1360  144.8390 C   0  0  0  0  0  2  0  0  0  0  0  0
  190.4890  170.9610  141.9270 O   0  0  0  0  0  0  0  0  0  0  0  0
  195.4490  171.9800  138.7060 O   0  0  0  0  0  1  0  0  0  0  0  0
  195.6890  174.7880  139.7790 C   0  0  1  0  0  3  0  0  0  0  0  0
  192.8960  173.2250  136.5630 C   0  0  1  0  0  3  0  0  0  0  0  0
  193.2430  174.1580  140.0740 C   0  0  0  0  0  0  0  0  0  0  0  0
  192.3320  173.2470  137.9340 C   0  0  0  0  0  0  0  0  0  0  0  0
  194.3490  175.1020  140.4420 C   0  0  0  0  0  2  0  0  0  0  0  0
  195.5300  174.3690  138.3110 C   0  0  2  0  0  3  0  0  0  0  0  0
  192.1450  174.2480  140.8250 C   0  0  0  0  0  3  0  0  0  0  0  0
  194.3350  172.7870  136.7610 C   0  0  0  0  0  2  0  0  0  0  0  0
  191.0190  173.1810  138.1630 C   0  0  0  0  0  3  0  0  0  0  0  0
  190.8820  173.4920  140.6650 C   0  0  0  0  0  0  0  0  0  0  0  0
  193.3720  173.1130  138.9850 C   0  0  1  0  0  3  0  0  0  0  0  0
  190.3840  173.0890  139.4880 C   0  0  0  0  0  3  0  0  0  0  0  0
  194.7100  173.0580  138.2190 C   0  0  1  0  0  0  0  0  0  0  0  0
  192.2390  172.2830  135.7700 O   0  0  0  0  0  1  0  0  0  0  0  0
  196.6450  175.8100  139.9910 O   0  0  0  0  0  0  0  0  0  0  0  0
  196.3410  176.4880  141.1830 C   0  0  0  0  0  1  0  0  0  0  0  0
  197.9410  174.0730  138.4330 O   0  0  0  0  0  1  0  0  0  0  0  0
  196.8860  174.3690  137.5680 C   0  0  2  0  0  3  0  0  0  0  0  0
  196.0210  176.0510  136.1070 O   0  0  0  0  0  1  0  0  0  0  0  0
  197.1670  175.6500  136.7940 C   0  0  0  0  0  2  0  0  0  0  0  0
  189.3970  175.5320  144.9940 C   0  0  2  0  0  3  0  0  0  0  0  0
  184.3920  178.3190  145.8620 C   0  0  0  0  0  3  0  0  0  0  0  0
  186.7200  177.8280  141.3790 S   0  0  0  0  0  0  0  0  0  0  0  0
  185.6910  177.9190  143.8040 N   0  0  0  0  0  2  0  0  0  0  0  0
  186.7970  177.5200  142.9810 C   0  0  0  0  0  0  0  0  0  0  0  0
  188.0910  176.3180  144.8450 C   0  0  1  0  0  3  0  0  0  0  0  0
  184.4750  178.3860  147.2520 C   0  0  0  0  0  3  0  0  0  0  0  0
  188.0670  177.4910  145.8000 C   0  0  0  0  0  2  0  0  0  0  0  0
  185.6030  178.0020  145.2320 C   0  0  0  0  0  0  0  0  0  0  0  0
  186.0720  178.0540  147.6730 S   0  0  0  0  0  0  0  0  0  0  0  0
  187.9240  176.7890  143.4790 N   0  0  0  0  0  2  0  0  0  0  0  0
  186.6560  177.8210  146.1220 C   0  0  0  0  0  0  0  0  0  0  0  0
  190.5450  176.3810  144.6790 N   0  0  0  0  0  2  0  0  0  0  0  0
  192.9190  176.6340  145.1020 C   0  0  0  0  0  1  0  0  0  0  0  0
  191.6270  175.9960  145.5710 C   0  0  0  0  0  3  0  0  0  0  0  0
  191.3210  176.4650  146.9820 C   0  0  0  0  0  1  0  0  0  0  0  0
  1  2  1  0  0  0  0
  2  6  1  0  0  0  0
  2 29  1  1  0  0  0
  3  4  1  0  0  0  0
  4  6  1  0  0  0  0
  5 18  1  6  0  0  0
  5  3  1  0  0  0  0
  5  1  1  0  0  0  0
  7  3  2  0  0  0  0
  9 23  1  6  0  0  0
  9 13  1  0  0  0  0
 10 22  1  6  0  0  0
 10 16  1  0  0  0  0
 10 12  1  0  0  0  0
 11 13  1  0  0  0  0
 11 15  2  0  0  0  0
 12 17  2  0  0  0  0
 14 26  1  1  0  0  0
 14  9  1  0  0  0  0
 16 21  1  0  0  0  0
 17 20  1  0  0  0  0
 18 15  1  0  0  0  0
 19 12  1  6  0  0  0
 19 11  1  0  0  0  0
 20 18  2  0  0  0  0
 21 14  1  0  0  0  0
 21  8  1  1  0  0  0
 21 19  1  0  0  0  0
 23 24  1  0  0  0  0
 26 25  1  1  0  0  0
 27 28  1  0  0  0  0
 28 26  1  0  0  0  0
 29 41  1  6  0  0  0
 30 35  2  0  0  0  0
 31 33  2  0  0  0  0
 32 37  1  0  0  0  0
 33 39  1  0  0  0  0
 33 32  1  0  0  0  0
 34 29  1  6  0  0  0
 34 36  1  0  0  0  0
 35 38  1  0  0  0  0
 36 40  1  0  0  0  0
 37 30  1  0  0  0  0
 37 40  2  0  0  0  0
 39 34  1  0  0  0  0
 40 38  1  0  0  0  0
 41 43  1  0  0  0  0
 42 43  1  0  0  0  0
 43 44  1  0  0  0  0
M  END
>  <MODEL>
5

>  <REMARK>
 VINA RESULT:      -7.2      5.062      9.223
  Name = 
  8 active torsions:
  status: ('A' for Active; 'I' for Inactive)
    1  A    between atoms: C_3  and  O_10
    2  A    between atoms: C_9  and  C_38
    3  A    between atoms: C_11  and  C_38
    4  A    between atoms: C_20  and  C_34
    5  A    between atoms: C_22  and  C_32
    6  A    between atoms: C_23  and  C_32
    7  A    between atoms: C_28  and  N_37
    8  A    between atoms: N_37  and  C_38
                            x       y       z     vdW  Elec       q    Type
                         _______ _______ _______ _____ _____    ______ ____

>  <TORSDO>
F 8

$$$$
=
 OpenBabel11062422133D

 44 49  0  0  1  0  0  0  0  0999 V2000
  191.7470  173.3600  141.8210 C   0  0  0  0  0  2  0  0  0  0  0  0
  192.2470  172.0430  141.2280 C   0  0  1  0  0  3  0  0  0  0  0  0
  189.8970  172.0050  142.8800 C   0  0  0  0  0  0  0  0  0  0  0  0
  190.0900  171.0350  141.8460 N   0  0  0  0  0  2  0  0  0  0  0  0
  190.8990  173.1160  143.0740 C   0  0  2  0  0  3  0  0  0  0  0  0
  191.0300  171.2510  140.7510 C   0  0  0  0  0  2  0  0  0  0  0  0
  188.9430  171.8620  143.6910 O   0  0  0  0  0  0  0  0  0  0  0  0
  185.6300  176.4160  144.7410 O   0  0  0  0  0  1  0  0  0  0  0  0
  186.4590  177.3590  141.9990 C   0  0  1  0  0  3  0  0  0  0  0  0
  188.6220  177.9160  145.9480 C   0  0  1  0  0  3  0  0  0  0  0  0
  188.4150  175.9820  142.8600 C   0  0  0  0  0  0  0  0  0  0  0  0
  189.0420  176.7330  145.1590 C   0  0  0  0  0  0  0  0  0  0  0  0
  187.7580  176.6230  141.6750 C   0  0  0  0  0  2  0  0  0  0  0  0
  186.5470  178.1460  143.3140 C   0  0  2  0  0  3  0  0  0  0  0  0
  189.3970  175.1270  142.5730 C   0  0  0  0  0  3  0  0  0  0  0  0
  187.1180  177.9730  145.7590 C   0  0  0  0  0  2  0  0  0  0  0  0
  190.1960  176.1030  145.3840 C   0  0  0  0  0  3  0  0  0  0  0  0
  190.2580  174.3920  143.5280 C   0  0  0  0  0  0  0  0  0  0  0  0
  187.9600  176.2120  144.2870 C   0  0  1  0  0  3  0  0  0  0  0  0
  190.6380  174.8640  144.7230 C   0  0  0  0  0  3  0  0  0  0  0  0
  186.7740  177.1760  144.5000 C   0  0  1  0  0  0  0  0  0  0  0  0
  188.9030  177.7340  147.3040 O   0  0  0  0  0  1  0  0  0  0  0  0
  185.9820  178.1140  140.9010 O   0  0  0  0  0  0  0  0  0  0  0  0
  186.4490  177.5410  139.7070 C   0  0  0  0  0  1  0  0  0  0  0  0
  185.7080  180.2130  144.2820 O   0  0  0  0  0  1  0  0  0  0  0  0
  185.3650  179.1320  143.4680 C   0  0  2  0  0  3  0  0  0  0  0  0
  183.6950  179.0310  145.1740 O   0  0  0  0  0  1  0  0  0  0  0  0
  184.0760  178.4810  143.9500 C   0  0  0  0  0  2  0  0  0  0  0  0
  193.1890  172.2970  140.0460 C   0  0  2  0  0  3  0  0  0  0  0  0
  196.3500  176.4480  142.5670 C   0  0  0  0  0  3  0  0  0  0  0  0
  196.5990  175.1590  137.6640 S   0  0  0  0  0  0  0  0  0  0  0  0
  196.2650  175.6660  140.2280 N   0  0  0  0  0  2  0  0  0  0  0  0
  195.9210  174.8320  139.1130 C   0  0  0  0  0  0  0  0  0  0  0  0
  194.1580  173.4420  140.3580 C   0  0  1  0  0  3  0  0  0  0  0  0
  196.0820  176.0870  143.8860 C   0  0  0  0  0  3  0  0  0  0  0  0
  195.0690  173.0670  141.5050 C   0  0  0  0  0  2  0  0  0  0  0  0
  196.0260  175.4600  141.6270 C   0  0  0  0  0  0  0  0  0  0  0  0
  195.4480  174.5260  143.8570 S   0  0  0  0  0  0  0  0  0  0  0  0
  194.9490  173.7820  139.1860 N   0  0  0  0  0  2  0  0  0  0  0  0
  195.5040  174.3050  142.1990 C   0  0  0  0  0  0  0  0  0  0  0  0
  192.4370  172.5810  138.8250 N   0  0  0  0  0  2  0  0  0  0  0  0
  193.5830  170.4880  138.3920 C   0  0  0  0  0  1  0  0  0  0  0  0
  192.9790  171.7340  137.7740 C   0  0  0  0  0  3  0  0  0  0  0  0
  191.8720  171.3300  136.8180 C   0  0  0  0  0  1  0  0  0  0  0  0
  1  5  1  0  0  0  0
  2 29  1  6  0  0  0
  2  1  1  0  0  0  0
  3  5  1  0  0  0  0
  3  7  2  0  0  0  0
  4  3  1  0  0  0  0
  5 18  1  6  0  0  0
  6  2  1  0  0  0  0
  6  4  1  0  0  0  0
  9 23  1  6  0  0  0
  9 14  1  0  0  0  0
 10 22  1  1  0  0  0
 12 17  2  0  0  0  0
 12 10  1  0  0  0  0
 13  9  1  0  0  0  0
 13 11  1  0  0  0  0
 14 26  1  1  0  0  0
 14 21  1  0  0  0  0
 15 11  2  0  0  0  0
 15 18  1  0  0  0  0
 16 10  1  0  0  0  0
 18 20  2  0  0  0  0
 19 11  1  6  0  0  0
 19 21  1  0  0  0  0
 19 12  1  0  0  0  0
 20 17  1  0  0  0  0
 21  8  1  1  0  0  0
 21 16  1  0  0  0  0
 24 23  1  0  0  0  0
 26 28  1  0  0  0  0
 26 25  1  1  0  0  0
 28 27  1  0  0  0  0
 29 41  1  6  0  0  0
 30 35  2  0  0  0  0
 31 33  2  0  0  0  0
 32 37  1  0  0  0  0
 33 39  1  0  0  0  0
 33 32  1  0  0  0  0
 34 29  1  6  0  0  0
 34 36  1  0  0  0  0
 36 40  1  0  0  0  0
 37 40  2  0  0  0  0
 37 30  1  0  0  0  0
 38 35  1  0  0  0  0
 39 34  1  0  0  0  0
 40 38  1  0  0  0  0
 43 42  1  0  0  0  0
 43 41  1  0  0  0  0
 44 43  1  0  0  0  0
M  END
>  <MODEL>
6

>  <REMARK>
 VINA RESULT:      -7.2      2.365      3.152
  Name = 
  8 active torsions:
  status: ('A' for Active; 'I' for Inactive)
    1  A    between atoms: C_3  and  O_10
    2  A    between atoms: C_9  and  C_38
    3  A    between atoms: C_11  and  C_38
    4  A    between atoms: C_20  and  C_34
    5  A    between atoms: C_22  and  C_32
    6  A    between atoms: C_23  and  C_32
    7  A    between atoms: C_28  and  N_37
    8  A    between atoms: N_37  and  C_38
                            x       y       z     vdW  Elec       q    Type
                         _______ _______ _______ _____ _____    ______ ____

>  <TORSDO>
F 8

$$$$
=
 OpenBabel11062422133D

 44 49  0  0  1  0  0  0  0  0999 V2000
  189.3020  174.5980  141.9390 C   0  0  0  0  0  2  0  0  0  0  0  0
  188.9130  174.6730  143.4140 C   0  0  1  0  0  3  0  0  0  0  0  0
  189.6210  172.1190  142.3060 C   0  0  0  0  0  0  0  0  0  0  0  0
  189.8270  172.4070  143.6920 N   0  0  0  0  0  2  0  0  0  0  0  0
  189.0900  173.1870  141.3810 C   0  0  2  0  0  3  0  0  0  0  0  0
  189.8680  173.7750  144.1990 C   0  0  0  0  0  2  0  0  0  0  0  0
  189.7860  170.9420  141.8880 O   0  0  0  0  0  0  0  0  0  0  0  0
  192.8770  170.1810  137.1310 O   0  0  0  0  0  1  0  0  0  0  0  0
  194.2520  172.7480  137.9110 C   0  0  1  0  0  3  0  0  0  0  0  0
  190.4060  172.2070  135.5670 C   0  0  1  0  0  3  0  0  0  0  0  0
  191.8860  172.9460  138.8200 C   0  0  0  0  0  0  0  0  0  0  0  0
  190.2340  172.4000  137.0280 C   0  0  0  0  0  0  0  0  0  0  0  0
  193.2880  173.4760  138.8480 C   0  0  0  0  0  2  0  0  0  0  0  0
  193.6110  172.4170  136.5570 C   0  0  2  0  0  3  0  0  0  0  0  0
  191.0930  173.3820  139.8000 C   0  0  0  0  0  3  0  0  0  0  0  0
  191.6330  171.3230  135.4510 C   0  0  0  0  0  2  0  0  0  0  0  0
  189.0680  172.7630  137.5630 C   0  0  0  0  0  3  0  0  0  0  0  0
  189.6580  173.0790  139.9980 C   0  0  0  0  0  0  0  0  0  0  0  0
  191.4030  171.9260  137.8100 C   0  0  1  0  0  3  0  0  0  0  0  0
  188.7840  172.8700  139.0040 C   0  0  0  0  0  3  0  0  0  0  0  0
  192.4220  171.4450  136.7550 C   0  0  1  0  0  0  0  0  0  0  0  0
  189.3090  171.5370  135.0220 O   0  0  0  0  0  1  0  0  0  0  0  0
  195.5030  173.4020  137.8180 O   0  0  0  0  0  0  0  0  0  0  0  0
  195.3250  174.7790  138.0350 C   0  0  0  0  0  1  0  0  0  0  0  0
  195.8150  171.4780  136.1360 O   0  0  0  0  0  1  0  0  0  0  0  0
  194.6690  171.9820  135.5170 C   0  0  2  0  0  3  0  0  0  0  0  0
  194.2170  174.1840  134.7040 O   0  0  0  0  0  1  0  0  0  0  0  0
  195.0330  173.0690  134.5140 C   0  0  0  0  0  2  0  0  0  0  0  0
  189.0150  176.1100  143.9360 C   0  0  2  0  0  3  0  0  0  0  0  0
  184.0670  178.2930  146.0140 C   0  0  0  0  0  3  0  0  0  0  0  0
  185.2640  177.9410  141.0940 S   0  0  0  0  0  0  0  0  0  0  0  0
  184.8600  177.9870  143.6980 N   0  0  0  0  0  2  0  0  0  0  0  0
  185.7700  177.6990  142.6270 C   0  0  0  0  0  0  0  0  0  0  0  0
  187.6240  176.7260  144.1140 C   0  0  1  0  0  3  0  0  0  0  0  0
  184.4800  178.4160  147.3390 C   0  0  0  0  0  3  0  0  0  0  0  0
  187.6880  177.9180  145.0430 C   0  0  0  0  0  2  0  0  0  0  0  0
  185.1150  178.1050  145.1030 C   0  0  0  0  0  0  0  0  0  0  0  0
  186.1600  178.2950  147.3510 S   0  0  0  0  0  0  0  0  0  0  0  0
  187.0680  177.1270  142.8310 N   0  0  0  0  0  2  0  0  0  0  0  0
  186.3700  178.0840  145.7040 C   0  0  0  0  0  0  0  0  0  0  0  0
  189.8310  176.9360  143.0460 N   0  0  0  0  0  2  0  0  0  0  0  0
  192.2390  176.6660  143.1250 C   0  0  0  0  0  1  0  0  0  0  0  0
  191.0310  177.3070  143.7780 C   0  0  0  0  0  3  0  0  0  0  0  0
  191.1960  178.8160  143.7610 C   0  0  0  0  0  1  0  0  0  0  0  0
  1  2  1  0  0  0  0
  2 29  1  1  0  0  0
  2  6  1  0  0  0  0
  3  4  1  0  0  0  0
  4  6  1  0  0  0  0
  5 18  1  6  0  0  0
  5  1  1  0  0  0  0
  5  3  1  0  0  0  0
  7  3  2  0  0  0  0
  9 23  1  6  0  0  0
  9 13  1  0  0  0  0
 10 22  1  1  0  0  0
 10 12  1  0  0  0  0
 11 13  1  0  0  0  0
 11 15  2  0  0  0  0
 12 17  2  0  0  0  0
 14 26  1  6  0  0  0
 14 21  1  0  0  0  0
 14  9  1  0  0  0  0
 15 18  1  0  0  0  0
 16 10  1  0  0  0  0
 16 21  1  0  0  0  0
 17 20  1  0  0  0  0
 19 12  1  6  0  0  0
 19 11  1  0  0  0  0
 20 18  2  0  0  0  0
 21  8  1  1  0  0  0
 21 19  1  0  0  0  0
 23 24  1  0  0  0  0
 26 25  1  1  0  0  0
 28 27  1  0  0  0  0
 28 26  1  0  0  0  0
 29 41  1  6  0  0  0
 30 35  2  0  0  0  0
 31 33  2  0  0  0  0
 32 37  1  0  0  0  0
 33 39  1  0  0  0  0
 33 32  1  0  0  0  0
 34 29  1  6  0  0  0
 34 36  1  0  0  0  0
 35 38  1  0  0  0  0
 36 40  1  0  0  0  0
 37 40  2  0  0  0  0
 37 30  1  0  0  0  0
 39 34  1  0  0  0  0
 40 38  1  0  0  0  0
 41 43  1  0  0  0  0
 42 43  1  0  0  0  0
 44 43  1  0  0  0  0
M  END
>  <MODEL>
7

>  <REMARK>
 VINA RESULT:      -7.2      5.572      9.625
  Name = 
  8 active torsions:
  status: ('A' for Active; 'I' for Inactive)
    1  A    between atoms: C_3  and  O_10
    2  A    between atoms: C_9  and  C_38
    3  A    between atoms: C_11  and  C_38
    4  A    between atoms: C_20  and  C_34
    5  A    between atoms: C_22  and  C_32
    6  A    between atoms: C_23  and  C_32
    7  A    between atoms: C_28  and  N_37
    8  A    between atoms: N_37  and  C_38
                            x       y       z     vdW  Elec       q    Type
                         _______ _______ _______ _____ _____    ______ ____

>  <TORSDO>
F 8

$$$$
=
 OpenBabel11062422133D

 44 49  0  0  1  0  0  0  0  0999 V2000
  192.2460  172.9880  141.8850 C   0  0  0  0  0  2  0  0  0  0  0  0
  193.4530  172.2930  141.2560 C   0  0  1  0  0  3  0  0  0  0  0  0
  191.4260  173.3650  139.5250 C   0  0  0  0  0  0  0  0  0  0  0  0
  192.7860  173.2590  139.0940 N   0  0  0  0  0  2  0  0  0  0  0  0
  191.0450  172.9790  140.9340 C   0  0  2  0  0  3  0  0  0  0  0  0
  193.8870  173.1130  140.0420 C   0  0  0  0  0  2  0  0  0  0  0  0
  190.5370  173.6810  138.6910 O   0  0  0  0  0  0  0  0  0  0  0  0
  189.0950  178.2860  144.0110 O   0  0  0  0  0  1  0  0  0  0  0  0
  188.7700  175.9670  145.9110 C   0  0  1  0  0  3  0  0  0  0  0  0
  186.5090  176.8040  142.0670 C   0  0  1  0  0  3  0  0  0  0  0  0
  189.2120  174.9200  143.6360 C   0  0  0  0  0  0  0  0  0  0  0  0
  187.6910  175.9200  141.9250 C   0  0  0  0  0  0  0  0  0  0  0  0
  189.1550  174.7170  145.1210 C   0  0  0  0  0  2  0  0  0  0  0  0
  187.6520  176.7670  145.2280 C   0  0  2  0  0  3  0  0  0  0  0  0
  189.7890  173.9330  142.9480 C   0  0  0  0  0  3  0  0  0  0  0  0
  186.9490  177.8540  143.0700 C   0  0  0  0  0  2  0  0  0  0  0  0
  187.8660  175.1340  140.8620 C   0  0  0  0  0  3  0  0  0  0  0  0
  189.9380  173.8290  141.4790 C   0  0  0  0  0  0  0  0  0  0  0  0
  188.7310  176.1830  142.9520 C   0  0  1  0  0  3  0  0  0  0  0  0
  189.0570  174.3110  140.5920 C   0  0  0  0  0  3  0  0  0  0  0  0
  188.1350  177.2860  143.8510 C   0  0  1  0  0  0  0  0  0  0  0  0
  186.2090  177.4300  140.8560 O   0  0  0  0  0  1  0  0  0  0  0  0
  188.5310  175.6850  147.2770 O   0  0  0  0  0  0  0  0  0  0  0  0
  189.0510  174.4170  147.5860 C   0  0  0  0  0  1  0  0  0  0  0  0
  187.9190  178.1170  147.2330 O   0  0  0  0  0  1  0  0  0  0  0  0
  187.0530  177.8310  146.1760 C   0  0  2  0  0  3  0  0  0  0  0  0
  185.1200  176.4450  145.9410 O   0  0  0  0  0  1  0  0  0  0  0  0
  185.6640  177.4840  146.6960 C   0  0  0  0  0  2  0  0  0  0  0  0
  194.6130  172.2010  142.2540 C   0  0  2  0  0  3  0  0  0  0  0  0
  193.8890  176.7330  145.7900 C   0  0  0  0  0  3  0  0  0  0  0  0
  197.9410  175.9540  142.8340 S   0  0  0  0  0  0  0  0  0  0  0  0
  195.7270  176.1530  144.2500 N   0  0  0  0  0  2  0  0  0  0  0  0
  196.5080  175.3600  143.3450 C   0  0  0  0  0  0  0  0  0  0  0  0
  194.7580  173.5050  143.0430 C   0  0  1  0  0  3  0  0  0  0  0  0
  192.8220  176.2110  146.5180 C   0  0  0  0  0  3  0  0  0  0  0  0
  194.5760  173.2520  144.5230 C   0  0  0  0  0  2  0  0  0  0  0  0
  194.5870  175.7810  145.0350 C   0  0  0  0  0  0  0  0  0  0  0  0
  192.7720  174.5550  146.2110 S   0  0  0  0  0  0  0  0  0  0  0  0
  196.0570  174.1140  142.8000 N   0  0  0  0  0  2  0  0  0  0  0  0
  194.0770  174.4930  145.1660 C   0  0  0  0  0  0  0  0  0  0  0  0
  195.8650  171.8700  141.5760 N   0  0  0  0  0  2  0  0  0  0  0  0
  197.4570  170.0660  141.2730 C   0  0  0  0  0  1  0  0  0  0  0  0
  196.0360  170.4280  141.6590 C   0  0  0  0  0  3  0  0  0  0  0  0
  195.7690  169.9610  143.0770 C   0  0  0  0  0  1  0  0  0  0  0  0
  2  1  1  0  0  0  0
  2 29  1  1  0  0  0
  3  5  1  0  0  0  0
  4  3  1  0  0  0  0
  4  6  1  0  0  0  0
  5 18  1  1  0  0  0
  5  1  1  0  0  0  0
  6  2  1  0  0  0  0
  7  3  2  0  0  0  0
  9 23  1  1  0  0  0
 10 22  1  6  0  0  0
 10 16  1  0  0  0  0
 11 13  1  0  0  0  0
 12 10  1  0  0  0  0
 13  9  1  0  0  0  0
 14  9  1  0  0  0  0
 14 26  1  1  0  0  0
 15 11  2  0  0  0  0
 16 21  1  0  0  0  0
 17 12  2  0  0  0  0
 18 15  1  0  0  0  0
 19 12  1  6  0  0  0
 19 11  1  0  0  0  0
 19 21  1  0  0  0  0
 20 17  1  0  0  0  0
 20 18  2  0  0  0  0
 21  8  1  1  0  0  0
 21 14  1  0  0  0  0
 23 24  1  0  0  0  0
 26 28  1  0  0  0  0
 26 25  1  1  0  0  0
 27 28  1  0  0  0  0
 29 41  1  6  0  0  0
 30 35  2  0  0  0  0
 31 33  2  0  0  0  0
 32 37  1  0  0  0  0
 33 32  1  0  0  0  0
 34 29  1  6  0  0  0
 34 36  1  0  0  0  0
 36 40  1  0  0  0  0
 37 40  2  0  0  0  0
 37 30  1  0  0  0  0
 38 35  1  0  0  0  0
 39 34  1  0  0  0  0
 39 33  1  0  0  0  0
 40 38  1  0  0  0  0
 41 43  1  0  0  0  0
 42 43  1  0  0  0  0
 43 44  1  0  0  0  0
M  END
>  <MODEL>
8

>  <REMARK>
 VINA RESULT:      -7.1      2.149      3.707
  Name = 
  8 active torsions:
  status: ('A' for Active; 'I' for Inactive)
    1  A    between atoms: C_3  and  O_10
    2  A    between atoms: C_9  and  C_38
    3  A    between atoms: C_11  and  C_38
    4  A    between atoms: C_20  and  C_34
    5  A    between atoms: C_22  and  C_32
    6  A    between atoms: C_23  and  C_32
    7  A    between atoms: C_28  and  N_37
    8  A    between atoms: N_37  and  C_38
                            x       y       z     vdW  Elec       q    Type
                         _______ _______ _______ _____ _____    ______ ____

>  <TORSDO>
F 8

$$$$
=
 OpenBabel11062422133D

 44 49  0  0  1  0  0  0  0  0999 V2000
  191.1670  173.4330  139.0430 C   0  0  0  0  0  2  0  0  0  0  0  0
  192.0700  172.5270  138.2050 C   0  0  1  0  0  3  0  0  0  0  0  0
  190.7970  171.4290  140.5340 C   0  0  0  0  0  0  0  0  0  0  0  0
  191.1310  170.6030  139.4150 N   0  0  0  0  0  2  0  0  0  0  0  0
  191.0440  172.9160  140.4790 C   0  0  2  0  0  3  0  0  0  0  0  0
  191.3920  171.1630  138.0930 C   0  0  0  0  0  2  0  0  0  0  0  0
  190.3940  170.8910  141.6000 O   0  0  0  0  0  0  0  0  0  0  0  0
  189.4220  177.9990  144.0800 O   0  0  0  0  0  1  0  0  0  0  0  0
  189.4720  175.5870  145.8890 C   0  0  1  0  0  3  0  0  0  0  0  0
  186.6160  176.5010  142.4850 C   0  0  1  0  0  3  0  0  0  0  0  0
  189.5910  174.6600  143.5240 C   0  0  0  0  0  0  0  0  0  0  0  0
  187.7900  175.6720  142.1190 C   0  0  0  0  0  0  0  0  0  0  0  0
  189.7710  174.3900  144.9880 C   0  0  0  0  0  2  0  0  0  0  0  0
  188.2360  176.3710  145.4270 C   0  0  2  0  0  3  0  0  0  0  0  0
  190.0860  173.7290  142.7080 C   0  0  0  0  0  3  0  0  0  0  0  0
  187.1710  177.5230  143.4590 C   0  0  0  0  0  2  0  0  0  0  0  0
  187.8240  174.9420  141.0040 C   0  0  0  0  0  3  0  0  0  0  0  0
  190.0080  173.6960  141.2300 C   0  0  0  0  0  0  0  0  0  0  0  0
  188.9670  175.9320  142.9860 C   0  0  1  0  0  3  0  0  0  0  0  0
  188.9840  174.1800  140.5140 C   0  0  0  0  0  3  0  0  0  0  0  0
  188.4820  176.9700  144.0200 C   0  0  1  0  0  0  0  0  0  0  0  0
  186.1100  177.1670  141.3670 O   0  0  0  0  0  1  0  0  0  0  0  0
  189.4580  175.2360  147.2600 O   0  0  0  0  0  0  0  0  0  0  0  0
  190.7670  175.2910  147.7660 C   0  0  0  0  0  1  0  0  0  0  0  0
  188.8260  177.8600  147.2580 O   0  0  0  0  0  1  0  0  0  0  0  0
  187.7560  177.3670  146.5080 C   0  0  2  0  0  3  0  0  0  0  0  0
  185.4240  176.9400  146.8020 O   0  0  0  0  0  1  0  0  0  0  0  0
  186.6680  176.8150  147.4190 C   0  0  0  0  0  2  0  0  0  0  0  0
  192.2840  173.1110  136.8050 C   0  0  2  0  0  3  0  0  0  0  0  0
  196.7910  176.4530  135.3610 C   0  0  0  0  0  3  0  0  0  0  0  0
  196.7730  173.0370  139.1140 S   0  0  0  0  0  0  0  0  0  0  0  0
  196.5470  174.7190  137.0980 N   0  0  0  0  0  2  0  0  0  0  0  0
  195.8930  173.7650  137.9470 C   0  0  0  0  0  0  0  0  0  0  0  0
  193.6470  173.8000  136.7030 C   0  0  1  0  0  3  0  0  0  0  0  0
  196.0880  177.3440  134.5510 C   0  0  0  0  0  3  0  0  0  0  0  0
  193.4870  175.3030  136.7610 C   0  0  0  0  0  2  0  0  0  0  0  0
  195.9760  175.6670  136.1870 C   0  0  0  0  0  0  0  0  0  0  0  0
  194.4510  177.1390  134.8880 S   0  0  0  0  0  0  0  0  0  0  0  0
  194.5320  173.3550  137.7680 N   0  0  0  0  0  2  0  0  0  0  0  0
  194.6200  175.9360  136.0390 C   0  0  0  0  0  0  0  0  0  0  0  0
  191.2120  174.0420  136.4530 N   0  0  0  0  0  2  0  0  0  0  0  0
  189.8790  172.5020  135.1370 C   0  0  0  0  0  1  0  0  0  0  0  0
  190.7820  173.7190  135.1020 C   0  0  0  0  0  3  0  0  0  0  0  0
  190.0180  174.8910  134.5130 C   0  0  0  0  0  1  0  0  0  0  0  0
  1  5  1  0  0  0  0
  2 29  1  6  0  0  0
  2  1  1  0  0  0  0
  3  7  2  0  0  0  0
  4  3  1  0  0  0  0
  5  3  1  0  0  0  0
  5 18  1  6  0  0  0
  6  2  1  0  0  0  0
  6  4  1  0  0  0  0
  9 23  1  1  0  0  0
 10 22  1  6  0  0  0
 10 16  1  0  0  0  0
 11 13  1  0  0  0  0
 12 10  1  0  0  0  0
 13  9  1  0  0  0  0
 14  9  1  0  0  0  0
 14 26  1  1  0  0  0
 15 11  2  0  0  0  0
 16 21  1  0  0  0  0
 17 12  2  0  0  0  0
 18 15  1  0  0  0  0
 19 12  1  1  0  0  0
 19 11  1  0  0  0  0
 19 21  1  0  0  0  0
 20 17  1  0  0  0  0
 20 18  2  0  0  0  0
 21  8  1  1  0  0  0
 21 14  1  0  0  0  0
 23 24  1  0  0  0  0
 26 25  1  1  0  0  0
 26 28  1  0  0  0  0
 27 28  1  0  0  0  0
 29 41  1  1  0  0  0
 30 37  1  0  0  0  0
 32 33  1  0  0  0  0
 33 31  2  0  0  0  0
 34 36  1  0  0  0  0
 34 29  1  1  0  0  0
 34 39  1  0  0  0  0
 35 38  1  0  0  0  0
 35 30  2  0  0  0  0
 37 32  1  0  0  0  0
 38 40  1  0  0  0  0
 39 33  1  0  0  0  0
 40 37  2  0  0  0  0
 40 36  1  0  0  0  0
 43 42  1  0  0  0  0
 43 41  1  0  0  0  0
 44 43  1  0  0  0  0
M  END
>  <MODEL>
9

>  <REMARK>
 VINA RESULT:      -7.1      4.471      6.622
  Name = 
  8 active torsions:
  status: ('A' for Active; 'I' for Inactive)
    1  A    between atoms: C_3  and  O_10
    2  A    between atoms: C_9  and  C_38
    3  A    between atoms: C_11  and  C_38
    4  A    between atoms: C_20  and  C_34
    5  A    between atoms: C_22  and  C_32
    6  A    between atoms: C_23  and  C_32
    7  A    between atoms: C_28  and  N_37
    8  A    between atoms: N_37  and  C_38
                            x       y       z     vdW  Elec       q    Type
                         _______ _______ _______ _____ _____    ______ ____

>  <TORSDO>
F 8

$$$$
