=
 OpenBabel11072408443D

 36 40  0  0  1  0  0  0  0  0999 V2000
  192.3070  175.2460  146.8530 C   0  0  0  0  0  2  0  0  0  0  0  0
  188.5390  176.9730  146.7680 C   0  0  0  0  0  2  0  0  0  0  0  0
  187.6420  176.1010  144.1090 O   0  0  0  0  0  0  0  0  0  0  0  0
  193.9160  174.8020  144.4910 C   0  0  0  0  0  3  0  0  0  0  0  0
  191.8450  175.7030  145.4910 C   0  0  0  0  0  0  0  0  0  0  0  0
  191.0240  176.8150  143.0010 O   0  0  0  0  0  0  0  0  0  0  0  0
  194.4470  174.0270  141.0350 O   0  0  0  0  0  0  0  0  0  0  0  0
  192.5260  175.1660  141.8960 C   0  0  2  0  0  3  0  0  0  0  0  0
  189.4090  175.8240  146.2890 C   0  0  1  0  0  3  0  0  0  0  0  0
  192.6450  175.5480  144.4230 C   0  0  0  0  0  0  0  0  0  0  0  0
  190.4810  176.3470  145.3020 C   0  0  2  0  0  3  0  0  0  0  0  0
  191.2860  175.5590  147.9360 C   0  0  0  0  0  2  0  0  0  0  0  0
  186.8930  177.0100  144.8760 C   0  0  2  0  0  3  0  0  0  0  0  0
  187.0930  176.7380  146.3610 C   0  0  0  0  0  2  0  0  0  0  0  0
  190.0460  176.2110  143.8220 C   0  0  1  0  0  3  0  0  0  0  0  0
  193.8670  174.4960  142.0510 C   0  0  0  0  0  0  0  0  0  0  0  0
  194.4930  174.3330  143.3800 C   0  0  0  0  0  3  0  0  0  0  0  0
  192.2520  176.1130  143.0750 C   0  0  2  0  0  3  0  0  0  0  0  0
  188.6750  176.8580  143.5360 C   0  0  1  0  0  3  0  0  0  0  0  0
  189.9330  175.0310  147.4890 C   0  0  0  0  0  2  0  0  0  0  0  0
  185.3910  176.9610  144.5540 C   0  0  1  0  0  3  0  0  0  0  0  0
  184.7190  178.0360  145.1720 O   0  0  0  0  0  0  0  0  0  0  0  0
  184.9180  178.1360  143.7780 C   0  0  0  0  0  2  0  0  0  0  0  0
  188.4260  177.0190  142.0620 C   0  0  0  0  0  0  0  0  0  0  0  0
  188.5740  178.2690  141.4780 O   0  0  0  0  0  1  0  0  0  0  0  0
  188.0830  175.9850  141.3020 C   0  0  0  0  0  2  0  0  0  0  0  0
  191.4290  174.1580  141.6860 C   0  0  0  0  0  0  0  0  0  0  0  0
  190.9180  174.0120  140.5420 O   0  0  0  0  0  0  0  0  0  0  0  0
  190.9570  173.3790  142.7500 O   0  0  0  0  0  0  0  0  0  0  0  0
  191.2950  172.0050  142.9200 C   0  0  0  0  0  2  0  0  0  0  0  0
  191.8670  171.7660  144.3100 C   0  0  0  0  0  2  0  0  0  0  0  0
  194.0850  171.0800  145.1060 C   0  0  0  0  0  0  0  0  0  0  0  0
  195.2190  170.3440  145.0010 F   0  0  0  0  0  0  0  0  0  0  0  0
  193.0990  170.9290  144.2220 C   0  0  0  0  0  0  0  0  0  0  0  0
  193.9850  171.9950  146.1090 F   0  0  0  0  0  0  0  0  0  0  0  0
  193.2350  170.0000  143.1480 N   0  0  0  0  0  1  0  0  0  0  0  0
  1 12  1  0  0  0  0
  3 13  1  0  0  0  0
  5  1  1  0  0  0  0
  7 16  2  0  0  0  0
  8 27  1  1  0  0  0
  8 16  1  0  0  0  0
  8 18  1  0  0  0  0
  9  2  1  1  0  0  0
  9 20  1  0  0  0  0
 10  4  1  0  0  0  0
 10  5  2  0  0  0  0
 11  5  1  6  0  0  0
 11  9  1  0  0  0  0
 13 14  1  1  0  0  0
 14  2  1  0  0  0  0
 15  6  1  6  0  0  0
 15 11  1  0  0  0  0
 16 17  1  0  0  0  0
 17  4  2  0  0  0  0
 18  6  1  1  0  0  0
 18 10  1  0  0  0  0
 19 24  1  6  0  0  0
 19 15  1  0  0  0  0
 19  3  1  0  0  0  0
 20 12  1  0  0  0  0
 21 23  1  6  0  0  0
 21 13  1  0  0  0  0
 21 22  1  0  0  0  0
 23 22  1  0  0  0  0
 25 24  1  0  0  0  0
 26 24  2  0  0  0  0
 27 29  1  0  0  0  0
 28 27  2  0  0  0  0
 29 30  1  0  0  0  0
 30 31  1  0  0  0  0
 32 35  1  0  0  0  0
 33 32  1  0  0  0  0
 34 31  1  0  0  0  0
 34 32  2  0  0  0  0
 36 34  1  0  0  0  0
M  END
>  <MODEL>
1

>  <REMARK>
 VINA RESULT:      -7.2      0.000      0.000
  Name = 
  7 active torsions:
  status: ('A' for Active; 'I' for Inactive)
    1  A    between atoms: C_1  and  C_21
    2  A    between atoms: C_2  and  C_24
    3  A    between atoms: C_2  and  C_36
    4  A    between atoms: O_7  and  C_23
    5  A    between atoms: O_7  and  C_36
    6  A    between atoms: C_14  and  C_34
    7  A    between atoms: C_15  and  C_23
                            x       y       z     vdW  Elec       q    Type
                         _______ _______ _______ _____ _____    ______ ____

>  <TORSDO>
F 7

$$$$
=
 OpenBabel11072408443D

 36 40  0  0  1  0  0  0  0  0999 V2000
  192.6680  176.0790  146.9630 C   0  0  0  0  0  2  0  0  0  0  0  0
  188.7450  177.4160  146.8790 C   0  0  0  0  0  2  0  0  0  0  0  0
  187.8690  176.2590  144.3240 O   0  0  0  0  0  0  0  0  0  0  0  0
  194.2500  175.6150  144.5870 C   0  0  0  0  0  3  0  0  0  0  0  0
  192.1260  176.3820  145.5870 C   0  0  0  0  0  0  0  0  0  0  0  0
  191.1320  177.2140  143.0520 O   0  0  0  0  0  0  0  0  0  0  0  0
  194.7640  174.6330  141.1810 O   0  0  0  0  0  0  0  0  0  0  0  0
  192.7610  175.6410  142.0210 C   0  0  2  0  0  3  0  0  0  0  0  0
  189.7120  176.3240  146.4570 C   0  0  1  0  0  3  0  0  0  0  0  0
  192.9090  176.2260  144.5070 C   0  0  0  0  0  0  0  0  0  0  0  0
  190.7000  176.8730  145.3990 C   0  0  2  0  0  3  0  0  0  0  0  0
  191.6490  176.3720  148.0540 C   0  0  0  0  0  2  0  0  0  0  0  0
  187.0530  177.1460  145.0470 C   0  0  2  0  0  3  0  0  0  0  0  0
  187.3200  177.0100  146.5410 C   0  0  0  0  0  2  0  0  0  0  0  0
  190.2410  176.5820  143.9480 C   0  0  1  0  0  3  0  0  0  0  0  0
  194.1670  175.1190  142.1790 C   0  0  0  0  0  0  0  0  0  0  0  0
  194.8420  175.1210  143.4940 C   0  0  0  0  0  3  0  0  0  0  0  0
  192.4250  176.6440  143.1360 C   0  0  2  0  0  3  0  0  0  0  0  0
  188.8050  177.0670  143.6620 C   0  0  1  0  0  3  0  0  0  0  0  0
  190.3450  175.6820  147.6940 C   0  0  0  0  0  2  0  0  0  0  0  0
  185.5560  176.9250  144.7810 C   0  0  1  0  0  3  0  0  0  0  0  0
  184.7930  177.9500  145.3770 O   0  0  0  0  0  0  0  0  0  0  0  0
  184.9370  178.0080  143.9740 C   0  0  0  0  0  2  0  0  0  0  0  0
  188.5020  177.0890  142.1890 C   0  0  0  0  0  0  0  0  0  0  0  0
  188.5820  178.2880  141.4950 O   0  0  0  0  0  1  0  0  0  0  0  0
  188.1750  175.9810  141.5340 C   0  0  0  0  0  2  0  0  0  0  0  0
  191.7660  174.5170  141.9230 C   0  0  0  0  0  0  0  0  0  0  0  0
  191.6080  173.7300  142.8960 O   0  0  0  0  0  0  0  0  0  0  0  0
  191.0140  174.3230  140.7580 O   0  0  0  0  0  0  0  0  0  0  0  0
  191.2100  173.2190  139.8790 C   0  0  0  0  0  2  0  0  0  0  0  0
  190.3830  172.0240  140.3330 C   0  0  0  0  0  2  0  0  0  0  0  0
  188.4330  172.3360  141.7900 C   0  0  0  0  0  0  0  0  0  0  0  0
  187.1360  172.6770  141.9970 F   0  0  0  0  0  0  0  0  0  0  0  0
  188.9700  172.4380  140.5740 C   0  0  0  0  0  0  0  0  0  0  0  0
  189.1630  171.8600  142.8350 F   0  0  0  0  0  0  0  0  0  0  0  0
  188.1810  172.8940  139.4770 N   0  0  0  0  0  1  0  0  0  0  0  0
  1 12  1  0  0  0  0
  3 13  1  0  0  0  0
  5  1  1  0  0  0  0
  7 16  2  0  0  0  0
  8 27  1  1  0  0  0
  8 16  1  0  0  0  0
  8 18  1  0  0  0  0
  9  2  1  1  0  0  0
  9 20  1  0  0  0  0
 10  4  1  0  0  0  0
 10  5  2  0  0  0  0
 11  5  1  1  0  0  0
 11  9  1  0  0  0  0
 13 14  1  1  0  0  0
 14  2  1  0  0  0  0
 15  6  1  6  0  0  0
 15 11  1  0  0  0  0
 16 17  1  0  0  0  0
 17  4  2  0  0  0  0
 18  6  1  1  0  0  0
 18 10  1  0  0  0  0
 19 24  1  6  0  0  0
 19 15  1  0  0  0  0
 19  3  1  0  0  0  0
 20 12  1  0  0  0  0
 21 23  1  6  0  0  0
 21 13  1  0  0  0  0
 21 22  1  0  0  0  0
 23 22  1  0  0  0  0
 25 24  1  0  0  0  0
 26 24  2  0  0  0  0
 27 28  2  0  0  0  0
 29 27  1  0  0  0  0
 30 31  1  0  0  0  0
 30 29  1  0  0  0  0
 31 34  1  0  0  0  0
 32 33  1  0  0  0  0
 32 35  1  0  0  0  0
 34 32  2  0  0  0  0
 36 34  1  0  0  0  0
M  END
>  <MODEL>
2

>  <REMARK>
 VINA RESULT:      -7.0      2.326      2.823
  Name = 
  7 active torsions:
  status: ('A' for Active; 'I' for Inactive)
    1  A    between atoms: C_1  and  C_21
    2  A    between atoms: C_2  and  C_24
    3  A    between atoms: C_2  and  C_36
    4  A    between atoms: O_7  and  C_23
    5  A    between atoms: O_7  and  C_36
    6  A    between atoms: C_14  and  C_34
    7  A    between atoms: C_15  and  C_23
                            x       y       z     vdW  Elec       q    Type
                         _______ _______ _______ _____ _____    ______ ____

>  <TORSDO>
F 7

$$$$
=
 OpenBabel11072408443D

 36 40  0  0  1  0  0  0  0  0999 V2000
  187.4000  177.9900  148.0710 C   0  0  0  0  0  2  0  0  0  0  0  0
  184.9030  179.0640  144.9410 C   0  0  0  0  0  2  0  0  0  0  0  0
  185.8760  177.2260  142.8640 O   0  0  0  0  0  0  0  0  0  0  0  0
  190.0880  176.9870  147.7010 C   0  0  0  0  0  3  0  0  0  0  0  0
  188.0190  177.8890  146.6980 C   0  0  0  0  0  0  0  0  0  0  0  0
  189.2040  177.9650  144.1100 O   0  0  0  0  0  0  0  0  0  0  0  0
  192.6550  175.1600  145.9990 O   0  0  0  0  0  0  0  0  0  0  0  0
  190.8200  176.2560  144.9210 C   0  0  2  0  0  3  0  0  0  0  0  0
  185.7070  177.9470  145.5840 C   0  0  1  0  0  3  0  0  0  0  0  0
  189.2940  177.4890  146.5630 C   0  0  0  0  0  0  0  0  0  0  0  0
  187.2210  178.2410  145.4530 C   0  0  2  0  0  3  0  0  0  0  0  0
  185.9730  178.5130  148.0160 C   0  0  0  0  0  2  0  0  0  0  0  0
  184.9380  178.2330  142.5740 C   0  0  2  0  0  3  0  0  0  0  0  0
  184.0710  178.5120  143.7940 C   0  0  0  0  0  2  0  0  0  0  0  0
  187.8570  177.5530  144.2200 C   0  0  1  0  0  3  0  0  0  0  0  0
  191.6200  175.8650  146.1380 C   0  0  0  0  0  0  0  0  0  0  0  0
  191.1840  176.2500  147.4970 C   0  0  0  0  0  3  0  0  0  0  0  0
  189.9680  177.5020  145.2080 C   0  0  2  0  0  3  0  0  0  0  0  0
  187.1190  177.8730  142.9040 C   0  0  1  0  0  3  0  0  0  0  0  0
  185.1960  177.6890  147.0050 C   0  0  0  0  0  2  0  0  0  0  0  0
  184.0340  177.8760  141.3840 C   0  0  1  0  0  3  0  0  0  0  0  0
  183.6380  179.0430  140.6990 O   0  0  0  0  0  0  0  0  0  0  0  0
  184.6190  178.2460  140.0700 C   0  0  0  0  0  2  0  0  0  0  0  0
  187.9290  177.4870  141.6970 C   0  0  0  0  0  0  0  0  0  0  0  0
  188.9160  178.3470  141.2350 O   0  0  0  0  0  1  0  0  0  0  0  0
  187.7320  176.3310  141.0730 C   0  0  0  0  0  2  0  0  0  0  0  0
  190.0110  175.0990  144.4000 C   0  0  0  0  0  0  0  0  0  0  0  0
  189.3040  174.4180  145.1920 O   0  0  0  0  0  0  0  0  0  0  0  0
  190.0390  174.7580  143.0420 O   0  0  0  0  0  0  0  0  0  0  0  0
  190.9510  173.8100  142.4950 C   0  0  0  0  0  2  0  0  0  0  0  0
  190.2360  172.5040  142.1810 C   0  0  0  0  0  2  0  0  0  0  0  0
  188.3420  172.6850  140.6310 C   0  0  0  0  0  0  0  0  0  0  0  0
  187.8160  172.6900  139.3810 F   0  0  0  0  0  0  0  0  0  0  0  0
  189.6570  172.5510  140.8070 C   0  0  0  0  0  0  0  0  0  0  0  0
  187.5050  172.7880  141.6990 F   0  0  0  0  0  0  0  0  0  0  0  0
  190.5190  172.3980  139.6820 N   0  0  0  0  0  1  0  0  0  0  0  0
  3 19  1  0  0  0  0
  5  1  1  0  0  0  0
  7 16  2  0  0  0  0
  8 27  1  1  0  0  0
  8 18  1  0  0  0  0
  8 16  1  0  0  0  0
  9  2  1  1  0  0  0
  9 20  1  0  0  0  0
 10  5  2  0  0  0  0
 10  4  1  0  0  0  0
 11  9  1  0  0  0  0
 11  5  1  1  0  0  0
 12  1  1  0  0  0  0
 13  3  1  0  0  0  0
 13 14  1  1  0  0  0
 14  2  1  0  0  0  0
 15  6  1  6  0  0  0
 15 11  1  0  0  0  0
 16 17  1  0  0  0  0
 17  4  2  0  0  0  0
 18  6  1  6  0  0  0
 18 10  1  0  0  0  0
 19 24  1  6  0  0  0
 19 15  1  0  0  0  0
 20 12  1  0  0  0  0
 21 23  1  6  0  0  0
 21 13  1  0  0  0  0
 22 21  1  0  0  0  0
 23 22  1  0  0  0  0
 25 24  1  0  0  0  0
 26 24  2  0  0  0  0
 27 28  2  0  0  0  0
 29 27  1  0  0  0  0
 30 29  1  0  0  0  0
 31 30  1  0  0  0  0
 32 34  2  0  0  0  0
 32 35  1  0  0  0  0
 33 32  1  0  0  0  0
 34 31  1  0  0  0  0
 36 34  1  0  0  0  0
M  END
>  <MODEL>
3

>  <REMARK>
 VINA RESULT:      -7.0      3.041      4.548
  Name = 
  7 active torsions:
  status: ('A' for Active; 'I' for Inactive)
    1  A    between atoms: C_1  and  C_21
    2  A    between atoms: C_2  and  C_24
    3  A    between atoms: C_2  and  C_36
    4  A    between atoms: O_7  and  C_23
    5  A    between atoms: O_7  and  C_36
    6  A    between atoms: C_14  and  C_34
    7  A    between atoms: C_15  and  C_23
                            x       y       z     vdW  Elec       q    Type
                         _______ _______ _______ _____ _____    ______ ____

>  <TORSDO>
F 7

$$$$
=
 OpenBabel11072408443D

 36 40  0  0  1  0  0  0  0  0999 V2000
  193.7120  175.2030  146.0740 C   0  0  0  0  0  2  0  0  0  0  0  0
  193.6620  173.0250  142.5470 C   0  0  0  0  0  2  0  0  0  0  0  0
  191.3680  174.2810  141.2070 O   0  0  0  0  0  0  0  0  0  0  0  0
  191.3420  176.3310  147.2900 C   0  0  0  0  0  3  0  0  0  0  0  0
  192.3400  174.9700  145.4870 C   0  0  0  0  0  0  0  0  0  0  0  0
  189.7730  174.2790  144.4680 O   0  0  0  0  0  0  0  0  0  0  0  0
  188.0990  177.8500  147.2600 O   0  0  0  0  0  0  0  0  0  0  0  0
  188.8950  176.3070  145.6120 C   0  0  2  0  0  3  0  0  0  0  0  0
  193.3520  174.3560  143.2090 C   0  0  1  0  0  3  0  0  0  0  0  0
  191.2520  175.4450  146.1140 C   0  0  0  0  0  0  0  0  0  0  0  0
  192.1660  174.1950  144.1910 C   0  0  2  0  0  3  0  0  0  0  0  0
  194.8040  174.5410  145.2490 C   0  0  0  0  0  2  0  0  0  0  0  0
  191.9960  173.1420  140.6750 C   0  0  2  0  0  3  0  0  0  0  0  0
  193.4740  173.1350  141.0420 C   0  0  0  0  0  2  0  0  0  0  0  0
  190.8060  174.5640  143.5470 C   0  0  1  0  0  3  0  0  0  0  0  0
  189.0460  177.1110  146.8790 C   0  0  0  0  0  0  0  0  0  0  0  0
  190.3030  177.0880  147.6560 C   0  0  0  0  0  3  0  0  0  0  0  0
  189.8640  175.1140  145.6080 C   0  0  2  0  0  3  0  0  0  0  0  0
  190.5360  173.8050  142.2320 C   0  0  1  0  0  3  0  0  0  0  0  0
  194.6320  174.9550  143.7980 C   0  0  0  0  0  2  0  0  0  0  0  0
  191.8560  173.0470  139.1480 C   0  0  1  0  0  3  0  0  0  0  0  0
  192.1610  171.7440  138.7050 O   0  0  0  0  0  0  0  0  0  0  0  0
  190.7960  172.1020  138.7120 C   0  0  0  0  0  2  0  0  0  0  0  0
  189.0980  173.9110  141.8060 C   0  0  0  0  0  0  0  0  0  0  0  0
  188.6680  175.0460  141.1330 O   0  0  0  0  0  1  0  0  0  0  0  0
  188.2320  172.9330  142.0470 C   0  0  0  0  0  2  0  0  0  0  0  0
  189.0290  177.1760  144.3910 C   0  0  0  0  0  0  0  0  0  0  0  0
  190.0890  177.8310  144.1970 O   0  0  0  0  0  0  0  0  0  0  0  0
  187.9830  177.2760  143.4640 O   0  0  0  0  0  0  0  0  0  0  0  0
  186.8080  176.4750  143.5270 C   0  0  0  0  0  2  0  0  0  0  0  0
  185.5690  177.3530  143.6340 C   0  0  0  0  0  2  0  0  0  0  0  0
  185.5170  179.1030  145.3540 C   0  0  0  0  0  0  0  0  0  0  0  0
  185.3860  179.5120  146.6410 F   0  0  0  0  0  0  0  0  0  0  0  0
  185.3850  177.8140  145.0410 C   0  0  0  0  0  0  0  0  0  0  0  0
  185.8140  180.0240  144.3970 F   0  0  0  0  0  0  0  0  0  0  0  0
  185.1200  176.8510  146.0600 N   0  0  0  0  0  1  0  0  0  0  0  0
  3 19  1  0  0  0  0
  4 17  2  0  0  0  0
  5  1  1  0  0  0  0
  5 10  2  0  0  0  0
  8 27  1  6  0  0  0
  8 16  1  0  0  0  0
  9  2  1  1  0  0  0
  9 20  1  0  0  0  0
  9 11  1  0  0  0  0
 10  4  1  0  0  0  0
 11  5  1  1  0  0  0
 12  1  1  0  0  0  0
 13 14  1  6  0  0  0
 13  3  1  0  0  0  0
 14  2  1  0  0  0  0
 15 11  1  0  0  0  0
 15  6  1  1  0  0  0
 16  7  2  0  0  0  0
 16 17  1  0  0  0  0
 18  6  1  6  0  0  0
 18  8  1  0  0  0  0
 18 10  1  0  0  0  0
 19 24  1  6  0  0  0
 19 15  1  0  0  0  0
 20 12  1  0  0  0  0
 21 23  1  1  0  0  0
 21 13  1  0  0  0  0
 22 23  1  0  0  0  0
 22 21  1  0  0  0  0
 24 26  2  0  0  0  0
 25 24  1  0  0  0  0
 28 27  2  0  0  0  0
 29 30  1  0  0  0  0
 29 27  1  0  0  0  0
 30 31  1  0  0  0  0
 31 34  1  0  0  0  0
 32 33  1  0  0  0  0
 34 32  2  0  0  0  0
 34 36  1  0  0  0  0
 35 32  1  0  0  0  0
M  END
>  <MODEL>
4

>  <REMARK>
 VINA RESULT:      -6.9      3.898      7.120
  Name = 
  7 active torsions:
  status: ('A' for Active; 'I' for Inactive)
    1  A    between atoms: C_1  and  C_21
    2  A    between atoms: C_2  and  C_24
    3  A    between atoms: C_2  and  C_36
    4  A    between atoms: O_7  and  C_23
    5  A    between atoms: O_7  and  C_36
    6  A    between atoms: C_14  and  C_34
    7  A    between atoms: C_15  and  C_23
                            x       y       z     vdW  Elec       q    Type
                         _______ _______ _______ _____ _____    ______ ____

>  <TORSDO>
F 7

$$$$
=
 OpenBabel11072408443D

 36 40  0  0  1  0  0  0  0  0999 V2000
  192.1230  175.2320  146.8930 C   0  0  0  0  0  2  0  0  0  0  0  0
  188.5440  177.3250  146.8570 C   0  0  0  0  0  2  0  0  0  0  0  0
  187.4360  176.3900  144.3010 O   0  0  0  0  0  0  0  0  0  0  0  0
  193.5610  174.4850  144.4980 C   0  0  0  0  0  3  0  0  0  0  0  0
  191.6410  175.6510  145.5240 C   0  0  0  0  0  0  0  0  0  0  0  0
  190.8130  176.6870  143.0050 O   0  0  0  0  0  0  0  0  0  0  0  0
  193.8430  173.4520  141.0790 O   0  0  0  0  0  0  0  0  0  0  0  0
  192.0880  174.8310  141.9460 C   0  0  2  0  0  3  0  0  0  0  0  0
  189.2710  176.0660  146.4160 C   0  0  1  0  0  3  0  0  0  0  0  0
  192.3690  175.3510  144.4360 C   0  0  0  0  0  0  0  0  0  0  0  0
  190.3400  176.4170  145.3530 C   0  0  2  0  0  3  0  0  0  0  0  0
  191.1910  175.7120  147.9950 C   0  0  0  0  0  2  0  0  0  0  0  0
  186.8180  177.4150  145.0390 C   0  0  2  0  0  3  0  0  0  0  0  0
  187.0640  177.2140  146.5280 C   0  0  0  0  0  2  0  0  0  0  0  0
  189.8210  176.2380  143.9050 C   0  0  1  0  0  3  0  0  0  0  0  0
  193.3630  174.0380  142.0870 C   0  0  0  0  0  0  0  0  0  0  0  0
  194.0350  173.8940  143.3960 C   0  0  0  0  0  3  0  0  0  0  0  0
  191.9670  175.8700  143.0720 C   0  0  2  0  0  3  0  0  0  0  0  0
  188.5080  177.0020  143.6360 C   0  0  1  0  0  3  0  0  0  0  0  0
  189.7730  175.2990  147.6430 C   0  0  0  0  0  2  0  0  0  0  0  0
  185.3050  177.4990  144.7850 C   0  0  1  0  0  3  0  0  0  0  0  0
  184.7920  178.7200  145.2690 O   0  0  0  0  0  0  0  0  0  0  0  0
  184.9240  178.6040  143.8680 C   0  0  0  0  0  2  0  0  0  0  0  0
  188.2040  177.0970  142.1670 C   0  0  0  0  0  0  0  0  0  0  0  0
  188.4860  178.2750  141.4880 O   0  0  0  0  0  1  0  0  0  0  0  0
  187.6870  176.0720  141.4990 C   0  0  0  0  0  2  0  0  0  0  0  0
  190.8880  173.9280  141.8500 C   0  0  0  0  0  0  0  0  0  0  0  0
  190.5650  173.2030  142.8300 O   0  0  0  0  0  0  0  0  0  0  0  0
  190.1240  173.8730  140.6770 O   0  0  0  0  0  0  0  0  0  0  0  0
  189.5320  172.6740  140.1890 C   0  0  0  0  0  2  0  0  0  0  0  0
  188.2780  172.9870  139.3860 C   0  0  0  0  0  2  0  0  0  0  0  0
  188.1770  174.5510  137.4980 C   0  0  0  0  0  0  0  0  0  0  0  0
  188.4810  174.9130  136.2270 F   0  0  0  0  0  0  0  0  0  0  0  0
  188.6440  173.4090  138.0040 C   0  0  0  0  0  0  0  0  0  0  0  0
  187.3630  175.3560  138.2350 F   0  0  0  0  0  0  0  0  0  0  0  0
  189.4580  172.5520  137.2050 N   0  0  0  0  0  1  0  0  0  0  0  0
  1 12  1  0  0  0  0
  3 13  1  0  0  0  0
  5  1  1  0  0  0  0
  7 16  2  0  0  0  0
  8 27  1  1  0  0  0
  8 16  1  0  0  0  0
  8 18  1  0  0  0  0
  9  2  1  1  0  0  0
  9 20  1  0  0  0  0
 10  4  1  0  0  0  0
 10  5  2  0  0  0  0
 11  5  1  1  0  0  0
 11  9  1  0  0  0  0
 13 14  1  1  0  0  0
 14  2  1  0  0  0  0
 15  6  1  6  0  0  0
 15 11  1  0  0  0  0
 16 17  1  0  0  0  0
 17  4  2  0  0  0  0
 18  6  1  1  0  0  0
 18 10  1  0  0  0  0
 19 24  1  6  0  0  0
 19 15  1  0  0  0  0
 19  3  1  0  0  0  0
 20 12  1  0  0  0  0
 21 23  1  6  0  0  0
 21 13  1  0  0  0  0
 21 22  1  0  0  0  0
 23 22  1  0  0  0  0
 25 24  1  0  0  0  0
 26 24  2  0  0  0  0
 27 28  2  0  0  0  0
 29 27  1  0  0  0  0
 30 29  1  0  0  0  0
 31 30  1  0  0  0  0
 32 34  2  0  0  0  0
 32 35  1  0  0  0  0
 33 32  1  0  0  0  0
 34 31  1  0  0  0  0
 36 34  1  0  0  0  0
M  END
>  <MODEL>
5

>  <REMARK>
 VINA RESULT:      -6.9      3.210      3.917
  Name = 
  7 active torsions:
  status: ('A' for Active; 'I' for Inactive)
    1  A    between atoms: C_1  and  C_21
    2  A    between atoms: C_2  and  C_24
    3  A    between atoms: C_2  and  C_36
    4  A    between atoms: O_7  and  C_23
    5  A    between atoms: O_7  and  C_36
    6  A    between atoms: C_14  and  C_34
    7  A    between atoms: C_15  and  C_23
                            x       y       z     vdW  Elec       q    Type
                         _______ _______ _______ _____ _____    ______ ____

>  <TORSDO>
F 7

$$$$
=
 OpenBabel11072408443D

 36 40  0  0  1  0  0  0  0  0999 V2000
  193.7150  175.8410  146.4750 C   0  0  0  0  0  2  0  0  0  0  0  0
  194.1130  173.4630  143.1030 C   0  0  0  0  0  2  0  0  0  0  0  0
  191.7560  174.3410  141.5830 O   0  0  0  0  0  0  0  0  0  0  0  0
  191.1670  176.7380  147.5080 C   0  0  0  0  0  3  0  0  0  0  0  0
  192.4150  175.4040  145.8460 C   0  0  0  0  0  0  0  0  0  0  0  0
  190.0060  174.3390  144.7640 O   0  0  0  0  0  0  0  0  0  0  0  0
  187.7690  177.8380  147.2340 O   0  0  0  0  0  0  0  0  0  0  0  0
  188.8310  176.3080  145.7300 C   0  0  2  0  0  3  0  0  0  0  0  0
  193.6100  174.7830  143.6610 C   0  0  1  0  0  3  0  0  0  0  0  0
  191.2450  175.7780  146.3910 C   0  0  0  0  0  0  0  0  0  0  0  0
  192.4020  174.5360  144.5980 C   0  0  2  0  0  3  0  0  0  0  0  0
  194.9210  175.2710  145.7460 C   0  0  0  0  0  2  0  0  0  0  0  0
  192.5440  173.2580  141.1560 C   0  0  2  0  0  3  0  0  0  0  0  0
  193.9910  173.4570  141.5880 C   0  0  0  0  0  2  0  0  0  0  0  0
  191.0430  174.6930  143.8720 C   0  0  1  0  0  3  0  0  0  0  0  0
  188.8170  177.2000  146.9460 C   0  0  0  0  0  0  0  0  0  0  0  0
  190.0260  177.3810  147.7770 C   0  0  0  0  0  3  0  0  0  0  0  0
  189.9360  175.2470  145.8480 C   0  0  2  0  0  3  0  0  0  0  0  0
  190.9360  173.8280  142.6000 C   0  0  1  0  0  3  0  0  0  0  0  0
  194.7750  175.5720  144.2640 C   0  0  0  0  0  2  0  0  0  0  0  0
  192.4960  173.0540  139.6340 C   0  0  1  0  0  3  0  0  0  0  0  0
  192.9970  171.7810  139.2920 O   0  0  0  0  0  0  0  0  0  0  0  0
  191.5970  171.9470  139.2180 C   0  0  0  0  0  2  0  0  0  0  0  0
  189.5200  173.7290  142.1050 C   0  0  0  0  0  0  0  0  0  0  0  0
  188.7470  172.6340  142.4670 O   0  0  0  0  0  1  0  0  0  0  0  0
  188.9850  174.6760  141.3430 C   0  0  0  0  0  2  0  0  0  0  0  0
  188.9210  177.1110  144.4610 C   0  0  0  0  0  0  0  0  0  0  0  0
  189.8850  177.9050  144.2850 O   0  0  0  0  0  0  0  0  0  0  0  0
  187.9400  176.9960  143.4680 O   0  0  0  0  0  0  0  0  0  0  0  0
  186.8930  177.9460  143.2950 C   0  0  0  0  0  2  0  0  0  0  0  0
  185.5550  177.3460  143.7030 C   0  0  0  0  0  2  0  0  0  0  0  0
  184.6560  177.7460  145.9500 C   0  0  0  0  0  0  0  0  0  0  0  0
  184.0200  178.5210  146.8640 F   0  0  0  0  0  0  0  0  0  0  0  0
  184.8930  178.2090  144.7230 C   0  0  0  0  0  0  0  0  0  0  0  0
  185.0180  176.4810  146.2990 F   0  0  0  0  0  0  0  0  0  0  0  0
  184.4670  179.5200  144.3560 N   0  0  0  0  0  1  0  0  0  0  0  0
  3 19  1  0  0  0  0
  4 17  2  0  0  0  0
  5 10  2  0  0  0  0
  5  1  1  0  0  0  0
  8 27  1  6  0  0  0
  8 18  1  0  0  0  0
  8 16  1  0  0  0  0
  9  2  1  1  0  0  0
  9 20  1  0  0  0  0
  9 11  1  0  0  0  0
 10  4  1  0  0  0  0
 11  5  1  1  0  0  0
 12  1  1  0  0  0  0
 13  3  1  0  0  0  0
 13 14  1  6  0  0  0
 14  2  1  0  0  0  0
 15 11  1  0  0  0  0
 15  6  1  1  0  0  0
 16  7  2  0  0  0  0
 16 17  1  0  0  0  0
 18  6  1  6  0  0  0
 18 10  1  0  0  0  0
 19 24  1  6  0  0  0
 19 15  1  0  0  0  0
 20 12  1  0  0  0  0
 21 23  1  1  0  0  0
 21 13  1  0  0  0  0
 22 21  1  0  0  0  0
 23 22  1  0  0  0  0
 24 25  1  0  0  0  0
 26 24  2  0  0  0  0
 28 27  2  0  0  0  0
 29 27  1  0  0  0  0
 30 29  1  0  0  0  0
 30 31  1  0  0  0  0
 31 34  1  0  0  0  0
 32 35  1  0  0  0  0
 32 33  1  0  0  0  0
 34 32  2  0  0  0  0
 36 34  1  0  0  0  0
M  END
>  <MODEL>
6

>  <REMARK>
 VINA RESULT:      -6.9      3.808      7.301
  Name = 
  7 active torsions:
  status: ('A' for Active; 'I' for Inactive)
    1  A    between atoms: C_1  and  C_21
    2  A    between atoms: C_2  and  C_24
    3  A    between atoms: C_2  and  C_36
    4  A    between atoms: O_7  and  C_23
    5  A    between atoms: O_7  and  C_36
    6  A    between atoms: C_14  and  C_34
    7  A    between atoms: C_15  and  C_23
                            x       y       z     vdW  Elec       q    Type
                         _______ _______ _______ _____ _____    ______ ____

>  <TORSDO>
F 7

$$$$
=
 OpenBabel11072408443D

 36 40  0  0  1  0  0  0  0  0999 V2000
  193.3220  176.3940  146.7150 C   0  0  0  0  0  2  0  0  0  0  0  0
  194.0890  173.5040  143.8430 C   0  0  0  0  0  2  0  0  0  0  0  0
  191.7010  173.8170  142.1580 O   0  0  0  0  0  0  0  0  0  0  0  0
  190.6570  177.1660  147.5330 C   0  0  0  0  0  3  0  0  0  0  0  0
  192.0980  175.7040  146.1600 C   0  0  0  0  0  0  0  0  0  0  0  0
  189.8590  174.1930  145.2630 O   0  0  0  0  0  0  0  0  0  0  0  0
  187.1700  177.8030  147.0200 O   0  0  0  0  0  0  0  0  0  0  0  0
  188.4430  176.1570  145.8360 C   0  0  2  0  0  3  0  0  0  0  0  0
  193.4260  174.8380  144.1420 C   0  0  1  0  0  3  0  0  0  0  0  0
  190.8780  176.0340  146.6130 C   0  0  0  0  0  0  0  0  0  0  0  0
  192.2230  174.6290  145.0930 C   0  0  2  0  0  3  0  0  0  0  0  0
  194.6070  175.8420  146.1170 C   0  0  0  0  0  2  0  0  0  0  0  0
  192.6180  172.7720  141.9470 C   0  0  2  0  0  3  0  0  0  0  0  0
  194.0190  173.2100  142.3530 C   0  0  0  0  0  2  0  0  0  0  0  0
  190.8790  174.4950  144.3340 C   0  0  1  0  0  3  0  0  0  0  0  0
  188.2910  177.2480  146.8660 C   0  0  0  0  0  0  0  0  0  0  0  0
  189.4450  177.7130  147.6650 C   0  0  0  0  0  3  0  0  0  0  0  0
  189.6540  175.2680  146.1600 C   0  0  2  0  0  3  0  0  0  0  0  0
  190.9100  173.4080  143.2410 C   0  0  1  0  0  3  0  0  0  0  0  0
  194.4770  175.8500  144.6040 C   0  0  0  0  0  2  0  0  0  0  0  0
  192.6430  172.2910  140.4880 C   0  0  1  0  0  3  0  0  0  0  0  0
  193.3680  171.0870  140.3790 O   0  0  0  0  0  0  0  0  0  0  0  0
  191.9630  170.9860  140.2880 C   0  0  0  0  0  2  0  0  0  0  0  0
  189.5300  173.0590  142.7560 C   0  0  0  0  0  0  0  0  0  0  0  0
  188.9040  171.9210  143.2440 O   0  0  0  0  0  1  0  0  0  0  0  0
  188.8900  173.8280  141.8820 C   0  0  0  0  0  2  0  0  0  0  0  0
  188.4860  176.7220  144.4420 C   0  0  0  0  0  0  0  0  0  0  0  0
  189.3760  177.5590  144.1280 O   0  0  0  0  0  0  0  0  0  0  0  0
  187.5420  176.3360  143.4820 O   0  0  0  0  0  0  0  0  0  0  0  0
  186.1370  176.4620  143.6770 C   0  0  0  0  0  2  0  0  0  0  0  0
  185.7220  177.9260  143.6330 C   0  0  0  0  0  2  0  0  0  0  0  0
  185.4080  178.3480  141.2360 C   0  0  0  0  0  0  0  0  0  0  0  0
  184.6260  178.6180  140.1620 F   0  0  0  0  0  0  0  0  0  0  0  0
  184.8630  178.1820  142.4420 C   0  0  0  0  0  0  0  0  0  0  0  0
  186.7570  178.2820  141.0680 F   0  0  0  0  0  0  0  0  0  0  0  0
  183.4510  178.3000  142.6120 N   0  0  0  0  0  1  0  0  0  0  0  0
  3 19  1  0  0  0  0
  4 17  2  0  0  0  0
  5 10  2  0  0  0  0
  5  1  1  0  0  0  0
  8 27  1  6  0  0  0
  8 18  1  0  0  0  0
  8 16  1  0  0  0  0
  9  2  1  1  0  0  0
  9 20  1  0  0  0  0
  9 11  1  0  0  0  0
 10  4  1  0  0  0  0
 11  5  1  1  0  0  0
 12  1  1  0  0  0  0
 13  3  1  0  0  0  0
 13 14  1  6  0  0  0
 14  2  1  0  0  0  0
 15 11  1  0  0  0  0
 15  6  1  1  0  0  0
 16  7  2  0  0  0  0
 16 17  1  0  0  0  0
 18  6  1  6  0  0  0
 18 10  1  0  0  0  0
 19 24  1  6  0  0  0
 19 15  1  0  0  0  0
 20 12  1  0  0  0  0
 21 23  1  1  0  0  0
 21 13  1  0  0  0  0
 22 21  1  0  0  0  0
 23 22  1  0  0  0  0
 24 25  1  0  0  0  0
 26 24  2  0  0  0  0
 28 27  2  0  0  0  0
 29 30  1  0  0  0  0
 29 27  1  0  0  0  0
 31 30  1  0  0  0  0
 32 34  2  0  0  0  0
 33 32  1  0  0  0  0
 34 36  1  0  0  0  0
 34 31  1  0  0  0  0
 35 32  1  0  0  0  0
M  END
>  <MODEL>
7

>  <REMARK>
 VINA RESULT:      -6.7      3.935      7.434
  Name = 
  7 active torsions:
  status: ('A' for Active; 'I' for Inactive)
    1  A    between atoms: C_1  and  C_21
    2  A    between atoms: C_2  and  C_24
    3  A    between atoms: C_2  and  C_36
    4  A    between atoms: O_7  and  C_23
    5  A    between atoms: O_7  and  C_36
    6  A    between atoms: C_14  and  C_34
    7  A    between atoms: C_15  and  C_23
                            x       y       z     vdW  Elec       q    Type
                         _______ _______ _______ _____ _____    ______ ____

>  <TORSDO>
F 7

$$$$
=
 OpenBabel11072408443D

 36 40  0  0  1  0  0  0  0  0999 V2000
  188.4140  175.1660  140.2330 C   0  0  0  0  0  2  0  0  0  0  0  0
  185.8610  176.8180  143.0510 C   0  0  0  0  0  2  0  0  0  0  0  0
  187.8140  177.6280  145.0920 O   0  0  0  0  0  0  0  0  0  0  0  0
  190.9200  173.8870  140.9020 C   0  0  0  0  0  3  0  0  0  0  0  0
  188.8490  174.9930  141.6680 C   0  0  0  0  0  0  0  0  0  0  0  0
  189.4810  174.4800  144.3970 O   0  0  0  0  0  0  0  0  0  0  0  0
  193.9250  173.4480  142.8010 O   0  0  0  0  0  0  0  0  0  0  0  0
  191.8580  174.2660  143.6910 C   0  0  2  0  0  3  0  0  0  0  0  0
  187.2520  176.8470  142.4420 C   0  0  1  0  0  3  0  0  0  0  0  0
  189.9830  174.3310  141.9510 C   0  0  0  0  0  0  0  0  0  0  0  0
  188.0190  175.5540  142.8110 C   0  0  2  0  0  3  0  0  0  0  0  0
  187.0810  175.8920  140.1260 C   0  0  0  0  0  2  0  0  0  0  0  0
  186.4300  177.7130  145.3250 C   0  0  2  0  0  3  0  0  0  0  0  0
  185.6920  177.9780  144.0190 C   0  0  0  0  0  2  0  0  0  0  0  0
  188.9130  175.7290  144.0630 C   0  0  1  0  0  3  0  0  0  0  0  0
  192.7190  173.7330  142.5730 C   0  0  0  0  0  0  0  0  0  0  0  0
  192.1880  173.5870  141.2010 C   0  0  0  0  0  3  0  0  0  0  0  0
  190.3690  174.0400  143.3850 C   0  0  2  0  0  3  0  0  0  0  0  0
  188.1430  176.2780  145.2820 C   0  0  1  0  0  3  0  0  0  0  0  0
  187.1590  177.1670  140.9470 C   0  0  0  0  0  2  0  0  0  0  0  0
  186.0660  178.8060  146.3410 C   0  0  1  0  0  3  0  0  0  0  0  0
  184.7170  178.6840  146.7340 O   0  0  0  0  0  0  0  0  0  0  0  0
  185.6870  178.2680  147.6720 C   0  0  0  0  0  2  0  0  0  0  0  0
  188.9250  176.1220  146.5570 C   0  0  0  0  0  0  0  0  0  0  0  0
  189.6910  177.1830  147.0200 O   0  0  0  0  0  1  0  0  0  0  0  0
  188.8840  174.9960  147.2600 C   0  0  0  0  0  2  0  0  0  0  0  0
  192.1830  175.7030  143.9960 C   0  0  0  0  0  0  0  0  0  0  0  0
  192.3280  176.5300  143.0550 O   0  0  0  0  0  0  0  0  0  0  0  0
  192.3350  176.1380  145.3190 O   0  0  0  0  0  0  0  0  0  0  0  0
  193.0090  175.3770  146.3170 C   0  0  0  0  0  2  0  0  0  0  0  0
  194.4270  175.8950  146.5140 C   0  0  0  0  0  2  0  0  0  0  0  0
  195.8150  175.8820  144.4900 C   0  0  0  0  0  0  0  0  0  0  0  0
  196.6290  175.2600  143.6020 F   0  0  0  0  0  0  0  0  0  0  0  0
  195.3560  175.2270  145.5570 C   0  0  0  0  0  0  0  0  0  0  0  0
  195.4520  177.1730  144.2580 F   0  0  0  0  0  0  0  0  0  0  0  0
  195.7070  173.8600  145.7640 N   0  0  0  0  0  1  0  0  0  0  0  0
  1  5  1  0  0  0  0
  2 14  1  0  0  0  0
  3 19  1  0  0  0  0
  3 13  1  0  0  0  0
  4 17  2  0  0  0  0
  4 10  1  0  0  0  0
  5 10  2  0  0  0  0
  8 27  1  6  0  0  0
  9 20  1  6  0  0  0
  9 11  1  0  0  0  0
  9  2  1  0  0  0  0
 11  5  1  6  0  0  0
 11 15  1  0  0  0  0
 12  1  1  0  0  0  0
 12 20  1  0  0  0  0
 13 14  1  6  0  0  0
 13 21  1  0  0  0  0
 15  6  1  1  0  0  0
 15 19  1  0  0  0  0
 16  7  2  0  0  0  0
 16  8  1  0  0  0  0
 17 16  1  0  0  0  0
 18 10  1  6  0  0  0
 18  8  1  0  0  0  0
 18  6  1  0  0  0  0
 19 24  1  1  0  0  0
 21 22  1  0  0  0  0
 21 23  1  1  0  0  0
 22 23  1  0  0  0  0
 24 25  1  0  0  0  0
 24 26  2  0  0  0  0
 27 29  1  0  0  0  0
 28 27  2  0  0  0  0
 29 30  1  0  0  0  0
 30 31  1  0  0  0  0
 32 34  2  0  0  0  0
 33 32  1  0  0  0  0
 34 36  1  0  0  0  0
 34 31  1  0  0  0  0
 35 32  1  0  0  0  0
M  END
>  <MODEL>
8

>  <REMARK>
 VINA RESULT:      -6.7      2.390      4.462
  Name = 
  7 active torsions:
  status: ('A' for Active; 'I' for Inactive)
    1  A    between atoms: C_1  and  C_21
    2  A    between atoms: C_2  and  C_24
    3  A    between atoms: C_2  and  C_36
    4  A    between atoms: O_7  and  C_23
    5  A    between atoms: O_7  and  C_36
    6  A    between atoms: C_14  and  C_34
    7  A    between atoms: C_15  and  C_23
                            x       y       z     vdW  Elec       q    Type
                         _______ _______ _______ _____ _____    ______ ____

>  <TORSDO>
F 7

$$$$
=
 OpenBabel11072408443D

 36 40  0  0  1  0  0  0  0  0999 V2000
  187.5050  178.1310  148.0490 C   0  0  0  0  0  2  0  0  0  0  0  0
  184.9440  179.1660  144.9570 C   0  0  0  0  0  2  0  0  0  0  0  0
  185.7980  177.2270  142.9210 O   0  0  0  0  0  0  0  0  0  0  0  0
  190.1500  177.0360  147.6350 C   0  0  0  0  0  3  0  0  0  0  0  0
  188.0770  177.9630  146.6620 C   0  0  0  0  0  0  0  0  0  0  0  0
  189.1830  177.9110  144.0390 O   0  0  0  0  0  0  0  0  0  0  0  0
  192.6090  175.0730  145.9250 O   0  0  0  0  0  0  0  0  0  0  0  0
  190.7740  176.1840  144.8630 C   0  0  2  0  0  3  0  0  0  0  0  0
  185.7350  178.0500  145.6170 C   0  0  1  0  0  3  0  0  0  0  0  0
  189.3350  177.5200  146.5040 C   0  0  0  0  0  0  0  0  0  0  0  0
  187.2520  178.2940  145.4300 C   0  0  2  0  0  3  0  0  0  0  0  0
  186.0920  178.6940  148.0170 C   0  0  0  0  0  2  0  0  0  0  0  0
  184.8820  178.2510  142.6230 C   0  0  2  0  0  3  0  0  0  0  0  0
  184.0610  178.6000  143.8570 C   0  0  0  0  0  2  0  0  0  0  0  0
  187.8290  177.5430  144.2040 C   0  0  1  0  0  3  0  0  0  0  0  0
  191.5990  175.8130  146.0690 C   0  0  0  0  0  0  0  0  0  0  0  0
  191.2180  176.2590  147.4260 C   0  0  0  0  0  3  0  0  0  0  0  0
  189.9670  177.4650  145.1300 C   0  0  2  0  0  3  0  0  0  0  0  0
  187.0600  177.8380  142.9000 C   0  0  1  0  0  3  0  0  0  0  0  0
  185.2610  177.8580  147.0600 C   0  0  0  0  0  2  0  0  0  0  0  0
  183.9310  177.8790  141.4740 C   0  0  1  0  0  3  0  0  0  0  0  0
  183.4610  179.0410  140.8280 O   0  0  0  0  0  0  0  0  0  0  0  0
  184.4360  178.2880  140.1380 C   0  0  0  0  0  2  0  0  0  0  0  0
  187.8210  177.3850  141.6840 C   0  0  0  0  0  0  0  0  0  0  0  0
  188.6200  178.2930  141.0030 O   0  0  0  0  0  1  0  0  0  0  0  0
  187.7590  176.1290  141.2580 C   0  0  0  0  0  2  0  0  0  0  0  0
  189.9170  175.0340  144.4100 C   0  0  0  0  0  0  0  0  0  0  0  0
  189.0730  174.5280  145.1990 O   0  0  0  0  0  0  0  0  0  0  0  0
  190.0480  174.5070  143.1190 O   0  0  0  0  0  0  0  0  0  0  0  0
  191.0110  174.9750  142.1800 C   0  0  0  0  0  2  0  0  0  0  0  0
  192.3570  174.3060  142.4190 C   0  0  0  0  0  2  0  0  0  0  0  0
  194.1210  175.9880  142.1340 C   0  0  0  0  0  0  0  0  0  0  0  0
  195.0580  176.6250  141.3880 F   0  0  0  0  0  0  0  0  0  0  0  0
  193.4170  174.9810  141.6160 C   0  0  0  0  0  0  0  0  0  0  0  0
  193.8910  176.4150  143.4060 F   0  0  0  0  0  0  0  0  0  0  0  0
  193.6350  174.5750  140.2660 N   0  0  0  0  0  1  0  0  0  0  0  0
  5  1  1  0  0  0  0
  7 16  2  0  0  0  0
  8 27  1  1  0  0  0
  8 18  1  0  0  0  0
  8 16  1  0  0  0  0
  9  2  1  1  0  0  0
  9 20  1  0  0  0  0
 10  5  2  0  0  0  0
 10  4  1  0  0  0  0
 11  9  1  0  0  0  0
 11  5  1  1  0  0  0
 12  1  1  0  0  0  0
 13  3  1  0  0  0  0
 13 14  1  1  0  0  0
 14  2  1  0  0  0  0
 15  6  1  6  0  0  0
 15 11  1  0  0  0  0
 16 17  1  0  0  0  0
 17  4  2  0  0  0  0
 18  6  1  6  0  0  0
 18 10  1  0  0  0  0
 19 24  1  6  0  0  0
 19  3  1  0  0  0  0
 19 15  1  0  0  0  0
 20 12  1  0  0  0  0
 21 23  1  6  0  0  0
 21 13  1  0  0  0  0
 22 21  1  0  0  0  0
 23 22  1  0  0  0  0
 25 24  1  0  0  0  0
 26 24  2  0  0  0  0
 27 28  2  0  0  0  0
 29 27  1  0  0  0  0
 30 31  1  0  0  0  0
 30 29  1  0  0  0  0
 32 35  1  0  0  0  0
 33 32  1  0  0  0  0
 34 32  2  0  0  0  0
 34 31  1  0  0  0  0
 36 34  1  0  0  0  0
M  END
>  <MODEL>
9

>  <REMARK>
 VINA RESULT:      -6.6      2.611      4.257
  Name = 
  7 active torsions:
  status: ('A' for Active; 'I' for Inactive)
    1  A    between atoms: C_1  and  C_21
    2  A    between atoms: C_2  and  C_24
    3  A    between atoms: C_2  and  C_36
    4  A    between atoms: O_7  and  C_23
    5  A    between atoms: O_7  and  C_36
    6  A    between atoms: C_14  and  C_34
    7  A    between atoms: C_15  and  C_23
                            x       y       z     vdW  Elec       q    Type
                         _______ _______ _______ _____ _____    ______ ____

>  <TORSDO>
F 7

$$$$
