=
 OpenBabel11072409133D

 39 45  0  0  1  0  0  0  0  0999 V2000
  187.8200  175.6070  140.8000 O   0  0  0  0  0  0  0  0  0  0  0  0
  188.9870  173.9270  139.3380 C   0  0  0  0  0  2  0  0  0  0  0  0
  187.0900  177.6830  145.3570 N   0  0  0  0  0  0  0  0  0  0  0  0
  189.6770  174.5210  141.6180 C   0  0  1  0  0  3  0  0  0  0  0  0
  186.5350  177.9680  146.6360 C   0  0  0  0  0  0  0  0  0  0  0  0
  188.4900  174.3660  140.7030 C   0  0  1  0  0  3  0  0  0  0  0  0
  190.0380  172.1890  140.8400 N   0  0  0  0  0  0  0  0  0  0  0  0
  186.9670  177.1760  143.8950 C   0  0  1  0  0  0  0  0  0  0  0  0
  188.2040  177.5620  144.4810 C   0  0  1  0  0  0  0  0  0  0  0  0
  187.6610  177.4250  142.6250 C   0  0  1  0  0  0  0  0  0  0  0  0
  188.9410  176.4110  144.8700 O   0  0  0  0  0  0  0  0  0  0  0  0
  188.1720  176.1480  142.0310 C   0  0  0  0  0  0  0  0  0  0  0  0
  187.2820  178.3670  147.5680 O   0  0  0  0  0  0  0  0  0  0  0  0
  189.1450  175.4730  142.6350 C   0  0  0  0  0  0  0  0  0  0  0  0
  190.1090  172.8710  139.5260 C   0  0  0  0  0  2  0  0  0  0  0  0
  190.1500  173.1200  141.9910 C   0  0  0  0  0  2  0  0  0  0  0  0
  186.0550  178.3390  140.8990 O   0  0  0  0  0  0  0  0  0  0  0  0
  185.8900  178.0480  143.4030 N   0  0  0  0  0  2  0  0  0  0  0  0
  186.4390  177.9860  142.0440 C   0  0  0  0  0  0  0  0  0  0  0  0
  189.8560  176.0560  143.8460 C   0  0  2  0  0  3  0  0  0  0  0  0
  192.9370  175.7560  143.0180 C   0  0  0  0  0  1  0  0  0  0  0  0
  190.5650  174.5370  145.7660 C   0  0  0  0  0  2  0  0  0  0  0  0
  193.2510  175.2540  145.4310 C   0  0  0  0  0  2  0  0  0  0  0  0
  190.9450  175.1310  144.3940 C   0  0  2  0  0  3  0  0  0  0  0  0
  191.1530  175.3560  146.9110 C   0  0  0  0  0  2  0  0  0  0  0  0
  192.3040  175.8500  144.3940 C   0  0  2  0  0  3  0  0  0  0  0  0
  192.6860  175.3900  146.8520 C   0  0  0  0  0  2  0  0  0  0  0  0
  184.2740  178.8090  146.1250 C   0  0  0  0  0  1  0  0  0  0  0  0
  185.0760  177.7600  146.8690 C   0  0  1  0  0  3  0  0  0  0  0  0
  184.6960  176.4870  146.4420 O   0  0  0  0  0  1  0  0  0  0  0  0
  191.1770  171.2910  140.9120 C   0  0  0  0  0  2  0  0  0  0  0  0
  190.5690  169.1000  141.6210 O   0  0  0  0  0  1  0  0  0  0  0  0
  191.0170  170.3390  142.0830 C   0  0  1  0  0  3  0  0  0  0  0  0
  192.3010  170.1760  142.7480 N   0  0  0  0  0  2  0  0  0  0  0  0
  191.7940  171.6210  144.5110 O   0  0  0  0  0  0  0  0  0  0  0  0
  192.6280  170.8460  143.9690 C   0  0  0  0  0  0  0  0  0  0  0  0
  194.6750  169.6860  144.2040 O   0  0  0  0  0  0  0  0  0  0  0  0
  193.9390  170.6320  144.5910 C   0  0  0  0  0  0  0  0  0  0  0  0
  194.3880  171.4890  145.6350 N   0  0  0  0  0  1  0  0  0  0  0  0
  1 12  1  0  0  0  0
  2 15  1  0  0  0  0
  3  5  1  0  0  0  0
  4 16  1  1  0  0  0
  4 14  1  0  0  0  0
  5 29  1  0  0  0  0
  5 13  2  0  0  0  0
  6  2  1  6  0  0  0
  6  1  1  0  0  0  0
  6  4  1  0  0  0  0
  7 31  1  0  0  0  0
  7 16  1  0  0  0  0
  8 18  1  6  0  0  0
  8  9  1  0  0  0  0
  8  3  1  0  0  0  0
  9 11  1  1  0  0  0
  9  3  1  0  0  0  0
 10 12  1  6  0  0  0
 10  8  1  0  0  0  0
 10  9  1  0  0  0  0
 12 14  2  0  0  0  0
 15  7  1  0  0  0  0
 17 19  2  0  0  0  0
 19 10  1  0  0  0  0
 19 18  1  0  0  0  0
 20 14  1  6  0  0  0
 20 24  1  0  0  0  0
 20 11  1  0  0  0  0
 22 25  1  0  0  0  0
 23 27  1  0  0  0  0
 24 26  1  0  0  0  0
 24 22  1  1  0  0  0
 26 21  1  6  0  0  0
 26 23  1  0  0  0  0
 27 25  1  0  0  0  0
 29 28  1  6  0  0  0
 30 29  1  0  0  0  0
 31 33  1  0  0  0  0
 33 32  1  6  0  0  0
 33 34  1  0  0  0  0
 34 36  1  0  0  0  0
 36 35  2  0  0  0  0
 36 38  1  0  0  0  0
 37 38  2  0  0  0  0
 38 39  1  0  0  0  0
M  END
>  <MODEL>
1

>  <REMARK>
 VINA RESULT:      -8.2      0.000      0.000
  Name = 
  6 active torsions:
  status: ('A' for Active; 'I' for Inactive)
    1  A    between atoms: C_9  and  N_12
    2  A    between atoms: C_9  and  C_13
    3  A    between atoms: C_10  and  C_29
    4  A    between atoms: C_13  and  N_15
    5  A    between atoms: C_14  and  C_21
    6  A    between atoms: C_24  and  C_38
                            x       y       z     vdW  Elec       q    Type
                         _______ _______ _______ _____ _____    ______ ____

>  <TORSDO>
F 6

$$$$
=
 OpenBabel11072409133D

 39 45  0  0  1  0  0  0  0  0999 V2000
  188.2890  174.8460  140.4220 O   0  0  0  0  0  0  0  0  0  0  0  0
  189.6500  172.8800  139.6420 C   0  0  0  0  0  2  0  0  0  0  0  0
  186.7230  177.8760  144.1600 N   0  0  0  0  0  0  0  0  0  0  0  0
  189.8730  173.9600  141.8370 C   0  0  1  0  0  3  0  0  0  0  0  0
  185.9250  178.4380  145.1970 C   0  0  0  0  0  0  0  0  0  0  0  0
  188.8990  173.6110  140.7410 C   0  0  1  0  0  3  0  0  0  0  0  0
  190.2700  171.5110  141.6730 N   0  0  0  0  0  0  0  0  0  0  0  0
  186.8850  177.0600  142.8500 C   0  0  1  0  0  0  0  0  0  0  0  0
  187.9880  177.5610  143.5940 C   0  0  1  0  0  0  0  0  0  0  0  0
  187.8420  177.0220  141.7380 C   0  0  1  0  0  0  0  0  0  0  0  0
  188.5660  176.5210  144.3710 O   0  0  0  0  0  0  0  0  0  0  0  0
  188.4010  175.6420  141.5560 C   0  0  0  0  0  0  0  0  0  0  0  0
  186.4790  179.0290  146.1620 O   0  0  0  0  0  0  0  0  0  0  0  0
  189.1890  175.1130  142.4870 C   0  0  0  0  0  0  0  0  0  0  0  0
  190.6520  171.8870  140.2910 C   0  0  0  0  0  2  0  0  0  0  0  0
  190.1850  172.6730  142.5940 C   0  0  0  0  0  2  0  0  0  0  0  0
  186.6850  177.5390  139.5500 O   0  0  0  0  0  0  0  0  0  0  0  0
  185.9820  177.8060  141.9610 N   0  0  0  0  0  2  0  0  0  0  0  0
  186.8010  177.4450  140.7990 C   0  0  0  0  0  0  0  0  0  0  0  0
  189.6570  175.9460  143.6690 C   0  0  2  0  0  3  0  0  0  0  0  0
  192.7270  176.3920  144.4710 C   0  0  0  0  0  1  0  0  0  0  0  0
  189.7450  174.2640  145.5820 C   0  0  0  0  0  2  0  0  0  0  0  0
  191.9900  175.5260  146.6800 C   0  0  0  0  0  2  0  0  0  0  0  0
  190.5570  175.1600  144.6250 C   0  0  2  0  0  3  0  0  0  0  0  0
  189.4960  174.9560  146.9190 C   0  0  0  0  0  2  0  0  0  0  0  0
  191.5230  176.1110  145.3500 C   0  0  2  0  0  3  0  0  0  0  0  0
  190.8120  175.2900  147.6350 C   0  0  0  0  0  2  0  0  0  0  0  0
  183.8450  178.5560  146.5160 C   0  0  0  0  0  1  0  0  0  0  0  0
  184.4410  178.2920  145.1480 C   0  0  1  0  0  3  0  0  0  0  0  0
  183.9000  179.1830  144.2190 O   0  0  0  0  0  1  0  0  0  0  0  0
  191.3210  170.6480  142.1810 C   0  0  0  0  0  2  0  0  0  0  0  0
  192.3220  170.3740  144.3250 O   0  0  0  0  0  1  0  0  0  0  0  0
  192.0330  171.3210  143.3400 C   0  0  1  0  0  3  0  0  0  0  0  0
  193.2700  171.9190  142.8600 N   0  0  0  0  0  2  0  0  0  0  0  0
  193.6790  173.1220  144.8200 O   0  0  0  0  0  0  0  0  0  0  0  0
  194.0530  172.8130  143.6560 C   0  0  0  0  0  0  0  0  0  0  0  0
  195.3850  174.6100  142.8880 O   0  0  0  0  0  0  0  0  0  0  0  0
  195.2950  173.3750  143.1130 C   0  0  0  0  0  0  0  0  0  0  0  0
  196.4070  172.5290  142.8370 N   0  0  0  0  0  1  0  0  0  0  0  0
  1  6  1  0  0  0  0
  1 12  1  0  0  0  0
  2 15  1  0  0  0  0
  3  5  1  0  0  0  0
  4 14  1  0  0  0  0
  4 16  1  1  0  0  0
  5 13  2  0  0  0  0
  6  2  1  6  0  0  0
  6  4  1  0  0  0  0
  7 31  1  0  0  0  0
  7 16  1  0  0  0  0
  8 18  1  6  0  0  0
  8  9  1  0  0  0  0
  8  3  1  0  0  0  0
  9  3  1  0  0  0  0
  9 11  1  1  0  0  0
 10 19  1  6  0  0  0
 10  8  1  0  0  0  0
 10  9  1  0  0  0  0
 12 10  1  0  0  0  0
 12 14  2  0  0  0  0
 15  7  1  0  0  0  0
 17 19  2  0  0  0  0
 19 18  1  0  0  0  0
 20 14  1  6  0  0  0
 20 11  1  0  0  0  0
 20 24  1  0  0  0  0
 22 25  1  0  0  0  0
 23 27  1  0  0  0  0
 24 26  1  0  0  0  0
 24 22  1  1  0  0  0
 25 27  1  0  0  0  0
 26 21  1  6  0  0  0
 26 23  1  0  0  0  0
 29  5  1  0  0  0  0
 29 28  1  1  0  0  0
 30 29  1  0  0  0  0
 31 33  1  0  0  0  0
 33 32  1  1  0  0  0
 34 33  1  0  0  0  0
 34 36  1  0  0  0  0
 36 35  2  0  0  0  0
 37 38  2  0  0  0  0
 38 36  1  0  0  0  0
 39 38  1  0  0  0  0
M  END
>  <MODEL>
2

>  <REMARK>
 VINA RESULT:      -8.0      1.691      1.912
  Name = 
  6 active torsions:
  status: ('A' for Active; 'I' for Inactive)
    1  A    between atoms: C_9  and  N_12
    2  A    between atoms: C_9  and  C_13
    3  A    between atoms: C_10  and  C_29
    4  A    between atoms: C_13  and  N_15
    5  A    between atoms: C_14  and  C_21
    6  A    between atoms: C_24  and  C_38
                            x       y       z     vdW  Elec       q    Type
                         _______ _______ _______ _____ _____    ______ ____

>  <TORSDO>
F 6

$$$$
=
 OpenBabel11072409133D

 39 45  0  0  1  0  0  0  0  0999 V2000
  187.8310  175.6600  140.8220 O   0  0  0  0  0  0  0  0  0  0  0  0
  189.0600  173.9800  139.4110 C   0  0  0  0  0  2  0  0  0  0  0  0
  186.9690  177.7940  145.3290 N   0  0  0  0  0  0  0  0  0  0  0  0
  189.6920  174.6240  141.6950 C   0  0  1  0  0  3  0  0  0  0  0  0
  186.3820  178.0880  146.5920 C   0  0  0  0  0  0  0  0  0  0  0  0
  188.5270  174.4310  140.7580 C   0  0  1  0  0  3  0  0  0  0  0  0
  190.1130  172.2870  140.9620 N   0  0  0  0  0  0  0  0  0  0  0  0
  186.8860  177.2610  143.8730 C   0  0  1  0  0  0  0  0  0  0  0  0
  188.1030  177.6800  144.4780 C   0  0  1  0  0  0  0  0  0  0  0  0
  187.6000  177.5040  142.6140 C   0  0  1  0  0  0  0  0  0  0  0  0
  188.8530  176.5500  144.9000 O   0  0  0  0  0  0  0  0  0  0  0  0
  188.1480  176.2270  142.0510 C   0  0  0  0  0  0  0  0  0  0  0  0
  187.1030  178.5160  147.5320 O   0  0  0  0  0  0  0  0  0  0  0  0
  189.1210  175.5810  142.6850 C   0  0  0  0  0  0  0  0  0  0  0  0
  190.1990  172.9490  139.6390 C   0  0  0  0  0  2  0  0  0  0  0  0
  190.1850  173.2390  142.1000 C   0  0  0  0  0  2  0  0  0  0  0  0
  186.0120  178.3570  140.8420 O   0  0  0  0  0  0  0  0  0  0  0  0
  185.8020  178.1030  143.3460 N   0  0  0  0  0  2  0  0  0  0  0  0
  186.3800  178.0310  142.0000 C   0  0  0  0  0  0  0  0  0  0  0  0
  189.7960  176.1980  143.9010 C   0  0  2  0  0  3  0  0  0  0  0  0
  192.9840  176.3730  143.6330 C   0  0  0  0  0  1  0  0  0  0  0  0
  190.3690  174.4290  145.6440 C   0  0  0  0  0  2  0  0  0  0  0  0
  192.9520  175.4660  145.9450 C   0  0  0  0  0  2  0  0  0  0  0  0
  190.8910  175.3030  144.4850 C   0  0  2  0  0  3  0  0  0  0  0  0
  190.6410  175.0760  146.9980 C   0  0  0  0  0  2  0  0  0  0  0  0
  192.1220  176.1440  144.8600 C   0  0  2  0  0  3  0  0  0  0  0  0
  192.1440  175.2770  147.2360 C   0  0  0  0  0  2  0  0  0  0  0  0
  184.1160  178.8650  146.0100 C   0  0  0  0  0  1  0  0  0  0  0  0
  184.9230  177.8550  146.8000 C   0  0  1  0  0  3  0  0  0  0  0  0
  184.5800  176.5620  146.3990 O   0  0  0  0  0  1  0  0  0  0  0  0
  191.2690  171.4140  141.0720 C   0  0  0  0  0  2  0  0  0  0  0  0
  192.8080  171.3360  142.8880 O   0  0  0  0  0  1  0  0  0  0  0  0
  192.3890  172.1220  141.8130 C   0  0  1  0  0  3  0  0  0  0  0  0
  193.5030  172.3390  140.9020 N   0  0  0  0  0  2  0  0  0  0  0  0
  193.1060  174.6260  140.6490 O   0  0  0  0  0  0  0  0  0  0  0  0
  193.8130  173.6230  140.3560 C   0  0  0  0  0  0  0  0  0  0  0  0
  195.5470  172.7570  139.0020 O   0  0  0  0  0  0  0  0  0  0  0  0
  194.9560  173.7740  139.4500 C   0  0  0  0  0  0  0  0  0  0  0  0
  195.4070  175.0710  139.0700 N   0  0  0  0  0  1  0  0  0  0  0  0
  1 12  1  0  0  0  0
  2 15  1  0  0  0  0
  3  5  1  0  0  0  0
  4 16  1  1  0  0  0
  4 14  1  0  0  0  0
  5 29  1  0  0  0  0
  5 13  2  0  0  0  0
  6  2  1  6  0  0  0
  6  1  1  0  0  0  0
  6  4  1  0  0  0  0
  7 31  1  0  0  0  0
  7 16  1  0  0  0  0
  8 18  1  6  0  0  0
  8  9  1  0  0  0  0
  8  3  1  0  0  0  0
  9 11  1  1  0  0  0
  9  3  1  0  0  0  0
 10 19  1  6  0  0  0
 10  8  1  0  0  0  0
 10  9  1  0  0  0  0
 12 10  1  0  0  0  0
 12 14  2  0  0  0  0
 15  7  1  0  0  0  0
 17 19  2  0  0  0  0
 19 18  1  0  0  0  0
 20 14  1  6  0  0  0
 20 24  1  0  0  0  0
 20 11  1  0  0  0  0
 22 25  1  0  0  0  0
 23 27  1  0  0  0  0
 24 26  1  0  0  0  0
 24 22  1  1  0  0  0
 25 27  1  0  0  0  0
 26 21  1  6  0  0  0
 26 23  1  0  0  0  0
 29 28  1  6  0  0  0
 30 29  1  0  0  0  0
 31 33  1  0  0  0  0
 33 32  1  1  0  0  0
 34 33  1  0  0  0  0
 36 35  2  0  0  0  0
 36 34  1  0  0  0  0
 37 38  2  0  0  0  0
 38 36  1  0  0  0  0
 39 38  1  0  0  0  0
M  END
>  <MODEL>
3

>  <REMARK>
 VINA RESULT:      -7.8      1.997      2.313
  Name = 
  6 active torsions:
  status: ('A' for Active; 'I' for Inactive)
    1  A    between atoms: C_9  and  N_12
    2  A    between atoms: C_9  and  C_13
    3  A    between atoms: C_10  and  C_29
    4  A    between atoms: C_13  and  N_15
    5  A    between atoms: C_14  and  C_21
    6  A    between atoms: C_24  and  C_38
                            x       y       z     vdW  Elec       q    Type
                         _______ _______ _______ _____ _____    ______ ____

>  <TORSDO>
F 6

$$$$
=
 OpenBabel11072409133D

 39 45  0  0  1  0  0  0  0  0999 V2000
  190.9100  171.8370  142.4800 O   0  0  0  0  0  0  0  0  0  0  0  0
  188.6800  172.6700  141.6690 C   0  0  0  0  0  2  0  0  0  0  0  0
  195.1850  172.6030  145.0780 N   0  0  0  0  0  0  0  0  0  0  0  0
  190.0260  173.7430  143.4210 C   0  0  1  0  0  3  0  0  0  0  0  0
  196.5370  172.9230  145.3860 C   0  0  0  0  0  0  0  0  0  0  0  0
  190.0950  172.9430  142.1450 C   0  0  1  0  0  3  0  0  0  0  0  0
  188.6460  175.1810  141.9370 N   0  0  0  0  0  0  0  0  0  0  0  0
  194.0840  172.1170  144.0970 C   0  0  1  0  0  0  0  0  0  0  0  0
  193.8030  172.5740  145.4140 C   0  0  1  0  0  0  0  0  0  0  0  0
  192.7840  171.4450  144.2120 C   0  0  1  0  0  0  0  0  0  0  0  0
  193.3190  173.9090  145.3750 O   0  0  0  0  0  0  0  0  0  0  0  0
  191.7050  172.2440  143.5460 C   0  0  0  0  0  0  0  0  0  0  0  0
  196.8250  173.4010  146.5160 O   0  0  0  0  0  0  0  0  0  0  0  0
  191.3410  173.4220  144.0450 C   0  0  0  0  0  0  0  0  0  0  0  0
  187.8250  173.9490  141.8710 C   0  0  0  0  0  2  0  0  0  0  0  0
  189.6360  175.1680  143.0440 C   0  0  0  0  0  2  0  0  0  0  0  0
  192.8100  169.2420  142.9720 O   0  0  0  0  0  0  0  0  0  0  0  0
  194.6460  170.8200  143.6910 N   0  0  0  0  0  2  0  0  0  0  0  0
  193.2970  170.2840  143.4820 C   0  0  0  0  0  0  0  0  0  0  0  0
  191.9000  173.9050  145.3740 C   0  0  2  0  0  3  0  0  0  0  0  0
  189.3370  174.6930  147.1270 C   0  0  0  0  0  1  0  0  0  0  0  0
  192.4110  176.3920  145.6040 C   0  0  0  0  0  2  0  0  0  0  0  0
  190.7620  176.5910  147.8580 C   0  0  0  0  0  2  0  0  0  0  0  0
  191.3580  175.2780  145.7770 C   0  0  2  0  0  3  0  0  0  0  0  0
  193.1490  176.6700  146.9100 C   0  0  0  0  0  2  0  0  0  0  0  0
  190.7580  175.2180  147.1910 C   0  0  2  0  0  3  0  0  0  0  0  0
  192.1890  177.1370  148.0120 C   0  0  0  0  0  2  0  0  0  0  0  0
  197.9410  171.2500  144.2430 C   0  0  0  0  0  1  0  0  0  0  0  0
  197.5970  172.7210  144.3550 C   0  0  1  0  0  3  0  0  0  0  0  0
  197.1620  173.1990  143.1170 O   0  0  0  0  0  1  0  0  0  0  0  0
  187.7350  176.2820  142.2010 C   0  0  0  0  0  2  0  0  0  0  0  0
  189.1950  178.1570  142.0390 O   0  0  0  0  0  1  0  0  0  0  0  0
  188.4590  177.3900  142.9440 C   0  0  1  0  0  3  0  0  0  0  0  0
  187.4820  178.2330  143.6170 N   0  0  0  0  0  2  0  0  0  0  0  0
  187.3270  176.8780  145.5120 O   0  0  0  0  0  0  0  0  0  0  0  0
  186.9560  177.9220  144.9100 C   0  0  0  0  0  0  0  0  0  0  0  0
  185.5510  179.8240  144.9090 O   0  0  0  0  0  0  0  0  0  0  0  0
  185.9790  178.8190  145.5350 C   0  0  0  0  0  0  0  0  0  0  0  0
  185.5080  178.5630  146.8540 N   0  0  0  0  0  1  0  0  0  0  0  0
  1 12  1  0  0  0  0
  2 15  1  0  0  0  0
  3  5  1  0  0  0  0
  3  9  1  0  0  0  0
  4 16  1  6  0  0  0
  4 14  1  0  0  0  0
  5 13  2  0  0  0  0
  6  2  1  1  0  0  0
  6  1  1  0  0  0  0
  6  4  1  0  0  0  0
  7 31  1  0  0  0  0
  7 16  1  0  0  0  0
  8 18  1  1  0  0  0
  8 10  1  0  0  0  0
  8  3  1  0  0  0  0
  8  9  1  0  0  0  0
  9 11  1  6  0  0  0
 10 19  1  1  0  0  0
 10  9  1  0  0  0  0
 12 14  2  0  0  0  0
 12 10  1  0  0  0  0
 15  7  1  0  0  0  0
 17 19  2  0  0  0  0
 19 18  1  0  0  0  0
 20 14  1  6  0  0  0
 20 11  1  0  0  0  0
 20 24  1  0  0  0  0
 22 25  1  0  0  0  0
 23 27  1  0  0  0  0
 24 22  1  1  0  0  0
 24 26  1  0  0  0  0
 25 27  1  0  0  0  0
 26 21  1  6  0  0  0
 26 23  1  0  0  0  0
 29 28  1  6  0  0  0
 29  5  1  0  0  0  0
 30 29  1  0  0  0  0
 31 33  1  0  0  0  0
 33 32  1  6  0  0  0
 33 34  1  0  0  0  0
 34 36  1  0  0  0  0
 36 35  2  0  0  0  0
 36 38  1  0  0  0  0
 37 38  2  0  0  0  0
 38 39  1  0  0  0  0
M  END
>  <MODEL>
4

>  <REMARK>
 VINA RESULT:      -7.4      2.297      8.151
  Name = 
  6 active torsions:
  status: ('A' for Active; 'I' for Inactive)
    1  A    between atoms: C_9  and  N_12
    2  A    between atoms: C_9  and  C_13
    3  A    between atoms: C_10  and  C_29
    4  A    between atoms: C_13  and  N_15
    5  A    between atoms: C_14  and  C_21
    6  A    between atoms: C_24  and  C_38
                            x       y       z     vdW  Elec       q    Type
                         _______ _______ _______ _____ _____    ______ ____

>  <TORSDO>
F 6

$$$$
=
 OpenBabel11072409133D

 39 45  0  0  1  0  0  0  0  0999 V2000
  192.9450  176.7510  146.0840 O   0  0  0  0  0  0  0  0  0  0  0  0
  195.0940  176.1520  144.9230 C   0  0  0  0  0  2  0  0  0  0  0  0
  187.8870  176.9100  146.1160 N   0  0  0  0  0  0  0  0  0  0  0  0
  192.8650  175.3820  144.2340 C   0  0  1  0  0  3  0  0  0  0  0  0
  186.5510  177.3840  145.9820 C   0  0  0  0  0  0  0  0  0  0  0  0
  193.6230  176.5230  144.8640 C   0  0  1  0  0  3  0  0  0  0  0  0
  194.5780  175.7820  142.4780 N   0  0  0  0  0  0  0  0  0  0  0  0
  189.4030  177.1430  146.3520 C   0  0  1  0  0  0  0  0  0  0  0  0
  188.8530  175.8690  146.0430 C   0  0  1  0  0  0  0  0  0  0  0  0
  190.5240  176.3640  146.8920 C   0  0  1  0  0  0  0  0  0  0  0  0
  189.0620  175.5660  144.6710 O   0  0  0  0  0  0  0  0  0  0  0  0
  191.6480  176.2820  145.9040 C   0  0  0  0  0  0  0  0  0  0  0  0
  185.6280  176.5790  145.6880 O   0  0  0  0  0  0  0  0  0  0  0  0
  191.4930  175.6060  144.7700 C   0  0  0  0  0  0  0  0  0  0  0  0
  195.4890  175.4460  143.5980 C   0  0  0  0  0  2  0  0  0  0  0  0
  193.1640  175.4080  142.7390 C   0  0  0  0  0  2  0  0  0  0  0  0
  191.5220  177.5220  148.9060 O   0  0  0  0  0  0  0  0  0  0  0  0
  189.3640  177.8570  147.6370 N   0  0  0  0  0  2  0  0  0  0  0  0
  190.6780  177.3140  147.9960 C   0  0  0  0  0  0  0  0  0  0  0  0
  190.2370  174.7840  144.5250 C   0  0  2  0  0  3  0  0  0  0  0  0
  191.0960  171.7980  143.7430 C   0  0  0  0  0  1  0  0  0  0  0  0
  189.3880  174.8170  142.1220 C   0  0  0  0  0  2  0  0  0  0  0  0
  189.2970  172.0200  142.0440 C   0  0  0  0  0  2  0  0  0  0  0  0
  190.2490  174.0790  143.1670 C   0  0  2  0  0  3  0  0  0  0  0  0
  187.9820  174.2280  142.0400 C   0  0  0  0  0  2  0  0  0  0  0  0
  189.8740  172.5970  143.3330 C   0  0  2  0  0  3  0  0  0  0  0  0
  188.0140  172.7500  141.6250 C   0  0  0  0  0  2  0  0  0  0  0  0
  185.5530  179.3800  144.9350 C   0  0  0  0  0  1  0  0  0  0  0  0
  186.2630  178.8370  146.1590 C   0  0  1  0  0  3  0  0  0  0  0  0
  185.4690  179.0360  147.2900 O   0  0  0  0  0  1  0  0  0  0  0  0
  195.0130  175.0040  141.3320 C   0  0  0  0  0  2  0  0  0  0  0  0
  194.1660  175.3270  139.1290 O   0  0  0  0  0  1  0  0  0  0  0  0
  193.8520  174.7870  140.3780 C   0  0  1  0  0  3  0  0  0  0  0  0
  193.6030  173.3600  140.2430 N   0  0  0  0  0  2  0  0  0  0  0  0
  191.3630  173.6090  139.6330 O   0  0  0  0  0  0  0  0  0  0  0  0
  192.3300  172.8320  139.8610 C   0  0  0  0  0  0  0  0  0  0  0  0
  191.4850  170.9070  138.7770 O   0  0  0  0  0  0  0  0  0  0  0  0
  192.1480  171.3820  139.7370 C   0  0  0  0  0  0  0  0  0  0  0  0
  192.7200  170.5010  140.6980 N   0  0  0  0  0  1  0  0  0  0  0  0
  3  8  1  0  0  0  0
  4 16  1  6  0  0  0
  4 14  1  0  0  0  0
  4  6  1  0  0  0  0
  5  3  1  0  0  0  0
  5 29  1  0  0  0  0
  6  2  1  1  0  0  0
  6  1  1  0  0  0  0
  7 16  1  0  0  0  0
  7 15  1  0  0  0  0
  8 10  1  0  0  0  0
  8 18  1  1  0  0  0
  9 11  1  6  0  0  0
  9  3  1  0  0  0  0
  9  8  1  0  0  0  0
  9 10  1  0  0  0  0
 10 12  1  6  0  0  0
 10 19  1  0  0  0  0
 12  1  1  0  0  0  0
 13  5  2  0  0  0  0
 14 12  2  0  0  0  0
 15  2  1  0  0  0  0
 18 19  1  0  0  0  0
 19 17  2  0  0  0  0
 20 11  1  6  0  0  0
 20 14  1  0  0  0  0
 23 26  1  0  0  0  0
 24 22  1  6  0  0  0
 24 26  1  0  0  0  0
 24 20  1  0  0  0  0
 25 22  1  0  0  0  0
 26 21  1  6  0  0  0
 27 25  1  0  0  0  0
 27 23  1  0  0  0  0
 29 28  1  6  0  0  0
 29 30  1  0  0  0  0
 31  7  1  0  0  0  0
 33 32  1  6  0  0  0
 33 31  1  0  0  0  0
 34 33  1  0  0  0  0
 35 36  2  0  0  0  0
 36 34  1  0  0  0  0
 37 38  2  0  0  0  0
 38 36  1  0  0  0  0
 38 39  1  0  0  0  0
M  END
>  <MODEL>
5

>  <REMARK>
 VINA RESULT:      -7.4      2.646      5.196
  Name = 
  6 active torsions:
  status: ('A' for Active; 'I' for Inactive)
    1  A    between atoms: C_9  and  N_12
    2  A    between atoms: C_9  and  C_13
    3  A    between atoms: C_10  and  C_29
    4  A    between atoms: C_13  and  N_15
    5  A    between atoms: C_14  and  C_21
    6  A    between atoms: C_24  and  C_38
                            x       y       z     vdW  Elec       q    Type
                         _______ _______ _______ _____ _____    ______ ____

>  <TORSDO>
F 6

$$$$
=
 OpenBabel11072409133D

 39 45  0  0  1  0  0  0  0  0999 V2000
  187.8160  175.5910  140.8080 O   0  0  0  0  0  0  0  0  0  0  0  0
  188.9890  173.9070  139.3540 C   0  0  0  0  0  2  0  0  0  0  0  0
  187.0990  177.7050  145.3490 N   0  0  0  0  0  0  0  0  0  0  0  0
  189.6890  174.5300  141.6240 C   0  0  1  0  0  3  0  0  0  0  0  0
  186.5500  177.9980  146.6290 C   0  0  0  0  0  0  0  0  0  0  0  0
  188.4970  174.3540  140.7180 C   0  0  1  0  0  3  0  0  0  0  0  0
  190.0650  172.1930  140.8660 N   0  0  0  0  0  0  0  0  0  0  0  0
  186.9710  177.1830  143.8930 C   0  0  1  0  0  0  0  0  0  0  0  0
  188.2080  177.5850  144.4670 C   0  0  1  0  0  0  0  0  0  0  0  0
  187.6530  177.4250  142.6160 C   0  0  1  0  0  0  0  0  0  0  0  0
  188.9580  176.4450  144.8620 O   0  0  0  0  0  0  0  0  0  0  0  0
  188.1720  176.1460  142.0310 C   0  0  0  0  0  0  0  0  0  0  0  0
  187.3000  178.4130  147.5530 O   0  0  0  0  0  0  0  0  0  0  0  0
  189.1550  175.4860  142.6350 C   0  0  0  0  0  0  0  0  0  0  0  0
  190.1220  172.8630  139.5450 C   0  0  0  0  0  2  0  0  0  0  0  0
  190.1770  173.1370  142.0070 C   0  0  0  0  0  2  0  0  0  0  0  0
  186.0260  178.3070  140.8930 O   0  0  0  0  0  0  0  0  0  0  0  0
  185.8820  178.0390  143.4000 N   0  0  0  0  0  2  0  0  0  0  0  0
  186.4220  177.9690  142.0390 C   0  0  0  0  0  0  0  0  0  0  0  0
  189.8690  176.0890  143.8350 C   0  0  2  0  0  3  0  0  0  0  0  0
  192.9690  175.8770  143.0550 C   0  0  0  0  0  1  0  0  0  0  0  0
  190.5820  174.5500  145.7380 C   0  0  0  0  0  2  0  0  0  0  0  0
  193.2550  175.3360  145.4630 C   0  0  0  0  0  2  0  0  0  0  0  0
  190.9700  175.1790  144.3840 C   0  0  2  0  0  3  0  0  0  0  0  0
  191.1300  175.3610  146.9090 C   0  0  0  0  0  2  0  0  0  0  0  0
  192.3110  175.9300  144.4210 C   0  0  2  0  0  3  0  0  0  0  0  0
  192.6630  175.4320  146.8760 C   0  0  0  0  0  2  0  0  0  0  0  0
  184.2770  178.8000  146.1110 C   0  0  0  0  0  1  0  0  0  0  0  0
  185.0950  177.7790  146.8750 C   0  0  1  0  0  3  0  0  0  0  0  0
  184.7280  176.4910  146.4790 O   0  0  0  0  0  1  0  0  0  0  0  0
  191.2140  171.3070  140.9390 C   0  0  0  0  0  2  0  0  0  0  0  0
  193.3370  172.3220  140.5730 O   0  0  0  0  0  1  0  0  0  0  0  0
  192.2590  171.7230  139.9190 C   0  0  1  0  0  3  0  0  0  0  0  0
  192.7180  170.5470  139.1960 N   0  0  0  0  0  2  0  0  0  0  0  0
  192.0830  171.3480  137.0970 O   0  0  0  0  0  0  0  0  0  0  0  0
  192.6040  170.4220  137.7760 C   0  0  0  0  0  0  0  0  0  0  0  0
  192.3940  168.1660  137.1000 O   0  0  0  0  0  0  0  0  0  0  0  0
  193.0950  169.2120  137.1090 C   0  0  0  0  0  0  0  0  0  0  0  0
  194.3660  169.2100  136.4670 N   0  0  0  0  0  1  0  0  0  0  0  0
  1 12  1  0  0  0  0
  2 15  1  0  0  0  0
  3  5  1  0  0  0  0
  4 16  1  1  0  0  0
  4 14  1  0  0  0  0
  5 29  1  0  0  0  0
  5 13  2  0  0  0  0
  6  2  1  6  0  0  0
  6  1  1  0  0  0  0
  6  4  1  0  0  0  0
  7 31  1  0  0  0  0
  7 16  1  0  0  0  0
  8 18  1  6  0  0  0
  8  9  1  0  0  0  0
  8  3  1  0  0  0  0
  9 11  1  1  0  0  0
  9  3  1  0  0  0  0
 10 12  1  6  0  0  0
 10  8  1  0  0  0  0
 10  9  1  0  0  0  0
 12 14  2  0  0  0  0
 15  7  1  0  0  0  0
 17 19  2  0  0  0  0
 19 10  1  0  0  0  0
 19 18  1  0  0  0  0
 20 14  1  6  0  0  0
 20 24  1  0  0  0  0
 20 11  1  0  0  0  0
 22 25  1  0  0  0  0
 23 27  1  0  0  0  0
 24 26  1  0  0  0  0
 24 22  1  1  0  0  0
 26 21  1  6  0  0  0
 26 23  1  0  0  0  0
 27 25  1  0  0  0  0
 29 28  1  6  0  0  0
 30 29  1  0  0  0  0
 33 32  1  1  0  0  0
 33 31  1  0  0  0  0
 34 33  1  0  0  0  0
 35 36  2  0  0  0  0
 36 34  1  0  0  0  0
 37 38  2  0  0  0  0
 38 36  1  0  0  0  0
 39 38  1  0  0  0  0
M  END
>  <MODEL>
6

>  <REMARK>
 VINA RESULT:      -7.4      2.060      2.952
  Name = 
  6 active torsions:
  status: ('A' for Active; 'I' for Inactive)
    1  A    between atoms: C_9  and  N_12
    2  A    between atoms: C_9  and  C_13
    3  A    between atoms: C_10  and  C_29
    4  A    between atoms: C_13  and  N_15
    5  A    between atoms: C_14  and  C_21
    6  A    between atoms: C_24  and  C_38
                            x       y       z     vdW  Elec       q    Type
                         _______ _______ _______ _____ _____    ______ ____

>  <TORSDO>
F 6

$$$$
=
 OpenBabel11072409133D

 39 45  0  0  1  0  0  0  0  0999 V2000
  192.9080  176.9430  146.1890 O   0  0  0  0  0  0  0  0  0  0  0  0
  195.0470  176.4160  144.9760 C   0  0  0  0  0  2  0  0  0  0  0  0
  187.8500  176.9020  146.3590 N   0  0  0  0  0  0  0  0  0  0  0  0
  192.8330  175.5500  144.3580 C   0  0  1  0  0  3  0  0  0  0  0  0
  186.4940  177.3210  146.2560 C   0  0  0  0  0  0  0  0  0  0  0  0
  193.5610  176.7270  144.9530 C   0  0  1  0  0  3  0  0  0  0  0  0
  194.4800  175.9960  142.5500 N   0  0  0  0  0  0  0  0  0  0  0  0
  189.3620  177.1980  146.5500 C   0  0  1  0  0  0  0  0  0  0  0  0
  188.8550  175.8990  146.2710 C   0  0  1  0  0  0  0  0  0  0  0  0
  190.5270  176.4710  147.0680 C   0  0  1  0  0  0  0  0  0  0  0  0
  189.0390  175.5870  144.8970 O   0  0  0  0  0  0  0  0  0  0  0  0
  191.6270  176.4210  146.0500 C   0  0  0  0  0  0  0  0  0  0  0  0
  185.5960  176.4760  145.9970 O   0  0  0  0  0  0  0  0  0  0  0  0
  191.4680  175.7250  144.9290 C   0  0  0  0  0  0  0  0  0  0  0  0
  195.4340  175.7100  143.6490 C   0  0  0  0  0  2  0  0  0  0  0  0
  193.0900  175.5690  142.8550 C   0  0  0  0  0  2  0  0  0  0  0  0
  191.5320  177.6930  149.0400 O   0  0  0  0  0  0  0  0  0  0  0  0
  189.3290  177.9260  147.8270 N   0  0  0  0  0  2  0  0  0  0  0  0
  190.6720  177.4400  148.1570 C   0  0  0  0  0  0  0  0  0  0  0  0
  190.2400  174.8510  144.7280 C   0  0  2  0  0  3  0  0  0  0  0  0
  190.9120  171.8030  144.0030 C   0  0  0  0  0  1  0  0  0  0  0  0
  189.4670  174.9130  142.3000 C   0  0  0  0  0  2  0  0  0  0  0  0
  189.1840  172.1280  142.2480 C   0  0  0  0  0  2  0  0  0  0  0  0
  190.2440  174.1300  143.3790 C   0  0  2  0  0  3  0  0  0  0  0  0
  188.0270  174.4210  142.1810 C   0  0  0  0  0  2  0  0  0  0  0  0
  189.7610  172.6800  143.5480 C   0  0  2  0  0  3  0  0  0  0  0  0
  187.9680  172.9400  141.7820 C   0  0  0  0  0  2  0  0  0  0  0  0
  185.5470  179.3080  145.1460 C   0  0  0  0  0  1  0  0  0  0  0  0
  186.1520  178.7630  146.4240 C   0  0  1  0  0  3  0  0  0  0  0  0
  185.2500  178.9250  147.4780 O   0  0  0  0  0  1  0  0  0  0  0  0
  194.9150  175.2210  141.4020 C   0  0  0  0  0  2  0  0  0  0  0  0
  193.6590  173.6350  140.1440 O   0  0  0  0  0  1  0  0  0  0  0  0
  194.2300  173.8660  141.3970 C   0  0  1  0  0  3  0  0  0  0  0  0
  195.2120  172.8320  141.6840 N   0  0  0  0  0  2  0  0  0  0  0  0
  194.3720  172.3500  143.8100 O   0  0  0  0  0  0  0  0  0  0  0  0
  195.2260  172.1030  142.9150 C   0  0  0  0  0  0  0  0  0  0  0  0
  195.9160  169.8500  143.1140 O   0  0  0  0  0  0  0  0  0  0  0  0
  196.2400  171.0660  143.1370 C   0  0  0  0  0  0  0  0  0  0  0  0
  197.5960  171.4270  143.3810 N   0  0  0  0  0  1  0  0  0  0  0  0
  3  8  1  0  0  0  0
  4 16  1  6  0  0  0
  4 14  1  0  0  0  0
  4  6  1  0  0  0  0
  5  3  1  0  0  0  0
  5 29  1  0  0  0  0
  6  2  1  1  0  0  0
  6  1  1  0  0  0  0
  7 16  1  0  0  0  0
  7 15  1  0  0  0  0
  8 10  1  0  0  0  0
  8 18  1  1  0  0  0
  9 11  1  6  0  0  0
  9  3  1  0  0  0  0
  9  8  1  0  0  0  0
  9 10  1  0  0  0  0
 10 12  1  6  0  0  0
 10 19  1  0  0  0  0
 12  1  1  0  0  0  0
 13  5  2  0  0  0  0
 14 12  2  0  0  0  0
 15  2  1  0  0  0  0
 18 19  1  0  0  0  0
 19 17  2  0  0  0  0
 20 11  1  6  0  0  0
 20 14  1  0  0  0  0
 23 26  1  0  0  0  0
 24 22  1  6  0  0  0
 24 26  1  0  0  0  0
 24 20  1  0  0  0  0
 25 22  1  0  0  0  0
 26 21  1  6  0  0  0
 27 25  1  0  0  0  0
 27 23  1  0  0  0  0
 29 28  1  6  0  0  0
 29 30  1  0  0  0  0
 31  7  1  0  0  0  0
 33 32  1  6  0  0  0
 33 31  1  0  0  0  0
 33 34  1  0  0  0  0
 34 36  1  0  0  0  0
 36 38  1  0  0  0  0
 36 35  2  0  0  0  0
 37 38  2  0  0  0  0
 38 39  1  0  0  0  0
M  END
>  <MODEL>
7

>  <REMARK>
 VINA RESULT:      -7.3      2.622      4.870
  Name = 
  6 active torsions:
  status: ('A' for Active; 'I' for Inactive)
    1  A    between atoms: C_9  and  N_12
    2  A    between atoms: C_9  and  C_13
    3  A    between atoms: C_10  and  C_29
    4  A    between atoms: C_13  and  N_15
    5  A    between atoms: C_14  and  C_21
    6  A    between atoms: C_24  and  C_38
                            x       y       z     vdW  Elec       q    Type
                         _______ _______ _______ _____ _____    ______ ____

>  <TORSDO>
F 6

$$$$
=
 OpenBabel11072409133D

 39 45  0  0  1  0  0  0  0  0999 V2000
  193.0340  176.7950  146.3470 O   0  0  0  0  0  0  0  0  0  0  0  0
  195.2080  176.1770  145.2430 C   0  0  0  0  0  2  0  0  0  0  0  0
  187.9760  176.9060  146.2910 N   0  0  0  0  0  0  0  0  0  0  0  0
  192.9990  175.3610  144.5460 C   0  0  1  0  0  3  0  0  0  0  0  0
  186.6380  177.3610  146.1180 C   0  0  0  0  0  0  0  0  0  0  0  0
  193.7360  176.5310  145.1470 C   0  0  1  0  0  3  0  0  0  0  0  0
  194.7370  175.7160  142.8050 N   0  0  0  0  0  0  0  0  0  0  0  0
  189.4860  177.1620  146.5420 C   0  0  1  0  0  0  0  0  0  0  0  0
  188.9530  175.8720  146.2700 C   0  0  1  0  0  0  0  0  0  0  0  0
  190.6040  176.4140  147.1290 C   0  0  1  0  0  0  0  0  0  0  0  0
  189.1880  175.5230  144.9140 O   0  0  0  0  0  0  0  0  0  0  0  0
  191.7460  176.3070  146.1630 C   0  0  0  0  0  0  0  0  0  0  0  0
  185.7270  176.5370  145.8380 O   0  0  0  0  0  0  0  0  0  0  0  0
  191.6160  175.5900  145.0510 C   0  0  0  0  0  0  0  0  0  0  0  0
  195.6320  175.4290  143.9510 C   0  0  0  0  0  2  0  0  0  0  0  0
  193.3220  175.3380  143.0560 C   0  0  0  0  0  2  0  0  0  0  0  0
  191.5570  177.6520  149.1160 O   0  0  0  0  0  0  0  0  0  0  0  0
  189.4190  177.9210  147.8000 N   0  0  0  0  0  2  0  0  0  0  0  0
  190.7310  177.4040  148.2010 C   0  0  0  0  0  0  0  0  0  0  0  0
  190.3720  174.7480  144.8150 C   0  0  2  0  0  3  0  0  0  0  0  0
  191.1570  171.7090  144.1700 C   0  0  0  0  0  1  0  0  0  0  0  0
  189.6200  174.7240  142.3800 C   0  0  0  0  0  2  0  0  0  0  0  0
  189.4350  171.9310  142.3930 C   0  0  0  0  0  2  0  0  0  0  0  0
  190.4130  173.9950  143.4840 C   0  0  2  0  0  3  0  0  0  0  0  0
  188.2000  174.1800  142.2610 C   0  0  0  0  0  2  0  0  0  0  0  0
  189.9800  172.5340  143.6840 C   0  0  2  0  0  3  0  0  0  0  0  0
  188.1960  172.6890  141.8980 C   0  0  0  0  0  2  0  0  0  0  0  0
  185.5860  179.2960  145.0090 C   0  0  0  0  0  1  0  0  0  0  0  0
  186.3330  178.8170  146.2380 C   0  0  1  0  0  3  0  0  0  0  0  0
  185.5640  179.0550  147.3790 O   0  0  0  0  0  1  0  0  0  0  0  0
  195.1990  174.9020  141.6940 C   0  0  0  0  0  2  0  0  0  0  0  0
  196.4470  176.7740  140.9160 O   0  0  0  0  0  1  0  0  0  0  0  0
  195.5490  175.7850  140.5110 C   0  0  1  0  0  3  0  0  0  0  0  0
  196.1550  174.9710  139.4690 N   0  0  0  0  0  2  0  0  0  0  0  0
  194.4080  175.2670  137.9480 O   0  0  0  0  0  0  0  0  0  0  0  0
  195.5320  174.7540  138.2000 C   0  0  0  0  0  0  0  0  0  0  0  0
  197.1310  173.1470  137.5260 O   0  0  0  0  0  0  0  0  0  0  0  0
  196.2020  173.9280  137.1900 C   0  0  0  0  0  0  0  0  0  0  0  0
  195.8090  174.0030  135.8230 N   0  0  0  0  0  1  0  0  0  0  0  0
  3  8  1  0  0  0  0
  4 16  1  6  0  0  0
  4 14  1  0  0  0  0
  4  6  1  0  0  0  0
  5 29  1  0  0  0  0
  5  3  1  0  0  0  0
  6  2  1  1  0  0  0
  6  1  1  0  0  0  0
  7 16  1  0  0  0  0
  7 15  1  0  0  0  0
  8 10  1  0  0  0  0
  8 18  1  1  0  0  0
  9 11  1  6  0  0  0
  9  3  1  0  0  0  0
  9  8  1  0  0  0  0
  9 10  1  0  0  0  0
 10 12  1  6  0  0  0
 10 19  1  0  0  0  0
 12  1  1  0  0  0  0
 13  5  2  0  0  0  0
 14 12  2  0  0  0  0
 15  2  1  0  0  0  0
 18 19  1  0  0  0  0
 19 17  2  0  0  0  0
 20 11  1  6  0  0  0
 20 14  1  0  0  0  0
 23 26  1  0  0  0  0
 24 22  1  6  0  0  0
 24 26  1  0  0  0  0
 24 20  1  0  0  0  0
 25 22  1  0  0  0  0
 26 21  1  6  0  0  0
 27 25  1  0  0  0  0
 27 23  1  0  0  0  0
 29 28  1  6  0  0  0
 29 30  1  0  0  0  0
 31  7  1  0  0  0  0
 33 32  1  1  0  0  0
 33 31  1  0  0  0  0
 34 33  1  0  0  0  0
 35 36  2  0  0  0  0
 36 34  1  0  0  0  0
 38 37  2  0  0  0  0
 38 36  1  0  0  0  0
 39 38  1  0  0  0  0
M  END
>  <MODEL>
8

>  <REMARK>
 VINA RESULT:      -7.3      3.670      5.958
  Name = 
  6 active torsions:
  status: ('A' for Active; 'I' for Inactive)
    1  A    between atoms: C_9  and  N_12
    2  A    between atoms: C_9  and  C_13
    3  A    between atoms: C_10  and  C_29
    4  A    between atoms: C_13  and  N_15
    5  A    between atoms: C_14  and  C_21
    6  A    between atoms: C_24  and  C_38
                            x       y       z     vdW  Elec       q    Type
                         _______ _______ _______ _____ _____    ______ ____

>  <TORSDO>
F 6

$$$$
=
 OpenBabel11072409133D

 39 45  0  0  1  0  0  0  0  0999 V2000
  190.8400  173.2860  140.8740 O   0  0  0  0  0  0  0  0  0  0  0  0
  188.3400  173.5590  140.8470 C   0  0  0  0  0  2  0  0  0  0  0  0
  195.3600  174.5590  142.7610 N   0  0  0  0  0  0  0  0  0  0  0  0
  189.8260  174.4190  142.6030 C   0  0  1  0  0  3  0  0  0  0  0  0
  196.6260  175.1890  142.9190 C   0  0  0  0  0  0  0  0  0  0  0  0
  189.7230  174.1150  141.1300 C   0  0  1  0  0  3  0  0  0  0  0  0
  187.7820  175.7150  142.0390 N   0  0  0  0  0  0  0  0  0  0  0  0
  194.1770  174.0680  141.8830 C   0  0  1  0  0  0  0  0  0  0  0  0
  194.1770  173.9840  143.3020 C   0  0  1  0  0  0  0  0  0  0  0  0
  193.1620  173.0120  141.9670 C   0  0  1  0  0  0  0  0  0  0  0  0
  193.3960  175.0340  143.8540 O   0  0  0  0  0  0  0  0  0  0  0  0
  191.7800  173.5820  141.8540 C   0  0  0  0  0  0  0  0  0  0  0  0
  197.0970  175.3650  144.0750 O   0  0  0  0  0  0  0  0  0  0  0  0
  191.3000  174.3660  142.8150 C   0  0  0  0  0  0  0  0  0  0  0  0
  187.2950  174.3660  141.6630 C   0  0  0  0  0  2  0  0  0  0  0  0
  189.0170  175.6840  142.8640 C   0  0  0  0  0  2  0  0  0  0  0  0
  193.3650  171.4260  140.0090 O   0  0  0  0  0  0  0  0  0  0  0  0
  194.8950  173.2130  140.9260 N   0  0  0  0  0  2  0  0  0  0  0  0
  193.7120  172.3600  140.7760 C   0  0  0  0  0  0  0  0  0  0  0  0
  192.0780  174.5730  144.1050 C   0  0  2  0  0  3  0  0  0  0  0  0
  189.6550  173.9960  146.1210 C   0  0  0  0  0  1  0  0  0  0  0  0
  192.1710  176.7830  145.3720 C   0  0  0  0  0  2  0  0  0  0  0  0
  190.8070  175.6700  147.5490 C   0  0  0  0  0  2  0  0  0  0  0  0
  191.3590  175.5030  145.0840 C   0  0  2  0  0  3  0  0  0  0  0  0
  193.0070  176.6400  146.6410 C   0  0  0  0  0  2  0  0  0  0  0  0
  190.9590  174.7340  146.3540 C   0  0  2  0  0  3  0  0  0  0  0  0
  192.1240  176.3890  147.8710 C   0  0  0  0  0  2  0  0  0  0  0  0
  197.9370  174.4870  140.9530 C   0  0  0  0  0  1  0  0  0  0  0  0
  197.3690  175.6660  141.7170 C   0  0  1  0  0  3  0  0  0  0  0  0
  196.5200  176.4000  140.8860 O   0  0  0  0  0  1  0  0  0  0  0  0
  186.7470  176.3250  142.8540 C   0  0  0  0  0  2  0  0  0  0  0  0
  187.0240  178.6230  142.2910 O   0  0  0  0  0  1  0  0  0  0  0  0
  187.1940  177.6980  143.3230 C   0  0  1  0  0  3  0  0  0  0  0  0
  186.3950  178.0960  144.4720 N   0  0  0  0  0  2  0  0  0  0  0  0
  187.9080  177.2830  146.0540 O   0  0  0  0  0  0  0  0  0  0  0  0
  186.8130  177.8620  145.8200 C   0  0  0  0  0  0  0  0  0  0  0  0
  186.4670  178.5200  148.0650 O   0  0  0  0  0  0  0  0  0  0  0  0
  185.9630  178.2960  146.9330 C   0  0  0  0  0  0  0  0  0  0  0  0
  184.5620  178.4680  146.7440 N   0  0  0  0  0  1  0  0  0  0  0  0
  1  6  1  0  0  0  0
  1 12  1  0  0  0  0
  2 15  1  0  0  0  0
  3  5  1  0  0  0  0
  3  9  1  0  0  0  0
  4 14  1  0  0  0  0
  4 16  1  6  0  0  0
  5 13  2  0  0  0  0
  6  2  1  1  0  0  0
  6  4  1  0  0  0  0
  7 31  1  0  0  0  0
  7 16  1  0  0  0  0
  8 18  1  1  0  0  0
  8 10  1  0  0  0  0
  8  3  1  0  0  0  0
  8  9  1  0  0  0  0
  9 11  1  1  0  0  0
 10 19  1  6  0  0  0
 10  9  1  0  0  0  0
 11 20  1  0  0  0  0
 12 10  1  0  0  0  0
 12 14  2  0  0  0  0
 15  7  1  0  0  0  0
 17 19  2  0  0  0  0
 19 18  1  0  0  0  0
 20 14  1  6  0  0  0
 20 24  1  0  0  0  0
 22 25  1  0  0  0  0
 23 27  1  0  0  0  0
 24 22  1  1  0  0  0
 24 26  1  0  0  0  0
 25 27  1  0  0  0  0
 26 21  1  6  0  0  0
 26 23  1  0  0  0  0
 29 28  1  6  0  0  0
 29  5  1  0  0  0  0
 30 29  1  0  0  0  0
 31 33  1  0  0  0  0
 33 32  1  6  0  0  0
 33 34  1  0  0  0  0
 34 36  1  0  0  0  0
 36 35  2  0  0  0  0
 36 38  1  0  0  0  0
 38 37  2  0  0  0  0
 39 38  1  0  0  0  0
M  END
>  <MODEL>
9

>  <REMARK>
 VINA RESULT:      -7.2      2.887      7.916
  Name = 
  6 active torsions:
  status: ('A' for Active; 'I' for Inactive)
    1  A    between atoms: C_9  and  N_12
    2  A    between atoms: C_9  and  C_13
    3  A    between atoms: C_10  and  C_29
    4  A    between atoms: C_13  and  N_15
    5  A    between atoms: C_14  and  C_21
    6  A    between atoms: C_24  and  C_38
                            x       y       z     vdW  Elec       q    Type
                         _______ _______ _______ _____ _____    ______ ____

>  <TORSDO>
F 6

$$$$
