=
 OpenBabel11062423023D

 62 73  0  0  1  0  0  0  0  0999 V2000
  190.2000  173.9250  142.7430 C   0  0  0  0  0  2  0  0  0  0  0  0
  186.8050  177.5240  141.0430 C   0  0  0  0  0  0  0  0  0  0  0  0
  188.2170  175.4880  140.8000 C   0  0  1  0  0  3  0  0  0  0  0  0
  193.3850  172.2320  140.2880 C   0  0  2  0  0  3  0  0  0  0  0  0
  187.8880  175.1870  142.2980 C   0  0  2  0  0  3  0  0  0  0  0  0
  187.7660  176.4680  143.1400 C   0  0  1  0  0  3  0  0  0  0  0  0
  190.8910  172.9950  140.2270 C   0  0  2  0  0  0  0  0  0  0  0  0
  193.4150  172.5410  138.7910 C   0  0  2  0  0  3  0  0  0  0  0  0
  189.4380  173.2710  140.6140 C   0  0  2  0  0  3  0  0  0  0  0  0
  190.8460  170.6870  139.2930 C   0  0  0  0  0  2  0  0  0  0  0  0
  188.6920  174.1030  143.0780 C   0  0  0  0  0  2  0  0  0  0  0  0
  190.8850  171.4950  140.6080 C   0  0  1  0  0  3  0  0  0  0  0  0
  192.1780  170.2770  138.6890 C   0  0  0  0  0  2  0  0  0  0  0  0
  188.5770  174.2930  139.8820 C   0  0  0  0  0  2  0  0  0  0  0  0
  192.7940  171.4730  137.9720 C   0  0  2  0  0  0  0  0  0  0  0  0
  187.1200  176.3380  140.1750 C   0  0  0  0  0  2  0  0  0  0  0  0
  190.4970  174.0930  141.2490 C   0  0  1  0  0  3  0  0  0  0  0  0
  194.1860  171.5400  138.1520 O   0  0  0  0  0  0  0  0  0  0  0  0
  185.9620  178.3260  140.6830 O   0  0  0  0  0  0  0  0  0  0  0  0
  187.5530  177.7600  142.3290 C   0  0  0  0  0  2  0  0  0  0  0  0
  192.0300  172.3590  141.0400 C   0  0  1  0  0  3  0  0  0  0  0  0
  186.6510  176.3000  144.1640 C   0  0  0  0  0  2  0  0  0  0  0  0
  185.3860  179.0900  146.5020 C   0  0  0  0  0  2  0  0  0  0  0  0
  185.4650  178.1530  145.2890 C   0  0  0  0  0  2  0  0  0  0  0  0
  186.2560  177.2070  147.7380 O   0  0  0  0  0  0  0  0  0  0  0  0
  186.7520  177.3360  145.2740 C   0  0  1  0  0  3  0  0  0  0  0  0
  186.9720  176.6460  146.6440 C   0  0  1  0  0  3  0  0  0  0  0  0
  186.2820  178.6130  147.6460 C   0  0  0  0  0  2  0  0  0  0  0  0
  189.3130  177.6140  146.5850 C   0  0  0  0  0  2  0  0  0  0  0  0
  188.4510  176.4000  146.9610 C   0  0  2  0  0  3  0  0  0  0  0  0
  190.0860  177.3760  145.2890 C   0  0  0  0  0  2  0  0  0  0  0  0
  190.9260  173.8190  145.8560 F   0  0  0  0  0  0  0  0  0  0  0  0
  190.4920  175.0490  146.3220 C   0  0  2  0  0  3  0  0  0  0  0  0
  188.9660  175.0640  146.4110 C   0  0  0  0  0  2  0  0  0  0  0  0
  191.0260  176.1590  145.4040 C   0  0  2  0  0  3  0  0  0  0  0  0
  193.2620  177.0100  144.9180 O   0  0  0  0  0  0  0  0  0  0  0  0
  192.3500  176.5720  145.8540 N   0  0  0  0  0  0  0  0  0  0  0  0
  192.7510  176.2530  146.9910 O   0  0  0  0  0  0  0  0  0  0  0  0
  194.5480  172.7490  140.9270 O   0  0  0  0  0  0  0  0  0  0  0  0
  194.9170  172.0630  142.1150 C   0  0  1  0  0  0  0  0  0  0  0  0
  194.0950  173.8000  143.3120 O   0  0  0  0  0  0  0  0  0  0  0  0
  195.0470  172.7930  143.4940 C   0  0  0  0  0  0  0  0  0  0  0  0
  194.7690  170.5420  142.1110 C   0  0  0  0  0  1  0  0  0  0  0  0
  195.3000  174.1560  143.6740 O   0  0  0  0  0  0  0  0  0  0  0  0
  196.2410  172.5490  142.5490 C   0  0  1  0  0  3  0  0  0  0  0  0
  197.4540  172.0420  144.3240 C   0  0  0  0  0  1  0  0  0  0  0  0
  197.0540  171.5420  143.0840 O   0  0  0  0  0  0  0  0  0  0  0  0
  192.4010  171.8360  136.5380 C   0  0  2  0  0  3  0  0  0  0  0  0
  190.9760  172.1830  136.4260 N   0  0  0  0  0  0  0  0  0  0  0  0
  190.8680  173.4530  135.7150 C   0  0  0  0  0  2  0  0  0  0  0  0
  189.6040  173.4020  134.9010 C   0  0  0  0  0  2  0  0  0  0  0  0
  190.2320  171.1990  135.6330 C   0  0  0  0  0  2  0  0  0  0  0  0
  189.4320  171.9380  134.5810 C   0  0  0  0  0  2  0  0  0  0  0  0
  192.8840  170.7970  135.5130 C   0  0  0  0  0  2  0  0  0  0  0  0
  193.8300  171.4410  134.5130 C   0  0  0  0  0  2  0  0  0  0  0  0
  195.2500  171.1930  134.9070 C   0  0  0  0  0  0  0  0  0  0  0  0
  195.6210  169.9710  135.2550 C   0  0  0  0  0  2  0  0  0  0  0  0
  196.1910  172.2260  134.9380 O   0  0  0  0  0  0  0  0  0  0  0  0
  195.8370  173.5990  134.8230 C   0  0  0  0  0  2  0  0  0  0  0  0
  195.6080  174.2010  136.2000 C   0  0  0  0  0  3  0  0  0  0  0  0
  194.3450  175.0360  136.1680 C   0  0  0  0  0  2  0  0  0  0  0  0
  195.6980  175.7110  136.1070 C   0  0  0  0  0  2  0  0  0  0  0  0
  1 11  1  0  0  0  0
  2 20  1  0  0  0  0
  3 14  1  6  0  0  0
  3  5  1  0  0  0  0
  4 39  1  1  0  0  0
  4 21  1  0  0  0  0
  5 11  1  1  0  0  0
  5  6  1  0  0  0  0
  6 22  1  1  0  0  0
  7 12  1  0  0  0  0
  7  9  1  0  0  0  0
  7 21  1  0  0  0  0
  7 17  1  0  0  0  0
  8  4  1  0  0  0  0
  9 17  1  0  0  0  0
 10 12  1  0  0  0  0
 12 21  1  0  0  0  0
 13 10  1  0  0  0  0
 14  9  1  0  0  0  0
 15 18  1  0  0  0  0
 15 13  1  0  0  0  0
 15  8  1  0  0  0  0
 16  3  1  0  0  0  0
 16  2  1  0  0  0  0
 17  1  1  0  0  0  0
 18  8  1  0  0  0  0
 19  2  2  0  0  0  0
 20  6  1  0  0  0  0
 22 26  1  0  0  0  0
 23 28  1  0  0  0  0
 24 23  1  0  0  0  0
 26 24  1  0  0  0  0
 26 27  1  0  0  0  0
 27 30  1  0  0  0  0
 27 25  1  0  0  0  0
 28 25  1  0  0  0  0
 29 30  1  0  0  0  0
 31 35  1  0  0  0  0
 31 29  1  0  0  0  0
 32 33  1  0  0  0  0
 33 34  1  0  0  0  0
 34 30  1  0  0  0  0
 35 37  1  0  0  0  0
 35 33  1  0  0  0  0
 36 37  2  0  0  0  0
 37 38  2  0  0  0  0
 39 40  1  0  0  0  0
 40 45  1  0  0  0  0
 40 42  1  0  0  0  0
 41 42  1  0  0  0  0
 41 44  1  0  0  0  0
 42 44  1  0  0  0  0
 43 40  1  0  0  0  0
 45 47  1  0  0  0  0
 45 42  1  0  0  0  0
 47 46  1  0  0  0  0
 48 15  1  0  0  0  0
 49 48  1  0  0  0  0
 50 49  1  0  0  0  0
 51 50  1  0  0  0  0
 52 49  1  0  0  0  0
 53 51  1  0  0  0  0
 53 52  1  0  0  0  0
 54 48  1  0  0  0  0
 55 56  1  0  0  0  0
 55 54  1  0  0  0  0
 56 58  1  0  0  0  0
 56 57  2  0  0  0  0
 59 58  1  0  0  0  0
 59 60  1  0  0  0  0
 61 60  1  0  0  0  0
 62 61  1  0  0  0  0
 62 60  1  0  0  0  0
M  END
>  <MODEL>
1

>  <REMARK>
 VINA RESULT:      -7.2      0.000      0.000
  Name = 
  15 active torsions:
  status: ('A' for Active; 'I' for Inactive)
    1  A    between atoms: N_3  and  C_28
    2  A    between atoms: C_6  and  C_24
    3  A    between atoms: C_6  and  C_54
    4  A    between atoms: O_8  and  C_9
    5  A    between atoms: O_8  and  C_21
    6  A    between atoms: C_13  and  C_28
    7  A    between atoms: C_13  and  C_33
    8  A    between atoms: C_14  and  C_43
    9  A    between atoms: C_17  and  C_55
   10  A    between atoms: C_18  and  O_30
   11  A    between atoms: C_18  and  C_33
   12  A    between atoms: N_20  and  C_61
   13  A    between atoms: C_28  and  C_49
   14  A    between atoms: O_30  and  C_43
   15  A    between atoms: C_48  and  O_50
                            x       y       z     vdW  Elec       q    Type
                         _______ _______ _______ _____ _____    ______ ____

>  <TORSDO>
F 15

$$$$
=
 OpenBabel11062423023D

 62 73  0  0  1  0  0  0  0  0999 V2000
  190.6930  174.5860  143.3710 C   0  0  0  0  0  2  0  0  0  0  0  0
  186.9250  177.1840  140.8360 C   0  0  0  0  0  0  0  0  0  0  0  0
  188.6750  175.4260  141.0530 C   0  0  1  0  0  3  0  0  0  0  0  0
  194.3400  173.1230  141.4750 C   0  0  2  0  0  3  0  0  0  0  0  0
  188.2560  175.3180  142.5550 C   0  0  2  0  0  3  0  0  0  0  0  0
  187.8410  176.6750  143.1460 C   0  0  1  0  0  3  0  0  0  0  0  0
  191.7710  173.4000  141.1120 C   0  0  2  0  0  0  0  0  0  0  0  0
  194.4630  173.1840  139.9520 C   0  0  2  0  0  3  0  0  0  0  0  0
  190.2620  173.4670  141.3460 C   0  0  2  0  0  3  0  0  0  0  0  0
  192.2050  171.0020  140.6010 C   0  0  0  0  0  2  0  0  0  0  0  0
  189.1500  174.5400  143.5670 C   0  0  0  0  0  2  0  0  0  0  0  0
  191.9800  172.0060  141.7520 C   0  0  1  0  0  3  0  0  0  0  0  0
  193.6380  170.7480  140.1710 C   0  0  0  0  0  2  0  0  0  0  0  0
  189.3170  174.1830  140.3880 C   0  0  0  0  0  2  0  0  0  0  0  0
  194.1120  171.9030  139.2970 C   0  0  2  0  0  0  0  0  0  0  0  0
  187.5170  175.9500  140.2150 C   0  0  0  0  0  2  0  0  0  0  0  0
  191.1010  174.5600  141.8940 C   0  0  1  0  0  3  0  0  0  0  0  0
  195.4490  172.2500  139.5540 O   0  0  0  0  0  0  0  0  0  0  0  0
  185.9990  177.7500  140.2830 O   0  0  0  0  0  0  0  0  0  0  0  0
  187.4950  177.7580  142.1070 C   0  0  0  0  0  2  0  0  0  0  0  0
  192.9160  173.1230  142.1000 C   0  0  1  0  0  3  0  0  0  0  0  0
  186.6750  176.4770  144.1070 C   0  0  0  0  0  2  0  0  0  0  0  0
  185.1570  179.5510  145.8660 C   0  0  0  0  0  2  0  0  0  0  0  0
  185.4370  178.5070  144.7750 C   0  0  0  0  0  2  0  0  0  0  0  0
  185.5140  177.7220  147.4020 O   0  0  0  0  0  0  0  0  0  0  0  0
  186.6030  177.5950  145.1360 C   0  0  1  0  0  3  0  0  0  0  0  0
  186.4160  177.0130  146.5600 C   0  0  1  0  0  3  0  0  0  0  0  0
  185.6970  179.1080  147.2260 C   0  0  0  0  0  2  0  0  0  0  0  0
  188.7540  177.8280  147.1000 C   0  0  0  0  0  2  0  0  0  0  0  0
  187.7420  176.6810  147.2520 C   0  0  2  0  0  3  0  0  0  0  0  0
  189.8170  177.5060  146.0520 C   0  0  0  0  0  2  0  0  0  0  0  0
  190.2360  173.9190  146.8500 F   0  0  0  0  0  0  0  0  0  0  0  0
  189.7820  175.1860  147.1760 C   0  0  2  0  0  3  0  0  0  0  0  0
  188.2900  175.3010  146.8660 C   0  0  0  0  0  2  0  0  0  0  0  0
  190.6090  176.2360  146.4180 C   0  0  2  0  0  3  0  0  0  0  0  0
  191.6400  177.1690  148.4260 O   0  0  0  0  0  0  0  0  0  0  0  0
  191.7980  176.5750  147.1920 N   0  0  0  0  0  0  0  0  0  0  0  0
  192.9140  176.6150  146.6360 O   0  0  0  0  0  0  0  0  0  0  0  0
  195.3320  173.9400  142.0890 O   0  0  0  0  0  0  0  0  0  0  0  0
  195.9770  173.3400  143.2030 C   0  0  1  0  0  0  0  0  0  0  0  0
  197.9280  173.4370  142.0600 O   0  0  0  0  0  0  0  0  0  0  0  0
  197.3830  172.6630  143.0880 C   0  0  0  0  0  0  0  0  0  0  0  0
  195.4760  173.7400  144.5910 C   0  0  0  0  0  1  0  0  0  0  0  0
  197.9410  172.1360  141.9200 O   0  0  0  0  0  0  0  0  0  0  0  0
  196.0570  171.8840  142.9770 C   0  0  1  0  0  3  0  0  0  0  0  0
  194.8190  170.2630  143.8230 C   0  0  0  0  0  1  0  0  0  0  0  0
  195.8650  171.1300  144.1410 O   0  0  0  0  0  0  0  0  0  0  0  0
  193.8060  171.9500  137.7970 C   0  0  2  0  0  3  0  0  0  0  0  0
  194.9770  171.5920  136.9820 N   0  0  0  0  0  0  0  0  0  0  0  0
  194.6120  170.4660  136.1280 C   0  0  0  0  0  2  0  0  0  0  0  0
  195.3630  170.6280  134.8340 C   0  0  0  0  0  2  0  0  0  0  0  0
  195.3760  172.6810  136.0860 C   0  0  0  0  0  2  0  0  0  0  0  0
  195.5240  172.1200  134.6870 C   0  0  0  0  0  2  0  0  0  0  0  0
  193.1160  173.2590  137.3770 C   0  0  0  0  0  2  0  0  0  0  0  0
  191.6110  173.0630  137.3040 C   0  0  0  0  0  2  0  0  0  0  0  0
  191.2420  172.3550  136.0400 C   0  0  0  0  0  0  0  0  0  0  0  0
  191.7640  172.7610  134.8940 C   0  0  0  0  0  2  0  0  0  0  0  0
  190.3390  171.2870  136.0380 O   0  0  0  0  0  0  0  0  0  0  0  0
  190.7510  169.9260  136.0060 C   0  0  0  0  0  2  0  0  0  0  0  0
  191.1850  169.4740  137.3900 C   0  0  0  0  0  3  0  0  0  0  0  0
  191.9380  168.1660  137.2670 C   0  0  0  0  0  2  0  0  0  0  0  0
  190.4960  168.1660  137.7290 C   0  0  0  0  0  2  0  0  0  0  0  0
  1 11  1  0  0  0  0
  2 20  1  0  0  0  0
  3 16  1  6  0  0  0
  3  5  1  0  0  0  0
  4 39  1  1  0  0  0
  4 21  1  0  0  0  0
  5  6  1  0  0  0  0
  5 11  1  1  0  0  0
  6 22  1  1  0  0  0
  7  9  1  0  0  0  0
  7 12  1  0  0  0  0
  7 17  1  0  0  0  0
  7 21  1  0  0  0  0
  8  4  1  0  0  0  0
  9 17  1  0  0  0  0
 10 12  1  0  0  0  0
 12 21  1  0  0  0  0
 13 10  1  0  0  0  0
 14  3  1  0  0  0  0
 14  9  1  0  0  0  0
 15 18  1  0  0  0  0
 15  8  1  0  0  0  0
 15 13  1  0  0  0  0
 16  2  1  0  0  0  0
 17  1  1  0  0  0  0
 18  8  1  0  0  0  0
 19  2  2  0  0  0  0
 20  6  1  0  0  0  0
 22 26  1  0  0  0  0
 23 28  1  0  0  0  0
 24 26  1  0  0  0  0
 24 23  1  0  0  0  0
 26 27  1  0  0  0  0
 27 30  1  0  0  0  0
 27 25  1  0  0  0  0
 28 25  1  0  0  0  0
 29 30  1  0  0  0  0
 31 35  1  0  0  0  0
 31 29  1  0  0  0  0
 32 33  1  0  0  0  0
 34 33  1  0  0  0  0
 34 30  1  0  0  0  0
 35 33  1  0  0  0  0
 35 37  1  0  0  0  0
 37 36  2  0  0  0  0
 38 37  2  0  0  0  0
 39 40  1  0  0  0  0
 40 43  1  0  0  0  0
 41 42  1  0  0  0  0
 42 40  1  0  0  0  0
 44 41  1  0  0  0  0
 44 42  1  0  0  0  0
 45 42  1  0  0  0  0
 45 40  1  0  0  0  0
 45 47  1  0  0  0  0
 46 47  1  0  0  0  0
 48 15  1  0  0  0  0
 49 48  1  0  0  0  0
 50 49  1  0  0  0  0
 51 50  1  0  0  0  0
 52 49  1  0  0  0  0
 53 51  1  0  0  0  0
 53 52  1  0  0  0  0
 54 48  1  0  0  0  0
 55 54  1  0  0  0  0
 56 55  1  0  0  0  0
 57 56  2  0  0  0  0
 58 56  1  0  0  0  0
 59 58  1  0  0  0  0
 59 60  1  0  0  0  0
 60 62  1  0  0  0  0
 61 60  1  0  0  0  0
 61 62  1  0  0  0  0
M  END
>  <MODEL>
2

>  <REMARK>
 VINA RESULT:      -6.5      1.515      3.148
  Name = 
  15 active torsions:
  status: ('A' for Active; 'I' for Inactive)
    1  A    between atoms: N_3  and  C_28
    2  A    between atoms: C_6  and  C_24
    3  A    between atoms: C_6  and  C_54
    4  A    between atoms: O_8  and  C_9
    5  A    between atoms: O_8  and  C_21
    6  A    between atoms: C_13  and  C_28
    7  A    between atoms: C_13  and  C_33
    8  A    between atoms: C_14  and  C_43
    9  A    between atoms: C_17  and  C_55
   10  A    between atoms: C_18  and  O_30
   11  A    between atoms: C_18  and  C_33
   12  A    between atoms: N_20  and  C_61
   13  A    between atoms: C_28  and  C_49
   14  A    between atoms: O_30  and  C_43
   15  A    between atoms: C_48  and  O_50
                            x       y       z     vdW  Elec       q    Type
                         _______ _______ _______ _____ _____    ______ ____

>  <TORSDO>
F 15

$$$$
=
 OpenBabel11062423023D

 62 73  0  0  1  0  0  0  0  0999 V2000
  190.1830  173.9140  143.2030 C   0  0  0  0  0  2  0  0  0  0  0  0
  186.9680  177.2710  140.8010 C   0  0  0  0  0  0  0  0  0  0  0  0
  188.4330  175.2610  140.9060 C   0  0  1  0  0  3  0  0  0  0  0  0
  193.6780  172.1150  141.3100 C   0  0  2  0  0  3  0  0  0  0  0  0
  187.9240  175.0730  142.3710 C   0  0  2  0  0  3  0  0  0  0  0  0
  187.6760  176.4140  143.0810 C   0  0  1  0  0  3  0  0  0  0  0  0
  191.1990  172.8020  140.8780 C   0  0  2  0  0  0  0  0  0  0  0  0
  193.8910  172.3020  139.8080 C   0  0  2  0  0  3  0  0  0  0  0  0
  189.7050  173.0700  141.0580 C   0  0  2  0  0  3  0  0  0  0  0  0
  191.3110  170.4260  140.1410 C   0  0  0  0  0  2  0  0  0  0  0  0
  188.6410  174.0780  143.3320 C   0  0  0  0  0  2  0  0  0  0  0  0
  191.1710  171.3380  141.3790 C   0  0  1  0  0  3  0  0  0  0  0  0
  192.7140  170.0050  139.7430 C   0  0  0  0  0  2  0  0  0  0  0  0
  188.9260  174.0060  140.1420 C   0  0  0  0  0  2  0  0  0  0  0  0
  193.3950  171.1560  139.0110 C   0  0  2  0  0  0  0  0  0  0  0  0
  187.4090  176.0280  140.0800 C   0  0  0  0  0  2  0  0  0  0  0  0
  190.6610  173.9680  141.7480 C   0  0  1  0  0  3  0  0  0  0  0  0
  194.7520  171.2740  139.3550 O   0  0  0  0  0  0  0  0  0  0  0  0
  186.1640  178.0180  140.2740 O   0  0  0  0  0  0  0  0  0  0  0  0
  187.5450  177.6300  142.1450 C   0  0  0  0  0  2  0  0  0  0  0  0
  192.2370  172.2660  141.8760 C   0  0  1  0  0  3  0  0  0  0  0  0
  186.4440  176.3000  143.9710 C   0  0  0  0  0  2  0  0  0  0  0  0
  184.8300  179.1500  146.0000 C   0  0  0  0  0  2  0  0  0  0  0  0
  185.0590  178.1370  144.8690 C   0  0  0  0  0  2  0  0  0  0  0  0
  185.7320  177.4270  147.4310 O   0  0  0  0  0  0  0  0  0  0  0  0
  186.3950  177.4160  145.0030 C   0  0  1  0  0  3  0  0  0  0  0  0
  186.5610  176.8420  146.4330 C   0  0  1  0  0  3  0  0  0  0  0  0
  185.6710  178.8200  147.2340 C   0  0  0  0  0  2  0  0  0  0  0  0
  188.8790  177.8500  146.2600 C   0  0  0  0  0  2  0  0  0  0  0  0
  188.0260  176.7260  146.8670 C   0  0  2  0  0  3  0  0  0  0  0  0
  189.7250  177.3470  145.0920 C   0  0  0  0  0  2  0  0  0  0  0  0
  190.6130  174.0460  146.5040 F   0  0  0  0  0  0  0  0  0  0  0  0
  190.1280  175.3350  146.6520 C   0  0  2  0  0  3  0  0  0  0  0  0
  188.6000  175.3180  146.6640 C   0  0  0  0  0  2  0  0  0  0  0  0
  190.6850  176.2220  145.5290 C   0  0  2  0  0  3  0  0  0  0  0  0
  192.7850  177.3360  144.9700 O   0  0  0  0  0  0  0  0  0  0  0  0
  191.9740  176.7720  145.9310 N   0  0  0  0  0  0  0  0  0  0  0  0
  192.4620  176.4710  147.0390 O   0  0  0  0  0  0  0  0  0  0  0  0
  194.7430  172.7130  142.0430 O   0  0  0  0  0  0  0  0  0  0  0  0
  194.6630  172.5270  143.4490 C   0  0  1  0  0  0  0  0  0  0  0  0
  194.2670  174.7450  143.6670 O   0  0  0  0  0  0  0  0  0  0  0  0
  194.7920  173.7180  144.4560 C   0  0  0  0  0  0  0  0  0  0  0  0
  194.0280  171.2270  143.9410 C   0  0  0  0  0  1  0  0  0  0  0  0
  195.4440  174.9290  144.2080 O   0  0  0  0  0  0  0  0  0  0  0  0
  195.9810  172.8280  144.0410 C   0  0  1  0  0  3  0  0  0  0  0  0
  197.4720  171.3270  144.6740 C   0  0  0  0  0  1  0  0  0  0  0  0
  196.3170  171.9820  145.1050 O   0  0  0  0  0  0  0  0  0  0  0  0
  193.1790  171.3910  137.5140 C   0  0  2  0  0  3  0  0  0  0  0  0
  194.3960  171.1210  136.7310 N   0  0  0  0  0  0  0  0  0  0  0  0
  194.0820  170.0990  135.7370 C   0  0  0  0  0  2  0  0  0  0  0  0
  194.9040  170.4010  134.5140 C   0  0  0  0  0  2  0  0  0  0  0  0
  194.8430  172.3010  135.9860 C   0  0  0  0  0  2  0  0  0  0  0  0
  195.0710  171.8990  134.5440 C   0  0  0  0  0  2  0  0  0  0  0  0
  192.5230  172.7500  137.2190 C   0  0  0  0  0  2  0  0  0  0  0  0
  191.0180  172.5910  137.0800 C   0  0  0  0  0  2  0  0  0  0  0  0
  190.4420  173.7500  136.3320 C   0  0  0  0  0  0  0  0  0  0  0  0
  189.1800  174.0920  136.5390 C   0  0  0  0  0  2  0  0  0  0  0  0
  191.1990  174.4670  135.4010 O   0  0  0  0  0  0  0  0  0  0  0  0
  191.0560  175.8680  135.2010 C   0  0  0  0  0  2  0  0  0  0  0  0
  192.3250  176.4460  134.5960 C   0  0  0  0  0  3  0  0  0  0  0  0
  193.4960  175.5630  134.9700 C   0  0  0  0  0  2  0  0  0  0  0  0
  193.2650  176.8630  135.7100 C   0  0  0  0  0  2  0  0  0  0  0  0
  1 11  1  0  0  0  0
  2 20  1  0  0  0  0
  3 16  1  6  0  0  0
  3  5  1  0  0  0  0
  4 21  1  0  0  0  0
  4 39  1  1  0  0  0
  5  6  1  0  0  0  0
  5 11  1  1  0  0  0
  6 22  1  6  0  0  0
  7  9  1  0  0  0  0
  7 12  1  0  0  0  0
  7 17  1  0  0  0  0
  7 21  1  0  0  0  0
  8  4  1  0  0  0  0
  9 17  1  0  0  0  0
 10 12  1  0  0  0  0
 12 21  1  0  0  0  0
 13 10  1  0  0  0  0
 14  3  1  0  0  0  0
 14  9  1  0  0  0  0
 15 18  1  0  0  0  0
 15 13  1  0  0  0  0
 15  8  1  0  0  0  0
 16  2  1  0  0  0  0
 17  1  1  0  0  0  0
 18  8  1  0  0  0  0
 19  2  2  0  0  0  0
 20  6  1  0  0  0  0
 22 26  1  0  0  0  0
 23 28  1  0  0  0  0
 24 26  1  0  0  0  0
 24 23  1  0  0  0  0
 26 27  1  0  0  0  0
 27 30  1  0  0  0  0
 27 25  1  0  0  0  0
 28 25  1  0  0  0  0
 29 30  1  0  0  0  0
 31 35  1  0  0  0  0
 31 29  1  0  0  0  0
 32 33  1  0  0  0  0
 33 34  1  0  0  0  0
 34 30  1  0  0  0  0
 35 37  1  0  0  0  0
 35 33  1  0  0  0  0
 36 37  2  0  0  0  0
 37 38  2  0  0  0  0
 39 40  1  0  0  0  0
 40 43  1  0  0  0  0
 40 45  1  0  0  0  0
 40 42  1  0  0  0  0
 41 44  1  0  0  0  0
 41 42  1  0  0  0  0
 44 42  1  0  0  0  0
 45 42  1  0  0  0  0
 45 47  1  0  0  0  0
 46 47  1  0  0  0  0
 48 15  1  0  0  0  0
 49 48  1  0  0  0  0
 50 49  1  0  0  0  0
 51 53  1  0  0  0  0
 51 50  1  0  0  0  0
 52 49  1  0  0  0  0
 53 52  1  0  0  0  0
 54 48  1  0  0  0  0
 55 54  1  0  0  0  0
 56 57  2  0  0  0  0
 56 55  1  0  0  0  0
 58 56  1  0  0  0  0
 59 58  1  0  0  0  0
 60 61  1  0  0  0  0
 60 59  1  0  0  0  0
 60 62  1  0  0  0  0
 61 62  1  0  0  0  0
M  END
>  <MODEL>
3

>  <REMARK>
 VINA RESULT:      -6.5      1.317      2.429
  Name = 
  15 active torsions:
  status: ('A' for Active; 'I' for Inactive)
    1  A    between atoms: N_3  and  C_28
    2  A    between atoms: C_6  and  C_24
    3  A    between atoms: C_6  and  C_54
    4  A    between atoms: O_8  and  C_9
    5  A    between atoms: O_8  and  C_21
    6  A    between atoms: C_13  and  C_28
    7  A    between atoms: C_13  and  C_33
    8  A    between atoms: C_14  and  C_43
    9  A    between atoms: C_17  and  C_55
   10  A    between atoms: C_18  and  O_30
   11  A    between atoms: C_18  and  C_33
   12  A    between atoms: N_20  and  C_61
   13  A    between atoms: C_28  and  C_49
   14  A    between atoms: O_30  and  C_43
   15  A    between atoms: C_48  and  O_50
                            x       y       z     vdW  Elec       q    Type
                         _______ _______ _______ _____ _____    ______ ____

>  <TORSDO>
F 15

$$$$
=
 OpenBabel11062423023D

 62 73  0  0  1  0  0  0  0  0999 V2000
  189.8850  174.2530  143.0800 C   0  0  0  0  0  2  0  0  0  0  0  0
  186.5750  177.5620  140.7420 C   0  0  0  0  0  0  0  0  0  0  0  0
  188.0910  175.5880  140.8110 C   0  0  1  0  0  3  0  0  0  0  0  0
  193.4170  172.5720  141.1470 C   0  0  2  0  0  3  0  0  0  0  0  0
  187.5940  175.3670  142.2750 C   0  0  2  0  0  3  0  0  0  0  0  0
  187.3150  176.6900  143.0060 C   0  0  1  0  0  3  0  0  0  0  0  0
  190.9190  173.2020  140.7350 C   0  0  2  0  0  0  0  0  0  0  0  0
  193.6170  172.7860  139.6470 C   0  0  2  0  0  3  0  0  0  0  0  0
  189.4190  173.4280  140.9260 C   0  0  2  0  0  3  0  0  0  0  0  0
  191.0870  170.8400  139.9640 C   0  0  0  0  0  2  0  0  0  0  0  0
  188.3410  174.3760  143.2190 C   0  0  0  0  0  2  0  0  0  0  0  0
  190.9300  171.7310  141.2150 C   0  0  1  0  0  3  0  0  0  0  0  0
  192.4990  170.4610  139.5540 C   0  0  0  0  0  2  0  0  0  0  0  0
  188.6120  174.3570  140.0270 C   0  0  0  0  0  2  0  0  0  0  0  0
  193.1470  171.6390  138.8350 C   0  0  2  0  0  0  0  0  0  0  0  0
  187.0440  176.3410  140.0010 C   0  0  0  0  0  2  0  0  0  0  0  0
  190.3560  174.3410  141.6240 C   0  0  1  0  0  3  0  0  0  0  0  0
  194.5020  171.7870  139.1750 O   0  0  0  0  0  0  0  0  0  0  0  0
  185.7490  178.2950  140.2280 O   0  0  0  0  0  0  0  0  0  0  0  0
  187.1490  177.9160  142.0880 C   0  0  0  0  0  2  0  0  0  0  0  0
  191.9750  172.6780  141.7210 C   0  0  1  0  0  3  0  0  0  0  0  0
  186.0910  176.5320  143.8990 C   0  0  0  0  0  2  0  0  0  0  0  0
  184.6460  178.6220  146.7950 C   0  0  0  0  0  2  0  0  0  0  0  0
  184.7080  177.8290  145.4830 C   0  0  0  0  0  2  0  0  0  0  0  0
  186.3270  177.0680  147.5610 O   0  0  0  0  0  0  0  0  0  0  0  0
  186.1380  177.4830  145.0850 C   0  0  1  0  0  3  0  0  0  0  0  0
  186.8890  176.8320  146.2750 C   0  0  1  0  0  3  0  0  0  0  0  0
  185.8970  178.4060  147.6480 C   0  0  0  0  0  2  0  0  0  0  0  0
  189.1590  175.7880  145.8530 C   0  0  0  0  0  2  0  0  0  0  0  0
  188.4020  177.0700  146.2310 C   0  0  2  0  0  3  0  0  0  0  0  0
  189.8180  175.1420  147.0700 C   0  0  0  0  0  2  0  0  0  0  0  0
  190.8960  178.2490  148.7600 F   0  0  0  0  0  0  0  0  0  0  0  0
  190.4430  177.5780  147.6380 C   0  0  2  0  0  3  0  0  0  0  0  0
  188.9340  177.7690  147.4890 C   0  0  0  0  0  2  0  0  0  0  0  0
  190.8280  176.0940  147.7400 C   0  0  2  0  0  3  0  0  0  0  0  0
  192.5700  174.6150  146.8790 O   0  0  0  0  0  0  0  0  0  0  0  0
  192.1650  175.8950  147.1930 N   0  0  0  0  0  0  0  0  0  0  0  0
  193.0210  176.7970  147.2930 O   0  0  0  0  0  0  0  0  0  0  0  0
  194.4690  173.1860  141.8830 O   0  0  0  0  0  0  0  0  0  0  0  0
  194.1110  173.5790  143.2000 C   0  0  1  0  0  0  0  0  0  0  0  0
  193.5940  175.6300  142.3920 O   0  0  0  0  0  0  0  0  0  0  0  0
  193.9850  175.0830  143.6170 C   0  0  0  0  0  0  0  0  0  0  0  0
  193.4380  172.5250  144.0790 C   0  0  0  0  0  1  0  0  0  0  0  0
  194.6270  176.1580  142.9950 O   0  0  0  0  0  0  0  0  0  0  0  0
  195.2670  174.2510  143.8250 C   0  0  1  0  0  3  0  0  0  0  0  0
  196.7910  173.8810  145.3800 C   0  0  0  0  0  1  0  0  0  0  0  0
  195.4110  173.9570  145.1860 O   0  0  0  0  0  0  0  0  0  0  0  0
  192.9180  171.8900  137.3420 C   0  0  2  0  0  3  0  0  0  0  0  0
  192.1480  170.8070  136.7120 N   0  0  0  0  0  0  0  0  0  0  0  0
  191.1520  171.4080  135.8300 C   0  0  0  0  0  2  0  0  0  0  0  0
  190.9790  170.4820  134.6570 C   0  0  0  0  0  2  0  0  0  0  0  0
  192.9890  169.9540  135.8670 C   0  0  0  0  0  2  0  0  0  0  0  0
  192.3250  169.8170  134.5130 C   0  0  0  0  0  2  0  0  0  0  0  0
  194.2130  172.2620  136.6020 C   0  0  0  0  0  2  0  0  0  0  0  0
  193.9780  173.4590  135.6950 C   0  0  0  0  0  2  0  0  0  0  0  0
  193.7520  174.6910  136.5120 C   0  0  0  0  0  0  0  0  0  0  0  0
  192.5580  175.2610  136.5060 C   0  0  0  0  0  2  0  0  0  0  0  0
  194.7800  175.2670  137.2640 O   0  0  0  0  0  0  0  0  0  0  0  0
  196.1560  174.9970  137.0290 C   0  0  0  0  0  2  0  0  0  0  0  0
  196.8160  174.4810  138.2980 C   0  0  0  0  0  3  0  0  0  0  0  0
  196.2350  175.2160  139.4870 C   0  0  0  0  0  2  0  0  0  0  0  0
  197.5950  175.6070  138.9490 C   0  0  0  0  0  2  0  0  0  0  0  0
  1 11  1  0  0  0  0
  2 20  1  0  0  0  0
  3 16  1  6  0  0  0
  3  5  1  0  0  0  0
  4 21  1  0  0  0  0
  4 39  1  1  0  0  0
  5  6  1  0  0  0  0
  5 11  1  1  0  0  0
  6 22  1  6  0  0  0
  7  9  1  0  0  0  0
  7 12  1  0  0  0  0
  7 17  1  0  0  0  0
  7 21  1  0  0  0  0
  8  4  1  0  0  0  0
  9 17  1  0  0  0  0
 10 12  1  0  0  0  0
 12 21  1  0  0  0  0
 13 10  1  0  0  0  0
 14  3  1  0  0  0  0
 14  9  1  0  0  0  0
 15 18  1  0  0  0  0
 15 13  1  0  0  0  0
 15  8  1  0  0  0  0
 16  2  1  0  0  0  0
 17  1  1  0  0  0  0
 18  8  1  0  0  0  0
 19  2  2  0  0  0  0
 20  6  1  0  0  0  0
 22 26  1  0  0  0  0
 23 28  1  0  0  0  0
 24 23  1  0  0  0  0
 25 28  1  0  0  0  0
 26 24  1  0  0  0  0
 26 27  1  0  0  0  0
 27 25  1  0  0  0  0
 29 30  1  0  0  0  0
 29 31  1  0  0  0  0
 30 27  1  0  0  0  0
 30 34  1  0  0  0  0
 31 35  1  0  0  0  0
 33 35  1  0  0  0  0
 33 32  1  0  0  0  0
 34 33  1  0  0  0  0
 36 37  2  0  0  0  0
 37 38  2  0  0  0  0
 37 35  1  0  0  0  0
 39 40  1  0  0  0  0
 40 42  1  0  0  0  0
 40 45  1  0  0  0  0
 40 43  1  0  0  0  0
 41 44  1  0  0  0  0
 41 42  1  0  0  0  0
 42 45  1  0  0  0  0
 44 42  1  0  0  0  0
 45 47  1  0  0  0  0
 47 46  1  0  0  0  0
 48 15  1  0  0  0  0
 49 48  1  0  0  0  0
 50 49  1  0  0  0  0
 51 50  1  0  0  0  0
 52 49  1  0  0  0  0
 53 51  1  0  0  0  0
 53 52  1  0  0  0  0
 54 48  1  0  0  0  0
 55 56  1  0  0  0  0
 55 54  1  0  0  0  0
 56 58  1  0  0  0  0
 57 56  2  0  0  0  0
 59 58  1  0  0  0  0
 59 60  1  0  0  0  0
 60 62  1  0  0  0  0
 60 61  1  0  0  0  0
 62 61  1  0  0  0  0
M  END
>  <MODEL>
4

>  <REMARK>
 VINA RESULT:      -6.5      1.616      2.218
  Name = 
  15 active torsions:
  status: ('A' for Active; 'I' for Inactive)
    1  A    between atoms: N_3  and  C_28
    2  A    between atoms: C_6  and  C_24
    3  A    between atoms: C_6  and  C_54
    4  A    between atoms: O_8  and  C_9
    5  A    between atoms: O_8  and  C_21
    6  A    between atoms: C_13  and  C_28
    7  A    between atoms: C_13  and  C_33
    8  A    between atoms: C_14  and  C_43
    9  A    between atoms: C_17  and  C_55
   10  A    between atoms: C_18  and  O_30
   11  A    between atoms: C_18  and  C_33
   12  A    between atoms: N_20  and  C_61
   13  A    between atoms: C_28  and  C_49
   14  A    between atoms: O_30  and  C_43
   15  A    between atoms: C_48  and  O_50
                            x       y       z     vdW  Elec       q    Type
                         _______ _______ _______ _____ _____    ______ ____

>  <TORSDO>
F 15

$$$$
=
 OpenBabel11062423023D

 62 73  0  0  1  0  0  0  0  0999 V2000
  190.2570  173.8820  143.1660 C   0  0  0  0  0  2  0  0  0  0  0  0
  186.9800  177.1310  140.7010 C   0  0  0  0  0  0  0  0  0  0  0  0
  188.4840  175.1510  140.8430 C   0  0  1  0  0  3  0  0  0  0  0  0
  193.7890  172.1170  141.3100 C   0  0  2  0  0  3  0  0  0  0  0  0
  187.9770  174.9810  142.3110 C   0  0  2  0  0  3  0  0  0  0  0  0
  187.7030  176.3300  142.9960 C   0  0  1  0  0  3  0  0  0  0  0  0
  191.2970  172.7470  140.8630 C   0  0  2  0  0  0  0  0  0  0  0  0
  193.9990  172.2800  139.8050 C   0  0  2  0  0  3  0  0  0  0  0  0
  189.7980  172.9890  141.0370 C   0  0  2  0  0  3  0  0  0  0  0  0
  191.4560  170.3610  140.1710 C   0  0  0  0  0  2  0  0  0  0  0  0
  188.7130  174.0180  143.2910 C   0  0  0  0  0  2  0  0  0  0  0  0
  191.2970  171.2930  141.3910 C   0  0  1  0  0  3  0  0  0  0  0  0
  192.8680  169.9600  139.7820 C   0  0  0  0  0  2  0  0  0  0  0  0
  189.0020  173.8920  140.1030 C   0  0  0  0  0  2  0  0  0  0  0  0
  193.5270  171.1090  139.0290 C   0  0  2  0  0  0  0  0  0  0  0  0
  187.4460  175.8830  140.0030 C   0  0  0  0  0  2  0  0  0  0  0  0
  190.7360  173.9190  141.7100 C   0  0  1  0  0  3  0  0  0  0  0  0
  194.8810  171.2610  139.3710 O   0  0  0  0  0  0  0  0  0  0  0  0
  186.1620  177.8520  140.1580 O   0  0  0  0  0  0  0  0  0  0  0  0
  187.5490  177.5260  142.0380 C   0  0  0  0  0  2  0  0  0  0  0  0
  192.3450  172.2500  141.8710 C   0  0  1  0  0  3  0  0  0  0  0  0
  186.4720  176.2080  143.8870 C   0  0  0  0  0  2  0  0  0  0  0  0
  184.7830  179.1500  145.7150 C   0  0  0  0  0  2  0  0  0  0  0  0
  185.0620  178.0930  144.6370 C   0  0  0  0  0  2  0  0  0  0  0  0
  185.5830  177.4730  147.2580 O   0  0  0  0  0  0  0  0  0  0  0  0
  186.3800  177.3630  144.8720 C   0  0  1  0  0  3  0  0  0  0  0  0
  186.4580  176.8430  146.3300 C   0  0  1  0  0  3  0  0  0  0  0  0
  185.5500  178.8590  147.0060 C   0  0  0  0  0  2  0  0  0  0  0  0
  188.7950  177.8200  146.2500 C   0  0  0  0  0  2  0  0  0  0  0  0
  187.8960  176.7280  146.8490 C   0  0  2  0  0  3  0  0  0  0  0  0
  189.6990  177.2660  145.1510 C   0  0  0  0  0  2  0  0  0  0  0  0
  190.4670  174.0110  146.7300 F   0  0  0  0  0  0  0  0  0  0  0  0
  189.9890  175.3090  146.8030 C   0  0  2  0  0  3  0  0  0  0  0  0
  188.4630  175.3070  146.7310 C   0  0  0  0  0  2  0  0  0  0  0  0
  190.6190  176.1490  145.6810 C   0  0  2  0  0  3  0  0  0  0  0  0
  192.8600  176.9890  145.2000 O   0  0  0  0  0  0  0  0  0  0  0  0
  191.8900  176.7000  146.1350 N   0  0  0  0  0  0  0  0  0  0  0  0
  192.2080  176.6260  147.3390 O   0  0  0  0  0  0  0  0  0  0  0  0
  194.8410  172.7490  142.0320 O   0  0  0  0  0  0  0  0  0  0  0  0
  195.2480  174.0010  141.4990 C   0  0  1  0  0  0  0  0  0  0  0  0
  197.1490  173.0130  140.7670 O   0  0  0  0  0  0  0  0  0  0  0  0
  196.7370  174.3010  141.1180 C   0  0  0  0  0  0  0  0  0  0  0  0
  194.1550  174.8900  140.9080 C   0  0  0  0  0  1  0  0  0  0  0  0
  197.8590  173.6630  141.6530 O   0  0  0  0  0  0  0  0  0  0  0  0
  196.1200  174.6720  142.4820 C   0  0  1  0  0  3  0  0  0  0  0  0
  196.0380  176.3660  143.8960 C   0  0  0  0  0  1  0  0  0  0  0  0
  195.9270  176.0580  142.5400 O   0  0  0  0  0  0  0  0  0  0  0  0
  193.3080  171.3120  137.5270 C   0  0  2  0  0  3  0  0  0  0  0  0
  194.5250  171.0310  136.7490 N   0  0  0  0  0  0  0  0  0  0  0  0
  194.2310  169.9450  135.8190 C   0  0  0  0  0  2  0  0  0  0  0  0
  195.0330  170.1970  134.5710 C   0  0  0  0  0  2  0  0  0  0  0  0
  194.9320  172.1770  135.9320 C   0  0  0  0  0  2  0  0  0  0  0  0
  195.1570  171.6990  134.5130 C   0  0  0  0  0  2  0  0  0  0  0  0
  192.6470  172.6620  137.2050 C   0  0  0  0  0  2  0  0  0  0  0  0
  191.1410  172.5690  137.3870 C   0  0  0  0  0  2  0  0  0  0  0  0
  190.5160  171.9010  136.2050 C   0  0  0  0  0  0  0  0  0  0  0  0
  189.9860  170.6960  136.3470 C   0  0  0  0  0  2  0  0  0  0  0  0
  190.4970  172.5110  134.9470 O   0  0  0  0  0  0  0  0  0  0  0  0
  189.4390  173.3570  134.5130 C   0  0  0  0  0  2  0  0  0  0  0  0
  189.6720  174.7800  134.9920 C   0  0  0  0  0  3  0  0  0  0  0  0
  188.6420  175.1190  136.0480 C   0  0  0  0  0  2  0  0  0  0  0  0
  188.4700  175.6320  134.6350 C   0  0  0  0  0  2  0  0  0  0  0  0
  1 11  1  0  0  0  0
  2 20  1  0  0  0  0
  3 16  1  6  0  0  0
  3  5  1  0  0  0  0
  4 21  1  0  0  0  0
  4 39  1  1  0  0  0
  5  6  1  0  0  0  0
  5 11  1  1  0  0  0
  6 22  1  6  0  0  0
  7  9  1  0  0  0  0
  7 12  1  0  0  0  0
  7 17  1  0  0  0  0
  7 21  1  0  0  0  0
  8  4  1  0  0  0  0
  9 17  1  0  0  0  0
 10 12  1  0  0  0  0
 12 21  1  0  0  0  0
 13 10  1  0  0  0  0
 14  3  1  0  0  0  0
 14  9  1  0  0  0  0
 15 18  1  0  0  0  0
 15 13  1  0  0  0  0
 15  8  1  0  0  0  0
 16  2  1  0  0  0  0
 17  1  1  0  0  0  0
 18  8  1  0  0  0  0
 19  2  2  0  0  0  0
 20  6  1  0  0  0  0
 22 26  1  0  0  0  0
 23 28  1  0  0  0  0
 24 26  1  0  0  0  0
 24 23  1  0  0  0  0
 26 27  1  0  0  0  0
 27 30  1  0  0  0  0
 27 25  1  0  0  0  0
 28 25  1  0  0  0  0
 29 30  1  0  0  0  0
 31 35  1  0  0  0  0
 31 29  1  0  0  0  0
 32 33  1  0  0  0  0
 34 33  1  0  0  0  0
 34 30  1  0  0  0  0
 35 37  1  0  0  0  0
 35 33  1  0  0  0  0
 36 37  2  0  0  0  0
 37 38  2  0  0  0  0
 40 39  1  0  0  0  0
 40 45  1  0  0  0  0
 41 42  1  0  0  0  0
 41 44  1  0  0  0  0
 42 40  1  0  0  0  0
 42 44  1  0  0  0  0
 42 45  1  0  0  0  0
 43 40  1  0  0  0  0
 45 47  1  0  0  0  0
 47 46  1  0  0  0  0
 48 15  1  0  0  0  0
 49 48  1  0  0  0  0
 50 49  1  0  0  0  0
 51 50  1  0  0  0  0
 52 49  1  0  0  0  0
 53 51  1  0  0  0  0
 53 52  1  0  0  0  0
 54 55  1  0  0  0  0
 54 48  1  0  0  0  0
 56 57  2  0  0  0  0
 56 55  1  0  0  0  0
 58 56  1  0  0  0  0
 59 58  1  0  0  0  0
 59 60  1  0  0  0  0
 60 61  1  0  0  0  0
 62 60  1  0  0  0  0
 62 61  1  0  0  0  0
M  END
>  <MODEL>
5

>  <REMARK>
 VINA RESULT:      -6.5      1.526      2.977
  Name = 
  15 active torsions:
  status: ('A' for Active; 'I' for Inactive)
    1  A    between atoms: N_3  and  C_28
    2  A    between atoms: C_6  and  C_24
    3  A    between atoms: C_6  and  C_54
    4  A    between atoms: O_8  and  C_9
    5  A    between atoms: O_8  and  C_21
    6  A    between atoms: C_13  and  C_28
    7  A    between atoms: C_13  and  C_33
    8  A    between atoms: C_14  and  C_43
    9  A    between atoms: C_17  and  C_55
   10  A    between atoms: C_18  and  O_30
   11  A    between atoms: C_18  and  C_33
   12  A    between atoms: N_20  and  C_61
   13  A    between atoms: C_28  and  C_49
   14  A    between atoms: O_30  and  C_43
   15  A    between atoms: C_48  and  O_50
                            x       y       z     vdW  Elec       q    Type
                         _______ _______ _______ _____ _____    ______ ____

>  <TORSDO>
F 15

$$$$
=
 OpenBabel11062423023D

 62 73  0  0  1  0  0  0  0  0999 V2000
  189.9560  173.2800  143.3220 C   0  0  0  0  0  2  0  0  0  0  0  0
  187.3590  176.6170  140.2400 C   0  0  0  0  0  0  0  0  0  0  0  0
  188.5820  174.5010  140.7200 C   0  0  1  0  0  3  0  0  0  0  0  0
  193.3960  170.9350  142.0160 C   0  0  2  0  0  3  0  0  0  0  0  0
  187.9220  174.5430  142.1350 C   0  0  2  0  0  3  0  0  0  0  0  0
  187.7570  175.9780  142.6630 C   0  0  1  0  0  3  0  0  0  0  0  0
  191.0560  171.8020  141.2540 C   0  0  2  0  0  0  0  0  0  0  0  0
  193.7650  170.9180  140.5330 C   0  0  2  0  0  3  0  0  0  0  0  0
  189.5900  172.2320  141.2460 C   0  0  2  0  0  3  0  0  0  0  0  0
  190.9780  169.3540  140.8010 C   0  0  0  0  0  2  0  0  0  0  0  0
  188.4360  173.6070  143.2710 C   0  0  0  0  0  2  0  0  0  0  0  0
  190.8240  170.4190  141.9090 C   0  0  1  0  0  3  0  0  0  0  0  0
  192.3580  168.7540  140.6010 C   0  0  0  0  0  2  0  0  0  0  0  0
  189.0040  173.1210  140.1560 C   0  0  0  0  0  2  0  0  0  0  0  0
  193.2240  169.7360  139.8210 C   0  0  2  0  0  0  0  0  0  0  0  0
  187.7280  175.2580  139.7120 C   0  0  0  0  0  2  0  0  0  0  0  0
  190.5700  173.1110  141.9280 C   0  0  1  0  0  3  0  0  0  0  0  0
  194.5480  169.7640  140.2890 O   0  0  0  0  0  0  0  0  0  0  0  0
  186.6920  177.3680  139.5520 O   0  0  0  0  0  0  0  0  0  0  0  0
  187.8450  177.0780  141.5890 C   0  0  0  0  0  2  0  0  0  0  0  0
  191.9340  171.2920  142.4080 C   0  0  1  0  0  3  0  0  0  0  0  0
  186.4430  176.0920  143.4260 C   0  0  0  0  0  2  0  0  0  0  0  0
  184.8360  179.3750  144.6440 C   0  0  0  0  0  2  0  0  0  0  0  0
  185.1130  178.1450  143.7680 C   0  0  0  0  0  2  0  0  0  0  0  0
  185.4260  177.9270  146.4840 O   0  0  0  0  0  0  0  0  0  0  0  0
  186.3630  177.3930  144.2090 C   0  0  1  0  0  3  0  0  0  0  0  0
  186.3160  177.1100  145.7320 C   0  0  1  0  0  3  0  0  0  0  0  0
  185.4990  179.2540  146.0160 C   0  0  0  0  0  2  0  0  0  0  0  0
  188.7110  177.9350  145.6710 C   0  0  0  0  0  2  0  0  0  0  0  0
  187.7070  177.0020  146.3660 C   0  0  2  0  0  3  0  0  0  0  0  0
  189.6450  177.1650  144.7400 C   0  0  0  0  0  2  0  0  0  0  0  0
  190.1000  174.1670  146.8580 F   0  0  0  0  0  0  0  0  0  0  0  0
  189.7040  175.4840  146.6940 C   0  0  2  0  0  3  0  0  0  0  0  0
  188.1880  175.5530  146.5110 C   0  0  0  0  0  2  0  0  0  0  0  0
  190.4550  176.0990  145.5030 C   0  0  2  0  0  3  0  0  0  0  0  0
  192.7380  176.8310  145.0370 O   0  0  0  0  0  0  0  0  0  0  0  0
  191.7280  176.6470  145.9570 N   0  0  0  0  0  0  0  0  0  0  0  0
  192.0040  176.6600  147.1730 O   0  0  0  0  0  0  0  0  0  0  0  0
  194.4470  171.5120  142.7850 O   0  0  0  0  0  0  0  0  0  0  0  0
  194.8440  170.7380  143.9080 C   0  0  1  0  0  0  0  0  0  0  0  0
  194.0870  172.3940  145.2530 O   0  0  0  0  0  0  0  0  0  0  0  0
  195.0290  171.3650  145.3300 C   0  0  0  0  0  0  0  0  0  0  0  0
  194.6730  169.2230  143.8000 C   0  0  0  0  0  1  0  0  0  0  0  0
  195.3090  172.7080  145.5990 O   0  0  0  0  0  0  0  0  0  0  0  0
  196.1890  171.1740  144.3310 C   0  0  1  0  0  3  0  0  0  0  0  0
  196.8050  170.0770  146.1460 C   0  0  0  0  0  1  0  0  0  0  0  0
  197.0030  170.1210  144.7650 O   0  0  0  0  0  0  0  0  0  0  0  0
  193.1740  169.8080  138.2920 C   0  0  2  0  0  3  0  0  0  0  0  0
  194.1600  168.9140  137.6650 N   0  0  0  0  0  0  0  0  0  0  0  0
  193.5590  168.3410  136.4650 C   0  0  0  0  0  2  0  0  0  0  0  0
  194.6600  168.1660  135.4550 C   0  0  0  0  0  2  0  0  0  0  0  0
  195.3560  169.6380  137.2240 C   0  0  0  0  0  2  0  0  0  0  0  0
  195.6370  169.2660  135.7840 C   0  0  0  0  0  2  0  0  0  0  0  0
  193.2040  171.2530  137.7690 C   0  0  0  0  0  2  0  0  0  0  0  0
  191.7970  171.8230  137.7100 C   0  0  0  0  0  2  0  0  0  0  0  0
  191.8440  173.3160  137.6510 C   0  0  0  0  0  0  0  0  0  0  0  0
  190.8350  173.9750  137.1050 C   0  0  0  0  0  2  0  0  0  0  0  0
  192.9410  174.0320  138.1390 O   0  0  0  0  0  0  0  0  0  0  0  0
  193.0750  174.4080  139.5040 C   0  0  0  0  0  2  0  0  0  0  0  0
  194.5250  174.2860  139.9450 C   0  0  0  0  0  3  0  0  0  0  0  0
  194.6260  174.6480  141.4110 C   0  0  0  0  0  2  0  0  0  0  0  0
  195.0380  175.6520  140.3560 C   0  0  0  0  0  2  0  0  0  0  0  0
  2 20  1  0  0  0  0
  3 16  1  6  0  0  0
  3  5  1  0  0  0  0
  4 21  1  0  0  0  0
  4 39  1  1  0  0  0
  5  6  1  0  0  0  0
  5 11  1  1  0  0  0
  6 22  1  6  0  0  0
  7 12  1  0  0  0  0
  7 17  1  0  0  0  0
  7 21  1  0  0  0  0
  8  4  1  0  0  0  0
  9  7  1  0  0  0  0
  9 17  1  0  0  0  0
 10 12  1  0  0  0  0
 11  1  1  0  0  0  0
 12 21  1  0  0  0  0
 13 10  1  0  0  0  0
 14  3  1  0  0  0  0
 14  9  1  0  0  0  0
 15 18  1  0  0  0  0
 15  8  1  0  0  0  0
 15 13  1  0  0  0  0
 16  2  1  0  0  0  0
 17  1  1  0  0  0  0
 18  8  1  0  0  0  0
 19  2  2  0  0  0  0
 20  6  1  0  0  0  0
 22 26  1  0  0  0  0
 23 28  1  0  0  0  0
 24 26  1  0  0  0  0
 24 23  1  0  0  0  0
 26 27  1  0  0  0  0
 27 30  1  0  0  0  0
 27 25  1  0  0  0  0
 28 25  1  0  0  0  0
 29 30  1  0  0  0  0
 30 34  1  0  0  0  0
 31 35  1  0  0  0  0
 31 29  1  0  0  0  0
 33 32  1  0  0  0  0
 34 33  1  0  0  0  0
 35 37  1  0  0  0  0
 35 33  1  0  0  0  0
 36 37  2  0  0  0  0
 37 38  2  0  0  0  0
 39 40  1  0  0  0  0
 40 45  1  0  0  0  0
 40 42  1  0  0  0  0
 41 42  1  0  0  0  0
 41 44  1  0  0  0  0
 42 44  1  0  0  0  0
 43 40  1  0  0  0  0
 45 47  1  0  0  0  0
 45 42  1  0  0  0  0
 47 46  1  0  0  0  0
 48 15  1  0  0  0  0
 49 48  1  0  0  0  0
 50 49  1  0  0  0  0
 51 53  1  0  0  0  0
 51 50  1  0  0  0  0
 52 49  1  0  0  0  0
 53 52  1  0  0  0  0
 54 48  1  0  0  0  0
 55 54  1  0  0  0  0
 56 55  1  0  0  0  0
 56 58  1  0  0  0  0
 57 56  2  0  0  0  0
 58 59  1  0  0  0  0
 59 60  1  0  0  0  0
 60 62  1  0  0  0  0
 60 61  1  0  0  0  0
 62 61  1  0  0  0  0
M  END
>  <MODEL>
6

>  <REMARK>
 VINA RESULT:      -6.4      2.019      2.922
  Name = 
  15 active torsions:
  status: ('A' for Active; 'I' for Inactive)
    1  A    between atoms: N_3  and  C_28
    2  A    between atoms: C_6  and  C_24
    3  A    between atoms: C_6  and  C_54
    4  A    between atoms: O_8  and  C_9
    5  A    between atoms: O_8  and  C_21
    6  A    between atoms: C_13  and  C_28
    7  A    between atoms: C_13  and  C_33
    8  A    between atoms: C_14  and  C_43
    9  A    between atoms: C_17  and  C_55
   10  A    between atoms: C_18  and  O_30
   11  A    between atoms: C_18  and  C_33
   12  A    between atoms: N_20  and  C_61
   13  A    between atoms: C_28  and  C_49
   14  A    between atoms: O_30  and  C_43
   15  A    between atoms: C_48  and  O_50
                            x       y       z     vdW  Elec       q    Type
                         _______ _______ _______ _____ _____    ______ ____

>  <TORSDO>
F 15

$$$$
=
 OpenBabel11062423023D

 62 73  0  0  1  0  0  0  0  0999 V2000
  189.8050  174.6640  142.3480 C   0  0  0  0  0  2  0  0  0  0  0  0
  190.9110  175.2830  147.4240 C   0  0  0  0  0  0  0  0  0  0  0  0
  191.4940  174.8430  145.0430 C   0  0  1  0  0  3  0  0  0  0  0  0
  191.7360  171.7130  139.7790 C   0  0  2  0  0  3  0  0  0  0  0  0
  190.3670  175.8590  144.6710 C   0  0  2  0  0  3  0  0  0  0  0  0
  189.1790  175.8000  145.6440 C   0  0  1  0  0  3  0  0  0  0  0  0
  192.1930  173.4170  141.7010 C   0  0  2  0  0  0  0  0  0  0  0  0
  192.9420  170.9380  140.3110 C   0  0  2  0  0  3  0  0  0  0  0  0
  192.1460  174.6540  142.5980 C   0  0  2  0  0  3  0  0  0  0  0  0
  193.8900  173.9830  139.9680 C   0  0  0  0  0  2  0  0  0  0  0  0
  189.8570  175.9630  143.2020 C   0  0  0  0  0  2  0  0  0  0  0  0
  192.4130  174.1800  140.3720 C   0  0  1  0  0  3  0  0  0  0  0  0
  194.2110  172.8080  139.0630 C   0  0  0  0  0  2  0  0  0  0  0  0
  192.6530  174.6410  144.0350 C   0  0  0  0  0  2  0  0  0  0  0  0
  194.2340  171.5280  139.8900 C   0  0  2  0  0  0  0  0  0  0  0  0
  192.0350  175.1360  146.4360 C   0  0  0  0  0  2  0  0  0  0  0  0
  190.9870  173.7290  142.6260 C   0  0  1  0  0  3  0  0  0  0  0  0
  193.6690  170.4410  139.2020 O   0  0  0  0  0  0  0  0  0  0  0  0
  191.1650  175.5000  148.5950 O   0  0  0  0  0  0  0  0  0  0  0  0
  189.4770  175.1180  146.9920 C   0  0  0  0  0  2  0  0  0  0  0  0
  191.3940  173.0830  140.4310 C   0  0  1  0  0  3  0  0  0  0  0  0
  188.6380  177.2060  145.8740 C   0  0  0  0  0  2  0  0  0  0  0  0
  185.0290  176.9530  147.2010 C   0  0  0  0  0  2  0  0  0  0  0  0
  186.5500  176.7630  147.1180 C   0  0  0  0  0  2  0  0  0  0  0  0
  185.4610  179.0950  146.1720 O   0  0  0  0  0  0  0  0  0  0  0  0
  187.1200  177.2410  145.7880 C   0  0  1  0  0  3  0  0  0  0  0  0
  186.6260  178.6760  145.4710 C   0  0  1  0  0  3  0  0  0  0  0  0
  184.5400  178.0310  146.2320 C   0  0  0  0  0  2  0  0  0  0  0  0
  185.3110  178.3320  143.3320 C   0  0  0  0  0  2  0  0  0  0  0  0
  186.5560  178.9680  143.9680 C   0  0  2  0  0  3  0  0  0  0  0  0
  185.6630  177.0720  142.5440 C   0  0  0  0  0  2  0  0  0  0  0  0
  188.8520  178.2600  141.0990 F   0  0  0  0  0  0  0  0  0  0  0  0
  187.6460  178.5050  141.7330 C   0  0  2  0  0  3  0  0  0  0  0  0
  187.8690  178.6570  143.2370 C   0  0  0  0  0  2  0  0  0  0  0  0
  186.6600  177.3720  141.4080 C   0  0  2  0  0  3  0  0  0  0  0  0
  184.7140  178.2760  140.2430 O   0  0  0  0  0  0  0  0  0  0  0  0
  185.9530  177.6770  140.1690 N   0  0  0  0  0  0  0  0  0  0  0  0
  186.3080  177.1420  139.1000 O   0  0  0  0  0  0  0  0  0  0  0  0
  190.6580  170.8270  139.4960 O   0  0  0  0  0  0  0  0  0  0  0  0
  189.9580  171.1200  138.2960 C   0  0  1  0  0  0  0  0  0  0  0  0
  189.9650  168.9080  137.8130 O   0  0  0  0  0  0  0  0  0  0  0  0
  189.8880  170.1090  137.1030 C   0  0  0  0  0  0  0  0  0  0  0  0
  188.9250  172.2450  138.3540 C   0  0  0  0  0  1  0  0  0  0  0  0
  190.8150  169.0970  136.8370 O   0  0  0  0  0  0  0  0  0  0  0  0
  190.9330  171.2390  137.1950 C   0  0  1  0  0  3  0  0  0  0  0  0
  191.3510  171.9200  135.1370 C   0  0  0  0  0  1  0  0  0  0  0  0
  190.6110  172.2440  136.2740 O   0  0  0  0  0  0  0  0  0  0  0  0
  195.4800  171.1020  140.6710 C   0  0  2  0  0  3  0  0  0  0  0  0
  195.7080  169.6500  140.5980 N   0  0  0  0  0  0  0  0  0  0  0  0
  197.0490  169.4240  140.0680 C   0  0  0  0  0  2  0  0  0  0  0  0
  197.5860  168.1830  140.7280 C   0  0  0  0  0  2  0  0  0  0  0  0
  195.6750  169.0220  141.9220 C   0  0  0  0  0  2  0  0  0  0  0  0
  196.9140  168.1660  142.0780 C   0  0  0  0  0  2  0  0  0  0  0  0
  195.5090  171.6790  142.0960 C   0  0  0  0  0  2  0  0  0  0  0  0
  196.8860  172.2380  142.4120 C   0  0  0  0  0  2  0  0  0  0  0  0
  196.9180  173.7110  142.1550 C   0  0  0  0  0  0  0  0  0  0  0  0
  197.4880  174.1630  141.0500 C   0  0  0  0  0  2  0  0  0  0  0  0
  196.3790  174.6230  143.0670 O   0  0  0  0  0  0  0  0  0  0  0  0
  196.9480  174.8640  144.3480 C   0  0  0  0  0  2  0  0  0  0  0  0
  195.9320  174.5690  145.4400 C   0  0  0  0  0  3  0  0  0  0  0  0
  196.6160  173.8070  146.5550 C   0  0  0  0  0  2  0  0  0  0  0  0
  195.7480  173.0680  145.5590 C   0  0  0  0  0  2  0  0  0  0  0  0
  1 17  1  0  0  0  0
  1 11  1  0  0  0  0
  2 19  2  0  0  0  0
  3 14  1  6  0  0  0
  3 16  1  0  0  0  0
  4 39  1  1  0  0  0
  4  8  1  0  0  0  0
  4 21  1  0  0  0  0
  5 11  1  6  0  0  0
  5  3  1  0  0  0  0
  5  6  1  0  0  0  0
  6 22  1  1  0  0  0
  6 20  1  0  0  0  0
  7  9  1  0  0  0  0
  7 17  1  0  0  0  0
  9 17  1  0  0  0  0
  9 14  1  0  0  0  0
 10 12  1  0  0  0  0
 12 21  1  0  0  0  0
 12  7  1  0  0  0  0
 13 15  1  0  0  0  0
 13 10  1  0  0  0  0
 15  8  1  0  0  0  0
 15 48  1  0  0  0  0
 16  2  1  0  0  0  0
 18 15  1  0  0  0  0
 18  8  1  0  0  0  0
 20  2  1  0  0  0  0
 21  7  1  0  0  0  0
 24 23  1  0  0  0  0
 25 28  1  0  0  0  0
 26 22  1  0  0  0  0
 26 24  1  0  0  0  0
 27 26  1  0  0  0  0
 27 25  1  0  0  0  0
 28 23  1  0  0  0  0
 29 30  1  0  0  0  0
 30 27  1  0  0  0  0
 31 29  1  0  0  0  0
 32 33  1  0  0  0  0
 33 34  1  0  0  0  0
 34 30  1  0  0  0  0
 35 33  1  0  0  0  0
 35 31  1  0  0  0  0
 37 36  2  0  0  0  0
 37 35  1  0  0  0  0
 38 37  2  0  0  0  0
 40 43  1  0  0  0  0
 40 39  1  0  0  0  0
 42 45  1  0  0  0  0
 42 41  1  0  0  0  0
 42 40  1  0  0  0  0
 44 42  1  0  0  0  0
 44 41  1  0  0  0  0
 45 40  1  0  0  0  0
 46 47  1  0  0  0  0
 47 45  1  0  0  0  0
 48 54  1  0  0  0  0
 49 48  1  0  0  0  0
 49 52  1  0  0  0  0
 50 49  1  0  0  0  0
 50 51  1  0  0  0  0
 51 53  1  0  0  0  0
 52 53  1  0  0  0  0
 54 55  1  0  0  0  0
 56 55  1  0  0  0  0
 56 58  1  0  0  0  0
 57 56  2  0  0  0  0
 58 59  1  0  0  0  0
 59 60  1  0  0  0  0
 60 62  1  0  0  0  0
 60 61  1  0  0  0  0
 62 61  1  0  0  0  0
M  END
>  <MODEL>
7

>  <REMARK>
 VINA RESULT:      -6.3      2.747      6.664
  Name = 
  15 active torsions:
  status: ('A' for Active; 'I' for Inactive)
    1  A    between atoms: N_3  and  C_28
    2  A    between atoms: C_6  and  C_24
    3  A    between atoms: C_6  and  C_54
    4  A    between atoms: O_8  and  C_9
    5  A    between atoms: O_8  and  C_21
    6  A    between atoms: C_13  and  C_28
    7  A    between atoms: C_13  and  C_33
    8  A    between atoms: C_14  and  C_43
    9  A    between atoms: C_17  and  C_55
   10  A    between atoms: C_18  and  O_30
   11  A    between atoms: C_18  and  C_33
   12  A    between atoms: N_20  and  C_61
   13  A    between atoms: C_28  and  C_49
   14  A    between atoms: O_30  and  C_43
   15  A    between atoms: C_48  and  O_50
                            x       y       z     vdW  Elec       q    Type
                         _______ _______ _______ _____ _____    ______ ____

>  <TORSDO>
F 15

$$$$
=
 OpenBabel11062423023D

 62 73  0  0  1  0  0  0  0  0999 V2000
  191.1240  172.7540  140.0750 C   0  0  0  0  0  2  0  0  0  0  0  0
  196.3300  172.2390  140.0660 C   0  0  0  0  0  0  0  0  0  0  0  0
  194.1310  172.7290  141.1260 C   0  0  1  0  0  3  0  0  0  0  0  0
  188.9900  175.8650  142.2680 C   0  0  2  0  0  3  0  0  0  0  0  0
  193.5380  171.6150  140.2050 C   0  0  2  0  0  3  0  0  0  0  0  0
  194.2200  171.5690  138.8280 C   0  0  1  0  0  3  0  0  0  0  0  0
  191.0010  174.2090  142.4290 C   0  0  2  0  0  0  0  0  0  0  0  0
  189.7620  176.7450  143.2520 C   0  0  2  0  0  3  0  0  0  0  0  0
  191.8900  172.9740  142.2900 C   0  0  2  0  0  3  0  0  0  0  0  0
  189.7020  173.7970  144.5130 C   0  0  0  0  0  2  0  0  0  0  0  0
  191.9950  171.4650  140.0470 C   0  0  0  0  0  2  0  0  0  0  0  0
  189.7700  173.4690  143.0070 C   0  0  1  0  0  3  0  0  0  0  0  0
  188.8670  174.9960  144.9260 C   0  0  0  0  0  2  0  0  0  0  0  0
  193.4030  173.0330  142.4600 C   0  0  0  0  0  2  0  0  0  0  0  0
  189.6520  176.2730  144.6520 C   0  0  2  0  0  0  0  0  0  0  0  0
  195.6160  172.4860  141.3650 C   0  0  0  0  0  2  0  0  0  0  0  0
  191.6390  173.7920  141.0790 C   0  0  1  0  0  3  0  0  0  0  0  0
  188.8330  177.3040  144.1620 O   0  0  0  0  0  0  0  0  0  0  0  0
  197.5330  172.0470  140.0690 O   0  0  0  0  0  0  0  0  0  0  0  0
  195.5870  172.2750  138.7570 C   0  0  0  0  0  2  0  0  0  0  0  0
  189.5780  174.4700  141.9090 C   0  0  1  0  0  3  0  0  0  0  0  0
  194.3530  170.1200  138.3740 C   0  0  0  0  0  2  0  0  0  0  0  0
  196.7740  169.2090  135.5180 C   0  0  0  0  0  2  0  0  0  0  0  0
  196.2700  169.5270  136.9330 C   0  0  0  0  0  2  0  0  0  0  0  0
  194.5960  168.2170  135.2010 O   0  0  0  0  0  0  0  0  0  0  0  0
  194.8300  170.0280  136.9330 C   0  0  1  0  0  3  0  0  0  0  0  0
  193.9230  169.0710  136.1190 C   0  0  1  0  0  3  0  0  0  0  0  0
  195.6200  168.9360  134.5540 C   0  0  0  0  0  2  0  0  0  0  0  0
  193.0440  171.2200  135.1050 C   0  0  0  0  0  2  0  0  0  0  0  0
  192.7100  169.7740  135.5010 C   0  0  2  0  0  3  0  0  0  0  0  0
  192.4680  172.2250  136.1000 C   0  0  0  0  0  2  0  0  0  0  0  0
  189.2550  170.5090  136.7390 F   0  0  0  0  0  0  0  0  0  0  0  0
  190.4010  170.6890  135.9830 C   0  0  2  0  0  3  0  0  0  0  0  0
  191.4390  169.6300  136.3490 C   0  0  0  0  0  2  0  0  0  0  0  0
  190.9330  172.1150  136.1950 C   0  0  2  0  0  3  0  0  0  0  0  0
  190.4740  174.3800  135.4090 O   0  0  0  0  0  0  0  0  0  0  0  0
  190.2930  173.0230  135.2510 N   0  0  0  0  0  0  0  0  0  0  0  0
  189.3690  172.6140  134.5200 O   0  0  0  0  0  0  0  0  0  0  0  0
  188.4570  176.6510  141.2080 O   0  0  0  0  0  0  0  0  0  0  0  0
  187.0400  176.7480  141.2060 C   0  0  1  0  0  0  0  0  0  0  0  0
  187.0640  176.3120  138.9850 O   0  0  0  0  0  0  0  0  0  0  0  0
  186.2200  176.9610  139.8890 C   0  0  0  0  0  0  0  0  0  0  0  0
  186.3080  176.2190  142.4380 C   0  0  0  0  0  1  0  0  0  0  0  0
  186.7030  177.5390  138.7120 O   0  0  0  0  0  0  0  0  0  0  0  0
  186.6600  178.1180  140.8090 C   0  0  1  0  0  3  0  0  0  0  0  0
  184.4630  178.2950  140.6770 C   0  0  0  0  0  1  0  0  0  0  0  0
  185.5450  178.6070  141.5010 O   0  0  0  0  0  0  0  0  0  0  0  0
  190.6820  176.8090  145.6490 C   0  0  2  0  0  3  0  0  0  0  0  0
  191.9960  176.1690  145.4840 N   0  0  0  0  0  0  0  0  0  0  0  0
  192.9180  177.1550  144.9290 C   0  0  0  0  0  2  0  0  0  0  0  0
  194.2780  176.8670  145.5060 C   0  0  0  0  0  2  0  0  0  0  0  0
  192.5660  175.7450  146.7660 C   0  0  0  0  0  2  0  0  0  0  0  0
  193.9840  176.2680  146.8570 C   0  0  0  0  0  2  0  0  0  0  0  0
  190.1560  176.8160  147.0940 C   0  0  0  0  0  2  0  0  0  0  0  0
  189.3190  178.0590  147.3450 C   0  0  0  0  0  2  0  0  0  0  0  0
  187.8780  177.6900  147.5030 C   0  0  0  0  0  0  0  0  0  0  0  0
  187.5440  176.4130  147.5990 C   0  0  0  0  0  2  0  0  0  0  0  0
  186.8740  178.6620  147.5300 O   0  0  0  0  0  0  0  0  0  0  0  0
  185.6000  178.4760  146.9270 C   0  0  0  0  0  2  0  0  0  0  0  0
  185.7400  178.3950  145.4150 C   0  0  0  0  0  3  0  0  0  0  0  0
  185.5470  179.7770  144.8280 C   0  0  0  0  0  2  0  0  0  0  0  0
  184.4200  178.7680  144.7700 C   0  0  0  0  0  2  0  0  0  0  0  0
  1 17  1  0  0  0  0
  2 19  2  0  0  0  0
  2 16  1  0  0  0  0
  3 16  1  1  0  0  0
  3 14  1  0  0  0  0
  4 39  1  6  0  0  0
  4  8  1  0  0  0  0
  5 11  1  6  0  0  0
  5  3  1  0  0  0  0
  6 22  1  1  0  0  0
  6  5  1  0  0  0  0
  7 12  1  0  0  0  0
  8 18  1  0  0  0  0
  8 15  1  0  0  0  0
  9  7  1  0  0  0  0
  9 14  1  0  0  0  0
 10 13  1  0  0  0  0
 11  1  1  0  0  0  0
 12 10  1  0  0  0  0
 15 13  1  0  0  0  0
 15 48  1  0  0  0  0
 17  9  1  0  0  0  0
 17  7  1  0  0  0  0
 18 15  1  0  0  0  0
 20  6  1  0  0  0  0
 20  2  1  0  0  0  0
 21  4  1  0  0  0  0
 21  7  1  0  0  0  0
 21 12  1  0  0  0  0
 23 24  1  0  0  0  0
 24 26  1  0  0  0  0
 25 27  1  0  0  0  0
 26 22  1  0  0  0  0
 27 26  1  0  0  0  0
 28 25  1  0  0  0  0
 28 23  1  0  0  0  0
 29 30  1  0  0  0  0
 29 31  1  0  0  0  0
 30 27  1  0  0  0  0
 30 34  1  0  0  0  0
 31 35  1  0  0  0  0
 33 35  1  0  0  0  0
 33 34  1  0  0  0  0
 33 32  1  0  0  0  0
 37 36  2  0  0  0  0
 37 35  1  0  0  0  0
 38 37  2  0  0  0  0
 40 39  1  0  0  0  0
 40 43  1  0  0  0  0
 41 42  1  0  0  0  0
 42 45  1  0  0  0  0
 42 40  1  0  0  0  0
 44 41  1  0  0  0  0
 44 42  1  0  0  0  0
 45 40  1  0  0  0  0
 45 47  1  0  0  0  0
 46 47  1  0  0  0  0
 48 54  1  0  0  0  0
 49 48  1  0  0  0  0
 49 52  1  0  0  0  0
 50 49  1  0  0  0  0
 50 51  1  0  0  0  0
 51 53  1  0  0  0  0
 52 53  1  0  0  0  0
 54 55  1  0  0  0  0
 55 56  1  0  0  0  0
 56 58  1  0  0  0  0
 56 57  2  0  0  0  0
 59 58  1  0  0  0  0
 60 59  1  0  0  0  0
 61 60  1  0  0  0  0
 62 61  1  0  0  0  0
 62 60  1  0  0  0  0
M  END
>  <MODEL>
8

>  <REMARK>
 VINA RESULT:      -5.8      2.548     11.539
  Name = 
  15 active torsions:
  status: ('A' for Active; 'I' for Inactive)
    1  A    between atoms: N_3  and  C_28
    2  A    between atoms: C_6  and  C_24
    3  A    between atoms: C_6  and  C_54
    4  A    between atoms: O_8  and  C_9
    5  A    between atoms: O_8  and  C_21
    6  A    between atoms: C_13  and  C_28
    7  A    between atoms: C_13  and  C_33
    8  A    between atoms: C_14  and  C_43
    9  A    between atoms: C_17  and  C_55
   10  A    between atoms: C_18  and  O_30
   11  A    between atoms: C_18  and  C_33
   12  A    between atoms: N_20  and  C_61
   13  A    between atoms: C_28  and  C_49
   14  A    between atoms: O_30  and  C_43
   15  A    between atoms: C_48  and  O_50
                            x       y       z     vdW  Elec       q    Type
                         _______ _______ _______ _____ _____    ______ ____

>  <TORSDO>
F 15

$$$$
=
 OpenBabel11062423023D

 62 73  0  0  1  0  0  0  0  0999 V2000
  193.5830  171.5240  139.8770 C   0  0  0  0  0  2  0  0  0  0  0  0
  190.1040  171.3330  135.9740 C   0  0  0  0  0  0  0  0  0  0  0  0
  191.1220  172.3250  138.0190 C   0  0  1  0  0  3  0  0  0  0  0  0
  192.6050  172.7380  143.9520 C   0  0  2  0  0  3  0  0  0  0  0  0
  192.5010  171.8510  137.4560 C   0  0  2  0  0  3  0  0  0  0  0  0
  192.3970  170.5200  136.6930 C   0  0  1  0  0  3  0  0  0  0  0  0
  192.1340  173.2880  141.4450 C   0  0  2  0  0  0  0  0  0  0  0  0
  191.2270  173.3330  144.2410 C   0  0  2  0  0  3  0  0  0  0  0  0
  192.2970  173.4950  139.9390 C   0  0  2  0  0  3  0  0  0  0  0  0
  192.7890  175.4760  142.4370 C   0  0  0  0  0  2  0  0  0  0  0  0
  193.7650  171.8540  138.3670 C   0  0  0  0  0  2  0  0  0  0  0  0
  193.3450  174.1540  141.8670 C   0  0  1  0  0  3  0  0  0  0  0  0
  192.5360  175.5370  143.9330 C   0  0  0  0  0  2  0  0  0  0  0  0
  191.1090  173.5350  138.9860 C   0  0  0  0  0  2  0  0  0  0  0  0
  191.2320  174.8150  144.2510 C   0  0  2  0  0  0  0  0  0  0  0  0
  190.1260  172.5290  136.8850 C   0  0  0  0  0  2  0  0  0  0  0  0
  192.2880  172.1050  140.4550 C   0  0  1  0  0  3  0  0  0  0  0  0
  191.3120  174.0750  145.4430 O   0  0  0  0  0  0  0  0  0  0  0  0
  189.3450  171.3180  135.0210 O   0  0  0  0  0  0  0  0  0  0  0  0
  190.9720  170.1340  136.2520 C   0  0  0  0  0  2  0  0  0  0  0  0
  193.1480  172.8080  142.4960 C   0  0  1  0  0  3  0  0  0  0  0  0
  193.3310  170.5480  135.4900 C   0  0  0  0  0  2  0  0  0  0  0  0
  196.3120  168.2850  136.4060 C   0  0  0  0  0  2  0  0  0  0  0  0
  194.8620  168.7400  136.1900 C   0  0  0  0  0  2  0  0  0  0  0  0
  196.8090  169.7050  134.5170 O   0  0  0  0  0  0  0  0  0  0  0  0
  194.7640  170.2310  135.8880 C   0  0  1  0  0  3  0  0  0  0  0  0
  195.7440  170.6190  134.7520 C   0  0  1  0  0  3  0  0  0  0  0  0
  197.3090  169.2400  135.7500 C   0  0  0  0  0  2  0  0  0  0  0  0
  197.3470  172.2380  135.8610 C   0  0  0  0  0  2  0  0  0  0  0  0
  196.2140  172.0750  134.8360 C   0  0  2  0  0  3  0  0  0  0  0  0
  196.8450  172.8690  137.1580 C   0  0  0  0  0  2  0  0  0  0  0  0
  194.4910  175.2940  135.6580 F   0  0  0  0  0  0  0  0  0  0  0  0
  195.5510  174.4100  135.5480 C   0  0  2  0  0  3  0  0  0  0  0  0
  195.0580  173.0680  135.0090 C   0  0  0  0  0  2  0  0  0  0  0  0
  196.2380  174.2640  136.9140 C   0  0  2  0  0  3  0  0  0  0  0  0
  197.6730  175.9870  135.9480 O   0  0  0  0  0  0  0  0  0  0  0  0
  197.2520  175.3010  137.0670 N   0  0  0  0  0  0  0  0  0  0  0  0
  197.9370  175.3550  138.1080 O   0  0  0  0  0  0  0  0  0  0  0  0
  192.7830  171.5200  144.6660 O   0  0  0  0  0  0  0  0  0  0  0  0
  194.1380  171.1300  144.8330 C   0  0  1  0  0  0  0  0  0  0  0  0
  193.8640  169.6440  143.1470 O   0  0  0  0  0  0  0  0  0  0  0  0
  194.6950  169.7830  144.2620 C   0  0  0  0  0  0  0  0  0  0  0  0
  195.1350  172.2290  145.1990 C   0  0  0  0  0  1  0  0  0  0  0  0
  193.9390  168.6410  143.9830 O   0  0  0  0  0  0  0  0  0  0  0  0
  194.1860  169.9430  145.7080 C   0  0  1  0  0  3  0  0  0  0  0  0
  195.4020  168.6110  146.9820 C   0  0  0  0  0  1  0  0  0  0  0  0
  195.2770  169.9430  146.5850 O   0  0  0  0  0  0  0  0  0  0  0  0
  189.8770  175.5160  144.1240 C   0  0  2  0  0  3  0  0  0  0  0  0
  189.6800  176.0990  142.7870 N   0  0  0  0  0  0  0  0  0  0  0  0
  188.3850  175.6550  142.2820 C   0  0  0  0  0  2  0  0  0  0  0  0
  187.8240  176.7770  141.4500 C   0  0  0  0  0  2  0  0  0  0  0  0
  189.6300  177.5630  142.8290 C   0  0  0  0  0  2  0  0  0  0  0  0
  188.3980  178.0210  142.0780 C   0  0  0  0  0  2  0  0  0  0  0  0
  189.6020  176.4840  145.2860 C   0  0  0  0  0  2  0  0  0  0  0  0
  188.5860  175.8850  146.2440 C   0  0  0  0  0  2  0  0  0  0  0  0
  187.5870  176.9190  146.6530 C   0  0  0  0  0  0  0  0  0  0  0  0
  187.9340  177.8430  147.5350 C   0  0  0  0  0  2  0  0  0  0  0  0
  186.2860  176.9210  146.1400 O   0  0  0  0  0  0  0  0  0  0  0  0
  185.9980  177.1110  144.7600 C   0  0  0  0  0  2  0  0  0  0  0  0
  185.6310  178.5620  144.4930 C   0  0  0  0  0  3  0  0  0  0  0  0
  184.7850  179.0740  145.6400 C   0  0  0  0  0  2  0  0  0  0  0  0
  184.1280  178.6770  144.3350 C   0  0  0  0  0  2  0  0  0  0  0  0
  1 17  1  0  0  0  0
  2 20  1  0  0  0  0
  2 16  1  0  0  0  0
  3 16  1  6  0  0  0
  3 14  1  0  0  0  0
  4  8  1  0  0  0  0
  4 39  1  6  0  0  0
  5  3  1  0  0  0  0
  5 11  1  1  0  0  0
  6 22  1  6  0  0  0
  6  5  1  0  0  0  0
  7 12  1  0  0  0  0
  7 21  1  0  0  0  0
  8 15  1  0  0  0  0
  8 18  1  0  0  0  0
  9 17  1  0  0  0  0
  9  7  1  0  0  0  0
 10 13  1  0  0  0  0
 11  1  1  0  0  0  0
 12 10  1  0  0  0  0
 12 21  1  0  0  0  0
 13 15  1  0  0  0  0
 14  9  1  0  0  0  0
 15 18  1  0  0  0  0
 17  7  1  0  0  0  0
 19  2  2  0  0  0  0
 20  6  1  0  0  0  0
 21  4  1  0  0  0  0
 22 26  1  0  0  0  0
 24 23  1  0  0  0  0
 25 27  1  0  0  0  0
 25 28  1  0  0  0  0
 26 24  1  0  0  0  0
 27 30  1  0  0  0  0
 27 26  1  0  0  0  0
 28 23  1  0  0  0  0
 29 31  1  0  0  0  0
 30 34  1  0  0  0  0
 30 29  1  0  0  0  0
 33 32  1  0  0  0  0
 33 35  1  0  0  0  0
 34 33  1  0  0  0  0
 35 37  1  0  0  0  0
 35 31  1  0  0  0  0
 36 37  2  0  0  0  0
 37 38  2  0  0  0  0
 39 40  1  0  0  0  0
 40 43  1  0  0  0  0
 40 45  1  0  0  0  0
 41 44  1  0  0  0  0
 41 42  1  0  0  0  0
 42 40  1  0  0  0  0
 42 45  1  0  0  0  0
 44 42  1  0  0  0  0
 45 47  1  0  0  0  0
 47 46  1  0  0  0  0
 48 15  1  0  0  0  0
 48 54  1  0  0  0  0
 49 52  1  0  0  0  0
 49 48  1  0  0  0  0
 50 49  1  0  0  0  0
 51 53  1  0  0  0  0
 51 50  1  0  0  0  0
 53 52  1  0  0  0  0
 54 55  1  0  0  0  0
 55 56  1  0  0  0  0
 56 57  2  0  0  0  0
 58 56  1  0  0  0  0
 59 58  1  0  0  0  0
 60 59  1  0  0  0  0
 60 61  1  0  0  0  0
 62 60  1  0  0  0  0
 62 61  1  0  0  0  0
M  END
>  <MODEL>
9

>  <REMARK>
 VINA RESULT:      -5.5      2.810     10.362
  Name = 
  15 active torsions:
  status: ('A' for Active; 'I' for Inactive)
    1  A    between atoms: N_3  and  C_28
    2  A    between atoms: C_6  and  C_24
    3  A    between atoms: C_6  and  C_54
    4  A    between atoms: O_8  and  C_9
    5  A    between atoms: O_8  and  C_21
    6  A    between atoms: C_13  and  C_28
    7  A    between atoms: C_13  and  C_33
    8  A    between atoms: C_14  and  C_43
    9  A    between atoms: C_17  and  C_55
   10  A    between atoms: C_18  and  O_30
   11  A    between atoms: C_18  and  C_33
   12  A    between atoms: N_20  and  C_61
   13  A    between atoms: C_28  and  C_49
   14  A    between atoms: O_30  and  C_43
   15  A    between atoms: C_48  and  O_50
                            x       y       z     vdW  Elec       q    Type
                         _______ _______ _______ _____ _____    ______ ____

>  <TORSDO>
F 15

$$$$
