=
 OpenBabel11062422583D

 29 35  0  0  1  0  0  0  0  0999 V2000
  188.6050  176.9800  144.7890 N   0  0  0  0  0  0  0  0  0  0  0  0
  191.6250  175.9450  146.4490 C   0  0  1  0  0  0  0  0  0  0  0  0
  190.7380  176.5510  147.5430 C   0  0  0  0  0  2  0  0  0  0  0  0
  186.7400  177.0160  143.1300 C   0  0  2  0  0  3  0  0  0  0  0  0
  188.4160  177.4710  146.9970 N   0  0  0  0  0  0  0  0  0  0  0  0
  192.7950  177.4060  144.4220 O   0  0  0  0  0  0  0  0  0  0  0  0
  192.6910  174.9260  146.7640 C   0  0  0  0  0  2  0  0  0  0  0  0
  190.9410  175.9610  145.0580 C   0  0  1  0  0  3  0  0  0  0  0  0
  193.0780  176.3920  146.5630 C   0  0  1  0  0  3  0  0  0  0  0  0
  187.8030  177.4180  145.7850 C   0  0  0  0  0  0  0  0  0  0  0  0
  189.8050  176.8540  145.3720 C   0  0  0  0  0  0  0  0  0  0  0  0
  185.9140  178.6990  146.3910 O   0  0  0  0  0  1  0  0  0  0  0  0
  186.1530  178.0630  144.0960 C   0  0  1  0  0  3  0  0  0  0  0  0
  184.7330  178.2340  143.8290 N   0  0  0  0  0  1  0  0  0  0  0  0
  189.6850  177.1430  146.6840 C   0  0  0  0  0  0  0  0  0  0  0  0
  193.6740  176.6180  145.1780 C   0  0  0  0  0  2  0  0  0  0  0  0
  188.1690  176.5370  143.4630 C   0  0  2  0  0  3  0  0  0  0  0  0
  186.3510  177.6660  145.5600 C   0  0  1  0  0  3  0  0  0  0  0  0
  191.8270  176.5170  143.9330 C   0  0  0  0  0  2  0  0  0  0  0  0
  186.7060  177.6420  141.4230 S   0  0  0  0  0  0  0  0  0  0  0  0
  188.3840  178.3160  141.5630 C   0  0  0  0  0  1  0  0  0  0  0  0
  188.1900  175.0790  143.3990 N   0  0  0  0  0  2  0  0  0  0  0  0
  189.9830  173.2060  142.8890 S   0  0  0  0  0  0  0  0  0  0  0  0
  189.2790  172.6830  140.5040 C   0  0  0  0  0  1  0  0  0  0  0  0
  191.4290  173.2770  142.4870 O   0  0  0  0  0  0  0  0  0  0  0  0
  188.6440  173.3690  141.6950 C   0  0  2  0  0  0  0  0  0  0  0  0
  189.6980  172.8830  144.3300 O   0  0  0  0  0  0  0  0  0  0  0  0
  189.1270  174.6760  142.3590 C   0  0  1  0  0  0  0  0  0  0  0  0
  188.4400  174.7090  141.0510 C   0  0  0  0  0  2  0  0  0  0  0  0
  1 11  1  0  0  0  0
  1 10  1  0  0  0  0
  2  9  1  0  0  0  0
  2  7  1  1  0  0  0
  2  3  1  0  0  0  0
  4 20  1  6  0  0  0
  4 17  1  0  0  0  0
  4 13  1  0  0  0  0
  6 16  1  0  0  0  0
  8 19  1  6  0  0  0
  8 11  1  0  0  0  0
  8  2  1  0  0  0  0
  9 16  1  6  0  0  0
  9  7  1  0  0  0  0
 10  5  2  0  0  0  0
 11 15  2  0  0  0  0
 13 14  1  6  0  0  0
 13 18  1  0  0  0  0
 15  5  1  0  0  0  0
 15  3  1  0  0  0  0
 17 22  1  1  0  0  0
 17  1  1  0  0  0  0
 18 10  1  0  0  0  0
 18 12  1  1  0  0  0
 19  6  1  0  0  0  0
 20 21  1  0  0  0  0
 23 27  2  0  0  0  0
 25 23  2  0  0  0  0
 26 24  1  6  0  0  0
 26 28  1  0  0  0  0
 26 23  1  0  0  0  0
 28 23  1  0  0  0  0
 28 22  1  1  0  0  0
 29 26  1  0  0  0  0
 29 28  1  0  0  0  0
M  END
>  <MODEL>
1

>  <REMARK>
 VINA RESULT:      -7.4      0.000      0.000
  Name = 
  3 active torsions:
  status: ('A' for Active; 'I' for Inactive)
    1  A    between atoms: C_6  and  S_24
    2  A    between atoms: N_13  and  C_22
    3  A    between atoms: N_13  and  C_25
                            x       y       z     vdW  Elec       q    Type
                         _______ _______ _______ _____ _____    ______ ____

>  <TORSDO>
F 3

$$$$
=
 OpenBabel11062422583D

 29 35  0  0  1  0  0  0  0  0999 V2000
  189.0800  176.9180  145.2750 N   0  0  0  0  0  0  0  0  0  0  0  0
  192.1970  175.3180  146.0920 C   0  0  1  0  0  0  0  0  0  0  0  0
  191.5550  175.6830  147.4350 C   0  0  0  0  0  2  0  0  0  0  0  0
  186.9960  177.4820  144.0210 C   0  0  2  0  0  3  0  0  0  0  0  0
  189.2820  176.8500  147.5340 N   0  0  0  0  0  0  0  0  0  0  0  0
  193.1860  177.1670  144.2980 O   0  0  0  0  0  0  0  0  0  0  0  0
  193.1890  174.1890  145.9660 C   0  0  0  0  0  2  0  0  0  0  0  0
  191.3140  175.7240  144.8840 C   0  0  1  0  0  3  0  0  0  0  0  0
  193.6890  175.6330  146.0540 C   0  0  1  0  0  3  0  0  0  0  0  0
  188.4880  177.1410  146.4690 C   0  0  0  0  0  0  0  0  0  0  0  0
  190.3360  176.5770  145.5940 C   0  0  0  0  0  0  0  0  0  0  0  0
  186.8550  178.3410  147.6810 O   0  0  0  0  0  1  0  0  0  0  0  0
  186.6730  178.2880  145.2940 C   0  0  1  0  0  3  0  0  0  0  0  0
  185.2540  178.6060  145.3260 N   0  0  0  0  0  1  0  0  0  0  0  0
  190.4480  176.5350  146.9370 C   0  0  0  0  0  0  0  0  0  0  0  0
  194.0850  176.1630  144.6810 C   0  0  0  0  0  2  0  0  0  0  0  0
  188.4030  176.8490  143.9780 C   0  0  2  0  0  3  0  0  0  0  0  0
  187.0520  177.5250  146.5660 C   0  0  1  0  0  3  0  0  0  0  0  0
  192.0690  176.4900  143.7870 C   0  0  0  0  0  2  0  0  0  0  0  0
  186.7650  178.5170  142.5440 S   0  0  0  0  0  0  0  0  0  0  0  0
  185.2290  177.6620  142.0990 C   0  0  0  0  0  1  0  0  0  0  0  0
  188.2660  175.4560  143.5670 N   0  0  0  0  0  2  0  0  0  0  0  0
  189.7560  173.6590  142.3300 S   0  0  0  0  0  0  0  0  0  0  0  0
  188.6590  173.8050  140.0410 C   0  0  0  0  0  1  0  0  0  0  0  0
  191.1280  173.7340  141.7190 O   0  0  0  0  0  0  0  0  0  0  0  0
  188.2810  174.2070  141.4520 C   0  0  2  0  0  0  0  0  0  0  0  0
  189.6530  173.0010  143.6770 O   0  0  0  0  0  0  0  0  0  0  0  0
  188.9920  175.2680  142.3190 C   0  0  1  0  0  0  0  0  0  0  0  0
  188.1280  175.6770  141.1910 C   0  0  0  0  0  2  0  0  0  0  0  0
  1 11  1  0  0  0  0
  1 10  1  0  0  0  0
  2  7  1  6  0  0  0
  2  3  1  0  0  0  0
  4 20  1  6  0  0  0
  4 13  1  0  0  0  0
  6 16  1  0  0  0  0
  7  9  1  0  0  0  0
  8 19  1  6  0  0  0
  8 11  1  0  0  0  0
  8  2  1  0  0  0  0
  9 16  1  6  0  0  0
  9  2  1  0  0  0  0
 10 18  1  0  0  0  0
 10  5  2  0  0  0  0
 11 15  2  0  0  0  0
 13 14  1  1  0  0  0
 13 18  1  0  0  0  0
 15  3  1  0  0  0  0
 15  5  1  0  0  0  0
 17 22  1  1  0  0  0
 17  4  1  0  0  0  0
 17  1  1  0  0  0  0
 18 12  1  1  0  0  0
 19  6  1  0  0  0  0
 21 20  1  0  0  0  0
 23 27  2  0  0  0  0
 25 23  2  0  0  0  0
 26 24  1  6  0  0  0
 26 28  1  0  0  0  0
 26 23  1  0  0  0  0
 28 23  1  0  0  0  0
 28 22  1  1  0  0  0
 29 26  1  0  0  0  0
 29 28  1  0  0  0  0
M  END
>  <MODEL>
2

>  <REMARK>
 VINA RESULT:      -7.1      1.052      1.166
  Name = 
  3 active torsions:
  status: ('A' for Active; 'I' for Inactive)
    1  A    between atoms: C_6  and  S_24
    2  A    between atoms: N_13  and  C_22
    3  A    between atoms: N_13  and  C_25
                            x       y       z     vdW  Elec       q    Type
                         _______ _______ _______ _____ _____    ______ ____

>  <TORSDO>
F 3

$$$$
=
 OpenBabel11062422583D

 29 35  0  0  1  0  0  0  0  0999 V2000
  187.6490  175.8490  143.1860 N   0  0  0  0  0  0  0  0  0  0  0  0
  190.0810  173.7780  141.5320 C   0  0  1  0  0  0  0  0  0  0  0  0
  189.2850  174.4560  140.4120 C   0  0  0  0  0  2  0  0  0  0  0  0
  186.6100  177.3030  144.9290 C   0  0  2  0  0  3  0  0  0  0  0  0
  187.3900  176.0880  140.9440 N   0  0  0  0  0  0  0  0  0  0  0  0
  189.0460  171.8590  143.2230 O   0  0  0  0  0  0  0  0  0  0  0  0
  191.4920  173.2890  141.3200 C   0  0  0  0  0  2  0  0  0  0  0  0
  189.6060  174.2130  142.9420 C   0  0  1  0  0  3  0  0  0  0  0  0
  190.3280  172.2990  141.2590 C   0  0  1  0  0  3  0  0  0  0  0  0
  187.0270  176.5100  142.1840 C   0  0  0  0  0  0  0  0  0  0  0  0
  188.3520  174.8970  142.5580 C   0  0  0  0  0  0  0  0  0  0  0  0
  185.1340  177.7430  141.4970 O   0  0  0  0  0  1  0  0  0  0  0  0
  185.5340  177.5110  143.8460 C   0  0  1  0  0  3  0  0  0  0  0  0
  184.7330  178.6810  144.1680 N   0  0  0  0  0  1  0  0  0  0  0  0
  188.1970  175.0460  141.2270 C   0  0  0  0  0  0  0  0  0  0  0  0
  190.2210  171.4950  142.5510 C   0  0  0  0  0  2  0  0  0  0  0  0
  187.6980  176.2620  144.5900 C   0  0  2  0  0  3  0  0  0  0  0  0
  186.1480  177.6820  142.4540 C   0  0  1  0  0  3  0  0  0  0  0  0
  189.3610  173.0420  143.9070 C   0  0  0  0  0  2  0  0  0  0  0  0
  185.8340  176.8580  146.5120 S   0  0  0  0  0  0  0  0  0  0  0  0
  186.5150  178.3220  147.3380 C   0  0  0  0  0  1  0  0  0  0  0  0
  189.0000  176.8490  144.8860 N   0  0  0  0  0  2  0  0  0  0  0  0
  191.5100  176.2780  145.4820 S   0  0  0  0  0  0  0  0  0  0  0  0
  191.2000  175.8810  147.9740 C   0  0  0  0  0  1  0  0  0  0  0  0
  192.3190  175.0190  145.3440 O   0  0  0  0  0  0  0  0  0  0  0  0
  190.4090  176.5650  146.8790 C   0  0  2  0  0  0  0  0  0  0  0  0
  191.7440  177.3470  144.4510 O   0  0  0  0  0  0  0  0  0  0  0  0
  189.7820  175.8810  145.6450 C   0  0  1  0  0  0  0  0  0  0  0  0
  189.1760  175.7150  146.9830 C   0  0  0  0  0  2  0  0  0  0  0  0
  1 17  1  0  0  0  0
  2  3  1  6  0  0  0
  2  8  1  0  0  0  0
  3 15  1  0  0  0  0
  4 20  1  1  0  0  0
  5 15  1  0  0  0  0
  5 10  2  0  0  0  0
  6 19  1  0  0  0  0
  7  2  1  0  0  0  0
  8 19  1  1  0  0  0
  9  7  1  1  0  0  0
  9  2  1  0  0  0  0
  9 16  1  0  0  0  0
 10 18  1  0  0  0  0
 10  1  1  0  0  0  0
 11  8  1  0  0  0  0
 11  1  1  0  0  0  0
 13 14  1  1  0  0  0
 13  4  1  0  0  0  0
 15 11  2  0  0  0  0
 16  6  1  0  0  0  0
 17 22  1  6  0  0  0
 17  4  1  0  0  0  0
 18 12  1  6  0  0  0
 18 13  1  0  0  0  0
 20 21  1  0  0  0  0
 23 28  1  0  0  0  0
 23 26  1  0  0  0  0
 25 23  2  0  0  0  0
 26 29  1  0  0  0  0
 26 24  1  6  0  0  0
 27 23  2  0  0  0  0
 28 22  1  6  0  0  0
 28 26  1  0  0  0  0
 28 29  1  0  0  0  0
M  END
>  <MODEL>
3

>  <REMARK>
 VINA RESULT:      -6.9      2.231      5.010
  Name = 
  3 active torsions:
  status: ('A' for Active; 'I' for Inactive)
    1  A    between atoms: C_6  and  S_24
    2  A    between atoms: N_13  and  C_22
    3  A    between atoms: N_13  and  C_25
                            x       y       z     vdW  Elec       q    Type
                         _______ _______ _______ _____ _____    ______ ____

>  <TORSDO>
F 3

$$$$
=
 OpenBabel11062422583D

 29 35  0  0  1  0  0  0  0  0999 V2000
  191.1270  174.5870  142.9150 N   0  0  0  0  0  0  0  0  0  0  0  0
  187.7360  175.7150  142.5020 C   0  0  1  0  0  0  0  0  0  0  0  0
  187.8640  174.4620  141.6300 C   0  0  0  0  0  2  0  0  0  0  0  0
  193.3440  174.1790  143.9880 C   0  0  2  0  0  3  0  0  0  0  0  0
  190.0640  173.1650  141.5010 N   0  0  0  0  0  0  0  0  0  0  0  0
  188.9940  178.1110  141.9630 O   0  0  0  0  0  0  0  0  0  0  0  0
  186.4060  176.1690  143.0500 C   0  0  0  0  0  2  0  0  0  0  0  0
  189.0490  176.0480  143.2560 C   0  0  1  0  0  3  0  0  0  0  0  0
  186.9820  176.8390  141.8010 C   0  0  1  0  0  3  0  0  0  0  0  0
  191.1890  173.4310  142.2190 C   0  0  0  0  0  0  0  0  0  0  0  0
  189.9620  175.1310  142.5390 C   0  0  0  0  0  0  0  0  0  0  0  0
  192.5570  171.8200  141.1650 O   0  0  0  0  0  1  0  0  0  0  0  0
  193.5780  173.3100  142.7380 C   0  0  1  0  0  3  0  0  0  0  0  0
  194.6970  172.4090  142.9680 N   0  0  0  0  0  1  0  0  0  0  0  0
  189.3340  174.2790  141.7020 C   0  0  0  0  0  0  0  0  0  0  0  0
  187.6060  178.1890  142.1390 C   0  0  0  0  0  2  0  0  0  0  0  0
  192.0330  174.9930  143.9930 C   0  0  2  0  0  3  0  0  0  0  0  0
  192.3370  172.4930  142.3690 C   0  0  1  0  0  3  0  0  0  0  0  0
  189.4840  177.5170  143.1350 C   0  0  0  0  0  2  0  0  0  0  0  0
  194.7460  175.3090  144.2420 S   0  0  0  0  0  0  0  0  0  0  0  0
  194.5750  176.0060  142.5760 C   0  0  0  0  0  1  0  0  0  0  0  0
  191.3800  174.8020  145.2830 N   0  0  0  0  0  2  0  0  0  0  0  0
  189.7680  176.1840  146.8570 S   0  0  0  0  0  0  0  0  0  0  0  0
  191.5080  176.9920  148.5240 C   0  0  0  0  0  1  0  0  0  0  0  0
  189.1840  177.5640  146.7400 O   0  0  0  0  0  0  0  0  0  0  0  0
  191.4320  175.8940  147.4840 C   0  0  2  0  0  0  0  0  0  0  0  0
  188.8570  175.0350  146.5250 O   0  0  0  0  0  0  0  0  0  0  0  0
  191.3030  176.0910  145.9580 C   0  0  1  0  0  0  0  0  0  0  0  0
  192.5860  176.3550  146.6420 C   0  0  0  0  0  2  0  0  0  0  0  0
  1 17  1  0  0  0  0
  2  3  1  6  0  0  0
  2  7  1  0  0  0  0
  2  8  1  0  0  0  0
  3 15  1  0  0  0  0
  4 17  1  0  0  0  0
  4 20  1  6  0  0  0
  5 15  1  0  0  0  0
  5 10  2  0  0  0  0
  6 16  1  0  0  0  0
  6 19  1  0  0  0  0
  8 19  1  6  0  0  0
  9 16  1  1  0  0  0
  9  2  1  0  0  0  0
  9  7  1  0  0  0  0
 10 18  1  0  0  0  0
 10  1  1  0  0  0  0
 11  1  1  0  0  0  0
 11  8  1  0  0  0  0
 13 14  1  1  0  0  0
 13  4  1  0  0  0  0
 15 11  2  0  0  0  0
 17 22  1  1  0  0  0
 18 12  1  6  0  0  0
 18 13  1  0  0  0  0
 21 20  1  0  0  0  0
 23 26  1  0  0  0  0
 25 23  2  0  0  0  0
 26 24  1  6  0  0  0
 27 23  2  0  0  0  0
 28 22  1  6  0  0  0
 28 29  1  0  0  0  0
 28 23  1  0  0  0  0
 28 26  1  0  0  0  0
 29 26  1  0  0  0  0
M  END
>  <MODEL>
4

>  <REMARK>
 VINA RESULT:      -6.7      2.980      6.752
  Name = 
  3 active torsions:
  status: ('A' for Active; 'I' for Inactive)
    1  A    between atoms: C_6  and  S_24
    2  A    between atoms: N_13  and  C_22
    3  A    between atoms: N_13  and  C_25
                            x       y       z     vdW  Elec       q    Type
                         _______ _______ _______ _____ _____    ______ ____

>  <TORSDO>
F 3

$$$$
=
 OpenBabel11062422583D

 29 35  0  0  1  0  0  0  0  0999 V2000
  189.1930  176.8780  144.1960 N   0  0  0  0  0  0  0  0  0  0  0  0
  185.9010  177.9590  143.2280 C   0  0  1  0  0  0  0  0  0  0  0  0
  186.8670  178.6620  142.2670 C   0  0  0  0  0  2  0  0  0  0  0  0
  191.0070  175.4180  145.0980 C   0  0  2  0  0  3  0  0  0  0  0  0
  189.3910  178.2890  142.4300 N   0  0  0  0  0  0  0  0  0  0  0  0
  185.7060  178.5350  145.9190 O   0  0  0  0  0  0  0  0  0  0  0  0
  184.4650  177.6890  142.8540 C   0  0  0  0  0  2  0  0  0  0  0  0
  186.6350  177.0390  144.2360 C   0  0  1  0  0  3  0  0  0  0  0  0
  184.8070  178.8900  143.7380 C   0  0  1  0  0  3  0  0  0  0  0  0
  190.0160  177.4290  143.2770 C   0  0  0  0  0  0  0  0  0  0  0  0
  188.0210  177.4960  143.9930 C   0  0  0  0  0  0  0  0  0  0  0  0
  192.2200  178.0670  142.7180 O   0  0  0  0  0  1  0  0  0  0  0  0
  191.9200  176.5150  144.5150 C   0  0  1  0  0  3  0  0  0  0  0  0
  193.2790  176.0100  144.3980 N   0  0  0  0  0  1  0  0  0  0  0  0
  188.1450  178.3300  142.9410 C   0  0  0  0  0  0  0  0  0  0  0  0
  184.5020  178.5990  145.2040 C   0  0  0  0  0  2  0  0  0  0  0  0
  189.4930  175.7150  145.0350 C   0  0  2  0  0  3  0  0  0  0  0  0
  191.4350  176.9940  143.1450 C   0  0  1  0  0  3  0  0  0  0  0  0
  186.2020  177.2420  145.6970 C   0  0  0  0  0  2  0  0  0  0  0  0
  191.4710  175.0590  146.8190 S   0  0  0  0  0  0  0  0  0  0  0  0
  190.7770  176.6290  147.4070 C   0  0  0  0  0  1  0  0  0  0  0  0
  188.8170  174.5370  144.5040 N   0  0  0  0  0  2  0  0  0  0  0  0
  189.9300  172.1880  144.0270 S   0  0  0  0  0  0  0  0  0  0  0  0
  189.4410  172.0640  141.5360 C   0  0  0  0  0  1  0  0  0  0  0  0
  191.3590  171.7750  143.8050 O   0  0  0  0  0  0  0  0  0  0  0  0
  188.9090  172.8650  142.7060 C   0  0  2  0  0  0  0  0  0  0  0  0
  189.3510  171.9100  145.3860 O   0  0  0  0  0  0  0  0  0  0  0  0
  189.7030  173.8880  143.5460 C   0  0  1  0  0  0  0  0  0  0  0  0
  189.2620  174.2240  142.1760 C   0  0  0  0  0  2  0  0  0  0  0  0
  1 17  1  0  0  0  0
  2  3  1  6  0  0  0
  2  9  1  0  0  0  0
  2  8  1  0  0  0  0
  3 15  1  0  0  0  0
  4 20  1  1  0  0  0
  5 15  1  0  0  0  0
  5 10  2  0  0  0  0
  7  2  1  0  0  0  0
  8 19  1  1  0  0  0
  9  7  1  6  0  0  0
  9 16  1  0  0  0  0
 10  1  1  0  0  0  0
 11  1  1  0  0  0  0
 11  8  1  0  0  0  0
 13 14  1  6  0  0  0
 13  4  1  0  0  0  0
 15 11  2  0  0  0  0
 16  6  1  0  0  0  0
 17 22  1  6  0  0  0
 17  4  1  0  0  0  0
 18 12  1  1  0  0  0
 18 10  1  0  0  0  0
 18 13  1  0  0  0  0
 19  6  1  0  0  0  0
 20 21  1  0  0  0  0
 23 27  2  0  0  0  0
 25 23  2  0  0  0  0
 26 24  1  6  0  0  0
 26 28  1  0  0  0  0
 26 23  1  0  0  0  0
 28 23  1  0  0  0  0
 28 22  1  1  0  0  0
 29 26  1  0  0  0  0
 29 28  1  0  0  0  0
M  END
>  <MODEL>
5

>  <REMARK>
 VINA RESULT:      -6.6      2.094      5.481
  Name = 
  3 active torsions:
  status: ('A' for Active; 'I' for Inactive)
    1  A    between atoms: C_6  and  S_24
    2  A    between atoms: N_13  and  C_22
    3  A    between atoms: N_13  and  C_25
                            x       y       z     vdW  Elec       q    Type
                         _______ _______ _______ _____ _____    ______ ____

>  <TORSDO>
F 3

$$$$
=
 OpenBabel11062422583D

 29 35  0  0  1  0  0  0  0  0999 V2000
  188.9110  175.5970  143.2790 N   0  0  0  0  0  0  0  0  0  0  0  0
  190.4330  173.1870  141.0850 C   0  0  1  0  0  0  0  0  0  0  0  0
  189.2690  173.7900  140.2920 C   0  0  0  0  0  2  0  0  0  0  0  0
  188.6880  177.3080  145.0840 C   0  0  2  0  0  3  0  0  0  0  0  0
  187.7790  175.6010  141.3110 N   0  0  0  0  0  0  0  0  0  0  0  0
  190.1240  171.5480  143.2830 O   0  0  0  0  0  0  0  0  0  0  0  0
  191.6310  172.5780  140.3990 C   0  0  0  0  0  2  0  0  0  0  0  0
  190.5720  173.8090  142.4980 C   0  0  1  0  0  3  0  0  0  0  0  0
  190.5200  171.6720  140.9330 C   0  0  1  0  0  3  0  0  0  0  0  0
  187.9530  176.1840  142.5270 C   0  0  0  0  0  0  0  0  0  0  0  0
  189.2840  174.5330  142.5550 C   0  0  0  0  0  0  0  0  0  0  0  0
  185.9690  177.4640  142.4880 O   0  0  0  0  0  1  0  0  0  0  0  0
  187.2720  177.4680  144.4970 C   0  0  1  0  0  3  0  0  0  0  0  0
  186.6910  178.7220  144.9530 N   0  0  0  0  0  1  0  0  0  0  0  0
  188.6110  174.5440  141.3860 C   0  0  0  0  0  0  0  0  0  0  0  0
  190.9230  171.0280  142.2550 C   0  0  0  0  0  2  0  0  0  0  0  0
  189.5270  176.1610  144.4820 C   0  0  2  0  0  3  0  0  0  0  0  0
  187.2800  177.4390  142.9670 C   0  0  1  0  0  3  0  0  0  0  0  0
  190.7110  172.7750  143.6250 C   0  0  0  0  0  2  0  0  0  0  0  0
  188.6030  177.0990  146.8880 S   0  0  0  0  0  0  0  0  0  0  0  0
  188.5660  175.2910  146.7470 C   0  0  0  0  0  1  0  0  0  0  0  0
  190.8510  176.6830  144.1590 N   0  0  0  0  0  2  0  0  0  0  0  0
  193.3010  175.7360  143.8700 S   0  0  0  0  0  0  0  0  0  0  0  0
  194.2080  176.4000  146.1490 C   0  0  0  0  0  1  0  0  0  0  0  0
  193.8690  174.3510  144.0050 O   0  0  0  0  0  0  0  0  0  0  0  0
  193.0270  176.8060  145.2930 C   0  0  2  0  0  0  0  0  0  0  0  0
  193.0680  176.2360  142.4710 O   0  0  0  0  0  0  0  0  0  0  0  0
  191.8450  175.9010  144.8830 C   0  0  1  0  0  0  0  0  0  0  0  0
  191.9510  176.4160  146.2640 C   0  0  0  0  0  2  0  0  0  0  0  0
  1 17  1  0  0  0  0
  2  3  1  6  0  0  0
  2  8  1  0  0  0  0
  3 15  1  0  0  0  0
  4 20  1  1  0  0  0
  5 15  1  0  0  0  0
  5 10  2  0  0  0  0
  6 19  1  0  0  0  0
  7  2  1  0  0  0  0
  8 11  1  0  0  0  0
  8 19  1  1  0  0  0
  9  7  1  6  0  0  0
  9  2  1  0  0  0  0
  9 16  1  0  0  0  0
 10 18  1  0  0  0  0
 10  1  1  0  0  0  0
 11  1  1  0  0  0  0
 13 14  1  6  0  0  0
 13  4  1  0  0  0  0
 15 11  2  0  0  0  0
 16  6  1  0  0  0  0
 17 22  1  6  0  0  0
 17  4  1  0  0  0  0
 18 12  1  1  0  0  0
 18 13  1  0  0  0  0
 21 20  1  0  0  0  0
 23 25  2  0  0  0  0
 23 28  1  0  0  0  0
 23 26  1  0  0  0  0
 26 24  1  1  0  0  0
 26 29  1  0  0  0  0
 27 23  2  0  0  0  0
 28 22  1  6  0  0  0
 28 26  1  0  0  0  0
 28 29  1  0  0  0  0
M  END
>  <MODEL>
6

>  <REMARK>
 VINA RESULT:      -6.4      2.250      5.168
  Name = 
  3 active torsions:
  status: ('A' for Active; 'I' for Inactive)
    1  A    between atoms: C_6  and  S_24
    2  A    between atoms: N_13  and  C_22
    3  A    between atoms: N_13  and  C_25
                            x       y       z     vdW  Elec       q    Type
                         _______ _______ _______ _____ _____    ______ ____

>  <TORSDO>
F 3

$$$$
=
 OpenBabel11062422583D

 29 35  0  0  1  0  0  0  0  0999 V2000
  188.8470  176.0000  144.8760 N   0  0  0  0  0  0  0  0  0  0  0  0
  186.7240  178.3020  146.6470 C   0  0  1  0  0  0  0  0  0  0  0  0
  188.0310  178.2480  147.4450 C   0  0  0  0  0  2  0  0  0  0  0  0
  189.8450  174.7230  142.9780 C   0  0  2  0  0  3  0  0  0  0  0  0
  189.9800  176.7780  146.6830 N   0  0  0  0  0  0  0  0  0  0  0  0
  184.9360  176.2080  146.4670 O   0  0  0  0  0  0  0  0  0  0  0  0
  185.8080  179.4990  146.7020 C   0  0  0  0  0  2  0  0  0  0  0  0
  186.7630  177.4020  145.3860 C   0  0  1  0  0  3  0  0  0  0  0  0
  185.4920  178.2630  147.5450 C   0  0  1  0  0  3  0  0  0  0  0  0
  190.0240  176.0440  145.5390 C   0  0  0  0  0  0  0  0  0  0  0  0
  187.9940  176.6400  145.6880 C   0  0  0  0  0  0  0  0  0  0  0  0
  192.0900  174.9910  145.9850 O   0  0  0  0  0  1  0  0  0  0  0  0
  190.8640  174.2920  144.0500 C   0  0  1  0  0  3  0  0  0  0  0  0
  192.0520  173.7500  143.4090 N   0  0  0  0  0  1  0  0  0  0  0  0
  188.6740  177.1030  146.7570 C   0  0  0  0  0  0  0  0  0  0  0  0
  184.3920  177.4250  146.9010 C   0  0  0  0  0  2  0  0  0  0  0  0
  188.6520  175.5550  143.4950 C   0  0  2  0  0  3  0  0  0  0  0  0
  191.2650  175.4570  144.9600 C   0  0  1  0  0  3  0  0  0  0  0  0
  185.5360  176.4900  145.2310 C   0  0  0  0  0  2  0  0  0  0  0  0
  189.2140  173.2690  142.0880 S   0  0  0  0  0  0  0  0  0  0  0  0
  189.1260  172.2870  143.6100 C   0  0  0  0  0  1  0  0  0  0  0  0
  188.4900  176.7120  142.6220 N   0  0  0  0  0  2  0  0  0  0  0  0
  186.3540  178.0450  141.8200 S   0  0  0  0  0  0  0  0  0  0  0  0
  186.3870  177.3310  139.3800 C   0  0  0  0  0  1  0  0  0  0  0  0
  184.8830  177.7520  141.9250 O   0  0  0  0  0  0  0  0  0  0  0  0
  187.3840  177.3420  140.5200 C   0  0  2  0  0  0  0  0  0  0  0  0
  186.9130  179.0470  142.7910 O   0  0  0  0  0  0  0  0  0  0  0  0
  187.2830  176.5260  141.8270 C   0  0  1  0  0  0  0  0  0  0  0  0
  187.6400  175.8630  140.5550 C   0  0  0  0  0  2  0  0  0  0  0  0
  1 10  1  0  0  0  0
  1 11  1  0  0  0  0
  2  7  1  6  0  0  0
  2  3  1  0  0  0  0
  2  9  1  0  0  0  0
  4 20  1  1  0  0  0
  4 17  1  0  0  0  0
  4 13  1  0  0  0  0
  5 15  1  0  0  0  0
  6 16  1  0  0  0  0
  8 19  1  1  0  0  0
  8 11  1  0  0  0  0
  8  2  1  0  0  0  0
  9  7  1  6  0  0  0
 10  5  2  0  0  0  0
 11 15  2  0  0  0  0
 13 14  1  6  0  0  0
 13 18  1  0  0  0  0
 15  3  1  0  0  0  0
 16  9  1  0  0  0  0
 17 22  1  6  0  0  0
 17  1  1  0  0  0  0
 18 10  1  0  0  0  0
 18 12  1  1  0  0  0
 19  6  1  0  0  0  0
 20 21  1  0  0  0  0
 23 28  1  0  0  0  0
 23 25  2  0  0  0  0
 23 27  2  0  0  0  0
 26 24  1  1  0  0  0
 26 29  1  0  0  0  0
 26 23  1  0  0  0  0
 26 28  1  0  0  0  0
 28 22  1  1  0  0  0
 29 28  1  0  0  0  0
M  END
>  <MODEL>
7

>  <REMARK>
 VINA RESULT:      -6.3      2.134      5.540
  Name = 
  3 active torsions:
  status: ('A' for Active; 'I' for Inactive)
    1  A    between atoms: C_6  and  S_24
    2  A    between atoms: N_13  and  C_22
    3  A    between atoms: N_13  and  C_25
                            x       y       z     vdW  Elec       q    Type
                         _______ _______ _______ _____ _____    ______ ____

>  <TORSDO>
F 3

$$$$
=
 OpenBabel11062422583D

 29 35  0  0  1  0  0  0  0  0999 V2000
  192.7990  175.9530  144.8340 N   0  0  0  0  0  0  0  0  0  0  0  0
  196.0530  174.4870  144.3850 C   0  0  1  0  0  0  0  0  0  0  0  0
  195.8260  174.5330  145.9000 C   0  0  0  0  0  2  0  0  0  0  0  0
  190.4270  176.5750  144.3660 C   0  0  2  0  0  3  0  0  0  0  0  0
  193.6570  175.4690  146.8780 N   0  0  0  0  0  0  0  0  0  0  0  0
  196.4300  176.7200  142.8080 O   0  0  0  0  0  0  0  0  0  0  0  0
  196.9900  173.4880  143.7520 C   0  0  0  0  0  2  0  0  0  0  0  0
  194.8450  175.0430  143.5880 C   0  0  1  0  0  3  0  0  0  0  0  0
  197.4600  174.9230  143.9930 C   0  0  1  0  0  3  0  0  0  0  0  0
  192.5790  175.8930  146.1660 C   0  0  0  0  0  0  0  0  0  0  0  0
  194.1000  175.6610  144.7060 C   0  0  0  0  0  0  0  0  0  0  0  0
  191.3480  176.7010  148.0120 O   0  0  0  0  0  1  0  0  0  0  0  0
  190.4740  177.0920  145.8170 C   0  0  1  0  0  3  0  0  0  0  0  0
  189.1200  177.2810  146.3150 N   0  0  0  0  0  1  0  0  0  0  0  0
  194.6030  175.3710  145.9240 C   0  0  0  0  0  0  0  0  0  0  0  0
  197.4240  175.7380  142.7040 C   0  0  0  0  0  2  0  0  0  0  0  0
  191.7730  176.0800  143.7960 C   0  0  2  0  0  3  0  0  0  0  0  0
  191.2270  176.1330  146.7420 C   0  0  1  0  0  3  0  0  0  0  0  0
  195.2270  176.0640  142.5060 C   0  0  0  0  0  2  0  0  0  0  0  0
  189.7490  177.8520  143.2640 S   0  0  0  0  0  0  0  0  0  0  0  0
  191.1880  178.9280  143.5090 C   0  0  0  0  0  1  0  0  0  0  0  0
  191.5520  174.7850  143.1620 N   0  0  0  0  0  2  0  0  0  0  0  0
  189.2490  174.0030  142.1290 S   0  0  0  0  0  0  0  0  0  0  0  0
  188.9390  171.8920  143.5100 C   0  0  0  0  0  1  0  0  0  0  0  0
  187.8300  174.4270  142.3900 O   0  0  0  0  0  0  0  0  0  0  0  0
  190.1000  172.8020  143.1680 C   0  0  2  0  0  0  0  0  0  0  0  0
  189.8980  174.5490  140.8880 O   0  0  0  0  0  0  0  0  0  0  0  0
  190.2480  174.2840  143.5770 C   0  0  1  0  0  0  0  0  0  0  0  0
  190.4380  173.2080  144.5720 C   0  0  0  0  0  2  0  0  0  0  0  0
  1 10  1  0  0  0  0
  2  7  1  6  0  0  0
  2  3  1  0  0  0  0
  3 15  1  0  0  0  0
  4 20  1  6  0  0  0
  4 13  1  0  0  0  0
  7  9  1  0  0  0  0
  8 19  1  6  0  0  0
  8  2  1  0  0  0  0
  8 11  1  0  0  0  0
  9 16  1  6  0  0  0
  9  2  1  0  0  0  0
 10 18  1  0  0  0  0
 10  5  2  0  0  0  0
 11  1  1  0  0  0  0
 11 15  2  0  0  0  0
 13 14  1  1  0  0  0
 13 18  1  0  0  0  0
 15  5  1  0  0  0  0
 16  6  1  0  0  0  0
 17 22  1  1  0  0  0
 17  4  1  0  0  0  0
 17  1  1  0  0  0  0
 18 12  1  1  0  0  0
 19  6  1  0  0  0  0
 20 21  1  0  0  0  0
 23 25  2  0  0  0  0
 23 26  1  0  0  0  0
 23 28  1  0  0  0  0
 26 24  1  1  0  0  0
 26 28  1  0  0  0  0
 26 29  1  0  0  0  0
 27 23  2  0  0  0  0
 28 22  1  6  0  0  0
 28 29  1  0  0  0  0
M  END
>  <MODEL>
8

>  <REMARK>
 VINA RESULT:      -6.2      2.987      4.367
  Name = 
  3 active torsions:
  status: ('A' for Active; 'I' for Inactive)
    1  A    between atoms: C_6  and  S_24
    2  A    between atoms: N_13  and  C_22
    3  A    between atoms: N_13  and  C_25
                            x       y       z     vdW  Elec       q    Type
                         _______ _______ _______ _____ _____    ______ ____

>  <TORSDO>
F 3

$$$$
=
 OpenBabel11062422583D

 29 35  0  0  1  0  0  0  0  0999 V2000
  190.6600  176.2520  144.7620 N   0  0  0  0  0  0  0  0  0  0  0  0
  193.9320  174.7660  144.5980 C   0  0  1  0  0  0  0  0  0  0  0  0
  193.7780  175.2700  146.0360 C   0  0  0  0  0  2  0  0  0  0  0  0
  188.2490  176.6670  144.2630 C   0  0  2  0  0  3  0  0  0  0  0  0
  191.6330  176.4300  146.8050 N   0  0  0  0  0  0  0  0  0  0  0  0
  194.1600  176.4150  142.3970 O   0  0  0  0  0  0  0  0  0  0  0  0
  194.8660  173.6350  144.2470 C   0  0  0  0  0  2  0  0  0  0  0  0
  192.6690  175.0340  143.7390 C   0  0  1  0  0  3  0  0  0  0  0  0
  195.3040  175.0820  144.0120 C   0  0  1  0  0  3  0  0  0  0  0  0
  190.5080  176.5990  146.0590 C   0  0  0  0  0  0  0  0  0  0  0  0
  191.9620  175.9540  144.6560 C   0  0  0  0  0  0  0  0  0  0  0  0
  189.3450  177.9150  147.6380 O   0  0  0  0  0  1  0  0  0  0  0  0
  188.3520  177.6040  145.4820 C   0  0  1  0  0  3  0  0  0  0  0  0
  187.0190  177.9160  145.9740 N   0  0  0  0  0  1  0  0  0  0  0  0
  192.5330  176.0580  145.8740 C   0  0  0  0  0  0  0  0  0  0  0  0
  195.1780  175.4630  142.5410 C   0  0  0  0  0  2  0  0  0  0  0  0
  189.5800  176.0400  143.7950 C   0  0  2  0  0  3  0  0  0  0  0  0
  189.1790  176.9840  146.6110 C   0  0  1  0  0  3  0  0  0  0  0  0
  192.9650  175.6810  142.3770 C   0  0  0  0  0  2  0  0  0  0  0  0
  187.4780  177.5350  142.8630 S   0  0  0  0  0  0  0  0  0  0  0  0
  185.9490  176.5720  143.0180 C   0  0  0  0  0  1  0  0  0  0  0  0
  189.3680  174.6100  143.5990 N   0  0  0  0  0  2  0  0  0  0  0  0
  190.3720  172.6300  142.1660 S   0  0  0  0  0  0  0  0  0  0  0  0
  188.6730  172.6650  140.2750 C   0  0  0  0  0  1  0  0  0  0  0  0
  191.5130  172.5700  141.1890 O   0  0  0  0  0  0  0  0  0  0  0  0
  188.7300  173.2000  141.6910 C   0  0  2  0  0  0  0  0  0  0  0  0
  190.6330  172.0880  143.5430 O   0  0  0  0  0  0  0  0  0  0  0  0
  189.7000  174.2790  142.2200 C   0  0  1  0  0  0  0  0  0  0  0  0
  188.5660  174.6520  141.3480 C   0  0  0  0  0  2  0  0  0  0  0  0
  1 10  1  0  0  0  0
  2  7  1  1  0  0  0
  2  3  1  0  0  0  0
  4 20  1  6  0  0  0
  4 13  1  0  0  0  0
  6 16  1  0  0  0  0
  8 19  1  6  0  0  0
  8  2  1  0  0  0  0
  8 11  1  0  0  0  0
  9 16  1  6  0  0  0
  9  7  1  0  0  0  0
  9  2  1  0  0  0  0
 10 18  1  0  0  0  0
 10  5  2  0  0  0  0
 11  1  1  0  0  0  0
 11 15  2  0  0  0  0
 13 14  1  1  0  0  0
 13 18  1  0  0  0  0
 15  3  1  0  0  0  0
 15  5  1  0  0  0  0
 17 22  1  1  0  0  0
 17  4  1  0  0  0  0
 17  1  1  0  0  0  0
 18 12  1  1  0  0  0
 19  6  1  0  0  0  0
 20 21  1  0  0  0  0
 23 28  1  0  0  0  0
 23 27  2  0  0  0  0
 25 23  2  0  0  0  0
 26 24  1  6  0  0  0
 26 23  1  0  0  0  0
 26 28  1  0  0  0  0
 28 22  1  1  0  0  0
 29 26  1  0  0  0  0
 29 28  1  0  0  0  0
M  END
>  <MODEL>
9

>  <REMARK>
 VINA RESULT:      -6.2      1.852      2.527
  Name = 
  3 active torsions:
  status: ('A' for Active; 'I' for Inactive)
    1  A    between atoms: C_6  and  S_24
    2  A    between atoms: N_13  and  C_22
    3  A    between atoms: N_13  and  C_25
                            x       y       z     vdW  Elec       q    Type
                         _______ _______ _______ _____ _____    ______ ____

>  <TORSDO>
F 3

$$$$
