=
 OpenBabel11072408403D

 69 71  0  0  1  0  0  0  0  0999 V2000
  193.3630  175.7740  145.8940 C   0  0  0  0  0  2  0  0  0  0  0  0
  192.2950  174.7580  145.4750 C   0  0  2  0  0  3  0  0  0  0  0  0
  191.9080  173.8250  143.2660 O   0  0  0  0  0  0  0  0  0  0  0  0
  193.6330  175.3700  143.5460 N   0  0  0  0  0  2  0  0  0  0  0  0
  194.1890  176.1250  144.6520 C   0  0  2  0  0  3  0  0  0  0  0  0
  192.5420  174.6100  144.0200 C   0  0  0  0  0  0  0  0  0  0  0  0
  195.6830  175.8360  144.8340 C   0  0  0  0  0  2  0  0  0  0  0  0
  197.2040  174.0790  143.6870 C   0  0  0  0  0  2  0  0  0  0  0  0
  197.9150  175.4190  143.5760 C   0  0  0  0  0  2  0  0  0  0  0  0
  196.4040  175.3610  143.5600 C   0  0  0  0  0  0  0  0  0  0  0  0
  195.8490  175.6220  142.2900 O   0  0  0  0  0  0  0  0  0  0  0  0
  195.5910  174.4980  138.6660 C   0  0  0  0  0  2  0  0  0  0  0  0
  194.9410  173.6180  139.7480 C   0  0  2  0  0  3  0  0  0  0  0  0
  196.5470  174.8310  141.3650 C   0  0  1  0  0  3  0  0  0  0  0  0
  196.9230  174.8090  138.9870 O   0  0  0  0  0  0  0  0  0  0  0  0
  195.7580  173.5530  141.0540 C   0  0  0  0  0  2  0  0  0  0  0  0
  196.8470  175.6520  140.1030 C   0  0  0  0  0  2  0  0  0  0  0  0
  194.6860  172.2420  139.2170 C   0  0  0  0  0  0  0  0  0  0  0  0
  193.4640  171.5590  139.5390 N   0  0  0  0  0  0  0  0  0  0  0  0
  195.5340  171.6940  138.4610 O   0  0  0  0  0  0  0  0  0  0  0  0
  191.4690  172.5600  140.2610 O   0  0  0  0  0  0  0  0  0  0  0  0
  192.2310  172.2650  139.2990 C   0  0  0  0  0  0  0  0  0  0  0  0
  193.4500  170.2740  140.2860 C   0  0  2  0  0  0  0  0  0  0  0  0
  192.4830  169.3100  139.5990 C   0  0  0  0  0  1  0  0  0  0  0  0
  193.6510  171.3250  142.4220 O   0  0  0  0  0  0  0  0  0  0  0  0
  191.9260  169.7490  142.3490 C   0  0  0  0  0  1  0  0  0  0  0  0
  193.0330  170.5370  141.7240 C   0  0  0  0  0  0  0  0  0  0  0  0
  194.8330  169.5950  140.2600 C   0  0  0  0  0  2  0  0  0  0  0  0
  195.1870  169.0840  141.5130 O   0  0  0  0  0  1  0  0  0  0  0  0
  191.8820  172.6790  137.9010 C   0  0  0  0  0  2  0  0  0  0  0  0
  191.7170  174.1920  137.8060 C   0  0  0  0  0  2  0  0  0  0  0  0
  189.2190  174.5740  136.5250 O   0  0  0  0  0  0  0  0  0  0  0  0
  193.3680  174.5660  136.1500 O   0  0  0  0  0  0  0  0  0  0  0  0
  191.2340  175.2430  135.5200 N   0  0  0  0  0  2  0  0  0  0  0  0
  192.1500  174.6640  136.4590 C   0  0  0  0  0  0  0  0  0  0  0  0
  189.8010  175.2050  135.6030 C   0  0  0  0  0  0  0  0  0  0  0  0
  189.0350  175.8630  134.5900 N   0  0  0  0  0  2  0  0  0  0  0  0
  186.9360  176.6240  135.5830 C   0  0  0  0  0  1  0  0  0  0  0  0
  187.5810  175.7650  134.5140 C   0  0  0  0  0  2  0  0  0  0  0  0
  190.8690  175.2580  145.8040 C   0  0  1  0  0  3  0  0  0  0  0  0
  190.4900  175.0900  147.2840 C   0  0  1  0  0  3  0  0  0  0  0  0
  190.6850  176.2730  147.9940 O   0  0  0  0  0  1  0  0  0  0  0  0
  189.0860  174.5550  147.5060 C   0  0  0  0  0  1  0  0  0  0  0  0
  190.7210  176.7280  145.4080 C   0  0  0  0  0  2  0  0  0  0  0  0
  189.3420  177.0710  144.8730 C   0  0  2  0  0  3  0  0  0  0  0  0
  189.5180  177.7530  143.5560 C   0  0  0  0  0  3  0  0  0  0  0  0
  190.5570  178.3350  143.2830 O   0  0  0  0  0  0  0  0  0  0  0  0
  188.7320  177.9540  145.7850 O   0  0  0  0  0  0  0  0  0  0  0  0
  187.3250  177.7530  145.9120 C   0  0  1  0  0  0  0  0  0  0  0  0
  187.0810  176.3960  145.6610 O   0  0  0  0  0  1  0  0  0  0  0  0
  187.7300  178.7740  148.1310 C   0  0  0  0  0  2  0  0  0  0  0  0
  186.9340  178.0590  147.3440 C   0  0  0  0  0  0  0  0  0  0  0  0
  185.7000  177.6570  147.8420 O   0  0  0  0  0  1  0  0  0  0  0  0
  186.4500  178.5670  144.9200 C   0  0  0  0  0  2  0  0  0  0  0  0
  185.0870  178.0530  144.8810 N   0  0  0  0  0  2  0  0  0  0  0  0
  184.9900  177.2120  143.6960 C   0  0  0  0  0  2  0  0  0  0  0  0
  184.4190  178.0110  142.5710 C   0  0  0  0  0  0  0  0  0  0  0  0
  185.0920  178.2650  141.4430 C   0  0  0  0  0  3  0  0  0  0  0  0
  186.5160  177.9400  141.1840 C   0  0  0  0  0  0  0  0  0  0  0  0
  187.4060  178.8230  141.3170 O   0  0  0  0  0  0  0  0  0  0  0  0
  186.8850  176.6080  140.6700 C   0  0  0  0  0  0  0  0  0  0  0  0
  187.2490  175.6380  141.5050 C   0  0  0  0  0  2  0  0  0  0  0  0
  187.1270  176.4180  139.2140 C   0  0  0  0  0  1  0  0  0  0  0  0
  183.0310  178.5330  142.7210 C   0  0  0  0  0  2  0  0  0  0  0  0
  182.1170  177.8320  141.8210 N   0  0  0  0  0  2  0  0  0  0  0  0
  181.8910  178.7190  140.6970 C   0  0  0  0  0  2  0  0  0  0  0  0
  180.4270  178.9270  140.5020 C   0  0  0  0  0  0  0  0  0  0  0  0
  179.9070  180.2150  140.4270 O   0  0  0  0  0  1  0  0  0  0  0  0
  179.6580  177.9340  140.4210 O   0  0  0  0  0  0  0  0  0  0  0  0
  2 40  1  6  0  0  0
  2  1  1  0  0  0  0
  3  6  2  0  0  0  0
  4  6  1  0  0  0  0
  4  5  1  0  0  0  0
  5  7  1  1  0  0  0
  5  1  1  0  0  0  0
  6  2  1  0  0  0  0
  9  8  1  0  0  0  0
 10  9  1  0  0  0  0
 10  8  1  0  0  0  0
 10  7  1  0  0  0  0
 11 10  1  0  0  0  0
 12 15  1  0  0  0  0
 12 13  1  0  0  0  0
 13 18  1  6  0  0  0
 13 16  1  0  0  0  0
 14 11  1  1  0  0  0
 15 17  1  0  0  0  0
 16 14  1  0  0  0  0
 17 14  1  0  0  0  0
 18 19  1  0  0  0  0
 19 23  1  0  0  0  0
 20 18  2  0  0  0  0
 22 19  1  0  0  0  0
 22 21  2  0  0  0  0
 23 24  1  6  0  0  0
 23 27  1  0  0  0  0
 27 26  1  0  0  0  0
 27 25  2  0  0  0  0
 28 23  1  0  0  0  0
 28 29  1  0  0  0  0
 30 22  1  0  0  0  0
 31 30  1  0  0  0  0
 33 35  2  0  0  0  0
 34 36  1  0  0  0  0
 34 35  1  0  0  0  0
 35 31  1  0  0  0  0
 36 32  2  0  0  0  0
 37 36  1  0  0  0  0
 39 37  1  0  0  0  0
 39 38  1  0  0  0  0
 40 44  1  1  0  0  0
 40 41  1  0  0  0  0
 41 43  1  6  0  0  0
 41 42  1  0  0  0  0
 45 46  1  6  0  0  0
 45 44  1  0  0  0  0
 45 48  1  0  0  0  0
 47 46  2  0  0  0  0
 48 49  1  0  0  0  0
 49 50  1  6  0  0  0
 49 52  1  0  0  0  0
 52 53  1  0  0  0  0
 52 51  2  0  0  0  0
 54 49  1  0  0  0  0
 55 54  1  0  0  0  0
 56 55  1  0  0  0  0
 57 64  1  0  0  0  0
 57 56  1  0  0  0  0
 58 57  2  0  0  0  0
 59 60  2  0  0  0  0
 59 58  1  0  0  0  0
 61 59  1  0  0  0  0
 61 62  2  0  0  0  0
 63 61  1  0  0  0  0
 65 64  1  0  0  0  0
 66 65  1  0  0  0  0
 67 66  1  0  0  0  0
 68 67  1  0  0  0  0
 69 67  2  0  0  0  0
M  END
>  <MODEL>
1

>  <REMARK>
 VINA RESULT:      -5.0      0.000      0.000
  Name = 
  30 active torsions:
  status: ('A' for Active; 'I' for Inactive)
    1  A    between atoms: C_1  and  C_16
    2  A    between atoms: C_1  and  C_35
    3  A    between atoms: O_3  and  C_19
    4  A    between atoms: O_3  and  C_48
    5  A    between atoms: N_4  and  C_23
    6  A    between atoms: N_4  and  C_35
    7  A    between atoms: C_5  and  C_34
    8  A    between atoms: C_8  and  C_25
    9  A    between atoms: C_9  and  C_64
   10  A    between atoms: C_9  and  C_69
   11  A    between atoms: C_10  and  C_25
   12  A    between atoms: C_11  and  C_27
   13  A    between atoms: C_13  and  C_34
   14  A    between atoms: C_14  and  C_41
   15  A    between atoms: C_15  and  C_23
   16  A    between atoms: C_16  and  N_26
   17  A    between atoms: C_25  and  C_36
   18  A    between atoms: N_26  and  C_38
   19  A    between atoms: C_27  and  N_43
   20  A    between atoms: C_27  and  C_59
   21  A    between atoms: C_31  and  C_48
   22  A    between atoms: C_31  and  C_53
   23  A    between atoms: C_33  and  N_65
   24  A    between atoms: C_36  and  C_39
   25  A    between atoms: C_38  and  C_46
   26  A    between atoms: C_39  and  C_40
   27  A    between atoms: C_39  and  O_42
   28  A    between atoms: O_42  and  C_46
   29  A    between atoms: C_46  and  C_50
   30  A    between atoms: C_52  and  C_69
                            x       y       z     vdW  Elec       q    Type
                         _______ _______ _______ _____ _____    ______ ____

>  <TORSDO>
F 30

$$$$
=
 OpenBabel11072408403D

 69 71  0  0  1  0  0  0  0  0999 V2000
  187.3640  176.5960  145.2340 C   0  0  0  0  0  2  0  0  0  0  0  0
  187.6020  176.6350  146.7470 C   0  0  2  0  0  3  0  0  0  0  0  0
  187.2280  178.4890  148.2710 O   0  0  0  0  0  0  0  0  0  0  0  0
  186.7620  178.7860  146.0040 N   0  0  0  0  0  2  0  0  0  0  0  0
  186.8260  177.9670  144.8090 C   0  0  2  0  0  3  0  0  0  0  0  0
  187.2250  178.0260  147.0990 C   0  0  0  0  0  0  0  0  0  0  0  0
  185.4620  177.8780  144.1150 C   0  0  0  0  0  2  0  0  0  0  0  0
  185.6970  178.6920  141.6670 C   0  0  0  0  0  2  0  0  0  0  0  0
  184.3590  177.9750  141.7670 C   0  0  0  0  0  2  0  0  0  0  0  0
  185.5250  177.5240  142.6200 C   0  0  0  0  0  0  0  0  0  0  0  0
  186.0800  176.2970  142.2020 O   0  0  0  0  0  0  0  0  0  0  0  0
  188.1930  174.6420  139.5080 C   0  0  0  0  0  2  0  0  0  0  0  0
  188.6690  174.5420  140.9680 C   0  0  2  0  0  3  0  0  0  0  0  0
  187.1550  176.5980  141.3520 C   0  0  1  0  0  3  0  0  0  0  0  0
  187.8990  175.9690  139.1510 O   0  0  0  0  0  0  0  0  0  0  0  0
  188.4080  175.8250  141.7830 C   0  0  0  0  0  2  0  0  0  0  0  0
  186.7630  176.3090  139.8960 C   0  0  0  0  0  2  0  0  0  0  0  0
  190.1170  174.1700  141.0190 C   0  0  0  0  0  0  0  0  0  0  0  0
  190.5420  172.8640  140.5960 N   0  0  0  0  0  0  0  0  0  0  0  0
  190.9690  175.0160  141.4080 O   0  0  0  0  0  0  0  0  0  0  0  0
  189.3550  171.4120  139.1880 O   0  0  0  0  0  0  0  0  0  0  0  0
  190.1090  172.4190  139.2970 C   0  0  0  0  0  0  0  0  0  0  0  0
  191.2140  171.9140  141.5210 C   0  0  2  0  0  0  0  0  0  0  0  0
  192.5630  172.4970  141.9410 C   0  0  0  0  0  1  0  0  0  0  0  0
  190.6330  169.6440  141.0540 O   0  0  0  0  0  0  0  0  0  0  0  0
  192.5560  170.3370  139.9200 C   0  0  0  0  0  1  0  0  0  0  0  0
  191.3880  170.5760  140.8220 C   0  0  0  0  0  0  0  0  0  0  0  0
  190.4010  171.7230  142.8170 C   0  0  0  0  0  2  0  0  0  0  0  0
  189.0290  171.6220  142.5630 O   0  0  0  0  0  1  0  0  0  0  0  0
  190.5300  173.1850  138.0790 C   0  0  0  0  0  2  0  0  0  0  0  0
  191.9120  172.7450  137.6100 C   0  0  0  0  0  2  0  0  0  0  0  0
  194.6410  172.3360  136.9660 O   0  0  0  0  0  0  0  0  0  0  0  0
  190.6760  171.9850  135.7390 O   0  0  0  0  0  0  0  0  0  0  0  0
  192.9180  171.3670  135.6980 N   0  0  0  0  0  2  0  0  0  0  0  0
  191.8000  172.0270  136.3080 C   0  0  0  0  0  0  0  0  0  0  0  0
  194.2960  171.5220  136.0690 C   0  0  0  0  0  0  0  0  0  0  0  0
  195.2870  170.7610  135.3710 N   0  0  0  0  0  2  0  0  0  0  0  0
  197.5120  169.9980  134.7110 C   0  0  0  0  0  1  0  0  0  0  0  0
  196.7180  170.9500  135.5840 C   0  0  0  0  0  2  0  0  0  0  0  0
  189.0670  176.2920  147.1050 C   0  0  1  0  0  3  0  0  0  0  0  0
  189.2980  174.7940  147.3600 C   0  0  1  0  0  3  0  0  0  0  0  0
  188.2590  174.2400  148.1040 O   0  0  0  0  0  1  0  0  0  0  0  0
  189.5490  173.9830  146.1000 C   0  0  0  0  0  1  0  0  0  0  0  0
  190.0070  176.7650  145.9940 C   0  0  0  0  0  2  0  0  0  0  0  0
  191.4650  176.4320  146.2560 C   0  0  2  0  0  3  0  0  0  0  0  0
  191.8710  177.1170  147.5200 C   0  0  0  0  0  3  0  0  0  0  0  0
  192.1660  176.4740  148.5170 O   0  0  0  0  0  0  0  0  0  0  0  0
  192.2230  176.9350  145.1810 O   0  0  0  0  0  0  0  0  0  0  0  0
  193.2970  176.0770  144.7960 C   0  0  1  0  0  0  0  0  0  0  0  0
  193.4270  176.1850  143.4050 O   0  0  0  0  0  1  0  0  0  0  0  0
  194.7490  177.8940  145.6440 C   0  0  0  0  0  2  0  0  0  0  0  0
  194.5660  176.5940  145.4440 C   0  0  0  0  0  0  0  0  0  0  0  0
  195.5350  175.7110  145.9050 O   0  0  0  0  0  1  0  0  0  0  0  0
  193.0890  174.5730  145.1210 C   0  0  0  0  0  2  0  0  0  0  0  0
  194.3300  173.9590  145.5740 N   0  0  0  0  0  2  0  0  0  0  0  0
  194.2340  172.5400  145.2600 C   0  0  0  0  0  2  0  0  0  0  0  0
  195.3350  172.1690  144.3210 C   0  0  0  0  0  0  0  0  0  0  0  0
  195.4950  170.9300  143.8410 C   0  0  0  0  0  3  0  0  0  0  0  0
  194.7320  169.7270  144.2550 C   0  0  0  0  0  0  0  0  0  0  0  0
  194.7870  169.3160  145.4450 O   0  0  0  0  0  0  0  0  0  0  0  0
  193.9870  168.9460  143.2500 C   0  0  0  0  0  0  0  0  0  0  0  0
  192.8070  168.4090  143.5490 C   0  0  0  0  0  2  0  0  0  0  0  0
  194.6650  168.5140  141.9980 C   0  0  0  0  0  1  0  0  0  0  0  0
  196.2830  173.2380  143.8990 C   0  0  0  0  0  2  0  0  0  0  0  0
  196.6380  173.0850  142.4900 N   0  0  0  0  0  2  0  0  0  0  0  0
  195.6780  173.8700  141.7400 C   0  0  0  0  0  2  0  0  0  0  0  0
  196.3930  174.8380  140.8580 C   0  0  0  0  0  0  0  0  0  0  0  0
  197.0590  175.9270  141.4070 O   0  0  0  0  0  1  0  0  0  0  0  0
  196.3780  174.6760  139.6090 O   0  0  0  0  0  0  0  0  0  0  0  0
  1  2  1  0  0  0  0
  2  6  1  0  0  0  0
  2 40  1  6  0  0  0
  4  6  1  0  0  0  0
  5  7  1  1  0  0  0
  5  1  1  0  0  0  0
  5  4  1  0  0  0  0
  6  3  2  0  0  0  0
  8  9  1  0  0  0  0
  8 10  1  0  0  0  0
  9 10  1  0  0  0  0
 10  7  1  0  0  0  0
 11 10  1  0  0  0  0
 12 13  1  0  0  0  0
 13 18  1  6  0  0  0
 13 16  1  0  0  0  0
 14 16  1  0  0  0  0
 14 11  1  1  0  0  0
 15 12  1  0  0  0  0
 15 17  1  0  0  0  0
 17 14  1  0  0  0  0
 18 20  2  0  0  0  0
 19 18  1  0  0  0  0
 19 23  1  0  0  0  0
 21 22  2  0  0  0  0
 22 19  1  0  0  0  0
 23 24  1  1  0  0  0
 23 28  1  0  0  0  0
 26 27  1  0  0  0  0
 27 25  2  0  0  0  0
 27 23  1  0  0  0  0
 29 28  1  0  0  0  0
 30 22  1  0  0  0  0
 31 30  1  0  0  0  0
 33 35  2  0  0  0  0
 34 36  1  0  0  0  0
 34 35  1  0  0  0  0
 35 31  1  0  0  0  0
 36 32  2  0  0  0  0
 37 39  1  0  0  0  0
 37 36  1  0  0  0  0
 38 39  1  0  0  0  0
 40 44  1  6  0  0  0
 40 41  1  0  0  0  0
 41 43  1  6  0  0  0
 41 42  1  0  0  0  0
 45 44  1  6  0  0  0
 45 46  1  0  0  0  0
 46 47  2  0  0  0  0
 48 45  1  0  0  0  0
 49 50  1  6  0  0  0
 49 54  1  0  0  0  0
 49 48  1  0  0  0  0
 49 52  1  0  0  0  0
 52 51  2  0  0  0  0
 52 53  1  0  0  0  0
 54 55  1  0  0  0  0
 56 55  1  0  0  0  0
 57 56  1  0  0  0  0
 58 59  1  0  0  0  0
 58 57  2  0  0  0  0
 59 60  2  0  0  0  0
 61 62  2  0  0  0  0
 61 59  1  0  0  0  0
 63 61  1  0  0  0  0
 64 57  1  0  0  0  0
 65 64  1  0  0  0  0
 66 65  1  0  0  0  0
 67 68  1  0  0  0  0
 67 66  1  0  0  0  0
 69 67  2  0  0  0  0
M  END
>  <MODEL>
2

>  <REMARK>
 VINA RESULT:      -3.9      2.697      8.719
  Name = 
  30 active torsions:
  status: ('A' for Active; 'I' for Inactive)
    1  A    between atoms: C_1  and  C_16
    2  A    between atoms: C_1  and  C_35
    3  A    between atoms: O_3  and  C_19
    4  A    between atoms: O_3  and  C_48
    5  A    between atoms: N_4  and  C_23
    6  A    between atoms: N_4  and  C_35
    7  A    between atoms: C_5  and  C_34
    8  A    between atoms: C_8  and  C_25
    9  A    between atoms: C_9  and  C_64
   10  A    between atoms: C_9  and  C_69
   11  A    between atoms: C_10  and  C_25
   12  A    between atoms: C_11  and  C_27
   13  A    between atoms: C_13  and  C_34
   14  A    between atoms: C_14  and  C_41
   15  A    between atoms: C_15  and  C_23
   16  A    between atoms: C_16  and  N_26
   17  A    between atoms: C_25  and  C_36
   18  A    between atoms: N_26  and  C_38
   19  A    between atoms: C_27  and  N_43
   20  A    between atoms: C_27  and  C_59
   21  A    between atoms: C_31  and  C_48
   22  A    between atoms: C_31  and  C_53
   23  A    between atoms: C_33  and  N_65
   24  A    between atoms: C_36  and  C_39
   25  A    between atoms: C_38  and  C_46
   26  A    between atoms: C_39  and  C_40
   27  A    between atoms: C_39  and  O_42
   28  A    between atoms: O_42  and  C_46
   29  A    between atoms: C_46  and  C_50
   30  A    between atoms: C_52  and  C_69
                            x       y       z     vdW  Elec       q    Type
                         _______ _______ _______ _____ _____    ______ ____

>  <TORSDO>
F 30

$$$$
=
 OpenBabel11072408403D

 69 71  0  0  1  0  0  0  0  0999 V2000
  193.7260  176.2380  145.9450 C   0  0  0  0  0  2  0  0  0  0  0  0
  192.6130  175.2610  145.5490 C   0  0  2  0  0  3  0  0  0  0  0  0
  191.8640  174.6760  143.3150 O   0  0  0  0  0  0  0  0  0  0  0  0
  193.5950  176.2220  143.5510 N   0  0  0  0  0  2  0  0  0  0  0  0
  194.3240  176.8130  144.6560 C   0  0  2  0  0  3  0  0  0  0  0  0
  192.6090  175.3560  144.0690 C   0  0  0  0  0  0  0  0  0  0  0  0
  195.8300  176.5550  144.5370 C   0  0  0  0  0  2  0  0  0  0  0  0
  196.0960  174.0440  143.9550 C   0  0  0  0  0  2  0  0  0  0  0  0
  197.4670  174.6830  143.7890 C   0  0  0  0  0  2  0  0  0  0  0  0
  196.2170  175.4860  143.5000 C   0  0  0  0  0  0  0  0  0  0  0  0
  196.0110  175.7210  142.1250 O   0  0  0  0  0  0  0  0  0  0  0  0
  196.6330  174.5600  138.5580 C   0  0  0  0  0  2  0  0  0  0  0  0
  195.2690  174.2440  139.1970 C   0  0  2  0  0  3  0  0  0  0  0  0
  196.5040  174.6030  141.4360 C   0  0  1  0  0  3  0  0  0  0  0  0
  197.6960  174.1700  139.3900 O   0  0  0  0  0  0  0  0  0  0  0  0
  195.3660  173.8890  140.6950 C   0  0  0  0  0  2  0  0  0  0  0  0
  197.6360  175.0310  140.4920 C   0  0  0  0  0  2  0  0  0  0  0  0
  194.5790  173.1530  138.4410 C   0  0  0  0  0  0  0  0  0  0  0  0
  193.4120  173.4460  137.6550 N   0  0  0  0  0  0  0  0  0  0  0  0
  195.0400  171.9790  138.4700 O   0  0  0  0  0  0  0  0  0  0  0  0
  192.7890  175.5550  136.8380 O   0  0  0  0  0  0  0  0  0  0  0  0
  193.5100  174.5270  136.7080 C   0  0  0  0  0  0  0  0  0  0  0  0
  192.0920  172.8260  137.9390 C   0  0  2  0  0  0  0  0  0  0  0  0
  191.4340  173.5670  139.1040 C   0  0  0  0  0  1  0  0  0  0  0  0
  192.2950  170.9660  139.4230 O   0  0  0  0  0  0  0  0  0  0  0  0
  192.5970  170.3720  137.1820 C   0  0  0  0  0  1  0  0  0  0  0  0
  192.2900  171.3550  138.2660 C   0  0  0  0  0  0  0  0  0  0  0  0
  191.1350  172.9690  136.7380 C   0  0  0  0  0  2  0  0  0  0  0  0
  189.9370  172.2760  136.9400 O   0  0  0  0  0  1  0  0  0  0  0  0
  194.5030  174.4340  135.5880 C   0  0  0  0  0  2  0  0  0  0  0  0
  195.1110  173.0380  135.5130 C   0  0  0  0  0  2  0  0  0  0  0  0
  195.9600  170.3610  135.8900 O   0  0  0  0  0  0  0  0  0  0  0  0
  197.0600  174.2770  134.9870 O   0  0  0  0  0  0  0  0  0  0  0  0
  197.3620  171.9720  134.9100 N   0  0  0  0  0  2  0  0  0  0  0  0
  196.5510  173.1330  135.1340 C   0  0  0  0  0  0  0  0  0  0  0  0
  197.0240  170.6230  135.2680 C   0  0  0  0  0  0  0  0  0  0  0  0
  197.9410  169.5740  134.9430 N   0  0  0  0  0  2  0  0  0  0  0  0
  197.1380  168.1660  136.7710 C   0  0  0  0  0  1  0  0  0  0  0  0
  197.7500  168.1970  135.3850 C   0  0  0  0  0  2  0  0  0  0  0  0
  191.2590  175.6480  146.1890 C   0  0  1  0  0  3  0  0  0  0  0  0
  191.3080  175.7250  147.7230 C   0  0  1  0  0  3  0  0  0  0  0  0
  191.4730  177.0370  148.1600 O   0  0  0  0  0  1  0  0  0  0  0  0
  190.1210  175.0730  148.4130 C   0  0  0  0  0  1  0  0  0  0  0  0
  190.7760  176.9890  145.6310 C   0  0  0  0  0  2  0  0  0  0  0  0
  189.3100  176.9830  145.2350 C   0  0  2  0  0  3  0  0  0  0  0  0
  189.1850  177.7050  143.9330 C   0  0  0  0  0  3  0  0  0  0  0  0
  190.1770  178.0470  143.3050 O   0  0  0  0  0  0  0  0  0  0  0  0
  188.5900  177.6730  146.2300 O   0  0  0  0  0  0  0  0  0  0  0  0
  187.1790  177.4860  146.1400 C   0  0  1  0  0  0  0  0  0  0  0  0
  186.9630  176.1270  145.8700 O   0  0  0  0  0  1  0  0  0  0  0  0
  185.9910  176.8740  148.2230 C   0  0  0  0  0  2  0  0  0  0  0  0
  186.5730  177.8150  147.4890 C   0  0  0  0  0  0  0  0  0  0  0  0
  186.6760  179.0960  148.0170 O   0  0  0  0  0  1  0  0  0  0  0  0
  186.4770  178.2930  145.0130 C   0  0  0  0  0  2  0  0  0  0  0  0
  185.0380  178.0680  145.0260 N   0  0  0  0  0  2  0  0  0  0  0  0
  184.7220  177.3080  143.8250 C   0  0  0  0  0  2  0  0  0  0  0  0
  184.2880  178.2480  142.7480 C   0  0  0  0  0  0  0  0  0  0  0  0
  185.0040  178.4640  141.6390 C   0  0  0  0  0  3  0  0  0  0  0  0
  186.3650  177.9460  141.3630 C   0  0  0  0  0  0  0  0  0  0  0  0
  187.3410  178.3040  142.0760 O   0  0  0  0  0  0  0  0  0  0  0  0
  186.6020  177.0870  140.1870 C   0  0  0  0  0  0  0  0  0  0  0  0
  187.6050  176.2140  140.1770 C   0  0  0  0  0  2  0  0  0  0  0  0
  185.9070  177.3820  138.9040 C   0  0  0  0  0  1  0  0  0  0  0  0
  182.9920  178.9620  142.9260 C   0  0  0  0  0  2  0  0  0  0  0  0
  182.0480  178.5840  141.8770 N   0  0  0  0  0  2  0  0  0  0  0  0
  180.7420  179.0260  142.3260 C   0  0  0  0  0  2  0  0  0  0  0  0
  179.8370  179.2060  141.1540 C   0  0  0  0  0  0  0  0  0  0  0  0
  180.1320  180.1530  140.1790 O   0  0  0  0  0  0  0  0  0  0  0  0
  178.7920  178.5100  141.0560 O   0  0  0  0  0  1  0  0  0  0  0  0
  2  1  1  0  0  0  0
  2 40  1  1  0  0  0
  3  6  2  0  0  0  0
  4  6  1  0  0  0  0
  4  5  1  0  0  0  0
  5  7  1  6  0  0  0
  5  1  1  0  0  0  0
  6  2  1  0  0  0  0
  9  8  1  0  0  0  0
 10  9  1  0  0  0  0
 10  8  1  0  0  0  0
 10  7  1  0  0  0  0
 11 10  1  0  0  0  0
 12 13  1  0  0  0  0
 12 15  1  0  0  0  0
 13 18  1  6  0  0  0
 13 16  1  0  0  0  0
 14 11  1  6  0  0  0
 15 17  1  0  0  0  0
 16 14  1  0  0  0  0
 17 14  1  0  0  0  0
 18 20  2  0  0  0  0
 19 23  1  0  0  0  0
 19 18  1  0  0  0  0
 22 21  2  0  0  0  0
 22 19  1  0  0  0  0
 23 27  1  0  0  0  0
 23 24  1  1  0  0  0
 26 27  1  0  0  0  0
 27 25  2  0  0  0  0
 28 29  1  0  0  0  0
 28 23  1  0  0  0  0
 30 22  1  0  0  0  0
 31 30  1  0  0  0  0
 33 35  2  0  0  0  0
 34 35  1  0  0  0  0
 34 36  1  0  0  0  0
 35 31  1  0  0  0  0
 36 32  2  0  0  0  0
 37 36  1  0  0  0  0
 37 39  1  0  0  0  0
 39 38  1  0  0  0  0
 40 44  1  6  0  0  0
 40 41  1  0  0  0  0
 41 42  1  0  0  0  0
 41 43  1  1  0  0  0
 45 46  1  6  0  0  0
 45 44  1  0  0  0  0
 45 48  1  0  0  0  0
 47 46  2  0  0  0  0
 49 50  1  6  0  0  0
 49 48  1  0  0  0  0
 49 52  1  0  0  0  0
 52 53  1  0  0  0  0
 52 51  2  0  0  0  0
 54 55  1  0  0  0  0
 54 49  1  0  0  0  0
 56 55  1  0  0  0  0
 57 64  1  0  0  0  0
 57 56  1  0  0  0  0
 58 57  2  0  0  0  0
 59 58  1  0  0  0  0
 59 60  2  0  0  0  0
 61 59  1  0  0  0  0
 62 61  2  0  0  0  0
 63 61  1  0  0  0  0
 65 66  1  0  0  0  0
 65 64  1  0  0  0  0
 67 66  1  0  0  0  0
 68 67  2  0  0  0  0
 69 67  1  0  0  0  0
M  END
>  <MODEL>
3

>  <REMARK>
 VINA RESULT:      -3.7      2.035      3.772
  Name = 
  30 active torsions:
  status: ('A' for Active; 'I' for Inactive)
    1  A    between atoms: C_1  and  C_16
    2  A    between atoms: C_1  and  C_35
    3  A    between atoms: O_3  and  C_19
    4  A    between atoms: O_3  and  C_48
    5  A    between atoms: N_4  and  C_23
    6  A    between atoms: N_4  and  C_35
    7  A    between atoms: C_5  and  C_34
    8  A    between atoms: C_8  and  C_25
    9  A    between atoms: C_9  and  C_64
   10  A    between atoms: C_9  and  C_69
   11  A    between atoms: C_10  and  C_25
   12  A    between atoms: C_11  and  C_27
   13  A    between atoms: C_13  and  C_34
   14  A    between atoms: C_14  and  C_41
   15  A    between atoms: C_15  and  C_23
   16  A    between atoms: C_16  and  N_26
   17  A    between atoms: C_25  and  C_36
   18  A    between atoms: N_26  and  C_38
   19  A    between atoms: C_27  and  N_43
   20  A    between atoms: C_27  and  C_59
   21  A    between atoms: C_31  and  C_48
   22  A    between atoms: C_31  and  C_53
   23  A    between atoms: C_33  and  N_65
   24  A    between atoms: C_36  and  C_39
   25  A    between atoms: C_38  and  C_46
   26  A    between atoms: C_39  and  C_40
   27  A    between atoms: C_39  and  O_42
   28  A    between atoms: O_42  and  C_46
   29  A    between atoms: C_46  and  C_50
   30  A    between atoms: C_52  and  C_69
                            x       y       z     vdW  Elec       q    Type
                         _______ _______ _______ _____ _____    ______ ____

>  <TORSDO>
F 30

$$$$
=
 OpenBabel11072408403D

 69 71  0  0  1  0  0  0  0  0999 V2000
  193.7590  176.2640  145.9990 C   0  0  0  0  0  2  0  0  0  0  0  0
  192.5920  175.3440  145.6240 C   0  0  2  0  0  3  0  0  0  0  0  0
  191.7360  174.8440  143.4080 O   0  0  0  0  0  0  0  0  0  0  0  0
  193.5380  176.3110  143.6110 N   0  0  0  0  0  2  0  0  0  0  0  0
  194.3320  176.8440  144.7010 C   0  0  2  0  0  3  0  0  0  0  0  0
  192.5360  175.4740  144.1480 C   0  0  0  0  0  0  0  0  0  0  0  0
  195.8210  176.5280  144.5180 C   0  0  0  0  0  2  0  0  0  0  0  0
  196.0330  174.0500  143.7910 C   0  0  0  0  0  2  0  0  0  0  0  0
  197.3910  174.6960  143.5590 C   0  0  0  0  0  2  0  0  0  0  0  0
  196.1270  175.5130  143.4020 C   0  0  0  0  0  0  0  0  0  0  0  0
  195.8230  175.8190  142.0600 O   0  0  0  0  0  0  0  0  0  0  0  0
  196.6190  175.2100  138.3910 C   0  0  0  0  0  2  0  0  0  0  0  0
  195.3870  174.5120  138.9930 C   0  0  2  0  0  3  0  0  0  0  0  0
  196.5540  174.9280  141.2590 C   0  0  1  0  0  3  0  0  0  0  0  0
  197.7650  175.0060  139.1800 O   0  0  0  0  0  0  0  0  0  0  0  0
  195.6030  174.0410  140.4460 C   0  0  0  0  0  2  0  0  0  0  0  0
  197.5270  175.7110  140.3660 C   0  0  0  0  0  2  0  0  0  0  0  0
  194.9610  173.3700  138.1260 C   0  0  0  0  0  0  0  0  0  0  0  0
  195.9130  172.3680  137.7320 N   0  0  0  0  0  0  0  0  0  0  0  0
  193.7560  173.2720  137.7630 O   0  0  0  0  0  0  0  0  0  0  0  0
  197.9410  171.8890  138.8090 O   0  0  0  0  0  0  0  0  0  0  0  0
  196.6870  171.7490  138.7780 C   0  0  0  0  0  0  0  0  0  0  0  0
  196.2560  172.1190  136.3080 C   0  0  2  0  0  0  0  0  0  0  0  0
  196.7230  173.4290  135.6730 C   0  0  0  0  0  1  0  0  0  0  0  0
  194.5500  172.1530  134.6360 O   0  0  0  0  0  0  0  0  0  0  0  0
  194.3400  170.3470  136.1060 C   0  0  0  0  0  1  0  0  0  0  0  0
  195.0370  171.5650  135.5900 C   0  0  0  0  0  0  0  0  0  0  0  0
  197.4320  171.1300  136.1780 C   0  0  0  0  0  2  0  0  0  0  0  0
  197.1770  170.1390  135.2250 O   0  0  0  0  0  1  0  0  0  0  0  0
  195.9850  170.9680  139.8480 C   0  0  0  0  0  2  0  0  0  0  0  0
  194.4760  170.9810  139.6310 C   0  0  0  0  0  2  0  0  0  0  0  0
  192.0390  172.4250  139.6580 O   0  0  0  0  0  0  0  0  0  0  0  0
  194.4570  169.6260  141.5740 O   0  0  0  0  0  0  0  0  0  0  0  0
  192.3990  170.5920  141.0810 N   0  0  0  0  0  2  0  0  0  0  0  0
  193.7910  170.3730  140.8080 C   0  0  0  0  0  0  0  0  0  0  0  0
  191.5650  171.5900  140.4730 C   0  0  0  0  0  0  0  0  0  0  0  0
  190.1840  171.6510  140.8420 N   0  0  0  0  0  2  0  0  0  0  0  0
  188.6060  172.3040  139.0950 C   0  0  0  0  0  1  0  0  0  0  0  0
  189.2930  172.7110  140.3830 C   0  0  0  0  0  2  0  0  0  0  0  0
  191.2800  175.7710  146.3240 C   0  0  1  0  0  3  0  0  0  0  0  0
  191.4170  175.9020  147.8490 C   0  0  1  0  0  3  0  0  0  0  0  0
  191.1780  177.2080  148.2690 O   0  0  0  0  0  1  0  0  0  0  0  0
  190.5630  174.9200  148.6330 C   0  0  0  0  0  1  0  0  0  0  0  0
  190.7810  177.0960  145.7460 C   0  0  0  0  0  2  0  0  0  0  0  0
  189.3610  177.0240  145.2120 C   0  0  2  0  0  3  0  0  0  0  0  0
  189.3970  177.3990  143.7670 C   0  0  0  0  0  3  0  0  0  0  0  0
  189.1280  176.5830  142.8980 O   0  0  0  0  0  0  0  0  0  0  0  0
  188.5830  177.9560  145.9250 O   0  0  0  0  0  0  0  0  0  0  0  0
  187.1800  177.8000  145.7160 C   0  0  1  0  0  0  0  0  0  0  0  0
  186.9080  176.4270  145.7870 O   0  0  0  0  0  1  0  0  0  0  0  0
  186.6580  178.1390  148.1110 C   0  0  0  0  0  2  0  0  0  0  0  0
  186.4550  178.4970  146.8490 C   0  0  0  0  0  0  0  0  0  0  0  0
  185.6150  179.5740  146.5940 O   0  0  0  0  0  1  0  0  0  0  0  0
  186.6580  178.3000  144.3410 C   0  0  0  0  0  2  0  0  0  0  0  0
  185.2080  178.1860  144.2600 N   0  0  0  0  0  2  0  0  0  0  0  0
  184.9200  177.2850  143.1530 C   0  0  0  0  0  2  0  0  0  0  0  0
  184.3960  178.0750  141.9980 C   0  0  0  0  0  0  0  0  0  0  0  0
  185.0910  178.2620  140.8700 C   0  0  0  0  0  3  0  0  0  0  0  0
  186.4990  177.8620  140.6340 C   0  0  0  0  0  0  0  0  0  0  0  0
  187.4440  178.5360  141.1250 O   0  0  0  0  0  0  0  0  0  0  0  0
  186.8020  176.7300  139.7390 C   0  0  0  0  0  0  0  0  0  0  0  0
  187.3500  175.6160  140.2170 C   0  0  0  0  0  2  0  0  0  0  0  0
  186.7660  176.9240  138.2630 C   0  0  0  0  0  1  0  0  0  0  0  0
  183.0340  178.6670  142.1190 C   0  0  0  0  0  2  0  0  0  0  0  0
  182.0580  177.8660  141.3830 N   0  0  0  0  0  2  0  0  0  0  0  0
  181.2380  178.8030  140.6410 C   0  0  0  0  0  2  0  0  0  0  0  0
  179.7960  178.5540  140.9300 C   0  0  0  0  0  0  0  0  0  0  0  0
  179.2390  178.9760  142.1320 O   0  0  0  0  0  1  0  0  0  0  0  0
  179.0840  177.9450  140.0890 O   0  0  0  0  0  0  0  0  0  0  0  0
  2  1  1  0  0  0  0
  2 40  1  1  0  0  0
  3  6  2  0  0  0  0
  4  6  1  0  0  0  0
  4  5  1  0  0  0  0
  5  7  1  6  0  0  0
  5  1  1  0  0  0  0
  6  2  1  0  0  0  0
  9  8  1  0  0  0  0
 10  9  1  0  0  0  0
 10  8  1  0  0  0  0
 10  7  1  0  0  0  0
 11 10  1  0  0  0  0
 12 13  1  0  0  0  0
 12 15  1  0  0  0  0
 13 18  1  6  0  0  0
 13 16  1  0  0  0  0
 14 11  1  6  0  0  0
 15 17  1  0  0  0  0
 16 14  1  0  0  0  0
 17 14  1  0  0  0  0
 19 18  1  0  0  0  0
 19 22  1  0  0  0  0
 20 18  2  0  0  0  0
 22 21  2  0  0  0  0
 22 30  1  0  0  0  0
 23 24  1  6  0  0  0
 23 19  1  0  0  0  0
 25 27  2  0  0  0  0
 27 26  1  0  0  0  0
 27 23  1  0  0  0  0
 28 23  1  0  0  0  0
 29 28  1  0  0  0  0
 31 30  1  0  0  0  0
 31 35  1  0  0  0  0
 32 36  2  0  0  0  0
 35 34  1  0  0  0  0
 35 33  2  0  0  0  0
 36 37  1  0  0  0  0
 36 34  1  0  0  0  0
 38 39  1  0  0  0  0
 39 37  1  0  0  0  0
 40 44  1  6  0  0  0
 40 41  1  0  0  0  0
 41 42  1  0  0  0  0
 41 43  1  1  0  0  0
 45 46  1  6  0  0  0
 45 44  1  0  0  0  0
 45 48  1  0  0  0  0
 47 46  2  0  0  0  0
 49 50  1  1  0  0  0
 49 48  1  0  0  0  0
 49 52  1  0  0  0  0
 52 51  2  0  0  0  0
 53 52  1  0  0  0  0
 54 49  1  0  0  0  0
 55 54  1  0  0  0  0
 56 55  1  0  0  0  0
 57 64  1  0  0  0  0
 57 56  1  0  0  0  0
 58 57  2  0  0  0  0
 59 58  1  0  0  0  0
 59 60  2  0  0  0  0
 61 62  2  0  0  0  0
 61 59  1  0  0  0  0
 63 61  1  0  0  0  0
 65 64  1  0  0  0  0
 66 67  1  0  0  0  0
 66 65  1  0  0  0  0
 67 68  1  0  0  0  0
 69 67  2  0  0  0  0
M  END
>  <MODEL>
4

>  <REMARK>
 VINA RESULT:      -3.6      1.983      3.452
  Name = 
  30 active torsions:
  status: ('A' for Active; 'I' for Inactive)
    1  A    between atoms: C_1  and  C_16
    2  A    between atoms: C_1  and  C_35
    3  A    between atoms: O_3  and  C_19
    4  A    between atoms: O_3  and  C_48
    5  A    between atoms: N_4  and  C_23
    6  A    between atoms: N_4  and  C_35
    7  A    between atoms: C_5  and  C_34
    8  A    between atoms: C_8  and  C_25
    9  A    between atoms: C_9  and  C_64
   10  A    between atoms: C_9  and  C_69
   11  A    between atoms: C_10  and  C_25
   12  A    between atoms: C_11  and  C_27
   13  A    between atoms: C_13  and  C_34
   14  A    between atoms: C_14  and  C_41
   15  A    between atoms: C_15  and  C_23
   16  A    between atoms: C_16  and  N_26
   17  A    between atoms: C_25  and  C_36
   18  A    between atoms: N_26  and  C_38
   19  A    between atoms: C_27  and  N_43
   20  A    between atoms: C_27  and  C_59
   21  A    between atoms: C_31  and  C_48
   22  A    between atoms: C_31  and  C_53
   23  A    between atoms: C_33  and  N_65
   24  A    between atoms: C_36  and  C_39
   25  A    between atoms: C_38  and  C_46
   26  A    between atoms: C_39  and  C_40
   27  A    between atoms: C_39  and  O_42
   28  A    between atoms: O_42  and  C_46
   29  A    between atoms: C_46  and  C_50
   30  A    between atoms: C_52  and  C_69
                            x       y       z     vdW  Elec       q    Type
                         _______ _______ _______ _____ _____    ______ ____

>  <TORSDO>
F 30

$$$$
=
 OpenBabel11072408403D

 69 71  0  0  1  0  0  0  0  0999 V2000
  193.5720  175.9620  146.5060 C   0  0  0  0  0  2  0  0  0  0  0  0
  192.3910  175.0650  146.1170 C   0  0  2  0  0  3  0  0  0  0  0  0
  191.7180  174.3640  143.8920 O   0  0  0  0  0  0  0  0  0  0  0  0
  193.5780  175.7530  144.1170 N   0  0  0  0  0  2  0  0  0  0  0  0
  194.2980  176.3640  145.2180 C   0  0  2  0  0  3  0  0  0  0  0  0
  192.4820  175.0320  144.6370 C   0  0  0  0  0  0  0  0  0  0  0  0
  195.7760  175.9550  145.2180 C   0  0  0  0  0  2  0  0  0  0  0  0
  196.9440  173.8760  144.2060 C   0  0  0  0  0  2  0  0  0  0  0  0
  197.7220  175.0940  143.7310 C   0  0  0  0  0  2  0  0  0  0  0  0
  196.2290  175.1910  143.9620 C   0  0  0  0  0  0  0  0  0  0  0  0
  195.4850  175.2800  142.7680 O   0  0  0  0  0  0  0  0  0  0  0  0
  194.6980  173.7860  139.3610 C   0  0  0  0  0  2  0  0  0  0  0  0
  193.9230  173.2600  140.5820 C   0  0  2  0  0  3  0  0  0  0  0  0
  195.8940  174.2180  141.9470 C   0  0  1  0  0  3  0  0  0  0  0  0
  196.0850  173.7790  139.5880 O   0  0  0  0  0  0  0  0  0  0  0  0
  194.7870  173.1600  141.8550 C   0  0  0  0  0  2  0  0  0  0  0  0
  196.3030  174.7550  140.5680 C   0  0  0  0  0  2  0  0  0  0  0  0
  193.2920  171.9400  140.2680 C   0  0  0  0  0  0  0  0  0  0  0  0
  191.9380  171.6730  140.6710 N   0  0  0  0  0  0  0  0  0  0  0  0
  193.9400  171.0700  139.6240 O   0  0  0  0  0  0  0  0  0  0  0  0
  190.3080  173.2780  141.1900 O   0  0  0  0  0  0  0  0  0  0  0  0
  190.9380  172.6410  140.3000 C   0  0  0  0  0  0  0  0  0  0  0  0
  191.5950  170.5740  141.6100 C   0  0  2  0  0  0  0  0  0  0  0  0
  190.1700  170.7840  142.1220 C   0  0  0  0  0  1  0  0  0  0  0  0
  193.6900  170.0410  142.6270 O   0  0  0  0  0  0  0  0  0  0  0  0
  192.2120  171.0960  144.1000 C   0  0  0  0  0  1  0  0  0  0  0  0
  192.5940  170.5640  142.7550 C   0  0  0  0  0  0  0  0  0  0  0  0
  191.6030  169.2050  140.9000 C   0  0  0  0  0  2  0  0  0  0  0  0
  190.7910  168.2730  141.5530 O   0  0  0  0  0  1  0  0  0  0  0  0
  190.6790  172.9100  138.8480 C   0  0  0  0  0  2  0  0  0  0  0  0
  191.5610  172.0340  137.9660 C   0  0  0  0  0  2  0  0  0  0  0  0
  193.9590  170.9420  136.9240 O   0  0  0  0  0  0  0  0  0  0  0  0
  190.6680  173.4060  136.2550 O   0  0  0  0  0  0  0  0  0  0  0  0
  192.3960  172.0220  135.5430 N   0  0  0  0  0  2  0  0  0  0  0  0
  191.5190  172.5290  136.5590 C   0  0  0  0  0  0  0  0  0  0  0  0
  193.5680  171.2210  135.7600 C   0  0  0  0  0  0  0  0  0  0  0  0
  194.3160  170.7740  134.6250 N   0  0  0  0  0  2  0  0  0  0  0  0
  196.3410  170.5550  135.9740 C   0  0  0  0  0  1  0  0  0  0  0  0
  195.5900  170.0740  134.7490 C   0  0  0  0  0  2  0  0  0  0  0  0
  191.0480  175.6330  146.6320 C   0  0  1  0  0  3  0  0  0  0  0  0
  191.0110  175.8230  148.1570 C   0  0  1  0  0  3  0  0  0  0  0  0
  191.5420  174.7190  148.8190 O   0  0  0  0  0  1  0  0  0  0  0  0
  191.6690  177.1060  148.6370 C   0  0  0  0  0  1  0  0  0  0  0  0
  190.7420  176.9670  145.9500 C   0  0  0  0  0  2  0  0  0  0  0  0
  189.3830  177.0000  145.2740 C   0  0  2  0  0  3  0  0  0  0  0  0
  189.4760  177.9240  144.1040 C   0  0  0  0  0  3  0  0  0  0  0  0
  190.5290  178.4750  143.8190 O   0  0  0  0  0  0  0  0  0  0  0  0
  188.4510  177.5040  146.2020 O   0  0  0  0  0  0  0  0  0  0  0  0
  187.0950  177.2580  145.8330 C   0  0  1  0  0  0  0  0  0  0  0  0
  186.9250  175.8670  145.8040 O   0  0  0  0  0  1  0  0  0  0  0  0
  186.2250  179.1310  147.1970 C   0  0  0  0  0  2  0  0  0  0  0  0
  186.2010  177.8340  146.9120 C   0  0  0  0  0  0  0  0  0  0  0  0
  185.2870  177.0270  147.5790 O   0  0  0  0  0  1  0  0  0  0  0  0
  186.6830  177.7970  144.4350 C   0  0  0  0  0  2  0  0  0  0  0  0
  185.2420  177.9930  144.3530 N   0  0  0  0  0  2  0  0  0  0  0  0
  184.7870  177.2650  143.1770 C   0  0  0  0  0  2  0  0  0  0  0  0
  184.5060  178.2350  142.0770 C   0  0  0  0  0  0  0  0  0  0  0  0
  185.3970  178.5330  141.1240 C   0  0  0  0  0  3  0  0  0  0  0  0
  186.8100  178.0860  141.0790 C   0  0  0  0  0  0  0  0  0  0  0  0
  187.7190  178.7940  141.5890 O   0  0  0  0  0  0  0  0  0  0  0  0
  187.1700  176.8580  140.3450 C   0  0  0  0  0  0  0  0  0  0  0  0
  186.6640  176.6180  139.1380 C   0  0  0  0  0  2  0  0  0  0  0  0
  187.8680  175.7510  141.0540 C   0  0  0  0  0  1  0  0  0  0  0  0
  183.1650  178.8850  142.0450 C   0  0  0  0  0  2  0  0  0  0  0  0
  182.5320  178.6970  140.7410 N   0  0  0  0  0  2  0  0  0  0  0  0
  181.3720  177.8590  140.9680 C   0  0  0  0  0  2  0  0  0  0  0  0
  180.1280  178.6750  140.8610 C   0  0  0  0  0  0  0  0  0  0  0  0
  180.1880  179.9890  140.4100 O   0  0  0  0  0  0  0  0  0  0  0  0
  179.0210  178.1760  141.1950 O   0  0  0  0  0  1  0  0  0  0  0  0
  2  1  1  0  0  0  0
  2 40  1  6  0  0  0
  3  6  2  0  0  0  0
  4  6  1  0  0  0  0
  4  5  1  0  0  0  0
  5  7  1  1  0  0  0
  5  1  1  0  0  0  0
  6  2  1  0  0  0  0
  9 10  1  0  0  0  0
  9  8  1  0  0  0  0
 10  8  1  0  0  0  0
 10  7  1  0  0  0  0
 11 10  1  0  0  0  0
 12 15  1  0  0  0  0
 12 13  1  0  0  0  0
 13 18  1  6  0  0  0
 13 16  1  0  0  0  0
 14 11  1  1  0  0  0
 15 17  1  0  0  0  0
 16 14  1  0  0  0  0
 17 14  1  0  0  0  0
 18 19  1  0  0  0  0
 19 23  1  0  0  0  0
 20 18  2  0  0  0  0
 22 19  1  0  0  0  0
 22 21  2  0  0  0  0
 23 24  1  1  0  0  0
 23 27  1  0  0  0  0
 25 27  2  0  0  0  0
 27 26  1  0  0  0  0
 28 29  1  0  0  0  0
 28 23  1  0  0  0  0
 30 22  1  0  0  0  0
 31 30  1  0  0  0  0
 33 35  2  0  0  0  0
 34 36  1  0  0  0  0
 34 35  1  0  0  0  0
 35 31  1  0  0  0  0
 36 32  2  0  0  0  0
 37 39  1  0  0  0  0
 37 36  1  0  0  0  0
 39 38  1  0  0  0  0
 40 44  1  6  0  0  0
 40 41  1  0  0  0  0
 41 43  1  6  0  0  0
 41 42  1  0  0  0  0
 45 46  1  6  0  0  0
 45 44  1  0  0  0  0
 45 48  1  0  0  0  0
 47 46  2  0  0  0  0
 49 50  1  6  0  0  0
 49 48  1  0  0  0  0
 49 52  1  0  0  0  0
 52 51  2  0  0  0  0
 52 53  1  0  0  0  0
 54 49  1  0  0  0  0
 55 54  1  0  0  0  0
 56 55  1  0  0  0  0
 57 56  1  0  0  0  0
 58 57  2  0  0  0  0
 59 58  1  0  0  0  0
 59 60  2  0  0  0  0
 61 63  1  0  0  0  0
 61 59  1  0  0  0  0
 62 61  2  0  0  0  0
 64 57  1  0  0  0  0
 65 66  1  0  0  0  0
 65 64  1  0  0  0  0
 67 66  1  0  0  0  0
 67 69  1  0  0  0  0
 68 67  2  0  0  0  0
M  END
>  <MODEL>
5

>  <REMARK>
 VINA RESULT:      -3.6      1.668      2.719
  Name = 
  30 active torsions:
  status: ('A' for Active; 'I' for Inactive)
    1  A    between atoms: C_1  and  C_16
    2  A    between atoms: C_1  and  C_35
    3  A    between atoms: O_3  and  C_19
    4  A    between atoms: O_3  and  C_48
    5  A    between atoms: N_4  and  C_23
    6  A    between atoms: N_4  and  C_35
    7  A    between atoms: C_5  and  C_34
    8  A    between atoms: C_8  and  C_25
    9  A    between atoms: C_9  and  C_64
   10  A    between atoms: C_9  and  C_69
   11  A    between atoms: C_10  and  C_25
   12  A    between atoms: C_11  and  C_27
   13  A    between atoms: C_13  and  C_34
   14  A    between atoms: C_14  and  C_41
   15  A    between atoms: C_15  and  C_23
   16  A    between atoms: C_16  and  N_26
   17  A    between atoms: C_25  and  C_36
   18  A    between atoms: N_26  and  C_38
   19  A    between atoms: C_27  and  N_43
   20  A    between atoms: C_27  and  C_59
   21  A    between atoms: C_31  and  C_48
   22  A    between atoms: C_31  and  C_53
   23  A    between atoms: C_33  and  N_65
   24  A    between atoms: C_36  and  C_39
   25  A    between atoms: C_38  and  C_46
   26  A    between atoms: C_39  and  C_40
   27  A    between atoms: C_39  and  O_42
   28  A    between atoms: O_42  and  C_46
   29  A    between atoms: C_46  and  C_50
   30  A    between atoms: C_52  and  C_69
                            x       y       z     vdW  Elec       q    Type
                         _______ _______ _______ _____ _____    ______ ____

>  <TORSDO>
F 30

$$$$
=
 OpenBabel11072408403D

 69 71  0  0  1  0  0  0  0  0999 V2000
  193.4420  173.0070  141.6940 C   0  0  0  0  0  2  0  0  0  0  0  0
  194.7630  173.6800  142.0800 C   0  0  2  0  0  3  0  0  0  0  0  0
  195.1080  175.5110  143.6370 O   0  0  0  0  0  0  0  0  0  0  0  0
  192.9380  174.7350  143.2790 N   0  0  0  0  0  2  0  0  0  0  0  0
  192.3190  173.6950  142.4800 C   0  0  2  0  0  3  0  0  0  0  0  0
  194.3270  174.7320  143.0300 C   0  0  0  0  0  0  0  0  0  0  0  0
  191.5210  172.7180  143.3500 C   0  0  0  0  0  2  0  0  0  0  0  0
  190.4850  170.3430  143.3640 C   0  0  0  0  0  2  0  0  0  0  0  0
  191.6170  170.3250  142.3480 C   0  0  0  0  0  2  0  0  0  0  0  0
  190.8200  171.5910  142.5700 C   0  0  0  0  0  0  0  0  0  0  0  0
  189.9510  171.8990  141.5030 O   0  0  0  0  0  0  0  0  0  0  0  0
  187.0470  174.3350  141.1920 C   0  0  0  0  0  2  0  0  0  0  0  0
  188.1490  174.6450  142.2210 C   0  0  2  0  0  3  0  0  0  0  0  0
  188.6810  172.1240  142.0570 C   0  0  1  0  0  3  0  0  0  0  0  0
  186.5690  173.0200  141.3290 O   0  0  0  0  0  0  0  0  0  0  0  0
  188.6960  173.3870  142.9260 C   0  0  0  0  0  2  0  0  0  0  0  0
  187.6330  172.1980  140.9380 C   0  0  0  0  0  2  0  0  0  0  0  0
  187.6590  175.6410  143.2240 C   0  0  0  0  0  0  0  0  0  0  0  0
  188.5900  176.5050  143.8970 N   0  0  0  0  0  0  0  0  0  0  0  0
  186.4230  175.7420  143.4570 O   0  0  0  0  0  0  0  0  0  0  0  0
  190.7510  177.0480  143.1650 O   0  0  0  0  0  0  0  0  0  0  0  0
  189.5080  177.2510  143.0760 C   0  0  0  0  0  0  0  0  0  0  0  0
  188.7630  176.4820  145.3730 C   0  0  2  0  0  0  0  0  0  0  0  0
  189.5300  177.7330  145.8030 C   0  0  0  0  0  1  0  0  0  0  0  0
  190.6850  175.0670  145.4800 O   0  0  0  0  0  0  0  0  0  0  0  0
  188.7850  174.0860  146.4250 C   0  0  0  0  0  1  0  0  0  0  0  0
  189.5080  175.2190  145.7700 C   0  0  0  0  0  0  0  0  0  0  0  0
  187.4030  176.5360  146.0990 C   0  0  0  0  0  2  0  0  0  0  0  0
  187.5410  176.9230  147.4350 O   0  0  0  0  0  1  0  0  0  0  0  0
  188.9720  178.2440  142.0900 C   0  0  0  0  0  2  0  0  0  0  0  0
  187.4480  178.2880  142.1340 C   0  0  0  0  0  2  0  0  0  0  0  0
  184.6670  178.5930  142.5810 O   0  0  0  0  0  0  0  0  0  0  0  0
  187.6610  177.2070  140.0380 O   0  0  0  0  0  0  0  0  0  0  0  0
  185.5180  177.9980  140.4750 N   0  0  0  0  0  2  0  0  0  0  0  0
  186.8900  177.7980  140.8410 C   0  0  0  0  0  0  0  0  0  0  0  0
  184.4610  178.4190  141.3510 C   0  0  0  0  0  0  0  0  0  0  0  0
  183.1490  178.5970  140.8110 N   0  0  0  0  0  2  0  0  0  0  0  0
  180.8720  179.4820  140.8080 C   0  0  0  0  0  1  0  0  0  0  0  0
  181.9880  178.8900  141.6450 C   0  0  0  0  0  2  0  0  0  0  0  0
  195.5000  174.2430  140.8430 C   0  0  1  0  0  3  0  0  0  0  0  0
  196.8910  174.8110  141.1670 C   0  0  1  0  0  3  0  0  0  0  0  0
  197.8570  173.8080  141.1870 O   0  0  0  0  0  1  0  0  0  0  0  0
  197.3200  175.9520  140.2600 C   0  0  0  0  0  1  0  0  0  0  0  0
  195.6350  173.1600  139.7700 C   0  0  0  0  0  2  0  0  0  0  0  0
  194.8690  173.4740  138.4980 C   0  0  2  0  0  3  0  0  0  0  0  0
  194.8090  172.2260  137.6800 C   0  0  0  0  0  3  0  0  0  0  0  0
  195.8300  171.6490  137.3360 O   0  0  0  0  0  0  0  0  0  0  0  0
  195.5830  174.4660  137.7970 O   0  0  0  0  0  0  0  0  0  0  0  0
  194.8170  175.0950  136.7710 C   0  0  1  0  0  0  0  0  0  0  0  0
  194.1540  176.1790  137.3620 O   0  0  0  0  0  1  0  0  0  0  0  0
  195.3300  176.2470  134.6400 C   0  0  0  0  0  2  0  0  0  0  0  0
  195.7780  175.6260  135.7260 C   0  0  0  0  0  0  0  0  0  0  0  0
  197.1510  175.5360  135.9160 O   0  0  0  0  0  1  0  0  0  0  0  0
  193.7330  174.1990  136.1120 C   0  0  0  0  0  2  0  0  0  0  0  0
  192.3980  174.5910  136.5440 N   0  0  0  0  0  2  0  0  0  0  0  0
  191.7050  173.3670  136.9240 C   0  0  0  0  0  2  0  0  0  0  0  0
  190.7590  172.9790  135.8350 C   0  0  0  0  0  0  0  0  0  0  0  0
  190.5290  171.7070  135.4910 C   0  0  0  0  0  3  0  0  0  0  0  0
  191.2520  170.5180  136.0040 C   0  0  0  0  0  0  0  0  0  0  0  0
  192.4190  170.2600  135.6060 O   0  0  0  0  0  0  0  0  0  0  0  0
  190.5670  169.5740  136.9080 C   0  0  0  0  0  0  0  0  0  0  0  0
  189.5070  169.9600  137.6130 C   0  0  0  0  0  2  0  0  0  0  0  0
  191.2150  168.2800  137.2550 C   0  0  0  0  0  1  0  0  0  0  0  0
  190.0380  174.0670  135.1170 C   0  0  0  0  0  2  0  0  0  0  0  0
  189.6530  175.1290  136.0430 N   0  0  0  0  0  2  0  0  0  0  0  0
  188.2620  174.8960  136.3770 C   0  0  0  0  0  2  0  0  0  0  0  0
  187.5320  176.1950  136.4480 C   0  0  0  0  0  0  0  0  0  0  0  0
  187.7400  177.1700  135.4780 O   0  0  0  0  0  0  0  0  0  0  0  0
  186.7370  176.4160  137.3990 O   0  0  0  0  0  1  0  0  0  0  0  0
  1  2  1  0  0  0  0
  1  5  1  0  0  0  0
  2 40  1  6  0  0  0
  2  6  1  0  0  0  0
  5  4  1  0  0  0  0
  5  7  1  1  0  0  0
  6  4  1  0  0  0  0
  6  3  2  0  0  0  0
  9 10  1  0  0  0  0
  9  8  1  0  0  0  0
 10  7  1  0  0  0  0
 10  8  1  0  0  0  0
 11 10  1  0  0  0  0
 12 15  1  0  0  0  0
 12 13  1  0  0  0  0
 13 16  1  0  0  0  0
 13 18  1  1  0  0  0
 14 11  1  6  0  0  0
 14 16  1  0  0  0  0
 17 15  1  0  0  0  0
 17 14  1  0  0  0  0
 18 20  2  0  0  0  0
 18 19  1  0  0  0  0
 19 23  1  0  0  0  0
 22 21  2  0  0  0  0
 22 19  1  0  0  0  0
 23 27  1  0  0  0  0
 23 24  1  1  0  0  0
 23 28  1  0  0  0  0
 25 27  2  0  0  0  0
 27 26  1  0  0  0  0
 28 29  1  0  0  0  0
 30 31  1  0  0  0  0
 30 22  1  0  0  0  0
 33 35  2  0  0  0  0
 34 35  1  0  0  0  0
 34 36  1  0  0  0  0
 35 31  1  0  0  0  0
 36 32  2  0  0  0  0
 37 36  1  0  0  0  0
 37 39  1  0  0  0  0
 38 39  1  0  0  0  0
 40 44  1  6  0  0  0
 40 41  1  0  0  0  0
 41 43  1  6  0  0  0
 41 42  1  0  0  0  0
 45 46  1  6  0  0  0
 45 44  1  0  0  0  0
 47 46  2  0  0  0  0
 48 45  1  0  0  0  0
 49 50  1  1  0  0  0
 49 48  1  0  0  0  0
 51 52  2  0  0  0  0
 52 53  1  0  0  0  0
 52 49  1  0  0  0  0
 54 55  1  0  0  0  0
 54 49  1  0  0  0  0
 55 56  1  0  0  0  0
 57 56  1  0  0  0  0
 58 57  2  0  0  0  0
 58 59  1  0  0  0  0
 59 61  1  0  0  0  0
 60 59  2  0  0  0  0
 61 63  1  0  0  0  0
 61 62  2  0  0  0  0
 64 57  1  0  0  0  0
 64 65  1  0  0  0  0
 65 66  1  0  0  0  0
 66 67  1  0  0  0  0
 67 69  1  0  0  0  0
 68 67  2  0  0  0  0
M  END
>  <MODEL>
6

>  <REMARK>
 VINA RESULT:      -2.3      2.303      9.224
  Name = 
  30 active torsions:
  status: ('A' for Active; 'I' for Inactive)
    1  A    between atoms: C_1  and  C_16
    2  A    between atoms: C_1  and  C_35
    3  A    between atoms: O_3  and  C_19
    4  A    between atoms: O_3  and  C_48
    5  A    between atoms: N_4  and  C_23
    6  A    between atoms: N_4  and  C_35
    7  A    between atoms: C_5  and  C_34
    8  A    between atoms: C_8  and  C_25
    9  A    between atoms: C_9  and  C_64
   10  A    between atoms: C_9  and  C_69
   11  A    between atoms: C_10  and  C_25
   12  A    between atoms: C_11  and  C_27
   13  A    between atoms: C_13  and  C_34
   14  A    between atoms: C_14  and  C_41
   15  A    between atoms: C_15  and  C_23
   16  A    between atoms: C_16  and  N_26
   17  A    between atoms: C_25  and  C_36
   18  A    between atoms: N_26  and  C_38
   19  A    between atoms: C_27  and  N_43
   20  A    between atoms: C_27  and  C_59
   21  A    between atoms: C_31  and  C_48
   22  A    between atoms: C_31  and  C_53
   23  A    between atoms: C_33  and  N_65
   24  A    between atoms: C_36  and  C_39
   25  A    between atoms: C_38  and  C_46
   26  A    between atoms: C_39  and  C_40
   27  A    between atoms: C_39  and  O_42
   28  A    between atoms: O_42  and  C_46
   29  A    between atoms: C_46  and  C_50
   30  A    between atoms: C_52  and  C_69
                            x       y       z     vdW  Elec       q    Type
                         _______ _______ _______ _____ _____    ______ ____

>  <TORSDO>
F 30

$$$$
=
 OpenBabel11072408403D

 69 71  0  0  1  0  0  0  0  0999 V2000
  189.1780  175.1000  143.1520 C   0  0  0  0  0  2  0  0  0  0  0  0
  189.2390  175.1900  144.6800 C   0  0  2  0  0  3  0  0  0  0  0  0
  188.2060  176.8490  146.1210 O   0  0  0  0  0  0  0  0  0  0  0  0
  187.9110  177.0250  143.8140 N   0  0  0  0  0  2  0  0  0  0  0  0
  188.3240  176.2690  142.6470 C   0  0  2  0  0  3  0  0  0  0  0  0
  188.4530  176.4150  144.9650 C   0  0  0  0  0  0  0  0  0  0  0  0
  187.1180  175.8080  141.8210 C   0  0  0  0  0  2  0  0  0  0  0  0
  187.1840  178.2470  140.9510 C   0  0  0  0  0  2  0  0  0  0  0  0
  185.7760  178.0030  141.4740 C   0  0  0  0  0  2  0  0  0  0  0  0
  186.5610  176.8670  140.8540 C   0  0  0  0  0  0  0  0  0  0  0  0
  186.0860  176.4890  139.5820 O   0  0  0  0  0  0  0  0  0  0  0  0
  187.8450  174.4020  136.9340 C   0  0  0  0  0  2  0  0  0  0  0  0
  188.3440  174.3050  138.3860 C   0  0  2  0  0  3  0  0  0  0  0  0
  187.1680  176.5820  138.6930 C   0  0  1  0  0  3  0  0  0  0  0  0
  187.7420  175.7390  136.5130 O   0  0  0  0  0  0  0  0  0  0  0  0
  188.3030  175.6510  139.1370 C   0  0  0  0  0  2  0  0  0  0  0  0
  186.6930  176.2830  137.2640 C   0  0  0  0  0  2  0  0  0  0  0  0
  189.7220  173.7210  138.4250 C   0  0  0  0  0  0  0  0  0  0  0  0
  190.2740  173.0960  137.2550 N   0  0  0  0  0  0  0  0  0  0  0  0
  190.4090  173.8040  139.4800 O   0  0  0  0  0  0  0  0  0  0  0  0
  189.5730  173.4390  135.0430 O   0  0  0  0  0  0  0  0  0  0  0  0
  190.2450  173.8520  136.0290 C   0  0  0  0  0  0  0  0  0  0  0  0
  190.6650  171.6630  137.2340 C   0  0  2  0  0  0  0  0  0  0  0  0
  190.2760  171.0220  138.5660 C   0  0  0  0  0  1  0  0  0  0  0  0
  192.9480  171.5280  137.9210 O   0  0  0  0  0  0  0  0  0  0  0  0
  192.7060  171.5950  135.5970 C   0  0  0  0  0  1  0  0  0  0  0  0
  192.1600  171.5550  136.9890 C   0  0  0  0  0  0  0  0  0  0  0  0
  189.9000  170.8890  136.1410 C   0  0  0  0  0  2  0  0  0  0  0  0
  188.9690  169.9990  136.6860 O   0  0  0  0  0  1  0  0  0  0  0  0
  190.9880  175.1510  135.9480 C   0  0  0  0  0  2  0  0  0  0  0  0
  192.4030  175.0050  136.4970 C   0  0  0  0  0  2  0  0  0  0  0  0
  194.8760  173.9800  137.4280 O   0  0  0  0  0  0  0  0  0  0  0  0
  192.9420  176.6740  134.9060 O   0  0  0  0  0  0  0  0  0  0  0  0
  194.7470  175.3400  135.5170 N   0  0  0  0  0  2  0  0  0  0  0  0
  193.3660  175.7190  135.6110 C   0  0  0  0  0  0  0  0  0  0  0  0
  195.4440  174.4590  136.4110 C   0  0  0  0  0  0  0  0  0  0  0  0
  196.8200  174.1640  136.1530 N   0  0  0  0  0  2  0  0  0  0  0  0
  197.8320  174.1480  138.3770 C   0  0  0  0  0  1  0  0  0  0  0  0
  197.6460  173.3930  137.0760 C   0  0  0  0  0  2  0  0  0  0  0  0
  190.6970  175.2680  145.1910 C   0  0  1  0  0  3  0  0  0  0  0  0
  190.8760  174.7080  146.6110 C   0  0  1  0  0  3  0  0  0  0  0  0
  192.1640  174.2140  146.8030 O   0  0  0  0  0  1  0  0  0  0  0  0
  190.5070  175.6870  147.7130 C   0  0  0  0  0  1  0  0  0  0  0  0
  191.6320  174.5260  144.2340 C   0  0  0  0  0  2  0  0  0  0  0  0
  192.8500  175.3380  143.8320 C   0  0  2  0  0  3  0  0  0  0  0  0
  192.5320  176.7800  144.0540 C   0  0  0  0  0  3  0  0  0  0  0  0
  192.2730  177.5190  143.1150 O   0  0  0  0  0  0  0  0  0  0  0  0
  193.0880  175.1100  142.4620 O   0  0  0  0  0  0  0  0  0  0  0  0
  194.1840  174.2310  142.2170 C   0  0  1  0  0  0  0  0  0  0  0  0
  194.2800  174.0760  140.8270 O   0  0  0  0  0  1  0  0  0  0  0  0
  195.9060  176.0070  142.1460 C   0  0  0  0  0  2  0  0  0  0  0  0
  195.4460  174.9010  142.7190 C   0  0  0  0  0  0  0  0  0  0  0  0
  196.1120  174.4100  143.8360 O   0  0  0  0  0  1  0  0  0  0  0  0
  194.0380  172.8090  142.8260 C   0  0  0  0  0  2  0  0  0  0  0  0
  194.3450  171.7830  141.8390 N   0  0  0  0  0  2  0  0  0  0  0  0
  193.1430  170.9750  141.6880 C   0  0  0  0  0  2  0  0  0  0  0  0
  193.4500  169.5620  142.0620 C   0  0  0  0  0  0  0  0  0  0  0  0
  193.5150  169.1430  143.3320 C   0  0  0  0  0  3  0  0  0  0  0  0
  193.4440  170.0010  144.5390 C   0  0  0  0  0  0  0  0  0  0  0  0
  192.4000  170.6570  144.7950 O   0  0  0  0  0  0  0  0  0  0  0  0
  194.6360  170.1690  145.3920 C   0  0  0  0  0  0  0  0  0  0  0  0
  194.8850  169.3150  146.3830 C   0  0  0  0  0  2  0  0  0  0  0  0
  195.4090  171.4390  145.3410 C   0  0  0  0  0  1  0  0  0  0  0  0
  193.6820  168.5830  140.9630 C   0  0  0  0  0  2  0  0  0  0  0  0
  194.3150  169.2350  139.8190 N   0  0  0  0  0  2  0  0  0  0  0  0
  195.5970  168.5840  139.6370 C   0  0  0  0  0  2  0  0  0  0  0  0
  196.6770  169.4080  140.2530 C   0  0  0  0  0  0  0  0  0  0  0  0
  197.1260  169.1270  141.5390 O   0  0  0  0  0  1  0  0  0  0  0  0
  197.1720  170.3730  139.6120 O   0  0  0  0  0  0  0  0  0  0  0  0
  1  2  1  0  0  0  0
  2  6  1  0  0  0  0
  2 40  1  6  0  0  0
  4  6  1  0  0  0  0
  5  7  1  1  0  0  0
  5  1  1  0  0  0  0
  5  4  1  0  0  0  0
  6  3  2  0  0  0  0
  8  9  1  0  0  0  0
 10  8  1  0  0  0  0
 10  9  1  0  0  0  0
 10  7  1  0  0  0  0
 11 10  1  0  0  0  0
 12 13  1  0  0  0  0
 13 18  1  6  0  0  0
 13 16  1  0  0  0  0
 14 16  1  0  0  0  0
 14 11  1  1  0  0  0
 15 12  1  0  0  0  0
 15 17  1  0  0  0  0
 17 14  1  0  0  0  0
 18 20  2  0  0  0  0
 19 18  1  0  0  0  0
 21 22  2  0  0  0  0
 22 19  1  0  0  0  0
 23 19  1  0  0  0  0
 23 24  1  1  0  0  0
 26 27  1  0  0  0  0
 27 23  1  0  0  0  0
 27 25  2  0  0  0  0
 28 29  1  0  0  0  0
 28 23  1  0  0  0  0
 30 22  1  0  0  0  0
 30 31  1  0  0  0  0
 33 35  2  0  0  0  0
 34 35  1  0  0  0  0
 34 36  1  0  0  0  0
 35 31  1  0  0  0  0
 36 32  2  0  0  0  0
 37 36  1  0  0  0  0
 37 39  1  0  0  0  0
 39 38  1  0  0  0  0
 40 44  1  6  0  0  0
 40 41  1  0  0  0  0
 41 42  1  0  0  0  0
 41 43  1  1  0  0  0
 45 46  1  6  0  0  0
 45 44  1  0  0  0  0
 47 46  2  0  0  0  0
 48 45  1  0  0  0  0
 49 50  1  6  0  0  0
 49 48  1  0  0  0  0
 49 52  1  0  0  0  0
 49 54  1  0  0  0  0
 51 52  2  0  0  0  0
 52 53  1  0  0  0  0
 55 54  1  0  0  0  0
 56 55  1  0  0  0  0
 56 57  1  0  0  0  0
 57 58  2  0  0  0  0
 58 59  1  0  0  0  0
 59 60  2  0  0  0  0
 59 61  1  0  0  0  0
 61 62  2  0  0  0  0
 63 61  1  0  0  0  0
 64 57  1  0  0  0  0
 65 64  1  0  0  0  0
 66 65  1  0  0  0  0
 66 67  1  0  0  0  0
 67 68  1  0  0  0  0
 69 67  2  0  0  0  0
M  END
>  <MODEL>
7

>  <REMARK>
 VINA RESULT:      -2.1      2.655      9.086
  Name = 
  30 active torsions:
  status: ('A' for Active; 'I' for Inactive)
    1  A    between atoms: C_1  and  C_16
    2  A    between atoms: C_1  and  C_35
    3  A    between atoms: O_3  and  C_19
    4  A    between atoms: O_3  and  C_48
    5  A    between atoms: N_4  and  C_23
    6  A    between atoms: N_4  and  C_35
    7  A    between atoms: C_5  and  C_34
    8  A    between atoms: C_8  and  C_25
    9  A    between atoms: C_9  and  C_64
   10  A    between atoms: C_9  and  C_69
   11  A    between atoms: C_10  and  C_25
   12  A    between atoms: C_11  and  C_27
   13  A    between atoms: C_13  and  C_34
   14  A    between atoms: C_14  and  C_41
   15  A    between atoms: C_15  and  C_23
   16  A    between atoms: C_16  and  N_26
   17  A    between atoms: C_25  and  C_36
   18  A    between atoms: N_26  and  C_38
   19  A    between atoms: C_27  and  N_43
   20  A    between atoms: C_27  and  C_59
   21  A    between atoms: C_31  and  C_48
   22  A    between atoms: C_31  and  C_53
   23  A    between atoms: C_33  and  N_65
   24  A    between atoms: C_36  and  C_39
   25  A    between atoms: C_38  and  C_46
   26  A    between atoms: C_39  and  C_40
   27  A    between atoms: C_39  and  O_42
   28  A    between atoms: O_42  and  C_46
   29  A    between atoms: C_46  and  C_50
   30  A    between atoms: C_52  and  C_69
                            x       y       z     vdW  Elec       q    Type
                         _______ _______ _______ _____ _____    ______ ____

>  <TORSDO>
F 30

$$$$
=
 OpenBabel11072408403D

 69 71  0  0  1  0  0  0  0  0999 V2000
  194.3740  175.1090  138.9630 C   0  0  0  0  0  2  0  0  0  0  0  0
  195.3870  174.5320  137.9690 C   0  0  2  0  0  3  0  0  0  0  0  0
  197.8080  174.6960  138.0390 O   0  0  0  0  0  0  0  0  0  0  0  0
  196.5640  175.7130  139.7300 N   0  0  0  0  0  2  0  0  0  0  0  0
  195.1580  175.8360  140.0620 C   0  0  2  0  0  3  0  0  0  0  0  0
  196.6840  174.9860  138.5260 C   0  0  0  0  0  0  0  0  0  0  0  0
  194.8610  175.2890  141.4620 C   0  0  0  0  0  2  0  0  0  0  0  0
  196.1320  173.0530  141.1500 C   0  0  0  0  0  2  0  0  0  0  0  0
  195.3820  172.9540  142.4700 C   0  0  0  0  0  2  0  0  0  0  0  0
  195.9050  174.2920  141.9950 C   0  0  0  0  0  0  0  0  0  0  0  0
  197.0150  174.7510  142.7320 O   0  0  0  0  0  0  0  0  0  0  0  0
  195.3930  173.2530  145.8280 C   0  0  0  0  0  2  0  0  0  0  0  0
  194.4760  173.7750  144.7080 C   0  0  2  0  0  3  0  0  0  0  0  0
  196.5380  175.1540  143.9890 C   0  0  1  0  0  3  0  0  0  0  0  0
  196.3550  174.2090  146.1960 O   0  0  0  0  0  0  0  0  0  0  0  0
  195.0080  175.0560  144.0330 C   0  0  0  0  0  2  0  0  0  0  0  0
  197.2070  174.3200  145.0900 C   0  0  0  0  0  2  0  0  0  0  0  0
  193.0890  173.9890  145.2270 C   0  0  0  0  0  0  0  0  0  0  0  0
  192.1940  174.8830  144.5470 N   0  0  0  0  0  0  0  0  0  0  0  0
  192.6980  173.3610  146.2490 O   0  0  0  0  0  0  0  0  0  0  0  0
  192.3670  175.5800  142.3140 O   0  0  0  0  0  0  0  0  0  0  0  0
  192.0150  174.6850  143.1310 C   0  0  0  0  0  0  0  0  0  0  0  0
  191.6360  176.0940  145.2030 C   0  0  2  0  0  0  0  0  0  0  0  0
  192.7770  176.8780  145.8530 C   0  0  0  0  0  1  0  0  0  0  0  0
  190.6740  176.0630  147.3890 O   0  0  0  0  0  0  0  0  0  0  0  0
  189.5400  174.6820  145.8820 C   0  0  0  0  0  1  0  0  0  0  0  0
  190.6020  175.6730  146.2340 C   0  0  0  0  0  0  0  0  0  0  0  0
  190.9890  177.0430  144.1730 C   0  0  0  0  0  2  0  0  0  0  0  0
  191.7130  178.2310  144.0320 O   0  0  0  0  0  1  0  0  0  0  0  0
  191.4410  173.3910  142.6370 C   0  0  0  0  0  2  0  0  0  0  0  0
  190.2980  173.6400  141.6590 C   0  0  0  0  0  2  0  0  0  0  0  0
  189.1100  176.2100  141.5390 O   0  0  0  0  0  0  0  0  0  0  0  0
  188.8290  172.2970  142.9410 O   0  0  0  0  0  0  0  0  0  0  0  0
  187.9130  174.3330  142.2880 N   0  0  0  0  0  2  0  0  0  0  0  0
  188.9910  173.3880  142.3320 C   0  0  0  0  0  0  0  0  0  0  0  0
  188.0040  175.7020  141.8630 C   0  0  0  0  0  0  0  0  0  0  0  0
  186.8170  176.5000  141.8540 N   0  0  0  0  0  2  0  0  0  0  0  0
  185.4200  178.4710  141.4930 C   0  0  0  0  0  1  0  0  0  0  0  0
  186.8340  177.9310  141.5700 C   0  0  0  0  0  2  0  0  0  0  0  0
  195.1290  175.0400  136.5310 C   0  0  1  0  0  3  0  0  0  0  0  0
  196.3630  174.9410  135.6190 C   0  0  1  0  0  3  0  0  0  0  0  0
  196.2290  173.9070  134.6950 O   0  0  0  0  0  1  0  0  0  0  0  0
  196.7220  176.2420  134.9220 C   0  0  0  0  0  1  0  0  0  0  0  0
  193.9700  174.2680  135.8980 C   0  0  0  0  0  2  0  0  0  0  0  0
  192.7080  175.0970  135.7430 C   0  0  2  0  0  3  0  0  0  0  0  0
  193.1140  176.5280  135.6040 C   0  0  0  0  0  3  0  0  0  0  0  0
  192.2930  177.3910  135.3290 O   0  0  0  0  0  0  0  0  0  0  0  0
  191.9380  174.9340  136.9110 O   0  0  0  0  0  0  0  0  0  0  0  0
  191.1550  173.7420  136.9110 C   0  0  1  0  0  0  0  0  0  0  0  0
  190.0010  174.0100  137.6600 O   0  0  0  0  0  1  0  0  0  0  0  0
  189.6700  174.0140  134.9490 C   0  0  0  0  0  2  0  0  0  0  0  0
  190.7470  173.4470  135.4810 C   0  0  0  0  0  0  0  0  0  0  0  0
  191.5310  172.6300  134.6760 O   0  0  0  0  0  1  0  0  0  0  0  0
  191.8390  172.5030  137.5510 C   0  0  0  0  0  2  0  0  0  0  0  0
  191.0370  171.3020  137.3550 N   0  0  0  0  0  2  0  0  0  0  0  0
  191.1970  170.4910  138.5540 C   0  0  0  0  0  2  0  0  0  0  0  0
  192.3940  169.6120  138.3960 C   0  0  0  0  0  0  0  0  0  0  0  0
  193.2630  169.3800  139.3870 C   0  0  0  0  0  3  0  0  0  0  0  0
  193.2730  170.0450  140.7130 C   0  0  0  0  0  0  0  0  0  0  0  0
  194.0090  171.0470  140.9180 O   0  0  0  0  0  0  0  0  0  0  0  0
  192.4980  169.4720  141.8290 C   0  0  0  0  0  0  0  0  0  0  0  0
  192.9660  168.4330  142.5160 C   0  0  0  0  0  2  0  0  0  0  0  0
  191.0730  169.8590  142.0160 C   0  0  0  0  0  1  0  0  0  0  0  0
  192.6120  168.9610  137.0740 C   0  0  0  0  0  2  0  0  0  0  0  0
  193.7950  169.5130  136.4160 N   0  0  0  0  0  2  0  0  0  0  0  0
  194.5370  170.2200  137.4400 C   0  0  0  0  0  2  0  0  0  0  0  0
  195.9780  170.2970  137.0600 C   0  0  0  0  0  0  0  0  0  0  0  0
  196.4340  171.3260  136.2430 O   0  0  0  0  0  0  0  0  0  0  0  0
  196.7810  169.4170  137.4680 O   0  0  0  0  0  1  0  0  0  0  0  0
  1  5  1  0  0  0  0
  2 40  1  6  0  0  0
  2  6  1  0  0  0  0
  2  1  1  0  0  0  0
  3  6  2  0  0  0  0
  4  5  1  0  0  0  0
  5  7  1  1  0  0  0
  6  4  1  0  0  0  0
  7 10  1  0  0  0  0
  8 10  1  0  0  0  0
  8  9  1  0  0  0  0
 10  9  1  0  0  0  0
 10 11  1  0  0  0  0
 12 15  1  0  0  0  0
 13 18  1  1  0  0  0
 13 12  1  0  0  0  0
 14 11  1  6  0  0  0
 14 16  1  0  0  0  0
 14 17  1  0  0  0  0
 16 13  1  0  0  0  0
 17 15  1  0  0  0  0
 18 20  2  0  0  0  0
 19 23  1  0  0  0  0
 19 18  1  0  0  0  0
 21 22  2  0  0  0  0
 22 19  1  0  0  0  0
 23 24  1  1  0  0  0
 23 27  1  0  0  0  0
 26 27  1  0  0  0  0
 27 25  2  0  0  0  0
 28 23  1  0  0  0  0
 29 28  1  0  0  0  0
 30 22  1  0  0  0  0
 31 35  1  0  0  0  0
 31 30  1  0  0  0  0
 32 36  2  0  0  0  0
 34 35  1  0  0  0  0
 35 33  2  0  0  0  0
 36 34  1  0  0  0  0
 37 36  1  0  0  0  0
 38 39  1  0  0  0  0
 39 37  1  0  0  0  0
 40 44  1  6  0  0  0
 41 43  1  6  0  0  0
 41 40  1  0  0  0  0
 42 41  1  0  0  0  0
 45 46  1  1  0  0  0
 45 44  1  0  0  0  0
 45 48  1  0  0  0  0
 47 46  2  0  0  0  0
 49 48  1  0  0  0  0
 49 54  1  0  0  0  0
 49 50  1  1  0  0  0
 51 52  2  0  0  0  0
 52 49  1  0  0  0  0
 53 52  1  0  0  0  0
 55 54  1  0  0  0  0
 55 56  1  0  0  0  0
 57 56  1  0  0  0  0
 57 58  2  0  0  0  0
 58 59  1  0  0  0  0
 59 60  2  0  0  0  0
 59 61  1  0  0  0  0
 61 63  1  0  0  0  0
 61 62  2  0  0  0  0
 64 57  1  0  0  0  0
 65 64  1  0  0  0  0
 65 66  1  0  0  0  0
 67 66  1  0  0  0  0
 67 69  1  0  0  0  0
 68 67  2  0  0  0  0
M  END
>  <MODEL>
8

>  <REMARK>
 VINA RESULT:      -2.1      2.975      9.667
  Name = 
  30 active torsions:
  status: ('A' for Active; 'I' for Inactive)
    1  A    between atoms: C_1  and  C_16
    2  A    between atoms: C_1  and  C_35
    3  A    between atoms: O_3  and  C_19
    4  A    between atoms: O_3  and  C_48
    5  A    between atoms: N_4  and  C_23
    6  A    between atoms: N_4  and  C_35
    7  A    between atoms: C_5  and  C_34
    8  A    between atoms: C_8  and  C_25
    9  A    between atoms: C_9  and  C_64
   10  A    between atoms: C_9  and  C_69
   11  A    between atoms: C_10  and  C_25
   12  A    between atoms: C_11  and  C_27
   13  A    between atoms: C_13  and  C_34
   14  A    between atoms: C_14  and  C_41
   15  A    between atoms: C_15  and  C_23
   16  A    between atoms: C_16  and  N_26
   17  A    between atoms: C_25  and  C_36
   18  A    between atoms: N_26  and  C_38
   19  A    between atoms: C_27  and  N_43
   20  A    between atoms: C_27  and  C_59
   21  A    between atoms: C_31  and  C_48
   22  A    between atoms: C_31  and  C_53
   23  A    between atoms: C_33  and  N_65
   24  A    between atoms: C_36  and  C_39
   25  A    between atoms: C_38  and  C_46
   26  A    between atoms: C_39  and  C_40
   27  A    between atoms: C_39  and  O_42
   28  A    between atoms: O_42  and  C_46
   29  A    between atoms: C_46  and  C_50
   30  A    between atoms: C_52  and  C_69
                            x       y       z     vdW  Elec       q    Type
                         _______ _______ _______ _____ _____    ______ ____

>  <TORSDO>
F 30

$$$$
