=
 OpenBabel11072409263D

 39 48  0  0  1  0  0  0  0  0999 V2000
  194.2480  175.8780  144.7600 C   0  0  1  0  0  3  0  0  0  0  0  0
  190.0650  175.3050  147.6740 C   0  0  0  0  0  2  0  0  0  0  0  0
  192.0200  175.5400  145.1280 C   0  0  1  0  0  3  0  0  0  0  0  0
  189.3050  174.7390  146.4600 C   0  0  2  0  0  3  0  0  0  0  0  0
  191.2750  174.2430  144.9430 C   0  0  0  0  0  0  0  0  0  0  0  0
  191.5820  175.1280  147.6190 C   0  0  0  0  0  2  0  0  0  0  0  0
  189.7420  172.6030  145.0080 C   0  0  0  0  0  3  0  0  0  0  0  0
  190.6420  172.1540  144.1970 N   0  0  0  0  0  0  0  0  0  0  0  0
  190.1150  173.9160  145.4930 C   0  0  1  0  0  3  0  0  0  0  0  0
  192.1920  176.0170  146.5350 C   0  0  1  0  0  3  0  0  0  0  0  0
  193.3510  175.2760  145.8550 C   0  0  1  0  0  0  0  0  0  0  0  0
  191.7170  173.1300  144.0540 C   0  0  0  0  0  3  0  0  0  0  0  0
  194.4150  176.3500  146.1460 C   0  0  0  0  0  2  0  0  0  0  0  0
  194.5530  171.5210  145.2840 O   0  0  0  0  0  1  0  0  0  0  0  0
  195.9810  172.5920  143.6850 C   0  0  1  0  0  3  0  0  0  0  0  0
  195.3460  174.8970  144.3050 C   0  0  2  0  0  3  0  0  0  0  0  0
  196.3850  169.5660  145.5350 C   0  0  2  0  0  3  0  0  0  0  0  0
  196.7370  170.7830  144.8340 N   0  0  2  0  0  0  0  0  0  0  0  0
  194.8770  173.6360  143.5860 C   0  0  0  0  0  2  0  0  0  0  0  0
  197.2240  171.8340  145.6220 N   0  0  0  0  0  2  0  0  0  0  0  0
  197.0140  173.0060  144.7530 C   0  0  2  0  0  3  0  0  0  0  0  0
  197.6340  168.7580  145.8280 C   0  0  0  0  0  1  0  0  0  0  0  0
  195.4950  168.7960  144.5450 C   0  0  1  0  0  3  0  0  0  0  0  0
  196.3520  174.3890  145.7240 S   0  0  0  0  0  0  0  0  0  0  0  0
  194.2970  168.2200  145.2710 C   0  0  0  0  0  1  0  0  0  0  0  0
  195.5130  171.2870  144.2770 C   0  0  1  0  0  0  0  0  0  0  0  0
  194.9300  169.9590  143.2180 S   0  0  0  0  0  0  0  0  0  0  0  0
  186.2770  178.5110  143.6550 N   0  0  0  0  0  0  0  0  0  0  0  0
  187.6120  176.7450  143.7600 C   0  0  0  0  0  0  0  0  0  0  0  0
  188.3930  175.7680  144.3700 C   0  0  0  0  0  3  0  0  0  0  0  0
  187.7690  176.7600  146.5190 C   0  0  0  0  0  3  0  0  0  0  0  0
  186.9410  177.6880  144.4780 C   0  0  0  0  0  0  0  0  0  0  0  0
  187.4050  176.9260  142.4490 N   0  0  0  0  0  2  0  0  0  0  0  0
  186.9920  177.7340  145.8680 C   0  0  0  0  0  3  0  0  0  0  0  0
  188.4700  175.7760  145.7760 C   0  0  0  0  0  0  0  0  0  0  0  0
  186.5770  178.0050  142.4290 C   0  0  0  0  0  0  0  0  0  0  0  0
  185.7450  177.5300  140.1590 C   0  0  0  0  0  2  0  0  0  0  0  0
  186.0860  178.6210  141.1590 C   0  0  0  0  0  3  0  0  0  0  0  0
  184.6400  178.2270  140.9200 C   0  0  0  0  0  2  0  0  0  0  0  0
  1 11  1  0  0  0  0
  1 13  1  1  0  0  0
  3  5  1  1  0  0  0
  3 11  1  0  0  0  0
  3 10  1  0  0  0  0
  4 35  1  6  0  0  0
  4  2  1  0  0  0  0
  5  9  1  0  0  0  0
  6  2  1  0  0  0  0
  8  7  2  0  0  0  0
  9  7  1  1  0  0  0
  9  4  1  0  0  0  0
 10  6  1  1  0  0  0
 11 13  1  6  0  0  0
 11 10  1  0  0  0  0
 12  8  1  0  0  0  0
 12  5  2  0  0  0  0
 15 19  1  1  0  0  0
 15 26  1  0  0  0  0
 15 21  1  0  0  0  0
 16 19  1  1  0  0  0
 16  1  1  0  0  0  0
 16 24  1  0  0  0  0
 17 22  1  6  0  0  0
 18 17  1  0  0  0  0
 18 20  1  1  0  0  0
 21 20  1  1  0  0  0
 21 24  1  0  0  0  0
 23 25  1  1  0  0  0
 23 17  1  0  0  0  0
 26 18  1  0  0  0  0
 26 14  1  1  0  0  0
 27 26  1  0  0  0  0
 27 23  1  0  0  0  0
 28 32  1  0  0  0  0
 29 30  2  0  0  0  0
 29 32  1  0  0  0  0
 30 35  1  0  0  0  0
 32 34  2  0  0  0  0
 33 29  1  0  0  0  0
 34 31  1  0  0  0  0
 35 31  2  0  0  0  0
 36 33  1  0  0  0  0
 36 28  2  0  0  0  0
 37 39  1  0  0  0  0
 37 38  1  0  0  0  0
 38 36  1  0  0  0  0
 39 38  1  0  0  0  0
M  END
>  <MODEL>
1

>  <REMARK>
 VINA RESULT:      -9.4      0.000      0.000
  Name = 
  3 active torsions:
  status: ('A' for Active; 'I' for Inactive)
    1  A    between atoms: C_1  and  C_8
    2  A    between atoms: C_4  and  C_34
    3  A    between atoms: C_27  and  C_39
                            x       y       z     vdW  Elec       q    Type
                         _______ _______ _______ _____ _____    ______ ____

>  <TORSDO>
F 3

$$$$
=
 OpenBabel11072409263D

 39 48  0  0  1  0  0  0  0  0999 V2000
  191.0040  175.4140  147.4770 C   0  0  1  0  0  3  0  0  0  0  0  0
  195.1960  176.3640  144.6770 C   0  0  0  0  0  2  0  0  0  0  0  0
  192.6560  174.8880  145.9910 C   0  0  1  0  0  3  0  0  0  0  0  0
  194.9030  175.1140  143.8260 C   0  0  2  0  0  3  0  0  0  0  0  0
  192.4920  174.7180  144.5020 C   0  0  0  0  0  0  0  0  0  0  0  0
  193.9690  176.9890  145.3380 C   0  0  0  0  0  2  0  0  0  0  0  0
  192.8620  174.5210  142.2960 C   0  0  0  0  0  3  0  0  0  0  0  0
  191.5970  174.2900  142.4210 N   0  0  0  0  0  0  0  0  0  0  0  0
  193.4510  174.7950  143.5900 C   0  0  0  0  0  0  0  0  0  0  0  0
  193.4310  176.0830  146.4460 C   0  0  1  0  0  3  0  0  0  0  0  0
  191.8970  176.1440  146.4580 C   0  0  1  0  0  0  0  0  0  0  0  0
  191.2080  174.3830  143.8230 C   0  0  0  0  0  2  0  0  0  0  0  0
  191.7710  176.5910  147.9260 C   0  0  0  0  0  2  0  0  0  0  0  0
  188.9300  176.9840  143.9300 O   0  0  0  0  0  1  0  0  0  0  0  0
  187.6330  175.9480  145.6590 C   0  0  1  0  0  3  0  0  0  0  0  0
  189.5080  175.7030  147.2480 C   0  0  2  0  0  3  0  0  0  0  0  0
  186.7640  178.4220  143.2380 C   0  0  2  0  0  3  0  0  0  0  0  0
  186.7560  177.6840  144.4820 N   0  0  2  0  0  0  0  0  0  0  0  0
  188.8990  175.1570  145.9600 C   0  0  0  0  0  2  0  0  0  0  0  0
  187.2840  178.3450  145.5990 N   0  0  0  0  0  2  0  0  0  0  0  0
  187.5870  177.2300  146.5140 C   0  0  2  0  0  3  0  0  0  0  0  0
  185.5980  179.3910  143.2050 C   0  0  0  0  0  1  0  0  0  0  0  0
  186.5710  177.3500  142.1520 C   0  0  1  0  0  3  0  0  0  0  0  0
  189.2050  177.4890  147.2950 S   0  0  0  0  0  0  0  0  0  0  0  0
  187.5190  177.6070  141.0000 C   0  0  0  0  0  1  0  0  0  0  0  0
  187.6300  176.5620  144.2810 C   0  0  1  0  0  0  0  0  0  0  0  0
  186.9100  175.6840  142.8900 S   0  0  0  0  0  0  0  0  0  0  0  0
  197.5960  170.5410  145.5910 N   0  0  0  0  0  0  0  0  0  0  0  0
  195.7550  171.7070  145.1890 C   0  0  0  0  0  0  0  0  0  0  0  0
  194.9990  172.8000  144.7760 C   0  0  0  0  0  3  0  0  0  0  0  0
  197.1060  173.9110  144.2110 C   0  0  0  0  0  3  0  0  0  0  0  0
  197.1150  171.7020  145.1250 C   0  0  0  0  0  0  0  0  0  0  0  0
  195.3100  170.5510  145.6980 N   0  0  0  0  0  2  0  0  0  0  0  0
  197.8370  172.7890  144.6420 C   0  0  0  0  0  3  0  0  0  0  0  0
  195.6890  173.9210  144.2760 C   0  0  0  0  0  0  0  0  0  0  0  0
  196.4630  169.8650  145.9190 C   0  0  0  0  0  0  0  0  0  0  0  0
  196.8950  168.5970  147.9870 C   0  0  0  0  0  2  0  0  0  0  0  0
  196.4850  168.5010  146.5290 C   0  0  0  0  0  3  0  0  0  0  0  0
  195.4390  168.4090  147.6250 C   0  0  0  0  0  2  0  0  0  0  0  0
  1 13  1  1  0  0  0
  2  6  1  0  0  0  0
  3  5  1  6  0  0  0
  3 10  1  0  0  0  0
  3 11  1  0  0  0  0
  4 35  1  1  0  0  0
  4  2  1  0  0  0  0
  7  8  2  0  0  0  0
  7  9  1  0  0  0  0
  8 12  1  0  0  0  0
  9  4  1  0  0  0  0
  9  5  2  0  0  0  0
 10  6  1  6  0  0  0
 10 11  1  0  0  0  0
 11  1  1  0  0  0  0
 11 13  1  1  0  0  0
 12  5  1  0  0  0  0
 15 19  1  1  0  0  0
 15 21  1  0  0  0  0
 16 19  1  6  0  0  0
 16 24  1  0  0  0  0
 16  1  1  0  0  0  0
 17 22  1  1  0  0  0
 17 18  1  0  0  0  0
 18 20  1  1  0  0  0
 21 20  1  6  0  0  0
 21 24  1  0  0  0  0
 23 25  1  6  0  0  0
 23 27  1  0  0  0  0
 23 17  1  0  0  0  0
 26 14  1  6  0  0  0
 26 18  1  0  0  0  0
 26 15  1  0  0  0  0
 27 26  1  0  0  0  0
 28 36  2  0  0  0  0
 29 33  1  0  0  0  0
 30 29  2  0  0  0  0
 31 35  2  0  0  0  0
 31 34  1  0  0  0  0
 32 29  1  0  0  0  0
 32 28  1  0  0  0  0
 33 36  1  0  0  0  0
 34 32  2  0  0  0  0
 35 30  1  0  0  0  0
 36 38  1  0  0  0  0
 38 39  1  0  0  0  0
 38 37  1  0  0  0  0
 39 37  1  0  0  0  0
M  END
>  <MODEL>
2

>  <REMARK>
 VINA RESULT:      -9.3      2.764      9.667
  Name = 
  3 active torsions:
  status: ('A' for Active; 'I' for Inactive)
    1  A    between atoms: C_1  and  C_8
    2  A    between atoms: C_4  and  C_34
    3  A    between atoms: C_27  and  C_39
                            x       y       z     vdW  Elec       q    Type
                         _______ _______ _______ _____ _____    ______ ____

>  <TORSDO>
F 3

$$$$
=
 OpenBabel11072409263D

 39 48  0  0  1  0  0  0  0  0999 V2000
  194.2770  176.9940  145.4170 C   0  0  1  0  0  3  0  0  0  0  0  0
  190.0650  175.0490  147.6060 C   0  0  0  0  0  2  0  0  0  0  0  0
  192.1460  176.1720  145.4230 C   0  0  1  0  0  3  0  0  0  0  0  0
  189.5540  174.6140  146.2190 C   0  0  2  0  0  3  0  0  0  0  0  0
  191.7110  174.8250  144.9050 C   0  0  0  0  0  0  0  0  0  0  0  0
  191.5830  175.1770  147.7160 C   0  0  0  0  0  2  0  0  0  0  0  0
  190.5590  172.9480  144.4670 C   0  0  0  0  0  3  0  0  0  0  0  0
  191.6030  172.8560  143.7110 N   0  0  0  0  0  0  0  0  0  0  0  0
  190.6020  174.1770  145.2300 C   0  0  1  0  0  3  0  0  0  0  0  0
  192.0860  176.3710  146.9040 C   0  0  1  0  0  3  0  0  0  0  0  0
  193.4330  176.0190  146.2560 C   0  0  1  0  0  0  0  0  0  0  0  0
  192.4560  174.0250  143.8920 C   0  0  0  0  0  3  0  0  0  0  0  0
  194.2150  177.1910  146.8770 C   0  0  0  0  0  2  0  0  0  0  0  0
  195.1200  174.6000  141.8240 O   0  0  0  0  0  1  0  0  0  0  0  0
  196.9600  175.5150  143.0570 C   0  0  1  0  0  3  0  0  0  0  0  0
  195.5940  176.3550  144.9360 C   0  0  2  0  0  3  0  0  0  0  0  0
  196.7460  172.6440  140.9460 C   0  0  2  0  0  3  0  0  0  0  0  0
  197.1870  173.5030  142.0250 N   0  0  2  0  0  0  0  0  0  0  0  0
  195.9760  176.5980  143.4780 C   0  0  0  0  0  2  0  0  0  0  0  0
  196.8200  173.1110  143.3200 N   0  0  0  0  0  2  0  0  0  0  0  0
  196.9600  174.3640  144.0820 C   0  0  2  0  0  3  0  0  0  0  0  0
  197.6640  171.4430  140.8340 C   0  0  0  0  0  1  0  0  0  0  0  0
  196.8810  173.5130  139.6840 C   0  0  1  0  0  3  0  0  0  0  0  0
  195.5520  174.5650  145.2100 S   0  0  0  0  0  0  0  0  0  0  0  0
  195.6570  173.3420  138.8080 C   0  0  0  0  0  1  0  0  0  0  0  0
  196.5220  174.7590  141.8280 C   0  0  1  0  0  0  0  0  0  0  0  0
  197.0490  175.2870  140.1940 S   0  0  0  0  0  0  0  0  0  0  0  0
  186.0440  178.2240  143.7850 N   0  0  0  0  0  0  0  0  0  0  0  0
  187.6480  176.6960  143.7250 C   0  0  0  0  0  0  0  0  0  0  0  0
  188.5580  175.7770  144.2400 C   0  0  0  0  0  3  0  0  0  0  0  0
  187.7040  176.3360  146.4650 C   0  0  0  0  0  3  0  0  0  0  0  0
  186.8060  177.4070  144.5250 C   0  0  0  0  0  0  0  0  0  0  0  0
  187.4610  177.0290  142.4410 N   0  0  0  0  0  2  0  0  0  0  0  0
  186.8000  177.2590  145.9090 C   0  0  0  0  0  3  0  0  0  0  0  0
  188.5830  175.5940  145.6360 C   0  0  0  0  0  0  0  0  0  0  0  0
  186.4670  177.9550  142.5210 C   0  0  0  0  0  0  0  0  0  0  0  0
  185.5620  177.6490  140.2500 C   0  0  0  0  0  2  0  0  0  0  0  0
  185.9270  178.6620  141.3210 C   0  0  0  0  0  3  0  0  0  0  0  0
  184.4760  178.2700  141.1000 C   0  0  0  0  0  2  0  0  0  0  0  0
  1 11  1  0  0  0  0
  1 13  1  1  0  0  0
  2  6  1  0  0  0  0
  3  5  1  1  0  0  0
  3 11  1  0  0  0  0
  3 10  1  0  0  0  0
  4 35  1  6  0  0  0
  4  2  1  0  0  0  0
  5  9  1  0  0  0  0
  8 12  1  0  0  0  0
  8  7  2  0  0  0  0
  9  7  1  1  0  0  0
  9  4  1  0  0  0  0
 10  6  1  1  0  0  0
 11 13  1  6  0  0  0
 11 10  1  0  0  0  0
 12  5  2  0  0  0  0
 15 19  1  1  0  0  0
 15 21  1  0  0  0  0
 16 19  1  6  0  0  0
 16 24  1  0  0  0  0
 16  1  1  0  0  0  0
 17 22  1  6  0  0  0
 17 18  1  0  0  0  0
 18 20  1  1  0  0  0
 21 20  1  6  0  0  0
 21 24  1  0  0  0  0
 23 25  1  6  0  0  0
 23 27  1  0  0  0  0
 23 17  1  0  0  0  0
 26 14  1  1  0  0  0
 26 18  1  0  0  0  0
 26 15  1  0  0  0  0
 27 26  1  0  0  0  0
 28 32  1  0  0  0  0
 29 30  2  0  0  0  0
 29 32  1  0  0  0  0
 30 35  1  0  0  0  0
 32 34  2  0  0  0  0
 33 36  1  0  0  0  0
 33 29  1  0  0  0  0
 34 31  1  0  0  0  0
 35 31  2  0  0  0  0
 36 28  2  0  0  0  0
 37 39  1  0  0  0  0
 37 38  1  0  0  0  0
 38 36  1  0  0  0  0
 39 38  1  0  0  0  0
M  END
>  <MODEL>
3

>  <REMARK>
 VINA RESULT:      -9.3      2.372      2.875
  Name = 
  3 active torsions:
  status: ('A' for Active; 'I' for Inactive)
    1  A    between atoms: C_1  and  C_8
    2  A    between atoms: C_4  and  C_34
    3  A    between atoms: C_27  and  C_39
                            x       y       z     vdW  Elec       q    Type
                         _______ _______ _______ _____ _____    ______ ____

>  <TORSDO>
F 3

$$$$
=
 OpenBabel11072409263D

 39 48  0  0  1  0  0  0  0  0999 V2000
  190.5250  175.2970  143.8810 C   0  0  1  0  0  3  0  0  0  0  0  0
  195.1600  175.5720  146.0630 C   0  0  0  0  0  2  0  0  0  0  0  0
  192.7750  174.9240  144.0010 C   0  0  1  0  0  3  0  0  0  0  0  0
  195.8080  175.1920  144.7180 C   0  0  2  0  0  3  0  0  0  0  0  0
  193.8360  175.6140  143.1820 C   0  0  0  0  0  0  0  0  0  0  0  0
  193.7940  176.2450  145.9460 C   0  0  0  0  0  2  0  0  0  0  0  0
  195.7850  176.4090  142.3990 C   0  0  0  0  0  3  0  0  0  0  0  0
  194.9290  176.7280  141.4840 N   0  0  0  0  0  0  0  0  0  0  0  0
  195.1240  175.7080  143.4800 C   0  0  1  0  0  3  0  0  0  0  0  0
  192.7400  175.2500  145.4600 C   0  0  1  0  0  3  0  0  0  0  0  0
  191.7590  175.9600  144.5160 C   0  0  1  0  0  0  0  0  0  0  0  0
  193.5980  176.2660  141.8630 C   0  0  0  0  0  3  0  0  0  0  0  0
  190.4920  175.6150  145.3200 C   0  0  0  0  0  2  0  0  0  0  0  0
  186.5250  177.0180  144.5080 O   0  0  0  0  0  1  0  0  0  0  0  0
  187.9670  178.0160  142.8740 C   0  0  1  0  0  3  0  0  0  0  0  0
  189.7200  176.2820  143.0120 C   0  0  2  0  0  3  0  0  0  0  0  0
  184.4070  177.9460  143.1320 C   0  0  2  0  0  3  0  0  0  0  0  0
  185.7210  177.9880  142.5260 N   0  0  2  0  0  0  0  0  0  0  0  0
  189.1040  177.4780  143.7320 C   0  0  0  0  0  2  0  0  0  0  0  0
  186.1230  176.8380  141.8340 N   0  0  0  0  0  2  0  0  0  0  0  0
  187.5870  176.9930  141.7850 C   0  0  2  0  0  3  0  0  0  0  0  0
  183.3450  178.2150  142.0850 C   0  0  0  0  0  1  0  0  0  0  0  0
  184.4190  179.0920  144.1580 C   0  0  1  0  0  3  0  0  0  0  0  0
  188.3910  175.4060  142.1470 S   0  0  0  0  0  0  0  0  0  0  0  0
  183.7920  178.6280  145.4560 C   0  0  0  0  0  1  0  0  0  0  0  0
  186.6540  178.1000  143.6110 C   0  0  1  0  0  0  0  0  0  0  0  0
  186.1740  179.6110  144.4550 S   0  0  0  0  0  0  0  0  0  0  0  0
  196.9410  169.7160  144.6750 N   0  0  0  0  0  0  0  0  0  0  0  0
  196.1990  171.5640  145.6490 C   0  0  0  0  0  0  0  0  0  0  0  0
  195.8880  172.9160  145.7550 C   0  0  0  0  0  3  0  0  0  0  0  0
  196.6770  173.1700  143.4510 C   0  0  0  0  0  3  0  0  0  0  0  0
  196.7250  171.0290  144.5120 C   0  0  0  0  0  0  0  0  0  0  0  0
  196.0580  170.6160  146.5850 N   0  0  0  0  0  2  0  0  0  0  0  0
  196.9830  171.8000  143.3820 C   0  0  0  0  0  3  0  0  0  0  0  0
  196.1300  173.7320  144.6330 C   0  0  0  0  0  0  0  0  0  0  0  0
  196.5110  169.5040  145.9470 C   0  0  0  0  0  0  0  0  0  0  0  0
  197.2270  168.3120  147.9810 C   0  0  0  0  0  2  0  0  0  0  0  0
  196.5850  168.1680  146.6130 C   0  0  0  0  0  3  0  0  0  0  0  0
  195.7260  168.1660  147.8640 C   0  0  0  0  0  2  0  0  0  0  0  0
  1 11  1  0  0  0  0
  1 13  1  1  0  0  0
  3  5  1  6  0  0  0
  3 11  1  0  0  0  0
  3 10  1  0  0  0  0
  4 35  1  6  0  0  0
  4  2  1  0  0  0  0
  5  9  1  0  0  0  0
  6  2  1  0  0  0  0
  8 12  1  0  0  0  0
  8  7  2  0  0  0  0
  9  7  1  1  0  0  0
  9  4  1  0  0  0  0
 10  6  1  6  0  0  0
 11 13  1  1  0  0  0
 11 10  1  0  0  0  0
 12  5  2  0  0  0  0
 15 26  1  0  0  0  0
 15 19  1  1  0  0  0
 16 19  1  1  0  0  0
 16  1  1  0  0  0  0
 17 22  1  6  0  0  0
 17 23  1  0  0  0  0
 18 20  1  1  0  0  0
 18 17  1  0  0  0  0
 18 26  1  0  0  0  0
 21 20  1  1  0  0  0
 21 24  1  0  0  0  0
 21 15  1  0  0  0  0
 23 27  1  0  0  0  0
 23 25  1  1  0  0  0
 24 16  1  0  0  0  0
 26 27  1  0  0  0  0
 26 14  1  1  0  0  0
 28 36  2  0  0  0  0
 29 30  1  0  0  0  0
 29 33  1  0  0  0  0
 31 35  1  0  0  0  0
 32 28  1  0  0  0  0
 32 29  2  0  0  0  0
 34 31  2  0  0  0  0
 34 32  1  0  0  0  0
 35 30  2  0  0  0  0
 36 33  1  0  0  0  0
 36 38  1  0  0  0  0
 38 39  1  0  0  0  0
 38 37  1  0  0  0  0
 39 37  1  0  0  0  0
M  END
>  <MODEL>
4

>  <REMARK>
 VINA RESULT:      -9.2      3.402     10.489
  Name = 
  3 active torsions:
  status: ('A' for Active; 'I' for Inactive)
    1  A    between atoms: C_1  and  C_8
    2  A    between atoms: C_4  and  C_34
    3  A    between atoms: C_27  and  C_39
                            x       y       z     vdW  Elec       q    Type
                         _______ _______ _______ _____ _____    ______ ____

>  <TORSDO>
F 3

$$$$
=
 OpenBabel11072409263D

 39 48  0  0  1  0  0  0  0  0999 V2000
  190.3760  172.8140  142.5630 C   0  0  1  0  0  3  0  0  0  0  0  0
  190.1080  177.8340  143.5860 C   0  0  0  0  0  2  0  0  0  0  0  0
  189.4640  174.6820  143.5100 C   0  0  1  0  0  3  0  0  0  0  0  0
  189.1180  177.5410  144.7290 C   0  0  2  0  0  3  0  0  0  0  0  0
  189.5030  175.0470  144.9710 C   0  0  0  0  0  0  0  0  0  0  0  0
  191.0460  176.6790  143.2410 C   0  0  0  0  0  2  0  0  0  0  0  0
  189.4040  176.1460  146.9280 C   0  0  0  0  0  3  0  0  0  0  0  0
  189.6050  174.9170  147.2720 N   0  0  0  0  0  0  0  0  0  0  0  0
  189.3360  176.2570  145.4850 C   0  0  0  0  0  0  0  0  0  0  0  0
  190.2760  175.5320  142.5860 C   0  0  1  0  0  3  0  0  0  0  0  0
  190.8530  174.1910  143.0590 C   0  0  1  0  0  0  0  0  0  0  0  0
  189.6910  174.0730  146.0850 C   0  0  0  0  0  2  0  0  0  0  0  0
  191.1740  173.6550  141.6520 C   0  0  0  0  0  2  0  0  0  0  0  0
  194.7050  172.3950  143.2290 O   0  0  0  0  0  1  0  0  0  0  0  0
  193.2130  170.9170  144.3830 C   0  0  1  0  0  3  0  0  0  0  0  0
  191.1770  171.6610  143.1980 C   0  0  2  0  0  3  0  0  0  0  0  0
  196.6230  170.5170  143.4070 C   0  0  2  0  0  3  0  0  0  0  0  0
  195.2550  170.1670  143.7260 N   0  0  2  0  0  0  0  0  0  0  0  0
  192.2000  172.0470  144.2630 C   0  0  0  0  0  2  0  0  0  0  0  0
  194.4520  169.7590  142.6530 N   0  0  0  0  0  2  0  0  0  0  0  0
  193.0910  169.9590  143.1810 C   0  0  2  0  0  3  0  0  0  0  0  0
  197.4600  169.2600  143.2680 C   0  0  0  0  0  1  0  0  0  0  0  0
  197.1070  171.3250  144.6230 C   0  0  1  0  0  3  0  0  0  0  0  0
  192.0380  170.7190  141.9120 S   0  0  0  0  0  0  0  0  0  0  0  0
  197.8800  172.5420  144.1580 C   0  0  0  0  0  1  0  0  0  0  0  0
  194.6380  171.3740  144.2000 C   0  0  1  0  0  0  0  0  0  0  0  0
  195.6340  171.8540  145.6150 S   0  0  0  0  0  0  0  0  0  0  0  0
  183.8850  178.2910  142.9070 N   0  0  0  0  0  0  0  0  0  0  0  0
  186.0690  178.0940  142.5880 C   0  0  0  0  0  0  0  0  0  0  0  0
  187.4020  177.9180  142.9470 C   0  0  0  0  0  3  0  0  0  0  0  0
  186.6440  177.7290  145.2670 C   0  0  0  0  0  3  0  0  0  0  0  0
  185.0660  178.0930  143.5090 C   0  0  0  0  0  0  0  0  0  0  0  0
  185.5730  178.2930  141.3600 N   0  0  0  0  0  2  0  0  0  0  0  0
  185.3080  177.9140  144.8680 C   0  0  0  0  0  3  0  0  0  0  0  0
  187.6920  177.7300  144.3120 C   0  0  0  0  0  0  0  0  0  0  0  0
  184.2370  178.3970  141.5980 C   0  0  0  0  0  0  0  0  0  0  0  0
  182.6110  177.3620  140.0640 C   0  0  0  0  0  2  0  0  0  0  0  0
  183.2450  178.6660  140.5130 C   0  0  0  0  0  3  0  0  0  0  0  0
  181.8520  178.2910  140.9840 C   0  0  0  0  0  2  0  0  0  0  0  0
  1 13  1  6  0  0  0
  1 11  1  0  0  0  0
  1 16  1  0  0  0  0
  2  4  1  0  0  0  0
  3  5  1  1  0  0  0
  4 35  1  6  0  0  0
  4  9  1  0  0  0  0
  5  9  2  0  0  0  0
  5 12  1  0  0  0  0
  6  2  1  0  0  0  0
  7  8  2  0  0  0  0
  9  7  1  0  0  0  0
 10 11  1  0  0  0  0
 10  6  1  1  0  0  0
 10  3  1  0  0  0  0
 11 13  1  6  0  0  0
 11  3  1  0  0  0  0
 12  8  1  0  0  0  0
 15 19  1  6  0  0  0
 16 19  1  1  0  0  0
 17 22  1  1  0  0  0
 17 18  1  0  0  0  0
 17 23  1  0  0  0  0
 18 20  1  6  0  0  0
 18 26  1  0  0  0  0
 20 21  1  0  0  0  0
 21 24  1  6  0  0  0
 21 15  1  0  0  0  0
 23 25  1  6  0  0  0
 23 27  1  0  0  0  0
 24 16  1  0  0  0  0
 26 14  1  6  0  0  0
 26 15  1  0  0  0  0
 26 27  1  0  0  0  0
 28 32  1  0  0  0  0
 29 30  2  0  0  0  0
 29 32  1  0  0  0  0
 30 35  1  0  0  0  0
 32 34  2  0  0  0  0
 33 36  1  0  0  0  0
 33 29  1  0  0  0  0
 34 31  1  0  0  0  0
 35 31  2  0  0  0  0
 36 28  2  0  0  0  0
 37 38  1  0  0  0  0
 37 39  1  0  0  0  0
 38 39  1  0  0  0  0
 38 36  1  0  0  0  0
M  END
>  <MODEL>
5

>  <REMARK>
 VINA RESULT:      -9.2      2.325      3.640
  Name = 
  3 active torsions:
  status: ('A' for Active; 'I' for Inactive)
    1  A    between atoms: C_1  and  C_8
    2  A    between atoms: C_4  and  C_34
    3  A    between atoms: C_27  and  C_39
                            x       y       z     vdW  Elec       q    Type
                         _______ _______ _______ _____ _____    ______ ____

>  <TORSDO>
F 3

$$$$
=
 OpenBabel11072409263D

 39 48  0  0  1  0  0  0  0  0999 V2000
  188.3650  174.0770  142.3640 C   0  0  1  0  0  3  0  0  0  0  0  0
  187.1580  179.0110  141.6420 C   0  0  0  0  0  2  0  0  0  0  0  0
  187.0430  175.9290  142.5640 C   0  0  1  0  0  3  0  0  0  0  0  0
  186.0790  178.9000  142.7360 C   0  0  2  0  0  3  0  0  0  0  0  0
  186.8210  176.7310  143.8200 C   0  0  0  0  0  0  0  0  0  0  0  0
  188.3070  178.0140  141.7740 C   0  0  0  0  0  2  0  0  0  0  0  0
  186.2770  178.3420  145.2880 C   0  0  0  0  0  3  0  0  0  0  0  0
  186.6220  177.3460  146.0340 N   0  0  0  0  0  0  0  0  0  0  0  0
  186.3930  177.9840  143.8890 C   0  0  0  0  0  0  0  0  0  0  0  0
  187.8290  176.5920  141.4770 C   0  0  1  0  0  3  0  0  0  0  0  0
  188.5420  175.6050  142.4120 C   0  0  1  0  0  0  0  0  0  0  0  0
  187.0060  176.2090  145.2040 C   0  0  0  0  0  2  0  0  0  0  0  0
  189.1370  174.7320  141.2920 C   0  0  0  0  0  2  0  0  0  0  0  0
  192.1120  175.3580  144.2800 O   0  0  0  0  0  1  0  0  0  0  0  0
  190.9000  173.5240  145.2320 C   0  0  1  0  0  3  0  0  0  0  0  0
  189.2440  173.3590  143.4070 C   0  0  2  0  0  3  0  0  0  0  0  0
  194.3700  174.3520  145.3430 C   0  0  2  0  0  3  0  0  0  0  0  0
  193.1700  173.5420  145.3290 N   0  0  2  0  0  0  0  0  0  0  0  0
  189.6710  174.1820  144.6190 C   0  0  0  0  0  2  0  0  0  0  0  0
  192.9480  172.7820  144.1730 N   0  0  0  0  0  2  0  0  0  0  0  0
  191.5040  172.4990  144.2520 C   0  0  2  0  0  3  0  0  0  0  0  0
  195.5700  173.4920  145.6880 C   0  0  0  0  0  1  0  0  0  0  0  0
  194.1310  175.3740  146.4670 C   0  0  1  0  0  3  0  0  0  0  0  0
  190.7400  172.7100  142.6180 S   0  0  0  0  0  0  0  0  0  0  0  0
  194.5660  176.7520  146.0120 C   0  0  0  0  0  1  0  0  0  0  0  0
  192.0700  174.4640  145.3700 C   0  0  1  0  0  0  0  0  0  0  0  0
  192.3260  175.3900  146.8880 S   0  0  0  0  0  0  0  0  0  0  0  0
  180.8680  178.1140  140.8650 N   0  0  0  0  0  0  0  0  0  0  0  0
  182.3310  178.7890  142.3870 C   0  0  0  0  0  0  0  0  0  0  0  0
  183.5880  179.0200  142.9380 C   0  0  0  0  0  3  0  0  0  0  0  0
  184.5420  178.0920  140.8830 C   0  0  0  0  0  3  0  0  0  0  0  0
  182.1720  178.2370  141.1530 C   0  0  0  0  0  0  0  0  0  0  0  0
  181.1370  179.0410  142.9400 N   0  0  0  0  0  2  0  0  0  0  0  0
  183.2560  177.8690  140.3610 C   0  0  0  0  0  3  0  0  0  0  0  0
  184.7130  178.6660  142.1690 C   0  0  0  0  0  0  0  0  0  0  0  0
  180.2730  178.6250  141.9760 C   0  0  0  0  0  0  0  0  0  0  0  0
  178.3110  177.3950  142.8160 C   0  0  0  0  0  2  0  0  0  0  0  0
  178.7900  178.6710  142.1480 C   0  0  0  0  0  3  0  0  0  0  0  0
  178.4410  178.6650  143.6260 C   0  0  0  0  0  2  0  0  0  0  0  0
  1 13  1  6  0  0  0
  1 11  1  0  0  0  0
  1 16  1  0  0  0  0
  2  6  1  0  0  0  0
  2  4  1  0  0  0  0
  3  5  1  1  0  0  0
  4 35  1  6  0  0  0
  4  9  1  0  0  0  0
  5  9  2  0  0  0  0
  5 12  1  0  0  0  0
  7  8  2  0  0  0  0
  9  7  1  0  0  0  0
 10  6  1  1  0  0  0
 10 11  1  0  0  0  0
 10  3  1  0  0  0  0
 11 13  1  6  0  0  0
 11  3  1  0  0  0  0
 12  8  1  0  0  0  0
 15 19  1  6  0  0  0
 15 26  1  0  0  0  0
 16 19  1  1  0  0  0
 17 22  1  1  0  0  0
 17 23  1  0  0  0  0
 18 20  1  6  0  0  0
 18 17  1  0  0  0  0
 18 26  1  0  0  0  0
 20 21  1  0  0  0  0
 21 24  1  6  0  0  0
 21 15  1  0  0  0  0
 23 25  1  6  0  0  0
 23 27  1  0  0  0  0
 24 16  1  0  0  0  0
 26 14  1  6  0  0  0
 26 27  1  0  0  0  0
 28 32  1  0  0  0  0
 28 36  2  0  0  0  0
 29 30  1  0  0  0  0
 29 33  1  0  0  0  0
 31 35  1  0  0  0  0
 32 29  2  0  0  0  0
 34 31  2  0  0  0  0
 34 32  1  0  0  0  0
 35 30  2  0  0  0  0
 36 38  1  0  0  0  0
 36 33  1  0  0  0  0
 37 39  1  0  0  0  0
 38 37  1  0  0  0  0
 38 39  1  0  0  0  0
M  END
>  <MODEL>
6

>  <REMARK>
 VINA RESULT:      -9.2      3.106      6.292
  Name = 
  3 active torsions:
  status: ('A' for Active; 'I' for Inactive)
    1  A    between atoms: C_1  and  C_8
    2  A    between atoms: C_4  and  C_34
    3  A    between atoms: C_27  and  C_39
                            x       y       z     vdW  Elec       q    Type
                         _______ _______ _______ _____ _____    ______ ____

>  <TORSDO>
F 3

$$$$
=
 OpenBabel11072409263D

 39 48  0  0  1  0  0  0  0  0999 V2000
  194.8710  176.1720  144.8480 C   0  0  1  0  0  3  0  0  0  0  0  0
  190.4130  175.0470  147.1250 C   0  0  0  0  0  2  0  0  0  0  0  0
  192.6770  175.5370  144.8910 C   0  0  1  0  0  3  0  0  0  0  0  0
  189.9260  174.3790  145.8250 C   0  0  2  0  0  3  0  0  0  0  0  0
  192.1480  174.1500  144.6270 C   0  0  0  0  0  0  0  0  0  0  0  0
  191.9310  175.0760  147.2980 C   0  0  0  0  0  2  0  0  0  0  0  0
  190.8550  172.3180  144.5040 C   0  0  0  0  0  3  0  0  0  0  0  0
  191.9180  171.9930  143.8450 N   0  0  0  0  0  0  0  0  0  0  0  0
  190.9730  173.6710  145.0080 C   0  0  1  0  0  3  0  0  0  0  0  0
  192.5720  176.0370  146.2960 C   0  0  1  0  0  3  0  0  0  0  0  0
  193.9090  175.4570  145.8120 C   0  0  1  0  0  0  0  0  0  0  0  0
  192.8620  173.1050  143.8400 C   0  0  0  0  0  3  0  0  0  0  0  0
  194.7640  176.6670  146.2330 C   0  0  0  0  0  2  0  0  0  0  0  0
  195.5370  172.7690  142.1410 O   0  0  0  0  0  1  0  0  0  0  0  0
  197.4390  173.9110  143.0460 C   0  0  1  0  0  3  0  0  0  0  0  0
  196.1450  175.3480  144.5830 C   0  0  2  0  0  3  0  0  0  0  0  0
  197.0460  170.5560  141.8930 C   0  0  2  0  0  3  0  0  0  0  0  0
  197.5460  171.6730  142.6660 N   0  0  2  0  0  0  0  0  0  0  0  0
  196.5190  175.1220  143.1210 C   0  0  0  0  0  2  0  0  0  0  0  0
  197.1780  171.7070  144.0180 N   0  0  0  0  0  2  0  0  0  0  0  0
  197.3940  173.1220  144.3700 C   0  0  2  0  0  3  0  0  0  0  0  0
  197.8980  169.3280  142.1480 C   0  0  0  0  0  1  0  0  0  0  0  0
  197.2070  170.9980  140.4290 C   0  0  1  0  0  3  0  0  0  0  0  0
  196.0140  173.7270  145.3820 S   0  0  0  0  0  0  0  0  0  0  0  0
  195.9640  170.6380  139.6420 C   0  0  0  0  0  1  0  0  0  0  0  0
  196.9450  172.8470  142.0990 C   0  0  1  0  0  0  0  0  0  0  0  0
  197.4750  172.8310  140.3830 S   0  0  0  0  0  0  0  0  0  0  0  0
  186.6290  177.8950  142.9900 N   0  0  0  0  0  0  0  0  0  0  0  0
  187.4900  177.0870  144.8650 C   0  0  0  0  0  0  0  0  0  0  0  0
  188.2770  176.2540  145.6550 C   0  0  0  0  0  3  0  0  0  0  0  0
  189.0470  175.1950  143.5870 C   0  0  0  0  0  3  0  0  0  0  0  0
  187.4710  176.9900  143.5070 C   0  0  0  0  0  0  0  0  0  0  0  0
  186.6620  178.0580  145.2730 N   0  0  0  0  0  2  0  0  0  0  0  0
  188.2370  176.0520  142.8210 C   0  0  0  0  0  3  0  0  0  0  0  0
  189.0710  175.2920  145.0010 C   0  0  0  0  0  0  0  0  0  0  0  0
  186.1660  178.5320  144.0990 C   0  0  0  0  0  0  0  0  0  0  0  0
  183.7970  179.0460  143.6570 C   0  0  0  0  0  2  0  0  0  0  0  0
  185.1480  179.6250  144.0370 C   0  0  0  0  0  3  0  0  0  0  0  0
  184.0850  179.4010  145.0980 C   0  0  0  0  0  2  0  0  0  0  0  0
  1 11  1  0  0  0  0
  1 13  1  1  0  0  0
  2  6  1  0  0  0  0
  3  5  1  1  0  0  0
  3 11  1  0  0  0  0
  3 10  1  0  0  0  0
  4 35  1  6  0  0  0
  4  2  1  0  0  0  0
  5  9  1  0  0  0  0
  8  7  2  0  0  0  0
  9  7  1  1  0  0  0
  9  4  1  0  0  0  0
 10  6  1  1  0  0  0
 11 13  1  6  0  0  0
 11 10  1  0  0  0  0
 12  8  1  0  0  0  0
 12  5  2  0  0  0  0
 15 19  1  1  0  0  0
 15 21  1  0  0  0  0
 16 19  1  6  0  0  0
 16  1  1  0  0  0  0
 16 24  1  0  0  0  0
 17 22  1  6  0  0  0
 17 18  1  0  0  0  0
 18 20  1  1  0  0  0
 21 20  1  6  0  0  0
 21 24  1  0  0  0  0
 23 25  1  6  0  0  0
 23 17  1  0  0  0  0
 26 14  1  1  0  0  0
 26 18  1  0  0  0  0
 26 15  1  0  0  0  0
 27 23  1  0  0  0  0
 27 26  1  0  0  0  0
 28 32  1  0  0  0  0
 28 36  2  0  0  0  0
 29 33  1  0  0  0  0
 29 30  1  0  0  0  0
 31 35  1  0  0  0  0
 32 29  2  0  0  0  0
 34 32  1  0  0  0  0
 34 31  2  0  0  0  0
 35 30  2  0  0  0  0
 36 33  1  0  0  0  0
 37 38  1  0  0  0  0
 37 39  1  0  0  0  0
 38 36  1  0  0  0  0
 38 39  1  0  0  0  0
M  END
>  <MODEL>
7

>  <REMARK>
 VINA RESULT:      -8.8      2.076      2.593
  Name = 
  3 active torsions:
  status: ('A' for Active; 'I' for Inactive)
    1  A    between atoms: C_1  and  C_8
    2  A    between atoms: C_4  and  C_34
    3  A    between atoms: C_27  and  C_39
                            x       y       z     vdW  Elec       q    Type
                         _______ _______ _______ _____ _____    ______ ____

>  <TORSDO>
F 3

$$$$
=
 OpenBabel11072409263D

 39 48  0  0  1  0  0  0  0  0999 V2000
  189.3310  173.1050  144.3950 C   0  0  1  0  0  3  0  0  0  0  0  0
  187.8160  176.1090  140.5210 C   0  0  0  0  0  2  0  0  0  0  0  0
  188.5690  175.0470  143.4650 C   0  0  1  0  0  3  0  0  0  0  0  0
  187.9710  177.3440  141.4280 C   0  0  2  0  0  3  0  0  0  0  0  0
  189.3600  176.3170  143.2830 C   0  0  0  0  0  0  0  0  0  0  0  0
  188.6920  174.9180  140.9090 C   0  0  0  0  0  2  0  0  0  0  0  0
  190.0770  178.3410  142.6240 C   0  0  0  0  0  3  0  0  0  0  0  0
  190.9100  178.0030  143.5530 N   0  0  0  0  0  0  0  0  0  0  0  0
  189.0920  177.2970  142.4320 C   0  0  0  0  0  0  0  0  0  0  0  0
  188.2120  174.2980  142.2210 C   0  0  1  0  0  3  0  0  0  0  0  0
  189.4230  173.8360  143.0440 C   0  0  1  0  0  0  0  0  0  0  0  0
  190.5610  176.6900  144.0840 C   0  0  0  0  0  2  0  0  0  0  0  0
  188.9760  172.3680  143.1690 C   0  0  0  0  0  2  0  0  0  0  0  0
  193.3030  174.6910  143.3640 O   0  0  0  0  0  1  0  0  0  0  0  0
  193.0570  173.4210  145.3810 C   0  0  1  0  0  3  0  0  0  0  0  0
  190.7210  172.7430  144.9530 C   0  0  2  0  0  3  0  0  0  0  0  0
  195.8910  173.9590  143.2790 C   0  0  2  0  0  3  0  0  0  0  0  0
  194.9960  173.2950  144.2020 N   0  0  2  0  0  0  0  0  0  0  0  0
  191.6150  173.9090  145.3640 C   0  0  0  0  0  2  0  0  0  0  0  0
  194.2940  172.1910  143.7010 N   0  0  0  0  0  2  0  0  0  0  0  0
  193.1740  172.0690  144.6500 C   0  0  2  0  0  3  0  0  0  0  0  0
  197.1930  173.1890  143.1760 C   0  0  0  0  0  1  0  0  0  0  0  0
  196.1560  175.3320  143.9200 C   0  0  1  0  0  3  0  0  0  0  0  0
  191.6310  171.7390  143.7500 S   0  0  0  0  0  0  0  0  0  0  0  0
  196.0850  176.4160  142.8640 C   0  0  0  0  0  1  0  0  0  0  0  0
  193.9770  174.2540  144.5240 C   0  0  1  0  0  0  0  0  0  0  0  0
  194.8780  175.6390  145.2270 S   0  0  0  0  0  0  0  0  0  0  0  0
  182.9930  178.9110  143.4390 N   0  0  0  0  0  0  0  0  0  0  0  0
  184.3140  178.1500  141.8300 C   0  0  0  0  0  0  0  0  0  0  0  0
  185.5080  177.7440  141.2410 C   0  0  0  0  0  3  0  0  0  0  0  0
  186.5990  178.2080  143.3820 C   0  0  0  0  0  3  0  0  0  0  0  0
  184.2500  178.5680  143.1240 C   0  0  0  0  0  0  0  0  0  0  0  0
  183.1010  178.2080  141.2630 N   0  0  0  0  0  2  0  0  0  0  0  0
  185.3750  178.6150  143.9430 C   0  0  0  0  0  3  0  0  0  0  0  0
  186.6710  177.7730  142.0350 C   0  0  0  0  0  0  0  0  0  0  0  0
  182.3240  178.6660  142.2810 C   0  0  0  0  0  0  0  0  0  0  0  0
  180.6310  179.7900  140.8880 C   0  0  0  0  0  2  0  0  0  0  0  0
  180.8630  178.9350  142.1210 C   0  0  0  0  0  3  0  0  0  0  0  0
  180.3600  178.3040  140.8340 C   0  0  0  0  0  2  0  0  0  0  0  0
  1 13  1  6  0  0  0
  1 16  1  0  0  0  0
  2  6  1  0  0  0  0
  2  4  1  0  0  0  0
  3  5  1  6  0  0  0
  4 35  1  1  0  0  0
  4  9  1  0  0  0  0
  5 12  1  0  0  0  0
  7  8  2  0  0  0  0
  8 12  1  0  0  0  0
  9  7  1  0  0  0  0
  9  5  2  0  0  0  0
 10  6  1  6  0  0  0
 10 11  1  0  0  0  0
 10  3  1  0  0  0  0
 11 13  1  1  0  0  0
 11  3  1  0  0  0  0
 11  1  1  0  0  0  0
 15 19  1  6  0  0  0
 16 19  1  6  0  0  0
 17 22  1  1  0  0  0
 17 23  1  0  0  0  0
 17 18  1  0  0  0  0
 18 20  1  6  0  0  0
 18 26  1  0  0  0  0
 21 20  1  6  0  0  0
 21 15  1  0  0  0  0
 23 25  1  6  0  0  0
 23 27  1  0  0  0  0
 24 21  1  0  0  0  0
 24 16  1  0  0  0  0
 26 14  1  6  0  0  0
 26 27  1  0  0  0  0
 26 15  1  0  0  0  0
 29 32  1  0  0  0  0
 30 29  2  0  0  0  0
 30 35  1  0  0  0  0
 31 34  1  0  0  0  0
 32 28  1  0  0  0  0
 32 34  2  0  0  0  0
 33 29  1  0  0  0  0
 33 36  1  0  0  0  0
 35 31  2  0  0  0  0
 36 28  2  0  0  0  0
 37 38  1  0  0  0  0
 38 36  1  0  0  0  0
 39 37  1  0  0  0  0
 39 38  1  0  0  0  0
M  END
>  <MODEL>
8

>  <REMARK>
 VINA RESULT:      -8.5      2.615      5.077
  Name = 
  3 active torsions:
  status: ('A' for Active; 'I' for Inactive)
    1  A    between atoms: C_1  and  C_8
    2  A    between atoms: C_4  and  C_34
    3  A    between atoms: C_27  and  C_39
                            x       y       z     vdW  Elec       q    Type
                         _______ _______ _______ _____ _____    ______ ____

>  <TORSDO>
F 3

$$$$
=
 OpenBabel11072409263D

 39 48  0  0  1  0  0  0  0  0999 V2000
  188.2730  173.2220  142.1250 C   0  0  1  0  0  3  0  0  0  0  0  0
  188.1030  178.3420  141.8440 C   0  0  0  0  0  2  0  0  0  0  0  0
  187.5810  175.3030  142.7650 C   0  0  1  0  0  3  0  0  0  0  0  0
  187.4710  178.3910  143.2470 C   0  0  2  0  0  3  0  0  0  0  0  0
  187.9990  176.0330  144.0150 C   0  0  0  0  0  0  0  0  0  0  0  0
  188.9560  177.1040  141.5700 C   0  0  0  0  0  2  0  0  0  0  0  0
  188.3900  177.6050  145.5710 C   0  0  0  0  0  3  0  0  0  0  0  0
  188.7230  176.5010  146.1540 N   0  0  0  0  0  0  0  0  0  0  0  0
  187.9320  177.3410  144.2220 C   0  0  0  0  0  0  0  0  0  0  0  0
  188.0810  175.8550  141.4680 C   0  0  1  0  0  3  0  0  0  0  0  0
  188.8130  174.6620  142.0990 C   0  0  1  0  0  0  0  0  0  0  0  0
  188.5170  175.3760  145.2490 C   0  0  0  0  0  2  0  0  0  0  0  0
  188.7630  173.7680  140.8460 C   0  0  0  0  0  2  0  0  0  0  0  0
  192.5690  173.6560  142.9650 O   0  0  0  0  0  1  0  0  0  0  0  0
  191.3500  171.9100  144.0650 C   0  0  1  0  0  3  0  0  0  0  0  0
  189.2570  172.2450  142.7970 C   0  0  2  0  0  3  0  0  0  0  0  0
  194.8090  172.1890  143.2280 C   0  0  2  0  0  3  0  0  0  0  0  0
  193.5250  171.5760  143.4940 N   0  0  2  0  0  0  0  0  0  0  0  0
  190.1420  172.8210  143.8990 C   0  0  0  0  0  2  0  0  0  0  0  0
  192.8600  171.0240  142.3910 N   0  0  0  0  0  2  0  0  0  0  0  0
  191.4660  170.9510  142.8640 C   0  0  2  0  0  3  0  0  0  0  0  0
  195.8800  171.1210  143.1290 C   0  0  0  0  0  1  0  0  0  0  0  0
  195.0770  173.0720  144.4580 C   0  0  1  0  0  3  0  0  0  0  0  0
  190.3370  171.4950  141.5500 S   0  0  0  0  0  0  0  0  0  0  0  0
  195.6140  174.4180  144.0190 C   0  0  0  0  0  1  0  0  0  0  0  0
  192.6650  172.6380  143.9370 C   0  0  1  0  0  0  0  0  0  0  0  0
  193.4900  173.2990  145.3890 S   0  0  0  0  0  0  0  0  0  0  0  0
  181.9130  178.7980  142.7810 N   0  0  0  0  0  0  0  0  0  0  0  0
  183.9280  178.3560  141.9700 C   0  0  0  0  0  0  0  0  0  0  0  0
  185.3140  178.2290  141.9900 C   0  0  0  0  0  3  0  0  0  0  0  0
  185.2390  178.9220  144.3360 C   0  0  0  0  0  3  0  0  0  0  0  0
  183.2220  178.7460  143.0660 C   0  0  0  0  0  0  0  0  0  0  0  0
  183.1020  178.1420  140.9380 N   0  0  0  0  0  2  0  0  0  0  0  0
  183.8390  179.0430  144.2780 C   0  0  0  0  0  3  0  0  0  0  0  0
  185.9790  178.5160  143.1970 C   0  0  0  0  0  0  0  0  0  0  0  0
  181.8830  178.4120  141.4770 C   0  0  0  0  0  0  0  0  0  0  0  0
  179.5300  177.6790  141.5050 C   0  0  0  0  0  2  0  0  0  0  0  0
  180.6180  178.3470  140.6830 C   0  0  0  0  0  3  0  0  0  0  0  0
  179.5430  179.1830  141.3540 C   0  0  0  0  0  2  0  0  0  0  0  0
  1 13  1  6  0  0  0
  1 16  1  0  0  0  0
  2  4  1  0  0  0  0
  3  5  1  1  0  0  0
  4 35  1  6  0  0  0
  4  9  1  0  0  0  0
  5  9  2  0  0  0  0
  5 12  1  0  0  0  0
  6  2  1  0  0  0  0
  7  8  2  0  0  0  0
  9  7  1  0  0  0  0
 10  6  1  1  0  0  0
 10 11  1  0  0  0  0
 10  3  1  0  0  0  0
 11 13  1  6  0  0  0
 11  1  1  0  0  0  0
 11  3  1  0  0  0  0
 12  8  1  0  0  0  0
 15 19  1  6  0  0  0
 16 19  1  1  0  0  0
 17 22  1  1  0  0  0
 17 18  1  0  0  0  0
 17 23  1  0  0  0  0
 18 20  1  6  0  0  0
 18 26  1  0  0  0  0
 20 21  1  0  0  0  0
 21 24  1  6  0  0  0
 21 15  1  0  0  0  0
 23 25  1  6  0  0  0
 23 27  1  0  0  0  0
 24 16  1  0  0  0  0
 26 14  1  6  0  0  0
 26 15  1  0  0  0  0
 26 27  1  0  0  0  0
 28 32  1  0  0  0  0
 29 30  2  0  0  0  0
 29 32  1  0  0  0  0
 30 35  1  0  0  0  0
 32 34  2  0  0  0  0
 33 36  1  0  0  0  0
 33 29  1  0  0  0  0
 34 31  1  0  0  0  0
 35 31  2  0  0  0  0
 36 28  2  0  0  0  0
 38 39  1  0  0  0  0
 38 36  1  0  0  0  0
 38 37  1  0  0  0  0
 39 37  1  0  0  0  0
M  END
>  <MODEL>
9

>  <REMARK>
 VINA RESULT:      -8.4      2.795      5.269
  Name = 
  3 active torsions:
  status: ('A' for Active; 'I' for Inactive)
    1  A    between atoms: C_1  and  C_8
    2  A    between atoms: C_4  and  C_34
    3  A    between atoms: C_27  and  C_39
                            x       y       z     vdW  Elec       q    Type
                         _______ _______ _______ _____ _____    ______ ____

>  <TORSDO>
F 3

$$$$
