=
 OpenBabel11062418263D

 48 55  0  0  1  0  0  0  0  0999 V2000
  195.5860  171.3890  144.2660 C   0  0  2  0  0  3  0  0  0  0  0  0
  196.2580  170.3050  143.4540 C   0  0  0  0  0  2  0  0  0  0  0  0
  194.0320  170.6870  142.6260 N   0  0  0  0  0  0  0  0  0  0  0  0
  194.4300  171.8430  143.4130 C   0  0  0  0  0  2  0  0  0  0  0  0
  195.2450  169.9060  142.3940 C   0  0  0  0  0  2  0  0  0  0  0  0
  193.4030  171.1220  141.3760 C   0  0  0  0  0  2  0  0  0  0  0  0
  190.9600  169.5520  141.4250 N   0  0  0  0  0  1  0  0  0  0  0  0
  190.7190  173.6980  141.8660 C   0  0  0  0  0  0  0  0  0  0  0  0
  188.2580  173.5430  142.1000 C   0  0  0  0  0  0  0  0  0  0  0  0
  189.4340  175.6510  142.7820 C   0  0  2  0  0  3  0  0  0  0  0  0
  187.1870  172.8830  141.9900 O   0  0  0  0  0  0  0  0  0  0  0  0
  190.6240  175.2000  141.9290 C   0  0  0  0  0  2  0  0  0  0  0  0
  187.7950  177.1860  141.8320 C   0  0  2  0  0  3  0  0  0  0  0  0
  187.1590  175.8160  141.9570 C   0  0  0  0  0  2  0  0  0  0  0  0
  192.0420  171.7590  141.5230 C   0  0  0  0  0  0  0  0  0  0  0  0
  191.9280  173.1050  141.6720 N   0  0  0  0  0  0  0  0  0  0  0  0
  189.5650  172.9040  141.9040 C   0  0  0  0  0  0  0  0  0  0  0  0
  188.2270  174.9420  142.3890 N   0  0  0  0  0  0  0  0  0  0  0  0
  189.6740  171.5580  141.7570 N   0  0  0  0  0  0  0  0  0  0  0  0
  189.1340  177.1240  142.5640 C   0  0  0  0  0  2  0  0  0  0  0  0
  190.8830  170.9650  141.5680 C   0  0  0  0  0  0  0  0  0  0  0  0
  186.9080  178.2270  142.4210 C   0  0  0  0  0  3  0  0  0  0  0  0
  186.2460  177.9800  143.5480 C   0  0  0  0  0  3  0  0  0  0  0  0
  185.6110  180.2030  143.9780 O   0  0  0  0  0  0  0  0  0  0  0  0
  184.2640  178.6000  144.9170 O   0  0  0  0  0  1  0  0  0  0  0  0
  185.3680  178.9820  144.1560 C   0  0  0  0  0  0  0  0  0  0  0  0
  196.5340  172.5460  144.5350 C   0  0  0  0  0  2  0  0  0  0  0  0
  197.1570  175.8410  141.8830 C   0  0  0  0  0  2  0  0  0  0  0  0
  196.7330  177.3750  143.6600 O   0  0  0  0  0  1  0  0  0  0  0  0
  196.4620  175.0440  144.1850 C   0  0  2  0  0  3  0  0  0  0  0  0
  196.8830  174.4020  141.4540 C   0  0  0  0  0  2  0  0  0  0  0  0
  196.3290  176.1520  143.1290 C   0  0  2  0  0  3  0  0  0  0  0  0
  196.3240  173.6610  143.5150 C   0  0  1  0  0  3  0  0  0  0  0  0
  197.2750  173.5250  142.4830 O   0  0  0  0  0  0  0  0  0  0  0  0
  195.3710  175.2280  145.2300 C   0  0  0  0  0  2  0  0  0  0  0  0
  194.1950  175.6710  144.6120 O   0  0  0  0  0  0  0  0  0  0  0  0
  189.0090  176.9800  146.3370 C   0  0  0  0  0  0  0  0  0  0  0  0
  190.8350  174.8100  146.9220 C   0  0  1  0  0  3  0  0  0  0  0  0
  188.4560  175.5970  146.5270 C   0  0  0  0  0  2  0  0  0  0  0  0
  190.4630  177.1610  146.0280 C   0  0  0  0  0  2  0  0  0  0  0  0
  188.2530  177.9340  146.3050 O   0  0  0  0  0  0  0  0  0  0  0  0
  191.3110  176.2710  146.9520 C   0  0  2  0  0  3  0  0  0  0  0  0
  192.7840  176.3520  146.5760 C   0  0  0  0  0  2  0  0  0  0  0  0
  189.3850  174.7520  147.4130 C   0  0  0  0  0  2  0  0  0  0  0  0
  192.2380  174.1880  145.0770 C   0  0  2  0  0  3  0  0  0  0  0  0
  193.3610  173.9530  146.0890 C   0  0  0  0  0  2  0  0  0  0  0  0
  193.1580  175.3420  145.4910 C   0  0  1  0  0  0  0  0  0  0  0  0
  190.9130  174.2710  145.6120 O   0  0  0  0  0  0  0  0  0  0  0  0
  1 27  1  6  0  0  0
  2  1  1  0  0  0  0
  3  4  1  0  0  0  0
  4  1  1  0  0  0  0
  5  3  1  0  0  0  0
  5  2  1  0  0  0  0
  6 15  1  0  0  0  0
  6  3  1  0  0  0  0
  7 21  1  0  0  0  0
  8 17  1  0  0  0  0
  8 12  1  0  0  0  0
  9 18  1  0  0  0  0
 10 12  1  6  0  0  0
 11  9  2  0  0  0  0
 13 14  1  0  0  0  0
 13 22  1  1  0  0  0
 13 20  1  0  0  0  0
 14 18  1  0  0  0  0
 15 21  2  0  0  0  0
 15 16  1  0  0  0  0
 16  8  2  0  0  0  0
 17  9  1  0  0  0  0
 18 10  1  0  0  0  0
 19 17  2  0  0  0  0
 20 10  1  0  0  0  0
 21 19  1  0  0  0  0
 22 23  2  0  0  0  0
 23 26  1  0  0  0  0
 24 26  2  0  0  0  0
 26 25  1  0  0  0  0
 28 32  1  0  0  0  0
 30 35  1  1  0  0  0
 31 28  1  0  0  0  0
 31 34  1  0  0  0  0
 32 29  1  1  0  0  0
 32 30  1  0  0  0  0
 33 30  1  0  0  0  0
 33 27  1  1  0  0  0
 34 33  1  0  0  0  0
 36 35  1  0  0  0  0
 37 39  1  0  0  0  0
 38 42  1  0  0  0  0
 38 44  1  6  0  0  0
 39 44  1  0  0  0  0
 40 37  1  0  0  0  0
 41 37  2  0  0  0  0
 42 40  1  6  0  0  0
 43 42  1  0  0  0  0
 45 47  1  0  0  0  0
 45 48  1  0  0  0  0
 45 46  1  1  0  0  0
 47 36  1  6  0  0  0
 47 46  1  0  0  0  0
 47 43  1  0  0  0  0
 48 38  1  0  0  0  0
M  END
>  <MODEL>
1

>  <REMARK>
 VINA RESULT:      -8.0      0.000      0.000
  Name = 
  9 active torsions:
  status: ('A' for Active; 'I' for Inactive)
    1  A    between atoms: C_3  and  C_44
    2  A    between atoms: C_13  and  C_18
    3  A    between atoms: C_14  and  C_26
    4  A    between atoms: C_14  and  N_29
    5  A    between atoms: C_16  and  C_22
    6  A    between atoms: C_16  and  O_36
    7  A    between atoms: C_27  and  C_41
    8  A    between atoms: O_36  and  C_38
    9  A    between atoms: C_43  and  C_44
                            x       y       z     vdW  Elec       q    Type
                         _______ _______ _______ _____ _____    ______ ____

>  <TORSDO>
F 9

$$$$
=
 OpenBabel11062418263D

 48 55  0  0  1  0  0  0  0  0999 V2000
  195.8170  173.1580  141.4320 C   0  0  2  0  0  3  0  0  0  0  0  0
  197.2990  173.4300  141.5670 C   0  0  0  0  0  2  0  0  0  0  0  0
  196.0490  175.4170  142.0940 N   0  0  0  0  0  0  0  0  0  0  0  0
  195.1540  174.2760  142.1920 C   0  0  0  0  0  2  0  0  0  0  0  0
  197.4040  174.8760  142.0250 C   0  0  0  0  0  2  0  0  0  0  0  0
  195.8630  176.3040  143.2460 C   0  0  0  0  0  2  0  0  0  0  0  0
  195.8200  174.8590  145.7640 N   0  0  0  0  0  1  0  0  0  0  0  0
  192.2650  176.4860  144.2950 C   0  0  0  0  0  0  0  0  0  0  0  0
  191.0460  175.6500  146.2830 C   0  0  0  0  0  0  0  0  0  0  0  0
  189.9830  177.3900  144.8230 C   0  0  2  0  0  3  0  0  0  0  0  0
  190.9970  174.9120  147.3070 O   0  0  0  0  0  0  0  0  0  0  0  0
  190.9670  176.9890  143.7190 C   0  0  0  0  0  2  0  0  0  0  0  0
  187.7460  176.4170  144.8400 C   0  0  2  0  0  3  0  0  0  0  0  0
  188.5410  175.8250  145.9870 C   0  0  0  0  0  2  0  0  0  0  0  0
  194.5890  176.0920  144.0280 C   0  0  0  0  0  0  0  0  0  0  0  0
  193.4160  176.6120  143.5810 N   0  0  0  0  0  0  0  0  0  0  0  0
  192.2890  175.7980  145.5160 C   0  0  0  0  0  0  0  0  0  0  0  0
  189.8820  176.3400  145.8230 N   0  0  0  0  0  0  0  0  0  0  0  0
  193.4600  175.2790  145.9680 N   0  0  0  0  0  0  0  0  0  0  0  0
  188.5800  177.5610  144.2660 C   0  0  0  0  0  2  0  0  0  0  0  0
  194.6100  175.4080  145.2560 C   0  0  0  0  0  0  0  0  0  0  0  0
  186.4240  176.9050  145.3200 C   0  0  0  0  0  3  0  0  0  0  0  0
  186.3270  178.0880  145.9220 C   0  0  0  0  0  3  0  0  0  0  0  0
  184.8290  178.6670  147.6400 O   0  0  0  0  0  1  0  0  0  0  0  0
  184.0600  179.0220  145.5080 O   0  0  0  0  0  0  0  0  0  0  0  0
  185.0410  178.5990  146.4030 C   0  0  0  0  0  0  0  0  0  0  0  0
  195.4460  171.8130  142.0340 C   0  0  0  0  0  2  0  0  0  0  0  0
  196.7890  170.3660  145.8260 C   0  0  0  0  0  2  0  0  0  0  0  0
  194.5300  170.0300  146.5190 O   0  0  0  0  0  1  0  0  0  0  0  0
  194.8380  171.0430  144.3590 C   0  0  2  0  0  3  0  0  0  0  0  0
  197.6300  171.1710  144.8410 C   0  0  0  0  0  2  0  0  0  0  0  0
  195.3550  170.8920  145.7980 C   0  0  2  0  0  3  0  0  0  0  0  0
  195.9090  171.7280  143.4860 C   0  0  1  0  0  3  0  0  0  0  0  0
  197.1170  171.0020  143.5410 O   0  0  0  0  0  0  0  0  0  0  0  0
  193.5670  171.8800  144.3780 C   0  0  0  0  0  2  0  0  0  0  0  0
  192.5000  171.1290  143.8730 O   0  0  0  0  0  0  0  0  0  0  0  0
  189.9700  173.5890  139.4980 C   0  0  0  0  0  0  0  0  0  0  0  0
  189.5440  173.6500  142.3620 C   0  0  1  0  0  3  0  0  0  0  0  0
  188.5650  173.6390  140.0220 C   0  0  0  0  0  2  0  0  0  0  0  0
  191.0820  173.1500  140.4000 C   0  0  0  0  0  2  0  0  0  0  0  0
  190.1810  173.7790  138.3140 O   0  0  0  0  0  0  0  0  0  0  0  0
  190.9510  173.8360  141.7700 C   0  0  2  0  0  3  0  0  0  0  0  0
  192.0030  173.3150  142.7380 C   0  0  0  0  0  2  0  0  0  0  0  0
  188.5210  174.2850  141.4160 C   0  0  0  0  0  2  0  0  0  0  0  0
  190.0760  171.5900  143.4730 C   0  0  2  0  0  3  0  0  0  0  0  0
  190.6120  172.4270  144.6360 C   0  0  0  0  0  2  0  0  0  0  0  0
  191.5350  172.0620  143.4770 C   0  0  1  0  0  0  0  0  0  0  0  0
  189.2400  172.2750  142.5360 O   0  0  0  0  0  0  0  0  0  0  0  0
  1  2  1  0  0  0  0
  1 27  1  1  0  0  0
  1  4  1  0  0  0  0
  2  5  1  0  0  0  0
  3  4  1  0  0  0  0
  3  6  1  0  0  0  0
  5  3  1  0  0  0  0
  6 15  1  0  0  0  0
  8 17  1  0  0  0  0
  9 11  2  0  0  0  0
 10 12  1  6  0  0  0
 10 18  1  0  0  0  0
 12  8  1  0  0  0  0
 13 22  1  1  0  0  0
 13 14  1  0  0  0  0
 15 21  2  0  0  0  0
 16 15  1  0  0  0  0
 16  8  2  0  0  0  0
 17 19  2  0  0  0  0
 17  9  1  0  0  0  0
 18 14  1  0  0  0  0
 18  9  1  0  0  0  0
 20 10  1  0  0  0  0
 20 13  1  0  0  0  0
 21  7  1  0  0  0  0
 21 19  1  0  0  0  0
 22 23  2  0  0  0  0
 23 26  1  0  0  0  0
 25 26  2  0  0  0  0
 26 24  1  0  0  0  0
 30 35  1  1  0  0  0
 30 32  1  0  0  0  0
 31 28  1  0  0  0  0
 32 28  1  0  0  0  0
 32 29  1  1  0  0  0
 33 27  1  6  0  0  0
 33 34  1  0  0  0  0
 33 30  1  0  0  0  0
 34 31  1  0  0  0  0
 36 35  1  0  0  0  0
 37 39  1  0  0  0  0
 37 40  1  0  0  0  0
 38 44  1  6  0  0  0
 38 48  1  0  0  0  0
 39 44  1  0  0  0  0
 41 37  2  0  0  0  0
 42 40  1  6  0  0  0
 42 38  1  0  0  0  0
 42 43  1  0  0  0  0
 43 47  1  0  0  0  0
 45 47  1  0  0  0  0
 45 46  1  1  0  0  0
 47 36  1  1  0  0  0
 47 46  1  0  0  0  0
 48 45  1  0  0  0  0
M  END
>  <MODEL>
2

>  <REMARK>
 VINA RESULT:      -7.9      2.689      5.053
  Name = 
  9 active torsions:
  status: ('A' for Active; 'I' for Inactive)
    1  A    between atoms: C_3  and  C_44
    2  A    between atoms: C_13  and  C_18
    3  A    between atoms: C_14  and  C_26
    4  A    between atoms: C_14  and  N_29
    5  A    between atoms: C_16  and  C_22
    6  A    between atoms: C_16  and  O_36
    7  A    between atoms: C_27  and  C_41
    8  A    between atoms: O_36  and  C_38
    9  A    between atoms: C_43  and  C_44
                            x       y       z     vdW  Elec       q    Type
                         _______ _______ _______ _____ _____    ______ ____

>  <TORSDO>
F 9

$$$$
=
 OpenBabel11062418263D

 48 55  0  0  1  0  0  0  0  0999 V2000
  188.9450  176.9500  146.7630 C   0  0  2  0  0  3  0  0  0  0  0  0
  189.5790  177.6800  145.6000 C   0  0  0  0  0  2  0  0  0  0  0  0
  191.1960  176.2320  146.6390 N   0  0  0  0  0  0  0  0  0  0  0  0
  189.8690  175.7920  147.0340 C   0  0  0  0  0  2  0  0  0  0  0  0
  191.0090  177.1680  145.5320 C   0  0  0  0  0  2  0  0  0  0  0  0
  192.0180  175.0800  146.2580 C   0  0  0  0  0  2  0  0  0  0  0  0
  194.2580  176.7840  146.9740 N   0  0  0  0  0  1  0  0  0  0  0  0
  194.1780  175.0140  143.1910 C   0  0  0  0  0  0  0  0  0  0  0  0
  196.3570  176.0570  142.6430 C   0  0  0  0  0  0  0  0  0  0  0  0
  195.4980  174.1730  141.2280 C   0  0  2  0  0  3  0  0  0  0  0  0
  197.2630  176.8990  142.8990 O   0  0  0  0  0  0  0  0  0  0  0  0
  194.1030  174.4540  141.7950 C   0  0  0  0  0  2  0  0  0  0  0  0
  196.1340  175.1440  139.0830 C   0  0  2  0  0  3  0  0  0  0  0  0
  196.9000  175.8540  140.1810 C   0  0  0  0  0  2  0  0  0  0  0  0
  193.1420  175.3750  145.2940 C   0  0  0  0  0  0  0  0  0  0  0  0
  193.1480  174.8120  144.0570 N   0  0  0  0  0  0  0  0  0  0  0  0
  195.2510  175.8270  143.5810 C   0  0  0  0  0  0  0  0  0  0  0  0
  196.3660  175.3230  141.4170 N   0  0  0  0  0  0  0  0  0  0  0  0
  195.2490  176.3900  144.8170 N   0  0  0  0  0  0  0  0  0  0  0  0
  195.4400  173.9450  139.7270 C   0  0  0  0  0  2  0  0  0  0  0  0
  194.2220  176.1850  145.6840 C   0  0  0  0  0  0  0  0  0  0  0  0
  197.0590  174.7120  138.0000 C   0  0  0  0  0  3  0  0  0  0  0  0
  196.6070  174.5590  136.7570 C   0  0  0  0  0  3  0  0  0  0  0  0
  197.8990  174.9930  134.8400 O   0  0  0  0  0  0  0  0  0  0  0  0
  197.8940  172.8100  135.5450 O   0  0  0  0  0  1  0  0  0  0  0  0
  197.4910  174.1390  135.6670 C   0  0  0  0  0  0  0  0  0  0  0  0
  187.5550  176.4500  146.4090 C   0  0  0  0  0  2  0  0  0  0  0  0
  184.2100  178.8950  145.3550 C   0  0  0  0  0  2  0  0  0  0  0  0
  184.1090  177.8630  143.2060 O   0  0  0  0  0  1  0  0  0  0  0  0
  185.9290  177.1840  144.6240 C   0  0  2  0  0  3  0  0  0  0  0  0
  185.1720  179.1650  146.5070 C   0  0  0  0  0  2  0  0  0  0  0  0
  184.9960  178.3210  144.1780 C   0  0  2  0  0  3  0  0  0  0  0  0
  186.6840  177.5970  145.9040 C   0  0  1  0  0  3  0  0  0  0  0  0
  185.7670  177.9560  146.9140 O   0  0  0  0  0  0  0  0  0  0  0  0
  186.9200  176.8940  143.5050 C   0  0  0  0  0  2  0  0  0  0  0  0
  186.5580  175.7120  142.8500 O   0  0  0  0  0  0  0  0  0  0  0  0
  190.8160  172.1090  143.5450 C   0  0  0  0  0  0  0  0  0  0  0  0
  189.9750  173.8340  141.3760 C   0  0  1  0  0  3  0  0  0  0  0  0
  190.9590  171.6220  142.1320 C   0  0  0  0  0  2  0  0  0  0  0  0
  189.8840  173.2420  143.8470 C   0  0  0  0  0  2  0  0  0  0  0  0
  191.3540  171.5010  144.4520 O   0  0  0  0  0  0  0  0  0  0  0  0
  190.0710  174.3660  142.8150 C   0  0  2  0  0  3  0  0  0  0  0  0
  189.0530  175.4760  143.0350 C   0  0  0  0  0  2  0  0  0  0  0  0
  191.0840  172.8010  141.1540 C   0  0  0  0  0  2  0  0  0  0  0  0
  187.5970  174.1240  141.2230 C   0  0  2  0  0  3  0  0  0  0  0  0
  187.8620  175.5760  140.8220 C   0  0  0  0  0  2  0  0  0  0  0  0
  187.7410  175.2080  142.2980 C   0  0  1  0  0  0  0  0  0  0  0  0
  188.7120  173.2320  141.1350 O   0  0  0  0  0  0  0  0  0  0  0  0
  1 27  1  6  0  0  0
  1  4  1  0  0  0  0
  2  1  1  0  0  0  0
  3  4  1  0  0  0  0
  5  2  1  0  0  0  0
  5  3  1  0  0  0  0
  6  3  1  0  0  0  0
  8 17  2  0  0  0  0
  8 16  1  0  0  0  0
  9 11  2  0  0  0  0
  9 17  1  0  0  0  0
 10 20  1  6  0  0  0
 10 18  1  0  0  0  0
 10 12  1  0  0  0  0
 12  8  1  0  0  0  0
 13 22  1  6  0  0  0
 13 20  1  0  0  0  0
 13 14  1  0  0  0  0
 14 18  1  0  0  0  0
 15 21  1  0  0  0  0
 15  6  1  0  0  0  0
 16 15  2  0  0  0  0
 17 19  1  0  0  0  0
 18  9  1  0  0  0  0
 19 21  2  0  0  0  0
 21  7  1  0  0  0  0
 23 22  2  0  0  0  0
 24 26  2  0  0  0  0
 25 26  1  0  0  0  0
 26 23  1  0  0  0  0
 28 31  1  0  0  0  0
 30 35  1  6  0  0  0
 30 33  1  0  0  0  0
 31 34  1  0  0  0  0
 32 29  1  6  0  0  0
 32 30  1  0  0  0  0
 32 28  1  0  0  0  0
 33 27  1  1  0  0  0
 33 34  1  0  0  0  0
 36 35  1  0  0  0  0
 37 40  1  0  0  0  0
 37 41  2  0  0  0  0
 38 44  1  1  0  0  0
 38 42  1  0  0  0  0
 39 37  1  0  0  0  0
 42 43  1  1  0  0  0
 42 40  1  0  0  0  0
 44 39  1  0  0  0  0
 45 46  1  6  0  0  0
 45 47  1  0  0  0  0
 46 47  1  0  0  0  0
 47 36  1  1  0  0  0
 47 43  1  0  0  0  0
 48 45  1  0  0  0  0
 48 38  1  0  0  0  0
M  END
>  <MODEL>
3

>  <REMARK>
 VINA RESULT:      -7.6      2.994      9.278
  Name = 
  9 active torsions:
  status: ('A' for Active; 'I' for Inactive)
    1  A    between atoms: C_3  and  C_44
    2  A    between atoms: C_13  and  C_18
    3  A    between atoms: C_14  and  C_26
    4  A    between atoms: C_14  and  N_29
    5  A    between atoms: C_16  and  C_22
    6  A    between atoms: C_16  and  O_36
    7  A    between atoms: C_27  and  C_41
    8  A    between atoms: O_36  and  C_38
    9  A    between atoms: C_43  and  C_44
                            x       y       z     vdW  Elec       q    Type
                         _______ _______ _______ _____ _____    ______ ____

>  <TORSDO>
F 9

$$$$
=
 OpenBabel11062418263D

 48 55  0  0  1  0  0  0  0  0999 V2000
  194.1640  171.0910  141.2670 C   0  0  2  0  0  3  0  0  0  0  0  0
  194.2480  171.5750  139.8370 C   0  0  0  0  0  2  0  0  0  0  0  0
  192.5740  169.8570  140.0230 N   0  0  0  0  0  0  0  0  0  0  0  0
  192.8360  170.3840  141.3520 C   0  0  0  0  0  2  0  0  0  0  0  0
  193.1920  170.7860  139.0800 C   0  0  0  0  0  2  0  0  0  0  0  0
  191.1290  169.7270  139.8090 C   0  0  0  0  0  2  0  0  0  0  0  0
  189.9570  170.6830  137.3300 N   0  0  0  0  0  1  0  0  0  0  0  0
  189.4450  172.9240  140.8170 C   0  0  0  0  0  0  0  0  0  0  0  0
  188.0960  174.5850  139.5670 C   0  0  0  0  0  0  0  0  0  0  0  0
  188.0320  174.5760  142.0750 C   0  0  2  0  0  3  0  0  0  0  0  0
  187.6990  175.0700  138.4720 O   0  0  0  0  0  0  0  0  0  0  0  0
  189.3410  173.7810  142.0530 C   0  0  0  0  0  2  0  0  0  0  0  0
  188.1100  176.9990  142.3480 C   0  0  2  0  0  3  0  0  0  0  0  0
  187.7080  176.6850  140.9210 C   0  0  0  0  0  2  0  0  0  0  0  0
  190.3670  171.0280  139.7310 C   0  0  0  0  0  0  0  0  0  0  0  0
  190.1780  171.7790  140.8480 N   0  0  0  0  0  0  0  0  0  0  0  0
  188.8780  173.3430  139.6050 C   0  0  0  0  0  0  0  0  0  0  0  0
  187.8220  175.2480  140.8030 N   0  0  0  0  0  0  0  0  0  0  0  0
  189.0620  172.5930  138.4870 N   0  0  0  0  0  0  0  0  0  0  0  0
  188.0820  175.6790  143.1180 C   0  0  0  0  0  2  0  0  0  0  0  0
  189.7910  171.4470  138.5190 C   0  0  0  0  0  0  0  0  0  0  0  0
  187.1750  177.9900  142.9470 C   0  0  0  0  0  3  0  0  0  0  0  0
  186.2800  177.6010  143.8530 C   0  0  0  0  0  3  0  0  0  0  0  0
  184.5030  178.1350  145.2970 O   0  0  0  0  0  1  0  0  0  0  0  0
  185.3950  179.9070  144.1440 O   0  0  0  0  0  0  0  0  0  0  0  0
  185.3480  178.5510  144.4640 C   0  0  0  0  0  0  0  0  0  0  0  0
  194.2120  172.2510  142.2470 C   0  0  0  0  0  2  0  0  0  0  0  0
  196.9310  170.3420  144.9380 C   0  0  0  0  0  2  0  0  0  0  0  0
  195.1640  169.9900  146.5020 O   0  0  0  0  0  1  0  0  0  0  0  0
  194.5970  171.2350  144.5240 C   0  0  2  0  0  3  0  0  0  0  0  0
  197.3290  171.2310  143.7650 C   0  0  0  0  0  2  0  0  0  0  0  0
  195.6640  170.9060  145.5790 C   0  0  2  0  0  3  0  0  0  0  0  0
  195.2410  171.9870  143.3420 C   0  0  1  0  0  3  0  0  0  0  0  0
  196.3000  171.2280  142.8040 O   0  0  0  0  0  0  0  0  0  0  0  0
  193.5210  172.0990  145.1670 C   0  0  0  0  0  2  0  0  0  0  0  0
  194.1100  173.2200  145.7650 O   0  0  0  0  0  0  0  0  0  0  0  0
  189.1810  175.7780  146.6310 C   0  0  0  0  0  0  0  0  0  0  0  0
  191.5610  176.4550  145.1270 C   0  0  1  0  0  3  0  0  0  0  0  0
  189.6370  177.2080  146.5980 C   0  0  0  0  0  2  0  0  0  0  0  0
  190.1420  174.6860  146.2760 C   0  0  0  0  0  2  0  0  0  0  0  0
  188.0790  175.5040  147.0710 O   0  0  0  0  0  0  0  0  0  0  0  0
  190.9200  175.0630  145.0040 C   0  0  2  0  0  3  0  0  0  0  0  0
  191.9830  174.0200  144.6920 C   0  0  0  0  0  2  0  0  0  0  0  0
  190.4540  177.4940  145.3280 C   0  0  0  0  0  2  0  0  0  0  0  0
  193.5980  175.6420  146.1020 C   0  0  2  0  0  3  0  0  0  0  0  0
  194.1010  175.3770  144.6810 C   0  0  0  0  0  2  0  0  0  0  0  0
  193.3000  174.3050  145.4150 C   0  0  1  0  0  0  0  0  0  0  0  0
  192.4660  176.5090  146.2190 O   0  0  0  0  0  0  0  0  0  0  0  0
  1  4  1  0  0  0  0
  1 27  1  1  0  0  0
  2  1  1  0  0  0  0
  3  4  1  0  0  0  0
  5  2  1  0  0  0  0
  5  3  1  0  0  0  0
  6  3  1  0  0  0  0
  7 21  1  0  0  0  0
  8 16  1  0  0  0  0
  8 12  1  0  0  0  0
  9 17  1  0  0  0  0
  9 18  1  0  0  0  0
 10 12  1  6  0  0  0
 10 20  1  0  0  0  0
 11  9  2  0  0  0  0
 13 22  1  1  0  0  0
 13 20  1  0  0  0  0
 14 13  1  0  0  0  0
 15  6  1  0  0  0  0
 15 16  2  0  0  0  0
 17  8  2  0  0  0  0
 18 14  1  0  0  0  0
 18 10  1  0  0  0  0
 19 21  2  0  0  0  0
 19 17  1  0  0  0  0
 21 15  1  0  0  0  0
 22 23  2  0  0  0  0
 23 26  1  0  0  0  0
 25 26  2  0  0  0  0
 26 24  1  0  0  0  0
 28 32  1  0  0  0  0
 30 35  1  1  0  0  0
 30 32  1  0  0  0  0
 31 28  1  0  0  0  0
 32 29  1  1  0  0  0
 33 27  1  6  0  0  0
 33 30  1  0  0  0  0
 34 33  1  0  0  0  0
 34 31  1  0  0  0  0
 35 36  1  0  0  0  0
 37 41  2  0  0  0  0
 38 44  1  1  0  0  0
 38 48  1  0  0  0  0
 39 37  1  0  0  0  0
 40 37  1  0  0  0  0
 42 43  1  1  0  0  0
 42 38  1  0  0  0  0
 42 40  1  0  0  0  0
 43 47  1  0  0  0  0
 44 39  1  0  0  0  0
 45 46  1  6  0  0  0
 45 48  1  0  0  0  0
 46 47  1  0  0  0  0
 47 36  1  1  0  0  0
 47 45  1  0  0  0  0
M  END
>  <MODEL>
4

>  <REMARK>
 VINA RESULT:      -7.5      2.001      3.146
  Name = 
  9 active torsions:
  status: ('A' for Active; 'I' for Inactive)
    1  A    between atoms: C_3  and  C_44
    2  A    between atoms: C_13  and  C_18
    3  A    between atoms: C_14  and  C_26
    4  A    between atoms: C_14  and  N_29
    5  A    between atoms: C_16  and  C_22
    6  A    between atoms: C_16  and  O_36
    7  A    between atoms: C_27  and  C_41
    8  A    between atoms: O_36  and  C_38
    9  A    between atoms: C_43  and  C_44
                            x       y       z     vdW  Elec       q    Type
                         _______ _______ _______ _____ _____    ______ ____

>  <TORSDO>
F 9

$$$$
=
 OpenBabel11062418263D

 48 55  0  0  1  0  0  0  0  0999 V2000
  193.5580  173.0390  139.7390 C   0  0  2  0  0  3  0  0  0  0  0  0
  193.3600  173.4380  138.2930 C   0  0  0  0  0  2  0  0  0  0  0  0
  191.7990  171.7060  138.8870 N   0  0  0  0  0  0  0  0  0  0  0  0
  192.2900  172.3160  140.1110 C   0  0  0  0  0  2  0  0  0  0  0  0
  192.2040  172.5870  137.7940 C   0  0  0  0  0  2  0  0  0  0  0  0
  190.3450  171.5380  138.9550 C   0  0  0  0  0  2  0  0  0  0  0  0
  188.9990  173.1110  136.9190 N   0  0  0  0  0  1  0  0  0  0  0  0
  188.6950  174.2770  140.9180 C   0  0  0  0  0  0  0  0  0  0  0  0
  187.2480  176.1790  140.2660 C   0  0  0  0  0  0  0  0  0  0  0  0
  187.3500  175.4710  142.6700 C   0  0  2  0  0  3  0  0  0  0  0  0
  186.7730  176.9390  139.3760 O   0  0  0  0  0  0  0  0  0  0  0  0
  188.6640  174.7520  142.3470 C   0  0  0  0  0  2  0  0  0  0  0  0
  187.4190  177.7230  143.6050 C   0  0  2  0  0  3  0  0  0  0  0  0
  186.9270  177.8080  142.1740 C   0  0  0  0  0  2  0  0  0  0  0  0
  189.5640  172.7850  139.2910 C   0  0  0  0  0  0  0  0  0  0  0  0
  189.4420  173.1900  140.5820 N   0  0  0  0  0  0  0  0  0  0  0  0
  188.0440  174.9990  139.9080 C   0  0  0  0  0  0  0  0  0  0  0  0
  187.0490  176.4640  141.6520 N   0  0  0  0  0  0  0  0  0  0  0  0
  188.1620  174.5960  138.6160 N   0  0  0  0  0  0  0  0  0  0  0  0
  187.4580  176.2410  143.9750 C   0  0  0  0  0  2  0  0  0  0  0  0
  188.9040  173.5080  138.2810 C   0  0  0  0  0  0  0  0  0  0  0  0
  186.5150  178.4800  144.5130 C   0  0  0  0  0  3  0  0  0  0  0  0
  185.7240  177.8290  145.3630 C   0  0  0  0  0  3  0  0  0  0  0  0
  183.7560  179.0310  145.8250 O   0  0  0  0  0  0  0  0  0  0  0  0
  185.1330  178.6760  147.6250 O   0  0  0  0  0  1  0  0  0  0  0  0
  184.8250  178.5430  146.2720 C   0  0  0  0  0  0  0  0  0  0  0  0
  193.7550  174.2570  140.6250 C   0  0  0  0  0  2  0  0  0  0  0  0
  197.6760  173.0860  141.8680 C   0  0  0  0  0  2  0  0  0  0  0  0
  196.7410  171.6880  143.5610 O   0  0  0  0  0  1  0  0  0  0  0  0
  195.1790  173.0020  142.2890 C   0  0  2  0  0  3  0  0  0  0  0  0
  197.3490  174.3020  141.0070 C   0  0  0  0  0  2  0  0  0  0  0  0
  196.5780  172.9130  142.9170 C   0  0  2  0  0  3  0  0  0  0  0  0
  195.1130  174.2000  141.3210 C   0  0  1  0  0  3  0  0  0  0  0  0
  196.1250  174.0920  140.3450 O   0  0  0  0  0  0  0  0  0  0  0  0
  194.1520  173.1710  143.4000 C   0  0  0  0  0  2  0  0  0  0  0  0
  194.6090  174.1160  144.3250 O   0  0  0  0  0  0  0  0  0  0  0  0
  189.7130  175.1560  146.8810 C   0  0  0  0  0  0  0  0  0  0  0  0
  191.4690  176.7180  145.1890 C   0  0  1  0  0  3  0  0  0  0  0  0
  189.8940  176.6170  147.1740 C   0  0  0  0  0  2  0  0  0  0  0  0
  190.7210  174.4400  146.0350 C   0  0  0  0  0  2  0  0  0  0  0  0
  188.8270  174.5330  147.4360 O   0  0  0  0  0  0  0  0  0  0  0  0
  191.0660  175.2860  144.7990 C   0  0  2  0  0  3  0  0  0  0  0  0
  192.1730  174.6300  143.9870 C   0  0  0  0  0  2  0  0  0  0  0  0
  190.2920  177.3870  145.9040 C   0  0  0  0  0  2  0  0  0  0  0  0
  193.7970  176.1950  145.4500 C   0  0  2  0  0  3  0  0  0  0  0  0
  193.9510  176.4080  143.9430 C   0  0  0  0  0  2  0  0  0  0  0  0
  193.5630  175.0330  144.4780 C   0  0  1  0  0  0  0  0  0  0  0  0
  192.6030  176.7160  146.0420 O   0  0  0  0  0  0  0  0  0  0  0  0
  1  4  1  0  0  0  0
  1 27  1  1  0  0  0
  2  1  1  0  0  0  0
  3  6  1  0  0  0  0
  3  4  1  0  0  0  0
  5  2  1  0  0  0  0
  5  3  1  0  0  0  0
  6 15  1  0  0  0  0
  7 21  1  0  0  0  0
  8 12  1  0  0  0  0
  9 18  1  0  0  0  0
 10 12  1  6  0  0  0
 10 20  1  0  0  0  0
 11  9  2  0  0  0  0
 13 20  1  0  0  0  0
 13 22  1  1  0  0  0
 14 13  1  0  0  0  0
 15 16  2  0  0  0  0
 16  8  1  0  0  0  0
 17  9  1  0  0  0  0
 17  8  2  0  0  0  0
 18 14  1  0  0  0  0
 18 10  1  0  0  0  0
 19 17  1  0  0  0  0
 21 19  2  0  0  0  0
 21 15  1  0  0  0  0
 22 23  2  0  0  0  0
 23 26  1  0  0  0  0
 24 26  2  0  0  0  0
 26 25  1  0  0  0  0
 28 32  1  0  0  0  0
 30 32  1  0  0  0  0
 30 35  1  1  0  0  0
 31 28  1  0  0  0  0
 32 29  1  6  0  0  0
 33 27  1  6  0  0  0
 33 30  1  0  0  0  0
 34 31  1  0  0  0  0
 34 33  1  0  0  0  0
 35 36  1  0  0  0  0
 37 39  1  0  0  0  0
 37 41  2  0  0  0  0
 38 44  1  1  0  0  0
 38 48  1  0  0  0  0
 40 37  1  0  0  0  0
 42 43  1  1  0  0  0
 42 38  1  0  0  0  0
 42 40  1  0  0  0  0
 43 47  1  0  0  0  0
 44 39  1  0  0  0  0
 45 46  1  6  0  0  0
 45 48  1  0  0  0  0
 46 47  1  0  0  0  0
 47 36  1  6  0  0  0
 47 45  1  0  0  0  0
M  END
>  <MODEL>
5

>  <REMARK>
 VINA RESULT:      -7.4      2.287      3.435
  Name = 
  9 active torsions:
  status: ('A' for Active; 'I' for Inactive)
    1  A    between atoms: C_3  and  C_44
    2  A    between atoms: C_13  and  C_18
    3  A    between atoms: C_14  and  C_26
    4  A    between atoms: C_14  and  N_29
    5  A    between atoms: C_16  and  C_22
    6  A    between atoms: C_16  and  O_36
    7  A    between atoms: C_27  and  C_41
    8  A    between atoms: O_36  and  C_38
    9  A    between atoms: C_43  and  C_44
                            x       y       z     vdW  Elec       q    Type
                         _______ _______ _______ _____ _____    ______ ____

>  <TORSDO>
F 9

$$$$
=
 OpenBabel11062418263D

 48 55  0  0  1  0  0  0  0  0999 V2000
  193.4570  173.8640  138.8990 C   0  0  2  0  0  3  0  0  0  0  0  0
  194.7650  174.1630  138.2000 C   0  0  0  0  0  2  0  0  0  0  0  0
  194.4850  175.6390  140.0780 N   0  0  0  0  0  0  0  0  0  0  0  0
  193.5980  174.5020  140.2570 C   0  0  0  0  0  2  0  0  0  0  0  0
  195.4080  175.2800  139.0050 C   0  0  0  0  0  2  0  0  0  0  0  0
  195.1810  175.9370  141.3330 C   0  0  0  0  0  2  0  0  0  0  0  0
  196.2500  175.8580  144.0320 N   0  0  0  0  0  1  0  0  0  0  0  0
  192.1480  176.4240  143.4880 C   0  0  0  0  0  0  0  0  0  0  0  0
  191.8310  176.5740  145.9400 C   0  0  0  0  0  0  0  0  0  0  0  0
  190.0080  177.3620  144.4080 C   0  0  2  0  0  3  0  0  0  0  0  0
  192.2680  176.4090  147.1130 O   0  0  0  0  0  0  0  0  0  0  0  0
  190.6580  176.5330  143.2950 C   0  0  0  0  0  2  0  0  0  0  0  0
  188.1610  176.4100  145.6840 C   0  0  2  0  0  3  0  0  0  0  0  0
  189.3850  176.4700  146.5750 C   0  0  0  0  0  2  0  0  0  0  0  0
  194.2970  176.0610  142.5510 C   0  0  0  0  0  0  0  0  0  0  0  0
  192.9590  176.2500  142.4090 N   0  0  0  0  0  0  0  0  0  0  0  0
  192.7050  176.4000  144.7740 C   0  0  0  0  0  0  0  0  0  0  0  0
  190.4600  176.9080  145.7120 N   0  0  0  0  0  0  0  0  0  0  0  0
  194.0430  176.2130  144.9200 N   0  0  0  0  0  0  0  0  0  0  0  0
  188.5000  177.1830  144.4100 C   0  0  0  0  0  2  0  0  0  0  0  0
  194.8530  176.0430  143.8420 C   0  0  0  0  0  0  0  0  0  0  0  0
  186.9840  177.0040  146.3750 C   0  0  0  0  0  3  0  0  0  0  0  0
  186.3290  178.0220  145.8230 C   0  0  0  0  0  3  0  0  0  0  0  0
  185.2810  179.0920  147.6360 O   0  0  0  0  0  1  0  0  0  0  0  0
  183.9380  178.7060  145.8170 O   0  0  0  0  0  0  0  0  0  0  0  0
  185.1650  178.6270  146.4740 C   0  0  0  0  0  0  0  0  0  0  0  0
  193.2330  172.3680  139.0350 C   0  0  0  0  0  2  0  0  0  0  0  0
  189.3360  172.4950  137.2800 C   0  0  0  0  0  2  0  0  0  0  0  0
  188.3590  172.8430  139.4290 O   0  0  0  0  0  1  0  0  0  0  0  0
  190.7370  172.4820  139.3910 C   0  0  2  0  0  3  0  0  0  0  0  0
  190.5870  171.9330  136.6120 C   0  0  0  0  0  2  0  0  0  0  0  0
  189.3720  172.1510  138.7680 C   0  0  2  0  0  3  0  0  0  0  0  0
  191.8690  171.9760  138.4730 C   0  0  1  0  0  3  0  0  0  0  0  0
  191.7290  172.5260  137.1830 O   0  0  0  0  0  0  0  0  0  0  0  0
  190.8310  171.8100  140.7530 C   0  0  0  0  0  2  0  0  0  0  0  0
  190.8680  172.7840  141.7580 O   0  0  0  0  0  0  0  0  0  0  0  0
  196.0550  172.3650  143.8790 C   0  0  0  0  0  0  0  0  0  0  0  0
  193.4370  171.5270  144.7900 C   0  0  1  0  0  3  0  0  0  0  0  0
  195.7310  172.4560  145.3420 C   0  0  0  0  0  2  0  0  0  0  0  0
  194.9450  172.2630  142.8790 C   0  0  0  0  0  2  0  0  0  0  0  0
  197.2050  172.5050  143.5050 O   0  0  0  0  0  0  0  0  0  0  0  0
  193.9030  171.2370  143.3530 C   0  0  2  0  0  3  0  0  0  0  0  0
  192.7090  171.2040  142.4090 C   0  0  0  0  0  2  0  0  0  0  0  0
  194.6440  171.4410  145.7290 C   0  0  0  0  0  2  0  0  0  0  0  0
  191.6560  172.9900  144.1210 C   0  0  2  0  0  3  0  0  0  0  0  0
  190.7850  171.7450  143.9360 C   0  0  0  0  0  2  0  0  0  0  0  0
  191.6510  172.2420  142.7820 C   0  0  1  0  0  0  0  0  0  0  0  0
  192.8510  172.8150  144.8880 O   0  0  0  0  0  0  0  0  0  0  0  0
  1 27  1  1  0  0  0
  1  4  1  0  0  0  0
  2  1  1  0  0  0  0
  2  5  1  0  0  0  0
  3  4  1  0  0  0  0
  3  6  1  0  0  0  0
  5  3  1  0  0  0  0
  6 15  1  0  0  0  0
  8 17  1  0  0  0  0
  9 11  2  0  0  0  0
 10 12  1  6  0  0  0
 10 20  1  0  0  0  0
 10 18  1  0  0  0  0
 12  8  1  0  0  0  0
 13 22  1  1  0  0  0
 13 14  1  0  0  0  0
 15 21  2  0  0  0  0
 16 15  1  0  0  0  0
 16  8  2  0  0  0  0
 17 19  2  0  0  0  0
 17  9  1  0  0  0  0
 18  9  1  0  0  0  0
 18 14  1  0  0  0  0
 20 13  1  0  0  0  0
 21  7  1  0  0  0  0
 21 19  1  0  0  0  0
 23 22  2  0  0  0  0
 23 26  1  0  0  0  0
 25 26  2  0  0  0  0
 26 24  1  0  0  0  0
 28 32  1  0  0  0  0
 30 35  1  1  0  0  0
 31 34  1  0  0  0  0
 31 28  1  0  0  0  0
 32 30  1  0  0  0  0
 32 29  1  1  0  0  0
 33 27  1  1  0  0  0
 33 30  1  0  0  0  0
 34 33  1  0  0  0  0
 35 36  1  0  0  0  0
 37 39  1  0  0  0  0
 38 48  1  0  0  0  0
 38 44  1  1  0  0  0
 39 44  1  0  0  0  0
 40 42  1  0  0  0  0
 40 37  1  0  0  0  0
 41 37  2  0  0  0  0
 42 43  1  6  0  0  0
 42 38  1  0  0  0  0
 43 47  1  0  0  0  0
 45 46  1  1  0  0  0
 45 48  1  0  0  0  0
 47 36  1  6  0  0  0
 47 46  1  0  0  0  0
 47 45  1  0  0  0  0
M  END
>  <MODEL>
6

>  <REMARK>
 VINA RESULT:      -7.3      2.868      6.168
  Name = 
  9 active torsions:
  status: ('A' for Active; 'I' for Inactive)
    1  A    between atoms: C_3  and  C_44
    2  A    between atoms: C_13  and  C_18
    3  A    between atoms: C_14  and  C_26
    4  A    between atoms: C_14  and  N_29
    5  A    between atoms: C_16  and  C_22
    6  A    between atoms: C_16  and  O_36
    7  A    between atoms: C_27  and  C_41
    8  A    between atoms: O_36  and  C_38
    9  A    between atoms: C_43  and  C_44
                            x       y       z     vdW  Elec       q    Type
                         _______ _______ _______ _____ _____    ______ ____

>  <TORSDO>
F 9

$$$$
=
 OpenBabel11062418263D

 48 55  0  0  1  0  0  0  0  0999 V2000
  193.0250  176.6030  144.2700 C   0  0  2  0  0  3  0  0  0  0  0  0
  193.0890  176.4790  145.7760 C   0  0  0  0  0  2  0  0  0  0  0  0
  190.7940  176.5530  145.0560 N   0  0  0  0  0  0  0  0  0  0  0  0
  191.6190  176.1970  143.9140 C   0  0  0  0  0  2  0  0  0  0  0  0
  191.6430  176.4150  146.2380 C   0  0  0  0  0  2  0  0  0  0  0  0
  189.6140  175.6860  145.1160 C   0  0  0  0  0  2  0  0  0  0  0  0
  188.2690  176.9600  147.3520 N   0  0  0  0  0  1  0  0  0  0  0  0
  186.5290  177.1500  143.5600 C   0  0  0  0  0  0  0  0  0  0  0  0
  184.6560  178.4890  144.4730 C   0  0  0  0  0  0  0  0  0  0  0  0
  185.0190  178.4030  141.9930 C   0  0  2  0  0  3  0  0  0  0  0  0
  184.0030  178.9290  145.4610 O   0  0  0  0  0  0  0  0  0  0  0  0
  185.8540  177.1370  142.2130 C   0  0  0  0  0  2  0  0  0  0  0  0
  182.6650  178.1900  141.3890 C   0  0  2  0  0  3  0  0  0  0  0  0
  182.7560  178.6930  142.8160 C   0  0  0  0  0  2  0  0  0  0  0  0
  188.2860  176.3890  144.9600 C   0  0  0  0  0  0  0  0  0  0  0  0
  187.6950  176.4720  143.7390 N   0  0  0  0  0  0  0  0  0  0  0  0
  185.9200  177.7690  144.6610 C   0  0  0  0  0  0  0  0  0  0  0  0
  184.1650  178.6560  143.1410 N   0  0  0  0  0  0  0  0  0  0  0  0
  186.5100  177.6890  145.8830 N   0  0  0  0  0  0  0  0  0  0  0  0
  184.0790  178.2350  140.8110 C   0  0  0  0  0  2  0  0  0  0  0  0
  187.6760  177.0150  146.0600 C   0  0  0  0  0  0  0  0  0  0  0  0
  181.7340  179.0390  140.5970 C   0  0  0  0  0  3  0  0  0  0  0  0
  180.4470  179.1070  140.9290 C   0  0  0  0  0  3  0  0  0  0  0  0
  178.4490  179.4170  139.7280 O   0  0  0  0  0  0  0  0  0  0  0  0
  179.7560  181.2880  139.9540 O   0  0  0  0  0  1  0  0  0  0  0  0
  179.5040  179.9350  140.1730 C   0  0  0  0  0  0  0  0  0  0  0  0
  194.0310  175.6850  143.5960 C   0  0  0  0  0  2  0  0  0  0  0  0
  196.4950  172.7500  145.4930 C   0  0  0  0  0  2  0  0  0  0  0  0
  195.1340  171.0050  144.6030 O   0  0  0  0  0  1  0  0  0  0  0  0
  194.4030  173.2520  144.1560 C   0  0  2  0  0  3  0  0  0  0  0  0
  196.4560  174.2330  145.8490 C   0  0  0  0  0  2  0  0  0  0  0  0
  195.0820  172.2890  145.1420 C   0  0  2  0  0  3  0  0  0  0  0  0
  194.6280  174.7100  144.6070 C   0  0  1  0  0  3  0  0  0  0  0  0
  196.0080  174.9700  144.7350 O   0  0  0  0  0  0  0  0  0  0  0  0
  192.9130  172.9440  144.1150 C   0  0  0  0  0  2  0  0  0  0  0  0
  192.6660  171.9310  143.1810 O   0  0  0  0  0  0  0  0  0  0  0  0
  190.2290  173.3530  138.3200 C   0  0  0  0  0  0  0  0  0  0  0  0
  189.2290  172.7550  140.9710 C   0  0  1  0  0  3  0  0  0  0  0  0
  188.9440  172.5900  138.4570 C   0  0  0  0  0  2  0  0  0  0  0  0
  191.1760  173.4220  139.4780 C   0  0  0  0  0  2  0  0  0  0  0  0
  190.5560  173.7990  137.2350 O   0  0  0  0  0  0  0  0  0  0  0  0
  190.4040  173.7280  140.7720 C   0  0  2  0  0  3  0  0  0  0  0  0
  191.3320  173.6870  141.9780 C   0  0  0  0  0  2  0  0  0  0  0  0
  188.2590  172.9030  139.7960 C   0  0  0  0  0  2  0  0  0  0  0  0
  190.5300  171.1270  142.1630 C   0  0  2  0  0  3  0  0  0  0  0  0
  190.2650  171.9360  143.4340 C   0  0  0  0  0  2  0  0  0  0  0  0
  191.4640  172.2780  142.5550 C   0  0  1  0  0  0  0  0  0  0  0  0
  189.6830  171.4130  141.0450 O   0  0  0  0  0  0  0  0  0  0  0  0
  1 27  1  6  0  0  0
  1  2  1  0  0  0  0
  2  5  1  0  0  0  0
  3  6  1  0  0  0  0
  3  5  1  0  0  0  0
  4  1  1  0  0  0  0
  4  3  1  0  0  0  0
  8 16  2  0  0  0  0
  8 17  1  0  0  0  0
  9 17  1  0  0  0  0
  9 11  2  0  0  0  0
 10 20  1  6  0  0  0
 10 12  1  0  0  0  0
 10 18  1  0  0  0  0
 12  8  1  0  0  0  0
 13 22  1  6  0  0  0
 13 14  1  0  0  0  0
 14 18  1  0  0  0  0
 15  6  1  0  0  0  0
 15 21  2  0  0  0  0
 16 15  1  0  0  0  0
 17 19  2  0  0  0  0
 18  9  1  0  0  0  0
 19 21  1  0  0  0  0
 20 13  1  0  0  0  0
 21  7  1  0  0  0  0
 22 23  2  0  0  0  0
 24 26  2  0  0  0  0
 25 26  1  0  0  0  0
 26 23  1  0  0  0  0
 28 31  1  0  0  0  0
 30 35  1  1  0  0  0
 30 33  1  0  0  0  0
 30 32  1  0  0  0  0
 32 29  1  6  0  0  0
 32 28  1  0  0  0  0
 33 27  1  6  0  0  0
 33 34  1  0  0  0  0
 34 31  1  0  0  0  0
 36 35  1  0  0  0  0
 37 39  1  0  0  0  0
 37 40  1  0  0  0  0
 38 44  1  6  0  0  0
 38 48  1  0  0  0  0
 39 44  1  0  0  0  0
 41 37  2  0  0  0  0
 42 40  1  6  0  0  0
 42 38  1  0  0  0  0
 42 43  1  0  0  0  0
 43 47  1  0  0  0  0
 45 47  1  0  0  0  0
 45 46  1  1  0  0  0
 47 36  1  1  0  0  0
 47 46  1  0  0  0  0
 48 45  1  0  0  0  0
M  END
>  <MODEL>
7

>  <REMARK>
 VINA RESULT:      -7.2      3.323      6.382
  Name = 
  9 active torsions:
  status: ('A' for Active; 'I' for Inactive)
    1  A    between atoms: C_3  and  C_44
    2  A    between atoms: C_13  and  C_18
    3  A    between atoms: C_14  and  C_26
    4  A    between atoms: C_14  and  N_29
    5  A    between atoms: C_16  and  C_22
    6  A    between atoms: C_16  and  O_36
    7  A    between atoms: C_27  and  C_41
    8  A    between atoms: O_36  and  C_38
    9  A    between atoms: C_43  and  C_44
                            x       y       z     vdW  Elec       q    Type
                         _______ _______ _______ _____ _____    ______ ____

>  <TORSDO>
F 9

$$$$
=
 OpenBabel11062418263D

 48 55  0  0  1  0  0  0  0  0999 V2000
  190.8200  172.3880  143.5570 C   0  0  2  0  0  3  0  0  0  0  0  0
  191.1140  173.2100  142.3220 C   0  0  0  0  0  2  0  0  0  0  0  0
  189.5320  174.3650  143.7180 N   0  0  0  0  0  0  0  0  0  0  0  0
  190.2060  173.3630  144.5270 C   0  0  0  0  0  2  0  0  0  0  0  0
  190.2980  174.4820  142.4800 C   0  0  0  0  0  2  0  0  0  0  0  0
  189.4580  175.6350  144.4470 C   0  0  0  0  0  2  0  0  0  0  0  0
  188.2480  176.8120  146.8100 N   0  0  0  0  0  1  0  0  0  0  0  0
  186.2720  177.1280  143.1440 C   0  0  0  0  0  0  0  0  0  0  0  0
  184.4510  178.4170  144.2220 C   0  0  0  0  0  0  0  0  0  0  0  0
  184.6590  178.4260  141.7230 C   0  0  2  0  0  3  0  0  0  0  0  0
  183.8590  178.8130  145.2650 O   0  0  0  0  0  0  0  0  0  0  0  0
  185.5140  177.1600  141.8420 C   0  0  0  0  0  2  0  0  0  0  0  0
  182.2730  178.2160  141.2600 C   0  0  2  0  0  3  0  0  0  0  0  0
  182.4500  178.6650  142.6960 C   0  0  0  0  0  2  0  0  0  0  0  0
  188.1180  176.3310  144.4020 C   0  0  0  0  0  0  0  0  0  0  0  0
  187.4510  176.4550  143.2240 N   0  0  0  0  0  0  0  0  0  0  0  0
  185.7290  177.7000  144.3040 C   0  0  0  0  0  0  0  0  0  0  0  0
  183.8770  178.6290  142.9310 N   0  0  0  0  0  0  0  0  0  0  0  0
  186.3950  177.5800  145.4820 N   0  0  0  0  0  0  0  0  0  0  0  0
  183.6470  178.2950  140.5970 C   0  0  0  0  0  2  0  0  0  0  0  0
  187.5750  176.9110  145.5610 C   0  0  0  0  0  0  0  0  0  0  0  0
  181.2880  179.0850  140.5600 C   0  0  0  0  0  3  0  0  0  0  0  0
  180.1730  179.4630  141.1790 C   0  0  0  0  0  3  0  0  0  0  0  0
  179.5550  181.0960  139.6030 O   0  0  0  0  0  0  0  0  0  0  0  0
  177.8410  180.2780  140.8900 O   0  0  0  0  0  1  0  0  0  0  0  0
  179.1850  180.3210  140.5210 C   0  0  0  0  0  0  0  0  0  0  0  0
  192.0900  171.7890  144.1370 C   0  0  0  0  0  2  0  0  0  0  0  0
  194.1720  168.4140  142.5380 C   0  0  0  0  0  2  0  0  0  0  0  0
  196.1740  169.7030  142.3760 O   0  0  0  0  0  1  0  0  0  0  0  0
  194.2110  170.8800  143.1170 C   0  0  2  0  0  3  0  0  0  0  0  0
  192.6560  168.5650  142.6050 C   0  0  0  0  0  2  0  0  0  0  0  0
  194.7910  169.7750  142.2210 C   0  0  2  0  0  3  0  0  0  0  0  0
  192.6770  170.7490  143.1870 C   0  0  1  0  0  3  0  0  0  0  0  0
  192.3200  169.4620  143.6370 O   0  0  0  0  0  0  0  0  0  0  0  0
  194.5930  172.2340  142.5350 C   0  0  0  0  0  2  0  0  0  0  0  0
  195.8230  172.6450  143.0640 O   0  0  0  0  0  0  0  0  0  0  0  0
  192.8550  176.0240  146.4340 C   0  0  0  0  0  0  0  0  0  0  0  0
  195.1580  176.4100  144.7220 C   0  0  1  0  0  3  0  0  0  0  0  0
  193.9510  176.9430  146.8880 C   0  0  0  0  0  2  0  0  0  0  0  0
  193.1300  175.0160  145.3610 C   0  0  0  0  0  2  0  0  0  0  0  0
  191.7920  176.0110  147.0270 O   0  0  0  0  0  0  0  0  0  0  0  0
  193.9090  175.6740  144.2100 C   0  0  2  0  0  3  0  0  0  0  0  0
  194.3000  174.6410  143.1620 C   0  0  0  0  0  2  0  0  0  0  0  0
  194.7200  177.5160  145.6860 C   0  0  0  0  0  2  0  0  0  0  0  0
  196.5910  174.4910  144.5620 C   0  0  2  0  0  3  0  0  0  0  0  0
  196.8050  174.8500  143.0910 C   0  0  0  0  0  2  0  0  0  0  0  0
  195.6300  173.9630  143.4910 C   0  0  1  0  0  0  0  0  0  0  0  0
  196.0400  175.5210  145.3890 O   0  0  0  0  0  0  0  0  0  0  0  0
  1 27  1  1  0  0  0
  1  4  1  0  0  0  0
  2  5  1  0  0  0  0
  2  1  1  0  0  0  0
  3  6  1  0  0  0  0
  3  4  1  0  0  0  0
  5  3  1  0  0  0  0
  8 16  2  0  0  0  0
  8 17  1  0  0  0  0
  9 17  1  0  0  0  0
  9 11  2  0  0  0  0
 10 20  1  6  0  0  0
 10 12  1  0  0  0  0
 10 18  1  0  0  0  0
 12  8  1  0  0  0  0
 13 22  1  6  0  0  0
 13 14  1  0  0  0  0
 14 18  1  0  0  0  0
 15  6  1  0  0  0  0
 15 21  2  0  0  0  0
 16 15  1  0  0  0  0
 17 19  2  0  0  0  0
 18  9  1  0  0  0  0
 19 21  1  0  0  0  0
 20 13  1  0  0  0  0
 21  7  1  0  0  0  0
 22 23  2  0  0  0  0
 24 26  2  0  0  0  0
 26 25  1  0  0  0  0
 26 23  1  0  0  0  0
 28 31  1  0  0  0  0
 30 35  1  6  0  0  0
 30 33  1  0  0  0  0
 31 34  1  0  0  0  0
 32 29  1  1  0  0  0
 32 28  1  0  0  0  0
 32 30  1  0  0  0  0
 33 34  1  0  0  0  0
 33 27  1  1  0  0  0
 35 36  1  0  0  0  0
 37 39  1  0  0  0  0
 37 41  2  0  0  0  0
 38 48  1  0  0  0  0
 38 44  1  1  0  0  0
 40 37  1  0  0  0  0
 42 43  1  6  0  0  0
 42 38  1  0  0  0  0
 42 40  1  0  0  0  0
 43 47  1  0  0  0  0
 44 39  1  0  0  0  0
 45 46  1  6  0  0  0
 45 48  1  0  0  0  0
 46 47  1  0  0  0  0
 47 36  1  6  0  0  0
 47 45  1  0  0  0  0
M  END
>  <MODEL>
8

>  <REMARK>
 VINA RESULT:      -7.2      3.220      6.010
  Name = 
  9 active torsions:
  status: ('A' for Active; 'I' for Inactive)
    1  A    between atoms: C_3  and  C_44
    2  A    between atoms: C_13  and  C_18
    3  A    between atoms: C_14  and  C_26
    4  A    between atoms: C_14  and  N_29
    5  A    between atoms: C_16  and  C_22
    6  A    between atoms: C_16  and  O_36
    7  A    between atoms: C_27  and  C_41
    8  A    between atoms: O_36  and  C_38
    9  A    between atoms: C_43  and  C_44
                            x       y       z     vdW  Elec       q    Type
                         _______ _______ _______ _____ _____    ______ ____

>  <TORSDO>
F 9

$$$$
=
 OpenBabel11062418263D

 48 55  0  0  1  0  0  0  0  0999 V2000
  185.9430  177.9070  143.0130 C   0  0  2  0  0  3  0  0  0  0  0  0
  184.5000  177.8970  142.5600 C   0  0  0  0  0  2  0  0  0  0  0  0
  185.9460  178.2900  140.6790 N   0  0  0  0  0  0  0  0  0  0  0  0
  186.7390  177.7110  141.7500 C   0  0  0  0  0  2  0  0  0  0  0  0
  184.5470  178.1110  141.0560 C   0  0  0  0  0  2  0  0  0  0  0  0
  186.2660  177.6380  139.4050 C   0  0  0  0  0  2  0  0  0  0  0  0
  186.6710  175.8710  137.1370 N   0  0  0  0  0  1  0  0  0  0  0  0
  188.4310  174.9090  140.8010 C   0  0  0  0  0  0  0  0  0  0  0  0
  189.4440  172.8840  139.7960 C   0  0  0  0  0  0  0  0  0  0  0  0
  190.2940  173.7280  142.0000 C   0  0  2  0  0  3  0  0  0  0  0  0
  189.5140  172.0470  138.8530 O   0  0  0  0  0  0  0  0  0  0  0  0
  188.9860  174.5130  142.1440 C   0  0  0  0  0  2  0  0  0  0  0  0
  190.4980  171.5410  143.0590 C   0  0  2  0  0  3  0  0  0  0  0  0
  190.4050  171.3450  141.5590 C   0  0  0  0  0  2  0  0  0  0  0  0
  187.0670  176.3620  139.5140 C   0  0  0  0  0  0  0  0  0  0  0  0
  187.6560  176.0220  140.6910 N   0  0  0  0  0  0  0  0  0  0  0  0
  188.6190  174.0920  139.6770 C   0  0  0  0  0  0  0  0  0  0  0  0
  190.1460  172.6630  141.0220 N   0  0  0  0  0  0  0  0  0  0  0  0
  188.0330  174.4300  138.4990 N   0  0  0  0  0  0  0  0  0  0  0  0
  190.6620  173.0400  143.3030 C   0  0  0  0  0  2  0  0  0  0  0  0
  187.2620  175.5440  138.3890 C   0  0  0  0  0  0  0  0  0  0  0  0
  191.6500  170.7770  143.6120 C   0  0  0  0  0  3  0  0  0  0  0  0
  192.8160  171.3850  143.8190 C   0  0  0  0  0  3  0  0  0  0  0  0
  195.1260  171.1120  144.1670 O   0  0  0  0  0  0  0  0  0  0  0  0
  193.7960  169.5000  145.1120 O   0  0  0  0  0  1  0  0  0  0  0  0
  193.9680  170.6640  144.3660 C   0  0  0  0  0  0  0  0  0  0  0  0
  186.2210  176.7830  143.9970 C   0  0  0  0  0  2  0  0  0  0  0  0
  185.0010  178.9490  147.4760 C   0  0  0  0  0  2  0  0  0  0  0  0
  187.2380  178.9120  148.3060 O   0  0  0  0  0  1  0  0  0  0  0  0
  186.8460  177.7110  146.2590 C   0  0  2  0  0  3  0  0  0  0  0  0
  184.0660  178.2080  146.5250 C   0  0  0  0  0  2  0  0  0  0  0  0
  186.2930  178.1470  147.6250 C   0  0  2  0  0  3  0  0  0  0  0  0
  185.7060  177.1470  145.3870 C   0  0  1  0  0  3  0  0  0  0  0  0
  184.6750  178.1000  145.2600 O   0  0  0  0  0  0  0  0  0  0  0  0
  187.9110  176.6460  146.4780 C   0  0  0  0  0  2  0  0  0  0  0  0
  189.1310  177.2560  146.7900 O   0  0  0  0  0  0  0  0  0  0  0  0
  194.4650  176.5240  145.1750 C   0  0  0  0  0  0  0  0  0  0  0  0
  192.3510  174.7280  146.0060 C   0  0  1  0  0  3  0  0  0  0  0  0
  194.8150  175.3300  146.0150 C   0  0  0  0  0  2  0  0  0  0  0  0
  193.0490  177.0110  145.1330 C   0  0  0  0  0  2  0  0  0  0  0  0
  195.3490  177.1660  144.6380 O   0  0  0  0  0  0  0  0  0  0  0  0
  192.0890  175.8230  144.9600 C   0  0  2  0  0  3  0  0  0  0  0  0
  190.6400  176.2840  145.0310 C   0  0  0  0  0  2  0  0  0  0  0  0
  193.7810  174.2080  145.8320 C   0  0  0  0  0  2  0  0  0  0  0  0
  190.8600  175.6620  147.6380 C   0  0  2  0  0  3  0  0  0  0  0  0
  189.7220  174.9190  146.9340 C   0  0  0  0  0  2  0  0  0  0  0  0
  190.1170  176.3170  146.4680 C   0  0  1  0  0  0  0  0  0  0  0  0
  192.1860  175.2280  147.3240 O   0  0  0  0  0  0  0  0  0  0  0  0
  1 27  1  1  0  0  0
  2  1  1  0  0  0  0
  3  5  1  0  0  0  0
  3  4  1  0  0  0  0
  4  1  1  0  0  0  0
  5  2  1  0  0  0  0
  6 15  1  0  0  0  0
  6  3  1  0  0  0  0
  7 21  1  0  0  0  0
  8 12  1  0  0  0  0
  9 18  1  0  0  0  0
 10 12  1  1  0  0  0
 10 20  1  0  0  0  0
 11  9  2  0  0  0  0
 13 20  1  0  0  0  0
 13 22  1  6  0  0  0
 14 13  1  0  0  0  0
 15 16  2  0  0  0  0
 16  8  1  0  0  0  0
 17  9  1  0  0  0  0
 17  8  2  0  0  0  0
 18 14  1  0  0  0  0
 18 10  1  0  0  0  0
 19 17  1  0  0  0  0
 21 19  2  0  0  0  0
 21 15  1  0  0  0  0
 22 23  2  0  0  0  0
 23 26  1  0  0  0  0
 24 26  2  0  0  0  0
 26 25  1  0  0  0  0
 28 32  1  0  0  0  0
 30 35  1  1  0  0  0
 30 32  1  0  0  0  0
 31 28  1  0  0  0  0
 32 29  1  6  0  0  0
 33 27  1  6  0  0  0
 33 30  1  0  0  0  0
 34 33  1  0  0  0  0
 34 31  1  0  0  0  0
 35 36  1  0  0  0  0
 37 39  1  0  0  0  0
 38 44  1  1  0  0  0
 38 48  1  0  0  0  0
 40 37  1  0  0  0  0
 41 37  2  0  0  0  0
 42 43  1  1  0  0  0
 42 40  1  0  0  0  0
 42 38  1  0  0  0  0
 43 47  1  0  0  0  0
 44 39  1  0  0  0  0
 45 46  1  6  0  0  0
 47 36  1  1  0  0  0
 47 46  1  0  0  0  0
 47 45  1  0  0  0  0
 48 45  1  0  0  0  0
M  END
>  <MODEL>
9

>  <REMARK>
 VINA RESULT:      -7.1      2.399      8.346
  Name = 
  9 active torsions:
  status: ('A' for Active; 'I' for Inactive)
    1  A    between atoms: C_3  and  C_44
    2  A    between atoms: C_13  and  C_18
    3  A    between atoms: C_14  and  C_26
    4  A    between atoms: C_14  and  N_29
    5  A    between atoms: C_16  and  C_22
    6  A    between atoms: C_16  and  O_36
    7  A    between atoms: C_27  and  C_41
    8  A    between atoms: O_36  and  C_38
    9  A    between atoms: C_43  and  C_44
                            x       y       z     vdW  Elec       q    Type
                         _______ _______ _______ _____ _____    ______ ____

>  <TORSDO>
F 9

$$$$
