=
 OpenBabel11062419503D

 30 32  0  0  1  0  0  0  0  0999 V2000
  186.2090  177.6020  147.5960 C   0  0  0  0  0  3  0  0  0  0  0  0
  185.7960  178.0340  143.5250 C   0  0  1  0  0  3  0  0  0  0  0  0
  184.8950  178.6390  142.6030 N   0  0  0  0  0  1  0  0  0  0  0  0
  187.4000  176.6740  144.4070 C   0  0  0  0  0  3  0  0  0  0  0  0
  186.6260  177.0430  143.2230 C   0  0  0  0  0  0  0  0  0  0  0  0
  187.0650  177.5360  145.3590 C   0  0  2  0  0  3  0  0  0  0  0  0
  184.9390  178.1120  147.0150 C   0  0  0  0  0  3  0  0  0  0  0  0
  187.2480  177.3160  146.8020 C   0  0  0  0  0  0  0  0  0  0  0  0
  184.8670  178.4780  145.7630 N   0  0  0  0  0  0  0  0  0  0  0  0
  186.0540  178.5330  144.9000 C   0  0  2  0  0  3  0  0  0  0  0  0
  188.4830  176.7050  147.3790 C   0  0  1  0  0  3  0  0  0  0  0  0
  188.5820  175.3780  147.0030 F   0  0  0  0  0  0  0  0  0  0  0  0
  189.7200  177.4750  146.9370 C   0  0  0  0  0  2  0  0  0  0  0  0
  190.8270  176.5230  146.5120 C   0  0  0  0  0  2  0  0  0  0  0  0
  190.9720  176.4840  144.9930 C   0  0  2  0  0  3  0  0  0  0  0  0
  192.6820  174.4130  145.6420 S   0  0  0  0  0  0  0  0  0  0  0  0
  192.3130  175.8570  144.6060 C   0  0  2  0  0  3  0  0  0  0  0  0
  194.3970  174.6410  145.1590 C   0  0  0  0  0  2  0  0  0  0  0  0
  193.3950  176.8310  144.7490 N   0  0  0  0  0  2  0  0  0  0  0  0
  194.6290  176.1340  145.1050 C   0  0  2  0  0  3  0  0  0  0  0  0
  195.7110  176.4510  144.0940 C   0  0  0  0  0  1  0  0  0  0  0  0
  190.8760  177.8970  144.4350 C   0  0  0  0  0  2  0  0  0  0  0  0
  190.4080  177.8520  142.9940 C   0  0  0  0  0  1  0  0  0  0  0  0
  186.6620  176.3310  141.9060 C   0  0  1  0  0  3  0  0  0  0  0  0
  187.3890  177.1600  140.8550 C   0  0  0  0  0  2  0  0  0  0  0  0
  186.4600  177.4820  139.7000 C   0  0  0  0  0  1  0  0  0  0  0  0
  187.3250  175.0470  142.0640 N   0  0  0  0  0  2  0  0  0  0  0  0
  188.4790  175.0530  141.1790 C   0  0  0  0  0  2  0  0  0  0  0  0
  189.6780  174.4460  141.8850 C   0  0  0  0  0  2  0  0  0  0  0  0
  189.2360  173.7240  143.1440 C   0  0  0  0  0  1  0  0  0  0  0  0
  2  3  1  6  0  0  0
  2 10  1  0  0  0  0
  5  2  1  0  0  0  0
  5  4  2  0  0  0  0
  6  4  1  6  0  0  0
  6  8  1  0  0  0  0
  7  1  1  0  0  0  0
  8 11  1  0  0  0  0
  8  1  2  0  0  0  0
  9  7  2  0  0  0  0
 10  6  1  0  0  0  0
 10  9  1  1  0  0  0
 11 12  1  6  0  0  0
 13 11  1  0  0  0  0
 14 13  1  0  0  0  0
 15 22  1  1  0  0  0
 15 14  1  0  0  0  0
 17 19  1  0  0  0  0
 17 15  1  1  0  0  0
 17 16  1  0  0  0  0
 18 16  1  0  0  0  0
 19 20  1  0  0  0  0
 20 21  1  6  0  0  0
 20 18  1  0  0  0  0
 23 22  1  0  0  0  0
 24 25  1  6  0  0  0
 24 27  1  0  0  0  0
 24  5  1  0  0  0  0
 26 25  1  0  0  0  0
 28 29  1  0  0  0  0
 28 27  1  0  0  0  0
 29 30  1  0  0  0  0
M  END
>  <MODEL>
1

>  <REMARK>
 VINA RESULT:      -6.3      0.000      0.000
  Name = 
  11 active torsions:
  status: ('A' for Active; 'I' for Inactive)
    1  A    between atoms: C_1  and  C_28
    2  A    between atoms: C_2  and  C_8
    3  A    between atoms: C_2  and  C_11
    4  A    between atoms: C_2  and  C_12
    5  A    between atoms: C_6  and  C_20
    6  A    between atoms: C_7  and  C_13
    7  A    between atoms: C_7  and  C_22
    8  A    between atoms: C_8  and  C_13
    9  A    between atoms: N_10  and  C_20
   10  A    between atoms: N_10  and  C_28
   11  A    between atoms: C_16  and  C_28
                            x       y       z     vdW  Elec       q    Type
                         _______ _______ _______ _____ _____    ______ ____

>  <TORSDO>
F 11

$$$$
=
 OpenBabel11062419503D

 30 32  0  0  1  0  0  0  0  0999 V2000
  190.5130  175.3530  146.4350 C   0  0  0  0  0  3  0  0  0  0  0  0
  186.7460  176.9480  145.9880 C   0  0  0  0  0  0  0  0  0  0  0  0
  185.4740  176.8720  146.6240 N   0  0  0  0  0  1  0  0  0  0  0  0
  188.3630  177.2910  144.4180 C   0  0  0  0  0  2  0  0  0  0  0  0
  186.9360  177.3320  144.7330 C   0  0  0  0  0  0  0  0  0  0  0  0
  188.9880  176.9720  145.5450 C   0  0  2  0  0  3  0  0  0  0  0  0
  189.3610  174.7960  147.1930 C   0  0  0  0  0  3  0  0  0  0  0  0
  190.3440  176.4090  145.6300 C   0  0  0  0  0  0  0  0  0  0  0  0
  188.2180  175.4260  147.2480 N   0  0  0  0  0  0  0  0  0  0  0  0
  188.0460  176.7720  146.6860 C   0  0  2  0  0  3  0  0  0  0  0  0
  191.4800  176.8990  144.7920 C   0  0  1  0  0  3  0  0  0  0  0  0
  192.6540  176.8880  145.5230 F   0  0  0  0  0  0  0  0  0  0  0  0
  191.6270  176.0490  143.5380 C   0  0  0  0  0  2  0  0  0  0  0  0
  192.9020  175.2210  143.5940 C   0  0  0  0  0  2  0  0  0  0  0  0
  192.5990  173.7290  143.4670 C   0  0  2  0  0  3  0  0  0  0  0  0
  190.2490  172.4180  144.0920 S   0  0  0  0  0  0  0  0  0  0  0  0
  191.1640  173.5220  142.9790 C   0  0  2  0  0  3  0  0  0  0  0  0
  189.1200  172.1480  142.7210 C   0  0  0  0  0  2  0  0  0  0  0  0
  191.1560  172.9500  141.6330 N   0  0  0  0  0  2  0  0  0  0  0  0
  189.9710  172.1100  141.4710 C   0  0  2  0  0  3  0  0  0  0  0  0
  189.1610  172.5850  140.2830 C   0  0  0  0  0  1  0  0  0  0  0  0
  192.7940  173.0540  144.8170 C   0  0  0  0  0  2  0  0  0  0  0  0
  193.8630  173.7830  145.6080 C   0  0  0  0  0  1  0  0  0  0  0  0
  185.8410  177.6300  143.7560 C   0  0  1  0  0  3  0  0  0  0  0  0
  185.9090  179.0760  143.2820 C   0  0  0  0  0  2  0  0  0  0  0  0
  185.3090  180.0030  144.3220 C   0  0  0  0  0  1  0  0  0  0  0  0
  185.9460  176.7340  142.6160 N   0  0  0  0  0  2  0  0  0  0  0  0
  186.0140  177.5660  141.4250 C   0  0  0  0  0  2  0  0  0  0  0  0
  187.0370  177.0020  140.4560 C   0  0  0  0  0  2  0  0  0  0  0  0
  187.8890  175.9520  141.1440 C   0  0  0  0  0  1  0  0  0  0  0  0
  1  7  1  0  0  0  0
  2  3  1  0  0  0  0
  4  5  1  0  0  0  0
  5  2  2  0  0  0  0
  6  4  1  6  0  0  0
  6  8  1  0  0  0  0
  6 10  1  0  0  0  0
  7  9  2  0  0  0  0
  8  1  2  0  0  0  0
 10  2  1  6  0  0  0
 10  9  1  0  0  0  0
 11 12  1  1  0  0  0
 11  8  1  0  0  0  0
 13 14  1  0  0  0  0
 13 11  1  0  0  0  0
 15 14  1  1  0  0  0
 15 22  1  0  0  0  0
 17 15  1  1  0  0  0
 17 16  1  0  0  0  0
 18 16  1  0  0  0  0
 19 17  1  0  0  0  0
 20 21  1  6  0  0  0
 20 19  1  0  0  0  0
 20 18  1  0  0  0  0
 22 23  1  0  0  0  0
 24 25  1  6  0  0  0
 24  5  1  0  0  0  0
 25 26  1  0  0  0  0
 27 24  1  0  0  0  0
 28 27  1  0  0  0  0
 29 30  1  0  0  0  0
 29 28  1  0  0  0  0
M  END
>  <MODEL>
2

>  <REMARK>
 VINA RESULT:      -6.2      2.155      4.416
  Name = 
  11 active torsions:
  status: ('A' for Active; 'I' for Inactive)
    1  A    between atoms: C_1  and  C_28
    2  A    between atoms: C_2  and  C_8
    3  A    between atoms: C_2  and  C_11
    4  A    between atoms: C_2  and  C_12
    5  A    between atoms: C_6  and  C_20
    6  A    between atoms: C_7  and  C_13
    7  A    between atoms: C_7  and  C_22
    8  A    between atoms: C_8  and  C_13
    9  A    between atoms: N_10  and  C_20
   10  A    between atoms: N_10  and  C_28
   11  A    between atoms: C_16  and  C_28
                            x       y       z     vdW  Elec       q    Type
                         _______ _______ _______ _____ _____    ______ ____

>  <TORSDO>
F 11

$$$$
=
 OpenBabel11062419503D

 30 32  0  0  1  0  0  0  0  0999 V2000
  191.0870  176.0680  147.0870 C   0  0  0  0  0  3  0  0  0  0  0  0
  192.8700  173.7960  144.1570 C   0  0  0  0  0  0  0  0  0  0  0  0
  194.1770  173.5470  143.6480 N   0  0  0  0  0  1  0  0  0  0  0  0
  190.6010  173.9490  144.3090 C   0  0  0  0  0  2  0  0  0  0  0  0
  191.7490  173.5870  143.4790 C   0  0  0  0  0  0  0  0  0  0  0  0
  191.0850  174.2720  145.5020 C   0  0  2  0  0  3  0  0  0  0  0  0
  192.5060  176.3010  146.7090 C   0  0  0  0  0  3  0  0  0  0  0  0
  190.3860  175.0880  146.5060 C   0  0  0  0  0  0  0  0  0  0  0  0
  193.1550  175.4490  145.9610 N   0  0  0  0  0  0  0  0  0  0  0  0
  192.5720  174.1600  145.5660 C   0  0  2  0  0  3  0  0  0  0  0  0
  188.9320  174.9260  146.8130 C   0  0  1  0  0  3  0  0  0  0  0  0
  188.7670  174.3140  148.0420 F   0  0  0  0  0  0  0  0  0  0  0  0
  188.2260  176.2740  146.7920 C   0  0  0  0  0  2  0  0  0  0  0  0
  187.4380  176.4510  145.5030 C   0  0  0  0  0  2  0  0  0  0  0  0
  187.9090  177.6810  144.7300 C   0  0  2  0  0  3  0  0  0  0  0  0
  185.1750  178.0750  144.7740 S   0  0  0  0  0  0  0  0  0  0  0  0
  186.7570  178.2580  143.9040 C   0  0  2  0  0  3  0  0  0  0  0  0
  184.3930  178.2850  143.1710 C   0  0  0  0  0  2  0  0  0  0  0  0
  186.6660  177.5880  142.6090 N   0  0  0  0  0  2  0  0  0  0  0  0
  185.2720  177.5660  142.1720 C   0  0  2  0  0  3  0  0  0  0  0  0
  185.1470  178.2210  140.8120 C   0  0  0  0  0  1  0  0  0  0  0  0
  189.0640  177.2960  143.8160 C   0  0  0  0  0  2  0  0  0  0  0  0
  190.3010  178.0910  144.1850 C   0  0  0  0  0  1  0  0  0  0  0  0
  191.6840  173.1730  142.0410 C   0  0  1  0  0  3  0  0  0  0  0  0
  190.8260  171.9270  141.8690 C   0  0  0  0  0  2  0  0  0  0  0  0
  191.5970  170.6910  142.2900 C   0  0  0  0  0  1  0  0  0  0  0  0
  191.1370  174.2600  141.2450 N   0  0  0  0  0  2  0  0  0  0  0  0
  189.8690  173.7950  140.7050 C   0  0  0  0  0  2  0  0  0  0  0  0
  188.7660  174.7780  141.0520 C   0  0  0  0  0  2  0  0  0  0  0  0
  187.8300  174.1750  142.0820 C   0  0  0  0  0  1  0  0  0  0  0  0
  3  2  1  0  0  0  0
  5  2  2  0  0  0  0
  5  4  1  0  0  0  0
  6  4  1  6  0  0  0
  6 10  1  0  0  0  0
  6  8  1  0  0  0  0
  7  1  1  0  0  0  0
  8 11  1  0  0  0  0
  8  1  2  0  0  0  0
  9  7  2  0  0  0  0
 10  2  1  6  0  0  0
 10  9  1  0  0  0  0
 11 12  1  1  0  0  0
 13 11  1  0  0  0  0
 14 13  1  0  0  0  0
 15 22  1  6  0  0  0
 15 14  1  0  0  0  0
 17 15  1  1  0  0  0
 17 16  1  0  0  0  0
 18 16  1  0  0  0  0
 19 17  1  0  0  0  0
 20 21  1  6  0  0  0
 20 19  1  0  0  0  0
 20 18  1  0  0  0  0
 22 23  1  0  0  0  0
 24 25  1  1  0  0  0
 24  5  1  0  0  0  0
 25 26  1  0  0  0  0
 27 24  1  0  0  0  0
 28 29  1  0  0  0  0
 28 27  1  0  0  0  0
 29 30  1  0  0  0  0
M  END
>  <MODEL>
3

>  <REMARK>
 VINA RESULT:      -6.1      2.507      6.385
  Name = 
  11 active torsions:
  status: ('A' for Active; 'I' for Inactive)
    1  A    between atoms: C_1  and  C_28
    2  A    between atoms: C_2  and  C_8
    3  A    between atoms: C_2  and  C_11
    4  A    between atoms: C_2  and  C_12
    5  A    between atoms: C_6  and  C_20
    6  A    between atoms: C_7  and  C_13
    7  A    between atoms: C_7  and  C_22
    8  A    between atoms: C_8  and  C_13
    9  A    between atoms: N_10  and  C_20
   10  A    between atoms: N_10  and  C_28
   11  A    between atoms: C_16  and  C_28
                            x       y       z     vdW  Elec       q    Type
                         _______ _______ _______ _____ _____    ______ ____

>  <TORSDO>
F 11

$$$$
=
 OpenBabel11062419503D

 30 32  0  0  1  0  0  0  0  0999 V2000
  190.4920  175.2100  146.1540 C   0  0  0  0  0  3  0  0  0  0  0  0
  186.8010  177.0170  145.9530 C   0  0  0  0  0  0  0  0  0  0  0  0
  185.5780  177.0280  146.6830 N   0  0  0  0  0  1  0  0  0  0  0  0
  188.3120  177.2370  144.2610 C   0  0  0  0  0  2  0  0  0  0  0  0
  186.9170  177.3680  144.6790 C   0  0  0  0  0  0  0  0  0  0  0  0
  189.0010  176.9010  145.3440 C   0  0  2  0  0  3  0  0  0  0  0  0
  189.3700  174.7350  147.0070 C   0  0  0  0  0  3  0  0  0  0  0  0
  190.3240  176.2590  145.3410 C   0  0  0  0  0  0  0  0  0  0  0  0
  188.2730  175.4330  147.1330 N   0  0  0  0  0  0  0  0  0  0  0  0
  188.1380  176.7760  146.5560 C   0  0  2  0  0  3  0  0  0  0  0  0
  191.4200  176.6660  144.4110 C   0  0  1  0  0  3  0  0  0  0  0  0
  192.4910  177.1730  145.1240 F   0  0  0  0  0  0  0  0  0  0  0  0
  191.8630  175.4890  143.5550 C   0  0  0  0  0  2  0  0  0  0  0  0
  190.8470  175.2040  142.4590 C   0  0  0  0  0  2  0  0  0  0  0  0
  190.5730  173.7080  142.3320 C   0  0  2  0  0  3  0  0  0  0  0  0
  188.6790  172.9010  140.4890 S   0  0  0  0  0  0  0  0  0  0  0  0
  190.4030  173.3260  140.8600 C   0  0  2  0  0  3  0  0  0  0  0  0
  189.3130  172.0400  139.0470 C   0  0  0  0  0  2  0  0  0  0  0  0
  191.2550  172.1860  140.5240 N   0  0  0  0  0  2  0  0  0  0  0  0
  190.6130  171.3960  139.4750 C   0  0  2  0  0  3  0  0  0  0  0  0
  191.5410  171.2690  138.2840 C   0  0  0  0  0  1  0  0  0  0  0  0
  189.3140  173.3540  143.1110 C   0  0  0  0  0  2  0  0  0  0  0  0
  189.6210  172.2620  144.1180 C   0  0  0  0  0  1  0  0  0  0  0  0
  185.7710  177.7130  143.7800 C   0  0  1  0  0  3  0  0  0  0  0  0
  185.8060  179.1850  143.3890 C   0  0  0  0  0  2  0  0  0  0  0  0
  185.2900  180.0470  144.5250 C   0  0  0  0  0  1  0  0  0  0  0  0
  185.8210  176.8870  142.5850 N   0  0  0  0  0  2  0  0  0  0  0  0
  185.6180  177.7700  141.4480 C   0  0  0  0  0  2  0  0  0  0  0  0
  186.5860  177.4130  140.3340 C   0  0  0  0  0  2  0  0  0  0  0  0
  187.5990  176.3960  140.8250 C   0  0  0  0  0  1  0  0  0  0  0  0
  1  7  1  0  0  0  0
  2  3  1  0  0  0  0
  4  5  1  0  0  0  0
  5  2  2  0  0  0  0
  6  4  1  6  0  0  0
  6 10  1  0  0  0  0
  7  9  2  0  0  0  0
  8  6  1  0  0  0  0
  8  1  2  0  0  0  0
 10  2  1  6  0  0  0
 10  9  1  0  0  0  0
 11 12  1  1  0  0  0
 11  8  1  0  0  0  0
 13 11  1  0  0  0  0
 14 13  1  0  0  0  0
 15 14  1  6  0  0  0
 15 22  1  0  0  0  0
 16 17  1  0  0  0  0
 17 15  1  1  0  0  0
 18 20  1  0  0  0  0
 18 16  1  0  0  0  0
 19 17  1  0  0  0  0
 20 21  1  6  0  0  0
 20 19  1  0  0  0  0
 22 23  1  0  0  0  0
 24 25  1  6  0  0  0
 24  5  1  0  0  0  0
 25 26  1  0  0  0  0
 27 24  1  0  0  0  0
 28 27  1  0  0  0  0
 29 30  1  0  0  0  0
 29 28  1  0  0  0  0
M  END
>  <MODEL>
4

>  <REMARK>
 VINA RESULT:      -6.1      2.674      4.926
  Name = 
  11 active torsions:
  status: ('A' for Active; 'I' for Inactive)
    1  A    between atoms: C_1  and  C_28
    2  A    between atoms: C_2  and  C_8
    3  A    between atoms: C_2  and  C_11
    4  A    between atoms: C_2  and  C_12
    5  A    between atoms: C_6  and  C_20
    6  A    between atoms: C_7  and  C_13
    7  A    between atoms: C_7  and  C_22
    8  A    between atoms: C_8  and  C_13
    9  A    between atoms: N_10  and  C_20
   10  A    between atoms: N_10  and  C_28
   11  A    between atoms: C_16  and  C_28
                            x       y       z     vdW  Elec       q    Type
                         _______ _______ _______ _____ _____    ______ ____

>  <TORSDO>
F 11

$$$$
=
 OpenBabel11062419503D

 30 32  0  0  1  0  0  0  0  0999 V2000
  191.0600  177.6520  144.6150 C   0  0  0  0  0  3  0  0  0  0  0  0
  187.5400  177.9450  142.5060 C   0  0  1  0  0  3  0  0  0  0  0  0
  187.1160  178.1140  141.1560 N   0  0  0  0  0  1  0  0  0  0  0  0
  187.5480  177.9340  144.7850 C   0  0  0  0  0  3  0  0  0  0  0  0
  186.7970  178.2330  143.5670 C   0  0  0  0  0  0  0  0  0  0  0  0
  188.6900  177.3810  144.3980 C   0  0  2  0  0  3  0  0  0  0  0  0
  191.0640  178.0920  143.1950 C   0  0  0  0  0  3  0  0  0  0  0  0
  189.9130  177.3060  145.2110 C   0  0  0  0  0  0  0  0  0  0  0  0
  190.0020  177.9670  142.4440 N   0  0  0  0  0  0  0  0  0  0  0  0
  188.7980  177.2690  142.9130 C   0  0  2  0  0  3  0  0  0  0  0  0
  189.9000  176.9660  146.6660 C   0  0  1  0  0  3  0  0  0  0  0  0
  188.9740  175.9710  146.9180 F   0  0  0  0  0  0  0  0  0  0  0  0
  191.2840  176.5330  147.1290 C   0  0  0  0  0  2  0  0  0  0  0  0
  191.5120  175.0570  146.8430 C   0  0  0  0  0  2  0  0  0  0  0  0
  192.5410  174.8600  145.7320 C   0  0  2  0  0  3  0  0  0  0  0  0
  192.4850  174.3190  143.0230 S   0  0  0  0  0  0  0  0  0  0  0  0
  192.0280  173.8400  144.7130 C   0  0  2  0  0  3  0  0  0  0  0  0
  191.1650  173.2330  142.4730 C   0  0  0  0  0  2  0  0  0  0  0  0
  190.5740  173.7180  144.7940 N   0  0  0  0  0  2  0  0  0  0  0  0
  190.0410  173.3900  143.4740 C   0  0  2  0  0  3  0  0  0  0  0  0
  189.2350  172.1100  143.5460 C   0  0  0  0  0  1  0  0  0  0  0  0
  193.8540  174.3800  146.3340 C   0  0  0  0  0  2  0  0  0  0  0  0
  194.9600  175.3660  146.0100 C   0  0  0  0  0  1  0  0  0  0  0  0
  185.4510  178.8890  143.5160 C   0  0  1  0  0  3  0  0  0  0  0  0
  184.3620  177.8770  143.1870 C   0  0  0  0  0  2  0  0  0  0  0  0
  183.7520  178.1760  141.8320 C   0  0  0  0  0  1  0  0  0  0  0  0
  185.1670  179.5200  144.7940 N   0  0  0  0  0  2  0  0  0  0  0  0
  184.0210  178.8290  145.3630 C   0  0  0  0  0  2  0  0  0  0  0  0
  184.3870  178.2440  146.7150 C   0  0  0  0  0  2  0  0  0  0  0  0
  185.5020  179.0510  147.3530 C   0  0  0  0  0  1  0  0  0  0  0  0
  1  8  2  0  0  0  0
  2  3  1  6  0  0  0
  2 10  1  0  0  0  0
  2  5  1  0  0  0  0
  5  4  2  0  0  0  0
  6  4  1  6  0  0  0
  6  8  1  0  0  0  0
  7  1  1  0  0  0  0
  8 11  1  0  0  0  0
  9  7  2  0  0  0  0
 10  9  1  6  0  0  0
 10  6  1  0  0  0  0
 11 12  1  6  0  0  0
 11 13  1  0  0  0  0
 14 13  1  0  0  0  0
 15 22  1  1  0  0  0
 15 14  1  0  0  0  0
 16 17  1  0  0  0  0
 17 19  1  0  0  0  0
 17 15  1  1  0  0  0
 18 16  1  0  0  0  0
 18 20  1  0  0  0  0
 20 21  1  1  0  0  0
 20 19  1  0  0  0  0
 23 22  1  0  0  0  0
 24 25  1  1  0  0  0
 24  5  1  0  0  0  0
 24 27  1  0  0  0  0
 26 25  1  0  0  0  0
 27 28  1  0  0  0  0
 28 29  1  0  0  0  0
 29 30  1  0  0  0  0
M  END
>  <MODEL>
5

>  <REMARK>
 VINA RESULT:      -6.0      1.858      4.572
  Name = 
  11 active torsions:
  status: ('A' for Active; 'I' for Inactive)
    1  A    between atoms: C_1  and  C_28
    2  A    between atoms: C_2  and  C_8
    3  A    between atoms: C_2  and  C_11
    4  A    between atoms: C_2  and  C_12
    5  A    between atoms: C_6  and  C_20
    6  A    between atoms: C_7  and  C_13
    7  A    between atoms: C_7  and  C_22
    8  A    between atoms: C_8  and  C_13
    9  A    between atoms: N_10  and  C_20
   10  A    between atoms: N_10  and  C_28
   11  A    between atoms: C_16  and  C_28
                            x       y       z     vdW  Elec       q    Type
                         _______ _______ _______ _____ _____    ______ ____

>  <TORSDO>
F 11

$$$$
=
 OpenBabel11062419503D

 30 32  0  0  1  0  0  0  0  0999 V2000
  189.9000  177.8400  144.6200 C   0  0  0  0  0  3  0  0  0  0  0  0
  193.0420  175.3230  143.7680 C   0  0  1  0  0  3  0  0  0  0  0  0
  194.0570  175.1820  142.7790 N   0  0  0  0  0  1  0  0  0  0  0  0
  191.5700  174.8430  145.4420 C   0  0  0  0  0  3  0  0  0  0  0  0
  192.6120  174.3390  144.5480 C   0  0  0  0  0  0  0  0  0  0  0  0
  191.4870  176.1490  145.2250 C   0  0  2  0  0  3  0  0  0  0  0  0
  190.5830  177.9020  143.3000 C   0  0  0  0  0  3  0  0  0  0  0  0
  190.3290  176.9910  145.5610 C   0  0  0  0  0  0  0  0  0  0  0  0
  191.7170  177.2880  143.0950 N   0  0  0  0  0  0  0  0  0  0  0  0
  192.4450  176.6190  144.1810 C   0  0  2  0  0  3  0  0  0  0  0  0
  189.5760  176.8580  146.8450 C   0  0  1  0  0  3  0  0  0  0  0  0
  189.3690  178.1020  147.4120 F   0  0  0  0  0  0  0  0  0  0  0  0
  188.2470  176.1510  146.6180 C   0  0  0  0  0  2  0  0  0  0  0  0
  187.0820  177.1010  146.8520 C   0  0  0  0  0  2  0  0  0  0  0  0
  185.9540  176.8510  145.8540 C   0  0  2  0  0  3  0  0  0  0  0  0
  184.9190  178.3260  143.7600 S   0  0  0  0  0  0  0  0  0  0  0  0
  186.3200  177.4320  144.4870 C   0  0  2  0  0  3  0  0  0  0  0  0
  185.7450  178.1200  142.1790 C   0  0  0  0  0  2  0  0  0  0  0  0
  186.7300  176.3690  143.5700 N   0  0  0  0  0  2  0  0  0  0  0  0
  186.3710  176.7430  142.2040 C   0  0  2  0  0  3  0  0  0  0  0  0
  187.6020  176.7220  141.3230 C   0  0  0  0  0  1  0  0  0  0  0  0
  184.6710  177.4920  146.3660 C   0  0  0  0  0  2  0  0  0  0  0  0
  184.9940  178.4860  147.4650 C   0  0  0  0  0  1  0  0  0  0  0  0
  193.0370  172.9080  144.4310 C   0  0  1  0  0  3  0  0  0  0  0  0
  193.9500  172.5130  145.5830 C   0  0  0  0  0  2  0  0  0  0  0  0
  195.3270  173.1220  145.4010 C   0  0  0  0  0  1  0  0  0  0  0  0
  191.8640  172.0500  144.4170 N   0  0  0  0  0  2  0  0  0  0  0  0
  191.2700  172.1630  143.0940 C   0  0  0  0  0  2  0  0  0  0  0  0
  189.7650  172.3220  143.2120 C   0  0  0  0  0  2  0  0  0  0  0  0
  189.3470  173.7120  142.7710 C   0  0  0  0  0  1  0  0  0  0  0  0
  1  8  2  0  0  0  0
  2  3  1  1  0  0  0
  2 10  1  0  0  0  0
  2  5  1  0  0  0  0
  5  4  2  0  0  0  0
  6  4  1  6  0  0  0
  6  8  1  0  0  0  0
  7  1  1  0  0  0  0
  8 11  1  0  0  0  0
  9  7  2  0  0  0  0
 10  9  1  6  0  0  0
 10  6  1  0  0  0  0
 11 12  1  6  0  0  0
 13 11  1  0  0  0  0
 13 14  1  0  0  0  0
 15 22  1  1  0  0  0
 15 14  1  0  0  0  0
 16 17  1  0  0  0  0
 17 15  1  1  0  0  0
 18 20  1  0  0  0  0
 18 16  1  0  0  0  0
 19 17  1  0  0  0  0
 20 21  1  6  0  0  0
 20 19  1  0  0  0  0
 22 23  1  0  0  0  0
 24  5  1  0  0  0  0
 24 25  1  1  0  0  0
 26 25  1  0  0  0  0
 27 24  1  0  0  0  0
 28 29  1  0  0  0  0
 28 27  1  0  0  0  0
 30 29  1  0  0  0  0
M  END
>  <MODEL>
6

>  <REMARK>
 VINA RESULT:      -6.0      2.383      6.627
  Name = 
  11 active torsions:
  status: ('A' for Active; 'I' for Inactive)
    1  A    between atoms: C_1  and  C_28
    2  A    between atoms: C_2  and  C_8
    3  A    between atoms: C_2  and  C_11
    4  A    between atoms: C_2  and  C_12
    5  A    between atoms: C_6  and  C_20
    6  A    between atoms: C_7  and  C_13
    7  A    between atoms: C_7  and  C_22
    8  A    between atoms: C_8  and  C_13
    9  A    between atoms: N_10  and  C_20
   10  A    between atoms: N_10  and  C_28
   11  A    between atoms: C_16  and  C_28
                            x       y       z     vdW  Elec       q    Type
                         _______ _______ _______ _____ _____    ______ ____

>  <TORSDO>
F 11

$$$$
=
 OpenBabel11062419503D

 30 32  0  0  1  0  0  0  0  0999 V2000
  187.5950  176.0720  140.5130 C   0  0  0  0  0  3  0  0  0  0  0  0
  185.7810  178.0040  143.6600 C   0  0  1  0  0  3  0  0  0  0  0  0
  184.9800  179.1600  143.8830 N   0  0  0  0  0  1  0  0  0  0  0  0
  187.1970  176.2530  144.0140 C   0  0  0  0  0  3  0  0  0  0  0  0
  186.5090  177.4050  144.5940 C   0  0  0  0  0  0  0  0  0  0  0  0
  186.7710  176.1510  142.7620 C   0  0  2  0  0  3  0  0  0  0  0  0
  187.0410  177.4410  140.3420 C   0  0  0  0  0  3  0  0  0  0  0  0
  187.4720  175.4360  141.6840 C   0  0  0  0  0  0  0  0  0  0  0  0
  186.2620  177.9740  141.2450 N   0  0  0  0  0  0  0  0  0  0  0  0
  185.7830  177.2110  142.4040 C   0  0  2  0  0  3  0  0  0  0  0  0
  188.1210  174.1040  141.8830 C   0  0  1  0  0  3  0  0  0  0  0  0
  187.5770  173.1720  141.0180 F   0  0  0  0  0  0  0  0  0  0  0  0
  189.6250  174.2050  141.6790 C   0  0  0  0  0  2  0  0  0  0  0  0
  190.3350  174.4530  143.0010 C   0  0  0  0  0  2  0  0  0  0  0  0
  191.2230  175.6930  142.9290 C   0  0  2  0  0  3  0  0  0  0  0  0
  192.8880  173.5940  143.6020 S   0  0  0  0  0  0  0  0  0  0  0  0
  192.6090  175.3840  143.4990 C   0  0  2  0  0  3  0  0  0  0  0  0
  194.1720  173.9720  144.7990 C   0  0  0  0  0  2  0  0  0  0  0  0
  192.7580  175.9640  144.8320 N   0  0  0  0  0  2  0  0  0  0  0  0
  193.6540  175.1270  145.6270 C   0  0  2  0  0  3  0  0  0  0  0  0
  194.8150  175.9550  146.1380 C   0  0  0  0  0  1  0  0  0  0  0  0
  190.5770  176.8270  143.7140 C   0  0  0  0  0  2  0  0  0  0  0  0
  190.1290  177.9210  142.7640 C   0  0  0  0  0  1  0  0  0  0  0  0
  186.6970  177.9150  145.9900 C   0  0  1  0  0  3  0  0  0  0  0  0
  185.6110  177.3840  146.9170 C   0  0  0  0  0  2  0  0  0  0  0  0
  184.8150  178.5300  147.5120 C   0  0  0  0  0  1  0  0  0  0  0  0
  188.0030  177.5150  146.4840 N   0  0  0  0  0  2  0  0  0  0  0  0
  187.8130  176.2950  147.2530 C   0  0  0  0  0  2  0  0  0  0  0  0
  188.8920  175.2870  146.9030 C   0  0  0  0  0  2  0  0  0  0  0  0
  190.2580  175.8250  147.2890 C   0  0  0  0  0  1  0  0  0  0  0  0
  1  8  2  0  0  0  0
  2  3  1  1  0  0  0
  2  5  1  0  0  0  0
  4  5  2  0  0  0  0
  5 24  1  0  0  0  0
  6  4  1  1  0  0  0
  7  1  1  0  0  0  0
  7  9  2  0  0  0  0
  8 11  1  0  0  0  0
  8  6  1  0  0  0  0
 10  9  1  6  0  0  0
 10  6  1  0  0  0  0
 10  2  1  0  0  0  0
 11 12  1  6  0  0  0
 13 11  1  0  0  0  0
 13 14  1  0  0  0  0
 15 14  1  1  0  0  0
 15 22  1  0  0  0  0
 16 18  1  0  0  0  0
 17 15  1  1  0  0  0
 17 16  1  0  0  0  0
 17 19  1  0  0  0  0
 18 20  1  0  0  0  0
 19 20  1  0  0  0  0
 20 21  1  6  0  0  0
 23 22  1  0  0  0  0
 24 27  1  0  0  0  0
 24 25  1  1  0  0  0
 25 26  1  0  0  0  0
 27 28  1  0  0  0  0
 29 28  1  0  0  0  0
 29 30  1  0  0  0  0
M  END
>  <MODEL>
7

>  <REMARK>
 VINA RESULT:      -5.9      1.762      4.366
  Name = 
  11 active torsions:
  status: ('A' for Active; 'I' for Inactive)
    1  A    between atoms: C_1  and  C_28
    2  A    between atoms: C_2  and  C_8
    3  A    between atoms: C_2  and  C_11
    4  A    between atoms: C_2  and  C_12
    5  A    between atoms: C_6  and  C_20
    6  A    between atoms: C_7  and  C_13
    7  A    between atoms: C_7  and  C_22
    8  A    between atoms: C_8  and  C_13
    9  A    between atoms: N_10  and  C_20
   10  A    between atoms: N_10  and  C_28
   11  A    between atoms: C_16  and  C_28
                            x       y       z     vdW  Elec       q    Type
                         _______ _______ _______ _____ _____    ______ ____

>  <TORSDO>
F 11

$$$$
=
 OpenBabel11062419503D

 30 32  0  0  1  0  0  0  0  0999 V2000
  189.3980  173.3080  143.5020 C   0  0  0  0  0  3  0  0  0  0  0  0
  193.4840  173.4370  143.9680 C   0  0  0  0  0  0  0  0  0  0  0  0
  194.5140  172.6570  144.5680 N   0  0  0  0  0  1  0  0  0  0  0  0
  192.3460  175.2000  143.0780 C   0  0  0  0  0  2  0  0  0  0  0  0
  193.5880  174.7300  143.6890 C   0  0  0  0  0  0  0  0  0  0  0  0
  191.5730  174.1320  142.9260 C   0  0  2  0  0  3  0  0  0  0  0  0
  190.0810  172.3880  144.4500 C   0  0  0  0  0  3  0  0  0  0  0  0
  190.1120  174.1610  142.7580 C   0  0  0  0  0  0  0  0  0  0  0  0
  191.3790  172.2480  144.4410 N   0  0  0  0  0  0  0  0  0  0  0  0
  192.2210  172.8810  143.4180 C   0  0  2  0  0  3  0  0  0  0  0  0
  189.4160  175.1550  141.8860 C   0  0  1  0  0  3  0  0  0  0  0  0
  189.1900  174.6170  140.6320 F   0  0  0  0  0  0  0  0  0  0  0  0
  188.1050  175.5980  142.5170 C   0  0  0  0  0  2  0  0  0  0  0  0
  188.2560  176.9590  143.1780 C   0  0  0  0  0  2  0  0  0  0  0  0
  188.2960  176.8360  144.7000 C   0  0  2  0  0  3  0  0  0  0  0  0
  187.0510  177.3990  147.1010 S   0  0  0  0  0  0  0  0  0  0  0  0
  187.2460  177.7520  145.3320 C   0  0  2  0  0  3  0  0  0  0  0  0
  185.4560  178.2150  146.9780 C   0  0  0  0  0  2  0  0  0  0  0  0
  185.9530  177.5850  144.6700 N   0  0  0  0  0  2  0  0  0  0  0  0
  184.8810  177.8250  145.6340 C   0  0  2  0  0  3  0  0  0  0  0  0
  183.9670  178.9200  145.1280 C   0  0  0  0  0  1  0  0  0  0  0  0
  189.6830  177.2080  145.2040 C   0  0  0  0  0  2  0  0  0  0  0  0
  190.3890  178.0740  144.1790 C   0  0  0  0  0  1  0  0  0  0  0  0
  194.7510  175.5950  144.0670 C   0  0  1  0  0  3  0  0  0  0  0  0
  195.4630  176.1250  142.8290 C   0  0  0  0  0  2  0  0  0  0  0  0
  196.7810  176.7720  143.2120 C   0  0  0  0  0  1  0  0  0  0  0  0
  194.2880  176.7060  144.8810 N   0  0  0  0  0  2  0  0  0  0  0  0
  194.3270  176.2630  146.2660 C   0  0  0  0  0  2  0  0  0  0  0  0
  192.9730  176.4780  146.9180 C   0  0  0  0  0  2  0  0  0  0  0  0
  192.2210  175.1640  147.0120 C   0  0  0  0  0  1  0  0  0  0  0  0
  1  7  1  0  0  0  0
  2  3  1  0  0  0  0
  4  5  1  0  0  0  0
  5  2  2  0  0  0  0
  5 24  1  0  0  0  0
  6  4  1  1  0  0  0
  6 10  1  0  0  0  0
  8  6  1  0  0  0  0
  8  1  2  0  0  0  0
  9  7  2  0  0  0  0
 10  2  1  1  0  0  0
 10  9  1  0  0  0  0
 11 12  1  6  0  0  0
 11 13  1  0  0  0  0
 11  8  1  0  0  0  0
 13 14  1  0  0  0  0
 15 14  1  6  0  0  0
 15 22  1  0  0  0  0
 17 15  1  6  0  0  0
 17 16  1  0  0  0  0
 18 16  1  0  0  0  0
 19 17  1  0  0  0  0
 19 20  1  0  0  0  0
 20 21  1  6  0  0  0
 20 18  1  0  0  0  0
 23 22  1  0  0  0  0
 24 25  1  6  0  0  0
 24 27  1  0  0  0  0
 25 26  1  0  0  0  0
 27 28  1  0  0  0  0
 28 29  1  0  0  0  0
 29 30  1  0  0  0  0
M  END
>  <MODEL>
8

>  <REMARK>
 VINA RESULT:      -5.8      2.533      7.480
  Name = 
  11 active torsions:
  status: ('A' for Active; 'I' for Inactive)
    1  A    between atoms: C_1  and  C_28
    2  A    between atoms: C_2  and  C_8
    3  A    between atoms: C_2  and  C_11
    4  A    between atoms: C_2  and  C_12
    5  A    between atoms: C_6  and  C_20
    6  A    between atoms: C_7  and  C_13
    7  A    between atoms: C_7  and  C_22
    8  A    between atoms: C_8  and  C_13
    9  A    between atoms: N_10  and  C_20
   10  A    between atoms: N_10  and  C_28
   11  A    between atoms: C_16  and  C_28
                            x       y       z     vdW  Elec       q    Type
                         _______ _______ _______ _____ _____    ______ ____

>  <TORSDO>
F 11

$$$$
=
 OpenBabel11062419503D

 30 32  0  0  1  0  0  0  0  0999 V2000
  191.1450  177.5960  144.6110 C   0  0  0  0  0  3  0  0  0  0  0  0
  187.6900  177.8100  142.3860 C   0  0  1  0  0  3  0  0  0  0  0  0
  187.3070  177.8910  141.0170 N   0  0  0  0  0  1  0  0  0  0  0  0
  187.6360  177.9630  144.6600 C   0  0  0  0  0  3  0  0  0  0  0  0
  186.9260  178.1890  143.4030 C   0  0  0  0  0  0  0  0  0  0  0  0
  188.7750  177.3590  144.3460 C   0  0  2  0  0  3  0  0  0  0  0  0
  191.1970  177.9320  143.1640 C   0  0  0  0  0  3  0  0  0  0  0  0
  189.9740  177.3180  145.1970 C   0  0  0  0  0  0  0  0  0  0  0  0
  190.1530  177.7760  142.3940 N   0  0  0  0  0  0  0  0  0  0  0  0
  188.9210  177.1390  142.8770 C   0  0  2  0  0  3  0  0  0  0  0  0
  189.9140  177.0830  146.6720 C   0  0  1  0  0  3  0  0  0  0  0  0
  188.6820  177.4670  147.1680 F   0  0  0  0  0  0  0  0  0  0  0  0
  190.1840  175.6210  146.9940 C   0  0  0  0  0  2  0  0  0  0  0  0
  191.6590  175.2920  146.8190 C   0  0  0  0  0  2  0  0  0  0  0  0
  191.8530  174.0930  145.8940 C   0  0  2  0  0  3  0  0  0  0  0  0
  194.1690  172.8750  145.0060 S   0  0  0  0  0  0  0  0  0  0  0  0
  193.0660  174.3160  144.9880 C   0  0  2  0  0  3  0  0  0  0  0  0
  195.4480  173.9820  144.4030 C   0  0  0  0  0  2  0  0  0  0  0  0
  193.8180  175.4940  145.4170 N   0  0  0  0  0  2  0  0  0  0  0  0
  195.2340  175.3030  145.1080 C   0  0  2  0  0  3  0  0  0  0  0  0
  195.7290  176.4380  144.2360 C   0  0  0  0  0  1  0  0  0  0  0  0
  190.6020  173.8930  145.0500 C   0  0  0  0  0  2  0  0  0  0  0  0
  190.9390  174.0570  143.5810 C   0  0  0  0  0  1  0  0  0  0  0  0
  185.5970  178.8670  143.2660 C   0  0  1  0  0  3  0  0  0  0  0  0
  184.5070  177.8660  142.9090 C   0  0  0  0  0  2  0  0  0  0  0  0
  183.8060  178.2810  141.6290 C   0  0  0  0  0  1  0  0  0  0  0  0
  185.2610  179.5370  144.5120 N   0  0  0  0  0  2  0  0  0  0  0  0
  184.2690  178.7120  145.1840 C   0  0  0  0  0  2  0  0  0  0  0  0
  184.5710  178.6460  146.6700 C   0  0  0  0  0  2  0  0  0  0  0  0
  185.1960  177.3090  147.0210 C   0  0  0  0  0  1  0  0  0  0  0  0
  1  8  2  0  0  0  0
  2  3  1  6  0  0  0
  2 10  1  0  0  0  0
  2  5  1  0  0  0  0
  5  4  2  0  0  0  0
  6  4  1  6  0  0  0
  6  8  1  0  0  0  0
  7  1  1  0  0  0  0
  8 11  1  0  0  0  0
  9  7  2  0  0  0  0
 10  9  1  6  0  0  0
 10  6  1  0  0  0  0
 11 13  1  0  0  0  0
 11 12  1  6  0  0  0
 14 13  1  0  0  0  0
 15 22  1  6  0  0  0
 15 14  1  0  0  0  0
 17 16  1  0  0  0  0
 17 19  1  0  0  0  0
 17 15  1  1  0  0  0
 18 16  1  0  0  0  0
 18 20  1  0  0  0  0
 20 21  1  6  0  0  0
 20 19  1  0  0  0  0
 23 22  1  0  0  0  0
 24 25  1  1  0  0  0
 24  5  1  0  0  0  0
 24 27  1  0  0  0  0
 26 25  1  0  0  0  0
 27 28  1  0  0  0  0
 28 29  1  0  0  0  0
 29 30  1  0  0  0  0
M  END
>  <MODEL>
9

>  <REMARK>
 VINA RESULT:      -5.8      1.726      3.917
  Name = 
  11 active torsions:
  status: ('A' for Active; 'I' for Inactive)
    1  A    between atoms: C_1  and  C_28
    2  A    between atoms: C_2  and  C_8
    3  A    between atoms: C_2  and  C_11
    4  A    between atoms: C_2  and  C_12
    5  A    between atoms: C_6  and  C_20
    6  A    between atoms: C_7  and  C_13
    7  A    between atoms: C_7  and  C_22
    8  A    between atoms: C_8  and  C_13
    9  A    between atoms: N_10  and  C_20
   10  A    between atoms: N_10  and  C_28
   11  A    between atoms: C_16  and  C_28
                            x       y       z     vdW  Elec       q    Type
                         _______ _______ _______ _____ _____    ______ ____

>  <TORSDO>
F 11

$$$$
