=
 OpenBabel11062420343D

 32 38  0  0  1  0  0  0  0  0999 V2000
  191.5680  176.7030  149.2210 F   0  0  0  0  0  0  0  0  0  0  0  0
  189.9460  176.2710  143.0840 C   0  0  0  0  0  3  0  0  0  0  0  0
  185.9620  177.5800  144.6040 C   0  0  0  0  0  0  0  0  0  0  0  0
  190.1000  176.4790  145.8630 C   0  0  0  0  0  0  0  0  0  0  0  0
  193.7100  176.3800  144.9560 O   0  0  0  0  0  1  0  0  0  0  0  0
  192.6310  176.5400  147.0970 C   0  0  0  0  0  3  0  0  0  0  0  0
  188.7530  176.3320  143.8250 C   0  0  0  0  0  0  0  0  0  0  0  0
  191.1910  176.3210  143.6990 C   0  0  0  0  0  3  0  0  0  0  0  0
  187.6080  175.8070  141.6220 C   0  0  0  0  0  3  0  0  0  0  0  0
  184.3720  178.6170  142.9140 S   0  0  0  0  0  0  0  0  0  0  0  0
  187.4410  176.1060  143.1070 C   0  0  0  0  0  0  0  0  0  0  0  0
  184.0560  178.6560  145.6010 N   0  0  0  0  0  0  0  0  0  0  0  0
  191.2830  176.4120  145.0850 C   0  0  0  0  0  0  0  0  0  0  0  0
  185.6460  177.6950  142.3100 C   0  0  0  0  0  0  0  0  0  0  0  0
  187.6430  176.6730  146.1200 C   0  0  0  0  0  3  0  0  0  0  0  0
  186.4350  177.1890  145.8680 C   0  0  0  0  0  0  0  0  0  0  0  0
  190.2210  176.5800  147.2610 C   0  0  0  0  0  3  0  0  0  0  0  0
  185.8040  177.3450  141.0370 C   0  0  0  0  0  3  0  0  0  0  0  0
  191.4750  176.6080  147.8730 C   0  0  0  0  0  0  0  0  0  0  0  0
  192.5420  176.4440  145.7080 C   0  0  0  0  0  0  0  0  0  0  0  0
  184.4540  178.2360  146.8330 C   0  0  0  0  0  3  0  0  0  0  0  0
  186.4400  177.1990  143.3460 C   0  0  0  0  0  0  0  0  0  0  0  0
  184.8010  178.3420  144.5150 C   0  0  0  0  0  0  0  0  0  0  0  0
  186.8630  176.3820  140.6600 C   0  0  0  0  0  0  0  0  0  0  0  0
  188.8250  176.4680  145.2360 C   0  0  2  0  0  3  0  0  0  0  0  0
  185.6420  177.5030  146.9840 C   0  0  0  0  0  3  0  0  0  0  0  0
  187.0910  176.0350  139.2810 N   0  0  0  0  0  0  0  0  0  0  0  0
  188.4840  174.0300  139.5450 N   0  0  0  0  0  1  0  0  0  0  0  0
  186.6060  176.7150  138.2570 N   0  0  0  0  0  0  0  0  0  0  0  0
  187.7860  175.0050  137.4270 N   0  0  0  0  0  0  0  0  0  0  0  0
  187.0290  176.0880  137.1380 C   0  0  0  0  0  3  0  0  0  0  0  0
  187.7980  175.0090  138.7710 C   0  0  0  0  0  0  0  0  0  0  0  0
  2  8  2  0  0  0  0
  2  7  1  0  0  0  0
  3 16  1  0  0  0  0
  4 17  1  0  0  0  0
  5 20  1  0  0  0  0
  6 19  1  0  0  0  0
  7 25  1  0  0  0  0
  8 13  1  0  0  0  0
  9 11  1  0  0  0  0
 10 23  1  0  0  0  0
 11 22  1  0  0  0  0
 11  7  2  0  0  0  0
 12 21  1  0  0  0  0
 13 20  1  0  0  0  0
 13  4  2  0  0  0  0
 14 10  1  0  0  0  0
 14 22  1  0  0  0  0
 16 15  2  0  0  0  0
 16 26  1  0  0  0  0
 17 19  2  0  0  0  0
 18 14  2  0  0  0  0
 19  1  1  0  0  0  0
 20  6  2  0  0  0  0
 21 26  2  0  0  0  0
 22  3  2  0  0  0  0
 23  3  1  0  0  0  0
 23 12  2  0  0  0  0
 24 18  1  0  0  0  0
 24  9  2  0  0  0  0
 25  4  1  0  0  0  0
 25 15  1  6  0  0  0
 27 24  1  0  0  0  0
 29 27  1  0  0  0  0
 30 32  2  0  0  0  0
 31 30  1  0  0  0  0
 31 29  2  0  0  0  0
 32 27  1  0  0  0  0
 32 28  1  0  0  0  0
M  END
>  <MODEL>
1

>  <REMARK>
 VINA RESULT:      -9.5      0.000      0.000
  Name = 
  1 active torsions:
  status: ('A' for Active; 'I' for Inactive)
    1  A    between atoms: N_4  and  C_30
                            x       y       z     vdW  Elec       q    Type
                         _______ _______ _______ _____ _____    ______ ____

>  <TORSDO>
F 1

$$$$
=
 OpenBabel11062420343D

 32 38  0  0  1  0  0  0  0  0999 V2000
  191.3700  177.7660  149.3350 F   0  0  0  0  0  0  0  0  0  0  0  0
  190.7150  175.2830  143.5140 C   0  0  0  0  0  3  0  0  0  0  0  0
  186.9770  177.7150  143.4860 C   0  0  0  0  0  0  0  0  0  0  0  0
  190.4600  176.5140  146.0050 C   0  0  0  0  0  0  0  0  0  0  0  0
  194.0360  175.4790  146.0870 O   0  0  0  0  0  1  0  0  0  0  0  0
  192.6940  176.6250  147.7180 C   0  0  0  0  0  3  0  0  0  0  0  0
  189.4680  175.8210  143.8780 C   0  0  0  0  0  0  0  0  0  0  0  0
  191.8170  175.3580  144.3560 C   0  0  0  0  0  3  0  0  0  0  0  0
  188.6050  174.6860  141.7780 C   0  0  0  0  0  3  0  0  0  0  0  0
  185.9840  178.2710  141.2140 S   0  0  0  0  0  0  0  0  0  0  0  0
  188.2760  175.5570  142.9850 C   0  0  0  0  0  0  0  0  0  0  0  0
  185.2530  179.3910  143.5650 N   0  0  0  0  0  0  0  0  0  0  0  0
  191.7020  175.9590  145.6070 C   0  0  0  0  0  0  0  0  0  0  0  0
  187.0770  176.9900  141.2870 C   0  0  2  0  0  3  0  0  0  0  0  0
  188.1160  177.1960  145.5790 C   0  0  0  0  0  3  0  0  0  0  0  0
  187.1270  177.7680  144.8820 C   0  0  0  0  0  0  0  0  0  0  0  0
  190.3720  177.1240  147.2700 C   0  0  0  0  0  3  0  0  0  0  0  0
  187.3500  176.1570  140.2870 C   0  0  0  0  0  3  0  0  0  0  0  0
  191.4780  177.1770  148.1200 C   0  0  0  0  0  0  0  0  0  0  0  0
  192.8110  176.0190  146.4660 C   0  0  0  0  0  0  0  0  0  0  0  0
  185.3310  179.4180  144.9240 C   0  0  0  0  0  3  0  0  0  0  0  0
  187.5450  176.8060  142.5890 C   0  0  0  0  0  0  0  0  0  0  0  0
  186.0670  178.5660  142.8660 C   0  0  0  0  0  0  0  0  0  0  0  0
  188.1890  174.9620  140.5290 C   0  0  0  0  0  0  0  0  0  0  0  0
  189.3400  176.4750  145.1310 C   0  0  0  0  0  0  0  0  0  0  0  0
  186.2640  178.6130  145.5980 C   0  0  0  0  0  3  0  0  0  0  0  0
  188.5480  174.0790  139.4490 N   0  0  0  0  0  0  0  0  0  0  0  0
  187.4430  175.2000  137.5640 N   0  0  0  0  0  1  0  0  0  0  0  0
  189.2850  172.9920  139.5950 N   0  0  0  0  0  0  0  0  0  0  0  0
  188.7500  173.1510  137.4290 N   0  0  0  0  0  0  0  0  0  0  0  0
  189.4050  172.4350  138.3700 C   0  0  0  0  0  3  0  0  0  0  0  0
  188.2310  174.1660  138.1430 C   0  0  0  0  0  0  0  0  0  0  0  0
  2  7  2  0  0  0  0
  2  8  1  0  0  0  0
  3 16  1  0  0  0  0
  4 17  1  0  0  0  0
  5 20  1  0  0  0  0
  6 19  1  0  0  0  0
  7 25  1  0  0  0  0
  8 13  2  0  0  0  0
  9 11  2  0  0  0  0
 10 14  1  0  0  0  0
 10 23  1  0  0  0  0
 11  7  1  0  0  0  0
 12 21  1  0  0  0  0
 13  4  1  0  0  0  0
 13 20  1  0  0  0  0
 14 18  1  1  0  0  0
 14 22  1  0  0  0  0
 16 15  2  0  0  0  0
 16 26  1  0  0  0  0
 17 19  2  0  0  0  0
 18 24  2  0  0  0  0
 19  1  1  0  0  0  0
 20  6  2  0  0  0  0
 21 26  2  0  0  0  0
 22 11  1  0  0  0  0
 22  3  2  0  0  0  0
 23  3  1  0  0  0  0
 23 12  2  0  0  0  0
 24  9  1  0  0  0  0
 25 15  1  0  0  0  0
 25  4  2  0  0  0  0
 27 29  1  0  0  0  0
 27 24  1  0  0  0  0
 28 32  1  0  0  0  0
 30 32  2  0  0  0  0
 30 31  1  0  0  0  0
 31 29  2  0  0  0  0
 32 27  1  0  0  0  0
M  END
>  <MODEL>
2

>  <REMARK>
 VINA RESULT:      -9.5      1.334      1.931
  Name = 
  1 active torsions:
  status: ('A' for Active; 'I' for Inactive)
    1  A    between atoms: N_4  and  C_30
                            x       y       z     vdW  Elec       q    Type
                         _______ _______ _______ _____ _____    ______ ____

>  <TORSDO>
F 1

$$$$
=
 OpenBabel11062420343D

 32 38  0  0  1  0  0  0  0  0999 V2000
  188.0290  173.3090  137.9350 F   0  0  0  0  0  0  0  0  0  0  0  0
  189.9840  175.0490  143.7340 C   0  0  0  0  0  3  0  0  0  0  0  0
  186.2270  177.4500  143.6890 C   0  0  0  0  0  0  0  0  0  0  0  0
  188.7730  174.7220  141.2420 C   0  0  0  0  0  0  0  0  0  0  0  0
  191.1920  171.8910  141.2330 O   0  0  0  0  0  1  0  0  0  0  0  0
  189.6040  172.6070  139.5770 C   0  0  0  0  0  3  0  0  0  0  0  0
  188.9830  175.9550  143.3450 C   0  0  0  0  0  0  0  0  0  0  0  0
  190.3750  173.9970  142.9160 C   0  0  0  0  0  3  0  0  0  0  0  0
  189.6460  177.2520  145.4230 C   0  0  0  0  0  3  0  0  0  0  0  0
  185.2960  178.1710  145.9420 S   0  0  0  0  0  0  0  0  0  0  0  0
  188.7260  177.1670  144.2120 C   0  0  2  0  0  3  0  0  0  0  0  0
  183.9890  178.3270  143.5780 N   0  0  0  0  0  0  0  0  0  0  0  0
  189.7880  173.8280  141.6650 C   0  0  0  0  0  0  0  0  0  0  0  0
  186.9150  177.7040  145.8880 C   0  0  0  0  0  0  0  0  0  0  0  0
  187.1820  176.5840  141.6200 C   0  0  0  0  0  3  0  0  0  0  0  0
  186.2490  177.2630  142.2970 C   0  0  0  0  0  0  0  0  0  0  0  0
  188.1890  174.5250  139.9770 C   0  0  0  0  0  3  0  0  0  0  0  0
  187.7800  177.8180  146.8910 C   0  0  0  0  0  3  0  0  0  0  0  0
  188.6030  173.4780  139.1510 C   0  0  0  0  0  0  0  0  0  0  0  0
  190.1970  172.7750  140.8290 C   0  0  0  0  0  0  0  0  0  0  0  0
  184.0050  178.2180  142.2220 C   0  0  0  0  0  3  0  0  0  0  0  0
  187.2830  177.3260  144.5960 C   0  0  0  0  0  0  0  0  0  0  0  0
  185.0720  177.9410  144.2930 C   0  0  0  0  0  0  0  0  0  0  0  0
  189.2160  177.5420  146.6640 C   0  0  0  0  0  0  0  0  0  0  0  0
  188.3420  175.7760  142.0920 C   0  0  0  0  0  0  0  0  0  0  0  0
  185.1280  177.6860  141.5650 C   0  0  0  0  0  3  0  0  0  0  0  0
  190.1620  177.6020  147.7490 N   0  0  0  0  0  0  0  0  0  0  0  0
  191.4510  175.5530  147.3370 N   0  0  0  0  0  1  0  0  0  0  0  0
  190.1980  178.5720  148.6470 N   0  0  0  0  0  0  0  0  0  0  0  0
  191.8330  177.1300  149.1510 N   0  0  0  0  0  0  0  0  0  0  0  0
  191.2110  178.2820  149.4920 C   0  0  0  0  0  3  0  0  0  0  0  0
  191.1490  176.7410  148.0610 C   0  0  0  0  0  0  0  0  0  0  0  0
  1 19  1  0  0  0  0
  3 23  1  0  0  0  0
  3 22  2  0  0  0  0
  4 13  1  0  0  0  0
  4 25  1  0  0  0  0
  6 20  1  0  0  0  0
  7  2  1  0  0  0  0
  7 11  1  0  0  0  0
  8  2  2  0  0  0  0
  9 24  2  0  0  0  0
 11 22  1  0  0  0  0
 11  9  1  1  0  0  0
 12 23  2  0  0  0  0
 13  8  1  0  0  0  0
 14 10  1  0  0  0  0
 14 18  2  0  0  0  0
 15 25  1  0  0  0  0
 15 16  2  0  0  0  0
 16  3  1  0  0  0  0
 17  4  2  0  0  0  0
 19  6  2  0  0  0  0
 19 17  1  0  0  0  0
 20  5  1  0  0  0  0
 20 13  2  0  0  0  0
 21 12  1  0  0  0  0
 22 14  1  0  0  0  0
 23 10  1  0  0  0  0
 24 18  1  0  0  0  0
 24 27  1  0  0  0  0
 25  7  2  0  0  0  0
 26 21  2  0  0  0  0
 26 16  1  0  0  0  0
 27 32  1  0  0  0  0
 27 29  1  0  0  0  0
 28 32  1  0  0  0  0
 29 31  2  0  0  0  0
 30 31  1  0  0  0  0
 32 30  2  0  0  0  0
M  END
>  <MODEL>
3

>  <REMARK>
 VINA RESULT:      -9.2      3.982      6.787
  Name = 
  1 active torsions:
  status: ('A' for Active; 'I' for Inactive)
    1  A    between atoms: N_4  and  C_30
                            x       y       z     vdW  Elec       q    Type
                         _______ _______ _______ _____ _____    ______ ____

>  <TORSDO>
F 1

$$$$
=
 OpenBabel11062420343D

 32 38  0  0  1  0  0  0  0  0999 V2000
  185.5660  179.7910  147.6420 F   0  0  0  0  0  0  0  0  0  0  0  0
  186.9180  176.3470  142.4660 C   0  0  0  0  0  3  0  0  0  0  0  0
  190.4340  175.0730  144.8950 C   0  0  0  0  0  0  0  0  0  0  0  0
  186.8580  177.7420  144.8820 C   0  0  0  0  0  0  0  0  0  0  0  0
  183.3840  178.2910  143.6580 O   0  0  0  0  0  1  0  0  0  0  0  0
  184.4830  179.0450  145.6570 C   0  0  0  0  0  3  0  0  0  0  0  0
  188.0810  176.3850  143.2550 C   0  0  0  0  0  0  0  0  0  0  0  0
  185.7450  176.9770  142.8640 C   0  0  0  0  0  3  0  0  0  0  0  0
  189.2100  175.2910  141.2620 C   0  0  0  0  0  3  0  0  0  0  0  0
  191.5690  172.9010  144.2220 S   0  0  0  0  0  0  0  0  0  0  0  0
  189.3620  175.8200  142.6830 C   0  0  0  0  0  0  0  0  0  0  0  0
  192.0030  174.2530  146.5250 N   0  0  0  0  0  0  0  0  0  0  0  0
  185.7040  177.6860  144.0610 C   0  0  0  0  0  0  0  0  0  0  0  0
  190.5830  173.6440  143.0750 C   0  0  0  0  0  0  0  0  0  0  0  0
  189.1660  177.0700  145.4830 C   0  0  0  0  0  3  0  0  0  0  0  0
  190.1610  176.2000  145.6880 C   0  0  0  0  0  0  0  0  0  0  0  0
  186.7870  178.4570  146.0920 C   0  0  0  0  0  3  0  0  0  0  0  0
  190.4650  173.2680  141.8050 C   0  0  0  0  0  3  0  0  0  0  0  0
  185.6110  179.1050  146.4740 C   0  0  0  0  0  0  0  0  0  0  0  0
  184.5230  178.3380  144.4540 C   0  0  0  0  0  0  0  0  0  0  0  0
  191.8070  175.3660  147.2840 C   0  0  0  0  0  3  0  0  0  0  0  0
  190.0210  174.8160  143.5840 C   0  0  0  0  0  0  0  0  0  0  0  0
  191.3220  174.1080  145.3630 C   0  0  0  0  0  0  0  0  0  0  0  0
  189.7080  174.1100  140.8520 C   0  0  0  0  0  0  0  0  0  0  0  0
  188.0470  177.0660  144.4990 C   0  0  2  0  0  3  0  0  0  0  0  0
  190.8880  176.3490  146.8800 C   0  0  0  0  0  3  0  0  0  0  0  0
  189.5160  173.6930  139.4870 N   0  0  0  0  0  0  0  0  0  0  0  0
  191.8270  173.7870  138.6590 N   0  0  0  0  0  1  0  0  0  0  0  0
  188.3440  173.3750  138.9670 N   0  0  0  0  0  0  0  0  0  0  0  0
  189.8770  173.1350  137.3560 N   0  0  0  0  0  0  0  0  0  0  0  0
  188.5670  173.0370  137.6790 C   0  0  0  0  0  3  0  0  0  0  0  0
  190.4310  173.5450  138.5100 C   0  0  0  0  0  0  0  0  0  0  0  0
  2  8  2  0  0  0  0
  2  7  1  0  0  0  0
  3 23  1  0  0  0  0
  3 16  1  0  0  0  0
  4 17  1  0  0  0  0
  5 20  1  0  0  0  0
  6 19  1  0  0  0  0
  7 25  1  0  0  0  0
  8 13  1  0  0  0  0
  9 11  1  0  0  0  0
 10 23  1  0  0  0  0
 11  7  2  0  0  0  0
 11 22  1  0  0  0  0
 12 21  1  0  0  0  0
 13 20  1  0  0  0  0
 13  4  2  0  0  0  0
 14 22  1  0  0  0  0
 14 10  1  0  0  0  0
 15 16  2  0  0  0  0
 16 26  1  0  0  0  0
 17 19  2  0  0  0  0
 18 14  2  0  0  0  0
 19  1  1  0  0  0  0
 20  6  2  0  0  0  0
 22  3  2  0  0  0  0
 23 12  2  0  0  0  0
 24  9  2  0  0  0  0
 24 18  1  0  0  0  0
 25  4  1  0  0  0  0
 25 15  1  1  0  0  0
 26 21  2  0  0  0  0
 27 24  1  0  0  0  0
 29 27  1  0  0  0  0
 30 31  1  0  0  0  0
 30 32  2  0  0  0  0
 31 29  2  0  0  0  0
 32 28  1  0  0  0  0
 32 27  1  0  0  0  0
M  END
>  <MODEL>
4

>  <REMARK>
 VINA RESULT:      -8.9      3.590      5.605
  Name = 
  1 active torsions:
  status: ('A' for Active; 'I' for Inactive)
    1  A    between atoms: N_4  and  C_30
                            x       y       z     vdW  Elec       q    Type
                         _______ _______ _______ _____ _____    ______ ____

>  <TORSDO>
F 1

$$$$
=
 OpenBabel11062420343D

 32 38  0  0  1  0  0  0  0  0999 V2000
  187.0680  179.4100  149.1740 F   0  0  0  0  0  0  0  0  0  0  0  0
  187.0830  176.4200  143.5580 C   0  0  0  0  0  3  0  0  0  0  0  0
  191.1130  175.0620  144.9030 C   0  0  0  0  0  0  0  0  0  0  0  0
  187.6290  177.6200  146.0170 C   0  0  0  0  0  0  0  0  0  0  0  0
  183.9540  178.1620  145.7630 O   0  0  0  0  0  1  0  0  0  0  0  0
  185.5210  178.7900  147.4740 C   0  0  0  0  0  3  0  0  0  0  0  0
  188.4090  176.4290  144.0270 C   0  0  0  0  0  0  0  0  0  0  0  0
  186.0460  176.9820  144.2910 C   0  0  0  0  0  3  0  0  0  0  0  0
  189.0020  175.5270  141.7300 C   0  0  0  0  0  3  0  0  0  0  0  0
  192.0570  172.9830  143.7870 S   0  0  0  0  0  0  0  0  0  0  0  0
  189.5070  175.9480  143.1040 C   0  0  0  0  0  0  0  0  0  0  0  0
  193.0520  174.1650  146.0090 N   0  0  0  0  0  0  0  0  0  0  0  0
  186.3050  177.5950  145.5140 C   0  0  0  0  0  0  0  0  0  0  0  0
  190.8050  173.7850  142.9940 C   0  0  2  0  0  3  0  0  0  0  0  0
  190.0200  176.9710  145.9560 C   0  0  0  0  0  3  0  0  0  0  0  0
  191.0420  176.1160  145.8290 C   0  0  0  0  0  0  0  0  0  0  0  0
  187.8640  178.2370  147.2600 C   0  0  0  0  0  3  0  0  0  0  0  0
  190.3700  173.5060  141.7680 C   0  0  0  0  0  3  0  0  0  0  0  0
  186.8190  178.8190  147.9800 C   0  0  0  0  0  0  0  0  0  0  0  0
  185.2580  178.1800  146.2460 C   0  0  0  0  0  0  0  0  0  0  0  0
  193.0470  175.2090  146.8820 C   0  0  0  0  0  3  0  0  0  0  0  0
  190.3810  174.8970  143.7230 C   0  0  0  0  0  0  0  0  0  0  0  0
  192.0990  174.0910  145.0500 C   0  0  0  0  0  0  0  0  0  0  0  0
  189.3880  174.3970  141.1110 C   0  0  0  0  0  0  0  0  0  0  0  0
  188.6880  177.0110  145.2910 C   0  0  0  0  0  0  0  0  0  0  0  0
  192.0480  176.1930  146.8070 C   0  0  0  0  0  3  0  0  0  0  0  0
  188.8580  174.0820  139.8090 N   0  0  0  0  0  0  0  0  0  0  0  0
  189.7100  171.7970  139.5170 N   0  0  0  0  0  1  0  0  0  0  0  0
  188.1240  174.9110  139.0880 N   0  0  0  0  0  0  0  0  0  0  0  0
  188.3490  173.0210  137.9130 N   0  0  0  0  0  0  0  0  0  0  0  0
  187.8170  174.2640  137.9430 C   0  0  0  0  0  3  0  0  0  0  0  0
  188.9880  172.9490  139.0930 C   0  0  0  0  0  0  0  0  0  0  0  0
  2  7  2  0  0  0  0
  2  8  1  0  0  0  0
  3 23  1  0  0  0  0
  3 16  1  0  0  0  0
  4 17  1  0  0  0  0
  5 20  1  0  0  0  0
  6 19  1  0  0  0  0
  7 25  1  0  0  0  0
  8 13  2  0  0  0  0
  9 11  2  0  0  0  0
 10 23  1  0  0  0  0
 11 22  1  0  0  0  0
 11  7  1  0  0  0  0
 12 21  1  0  0  0  0
 13  4  1  0  0  0  0
 13 20  1  0  0  0  0
 14 18  1  6  0  0  0
 14 22  1  0  0  0  0
 14 10  1  0  0  0  0
 16 15  2  0  0  0  0
 16 26  1  0  0  0  0
 17 19  2  0  0  0  0
 19  1  1  0  0  0  0
 20  6  2  0  0  0  0
 22  3  2  0  0  0  0
 23 12  2  0  0  0  0
 24  9  1  0  0  0  0
 24 18  2  0  0  0  0
 25 15  1  0  0  0  0
 25  4  2  0  0  0  0
 26 21  2  0  0  0  0
 27 24  1  0  0  0  0
 29 27  1  0  0  0  0
 30 31  1  0  0  0  0
 30 32  2  0  0  0  0
 31 29  2  0  0  0  0
 32 28  1  0  0  0  0
 32 27  1  0  0  0  0
M  END
>  <MODEL>
5

>  <REMARK>
 VINA RESULT:      -8.8      3.311      5.437
  Name = 
  1 active torsions:
  status: ('A' for Active; 'I' for Inactive)
    1  A    between atoms: N_4  and  C_30
                            x       y       z     vdW  Elec       q    Type
                         _______ _______ _______ _____ _____    ______ ____

>  <TORSDO>
F 1

$$$$
=
 OpenBabel11062420343D

 32 38  0  0  1  0  0  0  0  0999 V2000
  186.5250  177.8680  148.3690 F   0  0  0  0  0  0  0  0  0  0  0  0
  186.1280  177.0110  142.0770 C   0  0  0  0  0  3  0  0  0  0  0  0
  189.1980  173.8710  142.8560 C   0  0  0  0  0  0  0  0  0  0  0  0
  186.7730  177.0800  144.7910 C   0  0  0  0  0  0  0  0  0  0  0  0
  183.6040  179.0350  144.7640 O   0  0  0  0  0  1  0  0  0  0  0  0
  185.0740  178.4500  146.5730 C   0  0  0  0  0  3  0  0  0  0  0  0
  187.2990  176.3670  142.5100 C   0  0  0  0  0  0  0  0  0  0  0  0
  185.2850  177.6680  142.9640 C   0  0  0  0  0  3  0  0  0  0  0  0
  187.7950  176.0710  140.0390 C   0  0  0  0  0  3  0  0  0  0  0  0
  189.4490  172.0500  141.1020 S   0  0  0  0  0  0  0  0  0  0  0  0
  188.2500  175.8160  141.4710 C   0  0  0  0  0  0  0  0  0  0  0  0
  190.5310  172.0050  143.5820 N   0  0  0  0  0  0  0  0  0  0  0  0
  185.6000  177.7210  144.3190 C   0  0  0  0  0  0  0  0  0  0  0  0
  188.6780  173.4730  140.6330 C   0  0  2  0  0  3  0  0  0  0  0  0
  188.7540  175.6210  144.4950 C   0  0  0  0  0  3  0  0  0  0  0  0
  189.4030  174.5270  144.0820 C   0  0  0  0  0  0  0  0  0  0  0  0
  187.0640  177.1400  146.1660 C   0  0  0  0  0  3  0  0  0  0  0  0
  188.3210  173.7780  139.3880 C   0  0  0  0  0  3  0  0  0  0  0  0
  186.2240  177.8210  147.0480 C   0  0  0  0  0  0  0  0  0  0  0  0
  184.7580  178.4020  145.2140 C   0  0  0  0  0  0  0  0  0  0  0  0
  190.8010  172.6430  144.7530 C   0  0  0  0  0  3  0  0  0  0  0  0
  188.6020  174.3750  141.6960 C   0  0  0  0  0  0  0  0  0  0  0  0
  189.7380  172.6040  142.6610 C   0  0  0  0  0  0  0  0  0  0  0  0
  187.8170  175.1330  139.0750 C   0  0  0  0  0  0  0  0  0  0  0  0
  187.6170  176.3730  143.8930 C   0  0  0  0  0  0  0  0  0  0  0  0
  190.2430  173.9040  145.0190 C   0  0  0  0  0  3  0  0  0  0  0  0
  187.3690  175.4670  137.7470 N   0  0  0  0  0  0  0  0  0  0  0  0
  189.2770  174.6810  136.4160 N   0  0  0  0  0  1  0  0  0  0  0  0
  186.2090  176.0410  137.4800 N   0  0  0  0  0  0  0  0  0  0  0  0
  187.2610  175.7190  135.5320 N   0  0  0  0  0  0  0  0  0  0  0  0
  186.1480  176.1900  136.1390 C   0  0  0  0  0  3  0  0  0  0  0  0
  187.9930  175.2770  136.5700 C   0  0  0  0  0  0  0  0  0  0  0  0
  2  7  2  0  0  0  0
  2  8  1  0  0  0  0
  3 16  1  0  0  0  0
  4 17  1  0  0  0  0
  5 20  1  0  0  0  0
  6 19  1  0  0  0  0
  7 25  1  0  0  0  0
  8 13  2  0  0  0  0
  9 11  2  0  0  0  0
 10 23  1  0  0  0  0
 11 22  1  0  0  0  0
 11  7  1  0  0  0  0
 12 21  1  0  0  0  0
 13  4  1  0  0  0  0
 13 20  1  0  0  0  0
 14 18  1  6  0  0  0
 14 10  1  0  0  0  0
 14 22  1  0  0  0  0
 16 15  2  0  0  0  0
 16 26  1  0  0  0  0
 17 19  2  0  0  0  0
 19  1  1  0  0  0  0
 20  6  2  0  0  0  0
 21 26  2  0  0  0  0
 22  3  2  0  0  0  0
 23  3  1  0  0  0  0
 23 12  2  0  0  0  0
 24 18  2  0  0  0  0
 24  9  1  0  0  0  0
 25 15  1  0  0  0  0
 25  4  2  0  0  0  0
 27 24  1  0  0  0  0
 28 32  1  0  0  0  0
 29 27  1  0  0  0  0
 30 31  1  0  0  0  0
 30 32  2  0  0  0  0
 31 29  2  0  0  0  0
 32 27  1  0  0  0  0
M  END
>  <MODEL>
6

>  <REMARK>
 VINA RESULT:      -8.7      3.487      5.314
  Name = 
  1 active torsions:
  status: ('A' for Active; 'I' for Inactive)
    1  A    between atoms: N_4  and  C_30
                            x       y       z     vdW  Elec       q    Type
                         _______ _______ _______ _____ _____    ______ ____

>  <TORSDO>
F 1

$$$$
=
 OpenBabel11062420343D

 32 38  0  0  1  0  0  0  0  0999 V2000
  191.2130  171.1920  138.5390 F   0  0  0  0  0  0  0  0  0  0  0  0
  188.1790  175.4640  142.1480 C   0  0  0  0  0  3  0  0  0  0  0  0
  191.5270  174.6490  144.9790 C   0  0  0  0  0  0  0  0  0  0  0  0
  189.7870  173.4700  141.0420 C   0  0  0  0  0  0  0  0  0  0  0  0
  187.8160  174.5270  138.0640 O   0  0  0  0  0  1  0  0  0  0  0  0
  189.5210  172.8510  138.3060 C   0  0  0  0  0  3  0  0  0  0  0  0
  189.0910  174.7920  142.9800 C   0  0  0  0  0  0  0  0  0  0  0  0
  188.0670  175.1660  140.7960 C   0  0  0  0  0  3  0  0  0  0  0  0
  187.9460  176.0290  144.8770 C   0  0  0  0  0  3  0  0  0  0  0  0
  191.9960  176.4160  146.7440 S   0  0  0  0  0  0  0  0  0  0  0  0
  189.0420  175.0520  144.4690 C   0  0  2  0  0  3  0  0  0  0  0  0
  193.6120  174.3320  146.1380 N   0  0  0  0  0  0  0  0  0  0  0  0
  188.8540  174.1660  140.2330 C   0  0  0  0  0  0  0  0  0  0  0  0
  190.4860  176.4520  145.9970 C   0  0  0  0  0  0  0  0  0  0  0  0
  191.0270  173.1080  143.1560 C   0  0  0  0  0  3  0  0  0  0  0  0
  191.7420  173.4840  144.2220 C   0  0  0  0  0  0  0  0  0  0  0  0
  190.5780  172.4700  140.4460 C   0  0  0  0  0  3  0  0  0  0  0  0
  189.4710  177.2330  146.3550 C   0  0  0  0  0  3  0  0  0  0  0  0
  190.4440  172.1610  139.0920 C   0  0  0  0  0  0  0  0  0  0  0  0
  188.7280  173.8520  138.8690 C   0  0  0  0  0  0  0  0  0  0  0  0
  193.8160  173.1660  145.4670 C   0  0  0  0  0  3  0  0  0  0  0  0
  190.3730  175.4350  145.0470 C   0  0  0  0  0  0  0  0  0  0  0  0
  192.4970  175.0590  145.8890 C   0  0  0  0  0  0  0  0  0  0  0  0
  188.1380  177.0430  145.7400 C   0  0  0  0  0  0  0  0  0  0  0  0
  189.9330  173.7980  142.4160 C   0  0  0  0  0  0  0  0  0  0  0  0
  192.8920  172.7280  144.5040 C   0  0  0  0  0  3  0  0  0  0  0  0
  187.0400  177.9160  146.0680 N   0  0  0  0  0  0  0  0  0  0  0  0
  186.3830  178.6750  143.8270 N   0  0  0  0  0  1  0  0  0  0  0  0
  186.6180  178.1420  147.3000 N   0  0  0  0  0  0  0  0  0  0  0  0
  185.3280  179.3390  145.9180 N   0  0  0  0  0  0  0  0  0  0  0  0
  185.5820  179.0030  147.2040 C   0  0  0  0  0  3  0  0  0  0  0  0
  186.2590  178.6400  145.2450 C   0  0  0  0  0  0  0  0  0  0  0  0
  1 19  1  0  0  0  0
  2  7  1  0  0  0  0
  3 22  2  0  0  0  0
  3 23  1  0  0  0  0
  4 25  1  0  0  0  0
  5 20  1  0  0  0  0
  6 20  2  0  0  0  0
  6 19  1  0  0  0  0
  7 11  1  0  0  0  0
  8  2  2  0  0  0  0
  9 24  2  0  0  0  0
 11  9  1  6  0  0  0
 11 22  1  0  0  0  0
 13  8  1  0  0  0  0
 13  4  2  0  0  0  0
 14 18  2  0  0  0  0
 14 10  1  0  0  0  0
 15 16  2  0  0  0  0
 16 26  1  0  0  0  0
 16  3  1  0  0  0  0
 17  4  1  0  0  0  0
 19 17  2  0  0  0  0
 20 13  1  0  0  0  0
 21 12  1  0  0  0  0
 22 14  1  0  0  0  0
 23 12  2  0  0  0  0
 23 10  1  0  0  0  0
 24 27  1  0  0  0  0
 24 18  1  0  0  0  0
 25  7  2  0  0  0  0
 25 15  1  0  0  0  0
 26 21  2  0  0  0  0
 27 29  1  0  0  0  0
 28 32  1  0  0  0  0
 30 31  1  0  0  0  0
 31 29  2  0  0  0  0
 32 30  2  0  0  0  0
 32 27  1  0  0  0  0
M  END
>  <MODEL>
7

>  <REMARK>
 VINA RESULT:      -8.6      4.155      7.572
  Name = 
  1 active torsions:
  status: ('A' for Active; 'I' for Inactive)
    1  A    between atoms: N_4  and  C_30
                            x       y       z     vdW  Elec       q    Type
                         _______ _______ _______ _____ _____    ______ ____

>  <TORSDO>
F 1

$$$$
=
 OpenBabel11062420343D

 32 38  0  0  1  0  0  0  0  0999 V2000
  193.0600  169.2870  140.7190 F   0  0  0  0  0  0  0  0  0  0  0  0
  188.5180  173.7340  140.4430 C   0  0  0  0  0  3  0  0  0  0  0  0
  191.0760  175.7630  143.4810 C   0  0  0  0  0  0  0  0  0  0  0  0
  190.6660  172.0540  141.0340 C   0  0  0  0  0  0  0  0  0  0  0  0
  189.4180  170.5270  137.8750 O   0  0  0  0  0  1  0  0  0  0  0  0
  191.2450  169.9050  139.3070 C   0  0  0  0  0  3  0  0  0  0  0  0
  189.2730  173.9830  141.6030 C   0  0  0  0  0  0  0  0  0  0  0  0
  188.8220  172.6840  139.5860 C   0  0  0  0  0  3  0  0  0  0  0  0
  187.4770  175.6920  142.1460 C   0  0  0  0  0  3  0  0  0  0  0  0
  190.7620  178.2700  143.7590 S   0  0  0  0  0  0  0  0  0  0  0  0
  188.7860  175.0380  142.5710 C   0  0  2  0  0  3  0  0  0  0  0  0
  192.7970  176.8170  144.7910 N   0  0  0  0  0  0  0  0  0  0  0  0
  189.8830  171.8300  139.8740 C   0  0  0  0  0  0  0  0  0  0  0  0
  189.5210  177.4150  143.0040 C   0  0  0  0  0  0  0  0  0  0  0  0
  191.3380  173.3850  143.0130 C   0  0  0  0  0  3  0  0  0  0  0  0
  191.6710  174.5040  143.6650 C   0  0  0  0  0  0  0  0  0  0  0  0
  191.7390  171.1820  141.2980 C   0  0  0  0  0  3  0  0  0  0  0  0
  188.3340  177.9160  142.6740 C   0  0  0  0  0  3  0  0  0  0  0  0
  192.0240  170.1160  140.4440 C   0  0  0  0  0  0  0  0  0  0  0  0
  190.1780  170.7570  139.0170 C   0  0  0  0  0  0  0  0  0  0  0  0
  193.3610  175.6030  145.0400 C   0  0  0  0  0  3  0  0  0  0  0  0
  189.8330  176.0570  142.9120 C   0  0  0  0  0  0  0  0  0  0  0  0
  191.6870  176.8920  144.0200 C   0  0  0  0  0  0  0  0  0  0  0  0
  187.2640  177.0200  142.1820 C   0  0  0  0  0  0  0  0  0  0  0  0
  190.3840  173.1500  141.8920 C   0  0  0  0  0  0  0  0  0  0  0  0
  192.8110  174.4370  144.4840 C   0  0  0  0  0  3  0  0  0  0  0  0
  185.9910  177.5480  141.7630 N   0  0  0  0  0  0  0  0  0  0  0  0
  184.8440  177.7320  143.9260 N   0  0  0  0  0  1  0  0  0  0  0  0
  185.6780  177.8130  140.5060 N   0  0  0  0  0  0  0  0  0  0  0  0
  183.9030  178.3370  141.7640 N   0  0  0  0  0  0  0  0  0  0  0  0
  184.4140  178.2910  140.5130 C   0  0  0  0  0  3  0  0  0  0  0  0
  184.9180  177.8670  142.5110 C   0  0  0  0  0  0  0  0  0  0  0  0
  2  7  1  0  0  0  0
  3 16  1  0  0  0  0
  3 23  1  0  0  0  0
  4 17  1  0  0  0  0
  4 25  1  0  0  0  0
  5 20  1  0  0  0  0
  6 19  1  0  0  0  0
  7 25  2  0  0  0  0
  7 11  1  0  0  0  0
  8 13  1  0  0  0  0
  8  2  2  0  0  0  0
  9 24  2  0  0  0  0
 10 23  1  0  0  0  0
 11  9  1  6  0  0  0
 11 22  1  0  0  0  0
 12 21  1  0  0  0  0
 13  4  2  0  0  0  0
 14 10  1  0  0  0  0
 15 16  2  0  0  0  0
 16 26  1  0  0  0  0
 18 14  2  0  0  0  0
 19  1  1  0  0  0  0
 19 17  2  0  0  0  0
 20  6  2  0  0  0  0
 20 13  1  0  0  0  0
 22 14  1  0  0  0  0
 22  3  2  0  0  0  0
 23 12  2  0  0  0  0
 24 18  1  0  0  0  0
 25 15  1  0  0  0  0
 26 21  2  0  0  0  0
 27 24  1  0  0  0  0
 27 32  1  0  0  0  0
 29 31  2  0  0  0  0
 29 27  1  0  0  0  0
 30 32  2  0  0  0  0
 31 30  1  0  0  0  0
 32 28  1  0  0  0  0
M  END
>  <MODEL>
8

>  <REMARK>
 VINA RESULT:      -8.4      4.348      6.626
  Name = 
  1 active torsions:
  status: ('A' for Active; 'I' for Inactive)
    1  A    between atoms: N_4  and  C_30
                            x       y       z     vdW  Elec       q    Type
                         _______ _______ _______ _____ _____    ______ ____

>  <TORSDO>
F 1

$$$$
=
 OpenBabel11062420343D

 32 38  0  0  1  0  0  0  0  0999 V2000
  196.8570  174.7860  143.6080 F   0  0  0  0  0  0  0  0  0  0  0  0
  191.0140  177.0750  144.6590 C   0  0  0  0  0  3  0  0  0  0  0  0
  189.8760  174.1060  141.5310 C   0  0  0  0  0  0  0  0  0  0  0  0
  193.3440  175.8480  143.7350 C   0  0  0  0  0  0  0  0  0  0  0  0
  194.5660  177.4130  146.8860 O   0  0  0  0  0  1  0  0  0  0  0  0
  195.7150  176.0950  145.2360 C   0  0  0  0  0  3  0  0  0  0  0  0
  190.9680  176.3590  143.4490 C   0  0  0  0  0  0  0  0  0  0  0  0
  192.1820  177.1770  145.4030 C   0  0  0  0  0  3  0  0  0  0  0  0
  188.6330  177.3260  143.2130 C   0  0  0  0  0  3  0  0  0  0  0  0
  187.4410  173.3800  141.4670 S   0  0  0  0  0  0  0  0  0  0  0  0
  189.7100  176.4300  142.6130 C   0  0  0  0  0  0  0  0  0  0  0  0
  189.4730  172.1890  140.1340 N   0  0  0  0  0  0  0  0  0  0  0  0
  193.3550  176.5800  144.9490 C   0  0  0  0  0  0  0  0  0  0  0  0
  187.7990  174.8120  142.2800 C   0  0  2  0  0  3  0  0  0  0  0  0
  192.1940  174.8150  141.7990 C   0  0  0  0  0  3  0  0  0  0  0  0
  191.2410  174.0920  141.1980 C   0  0  0  0  0  0  0  0  0  0  0  0
  194.5400  175.2470  143.3020 C   0  0  0  0  0  3  0  0  0  0  0  0
  186.9010  175.6660  142.7630 C   0  0  0  0  0  3  0  0  0  0  0  0
  195.7150  175.3710  144.0450 C   0  0  0  0  0  0  0  0  0  0  0  0
  194.5410  176.6980  145.6920 C   0  0  0  0  0  0  0  0  0  0  0  0
  190.7760  172.1900  139.7430 C   0  0  0  0  0  3  0  0  0  0  0  0
  189.1690  175.0800  142.2430 C   0  0  0  0  0  0  0  0  0  0  0  0
  189.0390  173.1200  141.0170 C   0  0  0  0  0  0  0  0  0  0  0  0
  187.3370  176.9770  143.2940 C   0  0  0  0  0  0  0  0  0  0  0  0
  192.1420  175.7080  142.9900 C   0  0  0  0  0  0  0  0  0  0  0  0
  191.6740  173.1350  140.2670 C   0  0  0  0  0  3  0  0  0  0  0  0
  186.3880  177.8910  143.8770 N   0  0  0  0  0  0  0  0  0  0  0  0
  185.9660  176.7910  146.0310 N   0  0  0  0  0  1  0  0  0  0  0  0
  185.9590  178.9910  143.2830 N   0  0  0  0  0  0  0  0  0  0  0  0
  184.9510  178.8700  145.2760 N   0  0  0  0  0  0  0  0  0  0  0  0
  185.0910  179.5790  144.1330 C   0  0  0  0  0  3  0  0  0  0  0  0
  185.7770  177.8280  145.0740 C   0  0  0  0  0  0  0  0  0  0  0  0
  1 19  1  0  0  0  0
  2  8  1  0  0  0  0
  3 22  2  0  0  0  0
  4 13  1  0  0  0  0
  6 20  2  0  0  0  0
  7  2  2  0  0  0  0
  9 24  1  0  0  0  0
 10 14  1  0  0  0  0
 11  9  2  0  0  0  0
 11  7  1  0  0  0  0
 12 23  2  0  0  0  0
 13  8  2  0  0  0  0
 13 20  1  0  0  0  0
 14 18  1  6  0  0  0
 15 25  1  0  0  0  0
 16  3  1  0  0  0  0
 16 15  2  0  0  0  0
 17  4  1  0  0  0  0
 17 19  2  0  0  0  0
 18 24  2  0  0  0  0
 19  6  1  0  0  0  0
 20  5  1  0  0  0  0
 21 12  1  0  0  0  0
 21 26  2  0  0  0  0
 22 14  1  0  0  0  0
 22 11  1  0  0  0  0
 23 10  1  0  0  0  0
 23  3  1  0  0  0  0
 24 27  1  0  0  0  0
 25  7  1  0  0  0  0
 25  4  2  0  0  0  0
 26 16  1  0  0  0  0
 27 32  1  0  0  0  0
 29 27  1  0  0  0  0
 29 31  2  0  0  0  0
 31 30  1  0  0  0  0
 32 30  2  0  0  0  0
 32 28  1  0  0  0  0
M  END
>  <MODEL>
9

>  <REMARK>
 VINA RESULT:      -8.3      2.997      5.944
  Name = 
  1 active torsions:
  status: ('A' for Active; 'I' for Inactive)
    1  A    between atoms: N_4  and  C_30
                            x       y       z     vdW  Elec       q    Type
                         _______ _______ _______ _____ _____    ______ ____

>  <TORSDO>
F 1

$$$$
