=
 OpenBabel11062419333D

 40 43  0  0  1  0  0  0  0  0999 V2000
  193.6830  174.4500  143.1490 C   0  0  0  0  0  2  0  0  0  0  0  0
  194.3730  176.4160  145.1800 C   0  0  0  0  0  0  0  0  0  0  0  0
  195.3080  175.6770  144.6590 N   0  0  0  0  0  0  0  0  0  0  0  0
  192.9100  176.2330  144.7900 C   0  0  1  0  0  3  0  0  0  0  0  0
  195.9920  173.8990  143.3200 O   0  0  0  0  0  0  0  0  0  0  0  0
  194.7930  177.5640  146.0330 C   0  0  0  0  0  1  0  0  0  0  0  0
  192.6460  174.8380  144.1960 C   0  0  1  0  0  3  0  0  0  0  0  0
  195.0500  174.6300  143.7170 C   0  0  0  0  0  0  0  0  0  0  0  0
  191.3840  175.2370  146.5810 C   0  0  0  0  0  2  0  0  0  0  0  0
  189.5650  176.8690  146.4420 C   0  0  2  0  0  3  0  0  0  0  0  0
  190.6850  177.3000  145.5010 C   0  0  0  0  0  2  0  0  0  0  0  0
  191.9020  176.4960  145.9210 C   0  0  2  0  0  3  0  0  0  0  0  0
  189.1360  174.4890  147.3800 C   0  0  0  0  0  1  0  0  0  0  0  0
  190.0930  175.6650  147.2410 C   0  0  1  0  0  3  0  0  0  0  0  0
  186.1920  177.9890  146.0330 C   0  0  2  0  0  0  0  0  0  0  0  0
  186.5290  179.2090  146.6240 O   0  0  0  0  0  1  0  0  0  0  0  0
  187.0480  176.8980  146.6570 C   0  0  0  0  0  2  0  0  0  0  0  0
  188.2220  176.6700  145.7170 C   0  0  1  0  0  3  0  0  0  0  0  0
  188.0380  177.6100  144.5320 C   0  0  0  0  0  2  0  0  0  0  0  0
  186.5830  178.0330  144.5560 C   0  0  1  0  0  3  0  0  0  0  0  0
  184.7230  177.7260  146.2410 C   0  0  0  0  0  0  0  0  0  0  0  0
  184.3410  176.6400  146.7520 O   0  0  0  0  0  1  0  0  0  0  0  0
  183.7820  178.7050  145.9410 O   0  0  0  0  0  0  0  0  0  0  0  0
  185.8370  177.1200  143.7970 O   0  0  0  0  0  0  0  0  0  0  0  0
  186.2050  177.1240  141.0630 O   0  0  0  0  0  0  0  0  0  0  0  0
  185.4590  177.9250  142.3520 P   0  0  0  0  0  0  0  0  0  0  0  0
  185.9640  179.3500  142.4070 O   0  0  0  0  0  1  0  0  0  0  0  0
  183.7850  177.9290  142.1070 O   0  0  0  0  0  1  0  0  0  0  0  0
  191.3230  174.7280  143.6680 O   0  0  0  0  0  0  0  0  0  0  0  0
  190.6440  173.5140  143.5010 C   0  0  0  0  0  0  0  0  0  0  0  0
  190.5900  172.6670  144.4350 O   0  0  0  0  0  0  0  0  0  0  0  0
  190.0130  173.2180  142.1780 C   0  0  2  0  0  3  0  0  0  0  0  0
  190.4380  172.4430  139.8290 C   0  0  0  0  0  2  0  0  0  0  0  0
  188.6600  174.1390  140.2710 C   0  0  0  0  0  2  0  0  0  0  0  0
  188.2510  174.8170  142.5170 O   0  0  0  0  0  1  0  0  0  0  0  0
  191.0720  172.7400  141.1840 C   0  0  0  0  0  2  0  0  0  0  0  0
  189.7420  173.6890  139.2920 C   0  0  2  0  0  3  0  0  0  0  0  0
  189.2700  174.4470  141.6370 C   0  0  1  0  0  3  0  0  0  0  0  0
  189.1240  173.3760  137.9420 C   0  0  0  0  0  2  0  0  0  0  0  0
  187.9130  174.0540  137.7990 O   0  0  0  0  0  1  0  0  0  0  0  0
  1  8  1  0  0  0  0
  1  7  1  0  0  0  0
  2  6  1  0  0  0  0
  3  2  2  0  0  0  0
  4  2  1  1  0  0  0
  4 12  1  0  0  0  0
  5  8  2  0  0  0  0
  7 29  1  6  0  0  0
  7  4  1  0  0  0  0
  8  3  1  0  0  0  0
  9 14  1  0  0  0  0
 10 11  1  6  0  0  0
 10 14  1  0  0  0  0
 12 11  1  6  0  0  0
 12  9  1  0  0  0  0
 14 13  1  6  0  0  0
 15 21  1  0  0  0  0
 15 16  1  1  0  0  0
 15 17  1  0  0  0  0
 18 19  1  6  0  0  0
 18 10  1  0  0  0  0
 18 17  1  0  0  0  0
 19 20  1  0  0  0  0
 20 24  1  6  0  0  0
 20 15  1  0  0  0  0
 21 22  1  0  0  0  0
 23 21  2  0  0  0  0
 25 26  2  0  0  0  0
 26 27  1  0  0  0  0
 26 24  1  0  0  0  0
 28 26  1  0  0  0  0
 30 29  1  0  0  0  0
 30 31  2  0  0  0  0
 32 30  1  1  0  0  0
 33 36  1  0  0  0  0
 34 38  1  0  0  0  0
 36 32  1  0  0  0  0
 37 39  1  6  0  0  0
 37 33  1  0  0  0  0
 37 34  1  0  0  0  0
 38 32  1  0  0  0  0
 38 35  1  1  0  0  0
 40 39  1  0  0  0  0
M  END
>  <MODEL>
1

>  <REMARK>
 VINA RESULT:      -8.0      0.000      0.000
  Name = 
  9 active torsions:
  status: ('A' for Active; 'I' for Inactive)
    1  A    between atoms: C_1  and  C_2
    2  A    between atoms: C_1  and  O_37
    3  A    between atoms: C_5  and  C_6
    4  A    between atoms: C_7  and  C_35
    5  A    between atoms: O_14  and  P_24
    6  A    between atoms: O_14  and  C_32
    7  A    between atoms: C_18  and  C_33
    8  A    between atoms: C_21  and  C_27
    9  A    between atoms: C_34  and  O_37
                            x       y       z     vdW  Elec       q    Type
                         _______ _______ _______ _____ _____    ______ ____

>  <TORSDO>
F 9

$$$$
=
 OpenBabel11062419333D

 40 43  0  0  1  0  0  0  0  0999 V2000
  193.5210  175.7130  142.0720 C   0  0  0  0  0  2  0  0  0  0  0  0
  194.4210  176.5750  144.7010 C   0  0  0  0  0  0  0  0  0  0  0  0
  195.2860  176.1090  143.8480 N   0  0  0  0  0  0  0  0  0  0  0  0
  192.9330  176.6250  144.3720 C   0  0  1  0  0  3  0  0  0  0  0  0
  195.8000  175.0730  141.8270 O   0  0  0  0  0  0  0  0  0  0  0  0
  194.9480  177.2220  145.9360 C   0  0  0  0  0  1  0  0  0  0  0  0
  192.5610  175.6370  143.2520 C   0  0  1  0  0  3  0  0  0  0  0  0
  194.9220  175.5860  142.5660 C   0  0  0  0  0  0  0  0  0  0  0  0
  191.5660  174.9600  145.7460 C   0  0  0  0  0  2  0  0  0  0  0  0
  189.6930  176.4280  146.3180 C   0  0  2  0  0  3  0  0  0  0  0  0
  190.7310  177.2350  145.5460 C   0  0  0  0  0  2  0  0  0  0  0  0
  191.9980  176.3990  145.5730 C   0  0  2  0  0  3  0  0  0  0  0  0
  189.4020  173.8500  146.3300 C   0  0  0  0  0  1  0  0  0  0  0  0
  190.3110  175.0440  146.5850 C   0  0  1  0  0  3  0  0  0  0  0  0
  186.3690  177.7520  146.3280 C   0  0  2  0  0  0  0  0  0  0  0  0
  186.7980  178.8110  147.1310 O   0  0  0  0  0  1  0  0  0  0  0  0
  187.1940  176.5210  146.6740 C   0  0  0  0  0  2  0  0  0  0  0  0
  188.3100  176.4370  145.6430 C   0  0  1  0  0  3  0  0  0  0  0  0
  188.1220  177.6040  144.6820 C   0  0  0  0  0  2  0  0  0  0  0  0
  186.6940  178.0760  144.8700 C   0  0  1  0  0  3  0  0  0  0  0  0
  184.8990  177.5160  146.5600 C   0  0  0  0  0  0  0  0  0  0  0  0
  184.4840  176.3680  146.8730 O   0  0  0  0  0  1  0  0  0  0  0  0
  183.9980  178.5740  146.5060 O   0  0  0  0  0  0  0  0  0  0  0  0
  185.8660  177.3680  143.9870 O   0  0  0  0  0  0  0  0  0  0  0  0
  183.6150  178.0610  142.5500 O   0  0  0  0  0  1  0  0  0  0  0  0
  185.1850  178.5350  142.9610 P   0  0  0  0  0  0  0  0  0  0  0  0
  186.0100  178.6570  141.6980 O   0  0  0  0  0  0  0  0  0  0  0  0
  185.1240  180.0350  143.7420 O   0  0  0  0  0  1  0  0  0  0  0  0
  191.2090  175.8080  142.8220 O   0  0  0  0  0  0  0  0  0  0  0  0
  190.3510  174.7510  142.4910 C   0  0  0  0  0  0  0  0  0  0  0  0
  189.1380  174.7670  142.8380 O   0  0  0  0  0  0  0  0  0  0  0  0
  190.9070  173.5780  141.7490 C   0  0  2  0  0  3  0  0  0  0  0  0
  190.9870  172.4020  139.5340 C   0  0  0  0  0  2  0  0  0  0  0  0
  191.0640  171.0730  141.6460 C   0  0  0  0  0  2  0  0  0  0  0  0
  191.0340  172.2240  143.7300 O   0  0  0  0  0  1  0  0  0  0  0  0
  190.4310  173.5990  140.2960 C   0  0  0  0  0  2  0  0  0  0  0  0
  190.5530  171.1040  140.2070 C   0  0  2  0  0  3  0  0  0  0  0  0
  190.5180  172.2610  142.4330 C   0  0  1  0  0  3  0  0  0  0  0  0
  191.1110  169.9250  139.4310 C   0  0  0  0  0  2  0  0  0  0  0  0
  191.9770  170.3740  138.4340 O   0  0  0  0  0  1  0  0  0  0  0  0
  1  8  1  0  0  0  0
  1  7  1  0  0  0  0
  2  6  1  0  0  0  0
  3  2  2  0  0  0  0
  4  2  1  1  0  0  0
  4 12  1  0  0  0  0
  5  8  2  0  0  0  0
  7 29  1  6  0  0  0
  7  4  1  0  0  0  0
  8  3  1  0  0  0  0
  9 14  1  0  0  0  0
 10 11  1  6  0  0  0
 10 14  1  0  0  0  0
 12 11  1  6  0  0  0
 12  9  1  0  0  0  0
 14 13  1  6  0  0  0
 15 21  1  0  0  0  0
 15 17  1  0  0  0  0
 15 16  1  1  0  0  0
 18 19  1  6  0  0  0
 18 10  1  0  0  0  0
 18 17  1  0  0  0  0
 19 20  1  0  0  0  0
 20 24  1  6  0  0  0
 20 15  1  0  0  0  0
 21 22  1  0  0  0  0
 23 21  2  0  0  0  0
 25 26  1  0  0  0  0
 26 28  1  0  0  0  0
 26 24  1  0  0  0  0
 27 26  2  0  0  0  0
 30 29  1  0  0  0  0
 30 31  2  0  0  0  0
 32 38  1  0  0  0  0
 32 30  1  1  0  0  0
 33 37  1  0  0  0  0
 33 36  1  0  0  0  0
 34 38  1  0  0  0  0
 36 32  1  0  0  0  0
 37 39  1  6  0  0  0
 37 34  1  0  0  0  0
 38 35  1  1  0  0  0
 40 39  1  0  0  0  0
M  END
>  <MODEL>
2

>  <REMARK>
 VINA RESULT:      -7.4      1.364      1.946
  Name = 
  9 active torsions:
  status: ('A' for Active; 'I' for Inactive)
    1  A    between atoms: C_1  and  C_2
    2  A    between atoms: C_1  and  O_37
    3  A    between atoms: C_5  and  C_6
    4  A    between atoms: C_7  and  C_35
    5  A    between atoms: O_14  and  P_24
    6  A    between atoms: O_14  and  C_32
    7  A    between atoms: C_18  and  C_33
    8  A    between atoms: C_21  and  C_27
    9  A    between atoms: C_34  and  O_37
                            x       y       z     vdW  Elec       q    Type
                         _______ _______ _______ _____ _____    ______ ____

>  <TORSDO>
F 9

$$$$
=
 OpenBabel11062419333D

 40 43  0  0  1  0  0  0  0  0999 V2000
  188.8520  177.1860  146.5020 C   0  0  0  0  0  2  0  0  0  0  0  0
  187.0910  176.5080  144.2860 C   0  0  0  0  0  0  0  0  0  0  0  0
  186.5800  176.9240  145.4080 N   0  0  0  0  0  0  0  0  0  0  0  0
  188.5950  176.3120  144.1270 C   0  0  1  0  0  3  0  0  0  0  0  0
  186.7930  177.5160  147.6500 O   0  0  0  0  0  0  0  0  0  0  0  0
  186.1820  176.4010  143.1100 C   0  0  0  0  0  1  0  0  0  0  0  0
  189.2980  176.1420  145.4860 C   0  0  1  0  0  3  0  0  0  0  0  0
  187.3630  177.2000  146.5750 C   0  0  0  0  0  0  0  0  0  0  0  0
  189.2200  173.8430  143.9280 C   0  0  0  0  0  2  0  0  0  0  0  0
  190.8640  174.0390  142.1240 C   0  0  2  0  0  3  0  0  0  0  0  0
  190.2520  175.4120  142.3830 C   0  0  0  0  0  2  0  0  0  0  0  0
  189.0000  175.1520  143.2020 C   0  0  2  0  0  3  0  0  0  0  0  0
  190.9190  172.0170  143.7480 C   0  0  0  0  0  1  0  0  0  0  0  0
  190.0800  173.0320  142.9850 C   0  0  1  0  0  3  0  0  0  0  0  0
  194.0460  174.0920  140.4910 C   0  0  2  0  0  0  0  0  0  0  0  0
  193.4380  174.5750  139.3300 O   0  0  0  0  0  1  0  0  0  0  0  0
  193.0580  173.1860  141.2110 C   0  0  0  0  0  2  0  0  0  0  0  0
  192.3940  174.0300  142.2880 C   0  0  1  0  0  3  0  0  0  0  0  0
  193.0120  175.4200  142.2130 C   0  0  0  0  0  2  0  0  0  0  0  0
  194.3040  175.2640  141.4380 C   0  0  1  0  0  3  0  0  0  0  0  0
  195.3050  173.3520  140.1210 C   0  0  0  0  0  0  0  0  0  0  0  0
  195.5670  172.2400  140.6520 O   0  0  0  0  0  1  0  0  0  0  0  0
  196.1530  173.8510  139.1360 O   0  0  0  0  0  0  0  0  0  0  0  0
  195.3390  174.9800  142.3400 O   0  0  0  0  0  0  0  0  0  0  0  0
  196.8600  176.9520  143.5270 O   0  0  0  0  0  1  0  0  0  0  0  0
  196.5220  176.1660  142.0690 P   0  0  0  0  0  0  0  0  0  0  0  0
  196.0160  177.1800  141.0670 O   0  0  0  0  0  0  0  0  0  0  0  0
  197.9390  175.4520  141.4830 O   0  0  0  0  0  1  0  0  0  0  0  0
  190.7200  176.1370  145.3500 O   0  0  0  0  0  0  0  0  0  0  0  0
  191.5840  175.4050  146.1750 C   0  0  0  0  0  0  0  0  0  0  0  0
  191.2460  175.0880  147.3490 O   0  0  0  0  0  0  0  0  0  0  0  0
  192.9360  175.0360  145.6550 C   0  0  2  0  0  3  0  0  0  0  0  0
  194.5440  173.1470  145.2780 C   0  0  0  0  0  2  0  0  0  0  0  0
  195.4120  175.4140  145.8570 C   0  0  0  0  0  2  0  0  0  0  0  0
  193.8610  177.1950  146.1620 O   0  0  0  0  0  1  0  0  0  0  0  0
  193.1640  173.5310  145.7990 C   0  0  0  0  0  2  0  0  0  0  0  0
  195.6230  173.9130  146.0360 C   0  0  2  0  0  3  0  0  0  0  0  0
  194.0360  175.8260  146.3750 C   0  0  1  0  0  3  0  0  0  0  0  0
  196.9880  173.5130  145.5080 C   0  0  0  0  0  2  0  0  0  0  0  0
  196.8490  172.6150  144.4500 O   0  0  0  0  0  1  0  0  0  0  0  0
  1  8  1  0  0  0  0
  2  3  2  0  0  0  0
  3  8  1  0  0  0  0
  4  2  1  1  0  0  0
  4  7  1  0  0  0  0
  6  2  1  0  0  0  0
  7 29  1  6  0  0  0
  7  1  1  0  0  0  0
  8  5  2  0  0  0  0
 10 18  1  0  0  0  0
 10 11  1  1  0  0  0
 10 14  1  0  0  0  0
 12 11  1  1  0  0  0
 12  9  1  0  0  0  0
 12  4  1  0  0  0  0
 14 13  1  1  0  0  0
 14  9  1  0  0  0  0
 15 16  1  6  0  0  0
 15 17  1  0  0  0  0
 15 20  1  0  0  0  0
 18 17  1  6  0  0  0
 19 18  1  0  0  0  0
 20 19  1  0  0  0  0
 20 24  1  1  0  0  0
 21 15  1  0  0  0  0
 21 22  1  0  0  0  0
 23 21  2  0  0  0  0
 26 24  1  0  0  0  0
 26 25  1  0  0  0  0
 27 26  2  0  0  0  0
 28 26  1  0  0  0  0
 29 30  1  0  0  0  0
 30 31  2  0  0  0  0
 32 36  1  0  0  0  0
 32 30  1  1  0  0  0
 32 38  1  0  0  0  0
 33 36  1  0  0  0  0
 33 37  1  0  0  0  0
 34 37  1  0  0  0  0
 34 38  1  0  0  0  0
 37 39  1  6  0  0  0
 38 35  1  6  0  0  0
 40 39  1  0  0  0  0
M  END
>  <MODEL>
3

>  <REMARK>
 VINA RESULT:      -7.1      3.631      8.546
  Name = 
  9 active torsions:
  status: ('A' for Active; 'I' for Inactive)
    1  A    between atoms: C_1  and  C_2
    2  A    between atoms: C_1  and  O_37
    3  A    between atoms: C_5  and  C_6
    4  A    between atoms: C_7  and  C_35
    5  A    between atoms: O_14  and  P_24
    6  A    between atoms: O_14  and  C_32
    7  A    between atoms: C_18  and  C_33
    8  A    between atoms: C_21  and  C_27
    9  A    between atoms: C_34  and  O_37
                            x       y       z     vdW  Elec       q    Type
                         _______ _______ _______ _____ _____    ______ ____

>  <TORSDO>
F 9

$$$$
=
 OpenBabel11062419333D

 40 43  0  0  1  0  0  0  0  0999 V2000
  193.9220  173.3570  138.9500 C   0  0  0  0  0  2  0  0  0  0  0  0
  191.2030  173.3540  139.9870 C   0  0  0  0  0  0  0  0  0  0  0  0
  191.4240  173.7460  138.7660 N   0  0  0  0  0  0  0  0  0  0  0  0
  192.3500  172.9500  140.9080 C   0  0  1  0  0  3  0  0  0  0  0  0
  192.8790  174.3260  137.0430 O   0  0  0  0  0  0  0  0  0  0  0  0
  189.7870  173.1410  140.4000 C   0  0  0  0  0  1  0  0  0  0  0  0
  193.6920  173.5440  140.4450 C   0  0  1  0  0  3  0  0  0  0  0  0
  192.7340  173.8590  138.2010 C   0  0  0  0  0  0  0  0  0  0  0  0
  191.4400  172.1960  143.1730 C   0  0  0  0  0  2  0  0  0  0  0  0
  190.6610  174.3710  143.9820 C   0  0  2  0  0  3  0  0  0  0  0  0
  191.3520  174.5660  142.6360 C   0  0  0  0  0  2  0  0  0  0  0  0
  192.1360  173.2900  142.3920 C   0  0  2  0  0  3  0  0  0  0  0  0
  189.6540  172.1740  144.9230 C   0  0  0  0  0  1  0  0  0  0  0  0
  190.8770  172.9030  144.3860 C   0  0  1  0  0  3  0  0  0  0  0  0
  188.3810  176.9470  144.9680 C   0  0  2  0  0  0  0  0  0  0  0  0
  189.4540  177.8230  145.1440 O   0  0  0  0  0  1  0  0  0  0  0  0
  188.8500  175.5390  145.3010 C   0  0  0  0  0  2  0  0  0  0  0  0
  189.2050  174.8710  143.9810 C   0  0  1  0  0  3  0  0  0  0  0  0
  188.9190  175.8800  142.8760 C   0  0  0  0  0  2  0  0  0  0  0  0
  188.0040  176.9210  143.4870 C   0  0  1  0  0  3  0  0  0  0  0  0
  187.2400  177.3740  145.8540 C   0  0  0  0  0  0  0  0  0  0  0  0
  186.7180  178.5100  145.7110 O   0  0  0  0  0  0  0  0  0  0  0  0
  186.7050  176.4920  146.7880 O   0  0  0  0  0  1  0  0  0  0  0  0
  186.6750  176.5180  143.3000 O   0  0  0  0  0  0  0  0  0  0  0  0
  186.3310  177.1110  140.6270 O   0  0  0  0  0  0  0  0  0  0  0  0
  186.0070  177.6280  142.2040 P   0  0  0  0  0  0  0  0  0  0  0  0
  186.6240  178.9940  142.4130 O   0  0  0  0  0  1  0  0  0  0  0  0
  184.3320  177.7260  142.4220 O   0  0  0  0  0  1  0  0  0  0  0  0
  194.7900  173.0250  141.1990 O   0  0  0  0  0  0  0  0  0  0  0  0
  195.8330  173.8100  141.7060 C   0  0  0  0  0  0  0  0  0  0  0  0
  196.9030  173.9670  141.0550 O   0  0  0  0  0  0  0  0  0  0  0  0
  195.6750  174.4310  143.0570 C   0  0  2  0  0  3  0  0  0  0  0  0
  194.7690  174.1020  145.3730 C   0  0  0  0  0  2  0  0  0  0  0  0
  194.7570  176.3790  144.3510 C   0  0  0  0  0  2  0  0  0  0  0  0
  195.6680  176.6640  142.1700 O   0  0  0  0  0  1  0  0  0  0  0  0
  194.9410  173.4730  143.9950 C   0  0  0  0  0  2  0  0  0  0  0  0
  193.9990  175.4130  145.2590 C   0  0  2  0  0  3  0  0  0  0  0  0
  194.9400  175.7740  142.9620 C   0  0  1  0  0  3  0  0  0  0  0  0
  193.8330  176.0200  146.6400 C   0  0  0  0  0  2  0  0  0  0  0  0
  192.4810  176.2290  146.9130 O   0  0  0  0  0  1  0  0  0  0  0  0
  1  7  1  0  0  0  0
  2  6  1  0  0  0  0
  3  2  2  0  0  0  0
  4  2  1  6  0  0  0
  4 12  1  0  0  0  0
  5  8  2  0  0  0  0
  7  4  1  0  0  0  0
  7 29  1  1  0  0  0
  8  3  1  0  0  0  0
  8  1  1  0  0  0  0
  9 14  1  0  0  0  0
 10 11  1  6  0  0  0
 10 14  1  0  0  0  0
 12 11  1  6  0  0  0
 12  9  1  0  0  0  0
 14 13  1  6  0  0  0
 15 16  1  1  0  0  0
 15 17  1  0  0  0  0
 15 21  1  0  0  0  0
 18 19  1  6  0  0  0
 18 10  1  0  0  0  0
 18 17  1  0  0  0  0
 19 20  1  0  0  0  0
 20 24  1  1  0  0  0
 20 15  1  0  0  0  0
 21 23  1  0  0  0  0
 22 21  2  0  0  0  0
 25 26  2  0  0  0  0
 26 27  1  0  0  0  0
 26 28  1  0  0  0  0
 26 24  1  0  0  0  0
 29 30  1  0  0  0  0
 31 30  2  0  0  0  0
 32 30  1  6  0  0  0
 32 36  1  0  0  0  0
 34 37  1  0  0  0  0
 36 33  1  0  0  0  0
 37 33  1  0  0  0  0
 37 39  1  1  0  0  0
 38 35  1  6  0  0  0
 38 32  1  0  0  0  0
 38 34  1  0  0  0  0
 39 40  1  0  0  0  0
M  END
>  <MODEL>
4

>  <REMARK>
 VINA RESULT:      -6.9      2.344      5.341
  Name = 
  9 active torsions:
  status: ('A' for Active; 'I' for Inactive)
    1  A    between atoms: C_1  and  C_2
    2  A    between atoms: C_1  and  O_37
    3  A    between atoms: C_5  and  C_6
    4  A    between atoms: C_7  and  C_35
    5  A    between atoms: O_14  and  P_24
    6  A    between atoms: O_14  and  C_32
    7  A    between atoms: C_18  and  C_33
    8  A    between atoms: C_21  and  C_27
    9  A    between atoms: C_34  and  O_37
                            x       y       z     vdW  Elec       q    Type
                         _______ _______ _______ _____ _____    ______ ____

>  <TORSDO>
F 9

$$$$
=
 OpenBabel11062419333D

 40 43  0  0  1  0  0  0  0  0999 V2000
  192.1650  171.6010  143.5370 C   0  0  0  0  0  2  0  0  0  0  0  0
  189.7530  172.5810  142.2360 C   0  0  0  0  0  0  0  0  0  0  0  0
  190.0720  171.3230  142.1340 N   0  0  0  0  0  0  0  0  0  0  0  0
  190.6510  173.5670  142.9760 C   0  0  1  0  0  3  0  0  0  0  0  0
  191.5640  169.5660  142.4580 O   0  0  0  0  0  0  0  0  0  0  0  0
  188.4010  172.9930  141.7630 C   0  0  0  0  0  1  0  0  0  0  0  0
  192.0980  173.0540  143.0840 C   0  0  1  0  0  3  0  0  0  0  0  0
  191.2790  170.7720  142.6690 C   0  0  0  0  0  0  0  0  0  0  0  0
  191.6480  175.9160  143.0740 C   0  0  0  0  0  2  0  0  0  0  0  0
  189.6310  177.1800  142.5030 C   0  0  2  0  0  3  0  0  0  0  0  0
  189.3160  175.6900  142.4240 C   0  0  0  0  0  2  0  0  0  0  0  0
  190.6630  174.9900  142.3960 C   0  0  2  0  0  3  0  0  0  0  0  0
  191.5700  178.3050  143.8090 C   0  0  0  0  0  1  0  0  0  0  0  0
  191.1460  177.3040  142.7440 C   0  0  1  0  0  3  0  0  0  0  0  0
  186.2870  177.7740  143.6290 C   0  0  2  0  0  0  0  0  0  0  0  0
  185.8700  176.6010  142.9950 O   0  0  0  0  0  1  0  0  0  0  0  0
  187.4290  178.3760  142.8240 C   0  0  0  0  0  2  0  0  0  0  0  0
  188.7200  177.9290  143.4930 C   0  0  1  0  0  3  0  0  0  0  0  0
  188.3320  177.0880  144.7010 C   0  0  0  0  0  2  0  0  0  0  0  0
  186.8810  177.4140  144.9900 C   0  0  1  0  0  3  0  0  0  0  0  0
  185.1230  178.7240  143.7310 C   0  0  0  0  0  0  0  0  0  0  0  0
  183.9440  178.2820  143.7490 O   0  0  0  0  0  0  0  0  0  0  0  0
  185.3380  180.0910  143.8820 O   0  0  0  0  0  1  0  0  0  0  0  0
  186.8310  178.4990  145.8770 O   0  0  0  0  0  0  0  0  0  0  0  0
  186.7350  178.6260  148.6320 O   0  0  0  0  0  1  0  0  0  0  0  0
  186.0350  177.9260  147.2610 P   0  0  0  0  0  0  0  0  0  0  0  0
  186.1730  176.4220  147.3500 O   0  0  0  0  0  1  0  0  0  0  0  0
  184.3950  178.3400  147.2040 O   0  0  0  0  0  0  0  0  0  0  0  0
  192.8950  173.8890  143.9270 O   0  0  0  0  0  0  0  0  0  0  0  0
  193.1980  173.5930  145.2620 C   0  0  0  0  0  0  0  0  0  0  0  0
  193.9030  172.5900  145.5600 O   0  0  0  0  0  0  0  0  0  0  0  0
  192.6360  174.4660  146.3380 C   0  0  2  0  0  3  0  0  0  0  0  0
  190.5290  175.3710  147.3550 C   0  0  0  0  0  2  0  0  0  0  0  0
  192.5910  176.7770  147.3220 C   0  0  0  0  0  2  0  0  0  0  0  0
  194.5860  175.8700  146.3920 O   0  0  0  0  0  1  0  0  0  0  0  0
  191.1090  174.4770  146.2660 C   0  0  0  0  0  2  0  0  0  0  0  0
  191.0680  176.7910  147.2110 C   0  0  2  0  0  3  0  0  0  0  0  0
  193.1980  175.8900  146.2390 C   0  0  1  0  0  3  0  0  0  0  0  0
  190.4740  177.6660  148.2990 C   0  0  0  0  0  2  0  0  0  0  0  0
  191.4280  177.9190  149.2850 O   0  0  0  0  0  1  0  0  0  0  0  0
  3  2  2  0  0  0  0
  3  8  1  0  0  0  0
  4  2  1  6  0  0  0
  4  7  1  0  0  0  0
  5  8  2  0  0  0  0
  6  2  1  0  0  0  0
  7  1  1  0  0  0  0
  7 29  1  1  0  0  0
  8  1  1  0  0  0  0
 10 11  1  1  0  0  0
 10 14  1  0  0  0  0
 10 18  1  0  0  0  0
 12 11  1  1  0  0  0
 12  4  1  0  0  0  0
 12  9  1  0  0  0  0
 14  9  1  0  0  0  0
 14 13  1  1  0  0  0
 15 16  1  6  0  0  0
 15 21  1  0  0  0  0
 15 20  1  0  0  0  0
 17 15  1  0  0  0  0
 18 17  1  6  0  0  0
 18 19  1  0  0  0  0
 19 20  1  0  0  0  0
 20 24  1  1  0  0  0
 21 22  2  0  0  0  0
 21 23  1  0  0  0  0
 24 26  1  0  0  0  0
 26 27  1  0  0  0  0
 26 25  1  0  0  0  0
 28 26  2  0  0  0  0
 29 30  1  0  0  0  0
 30 31  2  0  0  0  0
 32 30  1  6  0  0  0
 36 32  1  0  0  0  0
 36 33  1  0  0  0  0
 37 34  1  0  0  0  0
 37 33  1  0  0  0  0
 37 39  1  1  0  0  0
 38 32  1  0  0  0  0
 38 35  1  1  0  0  0
 38 34  1  0  0  0  0
 39 40  1  0  0  0  0
M  END
>  <MODEL>
5

>  <REMARK>
 VINA RESULT:      -6.8      2.507      5.693
  Name = 
  9 active torsions:
  status: ('A' for Active; 'I' for Inactive)
    1  A    between atoms: C_1  and  C_2
    2  A    between atoms: C_1  and  O_37
    3  A    between atoms: C_5  and  C_6
    4  A    between atoms: C_7  and  C_35
    5  A    between atoms: O_14  and  P_24
    6  A    between atoms: O_14  and  C_32
    7  A    between atoms: C_18  and  C_33
    8  A    between atoms: C_21  and  C_27
    9  A    between atoms: C_34  and  O_37
                            x       y       z     vdW  Elec       q    Type
                         _______ _______ _______ _____ _____    ______ ____

>  <TORSDO>
F 9

$$$$
=
 OpenBabel11062419333D

 40 43  0  0  1  0  0  0  0  0999 V2000
  194.6600  176.1920  145.5610 C   0  0  0  0  0  2  0  0  0  0  0  0
  195.0040  173.7900  143.9550 C   0  0  0  0  0  0  0  0  0  0  0  0
  195.6420  174.8760  143.6290 N   0  0  0  0  0  0  0  0  0  0  0  0
  194.0320  173.7650  145.1300 C   0  0  1  0  0  3  0  0  0  0  0  0
  196.0540  177.1530  143.8880 O   0  0  0  0  0  0  0  0  0  0  0  0
  195.3850  172.5280  143.2590 C   0  0  0  0  0  1  0  0  0  0  0  0
  193.5280  175.1760  145.4850 C   0  0  1  0  0  3  0  0  0  0  0  0
  195.4700  176.1230  144.3100 C   0  0  0  0  0  0  0  0  0  0  0  0
  193.2030  171.3990  144.6380 C   0  0  0  0  0  2  0  0  0  0  0  0
  191.1960  171.9860  143.3650 C   0  0  2  0  0  3  0  0  0  0  0  0
  191.8500  173.2680  143.8690 C   0  0  0  0  0  2  0  0  0  0  0  0
  192.8240  172.8310  144.9490 C   0  0  2  0  0  3  0  0  0  0  0  0
  192.3180  169.6660  143.0690 C   0  0  0  0  0  1  0  0  0  0  0  0
  191.9610  170.8130  144.0030 C   0  0  1  0  0  3  0  0  0  0  0  0
  189.7350  173.4880  140.4650 C   0  0  2  0  0  0  0  0  0  0  0  0
  189.4850  174.6510  141.1990 O   0  0  0  0  0  1  0  0  0  0  0  0
  189.6340  172.2960  141.4050 C   0  0  0  0  0  2  0  0  0  0  0  0
  191.0530  171.9540  141.8330 C   0  0  1  0  0  3  0  0  0  0  0  0
  191.9830  172.9300  141.1250 C   0  0  0  0  0  2  0  0  0  0  0  0
  191.1840  173.5140  139.9790 C   0  0  1  0  0  3  0  0  0  0  0  0
  188.7410  173.3890  139.3370 C   0  0  0  0  0  0  0  0  0  0  0  0
  188.1810  172.2910  139.0820 O   0  0  0  0  0  1  0  0  0  0  0  0
  188.3770  174.5220  138.6170 O   0  0  0  0  0  0  0  0  0  0  0  0
  191.3620  172.7060  138.8470 O   0  0  0  0  0  0  0  0  0  0  0  0
  193.3250  174.6270  138.5790 O   0  0  0  0  0  1  0  0  0  0  0  0
  192.2270  173.6550  137.7370 P   0  0  0  0  0  0  0  0  0  0  0  0
  191.2750  174.5410  136.9640 O   0  0  0  0  0  1  0  0  0  0  0  0
  193.0760  172.6640  136.6610 O   0  0  0  0  0  0  0  0  0  0  0  0
  192.7600  175.1760  146.6910 O   0  0  0  0  0  0  0  0  0  0  0  0
  191.7270  176.0810  146.9620 C   0  0  0  0  0  0  0  0  0  0  0  0
  191.7340  176.7790  148.0140 O   0  0  0  0  0  0  0  0  0  0  0  0
  190.5860  176.1810  146.0000 C   0  0  2  0  0  3  0  0  0  0  0  0
  189.5180  177.5960  144.2240 C   0  0  0  0  0  2  0  0  0  0  0  0
  188.0870  176.2250  145.7410 C   0  0  0  0  0  2  0  0  0  0  0  0
  189.1350  174.8580  147.3850 O   0  0  0  0  0  1  0  0  0  0  0  0
  190.6820  177.4820  145.2020 C   0  0  0  0  0  2  0  0  0  0  0  0
  188.1930  177.5420  144.9770 C   0  0  2  0  0  3  0  0  0  0  0  0
  189.2410  176.0870  146.7320 C   0  0  1  0  0  3  0  0  0  0  0  0
  187.0490  177.6630  143.9870 C   0  0  0  0  0  2  0  0  0  0  0  0
  186.0420  176.7510  144.3040 O   0  0  0  0  0  1  0  0  0  0  0  0
  3  2  2  0  0  0  0
  3  8  1  0  0  0  0
  4  2  1  6  0  0  0
  4  7  1  0  0  0  0
  5  8  2  0  0  0  0
  6  2  1  0  0  0  0
  7  1  1  0  0  0  0
  7 29  1  1  0  0  0
  8  1  1  0  0  0  0
  9 12  1  0  0  0  0
 10 11  1  6  0  0  0
 10 14  1  0  0  0  0
 12 11  1  6  0  0  0
 12  4  1  0  0  0  0
 14 13  1  6  0  0  0
 14  9  1  0  0  0  0
 15 16  1  1  0  0  0
 15 17  1  0  0  0  0
 17 18  1  0  0  0  0
 18 19  1  6  0  0  0
 18 10  1  0  0  0  0
 20 24  1  6  0  0  0
 20 15  1  0  0  0  0
 20 19  1  0  0  0  0
 21 15  1  0  0  0  0
 22 21  1  0  0  0  0
 23 21  2  0  0  0  0
 26 25  1  0  0  0  0
 26 24  1  0  0  0  0
 27 26  1  0  0  0  0
 28 26  2  0  0  0  0
 29 30  1  0  0  0  0
 30 31  2  0  0  0  0
 32 38  1  0  0  0  0
 32 30  1  1  0  0  0
 33 37  1  0  0  0  0
 33 36  1  0  0  0  0
 34 38  1  0  0  0  0
 36 32  1  0  0  0  0
 37 39  1  6  0  0  0
 37 34  1  0  0  0  0
 38 35  1  6  0  0  0
 39 40  1  0  0  0  0
M  END
>  <MODEL>
6

>  <REMARK>
 VINA RESULT:      -6.8      2.818      6.579
  Name = 
  9 active torsions:
  status: ('A' for Active; 'I' for Inactive)
    1  A    between atoms: C_1  and  C_2
    2  A    between atoms: C_1  and  O_37
    3  A    between atoms: C_5  and  C_6
    4  A    between atoms: C_7  and  C_35
    5  A    between atoms: O_14  and  P_24
    6  A    between atoms: O_14  and  C_32
    7  A    between atoms: C_18  and  C_33
    8  A    between atoms: C_21  and  C_27
    9  A    between atoms: C_34  and  O_37
                            x       y       z     vdW  Elec       q    Type
                         _______ _______ _______ _____ _____    ______ ____

>  <TORSDO>
F 9

$$$$
=
 OpenBabel11062419333D

 40 43  0  0  1  0  0  0  0  0999 V2000
  188.0150  175.1970  139.9030 C   0  0  0  0  0  2  0  0  0  0  0  0
  190.1690  173.4430  139.0340 C   0  0  0  0  0  0  0  0  0  0  0  0
  189.2760  173.8360  138.1740 N   0  0  0  0  0  0  0  0  0  0  0  0
  190.0780  173.8360  140.5050 C   0  0  1  0  0  3  0  0  0  0  0  0
  187.2690  174.9000  137.6620 O   0  0  0  0  0  0  0  0  0  0  0  0
  191.3780  172.7490  138.5080 C   0  0  0  0  0  1  0  0  0  0  0  0
  188.6460  174.2370  140.9030 C   0  0  1  0  0  3  0  0  0  0  0  0
  188.1380  174.6290  138.5290 C   0  0  0  0  0  0  0  0  0  0  0  0
  189.5550  172.3070  142.4840 C   0  0  0  0  0  2  0  0  0  0  0  0
  191.7300  172.4220  143.6030 C   0  0  2  0  0  3  0  0  0  0  0  0
  191.8070  173.2080  142.2980 C   0  0  0  0  0  2  0  0  0  0  0  0
  190.5960  172.7750  141.4900 C   0  0  2  0  0  3  0  0  0  0  0  0
  189.5920  171.7950  144.9310 C   0  0  0  0  0  1  0  0  0  0  0  0
  190.3610  171.7180  143.6200 C   0  0  1  0  0  3  0  0  0  0  0  0
  193.5120  175.2510  144.8760 C   0  0  2  0  0  0  0  0  0  0  0  0
  193.6310  175.7550  143.5790 O   0  0  0  0  0  1  0  0  0  0  0  0
  193.5240  173.7310  144.8050 C   0  0  0  0  0  2  0  0  0  0  0  0
  192.0720  173.2790  144.8340 C   0  0  1  0  0  3  0  0  0  0  0  0
  191.2140  174.5330  144.9470 C   0  0  0  0  0  2  0  0  0  0  0  0
  192.1380  175.6320  145.4290 C   0  0  1  0  0  3  0  0  0  0  0  0
  194.6460  175.7740  145.7180 C   0  0  0  0  0  0  0  0  0  0  0  0
  195.5130  174.9830  146.1750 O   0  0  0  0  0  1  0  0  0  0  0  0
  194.7900  177.1400  145.9380 O   0  0  0  0  0  0  0  0  0  0  0  0
  192.1320  175.6430  146.8310 O   0  0  0  0  0  0  0  0  0  0  0  0
  189.4840  175.5020  147.5930 O   0  0  0  0  0  1  0  0  0  0  0  0
  190.7700  176.5530  147.2760 P   0  0  0  0  0  0  0  0  0  0  0  0
  190.3800  177.4840  146.1490 O   0  0  0  0  0  0  0  0  0  0  0  0
  191.1020  177.4570  148.6670 O   0  0  0  0  0  1  0  0  0  0  0  0
  188.5940  174.7730  142.2270 O   0  0  0  0  0  0  0  0  0  0  0  0
  189.0190  176.0630  142.5680 C   0  0  0  0  0  0  0  0  0  0  0  0
  190.1670  176.4740  142.2440 O   0  0  0  0  0  0  0  0  0  0  0  0
  188.1010  176.9390  143.3590 C   0  0  2  0  0  3  0  0  0  0  0  0
  186.6350  177.0680  145.3910 C   0  0  0  0  0  2  0  0  0  0  0  0
  185.9940  178.3070  143.3210 C   0  0  0  0  0  2  0  0  0  0  0  0
  187.4310  178.2000  141.4260 O   0  0  0  0  0  1  0  0  0  0  0  0
  187.5790  176.1850  144.5820 C   0  0  0  0  0  2  0  0  0  0  0  0
  185.4680  177.5230  144.5210 C   0  0  2  0  0  3  0  0  0  0  0  0
  186.9400  177.4430  142.4910 C   0  0  1  0  0  3  0  0  0  0  0  0
  184.5380  178.3950  145.3440 C   0  0  0  0  0  2  0  0  0  0  0  0
  184.3400  177.8290  146.6040 O   0  0  0  0  0  1  0  0  0  0  0  0
  1  7  1  0  0  0  0
  3  8  1  0  0  0  0
  3  2  2  0  0  0  0
  4  2  1  6  0  0  0
  4  7  1  0  0  0  0
  4 12  1  0  0  0  0
  5  8  2  0  0  0  0
  6  2  1  0  0  0  0
  7 29  1  1  0  0  0
  8  1  1  0  0  0  0
  9 14  1  0  0  0  0
 10 11  1  6  0  0  0
 10 14  1  0  0  0  0
 10 18  1  0  0  0  0
 12 11  1  1  0  0  0
 12  9  1  0  0  0  0
 14 13  1  1  0  0  0
 15 16  1  6  0  0  0
 15 20  1  0  0  0  0
 15 21  1  0  0  0  0
 17 15  1  0  0  0  0
 18 17  1  6  0  0  0
 18 19  1  0  0  0  0
 19 20  1  0  0  0  0
 20 24  1  1  0  0  0
 21 23  2  0  0  0  0
 21 22  1  0  0  0  0
 24 26  1  0  0  0  0
 26 25  1  0  0  0  0
 26 28  1  0  0  0  0
 27 26  2  0  0  0  0
 29 30  1  0  0  0  0
 31 30  2  0  0  0  0
 32 30  1  6  0  0  0
 32 36  1  0  0  0  0
 34 37  1  0  0  0  0
 36 33  1  0  0  0  0
 37 39  1  1  0  0  0
 37 33  1  0  0  0  0
 38 35  1  6  0  0  0
 38 34  1  0  0  0  0
 38 32  1  0  0  0  0
 39 40  1  0  0  0  0
M  END
>  <MODEL>
7

>  <REMARK>
 VINA RESULT:      -6.8      2.788      7.249
  Name = 
  9 active torsions:
  status: ('A' for Active; 'I' for Inactive)
    1  A    between atoms: C_1  and  C_2
    2  A    between atoms: C_1  and  O_37
    3  A    between atoms: C_5  and  C_6
    4  A    between atoms: C_7  and  C_35
    5  A    between atoms: O_14  and  P_24
    6  A    between atoms: O_14  and  C_32
    7  A    between atoms: C_18  and  C_33
    8  A    between atoms: C_21  and  C_27
    9  A    between atoms: C_34  and  O_37
                            x       y       z     vdW  Elec       q    Type
                         _______ _______ _______ _____ _____    ______ ____

>  <TORSDO>
F 9

$$$$
=
 OpenBabel11062419333D

 40 43  0  0  1  0  0  0  0  0999 V2000
  192.4260  173.3040  138.2390 C   0  0  0  0  0  2  0  0  0  0  0  0
  190.0400  173.3010  139.9050 C   0  0  0  0  0  0  0  0  0  0  0  0
  189.9520  173.6660  138.6590 N   0  0  0  0  0  0  0  0  0  0  0  0
  191.3820  172.9290  140.5280 C   0  0  1  0  0  3  0  0  0  0  0  0
  190.9370  174.2200  136.6230 O   0  0  0  0  0  0  0  0  0  0  0  0
  188.7700  173.0840  140.6540 C   0  0  0  0  0  1  0  0  0  0  0  0
  192.5630  173.5240  139.7400 C   0  0  1  0  0  3  0  0  0  0  0  0
  191.0850  173.7780  137.7910 C   0  0  0  0  0  0  0  0  0  0  0  0
  191.0160  172.2390  142.9600 C   0  0  0  0  0  2  0  0  0  0  0  0
  190.4920  174.4470  143.8780 C   0  0  2  0  0  3  0  0  0  0  0  0
  190.8500  174.6000  142.4030 C   0  0  0  0  0  2  0  0  0  0  0  0
  191.5300  173.3000  142.0120 C   0  0  2  0  0  3  0  0  0  0  0  0
  189.6920  172.2930  145.0810 C   0  0  0  0  0  1  0  0  0  0  0  0
  190.7690  172.9810  144.2550 C   0  0  1  0  0  3  0  0  0  0  0  0
  188.5560  176.8720  145.6600 C   0  0  2  0  0  0  0  0  0  0  0  0
  189.6940  177.6700  145.8010 O   0  0  0  0  0  1  0  0  0  0  0  0
  188.9880  175.4130  145.6630 C   0  0  0  0  0  2  0  0  0  0  0  0
  189.0870  174.9820  144.2070 C   0  0  1  0  0  3  0  0  0  0  0  0
  188.6890  176.1810  143.3560 C   0  0  0  0  0  2  0  0  0  0  0  0
  187.9470  177.1230  144.2810 C   0  0  1  0  0  3  0  0  0  0  0  0
  187.5990  177.1670  146.7850 C   0  0  0  0  0  0  0  0  0  0  0  0
  187.4180  178.3530  147.1670 O   0  0  0  0  0  0  0  0  0  0  0  0
  186.8520  176.1450  147.3620 O   0  0  0  0  0  1  0  0  0  0  0  0
  186.5830  176.7990  144.2540 O   0  0  0  0  0  0  0  0  0  0  0  0
  185.5810  179.3500  144.5810 O   0  0  0  0  0  1  0  0  0  0  0  0
  185.8180  178.0970  143.4700 P   0  0  0  0  0  0  0  0  0  0  0  0
  184.4750  177.6540  142.9310 O   0  0  0  0  0  1  0  0  0  0  0  0
  186.7810  178.6590  142.1980 O   0  0  0  0  0  0  0  0  0  0  0  0
  193.8190  173.0320  140.2150 O   0  0  0  0  0  0  0  0  0  0  0  0
  194.9400  173.8390  140.4450 C   0  0  0  0  0  0  0  0  0  0  0  0
  195.7280  174.1380  139.5060 O   0  0  0  0  0  0  0  0  0  0  0  0
  195.2140  174.3120  141.8370 C   0  0  2  0  0  3  0  0  0  0  0  0
  195.1220  173.6980  144.2680 C   0  0  0  0  0  2  0  0  0  0  0  0
  194.7110  176.0590  143.5710 C   0  0  0  0  0  2  0  0  0  0  0  0
  194.8520  176.6170  141.2610 O   0  0  0  0  0  1  0  0  0  0  0  0
  194.8530  173.2210  142.8450 C   0  0  0  0  0  2  0  0  0  0  0  0
  194.3190  174.9610  144.5580 C   0  0  2  0  0  3  0  0  0  0  0  0
  194.4480  175.6080  142.1370 C   0  0  1  0  0  3  0  0  0  0  0  0
  194.5950  175.4160  145.9790 C   0  0  0  0  0  2  0  0  0  0  0  0
  194.5070  176.8050  146.0640 O   0  0  0  0  0  1  0  0  0  0  0  0
  1  7  1  0  0  0  0
  2  6  1  0  0  0  0
  3  2  2  0  0  0  0
  4  2  1  6  0  0  0
  4 12  1  0  0  0  0
  5  8  2  0  0  0  0
  7 29  1  1  0  0  0
  7  4  1  0  0  0  0
  8  1  1  0  0  0  0
  8  3  1  0  0  0  0
  9 14  1  0  0  0  0
 10 11  1  6  0  0  0
 10 18  1  0  0  0  0
 10 14  1  0  0  0  0
 12 11  1  6  0  0  0
 12  9  1  0  0  0  0
 14 13  1  6  0  0  0
 15 17  1  0  0  0  0
 15 16  1  1  0  0  0
 15 21  1  0  0  0  0
 18 19  1  6  0  0  0
 18 17  1  0  0  0  0
 19 20  1  0  0  0  0
 20 24  1  1  0  0  0
 20 15  1  0  0  0  0
 21 22  2  0  0  0  0
 21 23  1  0  0  0  0
 26 24  1  0  0  0  0
 26 25  1  0  0  0  0
 27 26  1  0  0  0  0
 28 26  2  0  0  0  0
 29 30  1  0  0  0  0
 31 30  2  0  0  0  0
 32 30  1  6  0  0  0
 32 38  1  0  0  0  0
 32 36  1  0  0  0  0
 33 37  1  0  0  0  0
 34 37  1  0  0  0  0
 36 33  1  0  0  0  0
 37 39  1  1  0  0  0
 38 35  1  6  0  0  0
 38 34  1  0  0  0  0
 39 40  1  0  0  0  0
M  END
>  <MODEL>
8

>  <REMARK>
 VINA RESULT:      -6.7      2.468      5.519
  Name = 
  9 active torsions:
  status: ('A' for Active; 'I' for Inactive)
    1  A    between atoms: C_1  and  C_2
    2  A    between atoms: C_1  and  O_37
    3  A    between atoms: C_5  and  C_6
    4  A    between atoms: C_7  and  C_35
    5  A    between atoms: O_14  and  P_24
    6  A    between atoms: O_14  and  C_32
    7  A    between atoms: C_18  and  C_33
    8  A    between atoms: C_21  and  C_27
    9  A    between atoms: C_34  and  O_37
                            x       y       z     vdW  Elec       q    Type
                         _______ _______ _______ _____ _____    ______ ____

>  <TORSDO>
F 9

$$$$
=
 OpenBabel11062419333D

 40 43  0  0  1  0  0  0  0  0999 V2000
  188.4260  176.2550  144.9860 C   0  0  0  0  0  2  0  0  0  0  0  0
  190.1340  173.9190  144.6740 C   0  0  0  0  0  0  0  0  0  0  0  0
  190.0750  174.5210  145.8260 N   0  0  0  0  0  0  0  0  0  0  0  0
  189.3690  174.4470  143.4650 C   0  0  1  0  0  3  0  0  0  0  0  0
  189.3870  176.2980  147.1630 O   0  0  0  0  0  0  0  0  0  0  0  0
  190.8250  172.6000  144.6180 C   0  0  0  0  0  1  0  0  0  0  0  0
  189.0160  175.9370  143.6170 C   0  0  1  0  0  3  0  0  0  0  0  0
  189.3290  175.7230  146.0470 C   0  0  0  0  0  0  0  0  0  0  0  0
  190.1800  172.7790  141.7080 C   0  0  0  0  0  2  0  0  0  0  0  0
  192.2150  173.9540  141.0190 C   0  0  2  0  0  3  0  0  0  0  0  0
  191.4700  174.8140  142.0350 C   0  0  0  0  0  2  0  0  0  0  0  0
  190.0700  174.2320  142.1130 C   0  0  2  0  0  3  0  0  0  0  0  0
  191.9820  171.3950  140.6630 C   0  0  0  0  0  1  0  0  0  0  0  0
  191.3030  172.7570  140.6950 C   0  0  1  0  0  3  0  0  0  0  0  0
  195.3270  175.1970  142.2710 C   0  0  2  0  0  0  0  0  0  0  0  0
  194.6860  176.3640  142.6930 O   0  0  0  0  0  1  0  0  0  0  0  0
  194.6300  174.6920  141.0170 C   0  0  0  0  0  2  0  0  0  0  0  0
  193.6500  173.6180  141.4620 C   0  0  1  0  0  3  0  0  0  0  0  0
  193.7920  173.4780  142.9720 C   0  0  0  0  0  2  0  0  0  0  0  0
  195.1210  174.1120  143.3280 C   0  0  1  0  0  3  0  0  0  0  0  0
  196.7810  175.4940  142.0140 C   0  0  0  0  0  0  0  0  0  0  0  0
  197.3130  175.1560  140.9230 O   0  0  0  0  0  0  0  0  0  0  0  0
  197.5310  176.2080  142.9440 O   0  0  0  0  0  1  0  0  0  0  0  0
  196.1200  173.1310  143.2610 O   0  0  0  0  0  0  0  0  0  0  0  0
  196.9910  174.3260  145.5910 O   0  0  0  0  0  1  0  0  0  0  0  0
  196.5960  172.8500  144.8660 P   0  0  0  0  0  0  0  0  0  0  0  0
  197.8090  171.9460  144.8940 O   0  0  0  0  0  0  0  0  0  0  0  0
  195.3340  172.1280  145.7310 O   0  0  0  0  0  1  0  0  0  0  0  0
  188.1500  176.3870  142.5730 O   0  0  0  0  0  0  0  0  0  0  0  0
  188.0420  177.7220  142.1640 C   0  0  0  0  0  0  0  0  0  0  0  0
  189.0710  178.4300  141.9840 O   0  0  0  0  0  0  0  0  0  0  0  0
  186.6800  178.3110  141.9800 C   0  0  2  0  0  3  0  0  0  0  0  0
  184.4620  178.7320  143.0740 C   0  0  0  0  0  2  0  0  0  0  0  0
  184.5650  178.2660  140.6240 C   0  0  0  0  0  2  0  0  0  0  0  0
  186.6910  177.9180  139.6090 O   0  0  0  0  0  1  0  0  0  0  0  0
  185.8550  178.1400  143.2550 C   0  0  0  0  0  2  0  0  0  0  0  0
  183.7550  178.0590  141.9010 C   0  0  2  0  0  3  0  0  0  0  0  0
  185.9660  177.6780  140.7780 C   0  0  1  0  0  3  0  0  0  0  0  0
  182.3700  178.6570  141.7410 C   0  0  0  0  0  2  0  0  0  0  0  0
  181.8840  178.4050  140.4580 O   0  0  0  0  0  1  0  0  0  0  0  0
  1  8  1  0  0  0  0
  2  3  2  0  0  0  0
  3  8  1  0  0  0  0
  4  7  1  0  0  0  0
  4  2  1  1  0  0  0
  6  2  1  0  0  0  0
  7 29  1  6  0  0  0
  7  1  1  0  0  0  0
  8  5  2  0  0  0  0
 10 18  1  0  0  0  0
 10 11  1  1  0  0  0
 11 12  1  0  0  0  0
 12  9  1  1  0  0  0
 12  4  1  0  0  0  0
 14 13  1  1  0  0  0
 14 10  1  0  0  0  0
 14  9  1  0  0  0  0
 15 16  1  1  0  0  0
 15 20  1  0  0  0  0
 17 15  1  0  0  0  0
 18 17  1  1  0  0  0
 18 19  1  0  0  0  0
 19 20  1  0  0  0  0
 20 24  1  6  0  0  0
 21 15  1  0  0  0  0
 21 23  1  0  0  0  0
 22 21  2  0  0  0  0
 24 26  1  0  0  0  0
 26 27  2  0  0  0  0
 26 25  1  0  0  0  0
 26 28  1  0  0  0  0
 30 29  1  0  0  0  0
 31 30  2  0  0  0  0
 32 30  1  1  0  0  0
 32 36  1  0  0  0  0
 33 36  1  0  0  0  0
 34 38  1  0  0  0  0
 34 37  1  0  0  0  0
 37 39  1  6  0  0  0
 37 33  1  0  0  0  0
 38 35  1  6  0  0  0
 38 32  1  0  0  0  0
 40 39  1  0  0  0  0
M  END
>  <MODEL>
9

>  <REMARK>
 VINA RESULT:      -6.7      3.448      8.550
  Name = 
  9 active torsions:
  status: ('A' for Active; 'I' for Inactive)
    1  A    between atoms: C_1  and  C_2
    2  A    between atoms: C_1  and  O_37
    3  A    between atoms: C_5  and  C_6
    4  A    between atoms: C_7  and  C_35
    5  A    between atoms: O_14  and  P_24
    6  A    between atoms: O_14  and  C_32
    7  A    between atoms: C_18  and  C_33
    8  A    between atoms: C_21  and  C_27
    9  A    between atoms: C_34  and  O_37
                            x       y       z     vdW  Elec       q    Type
                         _______ _______ _______ _____ _____    ______ ____

>  <TORSDO>
F 9

$$$$
