=
 OpenBabel11062421053D

 68 71  0  0  1  0  0  0  0  0999 V2000
  192.4060  169.8750  141.2430 C   0  0  2  0  0  0  0  0  0  0  0  0
  192.4120  168.5390  141.9360 C   0  0  1  0  0  3  0  0  0  0  0  0
  191.8020  169.7110  142.6330 C   0  0  2  0  0  0  0  0  0  0  0  0
  191.2810  168.4090  142.7620 O   0  0  0  0  0  0  0  0  0  0  0  0
  191.3350  170.2430  140.2330 C   0  0  0  0  0  2  0  0  0  0  0  0
  191.1840  169.1890  139.3290 O   0  0  0  0  0  0  0  0  0  0  0  0
  190.8130  169.7890  138.1110 C   0  0  0  0  0  2  0  0  0  0  0  0
  190.7650  171.3060  138.2280 C   0  0  2  0  0  3  0  0  0  0  0  0
  189.5180  171.9120  137.6070 C   0  0  0  0  0  0  0  0  0  0  0  0
  189.2630  171.7430  136.3130 C   0  0  0  0  0  2  0  0  0  0  0  0
  188.6180  172.7110  138.3340 O   0  0  0  0  0  0  0  0  0  0  0  0
  189.2960  173.4130  140.4360 F   0  0  0  0  0  0  0  0  0  0  0  0
  188.9820  173.8290  139.1520 C   0  0  0  0  0  0  0  0  0  0  0  0
  190.0910  174.4280  138.5830 F   0  0  0  0  0  0  0  0  0  0  0  0
  187.9710  174.7690  139.1810 F   0  0  0  0  0  0  0  0  0  0  0  0
  191.9560  171.8400  137.6980 O   0  0  0  0  0  0  0  0  0  0  0  0
  192.3010  170.9360  136.2700 S   0  0  0  0  0  0  0  0  0  0  0  0
  193.9840  170.4870  136.8130 C   0  0  0  0  0  2  0  0  0  0  0  0
  194.9450  171.6410  136.5930 C   0  0  0  0  0  2  0  0  0  0  0  0
  194.8780  172.1660  135.1580 C   0  0  0  0  0  2  0  0  0  0  0  0
  195.3540  173.6210  135.0240 C   0  0  0  0  0  2  0  0  0  0  0  0
  195.3960  174.3150  136.3780 C   0  0  1  0  0  3  0  0  0  0  0  0
  197.4220  173.4240  137.3060 O   0  0  0  0  0  1  0  0  0  0  0  0
  196.8500  174.5930  136.7940 C   0  0  2  0  0  3  0  0  0  0  0  0
  196.9000  175.6110  137.7670 O   0  0  0  0  0  0  0  0  0  0  0  0
  197.9150  175.2320  139.8780 C   0  0  0  0  0  2  0  0  0  0  0  0
  196.6320  175.9880  140.1010 C   0  0  0  0  0  2  0  0  0  0  0  0
  196.7210  174.9600  138.9930 C   0  0  0  0  0  3  0  0  0  0  0  0
  194.5390  175.5830  136.3550 C   0  0  0  0  0  2  0  0  0  0  0  0
  194.2460  175.9850  134.9200 C   0  0  0  0  0  2  0  0  0  0  0  0
  194.8370  177.2210  134.6410 O   0  0  0  0  0  1  0  0  0  0  0  0
  192.7150  170.0280  143.8140 C   0  0  0  0  0  2  0  0  0  0  0  0
  193.9960  170.8450  143.5260 C   0  0  2  0  0  3  0  0  0  0  0  0
  195.0310  170.0260  143.0550 O   0  0  0  0  0  1  0  0  0  0  0  0
  194.4680  171.5830  144.7940 C   0  0  0  0  0  2  0  0  0  0  0  0
  193.6060  172.8010  145.1370 C   0  0  0  0  0  2  0  0  0  0  0  0
  194.3800  173.7670  146.0230 C   0  0  0  0  0  2  0  0  0  0  0  0
  194.4110  175.1980  145.4830 C   0  0  1  0  0  3  0  0  0  0  0  0
  194.8360  175.2980  144.0310 C   0  0  0  0  0  2  0  0  0  0  0  0
  194.0820  176.3130  143.4060 O   0  0  0  0  0  0  0  0  0  0  0  0
  193.1260  176.7610  144.3490 C   0  0  0  0  0  2  0  0  0  0  0  0
  193.0120  175.7130  145.4240 C   0  0  2  0  0  3  0  0  0  0  0  0
  192.6370  176.2560  146.6630 O   0  0  0  0  0  0  0  0  0  0  0  0
  191.4480  175.6490  147.1540 C   0  0  1  0  0  3  0  0  0  0  0  0
  190.3540  176.5240  147.3240 O   0  0  0  0  0  1  0  0  0  0  0  0
  191.0710  174.5510  146.3490 O   0  0  0  0  0  0  0  0  0  0  0  0
  189.9250  174.9050  145.6190 C   0  0  0  0  0  2  0  0  0  0  0  0
  189.7090  173.9200  144.5230 C   0  0  0  0  0  0  0  0  0  0  0  0
  189.8420  172.7250  144.7510 O   0  0  0  0  0  0  0  0  0  0  0  0
  189.3540  174.3700  143.1420 C   0  0  0  0  0  2  0  0  0  0  0  0
  188.3130  175.4870  143.2150 C   0  0  0  0  0  2  0  0  0  0  0  0
  188.0120  175.9200  141.9120 O   0  0  0  0  0  0  0  0  0  0  0  0
  188.5410  178.1590  142.3690 O   0  0  0  0  0  1  0  0  0  0  0  0
  187.5430  177.2450  141.9710 C   0  0  1  0  0  3  0  0  0  0  0  0
  186.7660  177.6980  140.7290 C   0  0  0  0  0  2  0  0  0  0  0  0
  185.2810  177.9060  140.9890 C   0  0  0  0  0  2  0  0  0  0  0  0
  184.9380  177.5810  142.4370 C   0  0  0  0  0  2  0  0  0  0  0  0
  185.4760  178.5910  143.3420 N   0  0  0  0  0  2  0  0  0  0  0  0
  185.1910  178.1830  144.7160 C   0  0  1  0  0  3  0  0  0  0  0  0
  185.2200  176.7850  144.7790 O   0  0  0  0  0  1  0  0  0  0  0  0
  186.2190  178.7810  145.6940 C   0  0  0  0  0  2  0  0  0  0  0  0
  186.2490  178.0130  147.0100 C   0  0  0  0  0  3  0  0  0  0  0  0
  187.4650  178.1980  147.6370 F   0  0  0  0  0  0  0  0  0  0  0  0
  185.2160  178.4120  147.8330 F   0  0  0  0  0  0  0  0  0  0  0  0
  193.6560  170.5540  141.1940 O   0  0  0  0  0  0  0  0  0  0  0  0
  192.8580  172.8040  140.7810 O   0  0  0  0  0  1  0  0  0  0  0  0
  194.8220  172.0470  139.8900 O   0  0  0  0  0  0  0  0  0  0  0  0
  193.8140  171.8110  140.6050 C   0  0  0  0  0  0  0  0  0  0  0  0
  1  5  1  6  0  0  0
  1  2  1  0  0  0  0
  1  3  1  0  0  0  0
  2  3  1  0  0  0  0
  2  4  1  6  0  0  0
  3  4  1  0  0  0  0
  3 32  1  1  0  0  0
  6  5  1  0  0  0  0
  7  6  1  0  0  0  0
  8  7  1  6  0  0  0
  9  8  1  0  0  0  0
  9 11  1  0  0  0  0
 10  9  2  0  0  0  0
 11 13  1  0  0  0  0
 13 15  1  0  0  0  0
 13 12  1  0  0  0  0
 14 13  1  0  0  0  0
 16  8  1  0  0  0  0
 17 18  1  0  0  0  0
 17 16  1  0  0  0  0
 19 18  1  0  0  0  0
 20 19  1  0  0  0  0
 21 20  1  0  0  0  0
 22 21  1  6  0  0  0
 22 24  1  0  0  0  0
 24 23  1  1  0  0  0
 24 25  1  0  0  0  0
 25 28  1  0  0  0  0
 26 27  1  0  0  0  0
 28 26  1  0  0  0  0
 28 27  1  0  0  0  0
 29 22  1  0  0  0  0
 30 29  1  0  0  0  0
 31 30  1  0  0  0  0
 33 34  1  1  0  0  0
 33 32  1  0  0  0  0
 33 35  1  0  0  0  0
 35 36  1  0  0  0  0
 36 37  1  0  0  0  0
 38 37  1  6  0  0  0
 39 38  1  0  0  0  0
 40 39  1  0  0  0  0
 40 41  1  0  0  0  0
 41 42  1  0  0  0  0
 42 38  1  0  0  0  0
 42 43  1  1  0  0  0
 43 44  1  0  0  0  0
 44 45  1  6  0  0  0
 46 44  1  0  0  0  0
 47 46  1  0  0  0  0
 48 49  2  0  0  0  0
 48 47  1  0  0  0  0
 50 51  1  0  0  0  0
 50 48  1  0  0  0  0
 52 54  1  0  0  0  0
 52 51  1  0  0  0  0
 54 53  1  6  0  0  0
 55 56  1  0  0  0  0
 55 54  1  0  0  0  0
 56 57  1  0  0  0  0
 57 58  1  0  0  0  0
 58 59  1  0  0  0  0
 59 60  1  6  0  0  0
 59 61  1  0  0  0  0
 61 62  1  0  0  0  0
 62 63  1  0  0  0  0
 62 64  1  0  0  0  0
 65  1  1  0  0  0  0
 67 68  2  0  0  0  0
 68 66  1  0  0  0  0
 68 65  1  0  0  0  0
M  END
>  <MODEL>
1

>  <REMARK>
 VINA RESULT:      -3.9      0.000      0.000
  Name = 
  43 active torsions:
  status: ('A' for Active; 'I' for Inactive)
    1  A    between atoms: C_1  and  C_8
    2  A    between atoms: C_1  and  C_15
    3  A    between atoms: C_2  and  O_6
    4  A    between atoms: C_2  and  C_56
    5  A    between atoms: C_3  and  C_22
    6  A    between atoms: C_3  and  N_55
    7  A    between atoms: C_4  and  C_20
    8  A    between atoms: C_4  and  C_37
    9  A    between atoms: C_5  and  C_12
   10  A    between atoms: C_5  and  C_18
   11  A    between atoms: O_6  and  C_51
   12  A    between atoms: C_7  and  C_54
   13  A    between atoms: C_8  and  O_57
   14  A    between atoms: C_9  and  C_15
   15  A    between atoms: C_9  and  O_49
   16  A    between atoms: C_10  and  C_31
   17  A    between atoms: C_10  and  C_58
   18  A    between atoms: O_11  and  C_30
   19  A    between atoms: O_11  and  C_41
   20  A    between atoms: C_12  and  C_46
   21  A    between atoms: C_13  and  C_52
   22  A    between atoms: C_18  and  S_36
   23  A    between atoms: C_20  and  C_64
   24  A    between atoms: C_22  and  C_23
   25  A    between atoms: C_25  and  C_37
   26  A    between atoms: C_25  and  C_52
   27  A    between atoms: C_29  and  O_59
   28  A    between atoms: C_30  and  O_49
   29  A    between atoms: C_31  and  C_53
   30  A    between atoms: O_32  and  C_56
   31  A    between atoms: O_32  and  C_65
   32  A    between atoms: O_35  and  C_43
   33  A    between atoms: O_35  and  C_63
   34  A    between atoms: S_36  and  O_42
   35  A    between atoms: O_42  and  C_47
   36  A    between atoms: C_43  and  C_48
   37  A    between atoms: C_45  and  C_47
   38  A    between atoms: C_45  and  O_59
   39  A    between atoms: C_46  and  C_48
   40  A    between atoms: C_47  and  C_65
   41  A    between atoms: C_48  and  C_54
   42  A    between atoms: C_53  and  N_55
   43  A    between atoms: O_57  and  C_58
                            x       y       z     vdW  Elec       q    Type
                         _______ _______ _______ _____ _____    ______ ____

>  <TORSDO>
F 43

$$$$
=
 OpenBabel11062421053D

 68 71  0  0  1  0  0  0  0  0999 V2000
  190.1610  171.7800  140.2720 C   0  0  2  0  0  0  0  0  0  0  0  0
  189.0100  172.6370  139.8200 C   0  0  1  0  0  3  0  0  0  0  0  0
  189.0770  171.2180  139.3580 C   0  0  2  0  0  0  0  0  0  0  0  0
  187.8540  171.8560  139.6430 O   0  0  0  0  0  0  0  0  0  0  0  0
  190.1480  171.0740  141.6150 C   0  0  0  0  0  2  0  0  0  0  0  0
  189.9750  172.0240  142.6240 O   0  0  0  0  0  0  0  0  0  0  0  0
  191.1210  171.9250  143.4350 C   0  0  0  0  0  2  0  0  0  0  0  0
  191.6450  173.2980  143.8300 C   0  0  2  0  0  3  0  0  0  0  0  0
  192.6950  173.2430  144.9260 C   0  0  0  0  0  0  0  0  0  0  0  0
  193.7240  172.4060  144.8280 C   0  0  0  0  0  2  0  0  0  0  0  0
  192.6110  174.0110  146.1010 O   0  0  0  0  0  0  0  0  0  0  0  0
  192.9930  175.9890  144.9560 F   0  0  0  0  0  0  0  0  0  0  0  0
  192.9580  175.3970  146.2080 C   0  0  0  0  0  0  0  0  0  0  0  0
  191.9920  176.0170  146.9790 F   0  0  0  0  0  0  0  0  0  0  0  0
  194.1680  175.5540  146.8530 F   0  0  0  0  0  0  0  0  0  0  0  0
  190.5520  174.1240  144.1600 O   0  0  0  0  0  0  0  0  0  0  0  0
  190.1830  175.0310  142.7410 S   0  0  0  0  0  0  0  0  0  0  0  0
  188.3810  174.8040  142.9160 C   0  0  0  0  0  2  0  0  0  0  0  0
  187.6320  175.9860  142.3270 C   0  0  0  0  0  2  0  0  0  0  0  0
  188.0310  177.3000  143.0000 C   0  0  0  0  0  2  0  0  0  0  0  0
  186.9130  178.3540  142.9810 C   0  0  0  0  0  2  0  0  0  0  0  0
  185.8100  178.0060  143.9720 C   0  0  1  0  0  3  0  0  0  0  0  0
  185.2690  176.5050  145.7650 O   0  0  0  0  0  1  0  0  0  0  0  0
  186.3430  177.0540  145.0570 C   0  0  2  0  0  3  0  0  0  0  0  0
  187.1940  177.7430  145.9430 O   0  0  0  0  0  0  0  0  0  0  0  0
  189.3590  177.6560  146.9090 C   0  0  0  0  0  2  0  0  0  0  0  0
  188.5380  176.5400  147.4950 C   0  0  0  0  0  2  0  0  0  0  0  0
  188.3400  176.9450  146.0500 C   0  0  0  0  0  3  0  0  0  0  0  0
  185.1980  179.2800  144.5580 C   0  0  0  0  0  2  0  0  0  0  0  0
  183.6820  179.2120  144.4810 C   0  0  0  0  0  2  0  0  0  0  0  0
  183.2800  179.0470  143.1530 O   0  0  0  0  0  1  0  0  0  0  0  0
  189.3560  171.2690  137.8590 C   0  0  0  0  0  2  0  0  0  0  0  0
  190.4370  170.3120  137.3020 C   0  0  2  0  0  3  0  0  0  0  0  0
  190.1230  168.9730  137.5710 O   0  0  0  0  0  1  0  0  0  0  0  0
  191.8170  170.6420  137.9040 C   0  0  0  0  0  2  0  0  0  0  0  0
  192.7850  171.2540  136.8890 C   0  0  0  0  0  2  0  0  0  0  0  0
  193.3080  170.1830  135.9410 C   0  0  0  0  0  2  0  0  0  0  0  0
  194.3750  170.6950  134.9720 C   0  0  1  0  0  3  0  0  0  0  0  0
  194.2390  172.1660  134.6290 C   0  0  0  0  0  2  0  0  0  0  0  0
  195.5280  172.7290  134.5230 O   0  0  0  0  0  0  0  0  0  0  0  0
  196.4520  171.7260  134.9050 C   0  0  0  0  0  2  0  0  0  0  0  0
  195.6960  170.6670  135.6630 C   0  0  2  0  0  3  0  0  0  0  0  0
  196.2860  169.3980  135.5420 O   0  0  0  0  0  0  0  0  0  0  0  0
  196.4340  168.7760  136.8130 C   0  0  1  0  0  3  0  0  0  0  0  0
  197.6870  168.1680  137.0400 O   0  0  0  0  0  1  0  0  0  0  0  0
  196.1340  169.6770  137.8570 O   0  0  0  0  0  0  0  0  0  0  0  0
  196.4790  169.0760  139.0780 C   0  0  0  0  0  2  0  0  0  0  0  0
  195.2650  168.9460  139.9300 C   0  0  0  0  0  0  0  0  0  0  0  0
  194.2160  168.5610  139.4310 O   0  0  0  0  0  0  0  0  0  0  0  0
  195.3000  169.3010  141.3820 C   0  0  0  0  0  2  0  0  0  0  0  0
  196.6860  169.0030  141.9520 C   0  0  0  0  0  2  0  0  0  0  0  0
  197.5990  169.9520  141.4610 O   0  0  0  0  0  0  0  0  0  0  0  0
  196.5500  171.4630  142.9180 O   0  0  0  0  0  1  0  0  0  0  0  0
  197.0450  171.2360  141.6170 C   0  0  1  0  0  3  0  0  0  0  0  0
  197.9310  172.3750  141.0980 C   0  0  0  0  0  2  0  0  0  0  0  0
  197.2460  173.2440  140.0520 C   0  0  0  0  0  2  0  0  0  0  0  0
  197.3310  174.7160  140.4370 C   0  0  0  0  0  2  0  0  0  0  0  0
  196.1060  175.4230  140.0790 N   0  0  0  0  0  2  0  0  0  0  0  0
  195.5360  176.0080  141.2900 C   0  0  1  0  0  3  0  0  0  0  0  0
  194.1440  176.0500  141.1490 O   0  0  0  0  0  1  0  0  0  0  0  0
  195.9200  175.1860  142.5340 C   0  0  0  0  0  2  0  0  0  0  0  0
  196.6820  176.0320  143.5480 C   0  0  0  0  0  3  0  0  0  0  0  0
  197.8520  176.5030  142.9840 F   0  0  0  0  0  0  0  0  0  0  0  0
  195.9050  177.0810  143.9930 F   0  0  0  0  0  0  0  0  0  0  0  0
  191.4130  172.0420  139.6480 O   0  0  0  0  0  0  0  0  0  0  0  0
  193.5770  172.9140  140.3010 O   0  0  0  0  0  1  0  0  0  0  0  0
  191.7500  174.2720  140.0970 O   0  0  0  0  0  0  0  0  0  0  0  0
  192.2320  173.1140  140.0110 C   0  0  0  0  0  0  0  0  0  0  0  0
  1  5  1  1  0  0  0
  2  4  1  1  0  0  0
  2  1  1  0  0  0  0
  3 32  1  6  0  0  0
  3  4  1  0  0  0  0
  3  2  1  0  0  0  0
  3  1  1  0  0  0  0
  5  6  1  0  0  0  0
  6  7  1  0  0  0  0
  8  7  1  1  0  0  0
  8 16  1  0  0  0  0
  8  9  1  0  0  0  0
  9 11  1  0  0  0  0
 10  9  2  0  0  0  0
 11 13  1  0  0  0  0
 12 13  1  0  0  0  0
 13 15  1  0  0  0  0
 13 14  1  0  0  0  0
 17 18  1  0  0  0  0
 17 16  1  0  0  0  0
 19 18  1  0  0  0  0
 19 20  1  0  0  0  0
 21 20  1  0  0  0  0
 22 21  1  6  0  0  0
 22 29  1  0  0  0  0
 22 24  1  0  0  0  0
 24 23  1  1  0  0  0
 24 25  1  0  0  0  0
 25 28  1  0  0  0  0
 26 27  1  0  0  0  0
 28 26  1  0  0  0  0
 28 27  1  0  0  0  0
 30 29  1  0  0  0  0
 31 30  1  0  0  0  0
 33 34  1  1  0  0  0
 33 32  1  0  0  0  0
 33 35  1  0  0  0  0
 36 35  1  0  0  0  0
 37 36  1  0  0  0  0
 38 42  1  0  0  0  0
 38 37  1  1  0  0  0
 39 38  1  0  0  0  0
 40 39  1  0  0  0  0
 40 41  1  0  0  0  0
 41 42  1  0  0  0  0
 42 43  1  6  0  0  0
 43 44  1  0  0  0  0
 44 45  1  1  0  0  0
 44 46  1  0  0  0  0
 46 47  1  0  0  0  0
 47 48  1  0  0  0  0
 48 50  1  0  0  0  0
 49 48  2  0  0  0  0
 50 51  1  0  0  0  0
 52 54  1  0  0  0  0
 52 51  1  0  0  0  0
 54 53  1  1  0  0  0
 55 54  1  0  0  0  0
 56 57  1  0  0  0  0
 56 55  1  0  0  0  0
 58 57  1  0  0  0  0
 58 59  1  0  0  0  0
 59 60  1  6  0  0  0
 59 61  1  0  0  0  0
 61 62  1  0  0  0  0
 62 64  1  0  0  0  0
 63 62  1  0  0  0  0
 65 68  1  0  0  0  0
 65  1  1  0  0  0  0
 68 67  2  0  0  0  0
 68 66  1  0  0  0  0
M  END
>  <MODEL>
2

>  <REMARK>
 VINA RESULT:      -3.5      3.401     10.053
  Name = 
  43 active torsions:
  status: ('A' for Active; 'I' for Inactive)
    1  A    between atoms: C_1  and  C_8
    2  A    between atoms: C_1  and  C_15
    3  A    between atoms: C_2  and  O_6
    4  A    between atoms: C_2  and  C_56
    5  A    between atoms: C_3  and  C_22
    6  A    between atoms: C_3  and  N_55
    7  A    between atoms: C_4  and  C_20
    8  A    between atoms: C_4  and  C_37
    9  A    between atoms: C_5  and  C_12
   10  A    between atoms: C_5  and  C_18
   11  A    between atoms: O_6  and  C_51
   12  A    between atoms: C_7  and  C_54
   13  A    between atoms: C_8  and  O_57
   14  A    between atoms: C_9  and  C_15
   15  A    between atoms: C_9  and  O_49
   16  A    between atoms: C_10  and  C_31
   17  A    between atoms: C_10  and  C_58
   18  A    between atoms: O_11  and  C_30
   19  A    between atoms: O_11  and  C_41
   20  A    between atoms: C_12  and  C_46
   21  A    between atoms: C_13  and  C_52
   22  A    between atoms: C_18  and  S_36
   23  A    between atoms: C_20  and  C_64
   24  A    between atoms: C_22  and  C_23
   25  A    between atoms: C_25  and  C_37
   26  A    between atoms: C_25  and  C_52
   27  A    between atoms: C_29  and  O_59
   28  A    between atoms: C_30  and  O_49
   29  A    between atoms: C_31  and  C_53
   30  A    between atoms: O_32  and  C_56
   31  A    between atoms: O_32  and  C_65
   32  A    between atoms: O_35  and  C_43
   33  A    between atoms: O_35  and  C_63
   34  A    between atoms: S_36  and  O_42
   35  A    between atoms: O_42  and  C_47
   36  A    between atoms: C_43  and  C_48
   37  A    between atoms: C_45  and  C_47
   38  A    between atoms: C_45  and  O_59
   39  A    between atoms: C_46  and  C_48
   40  A    between atoms: C_47  and  C_65
   41  A    between atoms: C_48  and  C_54
   42  A    between atoms: C_53  and  N_55
   43  A    between atoms: O_57  and  C_58
                            x       y       z     vdW  Elec       q    Type
                         _______ _______ _______ _____ _____    ______ ____

>  <TORSDO>
F 43

$$$$
=
 OpenBabel11062421053D

 68 71  0  0  1  0  0  0  0  0999 V2000
  190.1410  171.8270  140.2730 C   0  0  2  0  0  0  0  0  0  0  0  0
  188.9470  172.7010  140.0010 C   0  0  1  0  0  3  0  0  0  0  0  0
  189.0300  171.3660  139.3370 C   0  0  2  0  0  0  0  0  0  0  0  0
  187.8060  171.9140  139.7660 O   0  0  0  0  0  0  0  0  0  0  0  0
  190.2140  170.9360  141.4990 C   0  0  0  0  0  2  0  0  0  0  0  0
  189.9230  171.7000  142.6320 O   0  0  0  0  0  0  0  0  0  0  0  0
  191.1120  171.7240  143.3850 C   0  0  0  0  0  2  0  0  0  0  0  0
  191.5230  173.1480  143.7330 C   0  0  2  0  0  3  0  0  0  0  0  0
  192.5320  173.2160  144.8660 C   0  0  0  0  0  0  0  0  0  0  0  0
  192.1330  173.4890  146.1050 C   0  0  0  0  0  2  0  0  0  0  0  0
  193.9150  173.0560  144.6650 O   0  0  0  0  0  0  0  0  0  0  0  0
  195.9790  172.2940  145.3920 F   0  0  0  0  0  0  0  0  0  0  0  0
  194.6820  171.9200  145.0780 C   0  0  0  0  0  0  0  0  0  0  0  0
  194.0770  171.3840  146.2000 F   0  0  0  0  0  0  0  0  0  0  0  0
  194.6830  170.9430  144.1010 F   0  0  0  0  0  0  0  0  0  0  0  0
  190.3630  173.9070  143.9860 O   0  0  0  0  0  0  0  0  0  0  0  0
  190.0950  174.8660  142.5780 S   0  0  0  0  0  0  0  0  0  0  0  0
  188.2790  174.7030  142.6630 C   0  0  0  0  0  2  0  0  0  0  0  0
  187.6040  175.9810  142.2000 C   0  0  0  0  0  2  0  0  0  0  0  0
  188.2160  177.2160  142.8630 C   0  0  0  0  0  2  0  0  0  0  0  0
  187.3850  177.7440  144.0420 C   0  0  0  0  0  2  0  0  0  0  0  0
  187.7330  177.0150  145.3330 C   0  0  1  0  0  3  0  0  0  0  0  0
  189.9890  177.6590  144.8240 O   0  0  0  0  0  1  0  0  0  0  0  0
  189.0840  177.5070  145.8800 C   0  0  2  0  0  3  0  0  0  0  0  0
  189.6000  176.5930  146.8190 O   0  0  0  0  0  0  0  0  0  0  0  0
  190.7030  177.5890  148.6680 C   0  0  0  0  0  2  0  0  0  0  0  0
  191.3960  176.2920  148.3490 C   0  0  0  0  0  2  0  0  0  0  0  0
  190.8220  177.1360  147.2320 C   0  0  0  0  0  3  0  0  0  0  0  0
  186.6000  177.1610  146.3500 C   0  0  0  0  0  2  0  0  0  0  0  0
  185.8390  178.4520  146.0990 C   0  0  0  0  0  2  0  0  0  0  0  0
  184.9560  178.6980  147.1540 O   0  0  0  0  0  1  0  0  0  0  0  0
  189.2330  171.6400  137.8500 C   0  0  0  0  0  2  0  0  0  0  0  0
  190.2510  170.7530  137.0940 C   0  0  2  0  0  3  0  0  0  0  0  0
  189.9320  169.3930  137.2120 O   0  0  0  0  0  1  0  0  0  0  0  0
  191.6790  170.9890  137.6260 C   0  0  0  0  0  2  0  0  0  0  0  0
  192.5580  171.7800  136.6560 C   0  0  0  0  0  2  0  0  0  0  0  0
  192.9930  170.8990  135.4930 C   0  0  0  0  0  2  0  0  0  0  0  0
  194.0560  171.5450  134.6020 C   0  0  1  0  0  3  0  0  0  0  0  0
  194.0440  173.0600  134.6300 C   0  0  0  0  0  2  0  0  0  0  0  0
  195.3730  173.5270  134.5730 O   0  0  0  0  0  0  0  0  0  0  0  0
  196.2160  172.3910  134.6410 C   0  0  0  0  0  2  0  0  0  0  0  0
  195.4000  171.2430  135.1750 C   0  0  2  0  0  3  0  0  0  0  0  0
  195.8610  169.9990  134.7160 O   0  0  0  0  0  0  0  0  0  0  0  0
  196.0120  169.0770  135.7890 C   0  0  1  0  0  3  0  0  0  0  0  0
  197.0810  168.1660  135.6500 O   0  0  0  0  0  1  0  0  0  0  0  0
  196.1050  169.7510  137.0260 O   0  0  0  0  0  0  0  0  0  0  0  0
  196.2100  168.7930  138.0480 C   0  0  0  0  0  2  0  0  0  0  0  0
  195.2330  169.1080  139.1280 C   0  0  0  0  0  0  0  0  0  0  0  0
  194.0800  169.3910  138.8330 O   0  0  0  0  0  0  0  0  0  0  0  0
  195.6450  169.1050  140.5650 C   0  0  0  0  0  2  0  0  0  0  0  0
  197.1020  168.6590  140.6830 C   0  0  0  0  0  2  0  0  0  0  0  0
  197.9320  169.7930  140.6690 O   0  0  0  0  0  0  0  0  0  0  0  0
  197.1120  170.6200  142.7050 O   0  0  0  0  0  1  0  0  0  0  0  0
  197.2700  170.8480  141.3220 C   0  0  1  0  0  3  0  0  0  0  0  0
  197.8220  172.2410  140.9960 C   0  0  0  0  0  2  0  0  0  0  0  0
  196.8120  173.1430  140.3000 C   0  0  0  0  0  2  0  0  0  0  0  0
  196.7450  174.5020  140.9840 C   0  0  0  0  0  2  0  0  0  0  0  0
  195.4390  174.7160  141.5970 N   0  0  0  0  0  2  0  0  0  0  0  0
  195.6380  175.1290  142.9840 C   0  0  1  0  0  3  0  0  0  0  0  0
  196.8870  175.7550  143.0860 O   0  0  0  0  0  1  0  0  0  0  0  0
  194.5250  176.0880  143.4400 C   0  0  0  0  0  2  0  0  0  0  0  0
  194.9350  176.8690  144.6840 C   0  0  0  0  0  3  0  0  0  0  0  0
  195.1800  175.9970  145.7270 F   0  0  0  0  0  0  0  0  0  0  0  0
  196.0470  177.6440  144.4310 F   0  0  0  0  0  0  0  0  0  0  0  0
  191.3540  172.2180  139.6380 O   0  0  0  0  0  0  0  0  0  0  0  0
  192.2760  174.4460  139.8710 O   0  0  0  0  0  0  0  0  0  0  0  0
  193.1010  172.6780  141.0620 O   0  0  0  0  0  1  0  0  0  0  0  0
  192.2650  173.1020  140.2220 C   0  0  0  0  0  0  0  0  0  0  0  0
  1  5  1  1  0  0  0
  2  4  1  1  0  0  0
  2  1  1  0  0  0  0
  3 32  1  6  0  0  0
  3  4  1  0  0  0  0
  3  2  1  0  0  0  0
  3  1  1  0  0  0  0
  5  6  1  0  0  0  0
  6  7  1  0  0  0  0
  8  7  1  1  0  0  0
  8 16  1  0  0  0  0
  8  9  1  0  0  0  0
  9 10  2  0  0  0  0
 11  9  1  0  0  0  0
 11 13  1  0  0  0  0
 13 12  1  0  0  0  0
 13 14  1  0  0  0  0
 15 13  1  0  0  0  0
 17 18  1  0  0  0  0
 17 16  1  0  0  0  0
 19 18  1  0  0  0  0
 19 20  1  0  0  0  0
 20 21  1  0  0  0  0
 22 21  1  6  0  0  0
 22 24  1  0  0  0  0
 22 29  1  0  0  0  0
 24 23  1  6  0  0  0
 24 25  1  0  0  0  0
 25 28  1  0  0  0  0
 27 26  1  0  0  0  0
 28 27  1  0  0  0  0
 28 26  1  0  0  0  0
 30 29  1  0  0  0  0
 30 31  1  0  0  0  0
 33 34  1  1  0  0  0
 33 35  1  0  0  0  0
 33 32  1  0  0  0  0
 36 35  1  0  0  0  0
 37 36  1  0  0  0  0
 38 39  1  0  0  0  0
 38 42  1  0  0  0  0
 38 37  1  1  0  0  0
 40 39  1  0  0  0  0
 40 41  1  0  0  0  0
 41 42  1  0  0  0  0
 42 43  1  6  0  0  0
 43 44  1  0  0  0  0
 44 45  1  6  0  0  0
 44 46  1  0  0  0  0
 46 47  1  0  0  0  0
 47 48  1  0  0  0  0
 48 50  1  0  0  0  0
 49 48  2  0  0  0  0
 50 51  1  0  0  0  0
 52 51  1  0  0  0  0
 52 54  1  0  0  0  0
 54 53  1  1  0  0  0
 55 54  1  0  0  0  0
 56 57  1  0  0  0  0
 56 55  1  0  0  0  0
 57 58  1  0  0  0  0
 58 59  1  0  0  0  0
 59 60  1  6  0  0  0
 59 61  1  0  0  0  0
 61 62  1  0  0  0  0
 62 63  1  0  0  0  0
 64 62  1  0  0  0  0
 65 68  1  0  0  0  0
 65  1  1  0  0  0  0
 66 68  2  0  0  0  0
 68 67  1  0  0  0  0
M  END
>  <MODEL>
3

>  <REMARK>
 VINA RESULT:      -3.4      3.556      9.938
  Name = 
  43 active torsions:
  status: ('A' for Active; 'I' for Inactive)
    1  A    between atoms: C_1  and  C_8
    2  A    between atoms: C_1  and  C_15
    3  A    between atoms: C_2  and  O_6
    4  A    between atoms: C_2  and  C_56
    5  A    between atoms: C_3  and  C_22
    6  A    between atoms: C_3  and  N_55
    7  A    between atoms: C_4  and  C_20
    8  A    between atoms: C_4  and  C_37
    9  A    between atoms: C_5  and  C_12
   10  A    between atoms: C_5  and  C_18
   11  A    between atoms: O_6  and  C_51
   12  A    between atoms: C_7  and  C_54
   13  A    between atoms: C_8  and  O_57
   14  A    between atoms: C_9  and  C_15
   15  A    between atoms: C_9  and  O_49
   16  A    between atoms: C_10  and  C_31
   17  A    between atoms: C_10  and  C_58
   18  A    between atoms: O_11  and  C_30
   19  A    between atoms: O_11  and  C_41
   20  A    between atoms: C_12  and  C_46
   21  A    between atoms: C_13  and  C_52
   22  A    between atoms: C_18  and  S_36
   23  A    between atoms: C_20  and  C_64
   24  A    between atoms: C_22  and  C_23
   25  A    between atoms: C_25  and  C_37
   26  A    between atoms: C_25  and  C_52
   27  A    between atoms: C_29  and  O_59
   28  A    between atoms: C_30  and  O_49
   29  A    between atoms: C_31  and  C_53
   30  A    between atoms: O_32  and  C_56
   31  A    between atoms: O_32  and  C_65
   32  A    between atoms: O_35  and  C_43
   33  A    between atoms: O_35  and  C_63
   34  A    between atoms: S_36  and  O_42
   35  A    between atoms: O_42  and  C_47
   36  A    between atoms: C_43  and  C_48
   37  A    between atoms: C_45  and  C_47
   38  A    between atoms: C_45  and  O_59
   39  A    between atoms: C_46  and  C_48
   40  A    between atoms: C_47  and  C_65
   41  A    between atoms: C_48  and  C_54
   42  A    between atoms: C_53  and  N_55
   43  A    between atoms: O_57  and  C_58
                            x       y       z     vdW  Elec       q    Type
                         _______ _______ _______ _____ _____    ______ ____

>  <TORSDO>
F 43

$$$$
=
 OpenBabel11062421053D

 68 71  0  0  1  0  0  0  0  0999 V2000
  192.2020  175.4700  144.9540 C   0  0  2  0  0  0  0  0  0  0  0  0
  191.8870  176.3000  143.7390 C   0  0  1  0  0  3  0  0  0  0  0  0
  191.6520  176.8850  145.0940 C   0  0  2  0  0  0  0  0  0  0  0  0
  192.0970  177.6640  144.0090 O   0  0  0  0  0  0  0  0  0  0  0  0
  193.6090  175.3830  145.5160 C   0  0  0  0  0  2  0  0  0  0  0  0
  194.3510  174.4890  144.7420 O   0  0  0  0  0  0  0  0  0  0  0  0
  194.5790  175.1480  143.5200 C   0  0  0  0  0  2  0  0  0  0  0  0
  195.4550  174.3170  142.5930 C   0  0  2  0  0  3  0  0  0  0  0  0
  195.8340  172.9690  143.1800 C   0  0  0  0  0  0  0  0  0  0  0  0
  195.1400  171.8800  142.8620 C   0  0  0  0  0  2  0  0  0  0  0  0
  196.8750  172.8100  144.1120 O   0  0  0  0  0  0  0  0  0  0  0  0
  197.3650  173.0090  146.3680 F   0  0  0  0  0  0  0  0  0  0  0  0
  196.7370  172.2260  145.4120 C   0  0  0  0  0  0  0  0  0  0  0  0
  195.3870  172.1500  145.7010 F   0  0  0  0  0  0  0  0  0  0  0  0
  197.2400  170.9400  145.4320 F   0  0  0  0  0  0  0  0  0  0  0  0
  196.5760  175.0860  142.2180 O   0  0  0  0  0  0  0  0  0  0  0  0
  195.9970  176.2840  141.1210 S   0  0  0  0  0  0  0  0  0  0  0  0
  196.8040  175.5230  139.6720 C   0  0  0  0  0  2  0  0  0  0  0  0
  196.1460  174.2000  139.3240 C   0  0  0  0  0  2  0  0  0  0  0  0
  197.1540  173.0500  139.3200 C   0  0  0  0  0  2  0  0  0  0  0  0
  196.6720  171.8260  138.5270 C   0  0  0  0  0  2  0  0  0  0  0  0
  197.6760  171.4350  137.4500 C   0  0  1  0  0  3  0  0  0  0  0  0
  197.9390  169.9100  135.6160 O   0  0  0  0  0  1  0  0  0  0  0  0
  197.3250  170.0570  136.8640 C   0  0  2  0  0  3  0  0  0  0  0  0
  195.9300  169.9200  136.7240 O   0  0  0  0  0  0  0  0  0  0  0  0
  194.7520  168.4510  135.2800 C   0  0  0  0  0  2  0  0  0  0  0  0
  194.2710  169.8540  135.0200 C   0  0  0  0  0  2  0  0  0  0  0  0
  195.7220  169.6060  135.3760 C   0  0  0  0  0  3  0  0  0  0  0  0
  197.7610  172.5240  136.3790 C   0  0  0  0  0  2  0  0  0  0  0  0
  196.5430  173.4280  136.4590 C   0  0  0  0  0  2  0  0  0  0  0  0
  195.6550  173.1230  135.4230 O   0  0  0  0  0  1  0  0  0  0  0  0
  190.1390  177.0160  145.2460 C   0  0  0  0  0  2  0  0  0  0  0  0
  189.4980  176.4260  146.5250 C   0  0  2  0  0  3  0  0  0  0  0  0
  189.0290  175.1240  146.3090 O   0  0  0  0  0  1  0  0  0  0  0  0
  188.3340  177.3140  147.0080 C   0  0  0  0  0  2  0  0  0  0  0  0
  187.4260  177.7860  145.8710 C   0  0  0  0  0  2  0  0  0  0  0  0
  187.0940  176.6290  144.9400 C   0  0  0  0  0  2  0  0  0  0  0  0
  187.1730  176.9960  143.4570 C   0  0  1  0  0  3  0  0  0  0  0  0
  187.5400  178.4440  143.2010 C   0  0  0  0  0  2  0  0  0  0  0  0
  188.3810  178.5080  142.0710 O   0  0  0  0  0  0  0  0  0  0  0  0
  188.6610  177.1740  141.6870 C   0  0  0  0  0  2  0  0  0  0  0  0
  188.3330  176.2790  142.8530 C   0  0  2  0  0  3  0  0  0  0  0  0
  187.9570  174.9890  142.4480 O   0  0  0  0  0  0  0  0  0  0  0  0
  187.4300  174.9960  141.1260 C   0  0  1  0  0  3  0  0  0  0  0  0
  187.2150  176.2770  140.5740 O   0  0  0  0  0  1  0  0  0  0  0  0
  188.2290  174.2200  140.2580 O   0  0  0  0  0  0  0  0  0  0  0  0
  188.4140  172.9540  140.8350 C   0  0  0  0  0  2  0  0  0  0  0  0
  189.8340  172.5340  140.6710 C   0  0  0  0  0  0  0  0  0  0  0  0
  190.1010  171.3470  140.5390 O   0  0  0  0  0  0  0  0  0  0  0  0
  190.9410  173.5380  140.6900 C   0  0  0  0  0  2  0  0  0  0  0  0
  191.6990  173.4950  139.3630 C   0  0  0  0  0  2  0  0  0  0  0  0
  191.8020  172.1600  138.9370 O   0  0  0  0  0  0  0  0  0  0  0  0
  193.5530  172.1250  137.3760 O   0  0  0  0  0  1  0  0  0  0  0  0
  192.1570  172.1430  137.5750 C   0  0  1  0  0  3  0  0  0  0  0  0
  191.4110  171.0970  136.7390 C   0  0  0  0  0  2  0  0  0  0  0  0
  190.9250  171.6310  135.3980 C   0  0  0  0  0  2  0  0  0  0  0  0
  189.4720  172.0780  135.4930 C   0  0  0  0  0  2  0  0  0  0  0  0
  189.2220  173.2310  134.6350 N   0  0  0  0  0  2  0  0  0  0  0  0
  189.8070  174.4140  135.2620 C   0  0  1  0  0  3  0  0  0  0  0  0
  189.3500  174.4860  136.5840 O   0  0  0  0  0  1  0  0  0  0  0  0
  191.3440  174.3510  135.2330 C   0  0  0  0  0  2  0  0  0  0  0  0
  191.9650  175.6860  135.6300 C   0  0  0  0  0  3  0  0  0  0  0  0
  193.0930  175.4720  136.3970 F   0  0  0  0  0  0  0  0  0  0  0  0
  192.2740  176.4330  134.5130 F   0  0  0  0  0  0  0  0  0  0  0  0
  191.2820  174.4230  145.2460 O   0  0  0  0  0  0  0  0  0  0  0  0
  189.7960  172.9960  143.9720 O   0  0  0  0  0  0  0  0  0  0  0  0
  192.0530  172.6380  144.0170 O   0  0  0  0  0  1  0  0  0  0  0  0
  191.0760  173.3350  144.3940 C   0  0  0  0  0  0  0  0  0  0  0  0
  1  3  1  0  0  0  0
  1 65  1  0  0  0  0
  1  5  1  1  0  0  0
  2  4  1  1  0  0  0
  2  1  1  0  0  0  0
  2  3  1  0  0  0  0
  3 32  1  1  0  0  0
  4  3  1  0  0  0  0
  6  5  1  0  0  0  0
  7  6  1  0  0  0  0
  8  9  1  0  0  0  0
  8  7  1  1  0  0  0
  9 11  1  0  0  0  0
 10  9  2  0  0  0  0
 11 13  1  0  0  0  0
 13 15  1  0  0  0  0
 13 14  1  0  0  0  0
 13 12  1  0  0  0  0
 16  8  1  0  0  0  0
 17 16  1  0  0  0  0
 18 17  1  0  0  0  0
 19 18  1  0  0  0  0
 20 19  1  0  0  0  0
 21 20  1  0  0  0  0
 22 29  1  6  0  0  0
 22 21  1  0  0  0  0
 24 23  1  6  0  0  0
 24 22  1  0  0  0  0
 25 24  1  0  0  0  0
 26 28  1  0  0  0  0
 27 26  1  0  0  0  0
 27 28  1  0  0  0  0
 28 25  1  0  0  0  0
 29 30  1  0  0  0  0
 31 30  1  0  0  0  0
 32 33  1  0  0  0  0
 33 34  1  6  0  0  0
 33 35  1  0  0  0  0
 36 35  1  0  0  0  0
 37 36  1  0  0  0  0
 38 37  1  1  0  0  0
 39 38  1  0  0  0  0
 40 39  1  0  0  0  0
 41 40  1  0  0  0  0
 41 42  1  0  0  0  0
 42 43  1  6  0  0  0
 42 38  1  0  0  0  0
 44 45  1  6  0  0  0
 44 43  1  0  0  0  0
 46 47  1  0  0  0  0
 46 44  1  0  0  0  0
 48 50  1  0  0  0  0
 48 47  1  0  0  0  0
 49 48  2  0  0  0  0
 51 50  1  0  0  0  0
 52 51  1  0  0  0  0
 54 53  1  1  0  0  0
 54 52  1  0  0  0  0
 55 54  1  0  0  0  0
 56 57  1  0  0  0  0
 56 55  1  0  0  0  0
 58 59  1  0  0  0  0
 58 57  1  0  0  0  0
 59 60  1  1  0  0  0
 61 59  1  0  0  0  0
 61 62  1  0  0  0  0
 62 63  1  0  0  0  0
 64 62  1  0  0  0  0
 66 68  2  0  0  0  0
 67 68  1  0  0  0  0
 68 65  1  0  0  0  0
M  END
>  <MODEL>
4

>  <REMARK>
 VINA RESULT:      -2.9      3.554      7.919
  Name = 
  43 active torsions:
  status: ('A' for Active; 'I' for Inactive)
    1  A    between atoms: C_1  and  C_8
    2  A    between atoms: C_1  and  C_15
    3  A    between atoms: C_2  and  O_6
    4  A    between atoms: C_2  and  C_56
    5  A    between atoms: C_3  and  C_22
    6  A    between atoms: C_3  and  N_55
    7  A    between atoms: C_4  and  C_20
    8  A    between atoms: C_4  and  C_37
    9  A    between atoms: C_5  and  C_12
   10  A    between atoms: C_5  and  C_18
   11  A    between atoms: O_6  and  C_51
   12  A    between atoms: C_7  and  C_54
   13  A    between atoms: C_8  and  O_57
   14  A    between atoms: C_9  and  C_15
   15  A    between atoms: C_9  and  O_49
   16  A    between atoms: C_10  and  C_31
   17  A    between atoms: C_10  and  C_58
   18  A    between atoms: O_11  and  C_30
   19  A    between atoms: O_11  and  C_41
   20  A    between atoms: C_12  and  C_46
   21  A    between atoms: C_13  and  C_52
   22  A    between atoms: C_18  and  S_36
   23  A    between atoms: C_20  and  C_64
   24  A    between atoms: C_22  and  C_23
   25  A    between atoms: C_25  and  C_37
   26  A    between atoms: C_25  and  C_52
   27  A    between atoms: C_29  and  O_59
   28  A    between atoms: C_30  and  O_49
   29  A    between atoms: C_31  and  C_53
   30  A    between atoms: O_32  and  C_56
   31  A    between atoms: O_32  and  C_65
   32  A    between atoms: O_35  and  C_43
   33  A    between atoms: O_35  and  C_63
   34  A    between atoms: S_36  and  O_42
   35  A    between atoms: O_42  and  C_47
   36  A    between atoms: C_43  and  C_48
   37  A    between atoms: C_45  and  C_47
   38  A    between atoms: C_45  and  O_59
   39  A    between atoms: C_46  and  C_48
   40  A    between atoms: C_47  and  C_65
   41  A    between atoms: C_48  and  C_54
   42  A    between atoms: C_53  and  N_55
   43  A    between atoms: O_57  and  C_58
                            x       y       z     vdW  Elec       q    Type
                         _______ _______ _______ _____ _____    ______ ____

>  <TORSDO>
F 43

$$$$
=
 OpenBabel11062421053D

 68 71  0  0  1  0  0  0  0  0999 V2000
  190.3040  171.7740  139.8650 C   0  0  2  0  0  0  0  0  0  0  0  0
  189.0830  172.5710  139.4910 C   0  0  1  0  0  3  0  0  0  0  0  0
  189.2370  171.1890  138.9460 C   0  0  2  0  0  0  0  0  0  0  0  0
  187.9810  171.7210  139.2970 O   0  0  0  0  0  0  0  0  0  0  0  0
  190.3780  170.9940  141.1650 C   0  0  0  0  0  2  0  0  0  0  0  0
  190.3540  171.8930  142.2340 O   0  0  0  0  0  0  0  0  0  0  0  0
  191.5300  171.6400  142.9640 C   0  0  0  0  0  2  0  0  0  0  0  0
  192.4030  172.8840  143.0630 C   0  0  2  0  0  3  0  0  0  0  0  0
  193.7070  172.6400  143.8010 C   0  0  0  0  0  0  0  0  0  0  0  0
  193.7850  171.6940  144.7330 C   0  0  0  0  0  2  0  0  0  0  0  0
  194.8600  173.4160  143.5860 O   0  0  0  0  0  0  0  0  0  0  0  0
  194.0050  175.2580  144.7020 F   0  0  0  0  0  0  0  0  0  0  0  0
  194.9500  174.8320  143.7830 C   0  0  0  0  0  0  0  0  0  0  0  0
  196.2150  175.1130  144.2650 F   0  0  0  0  0  0  0  0  0  0  0  0
  194.8020  175.5070  142.5870 F   0  0  0  0  0  0  0  0  0  0  0  0
  191.6420  173.9280  143.6260 O   0  0  0  0  0  0  0  0  0  0  0  0
  191.4950  175.1350  142.4020 S   0  0  0  0  0  0  0  0  0  0  0  0
  189.7380  175.4660  142.7680 C   0  0  0  0  0  2  0  0  0  0  0  0
  189.3980  176.9200  142.4910 C   0  0  0  0  0  2  0  0  0  0  0  0
  188.7510  177.5890  143.7050 C   0  0  0  0  0  2  0  0  0  0  0  0
  187.3720  178.1920  143.4000 C   0  0  0  0  0  2  0  0  0  0  0  0
  186.2520  177.2430  143.8060 C   0  0  1  0  0  3  0  0  0  0  0  0
  184.4690  177.3600  145.4080 O   0  0  0  0  0  1  0  0  0  0  0  0
  185.8570  177.4760  145.2740 C   0  0  2  0  0  3  0  0  0  0  0  0
  186.2690  178.7530  145.7010 O   0  0  0  0  0  0  0  0  0  0  0  0
  187.2340  177.2390  147.2510 C   0  0  0  0  0  2  0  0  0  0  0  0
  188.1130  178.4590  147.1750 C   0  0  0  0  0  2  0  0  0  0  0  0
  186.6110  178.6000  147.0500 C   0  0  0  0  0  3  0  0  0  0  0  0
  185.0650  177.3770  142.8500 C   0  0  0  0  0  2  0  0  0  0  0  0
  185.4390  178.2720  141.6810 C   0  0  0  0  0  2  0  0  0  0  0  0
  185.9440  177.4990  140.6320 O   0  0  0  0  0  1  0  0  0  0  0  0
  189.4690  171.3440  137.4460 C   0  0  0  0  0  2  0  0  0  0  0  0
  190.6820  170.6050  136.8330 C   0  0  2  0  0  3  0  0  0  0  0  0
  190.5400  169.2150  136.9360 O   0  0  0  0  0  1  0  0  0  0  0  0
  191.9900  171.0350  137.5270 C   0  0  0  0  0  2  0  0  0  0  0  0
  192.8600  171.9460  136.6590 C   0  0  0  0  0  2  0  0  0  0  0  0
  193.3930  171.1820  135.4550 C   0  0  0  0  0  2  0  0  0  0  0  0
  194.3860  171.9860  134.6130 C   0  0  1  0  0  3  0  0  0  0  0  0
  194.1740  173.4850  134.6780 C   0  0  0  0  0  2  0  0  0  0  0  0
  195.4320  174.1230  134.6720 O   0  0  0  0  0  0  0  0  0  0  0  0
  196.4140  173.1050  134.7370 C   0  0  0  0  0  2  0  0  0  0  0  0
  195.7420  171.8460  135.2180 C   0  0  2  0  0  3  0  0  0  0  0  0
  196.3750  170.6870  134.7420 O   0  0  0  0  0  0  0  0  0  0  0  0
  196.5990  169.7540  135.7930 C   0  0  1  0  0  3  0  0  0  0  0  0
  197.9230  169.2770  135.8990 O   0  0  0  0  0  1  0  0  0  0  0  0
  196.1690  170.2740  137.0330 O   0  0  0  0  0  0  0  0  0  0  0  0
  196.6990  169.4760  138.0600 C   0  0  0  0  0  2  0  0  0  0  0  0
  195.5930  168.7650  138.7600 C   0  0  0  0  0  0  0  0  0  0  0  0
  194.6860  168.2680  138.1060 O   0  0  0  0  0  0  0  0  0  0  0  0
  195.5600  168.6700  140.2510 C   0  0  0  0  0  2  0  0  0  0  0  0
  196.9880  168.6320  140.7970 C   0  0  0  0  0  2  0  0  0  0  0  0
  197.5680  169.9040  140.6560 O   0  0  0  0  0  0  0  0  0  0  0  0
  196.8860  170.7730  142.7250 O   0  0  0  0  0  1  0  0  0  0  0  0
  196.7620  170.8460  141.3220 C   0  0  1  0  0  3  0  0  0  0  0  0
  196.8760  172.2750  140.7770 C   0  0  0  0  0  2  0  0  0  0  0  0
  195.6480  172.7220  139.9950 C   0  0  0  0  0  2  0  0  0  0  0  0
  195.7800  174.1800  139.5750 C   0  0  0  0  0  2  0  0  0  0  0  0
  196.4760  174.2960  138.2990 N   0  0  0  0  0  2  0  0  0  0  0  0
  195.7040  175.1780  137.4260 C   0  0  1  0  0  3  0  0  0  0  0  0
  194.5700  175.6100  138.1240 O   0  0  0  0  0  1  0  0  0  0  0  0
  196.5460  176.3860  136.9790 C   0  0  0  0  0  2  0  0  0  0  0  0
  196.2850  176.7370  135.5180 C   0  0  0  0  0  3  0  0  0  0  0  0
  195.0090  177.2470  135.3770 F   0  0  0  0  0  0  0  0  0  0  0  0
  197.2190  177.6410  135.0580 F   0  0  0  0  0  0  0  0  0  0  0  0
  191.5170  172.1590  139.2280 O   0  0  0  0  0  0  0  0  0  0  0  0
  191.4840  174.2130  137.9430 O   0  0  0  0  0  0  0  0  0  0  0  0
  192.6300  174.0510  139.9140 O   0  0  0  0  0  1  0  0  0  0  0  0
  191.8940  173.4940  139.0590 C   0  0  0  0  0  0  0  0  0  0  0  0
  1  5  1  1  0  0  0
  2  4  1  1  0  0  0
  2  1  1  0  0  0  0
  3 32  1  6  0  0  0
  3  4  1  0  0  0  0
  3  2  1  0  0  0  0
  3  1  1  0  0  0  0
  5  6  1  0  0  0  0
  6  7  1  0  0  0  0
  8  7  1  1  0  0  0
  8 16  1  0  0  0  0
  8  9  1  0  0  0  0
  9 10  2  0  0  0  0
 11 13  1  0  0  0  0
 11  9  1  0  0  0  0
 13 14  1  0  0  0  0
 13 12  1  0  0  0  0
 15 13  1  0  0  0  0
 17 18  1  0  0  0  0
 17 16  1  0  0  0  0
 19 18  1  0  0  0  0
 19 20  1  0  0  0  0
 21 20  1  0  0  0  0
 21 22  1  0  0  0  0
 22 29  1  6  0  0  0
 22 24  1  0  0  0  0
 24 23  1  6  0  0  0
 24 25  1  0  0  0  0
 25 28  1  0  0  0  0
 27 26  1  0  0  0  0
 28 27  1  0  0  0  0
 28 26  1  0  0  0  0
 30 29  1  0  0  0  0
 31 30  1  0  0  0  0
 33 34  1  1  0  0  0
 33 32  1  0  0  0  0
 33 35  1  0  0  0  0
 36 35  1  0  0  0  0
 37 36  1  0  0  0  0
 38 39  1  0  0  0  0
 38 42  1  0  0  0  0
 38 37  1  1  0  0  0
 40 39  1  0  0  0  0
 40 41  1  0  0  0  0
 41 42  1  0  0  0  0
 42 43  1  6  0  0  0
 43 44  1  0  0  0  0
 44 45  1  1  0  0  0
 44 46  1  0  0  0  0
 46 47  1  0  0  0  0
 47 48  1  0  0  0  0
 48 50  1  0  0  0  0
 49 48  2  0  0  0  0
 50 51  1  0  0  0  0
 52 51  1  0  0  0  0
 52 54  1  0  0  0  0
 54 53  1  1  0  0  0
 55 54  1  0  0  0  0
 56 55  1  0  0  0  0
 57 56  1  0  0  0  0
 58 57  1  0  0  0  0
 59 60  1  1  0  0  0
 59 58  1  0  0  0  0
 61 59  1  0  0  0  0
 62 61  1  0  0  0  0
 63 62  1  0  0  0  0
 64 62  1  0  0  0  0
 65  1  1  0  0  0  0
 66 68  2  0  0  0  0
 68 65  1  0  0  0  0
 68 67  1  0  0  0  0
M  END
>  <MODEL>
5

>  <REMARK>
 VINA RESULT:      -2.2      3.473     10.357
  Name = 
  43 active torsions:
  status: ('A' for Active; 'I' for Inactive)
    1  A    between atoms: C_1  and  C_8
    2  A    between atoms: C_1  and  C_15
    3  A    between atoms: C_2  and  O_6
    4  A    between atoms: C_2  and  C_56
    5  A    between atoms: C_3  and  C_22
    6  A    between atoms: C_3  and  N_55
    7  A    between atoms: C_4  and  C_20
    8  A    between atoms: C_4  and  C_37
    9  A    between atoms: C_5  and  C_12
   10  A    between atoms: C_5  and  C_18
   11  A    between atoms: O_6  and  C_51
   12  A    between atoms: C_7  and  C_54
   13  A    between atoms: C_8  and  O_57
   14  A    between atoms: C_9  and  C_15
   15  A    between atoms: C_9  and  O_49
   16  A    between atoms: C_10  and  C_31
   17  A    between atoms: C_10  and  C_58
   18  A    between atoms: O_11  and  C_30
   19  A    between atoms: O_11  and  C_41
   20  A    between atoms: C_12  and  C_46
   21  A    between atoms: C_13  and  C_52
   22  A    between atoms: C_18  and  S_36
   23  A    between atoms: C_20  and  C_64
   24  A    between atoms: C_22  and  C_23
   25  A    between atoms: C_25  and  C_37
   26  A    between atoms: C_25  and  C_52
   27  A    between atoms: C_29  and  O_59
   28  A    between atoms: C_30  and  O_49
   29  A    between atoms: C_31  and  C_53
   30  A    between atoms: O_32  and  C_56
   31  A    between atoms: O_32  and  C_65
   32  A    between atoms: O_35  and  C_43
   33  A    between atoms: O_35  and  C_63
   34  A    between atoms: S_36  and  O_42
   35  A    between atoms: O_42  and  C_47
   36  A    between atoms: C_43  and  C_48
   37  A    between atoms: C_45  and  C_47
   38  A    between atoms: C_45  and  O_59
   39  A    between atoms: C_46  and  C_48
   40  A    between atoms: C_47  and  C_65
   41  A    between atoms: C_48  and  C_54
   42  A    between atoms: C_53  and  N_55
   43  A    between atoms: O_57  and  C_58
                            x       y       z     vdW  Elec       q    Type
                         _______ _______ _______ _____ _____    ______ ____

>  <TORSDO>
F 43

$$$$
=
 OpenBabel11062421053D

 68 71  0  0  1  0  0  0  0  0999 V2000
  191.7420  173.0810  142.2150 C   0  0  2  0  0  0  0  0  0  0  0  0
  192.9800  172.2650  141.9560 C   0  0  1  0  0  3  0  0  0  0  0  0
  191.9160  172.3160  140.9080 C   0  0  2  0  0  0  0  0  0  0  0  0
  193.2860  172.2590  140.5830 O   0  0  0  0  0  0  0  0  0  0  0  0
  191.7060  174.5760  141.9610 C   0  0  0  0  0  2  0  0  0  0  0  0
  191.6880  175.2440  143.1880 O   0  0  0  0  0  0  0  0  0  0  0  0
  192.3190  176.4800  142.9520 C   0  0  0  0  0  2  0  0  0  0  0  0
  192.3430  177.3410  144.2070 C   0  0  2  0  0  3  0  0  0  0  0  0
  192.4900  176.5320  145.4840 C   0  0  0  0  0  0  0  0  0  0  0  0
  191.4910  176.4730  146.3590 C   0  0  0  0  0  2  0  0  0  0  0  0
  193.6780  175.8640  145.8290 O   0  0  0  0  0  0  0  0  0  0  0  0
  195.1510  174.1100  146.1780 F   0  0  0  0  0  0  0  0  0  0  0  0
  193.8350  174.4430  145.9010 C   0  0  0  0  0  0  0  0  0  0  0  0
  193.0230  173.9770  146.9190 F   0  0  0  0  0  0  0  0  0  0  0  0
  193.4190  173.8400  144.7300 F   0  0  0  0  0  0  0  0  0  0  0  0
  191.2030  178.1690  144.2110 O   0  0  0  0  0  0  0  0  0  0  0  0
  189.9100  177.2120  144.8340 S   0  0  0  0  0  0  0  0  0  0  0  0
  188.6720  177.9270  143.7000 C   0  0  0  0  0  2  0  0  0  0  0  0
  187.5840  176.9160  143.3870 C   0  0  0  0  0  2  0  0  0  0  0  0
  187.2750  176.0270  144.5930 C   0  0  0  0  0  2  0  0  0  0  0  0
  186.0000  176.4440  145.3410 C   0  0  0  0  0  2  0  0  0  0  0  0
  185.8530  177.9590  145.3790 C   0  0  1  0  0  3  0  0  0  0  0  0
  183.4650  178.1430  145.5190 O   0  0  0  0  0  1  0  0  0  0  0  0
  184.5540  178.3910  144.6780 C   0  0  2  0  0  3  0  0  0  0  0  0
  184.3890  177.6900  143.4680 O   0  0  0  0  0  0  0  0  0  0  0  0
  183.9950  178.0200  141.1510 C   0  0  0  0  0  2  0  0  0  0  0  0
  182.7270  178.3430  141.8950 C   0  0  0  0  0  2  0  0  0  0  0  0
  184.0700  178.6650  142.5150 C   0  0  0  0  0  3  0  0  0  0  0  0
  185.9390  178.4680  146.8200 C   0  0  0  0  0  2  0  0  0  0  0  0
  187.3330  178.2270  147.3730 C   0  0  0  0  0  2  0  0  0  0  0  0
  187.6320  179.1860  148.3450 O   0  0  0  0  0  1  0  0  0  0  0  0
  191.3070  170.9180  140.8500 C   0  0  0  0  0  2  0  0  0  0  0  0
  190.6930  170.4640  139.5040 C   0  0  2  0  0  3  0  0  0  0  0  0
  189.2970  170.5880  139.5100 O   0  0  0  0  0  1  0  0  0  0  0  0
  191.0730  169.0010  139.1990 C   0  0  0  0  0  2  0  0  0  0  0  0
  190.7650  168.5880  137.7580 C   0  0  0  0  0  2  0  0  0  0  0  0
  191.2820  169.6360  136.7830 C   0  0  0  0  0  2  0  0  0  0  0  0
  192.7650  169.9630  136.9670 C   0  0  1  0  0  3  0  0  0  0  0  0
  193.7000  168.9560  136.3290 C   0  0  0  0  0  2  0  0  0  0  0  0
  194.8070  169.6430  135.7880 O   0  0  0  0  0  0  0  0  0  0  0  0
  194.5520  171.0270  135.9400 C   0  0  0  0  0  2  0  0  0  0  0  0
  193.0770  171.1990  136.1930 C   0  0  2  0  0  3  0  0  0  0  0  0
  192.7950  172.3420  136.9580 O   0  0  0  0  0  0  0  0  0  0  0  0
  192.0110  173.2740  136.2230 C   0  0  1  0  0  3  0  0  0  0  0  0
  191.1690  174.0960  137.0020 O   0  0  0  0  0  1  0  0  0  0  0  0
  192.8230  174.0680  135.3830 O   0  0  0  0  0  0  0  0  0  0  0  0
  193.2750  175.1770  136.1170 C   0  0  0  0  0  2  0  0  0  0  0  0
  193.8550  174.7160  137.4090 C   0  0  0  0  0  0  0  0  0  0  0  0
  193.1990  174.8230  138.4370 O   0  0  0  0  0  0  0  0  0  0  0  0
  195.2350  174.1470  137.4750 C   0  0  0  0  0  2  0  0  0  0  0  0
  195.2550  172.9500  138.4260 C   0  0  0  0  0  2  0  0  0  0  0  0
  196.5340  172.8370  138.9970 O   0  0  0  0  0  0  0  0  0  0  0  0
  196.3440  175.1730  139.0970 O   0  0  0  0  0  1  0  0  0  0  0  0
  196.8060  174.0030  139.7360 C   0  0  1  0  0  3  0  0  0  0  0  0
  196.4080  173.9220  141.2150 C   0  0  0  0  0  2  0  0  0  0  0  0
  197.5510  173.4920  142.1240 C   0  0  0  0  0  2  0  0  0  0  0  0
  197.6310  171.9730  142.2040 C   0  0  0  0  0  2  0  0  0  0  0  0
  196.3000  171.3800  142.2580 N   0  0  0  0  0  2  0  0  0  0  0  0
  196.3970  170.0740  142.9060 C   0  0  1  0  0  3  0  0  0  0  0  0
  195.8950  170.1880  144.2090 O   0  0  0  0  0  1  0  0  0  0  0  0
  195.6100  169.0090  142.1240 C   0  0  0  0  0  2  0  0  0  0  0  0
  195.7150  169.2300  140.6190 C   0  0  0  0  0  3  0  0  0  0  0  0
  194.7240  170.0960  140.2000 F   0  0  0  0  0  0  0  0  0  0  0  0
  196.9590  169.7210  140.2820 F   0  0  0  0  0  0  0  0  0  0  0  0
  190.8110  172.5200  143.1340 O   0  0  0  0  0  0  0  0  0  0  0  0
  188.5560  172.0360  143.8770 O   0  0  0  0  0  1  0  0  0  0  0  0
  188.9580  173.3390  142.0430 O   0  0  0  0  0  0  0  0  0  0  0  0
  189.4280  172.6580  142.9920 C   0  0  0  0  0  0  0  0  0  0  0  0
  1  5  1  6  0  0  0
  1 65  1  0  0  0  0
  2  4  1  6  0  0  0
  2  1  1  0  0  0  0
  3 32  1  6  0  0  0
  3  2  1  0  0  0  0
  3  1  1  0  0  0  0
  4  3  1  0  0  0  0
  5  6  1  0  0  0  0
  7  6  1  0  0  0  0
  8  7  1  6  0  0  0
  8 16  1  0  0  0  0
  8  9  1  0  0  0  0
  9 11  1  0  0  0  0
  9 10  2  0  0  0  0
 11 13  1  0  0  0  0
 13 12  1  0  0  0  0
 13 14  1  0  0  0  0
 15 13  1  0  0  0  0
 16 17  1  0  0  0  0
 18 17  1  0  0  0  0
 19 18  1  0  0  0  0
 19 20  1  0  0  0  0
 20 21  1  0  0  0  0
 22 21  1  1  0  0  0
 22 29  1  0  0  0  0
 24 22  1  0  0  0  0
 24 23  1  1  0  0  0
 25 24  1  0  0  0  0
 26 27  1  0  0  0  0
 26 28  1  0  0  0  0
 27 28  1  0  0  0  0
 28 25  1  0  0  0  0
 29 30  1  0  0  0  0
 30 31  1  0  0  0  0
 33 34  1  1  0  0  0
 33 32  1  0  0  0  0
 35 33  1  0  0  0  0
 36 35  1  0  0  0  0
 37 36  1  0  0  0  0
 38 37  1  6  0  0  0
 39 38  1  0  0  0  0
 40 41  1  0  0  0  0
 40 39  1  0  0  0  0
 41 42  1  0  0  0  0
 42 43  1  1  0  0  0
 42 38  1  0  0  0  0
 44 43  1  0  0  0  0
 44 45  1  1  0  0  0
 46 47  1  0  0  0  0
 46 44  1  0  0  0  0
 47 48  1  0  0  0  0
 48 50  1  0  0  0  0
 48 49  2  0  0  0  0
 50 51  1  0  0  0  0
 51 52  1  0  0  0  0
 52 54  1  0  0  0  0
 54 53  1  6  0  0  0
 54 55  1  0  0  0  0
 55 56  1  0  0  0  0
 56 57  1  0  0  0  0
 57 58  1  0  0  0  0
 58 59  1  0  0  0  0
 59 60  1  1  0  0  0
 61 59  1  0  0  0  0
 62 61  1  0  0  0  0
 63 62  1  0  0  0  0
 64 62  1  0  0  0  0
 67 68  2  0  0  0  0
 68 65  1  0  0  0  0
 68 66  1  0  0  0  0
M  END
>  <MODEL>
6

>  <REMARK>
 VINA RESULT:      -2.0      3.478     10.661
  Name = 
  43 active torsions:
  status: ('A' for Active; 'I' for Inactive)
    1  A    between atoms: C_1  and  C_8
    2  A    between atoms: C_1  and  C_15
    3  A    between atoms: C_2  and  O_6
    4  A    between atoms: C_2  and  C_56
    5  A    between atoms: C_3  and  C_22
    6  A    between atoms: C_3  and  N_55
    7  A    between atoms: C_4  and  C_20
    8  A    between atoms: C_4  and  C_37
    9  A    between atoms: C_5  and  C_12
   10  A    between atoms: C_5  and  C_18
   11  A    between atoms: O_6  and  C_51
   12  A    between atoms: C_7  and  C_54
   13  A    between atoms: C_8  and  O_57
   14  A    between atoms: C_9  and  C_15
   15  A    between atoms: C_9  and  O_49
   16  A    between atoms: C_10  and  C_31
   17  A    between atoms: C_10  and  C_58
   18  A    between atoms: O_11  and  C_30
   19  A    between atoms: O_11  and  C_41
   20  A    between atoms: C_12  and  C_46
   21  A    between atoms: C_13  and  C_52
   22  A    between atoms: C_18  and  S_36
   23  A    between atoms: C_20  and  C_64
   24  A    between atoms: C_22  and  C_23
   25  A    between atoms: C_25  and  C_37
   26  A    between atoms: C_25  and  C_52
   27  A    between atoms: C_29  and  O_59
   28  A    between atoms: C_30  and  O_49
   29  A    between atoms: C_31  and  C_53
   30  A    between atoms: O_32  and  C_56
   31  A    between atoms: O_32  and  C_65
   32  A    between atoms: O_35  and  C_43
   33  A    between atoms: O_35  and  C_63
   34  A    between atoms: S_36  and  O_42
   35  A    between atoms: O_42  and  C_47
   36  A    between atoms: C_43  and  C_48
   37  A    between atoms: C_45  and  C_47
   38  A    between atoms: C_45  and  O_59
   39  A    between atoms: C_46  and  C_48
   40  A    between atoms: C_47  and  C_65
   41  A    between atoms: C_48  and  C_54
   42  A    between atoms: C_53  and  N_55
   43  A    between atoms: O_57  and  C_58
                            x       y       z     vdW  Elec       q    Type
                         _______ _______ _______ _____ _____    ______ ____

>  <TORSDO>
F 43

$$$$
=
 OpenBabel11062421053D

 68 71  0  0  1  0  0  0  0  0999 V2000
  193.2400  175.4120  145.6410 C   0  0  2  0  0  0  0  0  0  0  0  0
  192.8870  176.3030  144.4810 C   0  0  1  0  0  3  0  0  0  0  0  0
  192.5630  176.7600  145.8660 C   0  0  2  0  0  0  0  0  0  0  0  0
  192.9670  177.6550  144.8570 O   0  0  0  0  0  0  0  0  0  0  0  0
  194.6320  175.4050  146.2450 C   0  0  0  0  0  2  0  0  0  0  0  0
  195.4600  174.5980  145.4610 O   0  0  0  0  0  0  0  0  0  0  0  0
  195.5030  175.2180  144.1980 C   0  0  0  0  0  2  0  0  0  0  0  0
  196.3200  174.4040  143.2040 C   0  0  2  0  0  3  0  0  0  0  0  0
  196.4850  172.9510  143.6160 C   0  0  0  0  0  0  0  0  0  0  0  0
  197.6640  172.3480  143.4910 C   0  0  0  0  0  2  0  0  0  0  0  0
  195.4170  172.1680  144.0880 O   0  0  0  0  0  0  0  0  0  0  0  0
  196.6100  171.5430  145.9730 F   0  0  0  0  0  0  0  0  0  0  0  0
  195.4700  171.3000  145.2260 C   0  0  0  0  0  0  0  0  0  0  0  0
  194.3530  171.5500  146.0020 F   0  0  0  0  0  0  0  0  0  0  0  0
  195.4170  169.9750  144.8390 F   0  0  0  0  0  0  0  0  0  0  0  0
  197.5500  175.0550  142.9870 O   0  0  0  0  0  0  0  0  0  0  0  0
  197.1670  176.6510  142.4570 S   0  0  0  0  0  0  0  0  0  0  0  0
  197.7930  176.3720  140.7660 C   0  0  0  0  0  2  0  0  0  0  0  0
  196.9520  175.3320  140.0480 C   0  0  0  0  0  2  0  0  0  0  0  0
  197.7720  174.0930  139.6860 C   0  0  0  0  0  2  0  0  0  0  0  0
  197.2610  173.3760  138.4280 C   0  0  0  0  0  2  0  0  0  0  0  0
  195.8690  173.8590  138.0430 C   0  0  1  0  0  3  0  0  0  0  0  0
  197.0240  173.8460  135.9400 O   0  0  0  0  0  1  0  0  0  0  0  0
  195.8150  174.2020  136.5440 C   0  0  2  0  0  3  0  0  0  0  0  0
  195.5790  175.5780  136.3600 O   0  0  0  0  0  0  0  0  0  0  0  0
  197.1220  176.0240  134.6140 C   0  0  0  0  0  2  0  0  0  0  0  0
  196.6690  177.3390  135.1900 C   0  0  0  0  0  2  0  0  0  0  0  0
  196.8350  176.1360  136.0930 C   0  0  0  0  0  3  0  0  0  0  0  0
  194.8150  172.8270  138.4480 C   0  0  0  0  0  2  0  0  0  0  0  0
  194.0610  172.3450  137.2200 C   0  0  0  0  0  2  0  0  0  0  0  0
  194.9460  171.7340  136.3280 O   0  0  0  0  0  1  0  0  0  0  0  0
  191.0410  176.7480  145.9750 C   0  0  0  0  0  2  0  0  0  0  0  0
  190.4170  175.9570  147.1490 C   0  0  2  0  0  3  0  0  0  0  0  0
  190.1700  174.6230  146.7950 O   0  0  0  0  0  1  0  0  0  0  0  0
  189.0990  176.6130  147.6080 C   0  0  0  0  0  2  0  0  0  0  0  0
  188.3020  177.2290  146.4570 C   0  0  0  0  0  2  0  0  0  0  0  0
  188.1240  176.2190  145.3320 C   0  0  0  0  0  2  0  0  0  0  0  0
  188.3390  176.8120  143.9390 C   0  0  1  0  0  3  0  0  0  0  0  0
  188.8490  178.2390  143.9500 C   0  0  0  0  0  2  0  0  0  0  0  0
  189.7690  178.4020  142.8940 O   0  0  0  0  0  0  0  0  0  0  0  0
  189.9580  177.1270  142.3080 C   0  0  0  0  0  2  0  0  0  0  0  0
  189.4720  176.0920  143.2870 C   0  0  2  0  0  3  0  0  0  0  0  0
  189.0120  174.9280  142.6520 O   0  0  0  0  0  0  0  0  0  0  0  0
  187.9360  175.2140  141.7660 C   0  0  1  0  0  3  0  0  0  0  0  0
  187.6850  176.5860  141.5510 O   0  0  0  0  0  1  0  0  0  0  0  0
  188.1080  174.5520  140.5300 O   0  0  0  0  0  0  0  0  0  0  0  0
  188.2940  173.1830  140.7790 C   0  0  0  0  0  2  0  0  0  0  0  0
  189.4690  172.6920  140.0060 C   0  0  0  0  0  0  0  0  0  0  0  0
  190.1660  171.8000  140.4700 O   0  0  0  0  0  0  0  0  0  0  0  0
  189.8230  173.2870  138.6810 C   0  0  0  0  0  2  0  0  0  0  0  0
  189.8990  172.1840  137.6250 C   0  0  0  0  0  2  0  0  0  0  0  0
  190.1280  170.9530  138.2620 O   0  0  0  0  0  0  0  0  0  0  0  0
  190.7200  170.3460  136.0750 O   0  0  0  0  0  1  0  0  0  0  0  0
  190.1370  169.9340  137.2920 C   0  0  1  0  0  3  0  0  0  0  0  0
  190.6680  168.5860  137.7940 C   0  0  0  0  0  2  0  0  0  0  0  0
  190.4010  168.3460  139.2740 C   0  0  0  0  0  2  0  0  0  0  0  0
  191.3500  169.1730  140.1320 C   0  0  0  0  0  2  0  0  0  0  0  0
  192.5420  168.4080  140.4810 N   0  0  0  0  0  2  0  0  0  0  0  0
  193.7070  169.2810  140.3640 C   0  0  1  0  0  3  0  0  0  0  0  0
  193.4690  170.4400  141.1140 O   0  0  0  0  0  1  0  0  0  0  0  0
  194.9790  168.5750  140.8650 C   0  0  0  0  0  2  0  0  0  0  0  0
  196.0070  169.5770  141.3790 C   0  0  0  0  0  3  0  0  0  0  0  0
  196.9680  168.9240  142.1270 F   0  0  0  0  0  0  0  0  0  0  0  0
  196.5910  170.2600  140.3330 F   0  0  0  0  0  0  0  0  0  0  0  0
  192.4090  174.2710  145.8240 O   0  0  0  0  0  0  0  0  0  0  0  0
  190.4640  173.2660  144.7860 O   0  0  0  0  0  1  0  0  0  0  0  0
  192.5130  173.2370  143.7720 O   0  0  0  0  0  0  0  0  0  0  0  0
  191.8160  173.5860  144.7600 C   0  0  0  0  0  0  0  0  0  0  0  0
  1 65  1  0  0  0  0
  1  3  1  0  0  0  0
  1  5  1  1  0  0  0
  2  4  1  1  0  0  0
  2  1  1  0  0  0  0
  2  3  1  0  0  0  0
  3 32  1  1  0  0  0
  4  3  1  0  0  0  0
  6  5  1  0  0  0  0
  7  6  1  0  0  0  0
  8  9  1  0  0  0  0
  8  7  1  1  0  0  0
  9 11  1  0  0  0  0
 10  9  2  0  0  0  0
 11 13  1  0  0  0  0
 13 12  1  0  0  0  0
 13 14  1  0  0  0  0
 15 13  1  0  0  0  0
 16  8  1  0  0  0  0
 17 16  1  0  0  0  0
 18 17  1  0  0  0  0
 19 18  1  0  0  0  0
 20 19  1  0  0  0  0
 21 20  1  0  0  0  0
 22 21  1  6  0  0  0
 22 29  1  0  0  0  0
 24 23  1  1  0  0  0
 24 22  1  0  0  0  0
 25 24  1  0  0  0  0
 26 27  1  0  0  0  0
 26 28  1  0  0  0  0
 27 28  1  0  0  0  0
 28 25  1  0  0  0  0
 30 29  1  0  0  0  0
 31 30  1  0  0  0  0
 32 33  1  0  0  0  0
 33 34  1  6  0  0  0
 33 35  1  0  0  0  0
 36 35  1  0  0  0  0
 37 36  1  0  0  0  0
 38 39  1  0  0  0  0
 38 37  1  1  0  0  0
 40 39  1  0  0  0  0
 41 40  1  0  0  0  0
 41 42  1  0  0  0  0
 42 43  1  6  0  0  0
 42 38  1  0  0  0  0
 44 45  1  6  0  0  0
 44 43  1  0  0  0  0
 46 47  1  0  0  0  0
 46 44  1  0  0  0  0
 48 49  2  0  0  0  0
 48 47  1  0  0  0  0
 50 48  1  0  0  0  0
 51 52  1  0  0  0  0
 51 50  1  0  0  0  0
 54 53  1  6  0  0  0
 54 55  1  0  0  0  0
 54 52  1  0  0  0  0
 55 56  1  0  0  0  0
 56 57  1  0  0  0  0
 57 58  1  0  0  0  0
 59 58  1  0  0  0  0
 59 61  1  0  0  0  0
 59 60  1  1  0  0  0
 61 62  1  0  0  0  0
 62 63  1  0  0  0  0
 64 62  1  0  0  0  0
 67 68  2  0  0  0  0
 68 66  1  0  0  0  0
 68 65  1  0  0  0  0
M  END
>  <MODEL>
7

>  <REMARK>
 VINA RESULT:      -2.0      3.756      8.072
  Name = 
  43 active torsions:
  status: ('A' for Active; 'I' for Inactive)
    1  A    between atoms: C_1  and  C_8
    2  A    between atoms: C_1  and  C_15
    3  A    between atoms: C_2  and  O_6
    4  A    between atoms: C_2  and  C_56
    5  A    between atoms: C_3  and  C_22
    6  A    between atoms: C_3  and  N_55
    7  A    between atoms: C_4  and  C_20
    8  A    between atoms: C_4  and  C_37
    9  A    between atoms: C_5  and  C_12
   10  A    between atoms: C_5  and  C_18
   11  A    between atoms: O_6  and  C_51
   12  A    between atoms: C_7  and  C_54
   13  A    between atoms: C_8  and  O_57
   14  A    between atoms: C_9  and  C_15
   15  A    between atoms: C_9  and  O_49
   16  A    between atoms: C_10  and  C_31
   17  A    between atoms: C_10  and  C_58
   18  A    between atoms: O_11  and  C_30
   19  A    between atoms: O_11  and  C_41
   20  A    between atoms: C_12  and  C_46
   21  A    between atoms: C_13  and  C_52
   22  A    between atoms: C_18  and  S_36
   23  A    between atoms: C_20  and  C_64
   24  A    between atoms: C_22  and  C_23
   25  A    between atoms: C_25  and  C_37
   26  A    between atoms: C_25  and  C_52
   27  A    between atoms: C_29  and  O_59
   28  A    between atoms: C_30  and  O_49
   29  A    between atoms: C_31  and  C_53
   30  A    between atoms: O_32  and  C_56
   31  A    between atoms: O_32  and  C_65
   32  A    between atoms: O_35  and  C_43
   33  A    between atoms: O_35  and  C_63
   34  A    between atoms: S_36  and  O_42
   35  A    between atoms: O_42  and  C_47
   36  A    between atoms: C_43  and  C_48
   37  A    between atoms: C_45  and  C_47
   38  A    between atoms: C_45  and  O_59
   39  A    between atoms: C_46  and  C_48
   40  A    between atoms: C_47  and  C_65
   41  A    between atoms: C_48  and  C_54
   42  A    between atoms: C_53  and  N_55
   43  A    between atoms: O_57  and  C_58
                            x       y       z     vdW  Elec       q    Type
                         _______ _______ _______ _____ _____    ______ ____

>  <TORSDO>
F 43

$$$$
=
 OpenBabel11062421053D

 68 71  0  0  1  0  0  0  0  0999 V2000
  190.2980  171.7670  139.8550 C   0  0  2  0  0  0  0  0  0  0  0  0
  189.0530  172.5560  139.5510 C   0  0  1  0  0  3  0  0  0  0  0  0
  189.2080  171.1940  138.9560 C   0  0  2  0  0  0  0  0  0  0  0  0
  187.9580  171.6940  139.3690 O   0  0  0  0  0  0  0  0  0  0  0  0
  190.4310  170.9470  141.1250 C   0  0  0  0  0  2  0  0  0  0  0  0
  190.3400  171.8010  142.2270 O   0  0  0  0  0  0  0  0  0  0  0  0
  191.5480  171.6380  142.9300 C   0  0  0  0  0  2  0  0  0  0  0  0
  192.0580  172.9650  143.4760 C   0  0  2  0  0  3  0  0  0  0  0  0
  193.1330  172.7990  144.5360 C   0  0  0  0  0  0  0  0  0  0  0  0
  193.9290  171.7340  144.5250 C   0  0  0  0  0  2  0  0  0  0  0  0
  193.3040  173.7090  145.5940 O   0  0  0  0  0  0  0  0  0  0  0  0
  195.2980  173.8400  146.7680 F   0  0  0  0  0  0  0  0  0  0  0  0
  194.4880  174.4760  145.8400 C   0  0  0  0  0  0  0  0  0  0  0  0
  195.1720  174.5950  144.6440 F   0  0  0  0  0  0  0  0  0  0  0  0
  194.1720  175.7510  146.2660 F   0  0  0  0  0  0  0  0  0  0  0  0
  190.9590  173.7250  143.9230 O   0  0  0  0  0  0  0  0  0  0  0  0
  191.4120  175.3800  143.7470 S   0  0  0  0  0  0  0  0  0  0  0  0
  190.0310  175.7650  142.6180 C   0  0  0  0  0  2  0  0  0  0  0  0
  189.7560  177.2580  142.5950 C   0  0  0  0  0  2  0  0  0  0  0  0
  190.4060  177.9700  143.7820 C   0  0  0  0  0  2  0  0  0  0  0  0
  189.4750  178.0910  144.9980 C   0  0  0  0  0  2  0  0  0  0  0  0
  188.2430  177.2090  144.8400 C   0  0  1  0  0  3  0  0  0  0  0  0
  188.0800  175.5980  146.6110 O   0  0  0  0  0  1  0  0  0  0  0  0
  187.6470  176.8680  146.2160 C   0  0  2  0  0  3  0  0  0  0  0  0
  186.2400  176.8950  146.1660 O   0  0  0  0  0  0  0  0  0  0  0  0
  184.5800  178.5860  146.0550 C   0  0  0  0  0  2  0  0  0  0  0  0
  184.5670  178.0040  147.4430 C   0  0  0  0  0  2  0  0  0  0  0  0
  185.8740  178.1390  146.6930 C   0  0  0  0  0  3  0  0  0  0  0  0
  187.2270  177.8730  143.9090 C   0  0  0  0  0  2  0  0  0  0  0  0
  186.9070  176.9500  142.7460 C   0  0  0  0  0  2  0  0  0  0  0  0
  186.9260  177.6680  141.5480 O   0  0  0  0  0  1  0  0  0  0  0  0
  189.3850  171.4020  137.4550 C   0  0  0  0  0  2  0  0  0  0  0  0
  190.6110  170.7400  136.7840 C   0  0  2  0  0  3  0  0  0  0  0  0
  190.5160  169.3420  136.8060 O   0  0  0  0  0  1  0  0  0  0  0  0
  191.9140  171.1720  137.4850 C   0  0  0  0  0  2  0  0  0  0  0  0
  192.8100  172.0450  136.6040 C   0  0  0  0  0  2  0  0  0  0  0  0
  193.3370  171.2430  135.4220 C   0  0  0  0  0  2  0  0  0  0  0  0
  194.3670  171.9990  134.5820 C   0  0  1  0  0  3  0  0  0  0  0  0
  194.2020  173.5060  134.6160 C   0  0  0  0  0  2  0  0  0  0  0  0
  195.4790  174.1040  134.6190 O   0  0  0  0  0  0  0  0  0  0  0  0
  196.4280  173.0570  134.7180 C   0  0  0  0  0  2  0  0  0  0  0  0
  195.7090  171.8290  135.2110 C   0  0  2  0  0  3  0  0  0  0  0  0
  196.3120  170.6410  134.7670 O   0  0  0  0  0  0  0  0  0  0  0  0
  196.5120  169.7310  135.8420 C   0  0  1  0  0  3  0  0  0  0  0  0
  197.8180  169.2060  135.9470 O   0  0  0  0  0  1  0  0  0  0  0  0
  196.1180  170.3040  137.0710 O   0  0  0  0  0  0  0  0  0  0  0  0
  196.4210  169.4000  138.1020 C   0  0  0  0  0  2  0  0  0  0  0  0
  195.1730  168.7280  138.5580 C   0  0  0  0  0  0  0  0  0  0  0  0
  194.3340  168.3910  137.7340 O   0  0  0  0  0  0  0  0  0  0  0  0
  194.9180  168.4790  140.0100 C   0  0  0  0  0  2  0  0  0  0  0  0
  196.2480  168.3630  140.7540 C   0  0  0  0  0  2  0  0  0  0  0  0
  196.9410  169.5810  140.6480 O   0  0  0  0  0  0  0  0  0  0  0  0
  196.0050  170.5810  142.5520 O   0  0  0  0  0  1  0  0  0  0  0  0
  196.1260  170.6130  141.1470 C   0  0  1  0  0  3  0  0  0  0  0  0
  196.4600  172.0060  140.5990 C   0  0  0  0  0  2  0  0  0  0  0  0
  197.6690  172.0160  139.6740 C   0  0  0  0  0  2  0  0  0  0  0  0
  197.5520  173.1370  138.6490 C   0  0  0  0  0  2  0  0  0  0  0  0
  196.5370  174.1050  139.0460 N   0  0  0  0  0  2  0  0  0  0  0  0
  197.1780  175.1570  139.8300 C   0  0  1  0  0  3  0  0  0  0  0  0
  197.5750  176.1800  138.9600 O   0  0  0  0  0  1  0  0  0  0  0  0
  196.2200  175.7110  140.9000 C   0  0  0  0  0  2  0  0  0  0  0  0
  196.6220  175.2570  142.2980 C   0  0  0  0  0  3  0  0  0  0  0  0
  196.6300  173.8770  142.3620 F   0  0  0  0  0  0  0  0  0  0  0  0
  197.8580  175.7630  142.6410 F   0  0  0  0  0  0  0  0  0  0  0  0
  191.4820  172.1920  139.1890 O   0  0  0  0  0  0  0  0  0  0  0  0
  193.1110  173.5650  140.3410 O   0  0  0  0  0  1  0  0  0  0  0  0
  191.6690  174.4530  138.8060 O   0  0  0  0  0  0  0  0  0  0  0  0
  192.0780  173.4340  139.4210 C   0  0  0  0  0  0  0  0  0  0  0  0
  1  5  1  1  0  0  0
  2  4  1  1  0  0  0
  2  1  1  0  0  0  0
  3 32  1  6  0  0  0
  3  4  1  0  0  0  0
  3  2  1  0  0  0  0
  3  1  1  0  0  0  0
  5  6  1  0  0  0  0
  6  7  1  0  0  0  0
  8  7  1  1  0  0  0
  8 16  1  0  0  0  0
  8  9  1  0  0  0  0
  9 11  1  0  0  0  0
 10  9  2  0  0  0  0
 11 13  1  0  0  0  0
 13 15  1  0  0  0  0
 13 12  1  0  0  0  0
 14 13  1  0  0  0  0
 17 16  1  0  0  0  0
 18 17  1  0  0  0  0
 19 18  1  0  0  0  0
 19 20  1  0  0  0  0
 20 21  1  0  0  0  0
 22 29  1  6  0  0  0
 22 21  1  0  0  0  0
 22 24  1  0  0  0  0
 24 23  1  6  0  0  0
 25 24  1  0  0  0  0
 25 28  1  0  0  0  0
 26 28  1  0  0  0  0
 26 27  1  0  0  0  0
 28 27  1  0  0  0  0
 30 29  1  0  0  0  0
 31 30  1  0  0  0  0
 33 34  1  1  0  0  0
 33 32  1  0  0  0  0
 33 35  1  0  0  0  0
 36 35  1  0  0  0  0
 37 36  1  0  0  0  0
 38 39  1  0  0  0  0
 38 42  1  0  0  0  0
 38 37  1  1  0  0  0
 39 40  1  0  0  0  0
 40 41  1  0  0  0  0
 41 42  1  0  0  0  0
 42 43  1  6  0  0  0
 43 44  1  0  0  0  0
 44 45  1  1  0  0  0
 44 46  1  0  0  0  0
 46 47  1  0  0  0  0
 47 48  1  0  0  0  0
 48 50  1  0  0  0  0
 49 48  2  0  0  0  0
 50 51  1  0  0  0  0
 52 51  1  0  0  0  0
 52 54  1  0  0  0  0
 54 53  1  1  0  0  0
 55 54  1  0  0  0  0
 56 55  1  0  0  0  0
 57 58  1  0  0  0  0
 57 56  1  0  0  0  0
 58 59  1  0  0  0  0
 59 60  1  6  0  0  0
 59 61  1  0  0  0  0
 61 62  1  0  0  0  0
 62 63  1  0  0  0  0
 62 64  1  0  0  0  0
 65 68  1  0  0  0  0
 65  1  1  0  0  0  0
 67 68  2  0  0  0  0
 68 66  1  0  0  0  0
M  END
>  <MODEL>
8

>  <REMARK>
 VINA RESULT:      -2.0      3.567     10.257
  Name = 
  43 active torsions:
  status: ('A' for Active; 'I' for Inactive)
    1  A    between atoms: C_1  and  C_8
    2  A    between atoms: C_1  and  C_15
    3  A    between atoms: C_2  and  O_6
    4  A    between atoms: C_2  and  C_56
    5  A    between atoms: C_3  and  C_22
    6  A    between atoms: C_3  and  N_55
    7  A    between atoms: C_4  and  C_20
    8  A    between atoms: C_4  and  C_37
    9  A    between atoms: C_5  and  C_12
   10  A    between atoms: C_5  and  C_18
   11  A    between atoms: O_6  and  C_51
   12  A    between atoms: C_7  and  C_54
   13  A    between atoms: C_8  and  O_57
   14  A    between atoms: C_9  and  C_15
   15  A    between atoms: C_9  and  O_49
   16  A    between atoms: C_10  and  C_31
   17  A    between atoms: C_10  and  C_58
   18  A    between atoms: O_11  and  C_30
   19  A    between atoms: O_11  and  C_41
   20  A    between atoms: C_12  and  C_46
   21  A    between atoms: C_13  and  C_52
   22  A    between atoms: C_18  and  S_36
   23  A    between atoms: C_20  and  C_64
   24  A    between atoms: C_22  and  C_23
   25  A    between atoms: C_25  and  C_37
   26  A    between atoms: C_25  and  C_52
   27  A    between atoms: C_29  and  O_59
   28  A    between atoms: C_30  and  O_49
   29  A    between atoms: C_31  and  C_53
   30  A    between atoms: O_32  and  C_56
   31  A    between atoms: O_32  and  C_65
   32  A    between atoms: O_35  and  C_43
   33  A    between atoms: O_35  and  C_63
   34  A    between atoms: S_36  and  O_42
   35  A    between atoms: O_42  and  C_47
   36  A    between atoms: C_43  and  C_48
   37  A    between atoms: C_45  and  C_47
   38  A    between atoms: C_45  and  O_59
   39  A    between atoms: C_46  and  C_48
   40  A    between atoms: C_47  and  C_65
   41  A    between atoms: C_48  and  C_54
   42  A    between atoms: C_53  and  N_55
   43  A    between atoms: O_57  and  C_58
                            x       y       z     vdW  Elec       q    Type
                         _______ _______ _______ _____ _____    ______ ____

>  <TORSDO>
F 43

$$$$
=
 OpenBabel11062421053D

 68 71  0  0  1  0  0  0  0  0999 V2000
  191.7170  173.5550  141.8640 C   0  0  2  0  0  0  0  0  0  0  0  0
  192.7700  172.5240  142.1690 C   0  0  1  0  0  3  0  0  0  0  0  0
  192.3980  172.7750  140.7450 C   0  0  2  0  0  0  0  0  0  0  0  0
  193.7170  172.4660  141.1310 O   0  0  0  0  0  0  0  0  0  0  0  0
  192.0520  175.0320  141.7690 C   0  0  0  0  0  2  0  0  0  0  0  0
  191.5330  175.6860  142.8890 O   0  0  0  0  0  0  0  0  0  0  0  0
  192.0740  176.9850  142.8500 C   0  0  0  0  0  2  0  0  0  0  0  0
  191.7670  177.7560  144.1260 C   0  0  2  0  0  3  0  0  0  0  0  0
  191.7840  176.8820  145.3680 C   0  0  0  0  0  0  0  0  0  0  0  0
  190.6790  176.7230  146.0920 C   0  0  0  0  0  2  0  0  0  0  0  0
  192.9500  176.2560  145.8420 O   0  0  0  0  0  0  0  0  0  0  0  0
  195.0130  176.0630  146.8790 F   0  0  0  0  0  0  0  0  0  0  0  0
  193.8460  176.8070  146.8130 C   0  0  0  0  0  0  0  0  0  0  0  0
  194.1500  178.0990  146.4250 F   0  0  0  0  0  0  0  0  0  0  0  0
  193.2460  176.8780  148.0550 F   0  0  0  0  0  0  0  0  0  0  0  0
  190.5500  178.4460  143.9580 O   0  0  0  0  0  0  0  0  0  0  0  0
  189.3880  177.2700  143.4670 S   0  0  0  0  0  0  0  0  0  0  0  0
  189.0630  178.0810  141.8650 C   0  0  0  0  0  2  0  0  0  0  0  0
  188.2110  177.1930  140.9770 C   0  0  0  0  0  2  0  0  0  0  0  0
  187.7210  175.9510  141.7230 C   0  0  0  0  0  2  0  0  0  0  0  0
  186.2950  176.0990  142.2740 C   0  0  0  0  0  2  0  0  0  0  0  0
  185.7720  177.5160  142.0790 C   0  0  1  0  0  3  0  0  0  0  0  0
  185.3770  178.1340  139.7940 O   0  0  0  0  0  1  0  0  0  0  0  0
  184.7670  177.5630  140.9160 C   0  0  2  0  0  3  0  0  0  0  0  0
  183.6310  178.3150  141.2740 O   0  0  0  0  0  0  0  0  0  0  0  0
  181.3880  177.7570  140.7410 C   0  0  0  0  0  2  0  0  0  0  0  0
  181.6260  179.1870  140.3350 C   0  0  0  0  0  2  0  0  0  0  0  0
  182.7390  178.1680  140.2050 C   0  0  0  0  0  3  0  0  0  0  0  0
  185.1830  178.0520  143.3860 C   0  0  0  0  0  2  0  0  0  0  0  0
  185.9290  177.4640  144.5710 C   0  0  0  0  0  2  0  0  0  0  0  0
  185.1130  177.4840  145.7050 O   0  0  0  0  0  1  0  0  0  0  0  0
  191.6860  171.5150  140.2610 C   0  0  0  0  0  2  0  0  0  0  0  0
  191.7030  171.2270  138.7410 C   0  0  2  0  0  3  0  0  0  0  0  0
  190.6520  171.8800  138.0840 O   0  0  0  0  0  1  0  0  0  0  0  0
  191.6070  169.7110  138.4740 C   0  0  0  0  0  2  0  0  0  0  0  0
  192.0130  169.3250  137.0500 C   0  0  0  0  0  2  0  0  0  0  0  0
  193.1090  170.2510  136.5400 C   0  0  0  0  0  2  0  0  0  0  0  0
  194.3220  170.3300  137.4680 C   0  0  1  0  0  3  0  0  0  0  0  0
  195.2840  169.1670  137.3220 C   0  0  0  0  0  2  0  0  0  0  0  0
  196.6030  169.6480  137.4590 O   0  0  0  0  0  0  0  0  0  0  0  0
  196.5230  171.0590  137.5540 C   0  0  0  0  0  2  0  0  0  0  0  0
  195.1710  171.4800  137.0400 C   0  0  2  0  0  3  0  0  0  0  0  0
  194.7200  172.6700  137.6330 O   0  0  0  0  0  0  0  0  0  0  0  0
  194.5250  173.6890  136.6600 C   0  0  1  0  0  3  0  0  0  0  0  0
  193.4860  174.6000  136.9460 O   0  0  0  0  0  1  0  0  0  0  0  0
  195.7270  174.3860  136.4090 O   0  0  0  0  0  0  0  0  0  0  0  0
  195.9450  175.2930  137.4590 C   0  0  0  0  0  2  0  0  0  0  0  0
  195.7250  174.6080  138.7630 C   0  0  0  0  0  0  0  0  0  0  0  0
  194.5980  174.5620  139.2370 O   0  0  0  0  0  0  0  0  0  0  0  0
  196.8630  173.9940  139.5130 C   0  0  0  0  0  2  0  0  0  0  0  0
  196.3540  172.8260  140.3580 C   0  0  0  0  0  2  0  0  0  0  0  0
  197.1790  172.6810  141.4860 O   0  0  0  0  0  0  0  0  0  0  0  0
  197.4740  174.9870  141.1700 O   0  0  0  0  0  1  0  0  0  0  0  0
  197.3320  173.9370  142.1020 C   0  0  1  0  0  3  0  0  0  0  0  0
  196.3020  174.2340  143.1980 C   0  0  0  0  0  2  0  0  0  0  0  0
  196.8750  174.1380  144.6060 C   0  0  0  0  0  2  0  0  0  0  0  0
  196.2280  172.9910  145.3710 C   0  0  0  0  0  2  0  0  0  0  0  0
  196.5720  171.7040  144.7760 N   0  0  0  0  0  2  0  0  0  0  0  0
  196.3410  170.6560  145.7680 C   0  0  1  0  0  3  0  0  0  0  0  0
  197.0050  171.0100  146.9490 O   0  0  0  0  0  1  0  0  0  0  0  0
  194.8370  170.4730  146.0370 C   0  0  0  0  0  2  0  0  0  0  0  0
  194.1870  169.5810  144.9850 C   0  0  0  0  0  3  0  0  0  0  0  0
  192.9870  170.1310  144.5780 F   0  0  0  0  0  0  0  0  0  0  0  0
  195.0270  169.4030  143.9070 F   0  0  0  0  0  0  0  0  0  0  0  0
  190.3750  173.1740  142.1470 O   0  0  0  0  0  0  0  0  0  0  0  0
  189.7790  173.4760  144.4760 O   0  0  0  0  0  1  0  0  0  0  0  0
  189.8210  171.4050  143.5090 O   0  0  0  0  0  0  0  0  0  0  0  0
  189.9800  172.6460  143.3790 C   0  0  0  0  0  0  0  0  0  0  0  0
  1  5  1  1  0  0  0
  1 65  1  0  0  0  0
  1  2  1  0  0  0  0
  2  4  1  6  0  0  0
  3 32  1  6  0  0  0
  3  4  1  0  0  0  0
  3  1  1  0  0  0  0
  3  2  1  0  0  0  0
  5  6  1  0  0  0  0
  7  6  1  0  0  0  0
  8  7  1  6  0  0  0
  8  9  1  0  0  0  0
  9 11  1  0  0  0  0
  9 10  2  0  0  0  0
 11 13  1  0  0  0  0
 13 12  1  0  0  0  0
 13 15  1  0  0  0  0
 14 13  1  0  0  0  0
 16  8  1  0  0  0  0
 17 16  1  0  0  0  0
 18 17  1  0  0  0  0
 19 20  1  0  0  0  0
 19 18  1  0  0  0  0
 20 21  1  0  0  0  0
 22 21  1  1  0  0  0
 22 29  1  0  0  0  0
 24 23  1  6  0  0  0
 24 25  1  0  0  0  0
 24 22  1  0  0  0  0
 27 26  1  0  0  0  0
 28 27  1  0  0  0  0
 28 26  1  0  0  0  0
 28 25  1  0  0  0  0
 29 30  1  0  0  0  0
 30 31  1  0  0  0  0
 33 34  1  6  0  0  0
 33 32  1  0  0  0  0
 35 33  1  0  0  0  0
 36 35  1  0  0  0  0
 37 36  1  0  0  0  0
 38 37  1  6  0  0  0
 39 40  1  0  0  0  0
 39 38  1  0  0  0  0
 40 41  1  0  0  0  0
 42 38  1  0  0  0  0
 42 41  1  0  0  0  0
 42 43  1  1  0  0  0
 44 45  1  1  0  0  0
 44 43  1  0  0  0  0
 46 44  1  0  0  0  0
 46 47  1  0  0  0  0
 47 48  1  0  0  0  0
 48 49  2  0  0  0  0
 48 50  1  0  0  0  0
 50 51  1  0  0  0  0
 51 52  1  0  0  0  0
 52 54  1  0  0  0  0
 54 53  1  6  0  0  0
 54 55  1  0  0  0  0
 55 56  1  0  0  0  0
 56 57  1  0  0  0  0
 58 57  1  0  0  0  0
 58 59  1  0  0  0  0
 59 61  1  0  0  0  0
 59 60  1  1  0  0  0
 62 61  1  0  0  0  0
 63 62  1  0  0  0  0
 64 62  1  0  0  0  0
 65 68  1  0  0  0  0
 68 67  2  0  0  0  0
 68 66  1  0  0  0  0
M  END
>  <MODEL>
9

>  <REMARK>
 VINA RESULT:      -1.9      3.495     10.207
  Name = 
  43 active torsions:
  status: ('A' for Active; 'I' for Inactive)
    1  A    between atoms: C_1  and  C_8
    2  A    between atoms: C_1  and  C_15
    3  A    between atoms: C_2  and  O_6
    4  A    between atoms: C_2  and  C_56
    5  A    between atoms: C_3  and  C_22
    6  A    between atoms: C_3  and  N_55
    7  A    between atoms: C_4  and  C_20
    8  A    between atoms: C_4  and  C_37
    9  A    between atoms: C_5  and  C_12
   10  A    between atoms: C_5  and  C_18
   11  A    between atoms: O_6  and  C_51
   12  A    between atoms: C_7  and  C_54
   13  A    between atoms: C_8  and  O_57
   14  A    between atoms: C_9  and  C_15
   15  A    between atoms: C_9  and  O_49
   16  A    between atoms: C_10  and  C_31
   17  A    between atoms: C_10  and  C_58
   18  A    between atoms: O_11  and  C_30
   19  A    between atoms: O_11  and  C_41
   20  A    between atoms: C_12  and  C_46
   21  A    between atoms: C_13  and  C_52
   22  A    between atoms: C_18  and  S_36
   23  A    between atoms: C_20  and  C_64
   24  A    between atoms: C_22  and  C_23
   25  A    between atoms: C_25  and  C_37
   26  A    between atoms: C_25  and  C_52
   27  A    between atoms: C_29  and  O_59
   28  A    between atoms: C_30  and  O_49
   29  A    between atoms: C_31  and  C_53
   30  A    between atoms: O_32  and  C_56
   31  A    between atoms: O_32  and  C_65
   32  A    between atoms: O_35  and  C_43
   33  A    between atoms: O_35  and  C_63
   34  A    between atoms: S_36  and  O_42
   35  A    between atoms: O_42  and  C_47
   36  A    between atoms: C_43  and  C_48
   37  A    between atoms: C_45  and  C_47
   38  A    between atoms: C_45  and  O_59
   39  A    between atoms: C_46  and  C_48
   40  A    between atoms: C_47  and  C_65
   41  A    between atoms: C_48  and  C_54
   42  A    between atoms: C_53  and  N_55
   43  A    between atoms: O_57  and  C_58
                            x       y       z     vdW  Elec       q    Type
                         _______ _______ _______ _____ _____    ______ ____

>  <TORSDO>
F 43

$$$$
