=
 OpenBabel11072408593D

 45 50  0  0  1  0  0  0  0  0999 V2000
  191.1310  175.6480  145.0990 C   0  0  0  0  0  2  0  0  0  0  0  0
  189.0520  175.6840  142.9500 C   0  0  2  0  0  3  0  0  0  0  0  0
  190.1480  170.9660  142.0330 O   0  0  0  0  0  0  0  0  0  0  0  0
  191.6230  172.7510  142.7710 C   0  0  1  0  0  3  0  0  0  0  0  0
  192.7830  173.2480  143.6590 C   0  0  2  0  0  0  0  0  0  0  0  0
  189.2660  172.4150  142.0270 P   0  0  1  0  0  0  0  0  0  0  0  0
  189.3430  177.7900  144.3410 C   0  0  0  0  0  2  0  0  0  0  0  0
  189.1600  173.0050  140.4450 O   0  0  0  0  0  0  0  0  0  0  0  0
  191.2460  177.0930  145.5870 C   0  0  0  0  0  2  0  0  0  0  0  0
  188.0940  175.3670  141.8160 C   0  0  0  0  0  2  0  0  0  0  0  0
  187.8950  172.2200  142.6320 O   0  0  0  0  0  1  0  0  0  0  0  0
  188.4200  178.6750  141.0500 C   0  0  0  0  0  1  0  0  0  0  0  0
  189.1800  177.2120  142.9320 C   0  0  2  0  0  3  0  0  0  0  0  0
  191.5310  175.5270  143.6290 C   0  0  1  0  0  3  0  0  0  0  0  0
  192.5370  172.8960  145.1280 C   0  0  0  0  0  1  0  0  0  0  0  0
  187.9620  177.7640  142.1720 C   0  0  1  0  0  0  0  0  0  0  0  0
  192.8670  174.7810  143.4820 C   0  0  0  0  0  2  0  0  0  0  0  0
  186.9360  178.4680  143.0250 C   0  0  0  0  0  2  0  0  0  0  0  0
  185.6640  177.6920  142.7770 C   0  0  1  0  0  3  0  0  0  0  0  0
  190.7500  178.0530  144.6020 N   0  0  0  0  0  2  0  0  0  0  0  0
  191.3190  171.2460  142.7760 C   0  0  0  0  0  2  0  0  0  0  0  0
  186.0130  176.4130  142.3220 O   0  0  0  0  0  0  0  0  0  0  0  0
  190.4010  174.9340  142.7510 C   0  0  1  0  0  3  0  0  0  0  0  0
  187.2120  176.5790  141.6090 C   0  0  2  0  0  3  0  0  0  0  0  0
  190.3110  173.4280  143.0670 C   0  0  2  0  0  3  0  0  0  0  0  0
  194.1250  172.6390  143.1830 C   0  0  1  0  0  3  0  0  0  0  0  0
  195.0080  173.6540  142.4610 C   0  0  0  0  0  1  0  0  0  0  0  0
  194.8760  172.0520  144.2880 N   0  0  0  0  0  2  0  0  0  0  0  0
  195.6870  170.1490  145.6280 N   0  0  0  0  0  2  0  0  0  0  0  0
  194.2780  169.8510  143.7890 O   0  0  0  0  0  0  0  0  0  0  0  0
  194.9170  170.6460  144.5320 C   0  0  0  0  0  0  0  0  0  0  0  0
  195.7530  168.7330  145.9670 C   0  0  2  0  0  3  0  0  0  0  0  0
  194.6700  168.3720  146.9720 C   0  0  0  0  0  1  0  0  0  0  0  0
  197.1900  168.3690  148.0220 C   0  0  0  0  0  1  0  0  0  0  0  0
  197.1370  168.3730  146.5000 C   0  0  0  0  0  2  0  0  0  0  0  0
  184.8990  177.5800  144.0100 N   0  0  0  0  0  2  0  0  0  0  0  0
  186.3110  179.1320  147.2420 C   0  0  2  0  0  3  0  0  0  0  0  0
  185.3660  179.0380  146.0470 C   0  0  0  0  0  2  0  0  0  0  0  0
  186.2060  177.8640  148.0780 C   0  0  0  0  0  2  0  0  0  0  0  0
  185.4770  177.7230  145.3090 C   0  0  0  0  0  0  0  0  0  0  0  0
  186.6570  176.6610  147.2480 C   0  0  1  0  0  3  0  0  0  0  0  0
  186.0010  176.6390  145.8920 C   0  0  0  0  0  3  0  0  0  0  0  0
  185.9730  180.2280  148.0130 F   0  0  0  0  0  0  0  0  0  0  0  0
  188.4470  175.3580  147.2610 C   0  0  0  0  0  1  0  0  0  0  0  0
  188.0460  176.6840  147.0960 O   0  0  0  0  0  0  0  0  0  0  0  0
  1  9  1  0  0  0  0
  2 10  1  6  0  0  0
  3 21  1  0  0  0  0
  4 21  1  1  0  0  0
  4 25  1  0  0  0  0
  4  5  1  0  0  0  0
  5 15  1  1  0  0  0
  6  8  2  6  0  0  0
  6  3  1  0  0  0  0
  6 11  1  0  0  0  0
  6 25  1  0  0  0  0
  7 20  1  0  0  0  0
 13  2  1  0  0  0  0
 13  7  1  1  0  0  0
 14 17  1  1  0  0  0
 14  1  1  0  0  0  0
 16 12  1  6  0  0  0
 16 13  1  0  0  0  0
 16 18  1  0  0  0  0
 17  5  1  0  0  0  0
 19 18  1  0  0  0  0
 19 36  1  1  0  0  0
 20  9  1  0  0  0  0
 22 19  1  0  0  0  0
 23  2  1  0  0  0  0
 23 25  1  0  0  0  0
 23 14  1  0  0  0  0
 24 10  1  0  0  0  0
 24 16  1  0  0  0  0
 24 22  1  0  0  0  0
 26  5  1  0  0  0  0
 26 28  1  0  0  0  0
 27 26  1  0  0  0  0
 28 31  1  0  0  0  0
 29 32  1  0  0  0  0
 30 31  2  0  0  0  0
 31 29  1  0  0  0  0
 32 35  1  0  0  0  0
 32 33  1  0  0  0  0
 35 34  1  0  0  0  0
 36 40  1  0  0  0  0
 37 43  1  0  0  0  0
 37 39  1  0  0  0  0
 38 37  1  0  0  0  0
 40 42  2  0  0  0  0
 40 38  1  0  0  0  0
 41 39  1  0  0  0  0
 42 41  1  0  0  0  0
 45 41  1  0  0  0  0
 45 44  1  0  0  0  0
M  END
>  <MODEL>
1

>  <REMARK>
 VINA RESULT:      -8.3      0.000      0.000
  Name = 
  7 active torsions:
  status: ('A' for Active; 'I' for Inactive)
    1  A    between atoms: N_1  and  C_11
    2  A    between atoms: N_6  and  C_19
    3  A    between atoms: N_6  and  C_33
    4  A    between atoms: C_9  and  C_11
    5  A    between atoms: C_18  and  N_22
    6  A    between atoms: C_18  and  C_27
    7  A    between atoms: O_36  and  C_38
                            x       y       z     vdW  Elec       q    Type
                         _______ _______ _______ _____ _____    ______ ____

>  <TORSDO>
F 7

$$$$
=
 OpenBabel11072408593D

 45 50  0  0  1  0  0  0  0  0999 V2000
  193.1840  176.6820  144.8470 C   0  0  0  0  0  2  0  0  0  0  0  0
  193.6180  173.8860  143.8800 C   0  0  2  0  0  3  0  0  0  0  0  0
  189.5180  174.3530  141.1830 O   0  0  0  0  0  0  0  0  0  0  0  0
  190.0260  175.3230  143.3530 C   0  0  1  0  0  3  0  0  0  0  0  0
  189.9800  176.5160  144.3290 C   0  0  2  0  0  0  0  0  0  0  0  0
  191.0030  173.7230  141.7070 P   0  0  1  0  0  0  0  0  0  0  0  0
  195.3690  174.8810  145.4290 C   0  0  0  0  0  2  0  0  0  0  0  0
  190.7690  172.1690  142.3320 O   0  0  0  0  0  1  0  0  0  0  0  0
  194.2400  176.9140  145.9280 C   0  0  0  0  0  2  0  0  0  0  0  0
  193.5440  172.5270  143.2070 C   0  0  0  0  0  2  0  0  0  0  0  0
  192.0170  173.7150  140.5860 O   0  0  0  0  0  0  0  0  0  0  0  0
  195.1130  171.4090  146.0220 C   0  0  0  0  0  1  0  0  0  0  0  0
  194.5010  173.6580  145.1120 C   0  0  2  0  0  3  0  0  0  0  0  0
  192.2210  175.5650  145.2440 C   0  0  1  0  0  3  0  0  0  0  0  0
  190.5430  177.7800  143.6750 C   0  0  0  0  0  1  0  0  0  0  0  0
  195.3080  172.3720  144.8670 C   0  0  1  0  0  0  0  0  0  0  0  0
  190.8260  176.1280  145.5630 C   0  0  0  0  0  2  0  0  0  0  0  0
  196.7790  172.5750  144.6030 C   0  0  0  0  0  2  0  0  0  0  0  0
  196.9930  171.9510  143.2440 C   0  0  1  0  0  3  0  0  0  0  0  0
  194.7470  175.6620  146.4870 N   0  0  0  0  0  2  0  0  0  0  0  0
  189.2650  175.4600  142.0270 C   0  0  0  0  0  2  0  0  0  0  0  0
  195.7600  171.9170  142.5790 O   0  0  0  0  0  0  0  0  0  0  0  0
  192.1910  174.4090  144.2130 C   0  0  1  0  0  3  0  0  0  0  0  0
  194.7920  171.7600  143.5840 C   0  0  2  0  0  3  0  0  0  0  0  0
  191.4240  174.9140  142.9740 C   0  0  2  0  0  3  0  0  0  0  0  0
  188.5270  176.7660  144.8070 C   0  0  1  0  0  3  0  0  0  0  0  0
  188.4640  177.3190  146.2280 C   0  0  0  0  0  1  0  0  0  0  0  0
  187.8090  177.6660  143.9110 N   0  0  0  0  0  2  0  0  0  0  0  0
  185.9440  178.2400  142.4050 N   0  0  0  0  0  2  0  0  0  0  0  0
  186.1020  176.1480  143.4310 O   0  0  0  0  0  0  0  0  0  0  0  0
  186.5950  177.2960  143.2580 C   0  0  0  0  0  0  0  0  0  0  0  0
  184.7210  177.9310  141.6750 C   0  0  2  0  0  3  0  0  0  0  0  0
  184.7530  178.5570  140.2890 C   0  0  0  0  0  1  0  0  0  0  0  0
  182.2120  178.2820  141.6490 C   0  0  0  0  0  1  0  0  0  0  0  0
  183.4970  178.3960  142.4580 C   0  0  0  0  0  2  0  0  0  0  0  0
  197.9410  172.7440  142.4750 N   0  0  0  0  0  2  0  0  0  0  0  0
  196.3070  175.8750  140.9330 C   0  0  2  0  0  3  0  0  0  0  0  0
  196.9860  175.0650  142.0350 C   0  0  0  0  0  2  0  0  0  0  0  0
  197.2110  175.9310  139.7100 C   0  0  0  0  0  2  0  0  0  0  0  0
  197.5470  173.7510  141.5410 C   0  0  0  0  0  0  0  0  0  0  0  0
  197.4210  174.5200  139.1580 C   0  0  1  0  0  3  0  0  0  0  0  0
  197.8030  173.5460  140.2430 C   0  0  0  0  0  3  0  0  0  0  0  0
  196.0590  177.1560  141.3880 F   0  0  0  0  0  0  0  0  0  0  0  0
  196.5910  173.9950  137.1740 C   0  0  0  0  0  1  0  0  0  0  0  0
  196.2540  174.0810  138.5250 O   0  0  0  0  0  0  0  0  0  0  0  0
  1  9  1  0  0  0  0
  2 10  1  1  0  0  0
  2 23  1  0  0  0  0
  2 13  1  0  0  0  0
  3  6  1  0  0  0  0
  3 21  1  0  0  0  0
  4 21  1  6  0  0  0
  4  5  1  0  0  0  0
  5 15  1  6  0  0  0
  5 26  1  0  0  0  0
  5 17  1  0  0  0  0
  6 11  2  6  0  0  0
  6  8  1  0  0  0  0
  6 25  1  0  0  0  0
  7 20  1  0  0  0  0
  9 20  1  0  0  0  0
 10 24  1  0  0  0  0
 13  7  1  6  0  0  0
 14  1  1  6  0  0  0
 14 17  1  0  0  0  0
 16 13  1  0  0  0  0
 16 12  1  1  0  0  0
 18 16  1  0  0  0  0
 19 36  1  6  0  0  0
 19 18  1  0  0  0  0
 22 19  1  0  0  0  0
 22 24  1  0  0  0  0
 23 14  1  0  0  0  0
 24 16  1  0  0  0  0
 25  4  1  0  0  0  0
 25 23  1  0  0  0  0
 26 27  1  0  0  0  0
 28 26  1  0  0  0  0
 29 31  1  0  0  0  0
 31 30  2  0  0  0  0
 31 28  1  0  0  0  0
 32 29  1  0  0  0  0
 32 35  1  0  0  0  0
 33 32  1  0  0  0  0
 34 35  1  0  0  0  0
 37 43  1  0  0  0  0
 37 38  1  0  0  0  0
 39 37  1  0  0  0  0
 40 38  1  0  0  0  0
 40 36  1  0  0  0  0
 41 39  1  0  0  0  0
 41 42  1  0  0  0  0
 42 40  2  0  0  0  0
 44 45  1  0  0  0  0
 45 41  1  0  0  0  0
M  END
>  <MODEL>
2

>  <REMARK>
 VINA RESULT:      -7.9      3.244     10.013
  Name = 
  7 active torsions:
  status: ('A' for Active; 'I' for Inactive)
    1  A    between atoms: N_1  and  C_11
    2  A    between atoms: N_6  and  C_19
    3  A    between atoms: N_6  and  C_33
    4  A    between atoms: C_9  and  C_11
    5  A    between atoms: C_18  and  N_22
    6  A    between atoms: C_18  and  C_27
    7  A    between atoms: O_36  and  C_38
                            x       y       z     vdW  Elec       q    Type
                         _______ _______ _______ _____ _____    ______ ____

>  <TORSDO>
F 7

$$$$
=
 OpenBabel11072408593D

 45 50  0  0  1  0  0  0  0  0999 V2000
  193.3450  175.8240  144.9940 C   0  0  0  0  0  2  0  0  0  0  0  0
  193.8910  173.0520  144.0140 C   0  0  2  0  0  3  0  0  0  0  0  0
  189.3030  172.9580  142.2130 O   0  0  0  0  0  0  0  0  0  0  0  0
  190.1270  174.0700  144.2120 C   0  0  1  0  0  3  0  0  0  0  0  0
  190.1430  175.2920  145.1530 C   0  0  2  0  0  0  0  0  0  0  0  0
  190.9260  172.5150  142.4320 P   0  0  1  0  0  0  0  0  0  0  0  0
  195.7950  174.2960  145.1480 C   0  0  0  0  0  2  0  0  0  0  0  0
  191.0020  170.9730  143.1220 O   0  0  0  0  0  1  0  0  0  0  0  0
  194.5650  176.2140  145.8290 C   0  0  0  0  0  2  0  0  0  0  0  0
  193.8380  171.6660  143.3980 C   0  0  0  0  0  2  0  0  0  0  0  0
  191.6850  172.5690  141.1260 O   0  0  0  0  0  0  0  0  0  0  0  0
  196.0630  170.8450  145.8500 C   0  0  0  0  0  1  0  0  0  0  0  0
  195.0260  172.9740  145.0420 C   0  0  2  0  0  3  0  0  0  0  0  0
  192.6170  174.6280  145.6040 C   0  0  1  0  0  3  0  0  0  0  0  0
  190.4140  176.5800  144.3720 C   0  0  0  0  0  1  0  0  0  0  0  0
  195.9080  171.7730  144.6600 C   0  0  1  0  0  0  0  0  0  0  0  0
  191.2610  175.0500  146.1920 C   0  0  0  0  0  2  0  0  0  0  0  0
  197.2620  172.1220  144.0950 C   0  0  0  0  0  2  0  0  0  0  0  0
  197.2660  171.4670  142.7340 C   0  0  1  0  0  3  0  0  0  0  0  0
  195.3150  175.0490  146.2960 N   0  0  0  0  0  2  0  0  0  0  0  0
  189.1010  174.0670  143.0690 C   0  0  0  0  0  2  0  0  0  0  0  0
  195.9360  171.2720  142.3380 O   0  0  0  0  0  0  0  0  0  0  0  0
  192.5110  173.4330  144.6240 C   0  0  1  0  0  3  0  0  0  0  0  0
  195.2160  171.0550  143.5250 C   0  0  2  0  0  3  0  0  0  0  0  0
  191.4560  173.7980  143.5600 C   0  0  2  0  0  3  0  0  0  0  0  0
  188.7990  175.4040  145.9150 C   0  0  1  0  0  3  0  0  0  0  0  0
  188.9120  174.9620  147.3720 C   0  0  0  0  0  1  0  0  0  0  0  0
  188.2600  176.7590  145.8660 N   0  0  0  0  0  2  0  0  0  0  0  0
  186.5150  178.4100  145.3140 N   0  0  0  0  0  2  0  0  0  0  0  0
  186.2630  176.1400  144.8270 O   0  0  0  0  0  0  0  0  0  0  0  0
  186.9780  177.0580  145.3130 C   0  0  0  0  0  0  0  0  0  0  0  0
  185.2360  178.8060  144.7390 C   0  0  2  0  0  3  0  0  0  0  0  0
  185.3260  180.2040  144.1450 C   0  0  0  0  0  1  0  0  0  0  0  0
  184.6730  178.7310  147.2070 C   0  0  0  0  0  1  0  0  0  0  0  0
  184.1290  178.7250  145.7860 C   0  0  0  0  0  2  0  0  0  0  0  0
  197.9410  172.3240  141.7700 N   0  0  0  0  0  2  0  0  0  0  0  0
  196.1460  175.6380  140.9640 C   0  0  2  0  0  3  0  0  0  0  0  0
  197.1510  174.7460  141.6880 C   0  0  0  0  0  2  0  0  0  0  0  0
  196.4100  175.5930  139.4660 C   0  0  0  0  0  2  0  0  0  0  0  0
  197.2850  173.3770  141.0600 C   0  0  0  0  0  0  0  0  0  0  0  0
  196.1960  174.1700  138.9460 C   0  0  1  0  0  3  0  0  0  0  0  0
  196.9120  173.1520  139.7940 C   0  0  0  0  0  3  0  0  0  0  0  0
  196.2690  176.9360  141.4210 F   0  0  0  0  0  0  0  0  0  0  0  0
  194.2790  174.8280  138.0560 C   0  0  0  0  0  1  0  0  0  0  0  0
  194.8300  173.8780  138.9170 O   0  0  0  0  0  0  0  0  0  0  0  0
  1  9  1  0  0  0  0
  2 10  1  1  0  0  0
  2 23  1  0  0  0  0
  2 13  1  0  0  0  0
  3  6  1  0  0  0  0
  3 21  1  0  0  0  0
  4 21  1  6  0  0  0
  4  5  1  0  0  0  0
  5 15  1  6  0  0  0
  5 26  1  0  0  0  0
  5 17  1  0  0  0  0
  6 11  2  6  0  0  0
  6  8  1  0  0  0  0
  6 25  1  0  0  0  0
  7 20  1  0  0  0  0
  9 20  1  0  0  0  0
 10 24  1  0  0  0  0
 13  7  1  6  0  0  0
 14  1  1  6  0  0  0
 14 17  1  0  0  0  0
 16 13  1  0  0  0  0
 16 12  1  1  0  0  0
 18 16  1  0  0  0  0
 19 36  1  6  0  0  0
 19 18  1  0  0  0  0
 22 19  1  0  0  0  0
 22 24  1  0  0  0  0
 23 14  1  0  0  0  0
 24 16  1  0  0  0  0
 25  4  1  0  0  0  0
 25 23  1  0  0  0  0
 26 27  1  0  0  0  0
 28 26  1  0  0  0  0
 30 31  2  0  0  0  0
 31 29  1  0  0  0  0
 31 28  1  0  0  0  0
 32 29  1  0  0  0  0
 32 35  1  0  0  0  0
 33 32  1  0  0  0  0
 35 34  1  0  0  0  0
 37 43  1  0  0  0  0
 37 38  1  0  0  0  0
 39 37  1  0  0  0  0
 40 38  1  0  0  0  0
 40 36  1  0  0  0  0
 41 39  1  0  0  0  0
 41 42  1  0  0  0  0
 42 40  2  0  0  0  0
 44 45  1  0  0  0  0
 45 41  1  0  0  0  0
M  END
>  <MODEL>
3

>  <REMARK>
 VINA RESULT:      -7.9      3.084      9.776
  Name = 
  7 active torsions:
  status: ('A' for Active; 'I' for Inactive)
    1  A    between atoms: N_1  and  C_11
    2  A    between atoms: N_6  and  C_19
    3  A    between atoms: N_6  and  C_33
    4  A    between atoms: C_9  and  C_11
    5  A    between atoms: C_18  and  N_22
    6  A    between atoms: C_18  and  C_27
    7  A    between atoms: O_36  and  C_38
                            x       y       z     vdW  Elec       q    Type
                         _______ _______ _______ _____ _____    ______ ____

>  <TORSDO>
F 7

$$$$
=
 OpenBabel11072408593D

 45 50  0  0  1  0  0  0  0  0999 V2000
  186.9070  176.1630  146.7660 C   0  0  0  0  0  2  0  0  0  0  0  0
  186.6970  177.7160  144.2190 C   0  0  2  0  0  3  0  0  0  0  0  0
  190.7030  175.3300  142.6210 O   0  0  0  0  0  0  0  0  0  0  0  0
  190.1460  176.0130  144.8850 C   0  0  1  0  0  3  0  0  0  0  0  0
  190.1060  175.7210  146.4000 C   0  0  2  0  0  0  0  0  0  0  0  0
  189.2840  176.2570  142.5580 P   0  0  1  0  0  0  0  0  0  0  0  0
  184.8910  178.0760  145.9700 C   0  0  0  0  0  2  0  0  0  0  0  0
  189.6580  177.8280  142.0550 O   0  0  0  0  0  1  0  0  0  0  0  0
  185.8520  176.7560  147.7000 C   0  0  0  0  0  2  0  0  0  0  0  0
  186.8750  178.3200  142.8380 C   0  0  0  0  0  2  0  0  0  0  0  0
  188.2580  175.6210  141.6480 O   0  0  0  0  0  0  0  0  0  0  0  0
  185.4470  181.0920  144.2200 C   0  0  0  0  0  1  0  0  0  0  0  0
  185.8540  178.7440  144.9830 C   0  0  2  0  0  3  0  0  0  0  0  0
  187.9670  177.2010  146.3990 C   0  0  1  0  0  3  0  0  0  0  0  0
  189.4280  174.3780  146.6800 C   0  0  0  0  0  1  0  0  0  0  0  0
  185.1550  179.6310  143.9390 C   0  0  1  0  0  0  0  0  0  0  0  0
  189.3140  176.8700  147.0640 C   0  0  0  0  0  2  0  0  0  0  0  0
  183.6680  179.4170  143.8030 C   0  0  0  0  0  2  0  0  0  0  0  0
  183.4880  179.0400  142.3510 C   0  0  1  0  0  3  0  0  0  0  0  0
  185.4600  178.1100  147.3080 N   0  0  0  0  0  2  0  0  0  0  0  0
  190.8740  175.0030  143.9870 C   0  0  0  0  0  2  0  0  0  0  0  0
  184.7090  178.5500  141.8710 O   0  0  0  0  0  0  0  0  0  0  0  0
  188.0790  177.4230  144.8700 C   0  0  1  0  0  3  0  0  0  0  0  0
  185.7020  179.2410  142.5840 C   0  0  2  0  0  3  0  0  0  0  0  0
  188.7820  176.1870  144.2730 C   0  0  2  0  0  3  0  0  0  0  0  0
  191.5390  175.7280  146.9880 C   0  0  1  0  0  3  0  0  0  0  0  0
  191.5670  175.3650  148.4710 C   0  0  0  0  0  1  0  0  0  0  0  0
  192.4290  174.8300  146.2590 N   0  0  0  0  0  2  0  0  0  0  0  0
  194.6240  174.1710  145.3540 N   0  0  0  0  0  2  0  0  0  0  0  0
  194.3230  176.1700  146.5240 O   0  0  0  0  0  0  0  0  0  0  0  0
  193.8160  175.1080  146.0680 C   0  0  0  0  0  0  0  0  0  0  0  0
  196.0390  174.3940  145.0850 C   0  0  2  0  0  3  0  0  0  0  0  0
  196.3990  173.9190  143.6850 C   0  0  0  0  0  1  0  0  0  0  0  0
  196.8150  172.1840  146.0510 C   0  0  0  0  0  1  0  0  0  0  0  0
  196.9010  173.7010  146.1370 C   0  0  0  0  0  2  0  0  0  0  0  0
  182.4650  178.0120  142.2260 N   0  0  0  0  0  2  0  0  0  0  0  0
  178.6720  178.6920  142.2930 C   0  0  2  0  0  3  0  0  0  0  0  0
  180.1060  178.7790  142.8100 C   0  0  0  0  0  2  0  0  0  0  0  0
  178.5980  179.2780  140.8900 C   0  0  0  0  0  2  0  0  0  0  0  0
  181.1250  178.2840  141.8090 C   0  0  0  0  0  0  0  0  0  0  0  0
  179.4640  178.4500  139.9390 C   0  0  1  0  0  3  0  0  0  0  0  0
  180.8400  178.2070  140.5030 C   0  0  0  0  0  3  0  0  0  0  0  0
  177.8340  179.3950  143.1370 F   0  0  0  0  0  0  0  0  0  0  0  0
  177.8680  177.5160  138.7210 C   0  0  0  0  0  1  0  0  0  0  0  0
  178.8430  177.2260  139.6770 O   0  0  0  0  0  0  0  0  0  0  0  0
  1  9  1  0  0  0  0
  2 10  1  6  0  0  0
  2 23  1  0  0  0  0
  2 13  1  0  0  0  0
  3 21  1  0  0  0  0
  4 21  1  6  0  0  0
  4  5  1  0  0  0  0
  5 15  1  1  0  0  0
  5 26  1  0  0  0  0
  5 17  1  0  0  0  0
  6 11  2  6  0  0  0
  6  3  1  0  0  0  0
  6 25  1  0  0  0  0
  7 20  1  0  0  0  0
  8  6  1  0  0  0  0
 13  7  1  6  0  0  0
 14  1  1  6  0  0  0
 14 17  1  0  0  0  0
 16 12  1  1  0  0  0
 16 13  1  0  0  0  0
 18 16  1  0  0  0  0
 19 36  1  1  0  0  0
 19 18  1  0  0  0  0
 20  9  1  0  0  0  0
 22 19  1  0  0  0  0
 22 24  1  0  0  0  0
 23 14  1  0  0  0  0
 24 10  1  0  0  0  0
 24 16  1  0  0  0  0
 25 23  1  0  0  0  0
 25  4  1  0  0  0  0
 26 27  1  0  0  0  0
 28 26  1  0  0  0  0
 29 31  1  0  0  0  0
 31 28  1  0  0  0  0
 31 30  2  0  0  0  0
 32 29  1  0  0  0  0
 32 35  1  0  0  0  0
 33 32  1  0  0  0  0
 34 35  1  0  0  0  0
 37 38  1  0  0  0  0
 37 43  1  0  0  0  0
 39 37  1  0  0  0  0
 40 36  1  0  0  0  0
 40 38  1  0  0  0  0
 41 42  1  0  0  0  0
 41 39  1  0  0  0  0
 42 40  2  0  0  0  0
 44 45  1  0  0  0  0
 45 41  1  0  0  0  0
M  END
>  <MODEL>
4

>  <REMARK>
 VINA RESULT:      -7.4      3.976      6.004
  Name = 
  7 active torsions:
  status: ('A' for Active; 'I' for Inactive)
    1  A    between atoms: N_1  and  C_11
    2  A    between atoms: N_6  and  C_19
    3  A    between atoms: N_6  and  C_33
    4  A    between atoms: C_9  and  C_11
    5  A    between atoms: C_18  and  N_22
    6  A    between atoms: C_18  and  C_27
    7  A    between atoms: O_36  and  C_38
                            x       y       z     vdW  Elec       q    Type
                         _______ _______ _______ _____ _____    ______ ____

>  <TORSDO>
F 7

$$$$
=
 OpenBabel11072408593D

 45 50  0  0  1  0  0  0  0  0999 V2000
  191.2550  175.6330  145.0570 C   0  0  0  0  0  2  0  0  0  0  0  0
  189.2130  175.7260  142.8730 C   0  0  2  0  0  3  0  0  0  0  0  0
  190.4140  171.0740  141.7710 O   0  0  0  0  0  0  0  0  0  0  0  0
  191.8420  172.8510  142.6140 C   0  0  1  0  0  3  0  0  0  0  0  0
  192.9760  173.3280  143.5440 C   0  0  2  0  0  0  0  0  0  0  0  0
  189.5050  172.5050  141.8120 P   0  0  1  0  0  0  0  0  0  0  0  0
  189.4400  177.7740  144.3610 C   0  0  0  0  0  2  0  0  0  0  0  0
  189.4160  173.1620  140.2560 O   0  0  0  0  0  0  0  0  0  0  0  0
  191.3330  177.0560  145.6090 C   0  0  0  0  0  2  0  0  0  0  0  0
  188.2810  175.4420  141.7090 C   0  0  0  0  0  2  0  0  0  0  0  0
  188.1270  172.2590  142.3830 O   0  0  0  0  0  1  0  0  0  0  0  0
  188.5590  178.7860  141.0950 C   0  0  0  0  0  1  0  0  0  0  0  0
  189.3120  177.2550  142.9250 C   0  0  2  0  0  3  0  0  0  0  0  0
  191.6820  175.5840  143.5910 C   0  0  1  0  0  3  0  0  0  0  0  0
  192.7110  172.9080  144.9920 C   0  0  0  0  0  1  0  0  0  0  0  0
  188.0980  177.8180  142.1670 C   0  0  1  0  0  0  0  0  0  0  0  0
  193.0350  174.8690  143.4360 C   0  0  0  0  0  2  0  0  0  0  0  0
  187.0440  178.4660  143.0310 C   0  0  0  0  0  2  0  0  0  0  0  0
  185.7920  177.6780  142.7250 C   0  0  1  0  0  3  0  0  0  0  0  0
  190.8370  178.0500  144.6590 N   0  0  0  0  0  2  0  0  0  0  0  0
  191.5670  171.3420  142.5480 C   0  0  0  0  0  2  0  0  0  0  0  0
  186.1730  176.4270  142.2220 O   0  0  0  0  0  0  0  0  0  0  0  0
  190.5790  175.0100  142.6670 C   0  0  1  0  0  3  0  0  0  0  0  0
  187.3810  176.6450  141.5390 C   0  0  2  0  0  3  0  0  0  0  0  0
  190.5130  173.4890  142.9150 C   0  0  2  0  0  3  0  0  0  0  0  0
  194.3380  172.7650  143.0670 C   0  0  1  0  0  3  0  0  0  0  0  0
  194.5250  171.2940  143.4300 C   0  0  0  0  0  1  0  0  0  0  0  0
  194.5180  172.9290  141.6280 N   0  0  0  0  0  2  0  0  0  0  0  0
  195.6290  173.8890  139.6480 N   0  0  0  0  0  2  0  0  0  0  0  0
  196.2640  174.4670  141.8200 O   0  0  0  0  0  0  0  0  0  0  0  0
  195.5070  173.7930  141.0690 C   0  0  0  0  0  0  0  0  0  0  0  0
  196.5880  174.7730  138.9960 C   0  0  2  0  0  3  0  0  0  0  0  0
  196.0610  175.2290  137.6450 C   0  0  0  0  0  1  0  0  0  0  0  0
  197.8510  172.7880  138.0580 C   0  0  0  0  0  1  0  0  0  0  0  0
  197.9410  174.0830  138.8530 C   0  0  0  0  0  2  0  0  0  0  0  0
  185.0070  177.4990  143.9380 N   0  0  0  0  0  2  0  0  0  0  0  0
  186.3130  179.0740  147.2040 C   0  0  2  0  0  3  0  0  0  0  0  0
  185.4030  178.9670  145.9830 C   0  0  0  0  0  2  0  0  0  0  0  0
  186.1940  177.8070  148.0410 C   0  0  0  0  0  2  0  0  0  0  0  0
  185.5470  177.6510  145.2530 C   0  0  0  0  0  0  0  0  0  0  0  0
  186.6790  176.6050  147.2290 C   0  0  1  0  0  3  0  0  0  0  0  0
  186.0630  176.5730  145.8550 C   0  0  0  0  0  3  0  0  0  0  0  0
  185.9440  180.1690  147.9600 F   0  0  0  0  0  0  0  0  0  0  0  0
  188.4750  175.3110  147.2490 C   0  0  0  0  0  1  0  0  0  0  0  0
  188.0720  176.6400  147.1170 O   0  0  0  0  0  0  0  0  0  0  0  0
  1  9  1  0  0  0  0
  2 10  1  6  0  0  0
  2 13  1  0  0  0  0
  3  6  1  0  0  0  0
  3 21  1  0  0  0  0
  4 21  1  1  0  0  0
  4 25  1  0  0  0  0
  4  5  1  0  0  0  0
  5 15  1  1  0  0  0
  6  8  2  6  0  0  0
  6 11  1  0  0  0  0
  6 25  1  0  0  0  0
  7 20  1  0  0  0  0
 13  7  1  1  0  0  0
 14 17  1  1  0  0  0
 14  1  1  0  0  0  0
 16 12  1  6  0  0  0
 16 13  1  0  0  0  0
 16 18  1  0  0  0  0
 17  5  1  0  0  0  0
 19 18  1  0  0  0  0
 19 36  1  1  0  0  0
 20  9  1  0  0  0  0
 22 19  1  0  0  0  0
 23  2  1  0  0  0  0
 23 25  1  0  0  0  0
 23 14  1  0  0  0  0
 24 10  1  0  0  0  0
 24 16  1  0  0  0  0
 24 22  1  0  0  0  0
 26 27  1  0  0  0  0
 26  5  1  0  0  0  0
 28 26  1  0  0  0  0
 29 31  1  0  0  0  0
 31 28  1  0  0  0  0
 31 30  2  0  0  0  0
 32 29  1  0  0  0  0
 33 32  1  0  0  0  0
 34 35  1  0  0  0  0
 35 32  1  0  0  0  0
 36 40  1  0  0  0  0
 37 43  1  0  0  0  0
 37 39  1  0  0  0  0
 38 37  1  0  0  0  0
 40 42  2  0  0  0  0
 40 38  1  0  0  0  0
 41 39  1  0  0  0  0
 42 41  1  0  0  0  0
 45 41  1  0  0  0  0
 45 44  1  0  0  0  0
M  END
>  <MODEL>
5

>  <REMARK>
 VINA RESULT:      -7.4      1.889      3.496
  Name = 
  7 active torsions:
  status: ('A' for Active; 'I' for Inactive)
    1  A    between atoms: N_1  and  C_11
    2  A    between atoms: N_6  and  C_19
    3  A    between atoms: N_6  and  C_33
    4  A    between atoms: C_9  and  C_11
    5  A    between atoms: C_18  and  N_22
    6  A    between atoms: C_18  and  C_27
    7  A    between atoms: O_36  and  C_38
                            x       y       z     vdW  Elec       q    Type
                         _______ _______ _______ _____ _____    ______ ____

>  <TORSDO>
F 7

$$$$
=
 OpenBabel11072408593D

 45 50  0  0  1  0  0  0  0  0999 V2000
  191.5390  172.4350  142.0290 C   0  0  0  0  0  2  0  0  0  0  0  0
  194.1980  173.6380  142.6800 C   0  0  2  0  0  3  0  0  0  0  0  0
  191.9410  176.3850  146.0940 O   0  0  0  0  0  0  0  0  0  0  0  0
  191.0850  175.6210  143.9510 C   0  0  1  0  0  3  0  0  0  0  0  0
  189.9340  175.0520  143.0960 C   0  0  2  0  0  0  0  0  0  0  0  0
  193.2050  175.6160  145.2650 P   0  0  1  0  0  0  0  0  0  0  0  0
  194.1350  171.8000  140.9260 C   0  0  0  0  0  2  0  0  0  0  0  0
  194.2170  176.7810  144.5720 O   0  0  0  0  0  0  0  0  0  0  0  0
  191.7720  171.5580  140.7990 C   0  0  0  0  0  2  0  0  0  0  0  0
  195.3630  174.4300  143.2460 C   0  0  0  0  0  2  0  0  0  0  0  0
  193.9780  174.6970  146.1830 O   0  0  0  0  0  1  0  0  0  0  0  0
  196.6820  174.1080  140.1180 C   0  0  0  0  0  1  0  0  0  0  0  0
  194.6770  173.1850  141.2960 C   0  0  2  0  0  3  0  0  0  0  0  0
  191.8230  173.9050  141.7240 C   0  0  1  0  0  3  0  0  0  0  0  0
  189.3480  173.7910  143.7360 C   0  0  0  0  0  1  0  0  0  0  0  0
  196.2130  173.2710  141.2910 C   0  0  1  0  0  0  0  0  0  0  0  0
  190.5210  174.7230  141.7050 C   0  0  0  0  0  2  0  0  0  0  0  0
  196.9320  171.9450  141.3030 C   0  0  0  0  0  2  0  0  0  0  0  0
  197.7850  172.0060  142.5490 C   0  0  1  0  0  3  0  0  0  0  0  0
  192.9750  171.9440  140.0610 N   0  0  0  0  0  2  0  0  0  0  0  0
  190.7640  176.0200  145.3990 C   0  0  0  0  0  2  0  0  0  0  0  0
  197.2220  172.9500  143.4180 O   0  0  0  0  0  0  0  0  0  0  0  0
  192.9090  174.5070  142.6500 C   0  0  1  0  0  3  0  0  0  0  0  0
  196.6270  173.9190  142.5930 C   0  0  2  0  0  3  0  0  0  0  0  0
  192.2740  174.7020  144.0420 C   0  0  2  0  0  3  0  0  0  0  0  0
  188.8260  176.1170  142.9060 C   0  0  1  0  0  3  0  0  0  0  0  0
  188.1830  176.0570  141.5230 C   0  0  0  0  0  1  0  0  0  0  0  0
  187.7840  176.0020  143.9220 N   0  0  0  0  0  2  0  0  0  0  0  0
  186.2770  176.9290  145.6380 N   0  0  0  0  0  2  0  0  0  0  0  0
  187.7980  178.2700  144.4780 O   0  0  0  0  0  0  0  0  0  0  0  0
  187.3100  177.1220  144.6700 C   0  0  0  0  0  0  0  0  0  0  0  0
  185.7610  178.0120  146.4670 C   0  0  2  0  0  3  0  0  0  0  0  0
  185.9890  177.7130  147.9410 C   0  0  0  0  0  1  0  0  0  0  0  0
  184.0540  178.9440  144.8440 C   0  0  0  0  0  1  0  0  0  0  0  0
  184.2810  178.2490  146.1780 C   0  0  0  0  0  2  0  0  0  0  0  0
  197.8170  170.7030  143.1960 N   0  0  0  0  0  2  0  0  0  0  0  0
  196.3480  169.3610  146.4970 C   0  0  2  0  0  3  0  0  0  0  0  0
  197.3640  170.1010  145.6310 C   0  0  0  0  0  2  0  0  0  0  0  0
  194.9720  169.9860  146.3150 C   0  0  0  0  0  2  0  0  0  0  0  0
  196.8900  170.3070  144.2100 C   0  0  0  0  0  0  0  0  0  0  0  0
  194.5190  169.8250  144.8630 C   0  0  1  0  0  3  0  0  0  0  0  0
  195.5910  170.2470  143.8930 C   0  0  0  0  0  3  0  0  0  0  0  0
  196.7260  169.4420  147.8230 F   0  0  0  0  0  0  0  0  0  0  0  0
  193.1160  168.5620  143.7060 C   0  0  0  0  0  1  0  0  0  0  0  0
  194.1670  168.4940  144.6220 O   0  0  0  0  0  0  0  0  0  0  0  0
  2 10  1  6  0  0  0
  4 25  1  0  0  0  0
  4 21  1  1  0  0  0
  5 15  1  1  0  0  0
  5  4  1  0  0  0  0
  6  8  2  6  0  0  0
  6  3  1  0  0  0  0
  6 11  1  0  0  0  0
  9  1  1  0  0  0  0
 13  7  1  1  0  0  0
 13  2  1  0  0  0  0
 14 17  1  1  0  0  0
 14  1  1  0  0  0  0
 14 23  1  0  0  0  0
 16 12  1  6  0  0  0
 16 13  1  0  0  0  0
 16 18  1  0  0  0  0
 16 24  1  0  0  0  0
 17  5  1  0  0  0  0
 18 19  1  0  0  0  0
 19 36  1  1  0  0  0
 19 22  1  0  0  0  0
 20  9  1  0  0  0  0
 20  7  1  0  0  0  0
 21  3  1  0  0  0  0
 23  2  1  0  0  0  0
 23 25  1  0  0  0  0
 24 10  1  0  0  0  0
 24 22  1  0  0  0  0
 25  6  1  0  0  0  0
 26  5  1  0  0  0  0
 26 28  1  0  0  0  0
 27 26  1  0  0  0  0
 28 31  1  0  0  0  0
 29 32  1  0  0  0  0
 30 31  2  0  0  0  0
 31 29  1  0  0  0  0
 32 33  1  0  0  0  0
 34 35  1  0  0  0  0
 35 32  1  0  0  0  0
 36 40  1  0  0  0  0
 37 43  1  0  0  0  0
 38 37  1  0  0  0  0
 39 37  1  0  0  0  0
 40 38  1  0  0  0  0
 41 39  1  0  0  0  0
 42 40  2  0  0  0  0
 42 41  1  0  0  0  0
 44 45  1  0  0  0  0
 45 41  1  0  0  0  0
M  END
>  <MODEL>
6

>  <REMARK>
 VINA RESULT:      -7.3      3.411      9.917
  Name = 
  7 active torsions:
  status: ('A' for Active; 'I' for Inactive)
    1  A    between atoms: N_1  and  C_11
    2  A    between atoms: N_6  and  C_19
    3  A    between atoms: N_6  and  C_33
    4  A    between atoms: C_9  and  C_11
    5  A    between atoms: C_18  and  N_22
    6  A    between atoms: C_18  and  C_27
    7  A    between atoms: O_36  and  C_38
                            x       y       z     vdW  Elec       q    Type
                         _______ _______ _______ _____ _____    ______ ____

>  <TORSDO>
F 7

$$$$
=
 OpenBabel11072408593D

 45 50  0  0  1  0  0  0  0  0999 V2000
  191.4510  172.9390  142.9580 C   0  0  0  0  0  2  0  0  0  0  0  0
  194.4110  173.1500  142.5880 C   0  0  2  0  0  3  0  0  0  0  0  0
  194.5280  176.1300  146.5120 O   0  0  0  0  0  0  0  0  0  0  0  0
  192.7840  175.8960  144.8360 C   0  0  1  0  0  3  0  0  0  0  0  0
  191.2900  175.8160  144.4620 C   0  0  2  0  0  0  0  0  0  0  0  0
  195.0940  175.0800  145.3070 P   0  0  1  0  0  0  0  0  0  0  0  0
  193.1340  171.6130  141.0180 C   0  0  0  0  0  2  0  0  0  0  0  0
  196.1340  175.9180  144.2700 O   0  0  0  0  0  0  0  0  0  0  0  0
  190.9380  172.1590  141.7470 C   0  0  0  0  0  2  0  0  0  0  0  0
  195.8930  173.4650  142.6820 C   0  0  0  0  0  2  0  0  0  0  0  0
  195.7770  173.8750  145.9110 O   0  0  0  0  0  1  0  0  0  0  0  0
  195.8660  173.0430  139.2970 C   0  0  0  0  0  1  0  0  0  0  0  0
  194.2030  172.7050  141.1350 C   0  0  2  0  0  3  0  0  0  0  0  0
  192.0880  174.2610  142.5350 C   0  0  1  0  0  3  0  0  0  0  0  0
  190.5730  174.7550  145.3000 C   0  0  0  0  0  1  0  0  0  0  0  0
  195.5760  172.2910  140.5810 C   0  0  1  0  0  0  0  0  0  0  0  0
  191.2160  175.4540  142.9610 C   0  0  0  0  0  2  0  0  0  0  0  0
  195.7660  170.8100  140.3680 C   0  0  0  0  0  2  0  0  0  0  0  0
  196.9620  170.4700  141.2260 C   0  0  1  0  0  3  0  0  0  0  0  0
  191.8680  172.2070  140.6200 N   0  0  0  0  0  2  0  0  0  0  0  0
  193.1340  176.2340  146.2920 C   0  0  0  0  0  2  0  0  0  0  0  0
  197.0840  171.4550  142.2160 O   0  0  0  0  0  0  0  0  0  0  0  0
  193.5620  174.3870  142.9980 C   0  0  1  0  0  3  0  0  0  0  0  0
  196.6050  172.6400  141.6330 C   0  0  2  0  0  3  0  0  0  0  0  0
  193.5490  174.6390  144.5190 C   0  0  2  0  0  3  0  0  0  0  0  0
  190.6110  177.1950  144.6530 C   0  0  1  0  0  3  0  0  0  0  0  0
  191.2550  178.2900  143.8080 C   0  0  0  0  0  1  0  0  0  0  0  0
  189.1830  177.1410  144.3580 N   0  0  0  0  0  2  0  0  0  0  0  0
  186.8080  177.4740  144.9280 N   0  0  0  0  0  2  0  0  0  0  0  0
  188.5190  177.9560  146.4430 O   0  0  0  0  0  0  0  0  0  0  0  0
  188.1860  177.5440  145.2980 C   0  0  0  0  0  0  0  0  0  0  0  0
  185.7270  177.8330  145.8380 C   0  0  2  0  0  3  0  0  0  0  0  0
  185.1620  176.5920  146.5130 C   0  0  0  0  0  1  0  0  0  0  0  0
  185.1940  179.7430  144.2630 C   0  0  0  0  0  1  0  0  0  0  0  0
  184.6350  178.6000  145.0980 C   0  0  0  0  0  2  0  0  0  0  0  0
  196.7740  169.1700  141.8520 N   0  0  0  0  0  2  0  0  0  0  0  0
  194.3890  169.4100  144.8700 C   0  0  2  0  0  3  0  0  0  0  0  0
  194.7460  169.3180  143.3890 C   0  0  0  0  0  2  0  0  0  0  0  0
  194.9570  168.2060  145.6080 C   0  0  0  0  0  2  0  0  0  0  0  0
  196.2050  168.9980  143.1520 C   0  0  0  0  0  0  0  0  0  0  0  0
  196.4840  168.2180  145.5170 C   0  0  1  0  0  3  0  0  0  0  0  0
  196.9590  168.4360  144.1040 C   0  0  0  0  0  3  0  0  0  0  0  0
  193.0160  169.4400  145.0120 F   0  0  0  0  0  0  0  0  0  0  0  0
  196.9080  168.7000  147.6360 C   0  0  0  0  0  1  0  0  0  0  0  0
  197.0000  169.2200  146.3440 O   0  0  0  0  0  0  0  0  0  0  0  0
  2 10  1  6  0  0  0
  2 23  1  0  0  0  0
  4 21  1  1  0  0  0
  5 26  1  0  0  0  0
  5  4  1  0  0  0  0
  5 15  1  1  0  0  0
  6  8  2  6  0  0  0
  6 11  1  0  0  0  0
  6  3  1  0  0  0  0
  9  1  1  0  0  0  0
 13  7  1  1  0  0  0
 13  2  1  0  0  0  0
 14  1  1  1  0  0  0
 14 17  1  0  0  0  0
 14 23  1  0  0  0  0
 16 12  1  6  0  0  0
 16 13  1  0  0  0  0
 16 24  1  0  0  0  0
 17  5  1  0  0  0  0
 18 16  1  0  0  0  0
 18 19  1  0  0  0  0
 19 36  1  1  0  0  0
 19 22  1  0  0  0  0
 20  7  1  0  0  0  0
 20  9  1  0  0  0  0
 21  3  1  0  0  0  0
 23 25  1  0  0  0  0
 24 22  1  0  0  0  0
 24 10  1  0  0  0  0
 25  4  1  0  0  0  0
 25  6  1  0  0  0  0
 27 26  1  0  0  0  0
 28 26  1  0  0  0  0
 28 31  1  0  0  0  0
 29 31  1  0  0  0  0
 29 32  1  0  0  0  0
 31 30  2  0  0  0  0
 32 33  1  0  0  0  0
 34 35  1  0  0  0  0
 35 32  1  0  0  0  0
 36 40  1  0  0  0  0
 37 43  1  0  0  0  0
 37 39  1  0  0  0  0
 38 37  1  0  0  0  0
 40 38  1  0  0  0  0
 40 42  2  0  0  0  0
 41 39  1  0  0  0  0
 41 45  1  0  0  0  0
 42 41  1  0  0  0  0
 45 44  1  0  0  0  0
M  END
>  <MODEL>
7

>  <REMARK>
 VINA RESULT:      -7.2      3.621     10.032
  Name = 
  7 active torsions:
  status: ('A' for Active; 'I' for Inactive)
    1  A    between atoms: N_1  and  C_11
    2  A    between atoms: N_6  and  C_19
    3  A    between atoms: N_6  and  C_33
    4  A    between atoms: C_9  and  C_11
    5  A    between atoms: C_18  and  N_22
    6  A    between atoms: C_18  and  C_27
    7  A    between atoms: O_36  and  C_38
                            x       y       z     vdW  Elec       q    Type
                         _______ _______ _______ _____ _____    ______ ____

>  <TORSDO>
F 7

$$$$
=
 OpenBabel11072408593D

 45 50  0  0  1  0  0  0  0  0999 V2000
  191.0650  171.7890  142.6660 C   0  0  0  0  0  2  0  0  0  0  0  0
  193.7610  172.7920  141.8460 C   0  0  2  0  0  3  0  0  0  0  0  0
  192.6830  177.0470  144.0900 O   0  0  0  0  0  0  0  0  0  0  0  0
  191.1900  175.5270  142.9210 C   0  0  1  0  0  3  0  0  0  0  0  0
  189.8370  174.7940  142.8210 C   0  0  2  0  0  0  0  0  0  0  0  0
  193.6240  175.8290  143.3760 P   0  0  1  0  0  0  0  0  0  0  0  0
  193.1690  170.3910  141.2610 C   0  0  0  0  0  2  0  0  0  0  0  0
  194.3230  176.4160  141.9530 O   0  0  0  0  0  0  0  0  0  0  0  0
  190.9020  170.4330  141.9790 C   0  0  0  0  0  2  0  0  0  0  0  0
  195.0260  173.5920  141.5980 C   0  0  0  0  0  2  0  0  0  0  0  0
  194.6770  175.3220  144.3350 O   0  0  0  0  0  1  0  0  0  0  0  0
  195.2520  171.7340  138.7460 C   0  0  0  0  0  1  0  0  0  0  0  0
  193.7690  171.7090  140.7610 C   0  0  2  0  0  3  0  0  0  0  0  0
  191.1960  172.9160  141.6430 C   0  0  1  0  0  3  0  0  0  0  0  0
  189.5240  174.0420  144.1170 C   0  0  0  0  0  1  0  0  0  0  0  0
  195.2150  171.5800  140.2540 C   0  0  1  0  0  0  0  0  0  0  0  0
  189.9410  173.8040  141.6380 C   0  0  0  0  0  2  0  0  0  0  0  0
  195.9310  170.3160  140.6630 C   0  0  0  0  0  2  0  0  0  0  0  0
  197.1430  170.8140  141.4140 C   0  0  1  0  0  3  0  0  0  0  0  0
  191.7860  170.2850  140.8240 N   0  0  0  0  0  2  0  0  0  0  0  0
  191.3520  176.5690  144.0360 C   0  0  0  0  0  2  0  0  0  0  0  0
  196.8740  172.1120  141.8680 O   0  0  0  0  0  0  0  0  0  0  0  0
  192.5120  173.7180  141.8060 C   0  0  1  0  0  3  0  0  0  0  0  0
  196.0180  172.6790  140.9110 C   0  0  2  0  0  3  0  0  0  0  0  0
  192.3650  174.5970  143.0640 C   0  0  2  0  0  3  0  0  0  0  0  0
  188.7010  175.7990  142.5010 C   0  0  1  0  0  3  0  0  0  0  0  0
  188.0780  175.5640  141.1280 C   0  0  0  0  0  1  0  0  0  0  0  0
  187.6520  175.7700  143.5150 N   0  0  0  0  0  2  0  0  0  0  0  0
  186.2910  176.7910  145.2990 N   0  0  0  0  0  2  0  0  0  0  0  0
  187.9950  177.9690  144.2190 O   0  0  0  0  0  0  0  0  0  0  0  0
  187.3440  176.8950  144.3380 C   0  0  0  0  0  0  0  0  0  0  0  0
  185.9360  177.8790  146.2010 C   0  0  2  0  0  3  0  0  0  0  0  0
  185.9420  177.4000  147.6450 C   0  0  0  0  0  1  0  0  0  0  0  0
  184.6690  179.4160  144.6350 C   0  0  0  0  0  1  0  0  0  0  0  0
  184.5800  178.4680  145.8230 C   0  0  0  0  0  2  0  0  0  0  0  0
  197.4180  169.9450  142.5500 N   0  0  0  0  0  2  0  0  0  0  0  0
  194.8080  169.7840  145.3810 C   0  0  2  0  0  3  0  0  0  0  0  0
  195.5520  169.2730  144.1500 C   0  0  0  0  0  2  0  0  0  0  0  0
  195.7980  170.0230  146.5130 C   0  0  0  0  0  2  0  0  0  0  0  0
  196.7810  170.0900  143.8210 C   0  0  0  0  0  0  0  0  0  0  0  0
  196.7900  171.1140  146.1090 C   0  0  1  0  0  3  0  0  0  0  0  0
  197.3690  170.8650  144.7400 C   0  0  0  0  0  3  0  0  0  0  0  0
  193.8680  168.8510  145.7730 F   0  0  0  0  0  0  0  0  0  0  0  0
  197.1910  173.2880  145.9850 C   0  0  0  0  0  1  0  0  0  0  0  0
  196.1590  172.3610  146.1300 O   0  0  0  0  0  0  0  0  0  0  0  0
  2 10  1  6  0  0  0
  4 25  1  0  0  0  0
  4 21  1  1  0  0  0
  5  4  1  0  0  0  0
  5 15  1  1  0  0  0
  6  8  2  6  0  0  0
  6  3  1  0  0  0  0
  6 11  1  0  0  0  0
  9  1  1  0  0  0  0
 13  7  1  1  0  0  0
 13  2  1  0  0  0  0
 14 17  1  1  0  0  0
 14 23  1  0  0  0  0
 14  1  1  0  0  0  0
 16 12  1  6  0  0  0
 16 18  1  0  0  0  0
 16 13  1  0  0  0  0
 16 24  1  0  0  0  0
 17  5  1  0  0  0  0
 18 19  1  0  0  0  0
 19 22  1  0  0  0  0
 19 36  1  1  0  0  0
 20  7  1  0  0  0  0
 20  9  1  0  0  0  0
 21  3  1  0  0  0  0
 23  2  1  0  0  0  0
 23 25  1  0  0  0  0
 24 10  1  0  0  0  0
 24 22  1  0  0  0  0
 25  6  1  0  0  0  0
 26  5  1  0  0  0  0
 26 28  1  0  0  0  0
 27 26  1  0  0  0  0
 28 31  1  0  0  0  0
 29 32  1  0  0  0  0
 30 31  2  0  0  0  0
 31 29  1  0  0  0  0
 32 33  1  0  0  0  0
 34 35  1  0  0  0  0
 35 32  1  0  0  0  0
 36 40  1  0  0  0  0
 37 43  1  0  0  0  0
 37 39  1  0  0  0  0
 38 37  1  0  0  0  0
 40 38  1  0  0  0  0
 40 42  2  0  0  0  0
 41 45  1  0  0  0  0
 41 39  1  0  0  0  0
 42 41  1  0  0  0  0
 44 45  1  0  0  0  0
M  END
>  <MODEL>
8

>  <REMARK>
 VINA RESULT:      -7.1      3.528      9.866
  Name = 
  7 active torsions:
  status: ('A' for Active; 'I' for Inactive)
    1  A    between atoms: N_1  and  C_11
    2  A    between atoms: N_6  and  C_19
    3  A    between atoms: N_6  and  C_33
    4  A    between atoms: C_9  and  C_11
    5  A    between atoms: C_18  and  N_22
    6  A    between atoms: C_18  and  C_27
    7  A    between atoms: O_36  and  C_38
                            x       y       z     vdW  Elec       q    Type
                         _______ _______ _______ _____ _____    ______ ____

>  <TORSDO>
F 7

$$$$
=
 OpenBabel11072408593D

 45 50  0  0  1  0  0  0  0  0999 V2000
  192.5690  176.2350  144.2050 C   0  0  0  0  0  2  0  0  0  0  0  0
  193.2910  173.4410  143.4180 C   0  0  2  0  0  3  0  0  0  0  0  0
  189.8000  173.6880  139.9460 O   0  0  0  0  0  0  0  0  0  0  0  0
  189.8270  174.7180  142.1470 C   0  0  1  0  0  3  0  0  0  0  0  0
  189.5420  175.9260  143.0620 C   0  0  2  0  0  0  0  0  0  0  0  0
  191.1730  173.1300  140.7720 P   0  0  1  0  0  0  0  0  0  0  0  0
  194.6580  174.5360  145.2590 C   0  0  0  0  0  2  0  0  0  0  0  0
  190.8760  171.5790  141.3780 O   0  0  0  0  0  1  0  0  0  0  0  0
  193.3770  176.5290  145.4680 C   0  0  0  0  0  2  0  0  0  0  0  0
  193.4040  172.0690  142.7790 C   0  0  0  0  0  2  0  0  0  0  0  0
  192.3900  173.1440  139.8760 O   0  0  0  0  0  0  0  0  0  0  0  0
  194.4170  171.0680  145.8790 C   0  0  0  0  0  1  0  0  0  0  0  0
  193.9170  173.2730  144.8070 C   0  0  2  0  0  3  0  0  0  0  0  0
  191.5880  175.0860  144.4310 C   0  0  1  0  0  3  0  0  0  0  0  0
  190.1780  177.2010  142.5010 C   0  0  0  0  0  1  0  0  0  0  0  0
  194.8040  172.0170  144.7610 C   0  0  1  0  0  0  0  0  0  0  0  0
  190.1380  175.5970  144.4500 C   0  0  0  0  0  2  0  0  0  0  0  0
  196.2890  172.2760  144.7920 C   0  0  0  0  0  2  0  0  0  0  0  0
  196.7950  171.6370  143.5200 C   0  0  1  0  0  3  0  0  0  0  0  0
  193.8080  175.3100  146.1500 N   0  0  0  0  0  2  0  0  0  0  0  0
  189.3420  174.8000  140.6920 C   0  0  0  0  0  2  0  0  0  0  0  0
  195.7220  171.5390  142.6230 O   0  0  0  0  0  0  0  0  0  0  0  0
  191.8080  173.9110  143.4450 C   0  0  1  0  0  3  0  0  0  0  0  0
  194.5780  171.3610  143.4180 C   0  0  2  0  0  3  0  0  0  0  0  0
  191.2870  174.3610  142.0650 C   0  0  2  0  0  3  0  0  0  0  0  0
  188.0150  176.1240  143.2340 C   0  0  1  0  0  3  0  0  0  0  0  0
  187.2040  174.9630  142.6650 C   0  0  0  0  0  1  0  0  0  0  0  0
  187.6490  176.3240  144.6320 N   0  0  0  0  0  2  0  0  0  0  0  0
  186.6650  177.6230  146.4820 N   0  0  0  0  0  2  0  0  0  0  0  0
  186.7380  178.4470  144.2980 O   0  0  0  0  0  0  0  0  0  0  0  0
  187.0040  177.5090  145.0990 C   0  0  0  0  0  0  0  0  0  0  0  0
  186.0380  178.8120  147.0460 C   0  0  2  0  0  3  0  0  0  0  0  0
  186.6780  179.1740  148.3770 C   0  0  0  0  0  1  0  0  0  0  0  0
  183.7820  178.8250  145.8950 C   0  0  0  0  0  1  0  0  0  0  0  0
  184.5340  178.6030  147.1990 C   0  0  0  0  0  2  0  0  0  0  0  0
  197.8470  172.4540  142.9350 N   0  0  0  0  0  2  0  0  0  0  0  0
  196.5750  175.7000  141.2920 C   0  0  2  0  0  3  0  0  0  0  0  0
  197.1080  174.8420  142.4360 C   0  0  0  0  0  2  0  0  0  0  0  0
  197.5660  175.6830  140.1360 C   0  0  0  0  0  2  0  0  0  0  0  0
  197.6000  173.4870  141.9780 C   0  0  0  0  0  0  0  0  0  0  0  0
  197.7050  174.2590  139.5960 C   0  0  1  0  0  3  0  0  0  0  0  0
  197.9320  173.2610  140.7010 C   0  0  0  0  0  3  0  0  0  0  0  0
  196.3950  176.9960  141.7330 F   0  0  0  0  0  0  0  0  0  0  0  0
  196.9910  172.9690  137.9440 C   0  0  0  0  0  1  0  0  0  0  0  0
  196.5570  173.9100  138.8790 O   0  0  0  0  0  0  0  0  0  0  0  0
  1  9  1  0  0  0  0
  2 10  1  1  0  0  0
  2 23  1  0  0  0  0
  2 13  1  0  0  0  0
  3 21  1  0  0  0  0
  3  6  1  0  0  0  0
  4 21  1  6  0  0  0
  4  5  1  0  0  0  0
  5 15  1  6  0  0  0
  5 26  1  0  0  0  0
  5 17  1  0  0  0  0
  6 11  2  6  0  0  0
  6  8  1  0  0  0  0
  6 25  1  0  0  0  0
  7 20  1  0  0  0  0
  9 20  1  0  0  0  0
 10 24  1  0  0  0  0
 13  7  1  6  0  0  0
 14  1  1  6  0  0  0
 14 17  1  0  0  0  0
 16 18  1  0  0  0  0
 16 13  1  0  0  0  0
 16 12  1  1  0  0  0
 19 36  1  6  0  0  0
 19 18  1  0  0  0  0
 22 24  1  0  0  0  0
 22 19  1  0  0  0  0
 23 14  1  0  0  0  0
 24 16  1  0  0  0  0
 25  4  1  0  0  0  0
 25 23  1  0  0  0  0
 26 28  1  0  0  0  0
 27 26  1  0  0  0  0
 28 31  1  0  0  0  0
 29 32  1  0  0  0  0
 30 31  2  0  0  0  0
 31 29  1  0  0  0  0
 32 35  1  0  0  0  0
 32 33  1  0  0  0  0
 34 35  1  0  0  0  0
 37 43  1  0  0  0  0
 37 38  1  0  0  0  0
 39 37  1  0  0  0  0
 40 38  1  0  0  0  0
 40 36  1  0  0  0  0
 41 39  1  0  0  0  0
 41 42  1  0  0  0  0
 42 40  2  0  0  0  0
 44 45  1  0  0  0  0
 45 41  1  0  0  0  0
M  END
>  <MODEL>
9

>  <REMARK>
 VINA RESULT:      -7.0      3.083      9.708
  Name = 
  7 active torsions:
  status: ('A' for Active; 'I' for Inactive)
    1  A    between atoms: N_1  and  C_11
    2  A    between atoms: N_6  and  C_19
    3  A    between atoms: N_6  and  C_33
    4  A    between atoms: C_9  and  C_11
    5  A    between atoms: C_18  and  N_22
    6  A    between atoms: C_18  and  C_27
    7  A    between atoms: O_36  and  C_38
                            x       y       z     vdW  Elec       q    Type
                         _______ _______ _______ _____ _____    ______ ____

>  <TORSDO>
F 7

$$$$
