=
 OpenBabel11062421263D

 31 33  0  0  1  0  0  0  0  0999 V2000
  188.0750  176.8710  145.8760 C   0  0  0  0  0  2  0  0  0  0  0  0
  188.9270  175.1350  142.8330 C   0  0  0  0  0  0  0  0  0  0  0  0
  187.0470  177.4810  143.6540 N   0  0  0  0  0  0  0  0  0  0  0  0
  187.9270  175.0900  142.1330 O   0  0  0  0  0  0  0  0  0  0  0  0
  188.4530  177.6250  143.2270 C   0  0  1  0  0  3  0  0  0  0  0  0
  189.1180  176.1050  145.0890 C   0  0  0  0  0  0  0  0  0  0  0  0
  189.9880  175.2760  145.7120 C   0  0  0  0  0  0  0  0  0  0  0  0
  191.0820  174.6140  144.9680 C   0  0  0  0  0  3  0  0  0  0  0  0
  189.2640  176.3820  143.6140 C   0  0  1  0  0  3  0  0  0  0  0  0
  189.7330  173.8760  143.0220 C   0  0  2  0  0  3  0  0  0  0  0  0
  190.9680  174.0740  143.7890 N   0  0  0  0  0  0  0  0  0  0  0  0
  188.6960  178.0740  141.7890 C   0  0  0  0  0  1  0  0  0  0  0  0
  186.7920  177.1670  145.0770 C   0  0  2  0  0  3  0  0  0  0  0  0
  185.8480  179.5310  144.9190 C   0  0  0  0  0  3  0  0  0  0  0  0
  184.2970  176.9310  146.8060 O   0  0  0  0  0  0  0  0  0  0  0  0
  186.0200  178.2870  145.7940 C   0  0  1  0  0  3  0  0  0  0  0  0
  184.6260  177.9090  146.0900 C   0  0  0  0  0  0  0  0  0  0  0  0
  184.3480  179.6810  144.6490 C   0  0  0  0  0  3  0  0  0  0  0  0
  183.7090  178.7210  145.4690 O   0  0  0  0  0  0  0  0  0  0  0  0
  191.0150  173.7420  141.0130 O   0  0  0  0  0  0  0  0  0  0  0  0
  189.3650  172.1670  141.2390 O   0  0  0  0  0  1  0  0  0  0  0  0
  190.0720  173.2650  141.7050 C   0  0  0  0  0  0  0  0  0  0  0  0
  191.0400  175.6890  147.9710 N   0  0  0  0  0  1  0  0  0  0  0  0
  189.1440  174.3850  147.7390 O   0  0  0  0  0  0  0  0  0  0  0  0
  190.0090  175.1080  147.1810 C   0  0  0  0  0  0  0  0  0  0  0  0
  185.5650  178.2420  141.8600 C   0  0  0  0  0  3  0  0  0  0  0  0
  185.9190  177.3350  142.7660 C   0  0  0  0  0  3  0  0  0  0  0  0
  184.6020  177.7730  139.7660 O   0  0  0  0  0  0  0  0  0  0  0  0
  184.4070  178.0610  140.9750 C   0  0  0  0  0  0  0  0  0  0  0  0
  183.0060  178.2450  141.4630 C   0  0  0  0  0  2  0  0  0  0  0  0
  182.0690  177.9310  140.4020 N   0  0  0  0  0  1  0  0  0  0  0  0
  2 10  1  0  0  0  0
  3 13  1  0  0  0  0
  4  2  2  0  0  0  0
  5 12  1  6  0  0  0
  5  9  1  0  0  0  0
  5  3  1  0  0  0  0
  6  7  2  0  0  0  0
  6  1  1  0  0  0  0
  7 25  1  0  0  0  0
  8  7  1  0  0  0  0
  9  2  1  6  0  0  0
  9  6  1  0  0  0  0
 10 22  1  6  0  0  0
 10 11  1  0  0  0  0
 11  8  2  0  0  0  0
 13 16  1  0  0  0  0
 13  1  1  1  0  0  0
 16 14  1  6  0  0  0
 16 17  1  0  0  0  0
 17 15  2  0  0  0  0
 18 14  2  0  0  0  0
 18 19  1  0  0  0  0
 19 17  1  0  0  0  0
 20 22  2  0  0  0  0
 21 22  1  0  0  0  0
 25 24  2  0  0  0  0
 25 23  1  0  0  0  0
 26 27  2  0  0  0  0
 27  3  1  0  0  0  0
 28 29  2  0  0  0  0
 29 30  1  0  0  0  0
 29 26  1  0  0  0  0
 31 30  1  0  0  0  0
M  END
>  <MODEL>
1

>  <REMARK>
 VINA RESULT:      -7.6      0.000      0.000
  Name = 
  6 active torsions:
  status: ('A' for Active; 'I' for Inactive)
    1  A    between atoms: C_1  and  C_20
    2  A    between atoms: N_9  and  C_11
    3  A    between atoms: C_10  and  C_20
    4  A    between atoms: C_15  and  C_30
    5  A    between atoms: C_23  and  CA_27
    6  A    between atoms: C_24  and  C_31
                            x       y       z     vdW  Elec       q    Type
                         _______ _______ _______ _____ _____    ______ ____

>  <TORSDO>
F 6

$$$$
=
 OpenBabel11062421263D

 31 33  0  0  1  0  0  0  0  0999 V2000
  190.3730  174.6720  144.7340 C   0  0  0  0  0  2  0  0  0  0  0  0
  188.7390  174.5720  141.5220 C   0  0  0  0  0  0  0  0  0  0  0  0
  188.4920  176.2440  144.1410 N   0  0  0  0  0  0  0  0  0  0  0  0
  187.5620  174.8520  141.6900 O   0  0  0  0  0  0  0  0  0  0  0  0
  189.3550  176.5830  142.9910 C   0  0  1  0  0  3  0  0  0  0  0  0
  190.4800  174.3730  143.2530 C   0  0  0  0  0  0  0  0  0  0  0  0
  191.2510  173.3550  142.8040 C   0  0  0  0  0  0  0  0  0  0  0  0
  191.4520  173.1280  141.3550 C   0  0  0  0  0  3  0  0  0  0  0  0
  189.8210  175.3100  142.2730 C   0  0  1  0  0  3  0  0  0  0  0  0
  189.0820  173.3770  140.6690 C   0  0  2  0  0  3  0  0  0  0  0  0
  190.5210  173.2030  140.4470 N   0  0  0  0  0  0  0  0  0  0  0  0
  188.8420  177.6560  142.0340 C   0  0  0  0  0  1  0  0  0  0  0  0
  189.0280  175.2980  145.1430 C   0  0  2  0  0  3  0  0  0  0  0  0
  189.7060  174.9540  147.5780 C   0  0  0  0  0  3  0  0  0  0  0  0
  190.2030  178.0230  145.8260 O   0  0  0  0  0  0  0  0  0  0  0  0
  189.1930  175.9440  146.5280 C   0  0  1  0  0  3  0  0  0  0  0  0
  190.2320  176.9900  146.5410 C   0  0  0  0  0  0  0  0  0  0  0  0
  191.0950  175.4380  148.0040 C   0  0  0  0  0  3  0  0  0  0  0  0
  191.2670  176.7040  147.3970 O   0  0  0  0  0  0  0  0  0  0  0  0
  187.9220  172.4130  138.8190 O   0  0  0  0  0  1  0  0  0  0  0  0
  188.2590  174.6780  138.7020 O   0  0  0  0  0  0  0  0  0  0  0  0
  188.3940  173.4580  139.3490 C   0  0  0  0  0  0  0  0  0  0  0  0
  193.4090  172.8680  144.0210 N   0  0  0  0  0  1  0  0  0  0  0  0
  191.5940  171.4430  144.1600 O   0  0  0  0  0  0  0  0  0  0  0  0
  192.0660  172.5180  143.7100 C   0  0  0  0  0  0  0  0  0  0  0  0
  186.5690  177.6010  144.8170 C   0  0  0  0  0  3  0  0  0  0  0  0
  187.0790  176.5220  144.2290 C   0  0  0  0  0  3  0  0  0  0  0  0
  184.4690  177.9720  143.8250 O   0  0  0  0  0  0  0  0  0  0  0  0
  185.1250  177.8490  144.8920 C   0  0  0  0  0  0  0  0  0  0  0  0
  184.4180  177.9960  146.2020 C   0  0  0  0  0  2  0  0  0  0  0  0
  185.2380  178.7590  147.1230 N   0  0  0  0  0  1  0  0  0  0  0  0
  2  4  2  0  0  0  0
  3 27  1  0  0  0  0
  3 13  1  0  0  0  0
  5 12  1  6  0  0  0
  5  3  1  0  0  0  0
  6  1  1  0  0  0  0
  7  6  2  0  0  0  0
  7 25  1  0  0  0  0
  8  7  1  0  0  0  0
  9  2  1  1  0  0  0
  9  5  1  0  0  0  0
  9  6  1  0  0  0  0
 10 22  1  6  0  0  0
 10  2  1  0  0  0  0
 11 10  1  0  0  0  0
 11  8  2  0  0  0  0
 13  1  1  6  0  0  0
 13 16  1  0  0  0  0
 14 18  2  0  0  0  0
 15 17  2  0  0  0  0
 16 17  1  0  0  0  0
 16 14  1  1  0  0  0
 17 19  1  0  0  0  0
 19 18  1  0  0  0  0
 20 22  1  0  0  0  0
 21 22  2  0  0  0  0
 25 23  1  0  0  0  0
 25 24  2  0  0  0  0
 26 29  1  0  0  0  0
 27 26  2  0  0  0  0
 28 29  2  0  0  0  0
 29 30  1  0  0  0  0
 30 31  1  0  0  0  0
M  END
>  <MODEL>
2

>  <REMARK>
 VINA RESULT:      -7.1      2.653      4.403
  Name = 
  6 active torsions:
  status: ('A' for Active; 'I' for Inactive)
    1  A    between atoms: C_1  and  C_20
    2  A    between atoms: N_9  and  C_11
    3  A    between atoms: C_10  and  C_20
    4  A    between atoms: C_15  and  C_30
    5  A    between atoms: C_23  and  CA_27
    6  A    between atoms: C_24  and  C_31
                            x       y       z     vdW  Elec       q    Type
                         _______ _______ _______ _____ _____    ______ ____

>  <TORSDO>
F 6

$$$$
=
 OpenBabel11062421263D

 31 33  0  0  1  0  0  0  0  0999 V2000
  188.4630  176.4370  145.4130 C   0  0  0  0  0  2  0  0  0  0  0  0
  187.2390  176.9450  142.0610 C   0  0  0  0  0  0  0  0  0  0  0  0
  189.6340  175.4670  143.4000 N   0  0  0  0  0  0  0  0  0  0  0  0
  188.2040  177.0220  141.3160 O   0  0  0  0  0  0  0  0  0  0  0  0
  188.3120  174.8700  143.1220 C   0  0  1  0  0  3  0  0  0  0  0  0
  187.2700  176.6630  144.5070 C   0  0  0  0  0  0  0  0  0  0  0  0
  186.2160  177.4040  144.9200 C   0  0  0  0  0  0  0  0  0  0  0  0
  184.9990  177.5360  144.0870 C   0  0  0  0  0  3  0  0  0  0  0  0
  187.2140  175.9390  143.1860 C   0  0  1  0  0  3  0  0  0  0  0  0
  186.1430  177.9720  141.9310 C   0  0  2  0  0  3  0  0  0  0  0  0
  184.9880  177.7170  142.7980 N   0  0  0  0  0  0  0  0  0  0  0  0
  188.2030  173.9740  141.8910 C   0  0  0  0  0  1  0  0  0  0  0  0
  189.7870  176.2360  144.6540 C   0  0  2  0  0  3  0  0  0  0  0  0
  191.5320  176.6340  146.4720 C   0  0  0  0  0  3  0  0  0  0  0  0
  189.4640  173.7290  146.3530 O   0  0  0  0  0  0  0  0  0  0  0  0
  190.8050  175.5960  145.6120 C   0  0  1  0  0  3  0  0  0  0  0  0
  190.1630  174.7370  146.6240 C   0  0  0  0  0  0  0  0  0  0  0  0
  191.1170  176.3780  147.9240 C   0  0  0  0  0  3  0  0  0  0  0  0
  190.3790  175.1720  147.9080 O   0  0  0  0  0  0  0  0  0  0  0  0
  184.5820  178.6400  140.2530 O   0  0  0  0  0  1  0  0  0  0  0  0
  186.4460  177.5450  139.4890 O   0  0  0  0  0  0  0  0  0  0  0  0
  185.6770  178.0690  140.5180 C   0  0  0  0  0  0  0  0  0  0  0  0
  186.0380  177.1530  147.4270 N   0  0  0  0  0  1  0  0  0  0  0  0
  186.0880  179.2340  146.4200 O   0  0  0  0  0  0  0  0  0  0  0  0
  186.1380  177.9860  146.2780 C   0  0  0  0  0  0  0  0  0  0  0  0
  191.7750  174.8320  142.3960 C   0  0  0  0  0  3  0  0  0  0  0  0
  190.6990  175.6130  142.4370 C   0  0  0  0  0  3  0  0  0  0  0  0
  192.7710  174.3970  140.3100 O   0  0  0  0  0  0  0  0  0  0  0  0
  192.8420  175.0140  141.4050 C   0  0  0  0  0  0  0  0  0  0  0  0
  194.0290  175.8820  141.6750 C   0  0  0  0  0  2  0  0  0  0  0  0
  194.2790  175.9470  143.1020 N   0  0  0  0  0  1  0  0  0  0  0  0
  3 13  1  0  0  0  0
  4  2  2  0  0  0  0
  5 12  1  6  0  0  0
  5  9  1  0  0  0  0
  5  3  1  0  0  0  0
  6  7  2  0  0  0  0
  6  1  1  0  0  0  0
  7 25  1  0  0  0  0
  8  7  1  0  0  0  0
  9  2  1  6  0  0  0
  9  6  1  0  0  0  0
 10 22  1  6  0  0  0
 10  2  1  0  0  0  0
 10 11  1  0  0  0  0
 11  8  2  0  0  0  0
 13  1  1  1  0  0  0
 13 16  1  0  0  0  0
 14 18  2  0  0  0  0
 15 17  2  0  0  0  0
 16 14  1  1  0  0  0
 16 17  1  0  0  0  0
 17 19  1  0  0  0  0
 19 18  1  0  0  0  0
 20 22  1  0  0  0  0
 21 22  2  0  0  0  0
 25 24  2  0  0  0  0
 25 23  1  0  0  0  0
 26 27  2  0  0  0  0
 27  3  1  0  0  0  0
 28 29  2  0  0  0  0
 29 30  1  0  0  0  0
 29 26  1  0  0  0  0
 30 31  1  0  0  0  0
M  END
>  <MODEL>
3

>  <REMARK>
 VINA RESULT:      -7.1      2.083      6.359
  Name = 
  6 active torsions:
  status: ('A' for Active; 'I' for Inactive)
    1  A    between atoms: C_1  and  C_20
    2  A    between atoms: N_9  and  C_11
    3  A    between atoms: C_10  and  C_20
    4  A    between atoms: C_15  and  C_30
    5  A    between atoms: C_23  and  CA_27
    6  A    between atoms: C_24  and  C_31
                            x       y       z     vdW  Elec       q    Type
                         _______ _______ _______ _____ _____    ______ ____

>  <TORSDO>
F 6

$$$$
=
 OpenBabel11062421263D

 31 33  0  0  1  0  0  0  0  0999 V2000
  190.6870  174.3670  141.9350 C   0  0  0  0  0  2  0  0  0  0  0  0
  192.2450  176.0060  144.7420 C   0  0  0  0  0  0  0  0  0  0  0  0
  189.3420  175.3030  143.8520 N   0  0  0  0  0  0  0  0  0  0  0  0
  191.5010  176.8990  145.1160 O   0  0  0  0  0  0  0  0  0  0  0  0
  190.2150  174.4400  144.6730 C   0  0  1  0  0  3  0  0  0  0  0  0
  191.8990  174.4860  142.8350 C   0  0  0  0  0  0  0  0  0  0  0  0
  193.1480  174.3120  142.3430 C   0  0  0  0  0  0  0  0  0  0  0  0
  194.3290  174.3140  143.2360 C   0  0  0  0  0  3  0  0  0  0  0  0
  191.6890  174.6690  144.3160 C   0  0  1  0  0  3  0  0  0  0  0  0
  193.7110  176.3120  144.5680 C   0  0  2  0  0  3  0  0  0  0  0  0
  194.5230  175.1400  144.2230 N   0  0  0  0  0  0  0  0  0  0  0  0
  189.9580  174.4280  146.1780 C   0  0  0  0  0  1  0  0  0  0  0  0
  189.4960  175.2330  142.3830 C   0  0  2  0  0  3  0  0  0  0  0  0
  188.1140  175.2020  140.2390 C   0  0  0  0  0  3  0  0  0  0  0  0
  188.2950  172.4360  142.4850 O   0  0  0  0  0  0  0  0  0  0  0  0
  188.2270  174.7140  141.6860 C   0  0  1  0  0  3  0  0  0  0  0  0
  188.2300  173.2480  141.5290 C   0  0  0  0  0  0  0  0  0  0  0  0
  188.2190  173.9650  139.3430 C   0  0  0  0  0  3  0  0  0  0  0  0
  188.1910  172.8520  140.2150 O   0  0  0  0  0  0  0  0  0  0  0  0
  194.1160  176.3780  146.9190 O   0  0  0  0  0  1  0  0  0  0  0  0
  194.9600  178.1410  145.7220 O   0  0  0  0  0  0  0  0  0  0  0  0
  194.2670  176.9420  145.7990 C   0  0  0  0  0  0  0  0  0  0  0  0
  193.4140  172.5890  140.5170 N   0  0  0  0  0  1  0  0  0  0  0  0
  193.6810  174.8470  140.0970 O   0  0  0  0  0  0  0  0  0  0  0  0
  193.4020  173.9490  140.9330 C   0  0  0  0  0  0  0  0  0  0  0  0
  187.2760  176.3230  144.6810 C   0  0  0  0  0  3  0  0  0  0  0  0
  188.5610  176.4100  144.3520 C   0  0  0  0  0  3  0  0  0  0  0  0
  186.6220  178.5810  144.5970 O   0  0  0  0  0  0  0  0  0  0  0  0
  186.5110  177.4710  145.1810 C   0  0  0  0  0  0  0  0  0  0  0  0
  185.6330  177.3690  146.3870 C   0  0  0  0  0  2  0  0  0  0  0  0
  184.3630  178.0200  146.1290 N   0  0  0  0  0  1  0  0  0  0  0  0
  1  6  1  0  0  0  0
  2  4  2  0  0  0  0
  3 27  1  0  0  0  0
  3  5  1  0  0  0  0
  5 12  1  1  0  0  0
  7  6  2  0  0  0  0
  7  8  1  0  0  0  0
  8 11  2  0  0  0  0
  9  6  1  6  0  0  0
  9  5  1  0  0  0  0
  9  2  1  0  0  0  0
 10  2  1  0  0  0  0
 10 22  1  1  0  0  0
 11 10  1  0  0  0  0
 13  1  1  1  0  0  0
 13  3  1  0  0  0  0
 16 14  1  6  0  0  0
 16 13  1  0  0  0  0
 17 16  1  0  0  0  0
 17 15  2  0  0  0  0
 18 19  1  0  0  0  0
 18 14  2  0  0  0  0
 19 17  1  0  0  0  0
 21 22  2  0  0  0  0
 22 20  1  0  0  0  0
 23 25  1  0  0  0  0
 24 25  2  0  0  0  0
 25  7  1  0  0  0  0
 26 29  1  0  0  0  0
 27 26  2  0  0  0  0
 28 29  2  0  0  0  0
 29 30  1  0  0  0  0
 31 30  1  0  0  0  0
M  END
>  <MODEL>
4

>  <REMARK>
 VINA RESULT:      -6.8      2.989      6.032
  Name = 
  6 active torsions:
  status: ('A' for Active; 'I' for Inactive)
    1  A    between atoms: C_1  and  C_20
    2  A    between atoms: N_9  and  C_11
    3  A    between atoms: C_10  and  C_20
    4  A    between atoms: C_15  and  C_30
    5  A    between atoms: C_23  and  CA_27
    6  A    between atoms: C_24  and  C_31
                            x       y       z     vdW  Elec       q    Type
                         _______ _______ _______ _____ _____    ______ ____

>  <TORSDO>
F 6

$$$$
=
 OpenBabel11062421263D

 31 33  0  0  1  0  0  0  0  0999 V2000
  188.9570  175.7100  144.0630 C   0  0  0  0  0  2  0  0  0  0  0  0
  190.9940  173.7860  141.7950 C   0  0  0  0  0  0  0  0  0  0  0  0
  190.9870  174.4310  144.8440 N   0  0  0  0  0  0  0  0  0  0  0  0
  192.1530  173.8590  142.1760 O   0  0  0  0  0  0  0  0  0  0  0  0
  190.3040  173.2830  144.2130 C   0  0  1  0  0  3  0  0  0  0  0  0
  189.0310  174.8890  142.7920 C   0  0  0  0  0  0  0  0  0  0  0  0
  188.2700  175.2030  141.7180 C   0  0  0  0  0  0  0  0  0  0  0  0
  188.2500  174.3400  140.5150 C   0  0  0  0  0  3  0  0  0  0  0  0
  189.8660  173.6340  142.7860 C   0  0  1  0  0  3  0  0  0  0  0  0
  190.7000  174.0050  140.3320 C   0  0  2  0  0  3  0  0  0  0  0  0
  189.2960  173.7860  139.9720 N   0  0  0  0  0  0  0  0  0  0  0  0
  190.9990  171.9270  144.3100 C   0  0  0  0  0  1  0  0  0  0  0  0
  190.2700  175.7240  144.8670 C   0  0  2  0  0  3  0  0  0  0  0  0
  189.3910  177.6170  146.3350 C   0  0  0  0  0  3  0  0  0  0  0  0
  188.9420  174.1660  147.1220 O   0  0  0  0  0  0  0  0  0  0  0  0
  189.9600  176.1950  146.2980 C   0  0  1  0  0  3  0  0  0  0  0  0
  188.8870  175.4060  146.9300 C   0  0  0  0  0  0  0  0  0  0  0  0
  187.9530  177.5070  146.8500 C   0  0  0  0  0  3  0  0  0  0  0  0
  187.7910  176.1640  147.2620 O   0  0  0  0  0  0  0  0  0  0  0  0
  191.3980  171.8770  139.5060 O   0  0  0  0  0  1  0  0  0  0  0  0
  192.5330  173.6840  138.6660 O   0  0  0  0  0  0  0  0  0  0  0  0
  191.5610  173.1300  139.4860 C   0  0  0  0  0  0  0  0  0  0  0  0
  187.5150  177.4920  140.9660 N   0  0  0  0  0  1  0  0  0  0  0  0
  186.2920  176.2560  142.4900 O   0  0  0  0  0  0  0  0  0  0  0  0
  187.2960  176.3150  141.7340 C   0  0  0  0  0  0  0  0  0  0  0  0
  193.1730  175.5280  144.9400 C   0  0  0  0  0  3  0  0  0  0  0  0
  192.3890  174.4810  145.1800 C   0  0  0  0  0  3  0  0  0  0  0  0
  194.9290  175.6590  146.4990 O   0  0  0  0  0  0  0  0  0  0  0  0
  194.5980  175.5420  145.2900 C   0  0  0  0  0  0  0  0  0  0  0  0
  195.6670  175.4570  144.2480 C   0  0  0  0  0  2  0  0  0  0  0  0
  196.1100  176.7900  143.8850 N   0  0  0  0  0  1  0  0  0  0  0  0
  2  4  2  0  0  0  0
  3 13  1  0  0  0  0
  3 27  1  0  0  0  0
  5 12  1  6  0  0  0
  5  3  1  0  0  0  0
  6  1  1  0  0  0  0
  7 25  1  0  0  0  0
  7  6  2  0  0  0  0
  8  7  1  0  0  0  0
  9  2  1  6  0  0  0
  9  6  1  0  0  0  0
  9  5  1  0  0  0  0
 10 22  1  6  0  0  0
 10  2  1  0  0  0  0
 11 10  1  0  0  0  0
 11  8  2  0  0  0  0
 13  1  1  6  0  0  0
 13 16  1  0  0  0  0
 14 18  2  0  0  0  0
 16 14  1  6  0  0  0
 16 17  1  0  0  0  0
 17 15  2  0  0  0  0
 17 19  1  0  0  0  0
 18 19  1  0  0  0  0
 21 22  2  0  0  0  0
 22 20  1  0  0  0  0
 23 25  1  0  0  0  0
 25 24  2  0  0  0  0
 26 27  2  0  0  0  0
 26 29  1  0  0  0  0
 29 28  2  0  0  0  0
 30 29  1  0  0  0  0
 31 30  1  0  0  0  0
M  END
>  <MODEL>
5

>  <REMARK>
 VINA RESULT:      -6.7      2.736      6.603
  Name = 
  6 active torsions:
  status: ('A' for Active; 'I' for Inactive)
    1  A    between atoms: C_1  and  C_20
    2  A    between atoms: N_9  and  C_11
    3  A    between atoms: C_10  and  C_20
    4  A    between atoms: C_15  and  C_30
    5  A    between atoms: C_23  and  CA_27
    6  A    between atoms: C_24  and  C_31
                            x       y       z     vdW  Elec       q    Type
                         _______ _______ _______ _____ _____    ______ ____

>  <TORSDO>
F 6

$$$$
=
 OpenBabel11062421263D

 31 33  0  0  1  0  0  0  0  0999 V2000
  187.1650  177.3370  144.6530 C   0  0  0  0  0  2  0  0  0  0  0  0
  190.5480  176.3520  145.4160 C   0  0  0  0  0  0  0  0  0  0  0  0
  188.7890  176.6280  142.8570 N   0  0  0  0  0  0  0  0  0  0  0  0
  190.8700  175.4740  144.6310 O   0  0  0  0  0  0  0  0  0  0  0  0
  189.6350  177.6950  143.4290 C   0  0  1  0  0  3  0  0  0  0  0  0
  188.3650  177.4830  145.5650 C   0  0  0  0  0  0  0  0  0  0  0  0
  188.2060  177.6810  146.8940 C   0  0  0  0  0  0  0  0  0  0  0  0
  189.3680  177.9390  147.7750 C   0  0  0  0  0  3  0  0  0  0  0  0
  189.7410  177.5410  144.9520 C   0  0  1  0  0  3  0  0  0  0  0  0
  190.8390  176.1530  146.8810 C   0  0  2  0  0  3  0  0  0  0  0  0
  190.5100  177.3160  147.7120 N   0  0  0  0  0  0  0  0  0  0  0  0
  190.9830  177.9430  142.7580 C   0  0  0  0  0  1  0  0  0  0  0  0
  187.4310  176.4580  143.4170 C   0  0  2  0  0  3  0  0  0  0  0  0
  185.0150  177.1770  143.0230 C   0  0  0  0  0  3  0  0  0  0  0  0
  187.6690  177.9260  140.7600 O   0  0  0  0  0  0  0  0  0  0  0  0
  186.3310  176.7330  142.3780 C   0  0  1  0  0  3  0  0  0  0  0  0
  186.6580  177.8730  141.5020 C   0  0  0  0  0  0  0  0  0  0  0  0
  184.7670  178.6210  142.5790 C   0  0  0  0  0  3  0  0  0  0  0  0
  185.7530  178.9010  141.6040 O   0  0  0  0  0  0  0  0  0  0  0  0
  192.6230  174.5840  147.1060 O   0  0  0  0  0  0  0  0  0  0  0  0
  193.2240  176.7920  147.2560 O   0  0  0  0  0  1  0  0  0  0  0  0
  192.2710  175.7970  147.0900 C   0  0  0  0  0  0  0  0  0  0  0  0
  186.2770  179.0950  147.7030 N   0  0  0  0  0  1  0  0  0  0  0  0
  186.2880  176.7980  147.9690 O   0  0  0  0  0  0  0  0  0  0  0  0
  186.8750  177.8170  147.5230 C   0  0  0  0  0  0  0  0  0  0  0  0
  188.7330  174.3380  141.9930 C   0  0  0  0  0  3  0  0  0  0  0  0
  189.2600  175.5590  142.0100 C   0  0  0  0  0  3  0  0  0  0  0  0
  189.6780  172.2120  141.6410 O   0  0  0  0  0  0  0  0  0  0  0  0
  189.2420  173.2730  141.1210 C   0  0  0  0  0  0  0  0  0  0  0  0
  189.2910  173.4270  139.6350 C   0  0  0  0  0  2  0  0  0  0  0  0
  188.1910  172.7030  139.0270 N   0  0  0  0  0  1  0  0  0  0  0  0
  1  6  1  0  0  0  0
  2 10  1  0  0  0  0
  3 13  1  0  0  0  0
  3  5  1  0  0  0  0
  4  2  2  0  0  0  0
  5 12  1  6  0  0  0
  5  9  1  0  0  0  0
  6  7  2  0  0  0  0
  7 25  1  0  0  0  0
  7  8  1  0  0  0  0
  9  2  1  6  0  0  0
  9  6  1  0  0  0  0
 10 22  1  6  0  0  0
 10 11  1  0  0  0  0
 11  8  2  0  0  0  0
 13  1  1  1  0  0  0
 15 17  2  0  0  0  0
 16 14  1  1  0  0  0
 16 13  1  0  0  0  0
 17 19  1  0  0  0  0
 17 16  1  0  0  0  0
 18 14  2  0  0  0  0
 19 18  1  0  0  0  0
 22 20  2  0  0  0  0
 22 21  1  0  0  0  0
 25 23  1  0  0  0  0
 25 24  2  0  0  0  0
 26 27  2  0  0  0  0
 27  3  1  0  0  0  0
 29 28  2  0  0  0  0
 29 26  1  0  0  0  0
 30 29  1  0  0  0  0
 31 30  1  0  0  0  0
M  END
>  <MODEL>
6

>  <REMARK>
 VINA RESULT:      -6.7      2.419      4.922
  Name = 
  6 active torsions:
  status: ('A' for Active; 'I' for Inactive)
    1  A    between atoms: C_1  and  C_20
    2  A    between atoms: N_9  and  C_11
    3  A    between atoms: C_10  and  C_20
    4  A    between atoms: C_15  and  C_30
    5  A    between atoms: C_23  and  CA_27
    6  A    between atoms: C_24  and  C_31
                            x       y       z     vdW  Elec       q    Type
                         _______ _______ _______ _____ _____    ______ ____

>  <TORSDO>
F 6

$$$$
=
 OpenBabel11062421263D

 31 33  0  0  1  0  0  0  0  0999 V2000
  189.7740  175.8770  144.1120 C   0  0  0  0  0  2  0  0  0  0  0  0
  192.7860  173.8970  144.1860 C   0  0  0  0  0  0  0  0  0  0  0  0
  190.8220  174.9560  142.0100 N   0  0  0  0  0  0  0  0  0  0  0  0
  192.7090  173.0620  143.2980 O   0  0  0  0  0  0  0  0  0  0  0  0
  192.0240  175.6660  142.4920 C   0  0  1  0  0  3  0  0  0  0  0  0
  191.0870  175.5700  144.8020 C   0  0  0  0  0  0  0  0  0  0  0  0
  191.1980  175.6470  146.1480 C   0  0  0  0  0  0  0  0  0  0  0  0
  192.5030  175.4620  146.8210 C   0  0  0  0  0  3  0  0  0  0  0  0
  192.3080  175.3100  143.9570 C   0  0  1  0  0  3  0  0  0  0  0  0
  193.2230  173.4520  145.5590 C   0  0  2  0  0  3  0  0  0  0  0  0
  193.3850  174.5540  146.5130 N   0  0  0  0  0  0  0  0  0  0  0  0
  193.2660  175.6020  141.6090 C   0  0  0  0  0  1  0  0  0  0  0  0
  189.5760  175.1100  142.7920 C   0  0  2  0  0  3  0  0  0  0  0  0
  187.0660  175.3230  142.3880 C   0  0  0  0  0  3  0  0  0  0  0  0
  189.3360  178.0560  142.0550 O   0  0  0  0  0  0  0  0  0  0  0  0
  188.4640  175.8040  141.9880 C   0  0  1  0  0  3  0  0  0  0  0  0
  188.3930  177.2520  142.2590 C   0  0  0  0  0  0  0  0  0  0  0  0
  186.3450  176.5210  143.0120 C   0  0  0  0  0  3  0  0  0  0  0  0
  187.1890  177.6360  142.7980 O   0  0  0  0  0  0  0  0  0  0  0  0
  194.4900  171.4310  145.6340 O   0  0  0  0  0  1  0  0  0  0  0  0
  195.6960  173.3400  145.2330 O   0  0  0  0  0  0  0  0  0  0  0  0
  194.4990  172.6850  145.4820 C   0  0  0  0  0  0  0  0  0  0  0  0
  189.8350  177.4560  147.2640 N   0  0  0  0  0  1  0  0  0  0  0  0
  189.3710  175.2150  147.5940 O   0  0  0  0  0  0  0  0  0  0  0  0
  190.0780  176.0770  147.0130 C   0  0  0  0  0  0  0  0  0  0  0  0
  190.0900  172.7970  141.1160 C   0  0  0  0  0  3  0  0  0  0  0  0
  190.8190  173.9050  141.0210 C   0  0  0  0  0  3  0  0  0  0  0  0
  190.7760  170.6970  140.3100 O   0  0  0  0  0  0  0  0  0  0  0  0
  190.1160  171.7460  140.0920 C   0  0  0  0  0  0  0  0  0  0  0  0
  189.4110  171.9030  138.7830 C   0  0  0  0  0  2  0  0  0  0  0  0
  188.1910  172.6650  138.9670 N   0  0  0  0  0  1  0  0  0  0  0  0
  1  6  1  0  0  0  0
  2 10  1  0  0  0  0
  3  5  1  0  0  0  0
  3 13  1  0  0  0  0
  4  2  2  0  0  0  0
  5 12  1  6  0  0  0
  5  9  1  0  0  0  0
  6  7  2  0  0  0  0
  7  8  1  0  0  0  0
  7 25  1  0  0  0  0
  9  2  1  6  0  0  0
  9  6  1  0  0  0  0
 10 22  1  6  0  0  0
 10 11  1  0  0  0  0
 11  8  2  0  0  0  0
 13  1  1  1  0  0  0
 14 18  2  0  0  0  0
 15 17  2  0  0  0  0
 16 17  1  0  0  0  0
 16 14  1  1  0  0  0
 16 13  1  0  0  0  0
 17 19  1  0  0  0  0
 19 18  1  0  0  0  0
 21 22  2  0  0  0  0
 22 20  1  0  0  0  0
 25 23  1  0  0  0  0
 25 24  2  0  0  0  0
 27 26  2  0  0  0  0
 27  3  1  0  0  0  0
 29 28  2  0  0  0  0
 29 26  1  0  0  0  0
 30 31  1  0  0  0  0
 30 29  1  0  0  0  0
M  END
>  <MODEL>
7

>  <REMARK>
 VINA RESULT:      -6.5      3.054      5.404
  Name = 
  6 active torsions:
  status: ('A' for Active; 'I' for Inactive)
    1  A    between atoms: C_1  and  C_20
    2  A    between atoms: N_9  and  C_11
    3  A    between atoms: C_10  and  C_20
    4  A    between atoms: C_15  and  C_30
    5  A    between atoms: C_23  and  CA_27
    6  A    between atoms: C_24  and  C_31
                            x       y       z     vdW  Elec       q    Type
                         _______ _______ _______ _____ _____    ______ ____

>  <TORSDO>
F 6

$$$$
=
 OpenBabel11062421263D

 31 33  0  0  1  0  0  0  0  0999 V2000
  187.0970  178.1080  144.7390 C   0  0  0  0  0  2  0  0  0  0  0  0
  190.0500  176.0410  144.8160 C   0  0  0  0  0  0  0  0  0  0  0  0
  188.4090  177.5720  142.6520 N   0  0  0  0  0  0  0  0  0  0  0  0
  190.0840  175.3960  143.7790 O   0  0  0  0  0  0  0  0  0  0  0  0
  189.5430  178.1310  143.4170 C   0  0  1  0  0  3  0  0  0  0  0  0
  188.3020  177.6270  145.5210 C   0  0  0  0  0  0  0  0  0  0  0  0
  188.2300  177.4380  146.8590 C   0  0  0  0  0  0  0  0  0  0  0  0
  189.4300  177.0790  147.6470 C   0  0  0  0  0  3  0  0  0  0  0  0
  189.6220  177.4890  144.8080 C   0  0  1  0  0  3  0  0  0  0  0  0
  190.2920  175.3250  146.1200 C   0  0  2  0  0  3  0  0  0  0  0  0
  190.3350  176.2150  147.2850 N   0  0  0  0  0  0  0  0  0  0  0  0
  190.8920  178.1920  142.7080 C   0  0  0  0  0  1  0  0  0  0  0  0
  187.0710  177.6190  143.2800 C   0  0  2  0  0  3  0  0  0  0  0  0
  185.1010  177.6650  141.6600 C   0  0  0  0  0  3  0  0  0  0  0  0
  185.5840  180.1050  144.2190 O   0  0  0  0  0  0  0  0  0  0  0  0
  186.0850  178.4950  142.4900 C   0  0  1  0  0  3  0  0  0  0  0  0
  185.1900  179.2680  143.3690 C   0  0  0  0  0  0  0  0  0  0  0  0
  183.7070  177.9160  142.2440 C   0  0  0  0  0  3  0  0  0  0  0  0
  183.8640  178.9540  143.1910 O   0  0  0  0  0  0  0  0  0  0  0  0
  192.5630  174.9150  146.7290 O   0  0  0  0  0  1  0  0  0  0  0  0
  191.6370  173.3920  145.2870 O   0  0  0  0  0  0  0  0  0  0  0  0
  191.5580  174.5400  146.0620 C   0  0  0  0  0  0  0  0  0  0  0  0
  185.9410  176.7970  147.7130 N   0  0  0  0  0  1  0  0  0  0  0  0
  186.8760  178.8590  148.1860 O   0  0  0  0  0  0  0  0  0  0  0  0
  187.0090  177.7350  147.6380 C   0  0  0  0  0  0  0  0  0  0  0  0
  188.0460  175.4950  141.4070 C   0  0  0  0  0  3  0  0  0  0  0  0
  188.5290  176.7320  141.4850 C   0  0  0  0  0  3  0  0  0  0  0  0
  187.8170  175.1300  139.0940 O   0  0  0  0  0  0  0  0  0  0  0  0
  188.1910  174.6680  140.2030 C   0  0  0  0  0  0  0  0  0  0  0  0
  188.7370  173.2770  140.2650 C   0  0  0  0  0  2  0  0  0  0  0  0
  188.9170  172.8770  141.6470 N   0  0  0  0  0  1  0  0  0  0  0  0
  1  6  1  0  0  0  0
  2 10  1  0  0  0  0
  3 13  1  0  0  0  0
  3  5  1  0  0  0  0
  4  2  2  0  0  0  0
  5 12  1  6  0  0  0
  5  9  1  0  0  0  0
  6  7  2  0  0  0  0
  7 25  1  0  0  0  0
  7  8  1  0  0  0  0
  9  2  1  6  0  0  0
  9  6  1  0  0  0  0
 10 22  1  6  0  0  0
 10 11  1  0  0  0  0
 11  8  2  0  0  0  0
 13  1  1  1  0  0  0
 14 18  2  0  0  0  0
 16 14  1  6  0  0  0
 16 13  1  0  0  0  0
 16 17  1  0  0  0  0
 17 15  2  0  0  0  0
 18 19  1  0  0  0  0
 19 17  1  0  0  0  0
 21 22  2  0  0  0  0
 22 20  1  0  0  0  0
 25 23  1  0  0  0  0
 25 24  2  0  0  0  0
 26 27  2  0  0  0  0
 27  3  1  0  0  0  0
 28 29  2  0  0  0  0
 29 30  1  0  0  0  0
 29 26  1  0  0  0  0
 30 31  1  0  0  0  0
M  END
>  <MODEL>
8

>  <REMARK>
 VINA RESULT:      -6.3      2.440      4.057
  Name = 
  6 active torsions:
  status: ('A' for Active; 'I' for Inactive)
    1  A    between atoms: C_1  and  C_20
    2  A    between atoms: N_9  and  C_11
    3  A    between atoms: C_10  and  C_20
    4  A    between atoms: C_15  and  C_30
    5  A    between atoms: C_23  and  CA_27
    6  A    between atoms: C_24  and  C_31
                            x       y       z     vdW  Elec       q    Type
                         _______ _______ _______ _____ _____    ______ ____

>  <TORSDO>
F 6

$$$$
=
 OpenBabel11062421263D

 31 33  0  0  1  0  0  0  0  0999 V2000
  191.1320  174.5580  143.2520 C   0  0  0  0  0  2  0  0  0  0  0  0
  188.1810  175.6470  141.4890 C   0  0  0  0  0  0  0  0  0  0  0  0
  189.9830  173.1030  141.5400 N   0  0  0  0  0  0  0  0  0  0  0  0
  188.2260  175.1840  140.3600 O   0  0  0  0  0  0  0  0  0  0  0  0
  188.7940  173.3240  142.3890 C   0  0  1  0  0  3  0  0  0  0  0  0
  189.8700  175.3970  143.2640 C   0  0  0  0  0  0  0  0  0  0  0  0
  189.8390  176.5930  143.8950 C   0  0  0  0  0  0  0  0  0  0  0  0
  188.5820  177.3660  144.0110 C   0  0  0  0  0  3  0  0  0  0  0  0
  188.6080  174.8190  142.6770 C   0  0  1  0  0  3  0  0  0  0  0  0
  187.8390  177.1050  141.6590 C   0  0  2  0  0  3  0  0  0  0  0  0
  187.7070  177.5220  143.0590 N   0  0  0  0  0  0  0  0  0  0  0  0
  187.5030  172.6310  141.9640 C   0  0  0  0  0  1  0  0  0  0  0  0
  191.2690  173.6670  142.0040 C   0  0  2  0  0  3  0  0  0  0  0  0
  193.7490  173.0870  142.1500 C   0  0  0  0  0  3  0  0  0  0  0  0
  191.2720  171.6120  144.2520 O   0  0  0  0  0  0  0  0  0  0  0  0
  192.3130  172.5760  142.2970 C   0  0  1  0  0  3  0  0  0  0  0  0
  192.2770  172.1250  143.7010 C   0  0  0  0  0  0  0  0  0  0  0  0
  194.3860  173.0320  143.5410 C   0  0  0  0  0  3  0  0  0  0  0  0
  193.4550  172.3580  144.3670 O   0  0  0  0  0  0  0  0  0  0  0  0
  185.4880  177.5020  141.5610 O   0  0  0  0  0  1  0  0  0  0  0  0
  186.6050  177.6910  139.5680 O   0  0  0  0  0  0  0  0  0  0  0  0
  186.5810  177.4380  140.9320 C   0  0  0  0  0  0  0  0  0  0  0  0
  191.1640  176.8470  146.0300 N   0  0  0  0  0  1  0  0  0  0  0  0
  191.8130  177.8920  144.0730 O   0  0  0  0  0  0  0  0  0  0  0  0
  190.9970  177.1250  144.6450 C   0  0  0  0  0  0  0  0  0  0  0  0
  190.6030  173.2370  139.1750 C   0  0  0  0  0  3  0  0  0  0  0  0
  189.9530  172.6440  140.1720 C   0  0  0  0  0  3  0  0  0  0  0  0
  191.0970  171.6490  137.5120 O   0  0  0  0  0  0  0  0  0  0  0  0
  190.5450  172.7440  137.7940 C   0  0  0  0  0  0  0  0  0  0  0  0
  189.8800  173.5250  136.7060 C   0  0  0  0  0  2  0  0  0  0  0  0
  188.7400  174.2450  137.2400 N   0  0  0  0  0  1  0  0  0  0  0  0
  1  6  1  0  0  0  0
  2 10  1  0  0  0  0
  3 13  1  0  0  0  0
  3  5  1  0  0  0  0
  4  2  2  0  0  0  0
  5 12  1  6  0  0  0
  5  9  1  0  0  0  0
  6  7  2  0  0  0  0
  7  8  1  0  0  0  0
  7 25  1  0  0  0  0
  9  2  1  6  0  0  0
  9  6  1  0  0  0  0
 10 22  1  6  0  0  0
 10 11  1  0  0  0  0
 11  8  2  0  0  0  0
 13 16  1  0  0  0  0
 13  1  1  1  0  0  0
 14 18  2  0  0  0  0
 16 14  1  1  0  0  0
 16 17  1  0  0  0  0
 17 15  2  0  0  0  0
 17 19  1  0  0  0  0
 18 19  1  0  0  0  0
 21 22  2  0  0  0  0
 22 20  1  0  0  0  0
 24 25  2  0  0  0  0
 25 23  1  0  0  0  0
 26 27  2  0  0  0  0
 27  3  1  0  0  0  0
 28 29  2  0  0  0  0
 29 26  1  0  0  0  0
 30 31  1  0  0  0  0
 30 29  1  0  0  0  0
M  END
>  <MODEL>
9

>  <REMARK>
 VINA RESULT:      -6.2      3.023      6.882
  Name = 
  6 active torsions:
  status: ('A' for Active; 'I' for Inactive)
    1  A    between atoms: C_1  and  C_20
    2  A    between atoms: N_9  and  C_11
    3  A    between atoms: C_10  and  C_20
    4  A    between atoms: C_15  and  C_30
    5  A    between atoms: C_23  and  CA_27
    6  A    between atoms: C_24  and  C_31
                            x       y       z     vdW  Elec       q    Type
                         _______ _______ _______ _____ _____    ______ ____

>  <TORSDO>
F 6

$$$$
