=
 OpenBabel11062422143D

 44 49  0  0  1  0  0  0  0  0999 V2000
  192.4890  175.3680  143.5090 C   0  0  1  0  0  3  0  0  0  0  0  0
  192.3120  176.5750  145.8260 C   0  0  0  0  0  1  0  0  0  0  0  0
  191.0100  177.4530  143.7430 C   0  0  0  0  0  2  0  0  0  0  0  0
  189.6080  177.0810  143.3030 C   0  0  2  0  0  0  0  0  0  0  0  0
  188.9640  178.1880  142.4560 C   0  0  0  0  0  2  0  0  0  0  0  0
  187.0740  175.0670  142.3430 O   0  0  0  0  0  1  0  0  0  0  0  0
  190.0610  174.5990  143.2880 C   0  0  1  0  0  3  0  0  0  0  0  0
  191.2620  174.8330  144.2490 C   0  0  2  0  0  3  0  0  0  0  0  0
  188.3420  175.0390  140.0100 O   0  0  0  0  0  0  0  0  0  0  0  0
  187.9790  177.5460  141.4570 C   0  0  1  0  0  3  0  0  0  0  0  0
  191.7140  176.2890  144.4590 C   0  0  1  0  0  0  0  0  0  0  0  0
  188.8090  176.8550  144.4330 O   0  0  0  0  0  1  0  0  0  0  0  0
  188.1640  175.7440  141.5370 P   0  0  1  0  0  0  0  0  0  0  0  0
  189.7140  175.8280  142.4450 C   0  0  1  0  0  3  0  0  0  0  0  0
  190.3290  173.3900  142.3910 C   0  0  0  0  0  2  0  0  0  0  0  0
  190.2640  170.8720  142.3780 C   0  0  0  0  0  1  0  0  0  0  0  0
  189.5950  172.1390  142.8550 C   0  0  1  0  0  3  0  0  0  0  0  0
  189.4590  172.1250  144.2470 O   0  0  0  0  0  1  0  0  0  0  0  0
  193.7720  174.7970  144.1090 C   0  0  2  0  0  3  0  0  0  0  0  0
  195.4020  174.3580  142.2620 C   0  0  0  0  0  3  0  0  0  0  0  0
  194.9020  175.1290  143.2430 N   0  0  0  0  0  0  0  0  0  0  0  0
  195.4790  176.3210  143.2330 N   0  0  0  0  0  0  0  0  0  0  0  0
  196.3970  176.3440  142.2450 C   0  0  0  0  0  3  0  0  0  0  0  0
  196.3630  175.1160  141.6210 C   0  0  0  0  0  0  0  0  0  0  0  0
  197.2100  174.6990  140.4510 C   0  0  0  0  0  2  0  0  0  0  0  0
  196.7670  175.3120  139.1170 C   0  0  1  0  0  3  0  0  0  0  0  0
  197.9340  175.3950  138.1430 C   0  0  0  0  0  1  0  0  0  0  0  0
  194.7280  175.2860  137.8490 O   0  0  0  0  0  0  0  0  0  0  0  0
  195.5720  174.6310  138.5170 C   0  0  0  0  0  0  0  0  0  0  0  0
  195.3440  173.2850  138.7640 O   0  0  0  0  0  1  0  0  0  0  0  0
  193.6440  173.2890  144.3030 C   0  0  0  0  0  2  0  0  0  0  0  0
  194.2200  171.5610  145.4830 N   0  0  0  0  0  1  0  0  0  0  0  0
  194.2640  172.9120  145.4970 O   0  0  0  0  0  0  0  0  0  0  0  0
  186.6430  178.0080  141.5160 O   0  0  0  0  0  0  0  0  0  0  0  0
  186.3870  178.9400  142.9530 S   0  0  0  0  0  0  0  0  0  0  0  0
  185.0160  179.2990  145.7080 C   0  0  0  0  0  2  0  0  0  0  0  0
  185.1270  178.5270  147.0780 C   0  0  1  0  0  3  0  0  0  0  0  0
  185.1660  177.2480  144.7180 C   0  0  1  0  0  3  0  0  0  0  0  0
  185.1950  176.9520  147.0040 C   0  0  0  0  0  2  0  0  0  0  0  0
  184.2920  178.4840  144.6230 C   0  0  2  0  0  3  0  0  0  0  0  0
  184.9100  177.9920  143.4200 C   0  0  1  0  0  3  0  0  0  0  0  0
  185.6120  176.4370  145.6420 C   0  0  0  0  0  2  0  0  0  0  0  0
  186.2760  179.0430  147.8350 C   0  0  0  0  0  0  0  0  0  0  0  0
  187.1770  179.4420  148.4410 N   0  0  0  0  0  0  0  0  0  0  0  0
  1 19  1  1  0  0  0
  1  8  1  0  0  0  0
  1 11  1  0  0  0  0
  3 11  1  0  0  0  0
  4  3  1  0  0  0  0
  4 12  1  1  0  0  0
  5  4  1  0  0  0  0
  7 15  1  6  0  0  0
  7  8  1  0  0  0  0
  8 11  1  0  0  0  0
  9 13  2  0  0  0  0
 10 34  1  0  0  0  0
 10 13  1  0  0  0  0
 10  5  1  0  0  0  0
 11  2  1  0  0  0  0
 13  6  1  0  0  0  0
 13 14  1  0  0  0  0
 14  7  1  0  0  0  0
 14  4  1  0  0  0  0
 15 17  1  0  0  0  0
 16 17  1  0  0  0  0
 17 18  1  0  0  0  0
 19 31  1  0  0  0  0
 20 21  1  0  0  0  0
 21 19  1  0  0  0  0
 22 21  1  0  0  0  0
 23 22  2  0  0  0  0
 24 23  1  0  0  0  0
 24 20  2  0  0  0  0
 25 24  1  0  0  0  0
 26 25  1  0  0  0  0
 27 26  1  0  0  0  0
 28 29  2  0  0  0  0
 29 30  1  0  0  0  0
 29 26  1  0  0  0  0
 31 33  1  0  0  0  0
 32 33  1  0  0  0  0
 34 35  1  0  0  0  0
 35 41  1  0  0  0  0
 36 37  1  0  0  0  0
 37 43  1  0  0  0  0
 38 42  1  0  0  0  0
 39 37  1  0  0  0  0
 40 38  1  0  0  0  0
 40 36  1  0  0  0  0
 41 40  1  0  0  0  0
 41 38  1  0  0  0  0
 42 39  1  0  0  0  0
 43 44  3  0  0  0  0
M  END
>  <MODEL>
1

>  <REMARK>
 VINA RESULT:      -7.0      0.000      0.000
  Name = 
  13 active torsions:
  status: ('A' for Active; 'I' for Inactive)
    1  A    between atoms: C_1  and  C_16
    2  A    between atoms: C_5  and  C_16
    3  A    between atoms: C_5  and  O_36
    4  A    between atoms: C_8  and  C_15
    5  A    between atoms: C_8  and  C_19
    6  A    between atoms: C_10  and  C_21
    7  A    between atoms: C_12  and  C_24
    8  A    between atoms: C_12  and  C_39
    9  A    between atoms: S_14  and  O_17
   10  A    between atoms: S_14  and  C_42
   11  A    between atoms: C_16  and  N_23
   12  A    between atoms: O_17  and  C_32
   13  A    between atoms: C_24  and  C_25
                            x       y       z     vdW  Elec       q    Type
                         _______ _______ _______ _____ _____    ______ ____

>  <TORSDO>
F 13

$$$$
=
 OpenBabel11062422143D

 44 49  0  0  1  0  0  0  0  0999 V2000
  191.9320  171.8720  144.0930 C   0  0  1  0  0  3  0  0  0  0  0  0
  189.8220  171.5290  142.5820 C   0  0  0  0  0  1  0  0  0  0  0  0
  189.7090  172.9770  144.7490 C   0  0  0  0  0  2  0  0  0  0  0  0
  189.9510  174.4680  144.8800 C   0  0  2  0  0  0  0  0  0  0  0  0
  189.2250  175.0570  146.0970 C   0  0  0  0  0  2  0  0  0  0  0  0
  191.6350  177.3840  144.6470 O   0  0  0  0  0  0  0  0  0  0  0  0
  192.2220  174.3930  143.7840 C   0  0  1  0  0  3  0  0  0  0  0  0
  191.8320  173.0430  143.1150 C   0  0  2  0  0  3  0  0  0  0  0  0
  192.9360  176.4890  146.7820 O   0  0  0  0  0  1  0  0  0  0  0  0
  190.0310  176.2620  146.6260 C   0  0  1  0  0  3  0  0  0  0  0  0
  190.5550  172.3560  143.6250 C   0  0  1  0  0  0  0  0  0  0  0  0
  189.4940  175.1170  143.7240 O   0  0  0  0  0  1  0  0  0  0  0  0
  191.6120  176.3360  145.7410 P   0  0  1  0  0  0  0  0  0  0  0  0
  191.4460  174.6750  145.0720 C   0  0  1  0  0  3  0  0  0  0  0  0
  193.7280  174.4410  144.0410 C   0  0  0  0  0  2  0  0  0  0  0  0
  195.6910  176.0200  144.0980 C   0  0  0  0  0  1  0  0  0  0  0  0
  194.3940  175.6590  143.4130 C   0  0  1  0  0  3  0  0  0  0  0  0
  194.6030  175.4650  142.0440 O   0  0  0  0  0  1  0  0  0  0  0  0
  192.4230  170.6140  143.3810 C   0  0  2  0  0  3  0  0  0  0  0  0
  194.2230  170.3290  145.0950 C   0  0  0  0  0  3  0  0  0  0  0  0
  193.2650  169.8390  144.2910 N   0  0  0  0  0  0  0  0  0  0  0  0
  193.0690  168.5520  144.5370 N   0  0  0  0  0  0  0  0  0  0  0  0
  193.9240  168.1660  145.5050 C   0  0  0  0  0  3  0  0  0  0  0  0
  194.6600  169.2730  145.8710 C   0  0  0  0  0  0  0  0  0  0  0  0
  195.7270  169.3100  146.9300 C   0  0  0  0  0  2  0  0  0  0  0  0
  197.1320  169.5920  146.3830 C   0  0  1  0  0  3  0  0  0  0  0  0
  197.6050  168.4550  145.4890 C   0  0  0  0  0  1  0  0  0  0  0  0
  197.8120  171.0370  144.5900 O   0  0  0  0  0  0  0  0  0  0  0  0
  197.2520  170.9300  145.7140 C   0  0  0  0  0  0  0  0  0  0  0  0
  196.8200  172.0740  146.3680 O   0  0  0  0  0  1  0  0  0  0  0  0
  193.1750  170.9830  142.1060 C   0  0  0  0  0  2  0  0  0  0  0  0
  193.3630  170.5720  139.9830 N   0  0  0  0  0  1  0  0  0  0  0  0
  192.9900  169.9880  141.1430 O   0  0  0  0  0  0  0  0  0  0  0  0
  189.3360  177.4920  146.7010 O   0  0  0  0  0  0  0  0  0  0  0  0
  188.4240  177.7620  145.2540 S   0  0  0  0  0  0  0  0  0  0  0  0
  185.7860  176.9440  143.8520 C   0  0  0  0  0  2  0  0  0  0  0  0
  184.6300  177.7640  143.1610 C   0  0  1  0  0  3  0  0  0  0  0  0
  185.8320  178.6140  145.4060 C   0  0  1  0  0  3  0  0  0  0  0  0
  184.1610  179.0830  143.8890 C   0  0  0  0  0  2  0  0  0  0  0  0
  185.7930  177.0980  145.3820 C   0  0  2  0  0  3  0  0  0  0  0  0
  186.8370  177.7410  146.1350 C   0  0  1  0  0  3  0  0  0  0  0  0
  185.1820  179.6160  144.8730 C   0  0  0  0  0  2  0  0  0  0  0  0
  185.0110  178.0650  141.7740 C   0  0  0  0  0  0  0  0  0  0  0  0
  185.3040  178.2920  140.6780 N   0  0  0  0  0  0  0  0  0  0  0  0
  1 19  1  6  0  0  0
  2 11  1  0  0  0  0
  3  4  1  0  0  0  0
  4 12  1  6  0  0  0
  4 14  1  0  0  0  0
  4  5  1  0  0  0  0
  5 10  1  0  0  0  0
  6 13  2  0  0  0  0
  7 15  1  1  0  0  0
  7 14  1  0  0  0  0
  8 11  1  0  0  0  0
  8  7  1  0  0  0  0
  8  1  1  0  0  0  0
 10 34  1  0  0  0  0
 11  1  1  0  0  0  0
 11  3  1  0  0  0  0
 13 10  1  0  0  0  0
 13  9  1  0  0  0  0
 14 13  1  0  0  0  0
 17 15  1  0  0  0  0
 17 16  1  0  0  0  0
 18 17  1  0  0  0  0
 19 21  1  0  0  0  0
 20 24  2  0  0  0  0
 21 22  1  0  0  0  0
 21 20  1  0  0  0  0
 22 23  2  0  0  0  0
 23 24  1  0  0  0  0
 24 25  1  0  0  0  0
 26 25  1  0  0  0  0
 27 26  1  0  0  0  0
 28 29  2  0  0  0  0
 29 30  1  0  0  0  0
 29 26  1  0  0  0  0
 31 19  1  0  0  0  0
 32 33  1  0  0  0  0
 33 31  1  0  0  0  0
 35 41  1  0  0  0  0
 35 34  1  0  0  0  0
 36 40  1  0  0  0  0
 37 36  1  0  0  0  0
 37 39  1  0  0  0  0
 38 41  1  0  0  0  0
 39 42  1  0  0  0  0
 40 38  1  0  0  0  0
 40 41  1  0  0  0  0
 42 38  1  0  0  0  0
 43 37  1  0  0  0  0
 44 43  3  0  0  0  0
M  END
>  <MODEL>
2

>  <REMARK>
 VINA RESULT:      -6.6      3.357      5.854
  Name = 
  13 active torsions:
  status: ('A' for Active; 'I' for Inactive)
    1  A    between atoms: C_1  and  C_16
    2  A    between atoms: C_5  and  C_16
    3  A    between atoms: C_5  and  O_36
    4  A    between atoms: C_8  and  C_15
    5  A    between atoms: C_8  and  C_19
    6  A    between atoms: C_10  and  C_21
    7  A    between atoms: C_12  and  C_24
    8  A    between atoms: C_12  and  C_39
    9  A    between atoms: S_14  and  O_17
   10  A    between atoms: S_14  and  C_42
   11  A    between atoms: C_16  and  N_23
   12  A    between atoms: O_17  and  C_32
   13  A    between atoms: C_24  and  C_25
                            x       y       z     vdW  Elec       q    Type
                         _______ _______ _______ _____ _____    ______ ____

>  <TORSDO>
F 13

$$$$
=
 OpenBabel11062422143D

 44 49  0  0  1  0  0  0  0  0999 V2000
  190.4200  175.2730  144.1020 C   0  0  1  0  0  3  0  0  0  0  0  0
  189.8120  172.7530  144.4640 C   0  0  0  0  0  1  0  0  0  0  0  0
  190.9450  173.5660  142.2590 C   0  0  0  0  0  2  0  0  0  0  0  0
  192.4280  173.6490  141.9570 C   0  0  2  0  0  0  0  0  0  0  0  0
  192.7070  173.5680  140.4500 C   0  0  0  0  0  2  0  0  0  0  0  0
  195.6420  174.5990  142.3580 O   0  0  0  0  0  1  0  0  0  0  0  0
  192.9630  175.0450  143.9890 C   0  0  1  0  0  3  0  0  0  0  0  0
  191.6470  174.5460  144.6530 C   0  0  2  0  0  3  0  0  0  0  0  0
  194.8050  176.9010  141.3330 O   0  0  0  0  0  0  0  0  0  0  0  0
  193.9860  174.3710  140.1330 C   0  0  1  0  0  3  0  0  0  0  0  0
  190.6510  173.7990  143.7500 C   0  0  1  0  0  0  0  0  0  0  0  0
  193.0940  172.5930  142.5960 O   0  0  0  0  0  1  0  0  0  0  0  0
  194.4950  175.2640  141.6270 P   0  0  1  0  0  0  0  0  0  0  0  0
  192.9240  174.9960  142.4610 C   0  0  1  0  0  3  0  0  0  0  0  0
  193.2990  176.4550  144.4750 C   0  0  0  0  0  2  0  0  0  0  0  0
  194.9780  175.1290  145.8050 C   0  0  0  0  0  1  0  0  0  0  0  0
  194.5630  176.4990  145.3240 C   0  0  1  0  0  3  0  0  0  0  0  0
  195.6110  177.1120  144.6320 O   0  0  0  0  0  1  0  0  0  0  0  0
  189.3840  175.4930  145.2030 C   0  0  2  0  0  3  0  0  0  0  0  0
  187.9540  177.5420  145.0780 C   0  0  0  0  0  3  0  0  0  0  0  0
  188.2840  176.3010  144.6800 N   0  0  0  0  0  0  0  0  0  0  0  0
  187.5650  175.9480  143.6260 N   0  0  0  0  0  0  0  0  0  0  0  0
  186.7220  176.9570  143.3250 C   0  0  0  0  0  3  0  0  0  0  0  0
  186.9530  177.9710  144.2290 C   0  0  0  0  0  0  0  0  0  0  0  0
  186.2470  179.2990  144.2610 C   0  0  0  0  0  2  0  0  0  0  0  0
  184.9000  179.2650  144.9930 C   0  0  1  0  0  3  0  0  0  0  0  0
  183.8160  178.6660  144.1080 C   0  0  0  0  0  1  0  0  0  0  0  0
  185.5690  179.1560  147.2960 O   0  0  0  0  0  1  0  0  0  0  0  0
  184.9690  178.6010  146.3360 C   0  0  0  0  0  0  0  0  0  0  0  0
  184.4410  177.3300  146.5100 O   0  0  0  0  0  0  0  0  0  0  0  0
  190.0300  176.1520  146.4180 C   0  0  0  0  0  2  0  0  0  0  0  0
  188.9410  174.5700  147.4290 N   0  0  0  0  0  1  0  0  0  0  0  0
  190.1200  175.2300  147.4640 O   0  0  0  0  0  0  0  0  0  0  0  0
  195.0240  173.6590  139.4870 O   0  0  0  0  0  0  0  0  0  0  0  0
  195.8870  174.6960  138.4010 S   0  0  0  0  0  0  0  0  0  0  0  0
  195.5730  175.8250  135.5330 C   0  0  0  0  0  2  0  0  0  0  0  0
  194.3220  176.2170  134.6580 C   0  0  1  0  0  3  0  0  0  0  0  0
  194.3210  174.0580  136.2540 C   0  0  1  0  0  3  0  0  0  0  0  0
  193.0830  175.2400  134.7100 C   0  0  0  0  0  2  0  0  0  0  0  0
  195.7180  174.3050  135.7180 C   0  0  2  0  0  3  0  0  0  0  0  0
  195.5830  173.6160  136.9740 C   0  0  1  0  0  3  0  0  0  0  0  0
  193.0860  174.3380  135.9260 C   0  0  0  0  0  2  0  0  0  0  0  0
  193.8980  177.5820  134.9990 C   0  0  0  0  0  0  0  0  0  0  0  0
  193.5530  178.6550  135.2600 N   0  0  0  0  0  0  0  0  0  0  0  0
  1  8  1  0  0  0  0
  1 19  1  1  0  0  0
  3 11  1  0  0  0  0
  4  3  1  0  0  0  0
  4 14  1  0  0  0  0
  4 12  1  1  0  0  0
  5  4  1  0  0  0  0
  7 15  1  6  0  0  0
  7  8  1  0  0  0  0
  9 13  2  0  0  0  0
 10  5  1  0  0  0  0
 10 13  1  0  0  0  0
 11  1  1  0  0  0  0
 11  2  1  0  0  0  0
 11  8  1  0  0  0  0
 13  6  1  0  0  0  0
 13 14  1  0  0  0  0
 14  7  1  0  0  0  0
 15 17  1  0  0  0  0
 17 16  1  0  0  0  0
 18 17  1  0  0  0  0
 19 31  1  0  0  0  0
 21 20  1  0  0  0  0
 21 19  1  0  0  0  0
 22 21  1  0  0  0  0
 23 22  2  0  0  0  0
 23 24  1  0  0  0  0
 24 25  1  0  0  0  0
 24 20  2  0  0  0  0
 25 26  1  0  0  0  0
 26 29  1  0  0  0  0
 27 26  1  0  0  0  0
 29 30  2  0  0  0  0
 29 28  1  0  0  0  0
 31 33  1  0  0  0  0
 32 33  1  0  0  0  0
 34 10  1  0  0  0  0
 35 34  1  0  0  0  0
 36 40  1  0  0  0  0
 37 39  1  0  0  0  0
 37 43  1  0  0  0  0
 37 36  1  0  0  0  0
 38 41  1  0  0  0  0
 39 42  1  0  0  0  0
 40 38  1  0  0  0  0
 40 41  1  0  0  0  0
 41 35  1  0  0  0  0
 42 38  1  0  0  0  0
 43 44  3  0  0  0  0
M  END
>  <MODEL>
3

>  <REMARK>
 VINA RESULT:      -6.1      3.775      9.889
  Name = 
  13 active torsions:
  status: ('A' for Active; 'I' for Inactive)
    1  A    between atoms: C_1  and  C_16
    2  A    between atoms: C_5  and  C_16
    3  A    between atoms: C_5  and  O_36
    4  A    between atoms: C_8  and  C_15
    5  A    between atoms: C_8  and  C_19
    6  A    between atoms: C_10  and  C_21
    7  A    between atoms: C_12  and  C_24
    8  A    between atoms: C_12  and  C_39
    9  A    between atoms: S_14  and  O_17
   10  A    between atoms: S_14  and  C_42
   11  A    between atoms: C_16  and  N_23
   12  A    between atoms: O_17  and  C_32
   13  A    between atoms: C_24  and  C_25
                            x       y       z     vdW  Elec       q    Type
                         _______ _______ _______ _____ _____    ______ ____

>  <TORSDO>
F 13

$$$$
=
 OpenBabel11062422143D

 44 49  0  0  1  0  0  0  0  0999 V2000
  190.7140  175.4580  144.5490 C   0  0  1  0  0  3  0  0  0  0  0  0
  189.8250  173.0360  144.9970 C   0  0  0  0  0  1  0  0  0  0  0  0
  190.5640  173.7830  142.6090 C   0  0  0  0  0  2  0  0  0  0  0  0
  191.9410  173.6660  141.9870 C   0  0  2  0  0  0  0  0  0  0  0  0
  191.8720  173.6190  140.4550 C   0  0  0  0  0  2  0  0  0  0  0  0
  195.2720  174.1230  141.6820 O   0  0  0  0  0  1  0  0  0  0  0  0
  193.1080  174.8710  143.8720 C   0  0  1  0  0  3  0  0  0  0  0  0
  191.9070  174.5350  144.8030 C   0  0  2  0  0  3  0  0  0  0  0  0
  194.5900  176.5680  140.9030 O   0  0  0  0  0  0  0  0  0  0  0  0
  193.1580  174.2440  139.8750 C   0  0  1  0  0  3  0  0  0  0  0  0
  190.6380  173.9850  144.1320 C   0  0  1  0  0  0  0  0  0  0  0  0
  192.5630  172.4960  142.4470 O   0  0  0  0  0  1  0  0  0  0  0  0
  194.1070  174.9810  141.2330 P   0  0  1  0  0  0  0  0  0  0  0  0
  192.7320  174.9030  142.3890 C   0  0  1  0  0  3  0  0  0  0  0  0
  193.7510  176.1920  144.2930 C   0  0  0  0  0  2  0  0  0  0  0  0
  195.4590  174.5700  145.1860 C   0  0  0  0  0  1  0  0  0  0  0  0
  195.1560  176.0120  144.8530 C   0  0  1  0  0  3  0  0  0  0  0  0
  196.1150  176.5220  143.9740 O   0  0  0  0  0  1  0  0  0  0  0  0
  189.9870  175.7710  145.8550 C   0  0  2  0  0  3  0  0  0  0  0  0
  187.6240  176.3170  146.4710 C   0  0  0  0  0  3  0  0  0  0  0  0
  188.5970  176.1190  145.5650 N   0  0  0  0  0  0  0  0  0  0  0  0
  188.1680  176.4320  144.3520 N   0  0  0  0  0  0  0  0  0  0  0  0
  186.8810  176.8240  144.4400 C   0  0  0  0  0  3  0  0  0  0  0  0
  186.5200  176.7590  145.7690 C   0  0  0  0  0  0  0  0  0  0  0  0
  185.1740  177.1190  146.3340 C   0  0  0  0  0  2  0  0  0  0  0  0
  184.8860  178.6260  146.3330 C   0  0  1  0  0  3  0  0  0  0  0  0
  185.8940  179.3710  147.1960 C   0  0  0  0  0  1  0  0  0  0  0  0
  185.5640  180.1150  144.5770 O   0  0  0  0  0  1  0  0  0  0  0  0
  184.7750  179.2090  144.9550 C   0  0  0  0  0  0  0  0  0  0  0  0
  183.7460  178.8110  144.1140 O   0  0  0  0  0  0  0  0  0  0  0  0
  190.6970  176.8940  146.6040 C   0  0  0  0  0  2  0  0  0  0  0  0
  190.8650  175.3010  148.0690 N   0  0  0  0  0  1  0  0  0  0  0  0
  191.5510  176.3530  147.5680 O   0  0  0  0  0  0  0  0  0  0  0  0
  193.9120  173.4220  139.0040 O   0  0  0  0  0  0  0  0  0  0  0  0
  193.7300  173.9480  137.3650 S   0  0  0  0  0  0  0  0  0  0  0  0
  191.0720  172.9300  136.1410 C   0  0  0  0  0  2  0  0  0  0  0  0
  189.8480  172.1290  136.7300 C   0  0  1  0  0  3  0  0  0  0  0  0
  192.3810  171.5720  137.4270 C   0  0  1  0  0  3  0  0  0  0  0  0
  190.1830  170.9330  137.7040 C   0  0  0  0  0  2  0  0  0  0  0  0
  192.3340  172.0630  135.9930 C   0  0  2  0  0  3  0  0  0  0  0  0
  193.5500  172.2540  136.7390 C   0  0  1  0  0  3  0  0  0  0  0  0
  191.5750  171.0180  138.2950 C   0  0  0  0  0  2  0  0  0  0  0  0
  188.9260  173.0660  137.3860 C   0  0  0  0  0  0  0  0  0  0  0  0
  188.1970  173.7950  137.9130 N   0  0  0  0  0  0  0  0  0  0  0  0
  1  8  1  0  0  0  0
  1 19  1  1  0  0  0
  3 11  1  0  0  0  0
  4 14  1  0  0  0  0
  4 12  1  1  0  0  0
  4  3  1  0  0  0  0
  5  4  1  0  0  0  0
  7 15  1  1  0  0  0
  7  8  1  0  0  0  0
  9 13  2  0  0  0  0
 10  5  1  0  0  0  0
 10 13  1  0  0  0  0
 11  1  1  0  0  0  0
 11  8  1  0  0  0  0
 11  2  1  0  0  0  0
 13  6  1  0  0  0  0
 13 14  1  0  0  0  0
 14  7  1  0  0  0  0
 15 17  1  0  0  0  0
 17 16  1  0  0  0  0
 18 17  1  0  0  0  0
 19 31  1  0  0  0  0
 21 19  1  0  0  0  0
 21 20  1  0  0  0  0
 22 23  2  0  0  0  0
 22 21  1  0  0  0  0
 23 24  1  0  0  0  0
 24 25  1  0  0  0  0
 24 20  2  0  0  0  0
 26 25  1  0  0  0  0
 26 27  1  0  0  0  0
 28 29  1  0  0  0  0
 29 26  1  0  0  0  0
 30 29  2  0  0  0  0
 31 33  1  0  0  0  0
 33 32  1  0  0  0  0
 34 10  1  0  0  0  0
 35 34  1  0  0  0  0
 36 37  1  0  0  0  0
 37 43  1  0  0  0  0
 37 39  1  0  0  0  0
 38 42  1  0  0  0  0
 39 42  1  0  0  0  0
 40 36  1  0  0  0  0
 40 41  1  0  0  0  0
 40 38  1  0  0  0  0
 41 35  1  0  0  0  0
 41 38  1  0  0  0  0
 43 44  3  0  0  0  0
M  END
>  <MODEL>
4

>  <REMARK>
 VINA RESULT:      -6.1      3.831      9.222
  Name = 
  13 active torsions:
  status: ('A' for Active; 'I' for Inactive)
    1  A    between atoms: C_1  and  C_16
    2  A    between atoms: C_5  and  C_16
    3  A    between atoms: C_5  and  O_36
    4  A    between atoms: C_8  and  C_15
    5  A    between atoms: C_8  and  C_19
    6  A    between atoms: C_10  and  C_21
    7  A    between atoms: C_12  and  C_24
    8  A    between atoms: C_12  and  C_39
    9  A    between atoms: S_14  and  O_17
   10  A    between atoms: S_14  and  C_42
   11  A    between atoms: C_16  and  N_23
   12  A    between atoms: O_17  and  C_32
   13  A    between atoms: C_24  and  C_25
                            x       y       z     vdW  Elec       q    Type
                         _______ _______ _______ _____ _____    ______ ____

>  <TORSDO>
F 13

$$$$
=
 OpenBabel11062422143D

 44 49  0  0  1  0  0  0  0  0999 V2000
  195.8590  174.1260  142.7850 C   0  0  1  0  0  3  0  0  0  0  0  0
  197.3250  174.1360  144.9530 C   0  0  0  0  0  1  0  0  0  0  0  0
  195.3530  175.8160  144.6500 C   0  0  0  0  0  2  0  0  0  0  0  0
  193.9070  175.6300  145.0660 C   0  0  2  0  0  0  0  0  0  0  0  0
  193.2050  176.9750  145.2990 C   0  0  0  0  0  2  0  0  0  0  0  0
  190.8620  174.1780  145.1930 O   0  0  0  0  0  1  0  0  0  0  0  0
  193.6270  173.4480  143.8310 C   0  0  1  0  0  3  0  0  0  0  0  0
  195.1730  173.2650  143.8460 C   0  0  2  0  0  3  0  0  0  0  0  0
  190.5440  175.2660  142.7920 O   0  0  0  0  0  0  0  0  0  0  0  0
  191.7050  176.8210  144.9700 C   0  0  1  0  0  3  0  0  0  0  0  0
  196.0140  174.4820  144.2680 C   0  0  1  0  0  0  0  0  0  0  0  0
  193.8550  174.8820  146.2520 O   0  0  0  0  0  1  0  0  0  0  0  0
  191.4400  175.1900  144.2250 P   0  0  1  0  0  0  0  0  0  0  0  0
  193.1920  174.9110  143.9310 C   0  0  1  0  0  3  0  0  0  0  0  0
  193.0290  172.7930  142.5860 C   0  0  0  0  0  2  0  0  0  0  0  0
  192.4900  170.3890  142.0610 C   0  0  0  0  0  1  0  0  0  0  0  0
  192.1580  171.5870  142.9170 C   0  0  1  0  0  3  0  0  0  0  0  0
  192.2510  171.2600  144.2730 O   0  0  0  0  0  1  0  0  0  0  0  0
  197.0620  173.3950  142.1930 C   0  0  2  0  0  3  0  0  0  0  0  0
  197.4880  173.4950  139.7290 C   0  0  0  0  0  3  0  0  0  0  0  0
  197.4670  174.0530  140.9510 N   0  0  0  0  0  0  0  0  0  0  0  0
  197.7220  175.3500  140.8700 N   0  0  0  0  0  0  0  0  0  0  0  0
  197.9410  175.6640  139.5770 C   0  0  0  0  0  3  0  0  0  0  0  0
  197.7980  174.5070  138.8420 C   0  0  0  0  0  0  0  0  0  0  0  0
  197.9410  174.3890  137.3500 C   0  0  0  0  0  2  0  0  0  0  0  0
  196.8550  175.1350  136.5640 C   0  0  1  0  0  3  0  0  0  0  0  0
  197.4740  176.0350  135.5040 C   0  0  0  0  0  1  0  0  0  0  0  0
  195.3810  174.3910  134.8210 O   0  0  0  0  0  0  0  0  0  0  0  0
  195.8020  174.2290  135.9980 C   0  0  0  0  0  0  0  0  0  0  0  0
  195.2240  173.2530  136.7970 O   0  0  0  0  0  1  0  0  0  0  0  0
  196.7300  171.9250  141.9590 C   0  0  0  0  0  2  0  0  0  0  0  0
  197.4170  169.8690  142.0690 N   0  0  0  0  0  1  0  0  0  0  0  0
  197.7890  171.1260  142.3990 O   0  0  0  0  0  0  0  0  0  0  0  0
  190.8030  177.1530  146.0080 O   0  0  0  0  0  0  0  0  0  0  0  0
  189.2210  177.4440  145.3660 S   0  0  0  0  0  0  0  0  0  0  0  0
  186.1940  176.7860  145.4450 C   0  0  0  0  0  2  0  0  0  0  0  0
  184.9180  177.6210  145.8440 C   0  0  1  0  0  3  0  0  0  0  0  0
  187.2280  177.8200  147.1980 C   0  0  1  0  0  3  0  0  0  0  0  0
  185.0380  178.5360  147.1240 C   0  0  0  0  0  2  0  0  0  0  0  0
  187.0640  176.4130  146.6580 C   0  0  2  0  0  3  0  0  0  0  0  0
  188.3970  176.9030  146.8900 C   0  0  1  0  0  3  0  0  0  0  0  0
  186.4710  178.8420  147.5060 C   0  0  0  0  0  2  0  0  0  0  0  0
  184.4830  178.4240  144.6930 C   0  0  0  0  0  0  0  0  0  0  0  0
  184.1290  179.0560  143.7900 N   0  0  0  0  0  0  0  0  0  0  0  0
  1 19  1  1  0  0  0
  1  8  1  0  0  0  0
  1 11  1  0  0  0  0
  3  4  1  0  0  0  0
  4  5  1  0  0  0  0
  4 12  1  1  0  0  0
  7 15  1  6  0  0  0
  7  8  1  0  0  0  0
  7 14  1  0  0  0  0
  8 11  1  0  0  0  0
  9 13  2  0  0  0  0
 10  5  1  0  0  0  0
 10 34  1  0  0  0  0
 11  3  1  0  0  0  0
 11  2  1  0  0  0  0
 13 10  1  0  0  0  0
 13  6  1  0  0  0  0
 14 13  1  0  0  0  0
 14  4  1  0  0  0  0
 15 17  1  0  0  0  0
 16 17  1  0  0  0  0
 17 18  1  0  0  0  0
 20 21  1  0  0  0  0
 21 19  1  0  0  0  0
 22 21  1  0  0  0  0
 23 22  2  0  0  0  0
 24 23  1  0  0  0  0
 24 20  2  0  0  0  0
 25 24  1  0  0  0  0
 26 25  1  0  0  0  0
 27 26  1  0  0  0  0
 28 29  2  0  0  0  0
 29 26  1  0  0  0  0
 29 30  1  0  0  0  0
 31 19  1  0  0  0  0
 31 33  1  0  0  0  0
 32 33  1  0  0  0  0
 35 34  1  0  0  0  0
 35 41  1  0  0  0  0
 36 37  1  0  0  0  0
 36 40  1  0  0  0  0
 37 39  1  0  0  0  0
 38 42  1  0  0  0  0
 39 42  1  0  0  0  0
 40 41  1  0  0  0  0
 40 38  1  0  0  0  0
 41 38  1  0  0  0  0
 43 37  1  0  0  0  0
 44 43  3  0  0  0  0
M  END
>  <MODEL>
5

>  <REMARK>
 VINA RESULT:      -6.1      2.656      3.956
  Name = 
  13 active torsions:
  status: ('A' for Active; 'I' for Inactive)
    1  A    between atoms: C_1  and  C_16
    2  A    between atoms: C_5  and  C_16
    3  A    between atoms: C_5  and  O_36
    4  A    between atoms: C_8  and  C_15
    5  A    between atoms: C_8  and  C_19
    6  A    between atoms: C_10  and  C_21
    7  A    between atoms: C_12  and  C_24
    8  A    between atoms: C_12  and  C_39
    9  A    between atoms: S_14  and  O_17
   10  A    between atoms: S_14  and  C_42
   11  A    between atoms: C_16  and  N_23
   12  A    between atoms: O_17  and  C_32
   13  A    between atoms: C_24  and  C_25
                            x       y       z     vdW  Elec       q    Type
                         _______ _______ _______ _____ _____    ______ ____

>  <TORSDO>
F 13

$$$$
=
 OpenBabel11062422143D

 44 49  0  0  1  0  0  0  0  0999 V2000
  194.8290  174.6690  141.6820 C   0  0  1  0  0  3  0  0  0  0  0  0
  195.9760  176.3940  143.2830 C   0  0  0  0  0  1  0  0  0  0  0  0
  193.4000  176.4370  142.8740 C   0  0  0  0  0  2  0  0  0  0  0  0
  192.3260  175.7140  143.6620 C   0  0  2  0  0  0  0  0  0  0  0  0
  190.9670  176.4200  143.5540 C   0  0  0  0  0  2  0  0  0  0  0  0
  190.6950  173.0930  145.0290 O   0  0  0  0  0  1  0  0  0  0  0  0
  193.3920  173.4410  143.4040 C   0  0  1  0  0  3  0  0  0  0  0  0
  194.7540  174.1370  143.1140 C   0  0  2  0  0  3  0  0  0  0  0  0
  189.8460  172.6760  142.5480 O   0  0  0  0  0  0  0  0  0  0  0  0
  189.8440  175.3690  143.6710 C   0  0  1  0  0  3  0  0  0  0  0  0
  194.7220  175.6520  142.8540 C   0  0  1  0  0  0  0  0  0  0  0  0
  192.6980  175.6550  145.0130 O   0  0  0  0  0  1  0  0  0  0  0  0
  190.5920  173.7170  143.6530 P   0  0  1  0  0  0  0  0  0  0  0  0
  192.1840  174.3190  143.0700 C   0  0  1  0  0  3  0  0  0  0  0  0
  193.3100  172.1080  142.6620 C   0  0  0  0  0  2  0  0  0  0  0  0
  194.1350  171.2200  144.8710 C   0  0  0  0  0  1  0  0  0  0  0  0
  193.3850  170.9080  143.5980 C   0  0  1  0  0  3  0  0  0  0  0  0
  192.1080  170.4210  143.8910 O   0  0  0  0  0  1  0  0  0  0  0  0
  196.2430  174.5200  141.1260 C   0  0  2  0  0  3  0  0  0  0  0  0
  195.1240  174.6470  138.8910 C   0  0  0  0  0  3  0  0  0  0  0  0
  196.2150  174.6980  139.6750 N   0  0  0  0  0  0  0  0  0  0  0  0
  197.2680  175.0880  138.9730 N   0  0  0  0  0  0  0  0  0  0  0  0
  196.8850  175.2790  137.6950 C   0  0  0  0  0  3  0  0  0  0  0  0
  195.5360  175.0060  137.6230 C   0  0  0  0  0  0  0  0  0  0  0  0
  194.6830  175.1020  136.3880 C   0  0  0  0  0  2  0  0  0  0  0  0
  193.4310  175.9690  136.5670 C   0  0  1  0  0  3  0  0  0  0  0  0
  193.4590  177.1640  135.6250 C   0  0  0  0  0  1  0  0  0  0  0  0
  192.0070  174.1070  137.0850 O   0  0  0  0  0  1  0  0  0  0  0  0
  192.1500  175.1940  136.4650 C   0  0  0  0  0  0  0  0  0  0  0  0
  191.1410  175.6310  135.6190 O   0  0  0  0  0  0  0  0  0  0  0  0
  196.8260  173.1630  141.5070 C   0  0  0  0  0  2  0  0  0  0  0  0
  197.8420  172.2850  143.2130 N   0  0  0  0  0  1  0  0  0  0  0  0
  197.9100  173.3400  142.3700 O   0  0  0  0  0  0  0  0  0  0  0  0
  188.8990  175.5790  144.7020 O   0  0  0  0  0  0  0  0  0  0  0  0
  188.9780  177.2130  145.2730 S   0  0  0  0  0  0  0  0  0  0  0  0
  185.9310  176.7990  145.6490 C   0  0  0  0  0  2  0  0  0  0  0  0
  184.7630  177.7430  146.1280 C   0  0  1  0  0  3  0  0  0  0  0  0
  187.1970  177.8030  147.2600 C   0  0  1  0  0  3  0  0  0  0  0  0
  185.0700  178.6860  147.3560 C   0  0  0  0  0  2  0  0  0  0  0  0
  186.8780  176.3960  146.7920 C   0  0  2  0  0  3  0  0  0  0  0  0
  188.2610  176.7860  146.8850 C   0  0  1  0  0  3  0  0  0  0  0  0
  186.5520  178.8900  147.5960 C   0  0  0  0  0  2  0  0  0  0  0  0
  184.2860  178.5420  144.9910 C   0  0  0  0  0  0  0  0  0  0  0  0
  183.9080  179.1600  144.0880 N   0  0  0  0  0  0  0  0  0  0  0  0
  1 19  1  1  0  0  0
  1 11  1  0  0  0  0
  1  8  1  0  0  0  0
  3  4  1  0  0  0  0
  4 12  1  1  0  0  0
  5  4  1  0  0  0  0
  5 10  1  0  0  0  0
  7 15  1  6  0  0  0
  8  7  1  0  0  0  0
  9 13  2  0  0  0  0
 10 34  1  0  0  0  0
 11  3  1  0  0  0  0
 11  8  1  0  0  0  0
 11  2  1  0  0  0  0
 13 10  1  0  0  0  0
 13  6  1  0  0  0  0
 14  7  1  0  0  0  0
 14 13  1  0  0  0  0
 14  4  1  0  0  0  0
 15 17  1  0  0  0  0
 17 18  1  0  0  0  0
 17 16  1  0  0  0  0
 19 31  1  0  0  0  0
 20 21  1  0  0  0  0
 21 19  1  0  0  0  0
 22 21  1  0  0  0  0
 23 22  2  0  0  0  0
 24 23  1  0  0  0  0
 24 20  2  0  0  0  0
 25 26  1  0  0  0  0
 25 24  1  0  0  0  0
 27 26  1  0  0  0  0
 29 26  1  0  0  0  0
 29 28  1  0  0  0  0
 30 29  2  0  0  0  0
 31 33  1  0  0  0  0
 33 32  1  0  0  0  0
 34 35  1  0  0  0  0
 35 41  1  0  0  0  0
 36 37  1  0  0  0  0
 36 40  1  0  0  0  0
 37 39  1  0  0  0  0
 38 42  1  0  0  0  0
 39 42  1  0  0  0  0
 40 41  1  0  0  0  0
 40 38  1  0  0  0  0
 41 38  1  0  0  0  0
 43 37  1  0  0  0  0
 44 43  3  0  0  0  0
M  END
>  <MODEL>
6

>  <REMARK>
 VINA RESULT:      -6.0      2.572      3.953
  Name = 
  13 active torsions:
  status: ('A' for Active; 'I' for Inactive)
    1  A    between atoms: C_1  and  C_16
    2  A    between atoms: C_5  and  C_16
    3  A    between atoms: C_5  and  O_36
    4  A    between atoms: C_8  and  C_15
    5  A    between atoms: C_8  and  C_19
    6  A    between atoms: C_10  and  C_21
    7  A    between atoms: C_12  and  C_24
    8  A    between atoms: C_12  and  C_39
    9  A    between atoms: S_14  and  O_17
   10  A    between atoms: S_14  and  C_42
   11  A    between atoms: C_16  and  N_23
   12  A    between atoms: O_17  and  C_32
   13  A    between atoms: C_24  and  C_25
                            x       y       z     vdW  Elec       q    Type
                         _______ _______ _______ _____ _____    ______ ____

>  <TORSDO>
F 13

$$$$
=
 OpenBabel11062422143D

 44 49  0  0  1  0  0  0  0  0999 V2000
  191.6730  174.5430  144.7760 C   0  0  1  0  0  3  0  0  0  0  0  0
  189.7400  172.7940  145.0110 C   0  0  0  0  0  1  0  0  0  0  0  0
  190.8680  173.2570  142.7050 C   0  0  0  0  0  2  0  0  0  0  0  0
  192.0650  172.5500  142.1020 C   0  0  2  0  0  0  0  0  0  0  0  0
  192.0650  172.6360  140.5700 C   0  0  0  0  0  2  0  0  0  0  0  0
  195.2390  171.4180  141.8970 O   0  0  0  0  0  1  0  0  0  0  0  0
  193.5550  172.9510  144.0990 C   0  0  1  0  0  3  0  0  0  0  0  0
  192.2860  173.1570  144.9770 C   0  0  2  0  0  3  0  0  0  0  0  0
  195.8120  173.9420  141.3030 O   0  0  0  0  0  0  0  0  0  0  0  0
  193.5230  172.6230  140.0660 C   0  0  1  0  0  3  0  0  0  0  0  0
  190.9450  173.3050  144.2400 C   0  0  1  0  0  0  0  0  0  0  0  0
  192.0470  171.1980  142.4780 O   0  0  0  0  0  1  0  0  0  0  0  0
  194.6310  172.7460  141.4960 P   0  0  1  0  0  0  0  0  0  0  0  0
  193.3160  173.2460  142.6170 C   0  0  1  0  0  3  0  0  0  0  0  0
  194.7130  173.7910  144.6360 C   0  0  0  0  0  2  0  0  0  0  0  0
  196.8150  173.7120  146.0220 C   0  0  0  0  0  1  0  0  0  0  0  0
  195.8820  172.9420  145.1180 C   0  0  1  0  0  3  0  0  0  0  0  0
  195.4300  171.7830  145.7560 O   0  0  0  0  0  1  0  0  0  0  0  0
  191.1050  175.0770  146.0890 C   0  0  2  0  0  3  0  0  0  0  0  0
  188.9280  176.2120  146.5710 C   0  0  0  0  0  3  0  0  0  0  0  0
  190.0100  176.0040  145.8030 N   0  0  0  0  0  0  0  0  0  0  0  0
  190.0390  176.8700  144.8020 N   0  0  0  0  0  0  0  0  0  0  0  0
  188.9480  177.6580  144.8850 C   0  0  0  0  0  3  0  0  0  0  0  0
  188.2350  177.2590  145.9950 C   0  0  0  0  0  0  0  0  0  0  0  0
  186.9500  177.8700  146.4820 C   0  0  0  0  0  2  0  0  0  0  0  0
  185.6960  177.2770  145.8280 C   0  0  1  0  0  3  0  0  0  0  0  0
  184.4350  177.7800  146.5170 C   0  0  0  0  0  1  0  0  0  0  0  0
  185.3090  178.5860  143.8530 O   0  0  0  0  0  1  0  0  0  0  0  0
  185.6500  177.4760  144.3410 C   0  0  0  0  0  0  0  0  0  0  0  0
  185.9060  176.4090  143.4910 O   0  0  0  0  0  0  0  0  0  0  0  0
  192.2010  175.7490  146.9090 C   0  0  0  0  0  2  0  0  0  0  0  0
  194.1400  176.7190  146.7930 N   0  0  0  0  0  1  0  0  0  0  0  0
  193.0130  176.5190  146.0730 O   0  0  0  0  0  0  0  0  0  0  0  0
  193.8550  171.6000  139.1460 O   0  0  0  0  0  0  0  0  0  0  0  0
  192.4610  170.6410  138.7760 S   0  0  0  0  0  0  0  0  0  0  0  0
  191.4550  173.0650  137.1300 C   0  0  0  0  0  2  0  0  0  0  0  0
  190.1550  173.3270  136.2770 C   0  0  1  0  0  3  0  0  0  0  0  0
  191.4050  170.9500  136.2750 C   0  0  1  0  0  3  0  0  0  0  0  0
  189.6550  172.1420  135.3620 C   0  0  0  0  0  2  0  0  0  0  0  0
  192.4140  172.0660  136.4630 C   0  0  2  0  0  3  0  0  0  0  0  0
  192.7330  170.7630  136.9860 C   0  0  1  0  0  3  0  0  0  0  0  0
  190.2040  170.7940  135.7800 C   0  0  0  0  0  2  0  0  0  0  0  0
  189.0710  173.7660  137.1650 C   0  0  0  0  0  0  0  0  0  0  0  0
  188.2080  174.1050  137.8570 N   0  0  0  0  0  0  0  0  0  0  0  0
  1  8  1  0  0  0  0
  1 19  1  1  0  0  0
  3 11  1  0  0  0  0
  4 12  1  1  0  0  0
  4 14  1  0  0  0  0
  4  3  1  0  0  0  0
  5  4  1  0  0  0  0
  7 15  1  1  0  0  0
  7  8  1  0  0  0  0
  9 13  2  0  0  0  0
 10  5  1  0  0  0  0
 10 13  1  0  0  0  0
 11  1  1  0  0  0  0
 11  8  1  0  0  0  0
 11  2  1  0  0  0  0
 13  6  1  0  0  0  0
 13 14  1  0  0  0  0
 14  7  1  0  0  0  0
 15 17  1  0  0  0  0
 17 18  1  0  0  0  0
 17 16  1  0  0  0  0
 19 31  1  0  0  0  0
 21 19  1  0  0  0  0
 21 20  1  0  0  0  0
 22 23  2  0  0  0  0
 22 21  1  0  0  0  0
 23 24  1  0  0  0  0
 24 25  1  0  0  0  0
 24 20  2  0  0  0  0
 26 25  1  0  0  0  0
 26 27  1  0  0  0  0
 28 29  1  0  0  0  0
 29 26  1  0  0  0  0
 30 29  2  0  0  0  0
 33 32  1  0  0  0  0
 33 31  1  0  0  0  0
 34 10  1  0  0  0  0
 35 34  1  0  0  0  0
 37 36  1  0  0  0  0
 37 43  1  0  0  0  0
 38 40  1  0  0  0  0
 38 41  1  0  0  0  0
 39 42  1  0  0  0  0
 39 37  1  0  0  0  0
 40 41  1  0  0  0  0
 40 36  1  0  0  0  0
 41 35  1  0  0  0  0
 42 38  1  0  0  0  0
 43 44  3  0  0  0  0
M  END
>  <MODEL>
7

>  <REMARK>
 VINA RESULT:      -6.0      4.094      9.047
  Name = 
  13 active torsions:
  status: ('A' for Active; 'I' for Inactive)
    1  A    between atoms: C_1  and  C_16
    2  A    between atoms: C_5  and  C_16
    3  A    between atoms: C_5  and  O_36
    4  A    between atoms: C_8  and  C_15
    5  A    between atoms: C_8  and  C_19
    6  A    between atoms: C_10  and  C_21
    7  A    between atoms: C_12  and  C_24
    8  A    between atoms: C_12  and  C_39
    9  A    between atoms: S_14  and  O_17
   10  A    between atoms: S_14  and  C_42
   11  A    between atoms: C_16  and  N_23
   12  A    between atoms: O_17  and  C_32
   13  A    between atoms: C_24  and  C_25
                            x       y       z     vdW  Elec       q    Type
                         _______ _______ _______ _____ _____    ______ ____

>  <TORSDO>
F 13

$$$$
=
 OpenBabel11062422143D

 44 49  0  0  1  0  0  0  0  0999 V2000
  194.2800  174.9260  143.2350 C   0  0  1  0  0  3  0  0  0  0  0  0
  194.3010  176.1240  145.5620 C   0  0  0  0  0  1  0  0  0  0  0  0
  192.5200  176.7220  143.7530 C   0  0  0  0  0  2  0  0  0  0  0  0
  191.1510  176.1010  143.5620 C   0  0  2  0  0  0  0  0  0  0  0  0
  190.1830  177.0610  142.8570 C   0  0  0  0  0  2  0  0  0  0  0  0
  188.8840  173.6550  143.0360 O   0  0  0  0  0  1  0  0  0  0  0  0
  192.0250  173.7370  143.4340 C   0  0  1  0  0  3  0  0  0  0  0  0
  193.3160  174.1970  144.1720 C   0  0  2  0  0  3  0  0  0  0  0  0
  189.7070  173.8080  140.5160 O   0  0  0  0  0  0  0  0  0  0  0  0
  189.1670  176.2380  142.0380 C   0  0  1  0  0  3  0  0  0  0  0  0
  193.5330  175.7130  144.3180 C   0  0  1  0  0  0  0  0  0  0  0  0
  190.6150  175.7580  144.8120 O   0  0  0  0  0  1  0  0  0  0  0  0
  189.6780  174.4990  142.0600 P   0  0  1  0  0  0  0  0  0  0  0  0
  191.3240  174.8700  142.6820 C   0  0  1  0  0  3  0  0  0  0  0  0
  192.3410  172.5790  142.4880 C   0  0  0  0  0  2  0  0  0  0  0  0
  193.1850  170.6030  143.8040 C   0  0  0  0  0  1  0  0  0  0  0  0
  192.0060  171.2200  143.0900 C   0  0  1  0  0  3  0  0  0  0  0  0
  190.9070  171.3100  143.9490 O   0  0  0  0  0  1  0  0  0  0  0  0
  195.7280  174.6010  143.5920 C   0  0  2  0  0  3  0  0  0  0  0  0
  196.5050  174.0590  141.2760 C   0  0  0  0  0  3  0  0  0  0  0  0
  196.5710  174.7770  142.4100 N   0  0  0  0  0  0  0  0  0  0  0  0
  197.4140  175.7880  142.2670 N   0  0  0  0  0  0  0  0  0  0  0  0
  197.9410  175.7350  141.0270 C   0  0  0  0  0  3  0  0  0  0  0  0
  197.3790  174.6510  140.3860 C   0  0  0  0  0  0  0  0  0  0  0  0
  197.6660  174.2180  138.9750 C   0  0  0  0  0  2  0  0  0  0  0  0
  196.9030  175.0220  137.9150 C   0  0  1  0  0  3  0  0  0  0  0  0
  197.7660  175.2500  136.6820 C   0  0  0  0  0  1  0  0  0  0  0  0
  195.4180  173.1890  137.4680 O   0  0  0  0  0  1  0  0  0  0  0  0
  195.5650  174.4360  137.5720 C   0  0  0  0  0  0  0  0  0  0  0  0
  194.4940  175.2710  137.2860 O   0  0  0  0  0  0  0  0  0  0  0  0
  195.8350  173.1830  144.1440 C   0  0  0  0  0  2  0  0  0  0  0  0
  196.5470  172.2010  145.9450 N   0  0  0  0  0  1  0  0  0  0  0  0
  196.9330  173.0930  145.0050 O   0  0  0  0  0  0  0  0  0  0  0  0
  187.8020  176.4580  142.3370 O   0  0  0  0  0  0  0  0  0  0  0  0
  187.6100  177.9100  143.2600 S   0  0  0  0  0  0  0  0  0  0  0  0
  185.9090  179.4280  145.3590 C   0  0  0  0  0  2  0  0  0  0  0  0
  185.3370  179.0350  146.7740 C   0  0  1  0  0  3  0  0  0  0  0  0
  185.3870  177.2980  144.7280 C   0  0  1  0  0  3  0  0  0  0  0  0
  184.7290  177.5850  146.9180 C   0  0  0  0  0  2  0  0  0  0  0  0
  185.1910  178.7070  144.2050 C   0  0  2  0  0  3  0  0  0  0  0  0
  185.8050  177.7390  143.3360 C   0  0  1  0  0  3  0  0  0  0  0  0
  185.1980  176.6330  145.8380 C   0  0  0  0  0  2  0  0  0  0  0  0
  186.3740  179.2470  147.7930 C   0  0  0  0  0  0  0  0  0  0  0  0
  187.1910  179.4000  148.5980 N   0  0  0  0  0  0  0  0  0  0  0  0
  1 19  1  1  0  0  0
  1  8  1  0  0  0  0
  1 11  1  0  0  0  0
  3 11  1  0  0  0  0
  4  3  1  0  0  0  0
  4 12  1  1  0  0  0
  5  4  1  0  0  0  0
  7 15  1  6  0  0  0
  7  8  1  0  0  0  0
  8 11  1  0  0  0  0
  9 13  2  0  0  0  0
 10 13  1  0  0  0  0
 10 34  1  0  0  0  0
 10  5  1  0  0  0  0
 11  2  1  0  0  0  0
 13 14  1  0  0  0  0
 13  6  1  0  0  0  0
 14  7  1  0  0  0  0
 14  4  1  0  0  0  0
 15 17  1  0  0  0  0
 17 16  1  0  0  0  0
 17 18  1  0  0  0  0
 19 31  1  0  0  0  0
 20 21  1  0  0  0  0
 21 19  1  0  0  0  0
 22 21  1  0  0  0  0
 23 22  2  0  0  0  0
 24 23  1  0  0  0  0
 24 20  2  0  0  0  0
 25 24  1  0  0  0  0
 26 25  1  0  0  0  0
 27 26  1  0  0  0  0
 28 29  1  0  0  0  0
 29 26  1  0  0  0  0
 30 29  2  0  0  0  0
 31 33  1  0  0  0  0
 33 32  1  0  0  0  0
 34 35  1  0  0  0  0
 35 41  1  0  0  0  0
 36 37  1  0  0  0  0
 37 39  1  0  0  0  0
 37 43  1  0  0  0  0
 38 42  1  0  0  0  0
 40 38  1  0  0  0  0
 40 36  1  0  0  0  0
 41 40  1  0  0  0  0
 41 38  1  0  0  0  0
 42 39  1  0  0  0  0
 43 44  3  0  0  0  0
M  END
>  <MODEL>
8

>  <REMARK>
 VINA RESULT:      -5.9      1.508      1.850
  Name = 
  13 active torsions:
  status: ('A' for Active; 'I' for Inactive)
    1  A    between atoms: C_1  and  C_16
    2  A    between atoms: C_5  and  C_16
    3  A    between atoms: C_5  and  O_36
    4  A    between atoms: C_8  and  C_15
    5  A    between atoms: C_8  and  C_19
    6  A    between atoms: C_10  and  C_21
    7  A    between atoms: C_12  and  C_24
    8  A    between atoms: C_12  and  C_39
    9  A    between atoms: S_14  and  O_17
   10  A    between atoms: S_14  and  C_42
   11  A    between atoms: C_16  and  N_23
   12  A    between atoms: O_17  and  C_32
   13  A    between atoms: C_24  and  C_25
                            x       y       z     vdW  Elec       q    Type
                         _______ _______ _______ _____ _____    ______ ____

>  <TORSDO>
F 13

$$$$
=
 OpenBabel11062422143D

 44 49  0  0  1  0  0  0  0  0999 V2000
  193.0700  172.6770  142.0730 C   0  0  1  0  0  3  0  0  0  0  0  0
  191.0930  172.6680  140.3570 C   0  0  0  0  0  1  0  0  0  0  0  0
  190.7310  173.4140  142.8300 C   0  0  0  0  0  2  0  0  0  0  0  0
  190.8450  174.8140  143.4010 C   0  0  2  0  0  0  0  0  0  0  0  0
  190.0010  174.9820  144.6710 C   0  0  0  0  0  2  0  0  0  0  0  0
  192.3060  177.7630  144.1510 O   0  0  0  0  0  0  0  0  0  0  0  0
  193.1800  175.1910  142.5210 C   0  0  1  0  0  3  0  0  0  0  0  0
  192.9400  174.0740  141.4650 C   0  0  2  0  0  3  0  0  0  0  0  0
  193.5360  176.3620  146.0420 O   0  0  0  0  0  1  0  0  0  0  0  0
  190.6740  176.0250  145.5870 C   0  0  1  0  0  3  0  0  0  0  0  0
  191.6910  173.1960  141.6490 C   0  0  1  0  0  0  0  0  0  0  0  0
  190.4130  175.7450  142.4440 O   0  0  0  0  0  1  0  0  0  0  0  0
  192.2970  176.4430  144.8940 P   0  0  1  0  0  0  0  0  0  0  0  0
  192.3050  175.0410  143.7670 C   0  0  1  0  0  3  0  0  0  0  0  0
  194.6580  175.2480  142.9060 C   0  0  0  0  0  2  0  0  0  0  0  0
  196.6130  176.8350  143.0030 C   0  0  0  0  0  1  0  0  0  0  0  0
  195.4020  176.3870  142.2200 C   0  0  1  0  0  3  0  0  0  0  0  0
  195.7660  176.0340  140.9170 O   0  0  0  0  0  1  0  0  0  0  0  0
  193.7020  171.7100  141.0740 C   0  0  2  0  0  3  0  0  0  0  0  0
  195.4840  171.0000  142.6810 C   0  0  0  0  0  3  0  0  0  0  0  0
  194.5110  170.7280  141.7950 N   0  0  0  0  0  0  0  0  0  0  0  0
  194.2660  169.4270  141.7630 N   0  0  0  0  0  0  0  0  0  0  0  0
  195.1030  168.8120  142.6230 C   0  0  0  0  0  3  0  0  0  0  0  0
  195.8780  169.7880  143.2130 C   0  0  0  0  0  0  0  0  0  0  0  0
  196.9420  169.5580  144.2510 C   0  0  0  0  0  2  0  0  0  0  0  0
  196.5830  170.1110  145.6360 C   0  0  1  0  0  3  0  0  0  0  0  0
  197.0050  171.5680  145.7650 C   0  0  0  0  0  1  0  0  0  0  0  0
  194.3430  170.8720  146.0440 O   0  0  0  0  0  0  0  0  0  0  0  0
  195.1450  169.9010  146.0070 C   0  0  0  0  0  0  0  0  0  0  0  0
  194.7040  168.6430  146.3920 O   0  0  0  0  0  1  0  0  0  0  0  0
  194.5370  172.4730  140.0500 C   0  0  0  0  0  2  0  0  0  0  0  0
  195.6970  172.3660  138.2180 N   0  0  0  0  0  1  0  0  0  0  0  0
  195.1110  171.5760  139.1460 O   0  0  0  0  0  0  0  0  0  0  0  0
  189.8820  177.1380  145.9520 O   0  0  0  0  0  0  0  0  0  0  0  0
  188.7770  177.5390  144.6800 S   0  0  0  0  0  0  0  0  0  0  0  0
  185.9580  176.8540  143.5940 C   0  0  0  0  0  2  0  0  0  0  0  0
  184.7260  177.7340  143.1550 C   0  0  1  0  0  3  0  0  0  0  0  0
  186.2430  178.3680  145.2780 C   0  0  1  0  0  3  0  0  0  0  0  0
  184.3800  178.9780  144.0640 C   0  0  0  0  0  2  0  0  0  0  0  0
  186.1820  176.8610  145.1160 C   0  0  2  0  0  3  0  0  0  0  0  0
  187.3300  177.4310  145.7710 C   0  0  1  0  0  3  0  0  0  0  0  0
  185.5350  179.4150  144.9400 C   0  0  0  0  0  2  0  0  0  0  0  0
  184.9100  178.1680  141.7630 C   0  0  0  0  0  0  0  0  0  0  0  0
  185.0680  178.5060  140.6680 N   0  0  0  0  0  0  0  0  0  0  0  0
  1 19  1  6  0  0  0
  2 11  1  0  0  0  0
  3  4  1  0  0  0  0
  4 12  1  6  0  0  0
  4 14  1  0  0  0  0
  4  5  1  0  0  0  0
  5 10  1  0  0  0  0
  6 13  2  0  0  0  0
  7 15  1  1  0  0  0
  7 14  1  0  0  0  0
  8 11  1  0  0  0  0
  8  1  1  0  0  0  0
  8  7  1  0  0  0  0
 10 34  1  0  0  0  0
 11  1  1  0  0  0  0
 11  3  1  0  0  0  0
 13 10  1  0  0  0  0
 13  9  1  0  0  0  0
 14 13  1  0  0  0  0
 17 15  1  0  0  0  0
 17 16  1  0  0  0  0
 18 17  1  0  0  0  0
 19 21  1  0  0  0  0
 20 24  2  0  0  0  0
 21 20  1  0  0  0  0
 22 21  1  0  0  0  0
 22 23  2  0  0  0  0
 23 24  1  0  0  0  0
 24 25  1  0  0  0  0
 25 26  1  0  0  0  0
 26 27  1  0  0  0  0
 26 29  1  0  0  0  0
 29 28  2  0  0  0  0
 29 30  1  0  0  0  0
 31 19  1  0  0  0  0
 32 33  1  0  0  0  0
 33 31  1  0  0  0  0
 35 41  1  0  0  0  0
 35 34  1  0  0  0  0
 36 40  1  0  0  0  0
 37 36  1  0  0  0  0
 37 39  1  0  0  0  0
 38 41  1  0  0  0  0
 39 42  1  0  0  0  0
 40 38  1  0  0  0  0
 40 41  1  0  0  0  0
 42 38  1  0  0  0  0
 43 37  1  0  0  0  0
 44 43  3  0  0  0  0
M  END
>  <MODEL>
9

>  <REMARK>
 VINA RESULT:      -5.8      3.172      5.812
  Name = 
  13 active torsions:
  status: ('A' for Active; 'I' for Inactive)
    1  A    between atoms: C_1  and  C_16
    2  A    between atoms: C_5  and  C_16
    3  A    between atoms: C_5  and  O_36
    4  A    between atoms: C_8  and  C_15
    5  A    between atoms: C_8  and  C_19
    6  A    between atoms: C_10  and  C_21
    7  A    between atoms: C_12  and  C_24
    8  A    between atoms: C_12  and  C_39
    9  A    between atoms: S_14  and  O_17
   10  A    between atoms: S_14  and  C_42
   11  A    between atoms: C_16  and  N_23
   12  A    between atoms: O_17  and  C_32
   13  A    between atoms: C_24  and  C_25
                            x       y       z     vdW  Elec       q    Type
                         _______ _______ _______ _____ _____    ______ ____

>  <TORSDO>
F 13

$$$$
