=
 OpenBabel11062418313D

 54 60  0  0  1  0  0  0  0  0999 V2000
  187.0920  173.4840  140.8700 O   0  0  0  0  0  0  0  0  0  0  0  0
  188.1060  173.4130  141.5500 C   0  0  0  0  0  0  0  0  0  0  0  0
  190.2430  175.7890  147.3310 N   0  0  0  0  0  2  0  0  0  0  0  0
  193.0790  173.2660  144.7780 C   0  0  1  0  0  3  0  0  0  0  0  0
  191.4830  176.4330  147.7290 C   0  0  0  0  0  2  0  0  0  0  0  0
  193.1890  170.4370  143.6860 C   0  0  0  0  0  2  0  0  0  0  0  0
  190.9890  170.0470  141.8440 O   0  0  0  0  0  0  0  0  0  0  0  0
  194.3930  172.4400  144.8000 C   0  0  2  0  0  3  0  0  0  0  0  0
  191.8620  172.3990  144.4740 C   0  0  0  0  0  2  0  0  0  0  0  0
  189.6340  174.5990  145.2990 C   0  0  0  0  0  2  0  0  0  0  0  0
  190.9890  171.1030  142.5320 C   0  0  0  0  0  0  0  0  0  0  0  0
  189.8530  174.8180  142.7960 C   0  0  0  0  0  2  0  0  0  0  0  0
  191.9660  175.0940  145.7930 C   0  0  2  0  0  0  0  0  0  0  0  0
  190.6380  174.7170  146.4270 C   0  0  1  0  0  3  0  0  0  0  0  0
  194.1780  170.9090  144.7770 C   0  0  2  0  0  3  0  0  0  0  0  0
  192.4560  176.2850  146.5810 C   0  0  0  0  0  2  0  0  0  0  0  0
  190.1580  175.4500  144.1550 C   0  0  2  0  0  3  0  0  0  0  0  0
  192.2110  171.5420  143.2750 C   0  0  2  0  0  3  0  0  0  0  0  0
  189.0170  172.2250  141.3240 C   0  0  2  0  0  3  0  0  0  0  0  0
  191.6630  175.5500  144.3510 C   0  0  0  0  0  2  0  0  0  0  0  0
  189.8850  172.0090  142.4740 N   0  0  0  0  0  2  0  0  0  0  0  0
  188.3660  174.4710  142.6210 C   0  0  1  0  0  3  0  0  0  0  0  0
  192.8950  174.0210  145.9570 O   0  0  0  0  0  0  0  0  0  0  0  0
  190.3030  171.8320  137.7580 C   0  0  0  0  0  3  0  0  0  0  0  0
  191.6340  173.5030  138.8970 C   0  0  0  0  0  3  0  0  0  0  0  0
  192.1040  172.9140  136.6360 F   0  0  0  0  0  0  0  0  0  0  0  0
  189.5330  171.6610  138.9110 C   0  0  0  0  0  3  0  0  0  0  0  0
  189.8090  172.4140  140.0620 C   0  0  0  0  0  0  0  0  0  0  0  0
  191.3520  172.7530  137.7510 C   0  0  0  0  0  0  0  0  0  0  0  0
  190.8630  173.3320  140.0510 C   0  0  0  0  0  3  0  0  0  0  0  0
  187.5610  175.7200  142.4140 C   0  0  0  0  0  0  0  0  0  0  0  0
  187.2300  177.8810  141.1690 C   0  0  0  0  0  1  0  0  0  0  0  0
  187.9910  176.6760  141.4450 N   0  0  0  0  0  2  0  0  0  0  0  0
  186.5090  175.9130  143.0790 O   0  0  0  0  0  0  0  0  0  0  0  0
  195.6810  169.1170  145.2370 O   0  0  0  0  0  0  0  0  0  0  0  0
  195.4810  170.1990  144.6230 C   0  0  0  0  0  0  0  0  0  0  0  0
  196.4690  170.7380  143.8050 O   0  0  0  0  0  0  0  0  0  0  0  0
  196.4860  170.4950  142.4880 O   0  0  0  0  0  0  0  0  0  0  0  0
  196.4470  171.7590  141.8970 C   0  0  0  0  0  2  0  0  0  0  0  0
  195.2120  171.8810  141.0200 C   0  0  0  0  0  2  0  0  0  0  0  0
  194.8960  173.3150  140.7770 C   0  0  0  0  0  0  0  0  0  0  0  0
  194.0710  175.2420  141.0470 C   0  0  0  0  0  3  0  0  0  0  0  0
  194.1050  174.0270  141.5390 O   0  0  0  0  0  0  0  0  0  0  0  0
  194.8910  175.2570  139.9320 C   0  0  0  0  0  3  0  0  0  0  0  0
  195.4180  174.0280  139.7630 N   0  0  0  0  0  0  0  0  0  0  0  0
  195.2390  172.8170  145.8820 O   0  0  0  0  0  0  0  0  0  0  0  0
  196.3600  173.6490  145.7500 C   0  0  0  0  0  0  0  0  0  0  0  0
  197.3730  173.4460  146.5820 C   0  0  0  0  0  2  0  0  0  0  0  0
  197.6110  175.6970  142.7480 C   0  0  0  0  0  3  0  0  0  0  0  0
  196.8080  176.7550  142.7960 C   0  0  0  0  0  3  0  0  0  0  0  0
  195.6790  175.7510  144.7710 N   0  0  0  0  0  0  0  0  0  0  0  0
  195.7100  176.8700  143.8190 C   0  0  0  0  0  2  0  0  0  0  0  0
  196.4610  174.7120  144.7150 C   0  0  0  0  0  0  0  0  0  0  0  0
  197.4590  174.6390  143.6910 N   0  0  0  0  0  2  0  0  0  0  0  0
  1  2  2  0  0  0  0
  2 22  1  0  0  0  0
  3  5  1  0  0  0  0
  4  9  1  1  0  0  0
  4  8  1  0  0  0  0
  4 23  1  0  0  0  0
  6 15  1  0  0  0  0
  7 11  2  0  0  0  0
  8 46  1  1  0  0  0
 11 18  1  0  0  0  0
 13 20  1  6  0  0  0
 13 23  1  0  0  0  0
 13 14  1  0  0  0  0
 13 16  1  0  0  0  0
 14 10  1  6  0  0  0
 14  3  1  0  0  0  0
 15 36  1  6  0  0  0
 15  8  1  0  0  0  0
 16  5  1  0  0  0  0
 17 12  1  6  0  0  0
 17 20  1  0  0  0  0
 17 10  1  0  0  0  0
 18  6  1  1  0  0  0
 18  9  1  0  0  0  0
 19 28  1  6  0  0  0
 19  2  1  0  0  0  0
 19 21  1  0  0  0  0
 21 11  1  0  0  0  0
 22 31  1  6  0  0  0
 22 12  1  0  0  0  0
 24 27  1  0  0  0  0
 25 30  2  0  0  0  0
 26 29  1  0  0  0  0
 27 28  2  0  0  0  0
 29 24  2  0  0  0  0
 29 25  1  0  0  0  0
 30 28  1  0  0  0  0
 31 34  2  0  0  0  0
 32 33  1  0  0  0  0
 33 31  1  0  0  0  0
 36 35  2  0  0  0  0
 37 36  1  0  0  0  0
 38 37  1  0  0  0  0
 39 38  1  0  0  0  0
 40 39  1  0  0  0  0
 41 40  1  0  0  0  0
 41 43  1  0  0  0  0
 42 43  1  0  0  0  0
 44 42  2  0  0  0  0
 45 44  1  0  0  0  0
 45 41  2  0  0  0  0
 47 46  1  0  0  0  0
 47 48  2  0  0  0  0
 49 50  2  0  0  0  0
 49 54  1  0  0  0  0
 50 52  1  0  0  0  0
 52 51  1  0  0  0  0
 53 51  2  0  0  0  0
 53 47  1  0  0  0  0
 54 53  1  0  0  0  0
M  END
>  <MODEL>
1

>  <REMARK>
 VINA RESULT:      -6.4      0.000      0.000
  Name = 
  11 active torsions:
  status: ('A' for Active; 'I' for Inactive)
    1  A    between atoms: C_2  and  C_40
    2  A    between atoms: O_5  and  C_12
    3  A    between atoms: O_5  and  O_25
    4  A    between atoms: C_6  and  C_51
    5  A    between atoms: C_12  and  C_34
    6  A    between atoms: C_18  and  O_25
    7  A    between atoms: C_18  and  C_40
    8  A    between atoms: C_19  and  O_35
    9  A    between atoms: C_19  and  C_43
   10  A    between atoms: C_21  and  O_35
   11  A    between atoms: C_36  and  C_48
                            x       y       z     vdW  Elec       q    Type
                         _______ _______ _______ _____ _____    ______ ____

>  <TORSDO>
F 11

$$$$
=
 OpenBabel11062418313D

 54 60  0  0  1  0  0  0  0  0999 V2000
  195.3080  171.7780  140.1560 O   0  0  0  0  0  0  0  0  0  0  0  0
  194.5300  172.4610  140.8070 C   0  0  0  0  0  0  0  0  0  0  0  0
  194.8960  177.0250  145.5680 N   0  0  0  0  0  2  0  0  0  0  0  0
  190.7820  175.6370  144.1280 C   0  0  1  0  0  3  0  0  0  0  0  0
  194.1880  177.1900  146.8260 C   0  0  0  0  0  2  0  0  0  0  0  0
  189.1920  175.6560  141.5440 C   0  0  0  0  0  2  0  0  0  0  0  0
  190.5610  174.0330  139.5780 O   0  0  0  0  0  0  0  0  0  0  0  0
  189.2710  175.9910  144.1110 C   0  0  2  0  0  3  0  0  0  0  0  0
  191.3890  175.6420  142.7290 C   0  0  0  0  0  2  0  0  0  0  0  0
  194.4850  175.5540  143.6750 C   0  0  0  0  0  2  0  0  0  0  0  0
  191.1750  174.2870  140.6480 C   0  0  0  0  0  0  0  0  0  0  0  0
  193.8940  173.1490  143.1940 C   0  0  0  0  0  2  0  0  0  0  0  0
  192.7780  175.8890  145.3790 C   0  0  2  0  0  0  0  0  0  0  0  0
  193.8890  176.5840  144.6120 C   0  0  1  0  0  3  0  0  0  0  0  0
  188.7620  176.5230  142.7510 C   0  0  2  0  0  3  0  0  0  0  0  0
  193.0460  176.1990  146.8320 C   0  0  0  0  0  2  0  0  0  0  0  0
  194.1840  174.1910  144.2760 C   0  0  2  0  0  3  0  0  0  0  0  0
  190.4590  174.8480  141.8360 C   0  0  2  0  0  3  0  0  0  0  0  0
  193.1560  172.7060  140.2190 C   0  0  2  0  0  3  0  0  0  0  0  0
  192.9590  174.3720  145.1600 C   0  0  0  0  0  2  0  0  0  0  0  0
  192.5330  173.8760  140.8240 N   0  0  0  0  0  2  0  0  0  0  0  0
  194.9950  173.0780  142.1240 C   0  0  1  0  0  3  0  0  0  0  0  0
  191.5180  176.4550  145.0140 O   0  0  0  0  0  0  0  0  0  0  0  0
  191.1750  169.5430  139.4440 C   0  0  0  0  0  3  0  0  0  0  0  0
  190.9460  170.0610  141.7980 C   0  0  0  0  0  3  0  0  0  0  0  0
  189.8460  168.1660  140.8610 F   0  0  0  0  0  0  0  0  0  0  0  0
  191.9980  170.6610  139.2800 C   0  0  0  0  0  3  0  0  0  0  0  0
  192.3010  171.4820  140.3760 C   0  0  0  0  0  0  0  0  0  0  0  0
  190.6500  169.2440  140.7030 C   0  0  0  0  0  0  0  0  0  0  0  0
  191.7700  171.1790  141.6330 C   0  0  0  0  0  3  0  0  0  0  0  0
  196.2170  172.4100  142.6820 C   0  0  0  0  0  0  0  0  0  0  0  0
  197.2530  170.4040  143.7920 C   0  0  0  0  0  1  0  0  0  0  0  0
  196.0980  171.1180  143.2780 N   0  0  0  0  0  2  0  0  0  0  0  0
  197.3390  172.9790  142.6080 O   0  0  0  0  0  0  0  0  0  0  0  0
  186.5520  175.6670  143.0030 O   0  0  0  0  0  0  0  0  0  0  0  0
  187.2770  176.6700  142.7680 C   0  0  0  0  0  0  0  0  0  0  0  0
  186.7020  177.9120  142.5200 O   0  0  0  0  0  0  0  0  0  0  0  0
  186.5360  178.3600  141.2690 O   0  0  0  0  0  0  0  0  0  0  0  0
  185.2350  177.9850  140.9310 C   0  0  0  0  0  2  0  0  0  0  0  0
  184.2610  178.4990  141.9790 C   0  0  0  0  0  2  0  0  0  0  0  0
  182.8630  178.3700  141.4840 C   0  0  0  0  0  0  0  0  0  0  0  0
  181.2410  177.9660  140.1900 C   0  0  0  0  0  3  0  0  0  0  0  0
  182.5500  177.9870  140.2730 O   0  0  0  0  0  0  0  0  0  0  0  0
  180.7460  178.3550  141.4230 C   0  0  0  0  0  3  0  0  0  0  0  0
  181.7820  178.6100  142.2470 N   0  0  0  0  0  0  0  0  0  0  0  0
  188.9210  176.8800  145.1670 O   0  0  0  0  0  0  0  0  0  0  0  0
  188.1180  176.5250  146.2590 C   0  0  0  0  0  0  0  0  0  0  0  0
  188.5310  175.5170  147.0180 C   0  0  0  0  0  2  0  0  0  0  0  0
  184.4090  177.5270  146.3430 C   0  0  0  0  0  3  0  0  0  0  0  0
  184.4460  178.6150  147.1050 C   0  0  0  0  0  3  0  0  0  0  0  0
  186.9010  178.3080  147.3460 N   0  0  0  0  0  0  0  0  0  0  0  0
  185.7260  179.1030  147.7270 C   0  0  0  0  0  3  0  0  0  0  0  0
  186.8600  177.2380  146.6060 C   0  0  0  0  0  0  0  0  0  0  0  0
  185.6050  176.7970  146.0780 N   0  0  0  0  0  0  0  0  0  0  0  0
  1  2  2  0  0  0  0
  2 22  1  0  0  0  0
  3  5  1  0  0  0  0
  4  9  1  6  0  0  0
  4 23  1  0  0  0  0
  5 16  1  0  0  0  0
  6 15  1  0  0  0  0
  7 11  2  0  0  0  0
  8  4  1  0  0  0  0
  8 46  1  1  0  0  0
 10 17  1  0  0  0  0
 11 21  1  0  0  0  0
 11 18  1  0  0  0  0
 13 20  1  6  0  0  0
 13 16  1  0  0  0  0
 14 10  1  6  0  0  0
 14 13  1  0  0  0  0
 14  3  1  0  0  0  0
 15 36  1  1  0  0  0
 15  8  1  0  0  0  0
 17 12  1  6  0  0  0
 17 20  1  0  0  0  0
 18  6  1  6  0  0  0
 18  9  1  0  0  0  0
 19 28  1  1  0  0  0
 19  2  1  0  0  0  0
 19 21  1  0  0  0  0
 22 31  1  1  0  0  0
 22 12  1  0  0  0  0
 23 13  1  0  0  0  0
 24 29  1  0  0  0  0
 27 24  2  0  0  0  0
 27 28  1  0  0  0  0
 28 30  2  0  0  0  0
 29 26  1  0  0  0  0
 29 25  2  0  0  0  0
 30 25  1  0  0  0  0
 31 33  1  0  0  0  0
 33 32  1  0  0  0  0
 34 31  2  0  0  0  0
 36 35  2  0  0  0  0
 37 36  1  0  0  0  0
 38 37  1  0  0  0  0
 39 38  1  0  0  0  0
 39 40  1  0  0  0  0
 41 40  1  0  0  0  0
 41 45  2  0  0  0  0
 42 43  1  0  0  0  0
 42 44  2  0  0  0  0
 43 41  1  0  0  0  0
 44 45  1  0  0  0  0
 46 47  1  0  0  0  0
 47 53  1  0  0  0  0
 47 48  2  0  0  0  0
 49 50  1  0  0  0  0
 50 52  2  0  0  0  0
 51 52  1  0  0  0  0
 53 51  2  0  0  0  0
 54 49  2  0  0  0  0
 54 53  1  0  0  0  0
M  END
>  <MODEL>
2

>  <REMARK>
 VINA RESULT:      -6.3      3.252      8.600
  Name = 
  11 active torsions:
  status: ('A' for Active; 'I' for Inactive)
    1  A    between atoms: C_2  and  C_40
    2  A    between atoms: O_5  and  C_12
    3  A    between atoms: O_5  and  O_25
    4  A    between atoms: C_6  and  C_51
    5  A    between atoms: C_12  and  C_34
    6  A    between atoms: C_18  and  O_25
    7  A    between atoms: C_18  and  C_40
    8  A    between atoms: C_19  and  O_35
    9  A    between atoms: C_19  and  C_43
   10  A    between atoms: C_21  and  O_35
   11  A    between atoms: C_36  and  C_48
                            x       y       z     vdW  Elec       q    Type
                         _______ _______ _______ _____ _____    ______ ____

>  <TORSDO>
F 11

$$$$
=
 OpenBabel11062418313D

 54 60  0  0  1  0  0  0  0  0999 V2000
  195.4460  171.3160  145.9080 O   0  0  0  0  0  0  0  0  0  0  0  0
  194.5270  171.5440  145.1350 C   0  0  0  0  0  0  0  0  0  0  0  0
  190.9460  168.1670  140.7290 N   0  0  0  0  0  2  0  0  0  0  0  0
  190.2090  172.6550  141.2240 C   0  0  1  0  0  3  0  0  0  0  0  0
  190.5570  168.4490  139.3580 C   0  0  0  0  0  2  0  0  0  0  0  0
  189.3020  174.5450  143.4180 C   0  0  0  0  0  2  0  0  0  0  0  0
  191.2430  174.5040  145.5650 O   0  0  0  0  0  0  0  0  0  0  0  0
  189.2050  173.8030  140.9390 C   0  0  2  0  0  3  0  0  0  0  0  0
  190.3930  172.4110  142.7180 C   0  0  0  0  0  2  0  0  0  0  0  0
  191.9430  169.5820  142.4380 C   0  0  0  0  0  2  0  0  0  0  0  0
  191.3650  173.6390  144.6570 C   0  0  0  0  0  0  0  0  0  0  0  0
  193.7780  171.2950  142.6950 C   0  0  0  0  0  2  0  0  0  0  0  0
  190.9760  170.5590  140.4280 C   0  0  2  0  0  0  0  0  0  0  0  0
  190.8170  169.4350  141.4360 C   0  0  1  0  0  3  0  0  0  0  0  0
  188.4130  174.2740  142.1810 C   0  0  2  0  0  3  0  0  0  0  0  0
  190.9160  169.8910  139.0760 C   0  0  0  0  0  2  0  0  0  0  0  0
  193.0540  170.3460  141.7370 C   0  0  2  0  0  3  0  0  0  0  0  0
  190.6170  173.7610  143.3670 C   0  0  2  0  0  3  0  0  0  0  0  0
  193.6450  172.7380  145.4320 C   0  0  2  0  0  3  0  0  0  0  0  0
  192.3910  171.1430  140.6250 C   0  0  0  0  0  2  0  0  0  0  0  0
  192.3610  172.6180  144.7540 N   0  0  0  0  0  2  0  0  0  0  0  0
  194.2750  170.5920  143.9680 C   0  0  1  0  0  3  0  0  0  0  0  0
  189.8760  171.4640  140.5430 O   0  0  0  0  0  0  0  0  0  0  0  0
  194.9720  176.3110  145.5100 C   0  0  0  0  0  3  0  0  0  0  0  0
  195.6460  175.2640  143.4340 C   0  0  0  0  0  3  0  0  0  0  0  0
  196.2410  177.5240  143.9010 F   0  0  0  0  0  0  0  0  0  0  0  0
  194.3330  175.1300  145.8960 C   0  0  0  0  0  3  0  0  0  0  0  0
  194.3520  174.0080  145.0530 C   0  0  0  0  0  0  0  0  0  0  0  0
  195.6290  176.3770  144.2800 C   0  0  0  0  0  0  0  0  0  0  0  0
  195.0070  174.0820  143.8210 C   0  0  0  0  0  3  0  0  0  0  0  0
  195.4610  169.7280  143.6540 C   0  0  0  0  0  0  0  0  0  0  0  0
  197.7940  169.5330  142.7340 C   0  0  0  0  0  1  0  0  0  0  0  0
  196.6010  170.3090  143.0210 N   0  0  0  0  0  2  0  0  0  0  0  0
  195.4540  168.5060  143.9620 O   0  0  0  0  0  0  0  0  0  0  0  0
  187.9410  176.2230  140.8930 O   0  0  0  0  0  0  0  0  0  0  0  0
  187.6070  175.4880  141.8590 C   0  0  0  0  0  0  0  0  0  0  0  0
  186.4940  175.8030  142.6320 O   0  0  0  0  0  0  0  0  0  0  0  0
  186.5240  176.8130  143.5090 O   0  0  0  0  0  0  0  0  0  0  0  0
  185.6390  177.7590  142.9870 C   0  0  0  0  0  2  0  0  0  0  0  0
  185.7200  179.0430  143.7950 C   0  0  0  0  0  2  0  0  0  0  0  0
  185.3270  178.7840  145.2070 C   0  0  0  0  0  0  0  0  0  0  0  0
  184.3290  177.9450  146.8710 C   0  0  0  0  0  3  0  0  0  0  0  0
  184.3960  177.9340  145.5620 O   0  0  0  0  0  0  0  0  0  0  0  0
  185.2740  178.8500  147.3230 C   0  0  0  0  0  3  0  0  0  0  0  0
  185.9110  179.3820  146.2610 N   0  0  0  0  0  0  0  0  0  0  0  0
  188.3230  173.4840  139.8670 O   0  0  0  0  0  0  0  0  0  0  0  0
  188.5700  173.8050  138.5250 C   0  0  0  0  0  0  0  0  0  0  0  0
  187.8010  174.7320  137.9680 C   0  0  0  0  0  2  0  0  0  0  0  0
  192.0520  173.0200  137.1020 C   0  0  0  0  0  3  0  0  0  0  0  0
  191.7590  172.1260  136.1620 C   0  0  0  0  0  3  0  0  0  0  0  0
  189.3630  172.3060  136.8030 N   0  0  0  0  0  0  0  0  0  0  0  0
  190.3510  171.6420  135.9420 C   0  0  0  0  0  2  0  0  0  0  0  0
  189.6550  173.1740  137.7280 C   0  0  0  0  0  0  0  0  0  0  0  0
  191.0190  173.5630  137.9200 N   0  0  0  0  0  2  0  0  0  0  0  0
  2 19  1  0  0  0  0
  2  1  2  0  0  0  0
  3 14  1  0  0  0  0
  4  9  1  1  0  0  0
  5  3  1  0  0  0  0
  8 46  1  6  0  0  0
  8  4  1  0  0  0  0
  8 15  1  0  0  0  0
 11 21  1  0  0  0  0
 11  7  2  0  0  0  0
 12 22  1  0  0  0  0
 13 16  1  6  0  0  0
 13 23  1  0  0  0  0
 13 20  1  0  0  0  0
 13 14  1  0  0  0  0
 14 10  1  1  0  0  0
 15 36  1  6  0  0  0
 15  6  1  0  0  0  0
 16  5  1  0  0  0  0
 17 20  1  6  0  0  0
 17 10  1  0  0  0  0
 17 12  1  0  0  0  0
 18  9  1  1  0  0  0
 18  6  1  0  0  0  0
 18 11  1  0  0  0  0
 19 28  1  6  0  0  0
 21 19  1  0  0  0  0
 22 31  1  6  0  0  0
 22  2  1  0  0  0  0
 23  4  1  0  0  0  0
 24 27  1  0  0  0  0
 25 30  2  0  0  0  0
 25 29  1  0  0  0  0
 26 29  1  0  0  0  0
 28 27  2  0  0  0  0
 29 24  2  0  0  0  0
 30 28  1  0  0  0  0
 31 34  2  0  0  0  0
 32 33  1  0  0  0  0
 33 31  1  0  0  0  0
 35 36  2  0  0  0  0
 36 37  1  0  0  0  0
 37 38  1  0  0  0  0
 39 38  1  0  0  0  0
 39 40  1  0  0  0  0
 40 41  1  0  0  0  0
 41 43  1  0  0  0  0
 41 45  2  0  0  0  0
 42 44  2  0  0  0  0
 43 42  1  0  0  0  0
 45 44  1  0  0  0  0
 47 46  1  0  0  0  0
 48 47  2  0  0  0  0
 49 54  1  0  0  0  0
 50 49  2  0  0  0  0
 51 53  2  0  0  0  0
 52 50  1  0  0  0  0
 52 51  1  0  0  0  0
 53 54  1  0  0  0  0
 53 47  1  0  0  0  0
M  END
>  <MODEL>
3

>  <REMARK>
 VINA RESULT:      -6.2      3.004      9.181
  Name = 
  11 active torsions:
  status: ('A' for Active; 'I' for Inactive)
    1  A    between atoms: C_2  and  C_40
    2  A    between atoms: O_5  and  C_12
    3  A    between atoms: O_5  and  O_25
    4  A    between atoms: C_6  and  C_51
    5  A    between atoms: C_12  and  C_34
    6  A    between atoms: C_18  and  O_25
    7  A    between atoms: C_18  and  C_40
    8  A    between atoms: C_19  and  O_35
    9  A    between atoms: C_19  and  C_43
   10  A    between atoms: C_21  and  O_35
   11  A    between atoms: C_36  and  C_48
                            x       y       z     vdW  Elec       q    Type
                         _______ _______ _______ _____ _____    ______ ____

>  <TORSDO>
F 11

$$$$
=
 OpenBabel11062418313D

 54 60  0  0  1  0  0  0  0  0999 V2000
  187.8590  176.1220  146.6720 O   0  0  0  0  0  0  0  0  0  0  0  0
  188.7200  175.8210  145.8580 C   0  0  0  0  0  0  0  0  0  0  0  0
  195.2250  174.6770  145.8780 N   0  0  0  0  0  2  0  0  0  0  0  0
  192.9600  174.5690  141.9060 C   0  0  1  0  0  3  0  0  0  0  0  0
  196.3070  175.1460  145.0290 C   0  0  0  0  0  2  0  0  0  0  0  0
  190.7130  172.9580  140.6540 C   0  0  0  0  0  2  0  0  0  0  0  0
  188.2830  173.3890  142.1670 O   0  0  0  0  0  0  0  0  0  0  0  0
  193.0310  174.0920  140.4310 C   0  0  2  0  0  3  0  0  0  0  0  0
  191.8490  173.8700  142.6820 C   0  0  0  0  0  2  0  0  0  0  0  0
  192.8100  174.8160  145.6260 C   0  0  0  0  0  2  0  0  0  0  0  0
  189.3570  173.8330  142.6550 C   0  0  0  0  0  0  0  0  0  0  0  0
  191.0320  176.4810  144.9680 C   0  0  0  0  0  2  0  0  0  0  0  0
  194.2820  175.2730  143.7410 C   0  0  2  0  0  0  0  0  0  0  0  0
  194.1150  174.4050  144.9750 C   0  0  1  0  0  3  0  0  0  0  0  0
  192.1630  172.8480  140.1250 C   0  0  2  0  0  3  0  0  0  0  0  0
  195.6780  175.8400  143.8420 C   0  0  0  0  0  2  0  0  0  0  0  0
  192.5290  176.2410  145.1780 C   0  0  2  0  0  3  0  0  0  0  0  0
  190.5990  173.9340  141.8280 C   0  0  2  0  0  3  0  0  0  0  0  0
  188.2680  175.1380  144.5840 C   0  0  2  0  0  3  0  0  0  0  0  0
  193.2710  176.4320  143.8640 C   0  0  0  0  0  2  0  0  0  0  0  0
  189.3740  174.4260  143.9560 N   0  0  0  0  0  2  0  0  0  0  0  0
  190.1880  176.0820  146.1880 C   0  0  1  0  0  3  0  0  0  0  0  0
  194.2020  174.4590  142.5690 O   0  0  0  0  0  0  0  0  0  0  0  0
  187.8460  178.0540  142.1660 C   0  0  0  0  0  3  0  0  0  0  0  0
  185.6760  177.0750  142.6070 C   0  0  0  0  0  3  0  0  0  0  0  0
  185.8850  178.9540  141.1570 F   0  0  0  0  0  0  0  0  0  0  0  0
  188.4410  177.1110  143.0080 C   0  0  0  0  0  3  0  0  0  0  0  0
  187.6560  176.1420  143.6500 C   0  0  0  0  0  0  0  0  0  0  0  0
  186.4640  178.0350  141.9660 C   0  0  0  0  0  0  0  0  0  0  0  0
  186.2730  176.1310  143.4490 C   0  0  0  0  0  3  0  0  0  0  0  0
  190.3680  177.0810  147.2930 C   0  0  0  0  0  0  0  0  0  0  0  0
  191.5530  177.7560  149.4070 C   0  0  0  0  0  1  0  0  0  0  0  0
  191.3030  176.8070  148.3370 N   0  0  0  0  0  2  0  0  0  0  0  0
  189.7120  178.1560  147.2880 O   0  0  0  0  0  0  0  0  0  0  0  0
  192.9140  171.6830  138.1870 O   0  0  0  0  0  0  0  0  0  0  0  0
  192.1500  172.5650  138.6610 C   0  0  0  0  0  0  0  0  0  0  0  0
  191.2970  173.2800  137.8260 O   0  0  0  0  0  0  0  0  0  0  0  0
  191.3980  173.1920  136.4940 O   0  0  0  0  0  0  0  0  0  0  0  0
  190.2650  173.8500  136.0110 C   0  0  0  0  0  2  0  0  0  0  0  0
  189.1580  173.8050  137.0520 C   0  0  0  0  0  2  0  0  0  0  0  0
  188.1590  174.8740  136.7830 C   0  0  0  0  0  0  0  0  0  0  0  0
  186.5480  176.2100  137.0810 C   0  0  0  0  0  3  0  0  0  0  0  0
  187.2310  175.2370  137.6320 O   0  0  0  0  0  0  0  0  0  0  0  0
  187.1020  176.4450  135.8340 C   0  0  0  0  0  3  0  0  0  0  0  0
  188.1300  175.5940  135.6470 N   0  0  0  0  0  0  0  0  0  0  0  0
  194.3740  173.8900  140.0010 O   0  0  0  0  0  0  0  0  0  0  0  0
  195.1230  174.8400  139.2930 C   0  0  0  0  0  0  0  0  0  0  0  0
  196.0790  175.4800  139.9550 C   0  0  0  0  0  2  0  0  0  0  0  0
  195.7820  175.3060  135.5350 C   0  0  0  0  0  3  0  0  0  0  0  0
  194.6170  175.7910  135.1200 C   0  0  0  0  0  3  0  0  0  0  0  0
  193.7650  175.6150  137.4500 N   0  0  0  0  0  0  0  0  0  0  0  0
  193.4510  175.9630  136.0570 C   0  0  0  0  0  2  0  0  0  0  0  0
  194.9060  175.1320  137.8510 C   0  0  0  0  0  0  0  0  0  0  0  0
  195.9630  174.9500  136.9040 N   0  0  0  0  0  2  0  0  0  0  0  0
  2 22  1  0  0  0  0
  2  1  2  0  0  0  0
  4 23  1  0  0  0  0
  4  9  1  1  0  0  0
  5  3  1  0  0  0  0
  7 11  2  0  0  0  0
  8 46  1  1  0  0  0
  8  4  1  0  0  0  0
 11 21  1  0  0  0  0
 12 17  1  0  0  0  0
 12 22  1  0  0  0  0
 13 16  1  1  0  0  0
 13 20  1  0  0  0  0
 13 14  1  0  0  0  0
 14 10  1  1  0  0  0
 14  3  1  0  0  0  0
 15 36  1  6  0  0  0
 15  8  1  0  0  0  0
 15  6  1  0  0  0  0
 16  5  1  0  0  0  0
 17 20  1  6  0  0  0
 17 10  1  0  0  0  0
 18  6  1  6  0  0  0
 18 11  1  0  0  0  0
 18  9  1  0  0  0  0
 19 28  1  6  0  0  0
 19  2  1  0  0  0  0
 21 19  1  0  0  0  0
 22 31  1  1  0  0  0
 23 13  1  0  0  0  0
 24 27  1  0  0  0  0
 25 30  2  0  0  0  0
 26 29  1  0  0  0  0
 27 28  2  0  0  0  0
 29 24  2  0  0  0  0
 29 25  1  0  0  0  0
 30 28  1  0  0  0  0
 31 33  1  0  0  0  0
 33 32  1  0  0  0  0
 34 31  2  0  0  0  0
 35 36  2  0  0  0  0
 37 36  1  0  0  0  0
 38 37  1  0  0  0  0
 39 38  1  0  0  0  0
 39 40  1  0  0  0  0
 41 40  1  0  0  0  0
 41 43  1  0  0  0  0
 42 43  1  0  0  0  0
 44 42  2  0  0  0  0
 45 44  1  0  0  0  0
 45 41  2  0  0  0  0
 47 48  2  0  0  0  0
 47 46  1  0  0  0  0
 49 54  1  0  0  0  0
 50 49  2  0  0  0  0
 50 52  1  0  0  0  0
 51 53  2  0  0  0  0
 52 51  1  0  0  0  0
 53 47  1  0  0  0  0
 54 53  1  0  0  0  0
M  END
>  <MODEL>
4

>  <REMARK>
 VINA RESULT:      -6.1      3.071      6.416
  Name = 
  11 active torsions:
  status: ('A' for Active; 'I' for Inactive)
    1  A    between atoms: C_2  and  C_40
    2  A    between atoms: O_5  and  C_12
    3  A    between atoms: O_5  and  O_25
    4  A    between atoms: C_6  and  C_51
    5  A    between atoms: C_12  and  C_34
    6  A    between atoms: C_18  and  O_25
    7  A    between atoms: C_18  and  C_40
    8  A    between atoms: C_19  and  O_35
    9  A    between atoms: C_19  and  C_43
   10  A    between atoms: C_21  and  O_35
   11  A    between atoms: C_36  and  C_48
                            x       y       z     vdW  Elec       q    Type
                         _______ _______ _______ _____ _____    ______ ____

>  <TORSDO>
F 11

$$$$
=
 OpenBabel11062418313D

 54 60  0  0  1  0  0  0  0  0999 V2000
  196.2900  170.9670  141.6580 O   0  0  0  0  0  0  0  0  0  0  0  0
  195.2220  171.5600  141.7260 C   0  0  0  0  0  0  0  0  0  0  0  0
  189.3530  171.3330  138.7030 N   0  0  0  0  0  2  0  0  0  0  0  0
  190.0990  174.5420  141.8770 C   0  0  1  0  0  3  0  0  0  0  0  0
  188.5010  172.3640  138.1360 C   0  0  0  0  0  2  0  0  0  0  0  0
  190.7500  174.6510  144.8390 C   0  0  0  0  0  2  0  0  0  0  0  0
  193.3400  173.4370  145.2840 O   0  0  0  0  0  0  0  0  0  0  0  0
  189.4070  175.5620  142.8210 C   0  0  2  0  0  3  0  0  0  0  0  0
  190.8360  173.4540  142.6500 C   0  0  0  0  0  2  0  0  0  0  0  0
  191.3190  171.4800  140.1290 C   0  0  0  0  0  2  0  0  0  0  0  0
  192.8300  173.3110  144.1390 C   0  0  0  0  0  0  0  0  0  0  0  0
  193.4610  172.7960  140.3310 C   0  0  0  0  0  2  0  0  0  0  0  0
  189.8740  173.4130  139.8070 C   0  0  2  0  0  0  0  0  0  0  0  0
  189.8760  171.9000  139.9400 C   0  0  1  0  0  3  0  0  0  0  0  0
  189.3800  175.1310  144.3060 C   0  0  2  0  0  3  0  0  0  0  0  0
  189.0660  173.7000  138.5640 C   0  0  0  0  0  2  0  0  0  0  0  0
  192.1770  172.5800  139.5280 C   0  0  2  0  0  3  0  0  0  0  0  0
  191.6600  174.1430  143.7170 C   0  0  2  0  0  3  0  0  0  0  0  0
  194.8990  172.2700  143.0230 C   0  0  2  0  0  3  0  0  0  0  0  0
  191.3330  173.8450  139.5550 C   0  0  0  0  0  2  0  0  0  0  0  0
  193.4660  172.5060  143.1440 N   0  0  0  0  0  2  0  0  0  0  0  0
  194.2550  171.4980  140.5460 C   0  0  1  0  0  3  0  0  0  0  0  0
  189.2070  173.9900  140.9310 O   0  0  0  0  0  0  0  0  0  0  0  0
  196.0870  175.8440  142.4340 C   0  0  0  0  0  3  0  0  0  0  0  0
  197.5520  174.7800  144.0400 C   0  0  0  0  0  3  0  0  0  0  0  0
  197.9380  177.0290  143.3520 F   0  0  0  0  0  0  0  0  0  0  0  0
  195.3290  174.6720  142.3510 C   0  0  0  0  0  3  0  0  0  0  0  0
  195.6780  173.5500  143.1180 C   0  0  0  0  0  0  0  0  0  0  0  0
  197.1980  175.8970  143.2780 C   0  0  0  0  0  0  0  0  0  0  0  0
  196.7930  173.6080  143.9590 C   0  0  0  0  0  3  0  0  0  0  0  0
  194.9200  171.0780  139.2680 C   0  0  0  0  0  0  0  0  0  0  0  0
  195.3550  169.2810  137.5620 C   0  0  0  0  0  1  0  0  0  0  0  0
  194.7730  169.7330  138.8130 N   0  0  0  0  0  2  0  0  0  0  0  0
  195.5870  171.9100  138.5980 O   0  0  0  0  0  0  0  0  0  0  0  0
  189.4950  177.3230  145.2350 O   0  0  0  0  0  0  0  0  0  0  0  0
  188.8610  176.2370  145.1630 C   0  0  0  0  0  0  0  0  0  0  0  0
  187.6810  176.0610  145.8800 O   0  0  0  0  0  0  0  0  0  0  0  0
  187.6720  176.1100  147.2180 O   0  0  0  0  0  0  0  0  0  0  0  0
  186.3860  176.5490  147.5440 C   0  0  0  0  0  2  0  0  0  0  0  0
  186.3700  178.0640  147.6540 C   0  0  0  0  0  2  0  0  0  0  0  0
  185.4860  178.6440  146.6070 C   0  0  0  0  0  0  0  0  0  0  0  0
  184.8660  179.7700  144.9290 C   0  0  0  0  0  3  0  0  0  0  0  0
  185.8940  179.4850  145.6900 O   0  0  0  0  0  0  0  0  0  0  0  0
  183.7840  179.0560  145.4160 C   0  0  0  0  0  3  0  0  0  0  0  0
  184.1820  178.3370  146.4840 N   0  0  0  0  0  0  0  0  0  0  0  0
  188.1010  175.9040  142.3680 O   0  0  0  0  0  0  0  0  0  0  0  0
  187.7300  177.1850  141.9370 C   0  0  0  0  0  0  0  0  0  0  0  0
  188.6750  178.1150  141.9030 C   0  0  0  0  0  2  0  0  0  0  0  0
  183.9630  177.9390  142.0430 C   0  0  0  0  0  3  0  0  0  0  0  0
  183.6750  178.0340  140.7480 C   0  0  0  0  0  3  0  0  0  0  0  0
  186.0700  177.6080  140.2320 N   0  0  0  0  0  0  0  0  0  0  0  0
  184.7380  177.9100  139.6900 C   0  0  0  0  0  2  0  0  0  0  0  0
  186.3490  177.5240  141.5010 C   0  0  0  0  0  0  0  0  0  0  0  0
  185.3030  177.6950  142.4620 N   0  0  0  0  0  2  0  0  0  0  0  0
  1  2  2  0  0  0  0
  2 19  1  0  0  0  0
  3 14  1  0  0  0  0
  4  9  1  1  0  0  0
  4  8  1  0  0  0  0
  5 16  1  0  0  0  0
  5  3  1  0  0  0  0
  8 46  1  6  0  0  0
  8 15  1  0  0  0  0
 11  7  2  0  0  0  0
 12 22  1  0  0  0  0
 13 16  1  6  0  0  0
 13 14  1  0  0  0  0
 13 23  1  0  0  0  0
 14 10  1  6  0  0  0
 15  6  1  0  0  0  0
 15 36  1  1  0  0  0
 17 20  1  1  0  0  0
 17 10  1  0  0  0  0
 17 12  1  0  0  0  0
 18  9  1  6  0  0  0
 18 11  1  0  0  0  0
 18  6  1  0  0  0  0
 19 28  1  6  0  0  0
 19 21  1  0  0  0  0
 20 13  1  0  0  0  0
 21 11  1  0  0  0  0
 22 31  1  6  0  0  0
 22  2  1  0  0  0  0
 23  4  1  0  0  0  0
 24 29  1  0  0  0  0
 27 24  2  0  0  0  0
 27 28  1  0  0  0  0
 28 30  2  0  0  0  0
 29 26  1  0  0  0  0
 29 25  2  0  0  0  0
 30 25  1  0  0  0  0
 32 33  1  0  0  0  0
 33 31  1  0  0  0  0
 34 31  2  0  0  0  0
 36 35  2  0  0  0  0
 36 37  1  0  0  0  0
 37 38  1  0  0  0  0
 38 39  1  0  0  0  0
 39 40  1  0  0  0  0
 41 40  1  0  0  0  0
 42 44  2  0  0  0  0
 42 43  1  0  0  0  0
 43 41  1  0  0  0  0
 44 45  1  0  0  0  0
 45 41  2  0  0  0  0
 47 46  1  0  0  0  0
 48 47  2  0  0  0  0
 49 54  1  0  0  0  0
 50 49  2  0  0  0  0
 51 53  2  0  0  0  0
 52 51  1  0  0  0  0
 52 50  1  0  0  0  0
 53 47  1  0  0  0  0
 53 54  1  0  0  0  0
M  END
>  <MODEL>
5

>  <REMARK>
 VINA RESULT:      -6.0      3.136      9.199
  Name = 
  11 active torsions:
  status: ('A' for Active; 'I' for Inactive)
    1  A    between atoms: C_2  and  C_40
    2  A    between atoms: O_5  and  C_12
    3  A    between atoms: O_5  and  O_25
    4  A    between atoms: C_6  and  C_51
    5  A    between atoms: C_12  and  C_34
    6  A    between atoms: C_18  and  O_25
    7  A    between atoms: C_18  and  C_40
    8  A    between atoms: C_19  and  O_35
    9  A    between atoms: C_19  and  C_43
   10  A    between atoms: C_21  and  O_35
   11  A    between atoms: C_36  and  C_48
                            x       y       z     vdW  Elec       q    Type
                         _______ _______ _______ _____ _____    ______ ____

>  <TORSDO>
F 11

$$$$
=
 OpenBabel11062418313D

 54 60  0  0  1  0  0  0  0  0999 V2000
  196.5650  171.6210  140.5930 O   0  0  0  0  0  0  0  0  0  0  0  0
  195.4690  172.0390  140.9370 C   0  0  0  0  0  0  0  0  0  0  0  0
  189.2310  171.6170  138.8060 N   0  0  0  0  0  2  0  0  0  0  0  0
  190.1640  174.2150  142.4530 C   0  0  1  0  0  3  0  0  0  0  0  0
  188.1950  172.6150  138.5990 C   0  0  0  0  0  2  0  0  0  0  0  0
  191.2880  173.8310  145.2450 C   0  0  0  0  0  2  0  0  0  0  0  0
  194.0260  172.9140  145.0460 O   0  0  0  0  0  0  0  0  0  0  0  0
  189.5400  174.9290  143.6820 C   0  0  2  0  0  3  0  0  0  0  0  0
  191.1280  173.1070  142.8620 C   0  0  0  0  0  2  0  0  0  0  0  0
  191.3810  171.7470  139.9340 C   0  0  0  0  0  2  0  0  0  0  0  0
  193.3470  172.9470  143.9850 C   0  0  0  0  0  0  0  0  0  0  0  0
  193.3810  173.2750  140.1050 C   0  0  0  0  0  2  0  0  0  0  0  0
  189.7130  173.4920  140.2430 C   0  0  2  0  0  0  0  0  0  0  0  0
  189.8920  171.9970  140.0470 C   0  0  1  0  0  3  0  0  0  0  0  0
  189.8060  174.2170  145.0290 C   0  0  2  0  0  3  0  0  0  0  0  0
  188.6830  173.9050  139.2180 C   0  0  0  0  0  2  0  0  0  0  0  0
  192.0100  173.0490  139.4660 C   0  0  2  0  0  3  0  0  0  0  0  0
  192.0440  173.6800  143.9230 C   0  0  2  0  0  3  0  0  0  0  0  0
  195.2960  172.4330  142.3890 C   0  0  2  0  0  3  0  0  0  0  0  0
  191.0570  174.1590  139.8830 C   0  0  0  0  0  2  0  0  0  0  0  0
  193.8870  172.4440  142.7610 N   0  0  0  0  0  2  0  0  0  0  0  0
  194.3290  172.0790  139.9220 C   0  0  1  0  0  3  0  0  0  0  0  0
  189.1880  173.7440  141.5480 O   0  0  0  0  0  0  0  0  0  0  0  0
  197.5940  175.1400  143.7750 C   0  0  0  0  0  3  0  0  0  0  0  0
  196.0050  176.1550  142.2570 C   0  0  0  0  0  3  0  0  0  0  0  0
  197.6290  177.4880  143.3820 F   0  0  0  0  0  0  0  0  0  0  0  0
  197.0250  173.8870  143.5310 C   0  0  0  0  0  3  0  0  0  0  0  0
  195.9450  173.7630  142.6440 C   0  0  0  0  0  0  0  0  0  0  0  0
  197.0840  176.2730  143.1390 C   0  0  0  0  0  0  0  0  0  0  0  0
  195.4360  174.9010  142.0120 C   0  0  0  0  0  3  0  0  0  0  0  0
  194.8100  172.0100  138.5020 C   0  0  0  0  0  0  0  0  0  0  0  0
  195.0620  170.6810  136.3810 C   0  0  0  0  0  1  0  0  0  0  0  0
  194.6580  170.7940  137.7710 N   0  0  0  0  0  2  0  0  0  0  0  0
  195.3280  173.0220  137.9590 O   0  0  0  0  0  0  0  0  0  0  0  0
  188.9070  174.5000  147.2180 O   0  0  0  0  0  0  0  0  0  0  0  0
  189.3270  175.0540  146.1670 C   0  0  0  0  0  0  0  0  0  0  0  0
  189.3430  176.4410  146.0600 O   0  0  0  0  0  0  0  0  0  0  0  0
  190.4650  177.1380  146.2750 O   0  0  0  0  0  0  0  0  0  0  0  0
  190.6220  177.9150  145.1250 C   0  0  0  0  0  2  0  0  0  0  0  0
  191.7420  177.3490  144.2680 C   0  0  0  0  0  2  0  0  0  0  0  0
  192.9610  177.1360  145.0960 C   0  0  0  0  0  0  0  0  0  0  0  0
  194.2910  176.2630  146.4880 C   0  0  0  0  0  3  0  0  0  0  0  0
  193.0960  176.1610  145.9590 O   0  0  0  0  0  0  0  0  0  0  0  0
  194.9050  177.3580  145.9040 C   0  0  0  0  0  3  0  0  0  0  0  0
  194.0570  177.9110  145.0160 N   0  0  0  0  0  0  0  0  0  0  0  0
  188.1480  175.1730  143.5040 O   0  0  0  0  0  0  0  0  0  0  0  0
  187.6070  176.4210  143.1660 C   0  0  0  0  0  0  0  0  0  0  0  0
  187.9060  176.9130  141.9700 C   0  0  0  0  0  2  0  0  0  0  0  0
  185.1770  177.2600  146.0230 C   0  0  0  0  0  3  0  0  0  0  0  0
  184.8840  178.5290  145.7570 C   0  0  0  0  0  3  0  0  0  0  0  0
  186.4170  178.4260  143.8020 N   0  0  0  0  0  0  0  0  0  0  0  0
  185.5220  179.2660  144.6110 C   0  0  0  0  0  3  0  0  0  0  0  0
  186.7080  177.1860  144.0700 C   0  0  0  0  0  0  0  0  0  0  0  0
  186.1030  176.5520  145.2020 N   0  0  0  0  0  0  0  0  0  0  0  0
  1  2  2  0  0  0  0
  2 19  1  0  0  0  0
  3 14  1  0  0  0  0
  4  9  1  1  0  0  0
  4  8  1  0  0  0  0
  5  3  1  0  0  0  0
  5 16  1  0  0  0  0
  8 46  1  6  0  0  0
  8 15  1  0  0  0  0
 11  7  2  0  0  0  0
 13 16  1  6  0  0  0
 13 23  1  0  0  0  0
 14 10  1  6  0  0  0
 14 13  1  0  0  0  0
 15  6  1  0  0  0  0
 15 36  1  1  0  0  0
 17 20  1  1  0  0  0
 17 10  1  0  0  0  0
 17 12  1  0  0  0  0
 18  9  1  6  0  0  0
 18 11  1  0  0  0  0
 18  6  1  0  0  0  0
 19 28  1  6  0  0  0
 19 21  1  0  0  0  0
 20 13  1  0  0  0  0
 21 11  1  0  0  0  0
 22 31  1  6  0  0  0
 22 12  1  0  0  0  0
 22  2  1  0  0  0  0
 23  4  1  0  0  0  0
 25 29  1  0  0  0  0
 27 24  1  0  0  0  0
 28 27  2  0  0  0  0
 29 26  1  0  0  0  0
 29 24  2  0  0  0  0
 30 25  2  0  0  0  0
 30 28  1  0  0  0  0
 32 33  1  0  0  0  0
 33 31  1  0  0  0  0
 34 31  2  0  0  0  0
 36 35  2  0  0  0  0
 37 36  1  0  0  0  0
 37 38  1  0  0  0  0
 39 38  1  0  0  0  0
 40 41  1  0  0  0  0
 40 39  1  0  0  0  0
 41 43  1  0  0  0  0
 43 42  1  0  0  0  0
 44 42  2  0  0  0  0
 45 41  2  0  0  0  0
 45 44  1  0  0  0  0
 47 46  1  0  0  0  0
 47 53  1  0  0  0  0
 48 47  2  0  0  0  0
 50 49  1  0  0  0  0
 51 53  2  0  0  0  0
 51 52  1  0  0  0  0
 52 50  2  0  0  0  0
 53 54  1  0  0  0  0
 54 49  2  0  0  0  0
M  END
>  <MODEL>
6

>  <REMARK>
 VINA RESULT:      -5.9      2.813      8.015
  Name = 
  11 active torsions:
  status: ('A' for Active; 'I' for Inactive)
    1  A    between atoms: C_2  and  C_40
    2  A    between atoms: O_5  and  C_12
    3  A    between atoms: O_5  and  O_25
    4  A    between atoms: C_6  and  C_51
    5  A    between atoms: C_12  and  C_34
    6  A    between atoms: C_18  and  O_25
    7  A    between atoms: C_18  and  C_40
    8  A    between atoms: C_19  and  O_35
    9  A    between atoms: C_19  and  C_43
   10  A    between atoms: C_21  and  O_35
   11  A    between atoms: C_36  and  C_48
                            x       y       z     vdW  Elec       q    Type
                         _______ _______ _______ _____ _____    ______ ____

>  <TORSDO>
F 11

$$$$
=
 OpenBabel11062418313D

 54 60  0  0  1  0  0  0  0  0999 V2000
  187.9440  176.0060  146.5620 O   0  0  0  0  0  0  0  0  0  0  0  0
  188.8160  175.7230  145.7540 C   0  0  0  0  0  0  0  0  0  0  0  0
  195.3370  174.6730  145.8270 N   0  0  0  0  0  2  0  0  0  0  0  0
  193.1100  174.5560  141.8340 C   0  0  1  0  0  3  0  0  0  0  0  0
  196.4200  175.1630  144.9910 C   0  0  0  0  0  2  0  0  0  0  0  0
  190.8990  172.9200  140.5520 C   0  0  0  0  0  2  0  0  0  0  0  0
  188.4490  173.3060  142.0450 O   0  0  0  0  0  0  0  0  0  0  0  0
  193.2010  174.0890  140.3560 C   0  0  2  0  0  3  0  0  0  0  0  0
  192.0020  173.8370  142.5950 C   0  0  0  0  0  2  0  0  0  0  0  0
  192.9230  174.7790  145.5530 C   0  0  0  0  0  2  0  0  0  0  0  0
  189.5110  173.7630  142.5460 C   0  0  0  0  0  0  0  0  0  0  0  0
  191.1270  176.4210  144.8890 C   0  0  0  0  0  2  0  0  0  0  0  0
  194.4050  175.2680  143.6850 C   0  0  2  0  0  0  0  0  0  0  0  0
  194.2390  174.3900  144.9130 C   0  0  1  0  0  3  0  0  0  0  0  0
  192.3540  172.8350  140.0360 C   0  0  2  0  0  3  0  0  0  0  0  0
  195.7920  175.8550  143.8020 C   0  0  0  0  0  2  0  0  0  0  0  0
  192.6250  176.2020  145.1110 C   0  0  2  0  0  3  0  0  0  0  0  0
  190.7590  173.8880  141.7310 C   0  0  2  0  0  3  0  0  0  0  0  0
  188.3860  175.0410  144.4720 C   0  0  2  0  0  3  0  0  0  0  0  0
  193.3760  176.4120  143.8060 C   0  0  0  0  0  2  0  0  0  0  0  0
  189.5070  174.3490  143.8500 N   0  0  0  0  0  2  0  0  0  0  0  0
  190.2770  176.0030  146.0990 C   0  0  1  0  0  3  0  0  0  0  0  0
  194.3470  174.4600  142.5080 O   0  0  0  0  0  0  0  0  0  0  0  0
  185.8310  176.9920  142.4240 C   0  0  0  0  0  3  0  0  0  0  0  0
  188.0450  177.8490  141.9480 C   0  0  0  0  0  3  0  0  0  0  0  0
  186.1310  178.7660  140.8630 F   0  0  0  0  0  0  0  0  0  0  0  0
  186.3820  176.0730  143.3210 C   0  0  0  0  0  3  0  0  0  0  0  0
  187.7680  176.0410  143.5380 C   0  0  0  0  0  0  0  0  0  0  0  0
  186.6630  177.8800  141.7390 C   0  0  0  0  0  0  0  0  0  0  0  0
  188.5950  176.9300  142.8460 C   0  0  0  0  0  3  0  0  0  0  0  0
  190.4330  176.9980  147.2110 C   0  0  0  0  0  0  0  0  0  0  0  0
  191.5750  177.6680  149.3500 C   0  0  0  0  0  1  0  0  0  0  0  0
  191.3480  176.7230  148.2720 N   0  0  0  0  0  2  0  0  0  0  0  0
  189.7730  178.0710  147.1990 O   0  0  0  0  0  0  0  0  0  0  0  0
  193.0770  171.6340  138.1080 O   0  0  0  0  0  0  0  0  0  0  0  0
  192.3580  172.5600  138.5690 C   0  0  0  0  0  0  0  0  0  0  0  0
  191.5720  173.3310  137.7200 O   0  0  0  0  0  0  0  0  0  0  0  0
  191.1820  172.8670  136.5260 O   0  0  0  0  0  0  0  0  0  0  0  0
  189.8140  172.6300  136.6710 C   0  0  0  0  0  2  0  0  0  0  0  0
  189.4840  171.2160  136.2220 C   0  0  0  0  0  2  0  0  0  0  0  0
  190.0600  170.2300  137.1770 C   0  0  0  0  0  0  0  0  0  0  0  0
  190.4420  169.2030  138.9850 C   0  0  0  0  0  3  0  0  0  0  0  0
  189.7820  170.2040  138.4560 O   0  0  0  0  0  0  0  0  0  0  0  0
  191.1510  168.5940  137.9630 C   0  0  0  0  0  3  0  0  0  0  0  0
  190.9040  169.2490  136.8110 N   0  0  0  0  0  0  0  0  0  0  0  0
  194.5510  173.9090  139.9380 O   0  0  0  0  0  0  0  0  0  0  0  0
  195.2800  174.8590  139.2090 C   0  0  0  0  0  0  0  0  0  0  0  0
  196.0920  175.6590  139.8900 C   0  0  0  0  0  2  0  0  0  0  0  0
  196.2800  174.8820  135.4980 C   0  0  0  0  0  3  0  0  0  0  0  0
  195.1640  175.3230  134.9260 C   0  0  0  0  0  3  0  0  0  0  0  0
  194.1050  175.4230  137.1740 N   0  0  0  0  0  0  0  0  0  0  0  0
  193.9230  175.6090  135.7280 C   0  0  0  0  0  2  0  0  0  0  0  0
  195.1970  174.9830  137.7290 C   0  0  0  0  0  0  0  0  0  0  0  0
  196.3310  174.6860  136.9090 N   0  0  0  0  0  2  0  0  0  0  0  0
  2 22  1  0  0  0  0
  2  1  2  0  0  0  0
  4 23  1  0  0  0  0
  4  9  1  1  0  0  0
  5  3  1  0  0  0  0
  7 11  2  0  0  0  0
  8 46  1  1  0  0  0
  8  4  1  0  0  0  0
 11 21  1  0  0  0  0
 12 17  1  0  0  0  0
 12 22  1  0  0  0  0
 13 16  1  1  0  0  0
 13 20  1  0  0  0  0
 13 14  1  0  0  0  0
 14 10  1  1  0  0  0
 14  3  1  0  0  0  0
 15 36  1  6  0  0  0
 15  8  1  0  0  0  0
 15  6  1  0  0  0  0
 16  5  1  0  0  0  0
 17 20  1  6  0  0  0
 17 10  1  0  0  0  0
 18  6  1  6  0  0  0
 18 11  1  0  0  0  0
 18  9  1  0  0  0  0
 19 28  1  6  0  0  0
 19  2  1  0  0  0  0
 21 19  1  0  0  0  0
 22 31  1  1  0  0  0
 23 13  1  0  0  0  0
 24 27  1  0  0  0  0
 25 30  2  0  0  0  0
 26 29  1  0  0  0  0
 27 28  2  0  0  0  0
 29 25  1  0  0  0  0
 29 24  2  0  0  0  0
 30 28  1  0  0  0  0
 31 33  1  0  0  0  0
 33 32  1  0  0  0  0
 34 31  2  0  0  0  0
 35 36  2  0  0  0  0
 37 36  1  0  0  0  0
 38 39  1  0  0  0  0
 38 37  1  0  0  0  0
 40 39  1  0  0  0  0
 40 41  1  0  0  0  0
 41 43  1  0  0  0  0
 43 42  1  0  0  0  0
 44 42  2  0  0  0  0
 45 41  2  0  0  0  0
 45 44  1  0  0  0  0
 47 48  2  0  0  0  0
 47 46  1  0  0  0  0
 49 54  1  0  0  0  0
 50 49  2  0  0  0  0
 50 52  1  0  0  0  0
 51 53  2  0  0  0  0
 52 51  1  0  0  0  0
 53 47  1  0  0  0  0
 54 53  1  0  0  0  0
M  END
>  <MODEL>
7

>  <REMARK>
 VINA RESULT:      -5.8      2.912      6.211
  Name = 
  11 active torsions:
  status: ('A' for Active; 'I' for Inactive)
    1  A    between atoms: C_2  and  C_40
    2  A    between atoms: O_5  and  C_12
    3  A    between atoms: O_5  and  O_25
    4  A    between atoms: C_6  and  C_51
    5  A    between atoms: C_12  and  C_34
    6  A    between atoms: C_18  and  O_25
    7  A    between atoms: C_18  and  C_40
    8  A    between atoms: C_19  and  O_35
    9  A    between atoms: C_19  and  C_43
   10  A    between atoms: C_21  and  O_35
   11  A    between atoms: C_36  and  C_48
                            x       y       z     vdW  Elec       q    Type
                         _______ _______ _______ _____ _____    ______ ____

>  <TORSDO>
F 11

$$$$
=
 OpenBabel11062418313D

 54 60  0  0  1  0  0  0  0  0999 V2000
  189.9640  176.0510  145.6350 O   0  0  0  0  0  0  0  0  0  0  0  0
  190.3460  175.5280  144.5980 C   0  0  0  0  0  0  0  0  0  0  0  0
  196.0280  173.2260  142.1370 N   0  0  0  0  0  2  0  0  0  0  0  0
  192.2840  173.1800  139.5090 C   0  0  1  0  0  3  0  0  0  0  0  0
  196.6910  173.4140  140.8580 C   0  0  0  0  0  2  0  0  0  0  0  0
  189.5330  171.9000  139.5550 C   0  0  0  0  0  2  0  0  0  0  0  0
  188.0640  172.8980  141.8410 O   0  0  0  0  0  0  0  0  0  0  0  0
  191.6540  172.5690  138.2290 C   0  0  2  0  0  3  0  0  0  0  0  0
  191.5340  172.7670  140.7700 C   0  0  0  0  0  2  0  0  0  0  0  0
  193.7780  173.7800  142.8750 C   0  0  0  0  0  2  0  0  0  0  0  0
  189.2900  173.1810  141.7710 C   0  0  0  0  0  0  0  0  0  0  0  0
  192.1170  175.6750  142.7480 C   0  0  0  0  0  2  0  0  0  0  0  0
  194.3440  173.7920  140.5070 C   0  0  2  0  0  0  0  0  0  0  0  0
  194.6130  173.0820  141.8220 C   0  0  1  0  0  3  0  0  0  0  0  0
  190.5890  171.4820  138.5040 C   0  0  2  0  0  3  0  0  0  0  0  0
  195.7080  174.1030  139.9380 C   0  0  0  0  0  2  0  0  0  0  0  0
  193.5150  175.1860  142.3630 C   0  0  2  0  0  3  0  0  0  0  0  0
  190.0590  172.9810  140.5040 C   0  0  2  0  0  3  0  0  0  0  0  0
  189.3090  174.8280  143.7450 C   0  0  2  0  0  3  0  0  0  0  0  0
  193.6400  175.1220  140.8490 C   0  0  0  0  0  2  0  0  0  0  0  0
  189.9380  173.8740  142.8400 N   0  0  0  0  0  2  0  0  0  0  0  0
  191.8340  175.5460  144.2530 C   0  0  1  0  0  3  0  0  0  0  0  0
  193.6660  172.9060  139.6150 O   0  0  0  0  0  0  0  0  0  0  0  0
  188.3100  177.8440  141.6390 C   0  0  0  0  0  3  0  0  0  0  0  0
  186.3090  176.6910  142.3650 C   0  0  0  0  0  3  0  0  0  0  0  0
  186.1570  178.6630  141.0350 F   0  0  0  0  0  0  0  0  0  0  0  0
  189.0950  176.8970  142.3030 C   0  0  0  0  0  3  0  0  0  0  0  0
  188.4890  175.8400  142.9970 C   0  0  0  0  0  0  0  0  0  0  0  0
  186.9180  177.7400  141.6700 C   0  0  0  0  0  0  0  0  0  0  0  0
  187.0950  175.7430  143.0290 C   0  0  0  0  0  3  0  0  0  0  0  0
  192.5960  176.5890  145.0160 C   0  0  0  0  0  0  0  0  0  0  0  0
  194.1890  177.1530  146.8800 C   0  0  0  0  0  1  0  0  0  0  0  0
  193.3940  176.1950  146.1330 N   0  0  0  0  0  2  0  0  0  0  0  0
  192.5440  177.7970  144.6620 O   0  0  0  0  0  0  0  0  0  0  0  0
  189.8560  169.8600  136.9200 O   0  0  0  0  0  0  0  0  0  0  0  0
  189.9130  171.0780  137.2380 C   0  0  0  0  0  0  0  0  0  0  0  0
  189.3540  172.0480  136.4120 O   0  0  0  0  0  0  0  0  0  0  0  0
  189.5610  172.0340  135.0890 O   0  0  0  0  0  0  0  0  0  0  0  0
  189.3240  173.3480  134.6820 C   0  0  0  0  0  2  0  0  0  0  0  0
  189.1940  174.2500  135.8990 C   0  0  0  0  0  2  0  0  0  0  0  0
  188.8190  175.6270  135.4770 C   0  0  0  0  0  0  0  0  0  0  0  0
  188.9150  177.5060  134.5140 C   0  0  0  0  0  3  0  0  0  0  0  0
  189.5520  176.3740  134.6910 O   0  0  0  0  0  0  0  0  0  0  0  0
  187.7340  177.4280  135.2300 C   0  0  0  0  0  3  0  0  0  0  0  0
  187.6730  176.2290  135.8420 N   0  0  0  0  0  0  0  0  0  0  0  0
  192.6450  172.0900  137.3250 O   0  0  0  0  0  0  0  0  0  0  0  0
  192.9700  172.7130  136.1120 C   0  0  0  0  0  0  0  0  0  0  0  0
  192.7980  172.0100  134.9990 C   0  0  0  0  0  2  0  0  0  0  0  0
  193.0140  176.5470  135.8510 C   0  0  0  0  0  3  0  0  0  0  0  0
  194.3160  176.7890  135.7330 C   0  0  0  0  0  3  0  0  0  0  0  0
  194.7400  174.3450  135.9030 N   0  0  0  0  0  0  0  0  0  0  0  0
  195.3350  175.6830  135.7860 C   0  0  0  0  0  2  0  0  0  0  0  0
  193.4650  174.1130  136.0270 C   0  0  0  0  0  0  0  0  0  0  0  0
  192.5470  175.2100  136.0140 N   0  0  0  0  0  2  0  0  0  0  0  0
  2  1  2  0  0  0  0
  4 23  1  0  0  0  0
  4  9  1  1  0  0  0
  5  3  1  0  0  0  0
  8 46  1  6  0  0  0
  8 15  1  0  0  0  0
  8  4  1  0  0  0  0
 11  7  2  0  0  0  0
 11 21  1  0  0  0  0
 12 22  1  0  0  0  0
 13 16  1  6  0  0  0
 13 20  1  0  0  0  0
 13 14  1  0  0  0  0
 14  3  1  0  0  0  0
 14 10  1  1  0  0  0
 15 36  1  6  0  0  0
 15  6  1  0  0  0  0
 16  5  1  0  0  0  0
 17 20  1  6  0  0  0
 17 12  1  0  0  0  0
 17 10  1  0  0  0  0
 18  6  1  1  0  0  0
 18  9  1  0  0  0  0
 18 11  1  0  0  0  0
 19 28  1  6  0  0  0
 19  2  1  0  0  0  0
 21 19  1  0  0  0  0
 22  2  1  0  0  0  0
 22 31  1  1  0  0  0
 23 13  1  0  0  0  0
 24 29  2  0  0  0  0
 24 27  1  0  0  0  0
 25 30  2  0  0  0  0
 26 29  1  0  0  0  0
 27 28  2  0  0  0  0
 28 30  1  0  0  0  0
 29 25  1  0  0  0  0
 31 33  1  0  0  0  0
 33 32  1  0  0  0  0
 34 31  2  0  0  0  0
 35 36  2  0  0  0  0
 37 36  1  0  0  0  0
 38 37  1  0  0  0  0
 39 38  1  0  0  0  0
 39 40  1  0  0  0  0
 41 45  2  0  0  0  0
 41 40  1  0  0  0  0
 42 43  1  0  0  0  0
 42 44  2  0  0  0  0
 43 41  1  0  0  0  0
 44 45  1  0  0  0  0
 47 46  1  0  0  0  0
 48 47  2  0  0  0  0
 49 54  1  0  0  0  0
 50 52  1  0  0  0  0
 50 49  2  0  0  0  0
 51 53  2  0  0  0  0
 52 51  1  0  0  0  0
 53 47  1  0  0  0  0
 54 53  1  0  0  0  0
M  END
>  <MODEL>
8

>  <REMARK>
 VINA RESULT:      -5.5      3.399      7.429
  Name = 
  11 active torsions:
  status: ('A' for Active; 'I' for Inactive)
    1  A    between atoms: C_2  and  C_40
    2  A    between atoms: O_5  and  C_12
    3  A    between atoms: O_5  and  O_25
    4  A    between atoms: C_6  and  C_51
    5  A    between atoms: C_12  and  C_34
    6  A    between atoms: C_18  and  O_25
    7  A    between atoms: C_18  and  C_40
    8  A    between atoms: C_19  and  O_35
    9  A    between atoms: C_19  and  C_43
   10  A    between atoms: C_21  and  O_35
   11  A    between atoms: C_36  and  C_48
                            x       y       z     vdW  Elec       q    Type
                         _______ _______ _______ _____ _____    ______ ____

>  <TORSDO>
F 11

$$$$
=
 OpenBabel11062418313D

 54 60  0  0  1  0  0  0  0  0999 V2000
  193.0960  173.3630  145.4840 O   0  0  0  0  0  0  0  0  0  0  0  0
  193.0580  173.5040  144.2700 C   0  0  0  0  0  0  0  0  0  0  0  0
  197.2960  173.1540  139.2150 N   0  0  0  0  0  2  0  0  0  0  0  0
  192.9640  174.3830  138.4060 C   0  0  1  0  0  3  0  0  0  0  0  0
  197.5540  174.0350  138.0890 C   0  0  0  0  0  2  0  0  0  0  0  0
  190.2000  173.1670  138.7060 C   0  0  0  0  0  2  0  0  0  0  0  0
  189.6700  172.6990  141.5130 O   0  0  0  0  0  0  0  0  0  0  0  0
  191.8870  174.5390  137.3000 C   0  0  2  0  0  3  0  0  0  0  0  0
  192.5840  173.3190  139.4300 C   0  0  0  0  0  2  0  0  0  0  0  0
  195.4900  173.1210  140.8450 C   0  0  0  0  0  2  0  0  0  0  0  0
  190.8440  173.0270  141.1910 C   0  0  0  0  0  0  0  0  0  0  0  0
  194.1770  174.7080  142.3010 C   0  0  0  0  0  2  0  0  0  0  0  0
  195.2980  174.4420  138.8090 C   0  0  2  0  0  0  0  0  0  0  0  0
  195.8470  173.1430  139.3730 C   0  0  1  0  0  3  0  0  0  0  0  0
  190.8070  173.4320  137.3080 C   0  0  2  0  0  3  0  0  0  0  0  0
  196.4520  175.0700  138.0640 C   0  0  0  0  0  2  0  0  0  0  0  0
  195.2990  174.5670  141.2700 C   0  0  2  0  0  3  0  0  0  0  0  0
  191.1480  173.5800  139.8350 C   0  0  2  0  0  3  0  0  0  0  0  0
  191.7160  173.3370  143.5890 C   0  0  2  0  0  3  0  0  0  0  0  0
  194.9420  175.3410  140.0110 C   0  0  0  0  0  2  0  0  0  0  0  0
  191.8860  173.0550  142.1690 N   0  0  0  0  0  2  0  0  0  0  0  0
  194.3530  173.7700  143.5060 C   0  0  1  0  0  3  0  0  0  0  0  0
  194.2530  174.1540  137.8770 O   0  0  0  0  0  0  0  0  0  0  0  0
  190.4550  176.9330  143.5470 C   0  0  0  0  0  3  0  0  0  0  0  0
  188.9140  175.5720  144.8250 C   0  0  0  0  0  3  0  0  0  0  0  0
  188.5300  177.9080  144.5550 F   0  0  0  0  0  0  0  0  0  0  0  0
  191.2450  175.8060  143.3010 C   0  0  0  0  0  3  0  0  0  0  0  0
  190.8680  174.5550  143.8130 C   0  0  0  0  0  0  0  0  0  0  0  0
  189.2910  176.8150  144.3080 C   0  0  0  0  0  0  0  0  0  0  0  0
  189.7040  174.4440  144.5770 C   0  0  0  0  0  3  0  0  0  0  0  0
  195.4610  174.2630  144.3900 C   0  0  0  0  0  0  0  0  0  0  0  0
  197.4010  173.7340  145.9020 C   0  0  0  0  0  1  0  0  0  0  0  0
  196.2860  173.3170  145.0700 N   0  0  0  0  0  2  0  0  0  0  0  0
  195.6690  175.4990  144.5160 O   0  0  0  0  0  0  0  0  0  0  0  0
  189.7980  173.3280  135.1510 O   0  0  0  0  0  0  0  0  0  0  0  0
  189.7220  173.7520  136.3350 C   0  0  0  0  0  0  0  0  0  0  0  0
  188.6350  174.5200  136.7400 O   0  0  0  0  0  0  0  0  0  0  0  0
  187.9670  175.2870  135.8690 O   0  0  0  0  0  0  0  0  0  0  0  0
  187.5610  176.3960  136.6150 C   0  0  0  0  0  2  0  0  0  0  0  0
  186.4510  175.9950  137.5720 C   0  0  0  0  0  2  0  0  0  0  0  0
  186.8060  176.3900  138.9620 C   0  0  0  0  0  0  0  0  0  0  0  0
  187.7080  176.3420  140.8730 C   0  0  0  0  0  3  0  0  0  0  0  0
  187.6020  175.6960  139.7370 O   0  0  0  0  0  0  0  0  0  0  0  0
  186.9360  177.4860  140.7700 C   0  0  0  0  0  3  0  0  0  0  0  0
  186.3640  177.5160  139.5500 N   0  0  0  0  0  0  0  0  0  0  0  0
  192.4690  174.6700  136.0060 O   0  0  0  0  0  0  0  0  0  0  0  0
  192.5510  175.8790  135.3010 C   0  0  0  0  0  0  0  0  0  0  0  0
  191.4210  176.3880  134.8280 C   0  0  0  0  0  2  0  0  0  0  0  0
  195.0540  178.7220  134.6480 C   0  0  0  0  0  3  0  0  0  0  0  0
  196.1970  178.0510  134.5520 C   0  0  0  0  0  3  0  0  0  0  0  0
  194.9470  175.9470  134.9880 N   0  0  0  0  0  0  0  0  0  0  0  0
  196.2610  176.5620  134.7550 C   0  0  0  0  0  2  0  0  0  0  0  0
  193.8300  176.6080  135.0900 C   0  0  0  0  0  0  0  0  0  0  0  0
  193.8400  178.0300  134.9310 N   0  0  0  0  0  2  0  0  0  0  0  0
  2  1  2  0  0  0  0
  3 14  1  0  0  0  0
  4  9  1  1  0  0  0
  5  3  1  0  0  0  0
  8 46  1  6  0  0  0
  8 15  1  0  0  0  0
  8  4  1  0  0  0  0
  9 18  1  0  0  0  0
 10 17  1  0  0  0  0
 11  7  2  0  0  0  0
 11 21  1  0  0  0  0
 12 22  1  0  0  0  0
 13 16  1  6  0  0  0
 13 14  1  0  0  0  0
 13 20  1  0  0  0  0
 14 10  1  1  0  0  0
 15 36  1  6  0  0  0
 15  6  1  0  0  0  0
 16  5  1  0  0  0  0
 17 20  1  6  0  0  0
 17 12  1  0  0  0  0
 18  6  1  6  0  0  0
 18 11  1  0  0  0  0
 19 28  1  6  0  0  0
 19  2  1  0  0  0  0
 21 19  1  0  0  0  0
 22  2  1  0  0  0  0
 22 31  1  1  0  0  0
 23  4  1  0  0  0  0
 23 13  1  0  0  0  0
 24 29  1  0  0  0  0
 27 24  2  0  0  0  0
 27 28  1  0  0  0  0
 28 30  2  0  0  0  0
 29 26  1  0  0  0  0
 29 25  2  0  0  0  0
 30 25  1  0  0  0  0
 31 34  2  0  0  0  0
 31 33  1  0  0  0  0
 33 32  1  0  0  0  0
 35 36  2  0  0  0  0
 36 37  1  0  0  0  0
 38 39  1  0  0  0  0
 38 37  1  0  0  0  0
 39 40  1  0  0  0  0
 40 41  1  0  0  0  0
 41 45  2  0  0  0  0
 41 43  1  0  0  0  0
 43 42  1  0  0  0  0
 44 42  2  0  0  0  0
 45 44  1  0  0  0  0
 47 46  1  0  0  0  0
 48 47  2  0  0  0  0
 49 54  1  0  0  0  0
 50 49  2  0  0  0  0
 50 52  1  0  0  0  0
 51 53  2  0  0  0  0
 52 51  1  0  0  0  0
 53 47  1  0  0  0  0
 54 53  1  0  0  0  0
M  END
>  <MODEL>
9

>  <REMARK>
 VINA RESULT:      -5.3      3.440      8.519
  Name = 
  11 active torsions:
  status: ('A' for Active; 'I' for Inactive)
    1  A    between atoms: C_2  and  C_40
    2  A    between atoms: O_5  and  C_12
    3  A    between atoms: O_5  and  O_25
    4  A    between atoms: C_6  and  C_51
    5  A    between atoms: C_12  and  C_34
    6  A    between atoms: C_18  and  O_25
    7  A    between atoms: C_18  and  C_40
    8  A    between atoms: C_19  and  O_35
    9  A    between atoms: C_19  and  C_43
   10  A    between atoms: C_21  and  O_35
   11  A    between atoms: C_36  and  C_48
                            x       y       z     vdW  Elec       q    Type
                         _______ _______ _______ _____ _____    ______ ____

>  <TORSDO>
F 11

$$$$
