=
 OpenBabel11062418293D

 48 52  0  0  1  0  0  0  0  0999 V2000
  186.0060  177.9280  142.0500 C   0  0  0  0  0  3  0  0  0  0  0  0
  185.1460  178.2670  143.1070 C   0  0  0  0  0  0  0  0  0  0  0  0
  183.7800  178.4270  142.8170 C   0  0  0  0  0  3  0  0  0  0  0  0
  185.5090  177.7590  140.7590 C   0  0  0  0  0  0  0  0  0  0  0  0
  184.1460  177.9320  140.5250 C   0  0  0  0  0  3  0  0  0  0  0  0
  183.3170  178.2550  141.5510 N   0  0  0  0  0  0  0  0  0  0  0  0
  185.7020  176.6760  146.0810 C   0  0  2  0  0  3  0  0  0  0  0  0
  184.8480  177.6780  145.5070 C   0  0  2  0  0  3  0  0  0  0  0  0
  185.6640  178.5170  144.5140 C   0  0  1  0  0  0  0  0  0  0  0  0
  185.3030  177.8690  146.9610 C   0  0  0  0  0  0  0  0  0  0  0  0
  187.1110  178.0700  144.6220 C   0  0  0  0  0  2  0  0  0  0  0  0
  187.1100  176.8420  145.5060 C   0  0  1  0  0  3  0  0  0  0  0  0
  185.3520  178.5050  148.0000 O   0  0  0  0  0  0  0  0  0  0  0  0
  185.5920  179.9980  144.8910 C   0  0  0  0  0  1  0  0  0  0  0  0
  188.1710  176.9850  146.5930 C   0  0  0  0  0  2  0  0  0  0  0  0
  189.1890  175.8580  146.5290 C   0  0  0  0  0  2  0  0  0  0  0  0
  190.5810  176.3780  146.8450 C   0  0  1  0  0  3  0  0  0  0  0  0
  191.1510  175.6170  147.9500 C   0  0  0  0  0  2  0  0  0  0  0  0
  191.5570  175.3150  146.5710 N   0  0  0  0  0  0  0  0  0  0  0  0
  192.8450  175.9600  146.3680 C   0  0  0  0  0  2  0  0  0  0  0  0
  193.7010  175.1500  145.4050 C   0  0  0  0  0  2  0  0  0  0  0  0
  195.1790  175.5160  145.5400 C   0  0  1  0  0  3  0  0  0  0  0  0
  195.8330  174.5780  146.3480 O   0  0  0  0  0  1  0  0  0  0  0  0
  196.1650  176.9940  143.9280 O   0  0  0  0  0  1  0  0  0  0  0  0
  195.8850  175.6490  144.1820 C   0  0  0  0  0  0  0  0  0  0  0  0
  197.0890  174.9470  144.2350 O   0  0  0  0  0  1  0  0  0  0  0  0
  194.5500  176.0880  142.2340 F   0  0  0  0  0  0  0  0  0  0  0  0
  195.0480  175.0810  143.0390 C   0  0  0  0  0  2  0  0  0  0  0  0
  186.6130  177.3470  139.4130 S   0  0  0  0  0  0  0  0  0  0  0  0
  187.9430  174.6990  138.7360 O   0  0  0  0  0  0  0  0  0  0  0  0
  187.5550  176.2550  140.4330 N   0  0  0  0  0  2  0  0  0  0  0  0
  188.1490  175.0600  139.9250 C   0  0  0  0  0  0  0  0  0  0  0  0
  189.0400  174.2370  140.8040 C   0  0  1  0  0  3  0  0  0  0  0  0
  188.9200  174.6770  142.1300 O   0  0  0  0  0  0  0  0  0  0  0  0
  190.6980  174.1180  143.6100 C   0  0  0  0  0  1  0  0  0  0  0  0
  190.2090  175.0520  142.5170 C   0  0  2  0  0  3  0  0  0  0  0  0
  190.1870  176.4830  143.0290 C   0  0  0  0  0  2  0  0  0  0  0  0
  191.5640  177.1030  142.9120 C   0  0  0  0  0  2  0  0  0  0  0  0
  190.3780  178.6220  144.2980 O   0  0  0  0  0  1  0  0  0  0  0  0
  191.6390  178.3440  143.7780 C   0  0  0  0  0  2  0  0  0  0  0  0
  188.6830  172.7460  140.6960 C   0  0  1  0  0  3  0  0  0  0  0  0
  190.6790  171.5120  137.9380 C   0  0  0  0  0  2  0  0  0  0  0  0
  190.9400  172.8680  139.9060 C   0  0  0  0  0  2  0  0  0  0  0  0
  189.4430  171.4330  138.7980 C   0  0  0  0  0  2  0  0  0  0  0  0
  189.7960  171.9810  140.1060 N   0  0  0  0  0  0  0  0  0  0  0  0
  191.4450  172.6840  138.4910 C   0  0  0  0  0  2  0  0  0  0  0  0
  188.2050  172.1700  142.0370 C   0  0  0  0  0  2  0  0  0  0  0  0
  189.2210  171.4450  142.6340 F   0  0  0  0  0  0  0  0  0  0  0  0
  1  2  1  0  0  0  0
  2  9  1  0  0  0  0
  3  2  2  0  0  0  0
  4  1  2  0  0  0  0
  5  4  1  0  0  0  0
  5  6  2  0  0  0  0
  6  3  1  0  0  0  0
  7 10  1  1  0  0  0
  8  7  1  0  0  0  0
  8 10  1  1  0  0  0
  9 11  1  0  0  0  0
  9 14  1  1  0  0  0
  9  8  1  0  0  0  0
 10 13  2  0  0  0  0
 11 12  1  0  0  0  0
 12  7  1  0  0  0  0
 12 15  1  1  0  0  0
 16 15  1  0  0  0  0
 17 16  1  6  0  0  0
 17 18  1  0  0  0  0
 19 17  1  0  0  0  0
 19 18  1  0  0  0  0
 20 19  1  0  0  0  0
 21 22  1  0  0  0  0
 21 20  1  0  0  0  0
 22 23  1  1  0  0  0
 24 25  1  0  0  0  0
 25 26  1  0  0  0  0
 25 22  1  0  0  0  0
 27 28  1  0  0  0  0
 28 25  1  0  0  0  0
 29 31  1  0  0  0  0
 29  4  1  0  0  0  0
 30 32  2  0  0  0  0
 32 31  1  0  0  0  0
 33 32  1  6  0  0  0
 33 34  1  0  0  0  0
 34 36  1  0  0  0  0
 36 37  1  0  0  0  0
 36 35  1  1  0  0  0
 38 37  1  0  0  0  0
 38 40  1  0  0  0  0
 40 39  1  0  0  0  0
 41 33  1  0  0  0  0
 41 47  1  1  0  0  0
 42 46  1  0  0  0  0
 42 44  1  0  0  0  0
 43 45  1  0  0  0  0
 44 45  1  0  0  0  0
 45 41  1  0  0  0  0
 46 43  1  0  0  0  0
 47 48  1  0  0  0  0
M  END
>  <MODEL>
1

>  <REMARK>
 VINA RESULT:      -6.7      0.000      0.000
  Name = 
  20 active torsions:
  status: ('A' for Active; 'I' for Inactive)
    1  A    between atoms: C_1  and  C_47
    2  A    between atoms: C_3  and  C_26
    3  A    between atoms: C_4  and  C_18
    4  A    between atoms: C_4  and  C_24
    5  A    between atoms: S_5  and  C_23
    6  A    between atoms: S_5  and  N_39
    7  A    between atoms: C_9  and  C_12
    8  A    between atoms: C_10  and  C_25
    9  A    between atoms: C_10  and  C_38
   10  A    between atoms: C_18  and  N_45
   11  A    between atoms: C_21  and  C_27
   12  A    between atoms: C_21  and  C_47
   13  A    between atoms: C_24  and  C_31
   14  A    between atoms: C_25  and  C_48
   15  A    between atoms: C_26  and  C_33
   16  A    between atoms: C_26  and  N_35
   17  A    between atoms: C_31  and  C_36
   18  A    between atoms: O_32  and  C_33
   19  A    between atoms: O_32  and  C_48
   20  A    between atoms: C_33  and  C_42
                            x       y       z     vdW  Elec       q    Type
                         _______ _______ _______ _____ _____    ______ ____

>  <TORSDO>
F 20

$$$$
=
 OpenBabel11062418293D

 48 52  0  0  1  0  0  0  0  0999 V2000
  187.2040  177.2640  143.5840 C   0  0  0  0  0  3  0  0  0  0  0  0
  187.0130  177.7130  144.9000 C   0  0  0  0  0  0  0  0  0  0  0  0
  186.2220  178.8590  145.0950 C   0  0  0  0  0  3  0  0  0  0  0  0
  186.6230  177.9400  142.5130 C   0  0  0  0  0  0  0  0  0  0  0  0
  185.8510  179.0730  142.7610 C   0  0  0  0  0  3  0  0  0  0  0  0
  185.6640  179.5020  144.0370 N   0  0  0  0  0  0  0  0  0  0  0  0
  189.6000  175.6190  145.6820 C   0  0  2  0  0  3  0  0  0  0  0  0
  188.1650  175.6390  145.6580 C   0  0  2  0  0  3  0  0  0  0  0  0
  187.6810  177.0330  146.0850 C   0  0  1  0  0  0  0  0  0  0  0  0
  188.8540  174.8760  146.7980 C   0  0  0  0  0  0  0  0  0  0  0  0
  188.9010  177.8250  146.5180 C   0  0  0  0  0  2  0  0  0  0  0  0
  190.1040  176.9860  146.1490 C   0  0  1  0  0  3  0  0  0  0  0  0
  188.8280  174.2240  147.8280 O   0  0  0  0  0  0  0  0  0  0  0  0
  186.7340  176.9200  147.2820 C   0  0  0  0  0  1  0  0  0  0  0  0
  191.0490  176.8820  147.3420 C   0  0  0  0  0  2  0  0  0  0  0  0
  192.1890  175.9130  147.0660 C   0  0  0  0  0  2  0  0  0  0  0  0
  193.1050  176.4610  145.9870 C   0  0  1  0  0  3  0  0  0  0  0  0
  194.3290  176.9700  146.5920 C   0  0  0  0  0  2  0  0  0  0  0  0
  194.3300  175.6500  145.9490 N   0  0  0  0  0  0  0  0  0  0  0  0
  194.9220  175.8310  144.6320 C   0  0  0  0  0  2  0  0  0  0  0  0
  196.1380  174.9310  144.4660 C   0  0  0  0  0  2  0  0  0  0  0  0
  195.7580  173.4590  144.6200 C   0  0  1  0  0  3  0  0  0  0  0  0
  195.5740  172.8780  143.3600 O   0  0  0  0  0  1  0  0  0  0  0  0
  197.9200  172.4170  144.6630 O   0  0  0  0  0  1  0  0  0  0  0  0
  196.7850  172.6630  145.4400 C   0  0  0  0  0  0  0  0  0  0  0  0
  197.1610  173.4250  146.5460 O   0  0  0  0  0  1  0  0  0  0  0  0
  194.8360  171.3370  145.9050 F   0  0  0  0  0  0  0  0  0  0  0  0
  196.2180  171.3370  145.9420 C   0  0  0  0  0  2  0  0  0  0  0  0
  186.8870  177.3740  140.8370 S   0  0  0  0  0  0  0  0  0  0  0  0
  188.0220  175.0380  139.2570 O   0  0  0  0  0  0  0  0  0  0  0  0
  187.8220  175.9800  141.3850 N   0  0  0  0  0  2  0  0  0  0  0  0
  188.3160  174.9910  140.4820 C   0  0  0  0  0  0  0  0  0  0  0  0
  189.2070  173.8970  140.9850 C   0  0  1  0  0  3  0  0  0  0  0  0
  190.0870  173.5070  139.9650 O   0  0  0  0  0  0  0  0  0  0  0  0
  191.2860  171.4530  139.8830 C   0  0  0  0  0  1  0  0  0  0  0  0
  189.9250  172.1250  139.8400 C   0  0  2  0  0  3  0  0  0  0  0  0
  189.2340  171.8150  138.5230 C   0  0  0  0  0  2  0  0  0  0  0  0
  189.6260  170.4340  138.0370 C   0  0  0  0  0  2  0  0  0  0  0  0
  190.8850  171.4620  136.3070 O   0  0  0  0  0  1  0  0  0  0  0  0
  189.9270  170.4830  136.5530 C   0  0  0  0  0  2  0  0  0  0  0  0
  189.9880  174.3590  142.2250 C   0  0  1  0  0  3  0  0  0  0  0  0
  192.0380  172.7900  144.7640 C   0  0  0  0  0  2  0  0  0  0  0  0
  189.9390  172.4330  143.6460 C   0  0  0  0  0  2  0  0  0  0  0  0
  191.8890  173.7460  143.6080 C   0  0  0  0  0  2  0  0  0  0  0  0
  190.7870  173.2550  142.7850 N   0  0  0  0  0  0  0  0  0  0  0  0
  190.6550  172.2270  144.9640 C   0  0  0  0  0  2  0  0  0  0  0  0
  190.8220  175.6180  141.9430 C   0  0  0  0  0  2  0  0  0  0  0  0
  190.4530  176.6370  142.8040 F   0  0  0  0  0  0  0  0  0  0  0  0
  1  2  1  0  0  0  0
  2  3  2  0  0  0  0
  2  9  1  0  0  0  0
  4  5  1  0  0  0  0
  4  1  2  0  0  0  0
  5  6  2  0  0  0  0
  6  3  1  0  0  0  0
  7 12  1  0  0  0  0
  7 10  1  1  0  0  0
  8  7  1  0  0  0  0
  8  9  1  0  0  0  0
  8 10  1  1  0  0  0
  9 11  1  0  0  0  0
  9 14  1  1  0  0  0
 10 13  2  0  0  0  0
 12 11  1  0  0  0  0
 12 15  1  1  0  0  0
 16 15  1  0  0  0  0
 17 18  1  0  0  0  0
 17 16  1  1  0  0  0
 19 17  1  0  0  0  0
 19 18  1  0  0  0  0
 20 19  1  0  0  0  0
 21 22  1  0  0  0  0
 21 20  1  0  0  0  0
 22 23  1  6  0  0  0
 22 25  1  0  0  0  0
 24 25  1  0  0  0  0
 25 28  1  0  0  0  0
 25 26  1  0  0  0  0
 27 28  1  0  0  0  0
 29 31  1  0  0  0  0
 29  4  1  0  0  0  0
 30 32  2  0  0  0  0
 32 33  1  0  0  0  0
 32 31  1  0  0  0  0
 33 34  1  6  0  0  0
 33 41  1  0  0  0  0
 36 35  1  6  0  0  0
 36 34  1  0  0  0  0
 37 36  1  0  0  0  0
 38 37  1  0  0  0  0
 39 40  1  0  0  0  0
 40 38  1  0  0  0  0
 41 47  1  6  0  0  0
 41 45  1  0  0  0  0
 42 46  1  0  0  0  0
 43 46  1  0  0  0  0
 44 42  1  0  0  0  0
 45 44  1  0  0  0  0
 45 43  1  0  0  0  0
 47 48  1  0  0  0  0
M  END
>  <MODEL>
2

>  <REMARK>
 VINA RESULT:      -6.0      2.319      4.469
  Name = 
  20 active torsions:
  status: ('A' for Active; 'I' for Inactive)
    1  A    between atoms: C_1  and  C_47
    2  A    between atoms: C_3  and  C_26
    3  A    between atoms: C_4  and  C_18
    4  A    between atoms: C_4  and  C_24
    5  A    between atoms: S_5  and  C_23
    6  A    between atoms: S_5  and  N_39
    7  A    between atoms: C_9  and  C_12
    8  A    between atoms: C_10  and  C_25
    9  A    between atoms: C_10  and  C_38
   10  A    between atoms: C_18  and  N_45
   11  A    between atoms: C_21  and  C_27
   12  A    between atoms: C_21  and  C_47
   13  A    between atoms: C_24  and  C_31
   14  A    between atoms: C_25  and  C_48
   15  A    between atoms: C_26  and  C_33
   16  A    between atoms: C_26  and  N_35
   17  A    between atoms: C_31  and  C_36
   18  A    between atoms: O_32  and  C_33
   19  A    between atoms: O_32  and  C_48
   20  A    between atoms: C_33  and  C_42
                            x       y       z     vdW  Elec       q    Type
                         _______ _______ _______ _____ _____    ______ ____

>  <TORSDO>
F 20

$$$$
=
 OpenBabel11062418293D

 48 52  0  0  1  0  0  0  0  0999 V2000
  191.9430  171.6490  141.4760 C   0  0  0  0  0  3  0  0  0  0  0  0
  191.6710  171.5760  140.1010 C   0  0  0  0  0  0  0  0  0  0  0  0
  192.1640  170.4670  139.3910 C   0  0  0  0  0  3  0  0  0  0  0  0
  192.6780  170.6480  142.1070 C   0  0  0  0  0  0  0  0  0  0  0  0
  193.1470  169.5710  141.3570 C   0  0  0  0  0  3  0  0  0  0  0  0
  192.8780  169.5020  140.0270 N   0  0  0  0  0  0  0  0  0  0  0  0
  188.5130  172.5500  139.2260 C   0  0  2  0  0  3  0  0  0  0  0  0
  189.7260  172.0700  138.6270 C   0  0  2  0  0  3  0  0  0  0  0  0
  190.9230  172.6800  139.3710 C   0  0  1  0  0  0  0  0  0  0  0  0
  188.9100  173.1170  137.8570 C   0  0  0  0  0  0  0  0  0  0  0  0
  190.3740  173.6830  140.3690 C   0  0  0  0  0  2  0  0  0  0  0  0
  188.8710  173.5090  140.3630 C   0  0  1  0  0  3  0  0  0  0  0  0
  188.7360  173.8640  136.9080 O   0  0  0  0  0  0  0  0  0  0  0  0
  191.8290  173.4280  138.3900 C   0  0  0  0  0  1  0  0  0  0  0  0
  188.1930  174.8670  140.2150 C   0  0  0  0  0  2  0  0  0  0  0  0
  187.7370  175.4110  141.5610 C   0  0  0  0  0  2  0  0  0  0  0  0
  187.6510  176.9260  141.5220 C   0  0  1  0  0  3  0  0  0  0  0  0
  186.5680  177.3360  140.6370 C   0  0  0  0  0  2  0  0  0  0  0  0
  186.3610  177.3420  142.0910 N   0  0  0  0  0  0  0  0  0  0  0  0
  186.5110  178.7230  142.5240 C   0  0  0  0  0  2  0  0  0  0  0  0
  186.0900  178.8740  143.9790 C   0  0  0  0  0  2  0  0  0  0  0  0
  186.7120  177.7810  144.8480 C   0  0  1  0  0  3  0  0  0  0  0  0
  188.1020  177.9380  144.8940 O   0  0  0  0  0  1  0  0  0  0  0  0
  185.2670  176.6460  146.3920 O   0  0  0  0  0  1  0  0  0  0  0  0
  186.1230  177.7430  146.2670 C   0  0  0  0  0  0  0  0  0  0  0  0
  187.1660  177.5980  147.1800 O   0  0  0  0  0  1  0  0  0  0  0  0
  183.9940  178.8230  146.5380 F   0  0  0  0  0  0  0  0  0  0  0  0
  185.3600  179.0210  146.6080 C   0  0  0  0  0  2  0  0  0  0  0  0
  193.0380  170.7560  143.8550 S   0  0  0  0  0  0  0  0  0  0  0  0
  193.8450  172.9170  145.8360 O   0  0  0  0  0  0  0  0  0  0  0  0
  192.6120  172.4700  143.9040 N   0  0  0  0  0  2  0  0  0  0  0  0
  193.1270  173.3560  144.8980 C   0  0  0  0  0  0  0  0  0  0  0  0
  192.8300  174.8220  144.8180 C   0  0  1  0  0  3  0  0  0  0  0  0
  193.7730  175.4420  143.9850 O   0  0  0  0  0  0  0  0  0  0  0  0
  194.5580  177.1500  145.4450 C   0  0  0  0  0  1  0  0  0  0  0  0
  194.8360  175.7940  144.8220 C   0  0  2  0  0  3  0  0  0  0  0  0
  196.1200  175.8480  144.0120 C   0  0  0  0  0  2  0  0  0  0  0  0
  195.8470  175.4750  142.5700 C   0  0  0  0  0  2  0  0  0  0  0  0
  196.7770  176.1460  140.4910 O   0  0  0  0  0  1  0  0  0  0  0  0
  196.2090  176.6350  141.6650 C   0  0  0  0  0  2  0  0  0  0  0  0
  191.4070  175.0610  144.2920 C   0  0  1  0  0  3  0  0  0  0  0  0
  189.3950  174.7700  147.2880 C   0  0  0  0  0  2  0  0  0  0  0  0
  191.3490  175.9400  146.5180 C   0  0  0  0  0  2  0  0  0  0  0  0
  189.5610  174.5920  145.8000 C   0  0  0  0  0  2  0  0  0  0  0  0
  190.5350  175.5870  145.3560 N   0  0  0  0  0  0  0  0  0  0  0  0
  190.7170  175.3250  147.7480 C   0  0  0  0  0  2  0  0  0  0  0  0
  191.3990  175.9320  143.0260 C   0  0  0  0  0  2  0  0  0  0  0  0
  191.1330  177.2490  143.3560 F   0  0  0  0  0  0  0  0  0  0  0  0
  1  4  1  0  0  0  0
  2  1  2  0  0  0  0
  3  6  2  0  0  0  0
  3  2  1  0  0  0  0
  4 29  1  0  0  0  0
  5  4  2  0  0  0  0
  6  5  1  0  0  0  0
  7 10  1  6  0  0  0
  7 12  1  0  0  0  0
  8 10  1  6  0  0  0
  8  7  1  0  0  0  0
  8  9  1  0  0  0  0
  9 14  1  6  0  0  0
  9  2  1  0  0  0  0
  9 11  1  0  0  0  0
 12 15  1  6  0  0  0
 12 11  1  0  0  0  0
 13 10  2  0  0  0  0
 15 16  1  0  0  0  0
 17 16  1  6  0  0  0
 17 19  1  0  0  0  0
 18 17  1  0  0  0  0
 18 19  1  0  0  0  0
 19 20  1  0  0  0  0
 20 21  1  0  0  0  0
 21 22  1  0  0  0  0
 22 23  1  1  0  0  0
 22 25  1  0  0  0  0
 25 24  1  0  0  0  0
 25 28  1  0  0  0  0
 25 26  1  0  0  0  0
 27 28  1  0  0  0  0
 29 31  1  0  0  0  0
 31 32  1  0  0  0  0
 32 30  2  0  0  0  0
 33 34  1  6  0  0  0
 33 32  1  0  0  0  0
 34 36  1  0  0  0  0
 36 35  1  6  0  0  0
 37 36  1  0  0  0  0
 38 37  1  0  0  0  0
 39 40  1  0  0  0  0
 40 38  1  0  0  0  0
 41 47  1  6  0  0  0
 41 33  1  0  0  0  0
 41 45  1  0  0  0  0
 42 46  1  0  0  0  0
 43 46  1  0  0  0  0
 44 42  1  0  0  0  0
 45 44  1  0  0  0  0
 45 43  1  0  0  0  0
 47 48  1  0  0  0  0
M  END
>  <MODEL>
3

>  <REMARK>
 VINA RESULT:      -5.9      2.870      8.676
  Name = 
  20 active torsions:
  status: ('A' for Active; 'I' for Inactive)
    1  A    between atoms: C_1  and  C_47
    2  A    between atoms: C_3  and  C_26
    3  A    between atoms: C_4  and  C_18
    4  A    between atoms: C_4  and  C_24
    5  A    between atoms: S_5  and  C_23
    6  A    between atoms: S_5  and  N_39
    7  A    between atoms: C_9  and  C_12
    8  A    between atoms: C_10  and  C_25
    9  A    between atoms: C_10  and  C_38
   10  A    between atoms: C_18  and  N_45
   11  A    between atoms: C_21  and  C_27
   12  A    between atoms: C_21  and  C_47
   13  A    between atoms: C_24  and  C_31
   14  A    between atoms: C_25  and  C_48
   15  A    between atoms: C_26  and  C_33
   16  A    between atoms: C_26  and  N_35
   17  A    between atoms: C_31  and  C_36
   18  A    between atoms: O_32  and  C_33
   19  A    between atoms: O_32  and  C_48
   20  A    between atoms: C_33  and  C_42
                            x       y       z     vdW  Elec       q    Type
                         _______ _______ _______ _____ _____    ______ ____

>  <TORSDO>
F 20

$$$$
=
 OpenBabel11062418293D

 48 52  0  0  1  0  0  0  0  0999 V2000
  194.2110  174.3650  140.4290 C   0  0  0  0  0  3  0  0  0  0  0  0
  193.6160  173.4140  139.5840 C   0  0  0  0  0  0  0  0  0  0  0  0
  194.1200  173.2890  138.2780 C   0  0  0  0  0  3  0  0  0  0  0  0
  195.2670  175.1530  139.9750 C   0  0  0  0  0  0  0  0  0  0  0  0
  195.7260  174.9910  138.6690 C   0  0  0  0  0  3  0  0  0  0  0  0
  195.1510  174.0660  137.8570 N   0  0  0  0  0  0  0  0  0  0  0  0
  191.5940  172.8520  142.2830 C   0  0  2  0  0  3  0  0  0  0  0  0
  192.6040  172.1930  141.5040 C   0  0  2  0  0  3  0  0  0  0  0  0
  192.4250  172.5800  140.0280 C   0  0  1  0  0  0  0  0  0  0  0  0
  191.4430  171.3450  142.0400 C   0  0  0  0  0  0  0  0  0  0  0  0
  191.1510  173.3980  139.9240 C   0  0  0  0  0  2  0  0  0  0  0  0
  190.7040  173.6700  141.3440 C   0  0  1  0  0  3  0  0  0  0  0  0
  190.8380  170.2910  142.1470 O   0  0  0  0  0  0  0  0  0  0  0  0
  192.2590  171.3250  139.1700 C   0  0  0  0  0  1  0  0  0  0  0  0
  189.2250  173.3270  141.4970 C   0  0  0  0  0  2  0  0  0  0  0  0
  188.6460  173.9180  142.7730 C   0  0  0  0  0  2  0  0  0  0  0  0
  188.8070  175.4280  142.7810 C   0  0  1  0  0  3  0  0  0  0  0  0
  187.7360  176.0420  142.0070 C   0  0  0  0  0  2  0  0  0  0  0  0
  187.6560  176.0240  143.4750 N   0  0  0  0  0  0  0  0  0  0  0  0
  188.0670  177.3430  143.9280 C   0  0  0  0  0  2  0  0  0  0  0  0
  187.5140  177.6250  145.3170 C   0  0  0  0  0  2  0  0  0  0  0  0
  186.3510  178.6160  145.2570 C   0  0  1  0  0  3  0  0  0  0  0  0
  186.0130  178.8760  143.9240 O   0  0  0  0  0  1  0  0  0  0  0  0
  183.9600  178.6300  145.4480 O   0  0  0  0  0  1  0  0  0  0  0  0
  185.1220  178.1400  146.0460 C   0  0  0  0  0  0  0  0  0  0  0  0
  185.0840  176.7460  146.0150 O   0  0  0  0  0  1  0  0  0  0  0  0
  186.0000  179.6770  147.6700 F   0  0  0  0  0  0  0  0  0  0  0  0
  185.1680  178.5860  147.5060 C   0  0  0  0  0  2  0  0  0  0  0  0
  196.0080  176.3760  141.0490 S   0  0  0  0  0  0  0  0  0  0  0  0
  196.4280  177.0050  143.9930 O   0  0  0  0  0  0  0  0  0  0  0  0
  195.2440  175.6780  142.4800 N   0  0  0  0  0  2  0  0  0  0  0  0
  195.5380  176.1350  143.8000 C   0  0  0  0  0  0  0  0  0  0  0  0
  194.7710  175.5920  144.9670 C   0  0  1  0  0  3  0  0  0  0  0  0
  193.4090  175.5320  144.6400 O   0  0  0  0  0  0  0  0  0  0  0  0
  193.3930  176.7500  146.6850 C   0  0  0  0  0  1  0  0  0  0  0  0
  192.8220  176.6250  145.2840 C   0  0  2  0  0  3  0  0  0  0  0  0
  191.3170  176.4220  145.3540 C   0  0  0  0  0  2  0  0  0  0  0  0
  190.9980  175.0650  145.9490 C   0  0  0  0  0  2  0  0  0  0  0  0
  189.0280  174.3470  147.0620 O   0  0  0  0  0  1  0  0  0  0  0  0
  190.0950  175.2370  147.1540 C   0  0  0  0  0  2  0  0  0  0  0  0
  195.2920  174.2010  145.3620 C   0  0  1  0  0  3  0  0  0  0  0  0
  195.2170  170.9580  143.7540 C   0  0  0  0  0  2  0  0  0  0  0  0
  193.9580  172.2140  145.3720 C   0  0  0  0  0  2  0  0  0  0  0  0
  195.6950  172.3870  143.7970 C   0  0  0  0  0  2  0  0  0  0  0  0
  194.6850  173.1550  144.5220 N   0  0  0  0  0  0  0  0  0  0  0  0
  194.3730  170.8080  144.9920 C   0  0  0  0  0  2  0  0  0  0  0  0
  196.8280  174.1440  145.3720 C   0  0  0  0  0  2  0  0  0  0  0  0
  197.2680  173.3460  146.4140 F   0  0  0  0  0  0  0  0  0  0  0  0
  2  9  1  0  0  0  0
  2  1  2  0  0  0  0
  3  2  1  0  0  0  0
  4  1  1  0  0  0  0
  4 29  1  0  0  0  0
  5  4  2  0  0  0  0
  6  3  2  0  0  0  0
  6  5  1  0  0  0  0
  7 10  1  6  0  0  0
  8 10  1  6  0  0  0
  8  7  1  0  0  0  0
  9 14  1  6  0  0  0
  9  8  1  0  0  0  0
 10 13  2  0  0  0  0
 11  9  1  0  0  0  0
 11 12  1  0  0  0  0
 12 15  1  6  0  0  0
 12  7  1  0  0  0  0
 15 16  1  0  0  0  0
 17 16  1  6  0  0  0
 17 19  1  0  0  0  0
 18 17  1  0  0  0  0
 18 19  1  0  0  0  0
 19 20  1  0  0  0  0
 20 21  1  0  0  0  0
 22 23  1  6  0  0  0
 22 21  1  0  0  0  0
 22 25  1  0  0  0  0
 24 25  1  0  0  0  0
 25 28  1  0  0  0  0
 26 25  1  0  0  0  0
 28 27  1  0  0  0  0
 29 31  1  0  0  0  0
 31 32  1  0  0  0  0
 32 30  2  0  0  0  0
 33 32  1  6  0  0  0
 33 41  1  0  0  0  0
 34 33  1  0  0  0  0
 34 36  1  0  0  0  0
 36 37  1  0  0  0  0
 36 35  1  1  0  0  0
 37 38  1  0  0  0  0
 38 40  1  0  0  0  0
 39 40  1  0  0  0  0
 41 47  1  6  0  0  0
 42 44  1  0  0  0  0
 42 46  1  0  0  0  0
 44 45  1  0  0  0  0
 45 41  1  0  0  0  0
 45 43  1  0  0  0  0
 46 43  1  0  0  0  0
 47 48  1  0  0  0  0
M  END
>  <MODEL>
4

>  <REMARK>
 VINA RESULT:      -5.9      3.475      8.727
  Name = 
  20 active torsions:
  status: ('A' for Active; 'I' for Inactive)
    1  A    between atoms: C_1  and  C_47
    2  A    between atoms: C_3  and  C_26
    3  A    between atoms: C_4  and  C_18
    4  A    between atoms: C_4  and  C_24
    5  A    between atoms: S_5  and  C_23
    6  A    between atoms: S_5  and  N_39
    7  A    between atoms: C_9  and  C_12
    8  A    between atoms: C_10  and  C_25
    9  A    between atoms: C_10  and  C_38
   10  A    between atoms: C_18  and  N_45
   11  A    between atoms: C_21  and  C_27
   12  A    between atoms: C_21  and  C_47
   13  A    between atoms: C_24  and  C_31
   14  A    between atoms: C_25  and  C_48
   15  A    between atoms: C_26  and  C_33
   16  A    between atoms: C_26  and  N_35
   17  A    between atoms: C_31  and  C_36
   18  A    between atoms: O_32  and  C_33
   19  A    between atoms: O_32  and  C_48
   20  A    between atoms: C_33  and  C_42
                            x       y       z     vdW  Elec       q    Type
                         _______ _______ _______ _____ _____    ______ ____

>  <TORSDO>
F 20

$$$$
=
 OpenBabel11062418293D

 48 52  0  0  1  0  0  0  0  0999 V2000
  192.1730  172.1490  142.6950 C   0  0  0  0  0  3  0  0  0  0  0  0
  191.1460  171.9200  141.7650 C   0  0  0  0  0  0  0  0  0  0  0  0
  190.7580  170.5890  141.5300 C   0  0  0  0  0  3  0  0  0  0  0  0
  192.7810  171.0840  143.3560 C   0  0  0  0  0  0  0  0  0  0  0  0
  192.3610  169.7830  143.0830 C   0  0  0  0  0  3  0  0  0  0  0  0
  191.3630  169.5660  142.1870 N   0  0  0  0  0  0  0  0  0  0  0  0
  188.1410  173.4770  141.2830 C   0  0  2  0  0  3  0  0  0  0  0  0
  189.0780  172.6440  140.5830 C   0  0  2  0  0  3  0  0  0  0  0  0
  190.5030  173.0540  140.9830 C   0  0  1  0  0  0  0  0  0  0  0  0
  188.3500  173.7350  139.7850 C   0  0  0  0  0  0  0  0  0  0  0  0
  190.3920  174.2900  141.8580 C   0  0  0  0  0  2  0  0  0  0  0  0
  188.9180  174.4760  142.1430 C   0  0  1  0  0  3  0  0  0  0  0  0
  188.1370  174.3590  138.7580 O   0  0  0  0  0  0  0  0  0  0  0  0
  191.3160  173.4190  139.7400 C   0  0  0  0  0  1  0  0  0  0  0  0
  188.5150  175.9210  141.8650 C   0  0  0  0  0  2  0  0  0  0  0  0
  187.0030  176.0870  141.8630 C   0  0  0  0  0  2  0  0  0  0  0  0
  186.5330  176.7040  143.1690 C   0  0  1  0  0  3  0  0  0  0  0  0
  187.2930  177.9180  143.4410 C   0  0  0  0  0  2  0  0  0  0  0  0
  185.9370  178.0170  142.8840 N   0  0  0  0  0  0  0  0  0  0  0  0
  185.0560  178.3360  143.9960 C   0  0  0  0  0  2  0  0  0  0  0  0
  185.8390  178.9870  145.1270 C   0  0  0  0  0  2  0  0  0  0  0  0
  185.2430  178.6280  146.4880 C   0  0  1  0  0  3  0  0  0  0  0  0
  184.3370  177.5710  146.3490 O   0  0  0  0  0  1  0  0  0  0  0  0
  186.7130  179.4580  148.1920 O   0  0  0  0  0  1  0  0  0  0  0  0
  186.3140  178.2920  147.5360 C   0  0  0  0  0  0  0  0  0  0  0  0
  185.7620  177.4210  148.4750 O   0  0  0  0  0  1  0  0  0  0  0  0
  187.2380  176.3330  146.4970 F   0  0  0  0  0  0  0  0  0  0  0  0
  187.5350  177.6160  146.9160 C   0  0  0  0  0  2  0  0  0  0  0  0
  194.1020  171.3820  144.5240 S   0  0  0  0  0  0  0  0  0  0  0  0
  195.8630  173.5940  145.6410 O   0  0  0  0  0  0  0  0  0  0  0  0
  194.1340  173.1070  144.1490 N   0  0  0  0  0  2  0  0  0  0  0  0
  195.0730  174.0000  144.7480 C   0  0  0  0  0  0  0  0  0  0  0  0
  195.1350  175.4290  144.3010 C   0  0  1  0  0  3  0  0  0  0  0  0
  194.9370  175.4910  142.9150 O   0  0  0  0  0  0  0  0  0  0  0  0
  196.5210  176.7730  141.6840 C   0  0  0  0  0  1  0  0  0  0  0  0
  196.2160  175.4450  142.3520 C   0  0  2  0  0  3  0  0  0  0  0  0
  196.2770  174.3230  141.3290 C   0  0  0  0  0  2  0  0  0  0  0  0
  194.9600  174.2170  140.5880 C   0  0  0  0  0  2  0  0  0  0  0  0
  194.1030  175.2570  138.6330 O   0  0  0  0  0  1  0  0  0  0  0  0
  195.1770  174.5140  139.1180 C   0  0  0  0  0  2  0  0  0  0  0  0
  194.0830  176.2750  145.0350 C   0  0  1  0  0  3  0  0  0  0  0  0
  190.4720  176.0900  145.2290 C   0  0  0  0  0  2  0  0  0  0  0  0
  192.1680  177.3060  144.0350 C   0  0  0  0  0  2  0  0  0  0  0  0
  191.8300  175.4860  145.4840 C   0  0  0  0  0  2  0  0  0  0  0  0
  192.7390  176.0370  144.4820 N   0  0  0  0  0  0  0  0  0  0  0  0
  190.7690  177.4270  144.6020 C   0  0  0  0  0  2  0  0  0  0  0  0
  194.1470  176.0790  146.5580 C   0  0  0  0  0  2  0  0  0  0  0  0
  194.0790  177.3040  147.1990 F   0  0  0  0  0  0  0  0  0  0  0  0
  1  4  1  0  0  0  0
  2  1  2  0  0  0  0
  3  2  1  0  0  0  0
  3  6  2  0  0  0  0
  4 29  1  0  0  0  0
  5  4  2  0  0  0  0
  6  5  1  0  0  0  0
  7 10  1  6  0  0  0
  7 12  1  0  0  0  0
  8 10  1  6  0  0  0
  8  9  1  0  0  0  0
  8  7  1  0  0  0  0
  9 14  1  6  0  0  0
  9  2  1  0  0  0  0
  9 11  1  0  0  0  0
 11 12  1  0  0  0  0
 12 15  1  6  0  0  0
 13 10  2  0  0  0  0
 16 15  1  0  0  0  0
 17 16  1  6  0  0  0
 17 18  1  0  0  0  0
 19 17  1  0  0  0  0
 19 18  1  0  0  0  0
 19 20  1  0  0  0  0
 20 21  1  0  0  0  0
 21 22  1  0  0  0  0
 22 23  1  6  0  0  0
 22 25  1  0  0  0  0
 25 24  1  0  0  0  0
 25 26  1  0  0  0  0
 27 28  1  0  0  0  0
 28 25  1  0  0  0  0
 31 29  1  0  0  0  0
 31 32  1  0  0  0  0
 32 30  2  0  0  0  0
 33 34  1  6  0  0  0
 33 32  1  0  0  0  0
 33 41  1  0  0  0  0
 36 35  1  6  0  0  0
 36 34  1  0  0  0  0
 37 36  1  0  0  0  0
 38 37  1  0  0  0  0
 39 40  1  0  0  0  0
 40 38  1  0  0  0  0
 41 47  1  1  0  0  0
 42 44  1  0  0  0  0
 43 45  1  0  0  0  0
 43 46  1  0  0  0  0
 45 41  1  0  0  0  0
 45 44  1  0  0  0  0
 46 42  1  0  0  0  0
 47 48  1  0  0  0  0
M  END
>  <MODEL>
5

>  <REMARK>
 VINA RESULT:      -5.8      2.937      8.501
  Name = 
  20 active torsions:
  status: ('A' for Active; 'I' for Inactive)
    1  A    between atoms: C_1  and  C_47
    2  A    between atoms: C_3  and  C_26
    3  A    between atoms: C_4  and  C_18
    4  A    between atoms: C_4  and  C_24
    5  A    between atoms: S_5  and  C_23
    6  A    between atoms: S_5  and  N_39
    7  A    between atoms: C_9  and  C_12
    8  A    between atoms: C_10  and  C_25
    9  A    between atoms: C_10  and  C_38
   10  A    between atoms: C_18  and  N_45
   11  A    between atoms: C_21  and  C_27
   12  A    between atoms: C_21  and  C_47
   13  A    between atoms: C_24  and  C_31
   14  A    between atoms: C_25  and  C_48
   15  A    between atoms: C_26  and  C_33
   16  A    between atoms: C_26  and  N_35
   17  A    between atoms: C_31  and  C_36
   18  A    between atoms: O_32  and  C_33
   19  A    between atoms: O_32  and  C_48
   20  A    between atoms: C_33  and  C_42
                            x       y       z     vdW  Elec       q    Type
                         _______ _______ _______ _____ _____    ______ ____

>  <TORSDO>
F 20

$$$$
=
 OpenBabel11062418293D

 48 52  0  0  1  0  0  0  0  0999 V2000
  191.5470  173.5120  139.9590 C   0  0  0  0  0  3  0  0  0  0  0  0
  192.8240  173.9130  139.5340 C   0  0  0  0  0  0  0  0  0  0  0  0
  192.9890  174.2560  138.1800 C   0  0  0  0  0  3  0  0  0  0  0  0
  190.4850  173.4600  139.0590 C   0  0  0  0  0  0  0  0  0  0  0  0
  190.7030  173.8070  137.7260 C   0  0  0  0  0  3  0  0  0  0  0  0
  191.9380  174.1990  137.3210 N   0  0  0  0  0  0  0  0  0  0  0  0
  195.9410  175.2690  139.8970 C   0  0  2  0  0  3  0  0  0  0  0  0
  195.3090  174.0030  139.6510 C   0  0  2  0  0  3  0  0  0  0  0  0
  194.0160  173.9240  140.4760 C   0  0  1  0  0  0  0  0  0  0  0  0
  196.5710  174.0190  140.5250 C   0  0  0  0  0  0  0  0  0  0  0  0
  193.9670  175.1560  141.3620 C   0  0  0  0  0  2  0  0  0  0  0  0
  195.1000  176.0500  140.9100 C   0  0  1  0  0  3  0  0  0  0  0  0
  197.4050  173.4670  141.2240 O   0  0  0  0  0  0  0  0  0  0  0  0
  194.0400  172.6880  141.3770 C   0  0  0  0  0  1  0  0  0  0  0  0
  195.9160  176.5040  142.1170 C   0  0  0  0  0  2  0  0  0  0  0  0
  195.3280  175.9750  143.4160 C   0  0  0  0  0  2  0  0  0  0  0  0
  196.3930  175.2650  144.2330 C   0  0  1  0  0  3  0  0  0  0  0  0
  195.8200  174.7960  145.4880 C   0  0  0  0  0  2  0  0  0  0  0  0
  196.0140  173.8520  144.3780 N   0  0  0  0  0  0  0  0  0  0  0  0
  197.2310  173.1120  144.6730 C   0  0  0  0  0  2  0  0  0  0  0  0
  196.9680  172.0570  145.7380 C   0  0  0  0  0  2  0  0  0  0  0  0
  196.9250  170.6570  145.1270 C   0  0  1  0  0  3  0  0  0  0  0  0
  197.7080  169.7790  145.8860 O   0  0  0  0  0  1  0  0  0  0  0  0
  195.1070  170.1760  143.6370 O   0  0  0  0  0  1  0  0  0  0  0  0
  195.4940  170.1170  144.9780 C   0  0  0  0  0  0  0  0  0  0  0  0
  195.4750  168.7840  145.3870 O   0  0  0  0  0  1  0  0  0  0  0  0
  193.6750  171.6840  145.0440 F   0  0  0  0  0  0  0  0  0  0  0  0
  194.4930  170.8950  145.8290 C   0  0  0  0  0  2  0  0  0  0  0  0
  188.8660  172.9290  139.6010 S   0  0  0  0  0  0  0  0  0  0  0  0
  187.4630  173.4870  142.2400 O   0  0  0  0  0  0  0  0  0  0  0  0
  188.5690  174.4610  140.4280 N   0  0  0  0  0  2  0  0  0  0  0  0
  187.9240  174.5280  141.7000 C   0  0  0  0  0  0  0  0  0  0  0  0
  187.8090  175.8420  142.4120 C   0  0  1  0  0  3  0  0  0  0  0  0
  189.0410  176.5080  142.3590 O   0  0  0  0  0  0  0  0  0  0  0  0
  189.6850  177.5890  144.3790 C   0  0  0  0  0  1  0  0  0  0  0  0
  189.6400  176.2860  143.6020 C   0  0  2  0  0  3  0  0  0  0  0  0
  191.0490  175.7550  143.3960 C   0  0  0  0  0  2  0  0  0  0  0  0
  191.0890  174.2620  143.6480 C   0  0  0  0  0  2  0  0  0  0  0  0
  189.7020  172.5740  144.5750 O   0  0  0  0  0  1  0  0  0  0  0  0
  190.0940  173.9000  144.7320 C   0  0  0  0  0  2  0  0  0  0  0  0
  186.7020  176.7030  141.7850 C   0  0  1  0  0  3  0  0  0  0  0  0
  185.8090  177.6710  145.1580 C   0  0  0  0  0  2  0  0  0  0  0  0
  185.9470  178.6450  142.9650 C   0  0  0  0  0  2  0  0  0  0  0  0
  186.0470  176.6010  144.1230 C   0  0  0  0  0  2  0  0  0  0  0  0
  185.7760  177.2010  142.8180 N   0  0  0  0  0  0  0  0  0  0  0  0
  186.0990  178.9610  144.4380 C   0  0  0  0  0  2  0  0  0  0  0  0
  187.2740  177.8240  140.9030 C   0  0  0  0  0  2  0  0  0  0  0  0
  186.8750  177.6470  139.5900 F   0  0  0  0  0  0  0  0  0  0  0  0
  2  1  1  0  0  0  0
  2  9  1  0  0  0  0
  3  2  2  0  0  0  0
  4 29  1  0  0  0  0
  4  1  2  0  0  0  0
  5  4  1  0  0  0  0
  6  5  2  0  0  0  0
  6  3  1  0  0  0  0
  7 10  1  1  0  0  0
  7 12  1  0  0  0  0
  8  7  1  0  0  0  0
  8  9  1  0  0  0  0
  8 10  1  1  0  0  0
  9 11  1  0  0  0  0
  9 14  1  1  0  0  0
 10 13  2  0  0  0  0
 12 11  1  0  0  0  0
 12 15  1  1  0  0  0
 15 16  1  0  0  0  0
 17 16  1  6  0  0  0
 17 19  1  0  0  0  0
 17 18  1  0  0  0  0
 19 20  1  0  0  0  0
 19 18  1  0  0  0  0
 20 21  1  0  0  0  0
 22 21  1  0  0  0  0
 22 23  1  1  0  0  0
 24 25  1  0  0  0  0
 25 22  1  0  0  0  0
 25 26  1  0  0  0  0
 25 28  1  0  0  0  0
 27 28  1  0  0  0  0
 29 31  1  0  0  0  0
 31 32  1  0  0  0  0
 32 30  2  0  0  0  0
 33 32  1  6  0  0  0
 34 33  1  0  0  0  0
 34 36  1  0  0  0  0
 36 35  1  6  0  0  0
 37 36  1  0  0  0  0
 37 38  1  0  0  0  0
 38 40  1  0  0  0  0
 39 40  1  0  0  0  0
 41 47  1  1  0  0  0
 41 33  1  0  0  0  0
 41 45  1  0  0  0  0
 43 46  1  0  0  0  0
 44 42  1  0  0  0  0
 45 43  1  0  0  0  0
 45 44  1  0  0  0  0
 46 42  1  0  0  0  0
 48 47  1  0  0  0  0
M  END
>  <MODEL>
6

>  <REMARK>
 VINA RESULT:      -5.8      3.174      7.565
  Name = 
  20 active torsions:
  status: ('A' for Active; 'I' for Inactive)
    1  A    between atoms: C_1  and  C_47
    2  A    between atoms: C_3  and  C_26
    3  A    between atoms: C_4  and  C_18
    4  A    between atoms: C_4  and  C_24
    5  A    between atoms: S_5  and  C_23
    6  A    between atoms: S_5  and  N_39
    7  A    between atoms: C_9  and  C_12
    8  A    between atoms: C_10  and  C_25
    9  A    between atoms: C_10  and  C_38
   10  A    between atoms: C_18  and  N_45
   11  A    between atoms: C_21  and  C_27
   12  A    between atoms: C_21  and  C_47
   13  A    between atoms: C_24  and  C_31
   14  A    between atoms: C_25  and  C_48
   15  A    between atoms: C_26  and  C_33
   16  A    between atoms: C_26  and  N_35
   17  A    between atoms: C_31  and  C_36
   18  A    between atoms: O_32  and  C_33
   19  A    between atoms: O_32  and  C_48
   20  A    between atoms: C_33  and  C_42
                            x       y       z     vdW  Elec       q    Type
                         _______ _______ _______ _____ _____    ______ ____

>  <TORSDO>
F 20

$$$$
=
 OpenBabel11062418293D

 48 52  0  0  1  0  0  0  0  0999 V2000
  185.8520  177.9210  141.8320 C   0  0  0  0  0  3  0  0  0  0  0  0
  185.0270  178.3460  142.8850 C   0  0  0  0  0  0  0  0  0  0  0  0
  183.6580  178.5260  142.6170 C   0  0  0  0  0  3  0  0  0  0  0  0
  185.3210  177.6890  140.5650 C   0  0  0  0  0  0  0  0  0  0  0  0
  183.9570  177.8850  140.3510 C   0  0  0  0  0  3  0  0  0  0  0  0
  183.1610  178.2910  141.3740 N   0  0  0  0  0  0  0  0  0  0  0  0
  185.9060  176.8550  145.8330 C   0  0  2  0  0  3  0  0  0  0  0  0
  184.9180  177.7500  145.3000 C   0  0  2  0  0  3  0  0  0  0  0  0
  185.5840  178.6650  144.2630 C   0  0  1  0  0  0  0  0  0  0  0  0
  185.4220  178.0040  146.7270 C   0  0  0  0  0  0  0  0  0  0  0  0
  187.0750  178.3820  144.2980 C   0  0  0  0  0  2  0  0  0  0  0  0
  187.2560  177.1700  145.1850 C   0  0  1  0  0  3  0  0  0  0  0  0
  185.4520  178.6520  147.7600 O   0  0  0  0  0  0  0  0  0  0  0  0
  185.3670  180.1330  144.6370 C   0  0  0  0  0  1  0  0  0  0  0  0
  188.3480  177.4410  146.2160 C   0  0  0  0  0  2  0  0  0  0  0  0
  188.8260  176.1540  146.8700 C   0  0  0  0  0  2  0  0  0  0  0  0
  190.2920  176.2630  147.2520 C   0  0  1  0  0  3  0  0  0  0  0  0
  190.8960  174.9370  147.2720 C   0  0  0  0  0  2  0  0  0  0  0  0
  191.1110  175.8180  146.1160 N   0  0  0  0  0  0  0  0  0  0  0  0
  192.4310  176.4060  146.2850 C   0  0  0  0  0  2  0  0  0  0  0  0
  192.9790  176.8780  144.9460 C   0  0  0  0  0  2  0  0  0  0  0  0
  194.4890  177.1030  145.0170 C   0  0  1  0  0  3  0  0  0  0  0  0
  194.8500  177.5280  146.3000 O   0  0  0  0  0  1  0  0  0  0  0  0
  195.6920  175.1620  145.7520 O   0  0  0  0  0  1  0  0  0  0  0  0
  195.2950  175.8600  144.6100 C   0  0  0  0  0  0  0  0  0  0  0  0
  194.4780  175.0300  143.8440 O   0  0  0  0  0  1  0  0  0  0  0  0
  196.1690  176.7100  142.5400 F   0  0  0  0  0  0  0  0  0  0  0  0
  196.5270  176.2190  143.7810 C   0  0  0  0  0  2  0  0  0  0  0  0
  186.3810  177.1670  139.2220 S   0  0  0  0  0  0  0  0  0  0  0  0
  187.9120  174.5670  138.8500 O   0  0  0  0  0  0  0  0  0  0  0  0
  187.4730  176.3240  140.3250 N   0  0  0  0  0  2  0  0  0  0  0  0
  188.1460  175.1200  139.9580 C   0  0  0  0  0  0  0  0  0  0  0  0
  189.1550  174.5150  140.8860 C   0  0  1  0  0  3  0  0  0  0  0  0
  188.4940  173.9470  141.9840 O   0  0  0  0  0  0  0  0  0  0  0  0
  189.7220  175.8860  142.6160 C   0  0  0  0  0  1  0  0  0  0  0  0
  188.8570  174.7300  143.0840 C   0  0  2  0  0  3  0  0  0  0  0  0
  189.6260  173.8760  144.0790 C   0  0  0  0  0  2  0  0  0  0  0  0
  189.2850  172.4120  143.8880 C   0  0  0  0  0  2  0  0  0  0  0  0
  191.5800  172.2030  144.4530 O   0  0  0  0  0  1  0  0  0  0  0  0
  190.3530  171.5510  144.5310 C   0  0  0  0  0  2  0  0  0  0  0  0
  189.9990  173.4570  140.1570 C   0  0  1  0  0  3  0  0  0  0  0  0
  193.4950  172.6930  140.7050 C   0  0  0  0  0  2  0  0  0  0  0  0
  192.0610  173.4770  138.9410 C   0  0  0  0  0  2  0  0  0  0  0  0
  192.1250  173.0130  141.2460 C   0  0  0  0  0  2  0  0  0  0  0  0
  191.4320  173.7920  140.2220 N   0  0  0  0  0  0  0  0  0  0  0  0
  193.3110  172.6660  139.2100 C   0  0  0  0  0  2  0  0  0  0  0  0
  189.6930  172.0360  140.6530 C   0  0  0  0  0  2  0  0  0  0  0  0
  189.8180  171.1310  139.6140 F   0  0  0  0  0  0  0  0  0  0  0  0
  1  2  1  0  0  0  0
  2  9  1  0  0  0  0
  3  2  2  0  0  0  0
  4  1  2  0  0  0  0
  5  4  1  0  0  0  0
  5  6  2  0  0  0  0
  6  3  1  0  0  0  0
  7 10  1  1  0  0  0
  8  7  1  0  0  0  0
  8 10  1  1  0  0  0
  9 11  1  0  0  0  0
  9 14  1  1  0  0  0
  9  8  1  0  0  0  0
 10 13  2  0  0  0  0
 11 12  1  0  0  0  0
 12  7  1  0  0  0  0
 12 15  1  1  0  0  0
 15 16  1  0  0  0  0
 17 16  1  6  0  0  0
 17 18  1  0  0  0  0
 19 20  1  0  0  0  0
 19 17  1  0  0  0  0
 19 18  1  0  0  0  0
 21 22  1  0  0  0  0
 21 20  1  0  0  0  0
 22 23  1  1  0  0  0
 25 22  1  0  0  0  0
 25 24  1  0  0  0  0
 26 25  1  0  0  0  0
 27 28  1  0  0  0  0
 28 25  1  0  0  0  0
 29 31  1  0  0  0  0
 29  4  1  0  0  0  0
 30 32  2  0  0  0  0
 32 31  1  0  0  0  0
 33 32  1  6  0  0  0
 33 34  1  0  0  0  0
 34 36  1  0  0  0  0
 36 35  1  6  0  0  0
 36 37  1  0  0  0  0
 38 37  1  0  0  0  0
 38 40  1  0  0  0  0
 39 40  1  0  0  0  0
 41 45  1  0  0  0  0
 41 47  1  1  0  0  0
 41 33  1  0  0  0  0
 42 44  1  0  0  0  0
 43 46  1  0  0  0  0
 43 45  1  0  0  0  0
 45 44  1  0  0  0  0
 46 42  1  0  0  0  0
 48 47  1  0  0  0  0
M  END
>  <MODEL>
7

>  <REMARK>
 VINA RESULT:      -5.7      1.455      2.235
  Name = 
  20 active torsions:
  status: ('A' for Active; 'I' for Inactive)
    1  A    between atoms: C_1  and  C_47
    2  A    between atoms: C_3  and  C_26
    3  A    between atoms: C_4  and  C_18
    4  A    between atoms: C_4  and  C_24
    5  A    between atoms: S_5  and  C_23
    6  A    between atoms: S_5  and  N_39
    7  A    between atoms: C_9  and  C_12
    8  A    between atoms: C_10  and  C_25
    9  A    between atoms: C_10  and  C_38
   10  A    between atoms: C_18  and  N_45
   11  A    between atoms: C_21  and  C_27
   12  A    between atoms: C_21  and  C_47
   13  A    between atoms: C_24  and  C_31
   14  A    between atoms: C_25  and  C_48
   15  A    between atoms: C_26  and  C_33
   16  A    between atoms: C_26  and  N_35
   17  A    between atoms: C_31  and  C_36
   18  A    between atoms: O_32  and  C_33
   19  A    between atoms: O_32  and  C_48
   20  A    between atoms: C_33  and  C_42
                            x       y       z     vdW  Elec       q    Type
                         _______ _______ _______ _____ _____    ______ ____

>  <TORSDO>
F 20

$$$$
=
 OpenBabel11062418293D

 48 52  0  0  1  0  0  0  0  0999 V2000
  192.3040  171.8060  142.6020 C   0  0  0  0  0  3  0  0  0  0  0  0
  191.1190  172.0030  141.8750 C   0  0  0  0  0  0  0  0  0  0  0  0
  190.4320  170.8650  141.4170 C   0  0  0  0  0  3  0  0  0  0  0  0
  192.7730  170.5200  142.8560 C   0  0  0  0  0  0  0  0  0  0  0  0
  192.0560  169.4250  142.3770 C   0  0  0  0  0  3  0  0  0  0  0  0
  190.9070  169.6200  141.6780 N   0  0  0  0  0  0  0  0  0  0  0  0
  189.0360  174.4580  143.0250 C   0  0  2  0  0  3  0  0  0  0  0  0
  189.1380  173.5100  141.9520 C   0  0  2  0  0  3  0  0  0  0  0  0
  190.6110  173.3940  141.5300 C   0  0  1  0  0  0  0  0  0  0  0  0
  188.5390  174.8880  141.6390 C   0  0  0  0  0  0  0  0  0  0  0  0
  191.3900  174.4390  142.3080 C   0  0  0  0  0  2  0  0  0  0  0  0
  190.4290  175.0140  143.3260 C   0  0  1  0  0  3  0  0  0  0  0  0
  188.0730  175.7110  140.8690 O   0  0  0  0  0  0  0  0  0  0  0  0
  190.7590  173.6990  140.0380 C   0  0  0  0  0  1  0  0  0  0  0  0
  190.4720  176.5380  143.2760 C   0  0  0  0  0  2  0  0  0  0  0  0
  190.6700  177.1350  144.6610 C   0  0  0  0  0  2  0  0  0  0  0  0
  189.7540  176.4600  145.6670 C   0  0  1  0  0  3  0  0  0  0  0  0
  189.7110  177.2440  146.8960 C   0  0  0  0  0  2  0  0  0  0  0  0
  188.6080  177.3420  145.9290 N   0  0  0  0  0  0  0  0  0  0  0  0
  187.5340  176.5060  146.4410 C   0  0  0  0  0  2  0  0  0  0  0  0
  186.2180  176.8540  145.7610 C   0  0  0  0  0  2  0  0  0  0  0  0
  186.4170  177.0910  144.2640 C   0  0  1  0  0  3  0  0  0  0  0  0
  185.9380  175.9940  143.5380 O   0  0  0  0  0  1  0  0  0  0  0  0
  184.3760  178.2380  143.7400 O   0  0  0  0  0  1  0  0  0  0  0  0
  185.7630  178.3930  143.7750 C   0  0  0  0  0  0  0  0  0  0  0  0
  186.0730  179.4120  144.6750 O   0  0  0  0  0  1  0  0  0  0  0  0
  187.6290  178.6230  142.2800 F   0  0  0  0  0  0  0  0  0  0  0  0
  186.2640  178.8040  142.3930 C   0  0  0  0  0  2  0  0  0  0  0  0
  194.2940  170.2760  143.7660 S   0  0  0  0  0  0  0  0  0  0  0  0
  196.8870  171.7100  143.0860 O   0  0  0  0  0  0  0  0  0  0  0  0
  194.6640  172.0030  143.7380 N   0  0  0  0  0  2  0  0  0  0  0  0
  195.9430  172.5020  143.3460 C   0  0  0  0  0  0  0  0  0  0  0  0
  196.1630  173.9790  143.2230 C   0  0  1  0  0  3  0  0  0  0  0  0
  195.1610  174.5310  142.4130 O   0  0  0  0  0  0  0  0  0  0  0  0
  196.5370  175.6490  140.8240 C   0  0  0  0  0  1  0  0  0  0  0  0
  195.6500  174.4500  141.1060 C   0  0  2  0  0  3  0  0  0  0  0  0
  194.4840  174.4250  140.1310 C   0  0  0  0  0  2  0  0  0  0  0  0
  194.8980  175.0250  138.8030 C   0  0  0  0  0  2  0  0  0  0  0  0
  196.5790  174.0680  137.4280 O   0  0  0  0  0  1  0  0  0  0  0  0
  195.2550  173.9180  137.8320 C   0  0  0  0  0  2  0  0  0  0  0  0
  196.1660  174.6450  144.6070 C   0  0  1  0  0  3  0  0  0  0  0  0
  193.6610  176.2540  146.6690 C   0  0  0  0  0  2  0  0  0  0  0  0
  195.2350  176.8250  144.9430 C   0  0  0  0  0  2  0  0  0  0  0  0
  194.2600  175.0060  146.0700 C   0  0  0  0  0  2  0  0  0  0  0  0
  194.9220  175.4020  144.8290 N   0  0  0  0  0  0  0  0  0  0  0  0
  194.5490  177.3670  146.1790 C   0  0  0  0  0  2  0  0  0  0  0  0
  196.4630  173.6400  145.7300 C   0  0  0  0  0  2  0  0  0  0  0  0
  197.5720  174.0450  146.4520 F   0  0  0  0  0  0  0  0  0  0  0  0
  1  4  1  0  0  0  0
  2  1  2  0  0  0  0
  3  6  2  0  0  0  0
  3  2  1  0  0  0  0
  4 29  1  0  0  0  0
  5  4  2  0  0  0  0
  6  5  1  0  0  0  0
  7 10  1  6  0  0  0
  7 12  1  0  0  0  0
  8 10  1  6  0  0  0
  8  7  1  0  0  0  0
  9 14  1  6  0  0  0
  9  2  1  0  0  0  0
  9  8  1  0  0  0  0
  9 11  1  0  0  0  0
 11 12  1  0  0  0  0
 12 15  1  6  0  0  0
 13 10  2  0  0  0  0
 15 16  1  0  0  0  0
 17 16  1  6  0  0  0
 17 19  1  0  0  0  0
 17 18  1  0  0  0  0
 19 20  1  0  0  0  0
 19 18  1  0  0  0  0
 21 20  1  0  0  0  0
 22 23  1  6  0  0  0
 22 21  1  0  0  0  0
 24 25  1  0  0  0  0
 25 22  1  0  0  0  0
 25 26  1  0  0  0  0
 27 28  1  0  0  0  0
 28 25  1  0  0  0  0
 30 32  2  0  0  0  0
 31 29  1  0  0  0  0
 32 31  1  0  0  0  0
 33 34  1  6  0  0  0
 33 32  1  0  0  0  0
 33 41  1  0  0  0  0
 36 35  1  6  0  0  0
 36 34  1  0  0  0  0
 37 36  1  0  0  0  0
 38 37  1  0  0  0  0
 39 40  1  0  0  0  0
 40 38  1  0  0  0  0
 41 45  1  0  0  0  0
 41 47  1  1  0  0  0
 43 46  1  0  0  0  0
 44 42  1  0  0  0  0
 45 43  1  0  0  0  0
 45 44  1  0  0  0  0
 46 42  1  0  0  0  0
 47 48  1  0  0  0  0
M  END
>  <MODEL>
8

>  <REMARK>
 VINA RESULT:      -5.6      3.388      8.355
  Name = 
  20 active torsions:
  status: ('A' for Active; 'I' for Inactive)
    1  A    between atoms: C_1  and  C_47
    2  A    between atoms: C_3  and  C_26
    3  A    between atoms: C_4  and  C_18
    4  A    between atoms: C_4  and  C_24
    5  A    between atoms: S_5  and  C_23
    6  A    between atoms: S_5  and  N_39
    7  A    between atoms: C_9  and  C_12
    8  A    between atoms: C_10  and  C_25
    9  A    between atoms: C_10  and  C_38
   10  A    between atoms: C_18  and  N_45
   11  A    between atoms: C_21  and  C_27
   12  A    between atoms: C_21  and  C_47
   13  A    between atoms: C_24  and  C_31
   14  A    between atoms: C_25  and  C_48
   15  A    between atoms: C_26  and  C_33
   16  A    between atoms: C_26  and  N_35
   17  A    between atoms: C_31  and  C_36
   18  A    between atoms: O_32  and  C_33
   19  A    between atoms: O_32  and  C_48
   20  A    between atoms: C_33  and  C_42
                            x       y       z     vdW  Elec       q    Type
                         _______ _______ _______ _____ _____    ______ ____

>  <TORSDO>
F 20

$$$$
=
 OpenBabel11062418293D

 48 52  0  0  1  0  0  0  0  0999 V2000
  186.4560  177.4860  144.3250 C   0  0  0  0  0  3  0  0  0  0  0  0
  186.6060  177.9080  145.6550 C   0  0  0  0  0  0  0  0  0  0  0  0
  186.0380  179.1400  146.0230 C   0  0  0  0  0  3  0  0  0  0  0  0
  185.7630  178.2720  143.4070 C   0  0  0  0  0  0  0  0  0  0  0  0
  185.2210  179.4880  143.8220 C   0  0  0  0  0  3  0  0  0  0  0  0
  185.3640  179.8900  145.1110 N   0  0  0  0  0  0  0  0  0  0  0  0
  189.4170  175.9800  145.9280 C   0  0  2  0  0  3  0  0  0  0  0  0
  187.9870  175.8610  145.9760 C   0  0  2  0  0  3  0  0  0  0  0  0
  187.4070  177.1040  146.6670 C   0  0  1  0  0  0  0  0  0  0  0  0
  188.8130  174.9840  146.9270 C   0  0  0  0  0  0  0  0  0  0  0  0
  188.5760  177.9270  147.1770 C   0  0  0  0  0  2  0  0  0  0  0  0
  189.8240  177.2890  146.6080 C   0  0  1  0  0  3  0  0  0  0  0  0
  188.9120  174.1630  147.8230 O   0  0  0  0  0  0  0  0  0  0  0  0
  186.5530  176.6900  147.8670 C   0  0  0  0  0  1  0  0  0  0  0  0
  190.8490  177.0740  147.7180 C   0  0  0  0  0  2  0  0  0  0  0  0
  191.9760  176.1590  147.2650 C   0  0  0  0  0  2  0  0  0  0  0  0
  192.8930  176.8830  146.2960 C   0  0  1  0  0  3  0  0  0  0  0  0
  194.2050  177.0680  146.9040 C   0  0  0  0  0  2  0  0  0  0  0  0
  193.9990  175.9860  145.9310 N   0  0  0  0  0  0  0  0  0  0  0  0
  194.5340  176.4620  144.6650 C   0  0  0  0  0  2  0  0  0  0  0  0
  195.4460  175.4130  144.0440 C   0  0  0  0  0  2  0  0  0  0  0  0
  195.5780  175.6200  142.5360 C   0  0  1  0  0  3  0  0  0  0  0  0
  196.6300  176.5030  142.2640 O   0  0  0  0  0  1  0  0  0  0  0  0
  197.0310  173.7790  142.0300 O   0  0  0  0  0  1  0  0  0  0  0  0
  195.7630  174.3030  141.7680 C   0  0  0  0  0  0  0  0  0  0  0  0
  194.8060  173.3900  142.2110 O   0  0  0  0  0  1  0  0  0  0  0  0
  194.8640  173.4460  139.7110 F   0  0  0  0  0  0  0  0  0  0  0  0
  195.5910  174.4850  140.2620 C   0  0  0  0  0  2  0  0  0  0  0  0
  185.5920  177.7390  141.7080 S   0  0  0  0  0  0  0  0  0  0  0  0
  187.4990  176.3730  139.7740 O   0  0  0  0  0  0  0  0  0  0  0  0
  186.6790  176.3690  141.9600 N   0  0  0  0  0  2  0  0  0  0  0  0
  187.5460  175.8850  140.9340 C   0  0  0  0  0  0  0  0  0  0  0  0
  188.5340  174.8020  141.2400 C   0  0  1  0  0  3  0  0  0  0  0  0
  189.3270  174.5640  140.1090 O   0  0  0  0  0  0  0  0  0  0  0  0
  189.5280  172.2040  139.8660 C   0  0  0  0  0  1  0  0  0  0  0  0
  188.7570  173.4540  139.4790 C   0  0  2  0  0  3  0  0  0  0  0  0
  188.8050  173.6480  137.9730 C   0  0  0  0  0  2  0  0  0  0  0  0
  189.3230  172.3940  137.2990 C   0  0  0  0  0  2  0  0  0  0  0  0
  190.6330  174.1230  136.3360 O   0  0  0  0  0  1  0  0  0  0  0  0
  190.3320  172.7680  136.2310 C   0  0  0  0  0  2  0  0  0  0  0  0
  189.4090  175.1880  142.4420 C   0  0  1  0  0  3  0  0  0  0  0  0
  191.9270  173.5460  144.4610 C   0  0  0  0  0  2  0  0  0  0  0  0
  189.8000  173.0540  143.4540 C   0  0  0  0  0  2  0  0  0  0  0  0
  191.5160  174.6600  143.5320 C   0  0  0  0  0  2  0  0  0  0  0  0
  190.4190  174.1490  142.7110 N   0  0  0  0  0  0  0  0  0  0  0  0
  190.6740  172.7320  144.6480 C   0  0  0  0  0  2  0  0  0  0  0  0
  190.0180  176.5890  142.2840 C   0  0  0  0  0  2  0  0  0  0  0  0
  189.5400  177.4310  143.2730 F   0  0  0  0  0  0  0  0  0  0  0  0
  1  2  1  0  0  0  0
  2  3  2  0  0  0  0
  2  9  1  0  0  0  0
  4  5  1  0  0  0  0
  4  1  2  0  0  0  0
  5  6  2  0  0  0  0
  6  3  1  0  0  0  0
  7  8  1  0  0  0  0
  7 12  1  0  0  0  0
  7 10  1  1  0  0  0
  8  9  1  0  0  0  0
  8 10  1  1  0  0  0
  9 11  1  0  0  0  0
  9 14  1  1  0  0  0
 10 13  2  0  0  0  0
 12 11  1  0  0  0  0
 12 15  1  1  0  0  0
 16 15  1  0  0  0  0
 17 18  1  0  0  0  0
 17 16  1  1  0  0  0
 19 17  1  0  0  0  0
 19 18  1  0  0  0  0
 20 19  1  0  0  0  0
 21 20  1  0  0  0  0
 22 23  1  1  0  0  0
 22 21  1  0  0  0  0
 25 24  1  0  0  0  0
 25 26  1  0  0  0  0
 25 22  1  0  0  0  0
 27 28  1  0  0  0  0
 28 25  1  0  0  0  0
 29 31  1  0  0  0  0
 29  4  1  0  0  0  0
 30 32  2  0  0  0  0
 32 33  1  0  0  0  0
 32 31  1  0  0  0  0
 33 34  1  6  0  0  0
 33 41  1  0  0  0  0
 36 35  1  6  0  0  0
 36 34  1  0  0  0  0
 37 36  1  0  0  0  0
 38 37  1  0  0  0  0
 40 39  1  0  0  0  0
 40 38  1  0  0  0  0
 41 47  1  6  0  0  0
 41 45  1  0  0  0  0
 42 46  1  0  0  0  0
 43 46  1  0  0  0  0
 44 42  1  0  0  0  0
 45 43  1  0  0  0  0
 45 44  1  0  0  0  0
 47 48  1  0  0  0  0
M  END
>  <MODEL>
9

>  <REMARK>
 VINA RESULT:      -5.6      2.421      4.277
  Name = 
  20 active torsions:
  status: ('A' for Active; 'I' for Inactive)
    1  A    between atoms: C_1  and  C_47
    2  A    between atoms: C_3  and  C_26
    3  A    between atoms: C_4  and  C_18
    4  A    between atoms: C_4  and  C_24
    5  A    between atoms: S_5  and  C_23
    6  A    between atoms: S_5  and  N_39
    7  A    between atoms: C_9  and  C_12
    8  A    between atoms: C_10  and  C_25
    9  A    between atoms: C_10  and  C_38
   10  A    between atoms: C_18  and  N_45
   11  A    between atoms: C_21  and  C_27
   12  A    between atoms: C_21  and  C_47
   13  A    between atoms: C_24  and  C_31
   14  A    between atoms: C_25  and  C_48
   15  A    between atoms: C_26  and  C_33
   16  A    between atoms: C_26  and  N_35
   17  A    between atoms: C_31  and  C_36
   18  A    between atoms: O_32  and  C_33
   19  A    between atoms: O_32  and  C_48
   20  A    between atoms: C_33  and  C_42
                            x       y       z     vdW  Elec       q    Type
                         _______ _______ _______ _____ _____    ______ ____

>  <TORSDO>
F 20

$$$$
