=
 OpenBabel11062419443D

 30 34  0  0  1  0  0  0  0  0999 V2000
  193.3070  176.0250  142.6800 C   0  0  0  0  0  1  0  0  0  0  0  0
  188.7200  176.0360  144.2040 C   0  0  0  0  0  0  0  0  0  0  0  0
  193.5840  176.2660  145.0780 N   0  0  0  0  0  2  0  0  0  0  0  0
  191.7130  175.3100  148.3400 C   0  0  0  0  0  1  0  0  0  0  0  0
  193.1420  176.1920  146.4430 C   0  0  0  0  0  0  0  0  0  0  0  0
  189.7070  176.1600  146.4110 C   0  0  0  0  0  3  0  0  0  0  0  0
  188.8950  174.7190  140.1880 O   0  0  0  0  0  1  0  0  0  0  0  0
  192.1790  174.3700  144.1520 C   0  0  0  0  0  2  0  0  0  0  0  0
  190.8440  175.4750  145.9590 C   0  0  0  0  0  0  0  0  0  0  0  0
  193.4060  175.2830  143.9990 C   0  0  0  0  0  0  0  0  0  0  0  0
  188.6490  176.4290  145.5430 C   0  0  0  0  0  3  0  0  0  0  0  0
  189.9210  174.9130  142.3790 C   0  0  0  0  0  3  0  0  0  0  0  0
  190.9340  175.0800  144.6120 C   0  0  0  0  0  0  0  0  0  0  0  0
  186.6060  176.1360  141.3440 N   0  0  0  0  0  0  0  0  0  0  0  0
  187.6820  176.2830  143.2940 C   0  0  0  0  0  0  0  0  0  0  0  0
  192.0400  175.2550  146.8490 C   0  0  2  0  0  3  0  0  0  0  0  0
  188.8480  175.1550  141.5060 C   0  0  0  0  0  0  0  0  0  0  0  0
  189.8700  175.3430  143.7270 C   0  0  2  0  0  3  0  0  0  0  0  0
  193.6470  176.9810  147.2850 O   0  0  0  0  0  0  0  0  0  0  0  0
  185.8110  176.7750  142.1960 N   0  0  0  0  0  0  0  0  0  0  0  0
  194.6350  174.3990  143.9470 C   0  0  0  0  0  1  0  0  0  0  0  0
  187.7410  175.8380  142.0010 C   0  0  0  0  0  0  0  0  0  0  0  0
  186.4400  176.8900  143.3880 C   0  0  0  0  0  0  0  0  0  0  0  0
  184.6660  178.8050  146.7730 C   0  0  0  0  0  3  0  0  0  0  0  0
  185.8480  177.5710  144.5490 C   0  0  0  0  0  0  0  0  0  0  0  0
  185.1030  179.5800  145.6950 C   0  0  0  0  0  3  0  0  0  0  0  0
  186.0770  179.7570  143.5020 O   0  0  0  0  0  1  0  0  0  0  0  0
  184.8020  177.4160  146.7350 C   0  0  0  0  0  3  0  0  0  0  0  0
  185.3860  176.8010  145.6230 C   0  0  0  0  0  3  0  0  0  0  0  0
  185.6840  178.9700  144.5800 C   0  0  0  0  0  0  0  0  0  0  0  0
  1 10  1  0  0  0  0
  2 11  1  0  0  0  0
  3  5  1  0  0  0  0
  5 16  1  0  0  0  0
  5 19  2  0  0  0  0
  7 17  1  0  0  0  0
  8 13  1  0  0  0  0
  9  6  1  0  0  0  0
  9 16  1  0  0  0  0
 10  8  1  0  0  0  0
 10  3  1  0  0  0  0
 11  6  2  0  0  0  0
 13  9  2  0  0  0  0
 14 22  2  0  0  0  0
 14 20  1  0  0  0  0
 15 23  1  0  0  0  0
 15  2  2  0  0  0  0
 16  4  1  1  0  0  0
 17 22  1  0  0  0  0
 17 12  2  0  0  0  0
 18 12  1  1  0  0  0
 18  2  1  0  0  0  0
 18 13  1  0  0  0  0
 20 23  2  0  0  0  0
 21 10  1  0  0  0  0
 22 15  1  0  0  0  0
 23 25  1  0  0  0  0
 25 30  2  0  0  0  0
 25 29  1  0  0  0  0
 26 24  2  0  0  0  0
 27 30  1  0  0  0  0
 28 24  1  0  0  0  0
 29 28  2  0  0  0  0
 30 26  1  0  0  0  0
M  END
>  <MODEL>
1

>  <REMARK>
 VINA RESULT:      -8.6      0.000      0.000
  Name = 
  1 active torsions:
  status: ('A' for Active; 'I' for Inactive)
    1  A    between atoms: C_7  and  C_30
                            x       y       z     vdW  Elec       q    Type
                         _______ _______ _______ _____ _____    ______ ____

>  <TORSDO>
F 1

$$$$
=
 OpenBabel11062419443D

 30 34  0  0  1  0  0  0  0  0999 V2000
  194.7870  174.6660  143.3250 C   0  0  0  0  0  1  0  0  0  0  0  0
  189.9740  175.1050  143.2830 C   0  0  0  0  0  0  0  0  0  0  0  0
  194.3630  175.6720  145.4910 N   0  0  0  0  0  2  0  0  0  0  0  0
  191.5380  175.7970  148.1480 C   0  0  0  0  0  1  0  0  0  0  0  0
  193.5340  176.0380  146.6060 C   0  0  0  0  0  0  0  0  0  0  0  0
  190.2720  175.9500  145.5320 C   0  0  0  0  0  3  0  0  0  0  0  0
  191.2100  172.5630  140.1350 O   0  0  0  0  0  1  0  0  0  0  0  0
  193.1350  173.5590  144.8180 C   0  0  0  0  0  2  0  0  0  0  0  0
  191.4280  175.1710  145.6880 C   0  0  0  0  0  0  0  0  0  0  0  0
  194.4280  174.3910  144.7730 C   0  0  0  0  0  0  0  0  0  0  0  0
  189.5450  175.9090  144.3430 C   0  0  0  0  0  3  0  0  0  0  0  0
  191.5570  173.4690  142.3600 C   0  0  0  0  0  3  0  0  0  0  0  0
  191.8770  174.3630  144.6270 C   0  0  0  0  0  0  0  0  0  0  0  0
  188.8140  174.2460  140.0310 N   0  0  0  0  0  0  0  0  0  0  0  0
  189.2750  175.0310  142.0690 C   0  0  0  0  0  0  0  0  0  0  0  0
  192.2840  175.2670  146.9250 C   0  0  2  0  0  3  0  0  0  0  0  0
  190.8140  173.4010  141.1710 C   0  0  0  0  0  0  0  0  0  0  0  0
  191.1480  174.3110  143.4240 C   0  0  2  0  0  3  0  0  0  0  0  0
  193.8340  177.0640  147.2720 O   0  0  0  0  0  0  0  0  0  0  0  0
  187.8620  175.1150  140.3530 N   0  0  0  0  0  0  0  0  0  0  0  0
  195.5360  173.5550  145.3790 C   0  0  0  0  0  1  0  0  0  0  0  0
  189.6740  174.1910  141.0630 C   0  0  0  0  0  0  0  0  0  0  0  0
  188.1190  175.6180  141.5820 C   0  0  0  0  0  0  0  0  0  0  0  0
  185.5900  178.5110  143.4550 C   0  0  0  0  0  3  0  0  0  0  0  0
  187.2720  176.6300  142.2320 C   0  0  0  0  0  0  0  0  0  0  0  0
  186.7060  178.9390  142.7320 C   0  0  0  0  0  3  0  0  0  0  0  0
  188.6260  178.4570  141.3640 O   0  0  0  0  0  1  0  0  0  0  0  0
  185.3030  177.1480  143.5550 C   0  0  0  0  0  3  0  0  0  0  0  0
  186.1380  176.2110  142.9400 C   0  0  0  0  0  3  0  0  0  0  0  0
  187.5430  178.0060  142.1120 C   0  0  0  0  0  0  0  0  0  0  0  0
  1 10  1  0  0  0  0
  2 18  1  0  0  0  0
  2 11  1  0  0  0  0
  3  5  1  0  0  0  0
  5 16  1  0  0  0  0
  5 19  2  0  0  0  0
  6  9  1  0  0  0  0
  7 17  1  0  0  0  0
  9 16  1  0  0  0  0
 10  8  1  0  0  0  0
 10 21  1  0  0  0  0
 10  3  1  0  0  0  0
 11  6  2  0  0  0  0
 13  8  1  0  0  0  0
 13  9  2  0  0  0  0
 14 20  1  0  0  0  0
 14 22  2  0  0  0  0
 15  2  2  0  0  0  0
 16  4  1  1  0  0  0
 17 12  2  0  0  0  0
 18 12  1  1  0  0  0
 18 13  1  0  0  0  0
 20 23  2  0  0  0  0
 22 17  1  0  0  0  0
 22 15  1  0  0  0  0
 23 15  1  0  0  0  0
 23 25  1  0  0  0  0
 24 28  1  0  0  0  0
 25 29  1  0  0  0  0
 26 24  2  0  0  0  0
 27 30  1  0  0  0  0
 29 28  2  0  0  0  0
 30 25  2  0  0  0  0
 30 26  1  0  0  0  0
M  END
>  <MODEL>
2

>  <REMARK>
 VINA RESULT:      -8.3      1.755      2.328
  Name = 
  1 active torsions:
  status: ('A' for Active; 'I' for Inactive)
    1  A    between atoms: C_7  and  C_30
                            x       y       z     vdW  Elec       q    Type
                         _______ _______ _______ _____ _____    ______ ____

>  <TORSDO>
F 1

$$$$
=
 OpenBabel11062419443D

 30 34  0  0  1  0  0  0  0  0999 V2000
  195.0830  172.8380  145.7210 C   0  0  0  0  0  1  0  0  0  0  0  0
  191.5940  175.9450  144.4850 C   0  0  0  0  0  0  0  0  0  0  0  0
  195.8170  173.5550  143.5240 N   0  0  0  0  0  2  0  0  0  0  0  0
  195.5210  176.6640  141.2210 C   0  0  0  0  0  1  0  0  0  0  0  0
  195.8280  174.4370  142.3890 C   0  0  0  0  0  0  0  0  0  0  0  0
  192.9330  176.2840  142.4970 C   0  0  0  0  0  3  0  0  0  0  0  0
  191.3330  175.0640  148.6140 O   0  0  0  0  0  1  0  0  0  0  0  0
  195.2850  175.2800  145.3040 C   0  0  0  0  0  2  0  0  0  0  0  0
  194.1000  175.9770  143.2110 C   0  0  0  0  0  0  0  0  0  0  0  0
  195.8530  173.8950  144.9540 C   0  0  0  0  0  0  0  0  0  0  0  0
  191.6910  176.2790  143.1310 C   0  0  0  0  0  3  0  0  0  0  0  0
  192.6690  175.3250  146.6040 C   0  0  0  0  0  3  0  0  0  0  0  0
  194.0170  175.6300  144.5720 C   0  0  0  0  0  0  0  0  0  0  0  0
  189.0290  175.7630  146.9440 N   0  0  0  0  0  0  0  0  0  0  0  0
  190.3670  175.9270  145.1650 C   0  0  0  0  0  0  0  0  0  0  0  0
  195.4410  175.8830  142.5310 C   0  0  2  0  0  3  0  0  0  0  0  0
  191.4260  175.3450  147.2560 C   0  0  0  0  0  0  0  0  0  0  0  0
  192.7690  175.6250  145.2240 C   0  0  2  0  0  3  0  0  0  0  0  0
  196.0980  173.9600  141.2550 O   0  0  0  0  0  0  0  0  0  0  0  0
  188.2750  176.0950  145.9020 N   0  0  0  0  0  0  0  0  0  0  0  0
  197.2940  173.8550  145.4210 C   0  0  0  0  0  1  0  0  0  0  0  0
  190.2960  175.6570  146.5060 C   0  0  0  0  0  0  0  0  0  0  0  0
  189.0570  176.1920  144.8020 C   0  0  0  0  0  0  0  0  0  0  0  0
  187.4860  177.2000  140.9560 C   0  0  0  0  0  3  0  0  0  0  0  0
  188.5340  176.5180  143.4670 C   0  0  0  0  0  0  0  0  0  0  0  0
  187.8180  175.8720  141.2370 C   0  0  0  0  0  3  0  0  0  0  0  0
  188.6200  174.1910  142.7600 O   0  0  0  0  0  1  0  0  0  0  0  0
  187.6590  178.1840  141.9320 C   0  0  0  0  0  3  0  0  0  0  0  0
  188.1760  177.8430  143.1850 C   0  0  0  0  0  3  0  0  0  0  0  0
  188.3320  175.5240  142.4900 C   0  0  0  0  0  0  0  0  0  0  0  0
  2 15  2  0  0  0  0
  2 18  1  0  0  0  0
  3 10  1  0  0  0  0
  5 16  1  0  0  0  0
  5  3  1  0  0  0  0
  6 11  2  0  0  0  0
  6  9  1  0  0  0  0
  9 13  2  0  0  0  0
 10  8  1  0  0  0  0
 10 21  1  0  0  0  0
 10  1  1  0  0  0  0
 11  2  1  0  0  0  0
 12 17  2  0  0  0  0
 13 18  1  0  0  0  0
 13  8  1  0  0  0  0
 15 22  1  0  0  0  0
 16  4  1  6  0  0  0
 16  9  1  0  0  0  0
 17  7  1  0  0  0  0
 18 12  1  1  0  0  0
 19  5  2  0  0  0  0
 20 14  1  0  0  0  0
 22 14  2  0  0  0  0
 22 17  1  0  0  0  0
 23 15  1  0  0  0  0
 23 20  2  0  0  0  0
 24 26  2  0  0  0  0
 24 28  1  0  0  0  0
 25 23  1  0  0  0  0
 26 30  1  0  0  0  0
 28 29  2  0  0  0  0
 29 25  1  0  0  0  0
 30 27  1  0  0  0  0
 30 25  2  0  0  0  0
M  END
>  <MODEL>
3

>  <REMARK>
 VINA RESULT:      -8.2      2.821      5.103
  Name = 
  1 active torsions:
  status: ('A' for Active; 'I' for Inactive)
    1  A    between atoms: C_7  and  C_30
                            x       y       z     vdW  Elec       q    Type
                         _______ _______ _______ _____ _____    ______ ____

>  <TORSDO>
F 1

$$$$
=
 OpenBabel11062419443D

 30 34  0  0  1  0  0  0  0  0999 V2000
  191.2180  172.0130  142.9220 C   0  0  0  0  0  1  0  0  0  0  0  0
  188.9680  176.1450  144.0260 C   0  0  0  0  0  0  0  0  0  0  0  0
  189.6260  172.2090  141.1040 N   0  0  0  0  0  2  0  0  0  0  0  0
  187.7620  174.9930  139.1460 C   0  0  0  0  0  1  0  0  0  0  0  0
  188.7040  172.9240  140.2650 C   0  0  0  0  0  0  0  0  0  0  0  0
  187.7790  175.7710  141.9500 C   0  0  0  0  0  3  0  0  0  0  0  0
  192.4810  175.7600  146.3500 O   0  0  0  0  0  1  0  0  0  0  0  0
  191.1900  174.1340  141.6270 C   0  0  0  0  0  2  0  0  0  0  0  0
  188.8820  175.0810  141.4250 C   0  0  0  0  0  0  0  0  0  0  0  0
  190.9650  172.6140  141.5540 C   0  0  0  0  0  0  0  0  0  0  0  0
  187.8260  176.3090  143.2360 C   0  0  0  0  0  3  0  0  0  0  0  0
  191.2630  175.3140  144.2990 C   0  0  0  0  0  3  0  0  0  0  0  0
  190.0350  174.9010  142.2100 C   0  0  0  0  0  0  0  0  0  0  0  0
  190.0810  177.1870  147.2410 N   0  0  0  0  0  0  0  0  0  0  0  0
  189.0610  176.6680  145.3240 C   0  0  0  0  0  0  0  0  0  0  0  0
  188.8240  174.4100  140.0770 C   0  0  2  0  0  3  0  0  0  0  0  0
  191.3280  175.8760  145.5840 C   0  0  0  0  0  0  0  0  0  0  0  0
  190.0940  175.4430  143.5090 C   0  0  0  0  0  0  0  0  0  0  0  0
  187.7460  172.2940  139.7440 O   0  0  0  0  0  0  0  0  0  0  0  0
  188.8610  177.7090  147.2790 N   0  0  0  0  0  2  0  0  0  0  0  0
  191.9890  172.0420  140.5950 C   0  0  0  0  0  1  0  0  0  0  0  0
  190.2100  176.5530  146.0620 C   0  0  0  0  0  0  0  0  0  0  0  0
  188.2110  177.4030  146.1330 C   0  0  0  0  0  0  0  0  0  0  0  0
  184.2050  178.6550  145.3190 C   0  0  0  0  0  3  0  0  0  0  0  0
  186.8230  177.8070  145.8600 C   0  0  0  0  0  0  0  0  0  0  0  0
  184.4470  177.7610  146.3660 C   0  0  0  0  0  3  0  0  0  0  0  0
  185.9730  176.4830  147.7180 O   0  0  0  0  0  1  0  0  0  0  0  0
  185.2690  179.1390  144.5540 C   0  0  0  0  0  3  0  0  0  0  0  0
  186.5740  178.7200  144.8280 C   0  0  0  0  0  3  0  0  0  0  0  0
  185.7510  177.3430  146.6470 C   0  0  0  0  0  0  0  0  0  0  0  0
  2 15  1  0  0  0  0
  3 10  1  0  0  0  0
  5  3  1  0  0  0  0
  6 11  1  0  0  0  0
  8 13  1  0  0  0  0
  9  6  2  0  0  0  0
  9 13  1  0  0  0  0
 10  8  1  0  0  0  0
 10  1  1  0  0  0  0
 11  2  2  0  0  0  0
 12 17  2  0  0  0  0
 13 18  2  0  0  0  0
 14 20  1  0  0  0  0
 15 22  1  0  0  0  0
 15 23  2  0  0  0  0
 16  4  1  1  0  0  0
 16  5  1  0  0  0  0
 16  9  1  0  0  0  0
 17 22  1  0  0  0  0
 17  7  1  0  0  0  0
 18  2  1  0  0  0  0
 18 12  1  0  0  0  0
 19  5  2  0  0  0  0
 21 10  1  0  0  0  0
 22 14  2  0  0  0  0
 23 20  1  0  0  0  0
 24 26  1  0  0  0  0
 25 23  1  0  0  0  0
 25 30  1  0  0  0  0
 26 30  2  0  0  0  0
 28 29  1  0  0  0  0
 28 24  2  0  0  0  0
 29 25  2  0  0  0  0
 30 27  1  0  0  0  0
M  END
>  <MODEL>
4

>  <REMARK>
 VINA RESULT:      -8.1      2.388      5.108
  Name = 
  1 active torsions:
  status: ('A' for Active; 'I' for Inactive)
    1  A    between atoms: C_7  and  C_30
                            x       y       z     vdW  Elec       q    Type
                         _______ _______ _______ _____ _____    ______ ____

>  <TORSDO>
F 1

$$$$
=
 OpenBabel11062419443D

 30 34  0  0  1  0  0  0  0  0999 V2000
  190.4620  173.7910  137.8900 C   0  0  0  0  0  1  0  0  0  0  0  0
  189.3090  174.4590  142.5360 C   0  0  0  0  0  0  0  0  0  0  0  0
  191.5270  171.8830  138.9420 N   0  0  0  0  0  2  0  0  0  0  0  0
  191.0440  169.6260  142.0610 C   0  0  0  0  0  1  0  0  0  0  0  0
  191.7340  170.9460  140.0120 C   0  0  0  0  0  0  0  0  0  0  0  0
  190.4660  172.3590  142.8750 C   0  0  0  0  0  3  0  0  0  0  0  0
  186.9500  176.9830  140.0960 O   0  0  0  0  0  1  0  0  0  0  0  0
  189.0660  172.3370  139.3460 C   0  0  0  0  0  2  0  0  0  0  0  0
  190.1280  171.9450  141.5780 C   0  0  0  0  0  0  0  0  0  0  0  0
  190.2600  172.3690  138.3770 C   0  0  0  0  0  0  0  0  0  0  0  0
  190.0510  173.6010  143.3540 C   0  0  0  0  0  3  0  0  0  0  0  0
  188.1780  174.9120  140.4040 C   0  0  0  0  0  3  0  0  0  0  0  0
  189.3900  172.8010  140.7400 C   0  0  0  0  0  0  0  0  0  0  0  0
  187.7410  177.6380  142.8400 N   0  0  0  0  0  0  0  0  0  0  0  0
  188.8690  175.7160  142.9740 C   0  0  0  0  0  0  0  0  0  0  0  0
  190.6430  170.6510  141.0030 C   0  0  2  0  0  3  0  0  0  0  0  0
  187.7320  176.1520  140.8890 C   0  0  0  0  0  0  0  0  0  0  0  0
  188.9620  174.0550  141.2150 C   0  0  0  0  0  0  0  0  0  0  0  0
  192.8730  170.4260  140.1490 O   0  0  0  0  0  0  0  0  0  0  0  0
  188.2860  177.5740  144.0500 N   0  0  0  0  0  2  0  0  0  0  0  0
  189.9060  171.5100  137.1800 C   0  0  0  0  0  1  0  0  0  0  0  0
  188.0910  176.5190  142.1820 C   0  0  0  0  0  0  0  0  0  0  0  0
  188.9880  176.4220  144.1600 C   0  0  0  0  0  0  0  0  0  0  0  0
  191.1040  175.3460  147.7140 C   0  0  0  0  0  3  0  0  0  0  0  0
  189.7400  176.0490  145.3670 C   0  0  0  0  0  0  0  0  0  0  0  0
  191.7550  176.0840  146.7230 C   0  0  0  0  0  3  0  0  0  0  0  0
  191.7340  177.2140  144.5990 O   0  0  0  0  0  1  0  0  0  0  0  0
  189.7690  174.9730  147.5440 C   0  0  0  0  0  3  0  0  0  0  0  0
  189.0870  175.3290  146.3760 C   0  0  0  0  0  3  0  0  0  0  0  0
  191.0780  176.4460  145.5550 C   0  0  0  0  0  0  0  0  0  0  0  0
  1 10  1  0  0  0  0
  2 15  1  0  0  0  0
  2 11  2  0  0  0  0
  3  5  1  0  0  0  0
  5 19  2  0  0  0  0
  5 16  1  0  0  0  0
  6 11  1  0  0  0  0
  7 17  1  0  0  0  0
  8 13  1  0  0  0  0
  9  6  2  0  0  0  0
 10  3  1  0  0  0  0
 10  8  1  0  0  0  0
 12 17  2  0  0  0  0
 12 18  1  0  0  0  0
 13 18  2  0  0  0  0
 13  9  1  0  0  0  0
 14 20  1  0  0  0  0
 15 23  2  0  0  0  0
 16  9  1  0  0  0  0
 16  4  1  1  0  0  0
 17 22  1  0  0  0  0
 18  2  1  0  0  0  0
 20 23  1  0  0  0  0
 21 10  1  0  0  0  0
 22 14  2  0  0  0  0
 22 15  1  0  0  0  0
 23 25  1  0  0  0  0
 25 30  2  0  0  0  0
 25 29  1  0  0  0  0
 26 24  2  0  0  0  0
 27 30  1  0  0  0  0
 28 24  1  0  0  0  0
 29 28  2  0  0  0  0
 30 26  1  0  0  0  0
M  END
>  <MODEL>
5

>  <REMARK>
 VINA RESULT:      -7.9      3.236      5.671
  Name = 
  1 active torsions:
  status: ('A' for Active; 'I' for Inactive)
    1  A    between atoms: C_7  and  C_30
                            x       y       z     vdW  Elec       q    Type
                         _______ _______ _______ _____ _____    ______ ____

>  <TORSDO>
F 1

$$$$
=
 OpenBabel11062419443D

 30 34  0  0  1  0  0  0  0  0999 V2000
  184.4420  177.7400  143.2270 C   0  0  0  0  0  1  0  0  0  0  0  0
  188.5210  175.5470  141.8450 C   0  0  0  0  0  0  0  0  0  0  0  0
  185.6720  177.6250  145.3140 N   0  0  0  0  0  2  0  0  0  0  0  0
  189.3570  177.5410  146.5270 C   0  0  0  0  0  1  0  0  0  0  0  0
  186.8590  177.4630  146.1070 C   0  0  0  0  0  0  0  0  0  0  0  0
  189.1920  175.8720  144.1490 C   0  0  0  0  0  3  0  0  0  0  0  0
  186.3680  176.8460  138.4430 O   0  0  0  0  0  1  0  0  0  0  0  0
  186.7560  178.6470  143.2630 C   0  0  0  0  0  2  0  0  0  0  0  0
  188.3880  177.0190  144.2370 C   0  0  0  0  0  0  0  0  0  0  0  0
  185.4810  178.4220  144.0940 C   0  0  0  0  0  0  0  0  0  0  0  0
  189.2660  175.1490  142.9590 C   0  0  0  0  0  3  0  0  0  0  0  0
  186.9750  177.1280  140.7760 C   0  0  0  0  0  3  0  0  0  0  0  0
  187.6270  177.4280  143.1270 C   0  0  0  0  0  0  0  0  0  0  0  0
  188.1250  174.5020  138.4670 N   0  0  0  0  0  0  0  0  0  0  0  0
  188.5650  174.8520  140.6280 C   0  0  0  0  0  0  0  0  0  0  0  0
  188.2170  177.7640  145.5350 C   0  0  2  0  0  3  0  0  0  0  0  0
  187.0660  176.4210  139.5670 C   0  0  0  0  0  0  0  0  0  0  0  0
  187.6970  176.7070  141.9200 C   0  0  2  0  0  3  0  0  0  0  0  0
  186.7500  176.9930  147.2700 O   0  0  0  0  0  0  0  0  0  0  0  0
  188.9640  173.5520  138.8670 N   0  0  0  0  0  0  0  0  0  0  0  0
  184.9420  179.7820  144.4880 C   0  0  0  0  0  1  0  0  0  0  0  0
  187.8770  175.2910  139.5270 C   0  0  0  0  0  0  0  0  0  0  0  0
  189.2420  173.7300  140.1790 C   0  0  0  0  0  0  0  0  0  0  0  0
  191.7380  171.1170  142.4630 C   0  0  0  0  0  3  0  0  0  0  0  0
  190.1220  172.8350  140.9450 C   0  0  0  0  0  0  0  0  0  0  0  0
  192.3090  172.2030  141.7950 C   0  0  0  0  0  3  0  0  0  0  0  0
  192.0910  174.1660  140.4210 O   0  0  0  0  0  1  0  0  0  0  0  0
  190.3600  170.8970  142.3880 C   0  0  0  0  0  3  0  0  0  0  0  0
  189.5550  171.7570  141.6360 C   0  0  0  0  0  3  0  0  0  0  0  0
  191.5070  173.0690  141.0450 C   0  0  0  0  0  0  0  0  0  0  0  0
  1 10  1  0  0  0  0
  2 18  1  0  0  0  0
  2 11  1  0  0  0  0
  3  5  1  0  0  0  0
  5 19  2  0  0  0  0
  6  9  1  0  0  0  0
  7 17  1  0  0  0  0
  8 10  1  0  0  0  0
  9 16  1  0  0  0  0
 10 21  1  0  0  0  0
 10  3  1  0  0  0  0
 11  6  2  0  0  0  0
 13  8  1  0  0  0  0
 13  9  2  0  0  0  0
 14 20  1  0  0  0  0
 14 22  2  0  0  0  0
 15  2  2  0  0  0  0
 16  5  1  0  0  0  0
 16  4  1  1  0  0  0
 17 12  2  0  0  0  0
 18 12  1  6  0  0  0
 18 13  1  0  0  0  0
 20 23  2  0  0  0  0
 22 17  1  0  0  0  0
 22 15  1  0  0  0  0
 23 15  1  0  0  0  0
 23 25  1  0  0  0  0
 25 30  2  0  0  0  0
 25 29  1  0  0  0  0
 26 24  2  0  0  0  0
 27 30  1  0  0  0  0
 28 24  1  0  0  0  0
 29 28  2  0  0  0  0
 30 26  1  0  0  0  0
M  END
>  <MODEL>
6

>  <REMARK>
 VINA RESULT:      -7.8      3.181      6.623
  Name = 
  1 active torsions:
  status: ('A' for Active; 'I' for Inactive)
    1  A    between atoms: C_7  and  C_30
                            x       y       z     vdW  Elec       q    Type
                         _______ _______ _______ _____ _____    ______ ____

>  <TORSDO>
F 1

$$$$
=
 OpenBabel11062419443D

 30 34  0  0  1  0  0  0  0  0999 V2000
  185.9310  179.3960  143.2980 C   0  0  0  0  0  1  0  0  0  0  0  0
  189.5140  176.4120  144.5690 C   0  0  0  0  0  0  0  0  0  0  0  0
  186.4220  178.2910  141.1960 N   0  0  0  0  0  2  0  0  0  0  0  0
  187.8160  174.8930  139.9430 C   0  0  0  0  0  1  0  0  0  0  0  0
  186.9840  177.2450  140.3860 C   0  0  0  0  0  0  0  0  0  0  0  0
  189.3830  175.6650  142.2700 C   0  0  0  0  0  3  0  0  0  0  0  0
  187.6260  177.9430  148.0310 O   0  0  0  0  0  1  0  0  0  0  0  0
  185.9370  176.9100  143.2660 C   0  0  0  0  0  2  0  0  0  0  0  0
  188.0200  175.9900  142.2250 C   0  0  0  0  0  0  0  0  0  0  0  0
  185.6500  178.1770  142.4420 C   0  0  0  0  0  0  0  0  0  0  0  0
  190.1220  175.8650  143.4370 C   0  0  0  0  0  3  0  0  0  0  0  0
  187.5110  177.2710  145.7020 C   0  0  0  0  0  3  0  0  0  0  0  0
  187.3960  176.5500  143.3550 C   0  0  0  0  0  0  0  0  0  0  0  0
  190.4500  177.1720  147.9170 N   0  0  0  0  0  0  0  0  0  0  0  0
  190.2160  176.6310  145.7640 C   0  0  0  0  0  0  0  0  0  0  0  0
  187.2220  175.8730  140.9530 C   0  0  2  0  0  3  0  0  0  0  0  0
  188.2400  177.4480  146.8880 C   0  0  0  0  0  0  0  0  0  0  0  0
  188.1310  176.7520  144.5390 C   0  0  0  0  0  0  0  0  0  0  0  0
  187.3430  177.5170  139.2100 O   0  0  0  0  0  0  0  0  0  0  0  0
  191.6280  176.7410  147.4790 N   0  0  0  0  0  2  0  0  0  0  0  0
  184.1760  178.1770  142.0950 C   0  0  0  0  0  1  0  0  0  0  0  0
  189.5910  177.1110  146.8850 C   0  0  0  0  0  0  0  0  0  0  0  0
  191.5220  176.4140  146.1710 C   0  0  0  0  0  0  0  0  0  0  0  0
  194.8070  175.0620  143.7930 C   0  0  0  0  0  3  0  0  0  0  0  0
  192.6530  175.9240  145.3680 C   0  0  0  0  0  0  0  0  0  0  0  0
  193.8650  174.1380  144.2540 C   0  0  0  0  0  3  0  0  0  0  0  0
  191.8380  173.6320  145.4470 O   0  0  0  0  0  1  0  0  0  0  0  0
  194.6660  176.4160  144.1020 C   0  0  0  0  0  3  0  0  0  0  0  0
  193.5880  176.8470  144.8830 C   0  0  0  0  0  3  0  0  0  0  0  0
  192.7840  174.5630  145.0320 C   0  0  0  0  0  0  0  0  0  0  0  0
  2 15  1  0  0  0  0
  3 10  1  0  0  0  0
  5 16  1  0  0  0  0
  5  3  1  0  0  0  0
  6 11  1  0  0  0  0
  8 13  1  0  0  0  0
  9  6  2  0  0  0  0
  9 13  1  0  0  0  0
 10  8  1  0  0  0  0
 10  1  1  0  0  0  0
 11  2  2  0  0  0  0
 12 17  2  0  0  0  0
 13 18  2  0  0  0  0
 15 23  2  0  0  0  0
 15 22  1  0  0  0  0
 16  4  1  6  0  0  0
 16  9  1  0  0  0  0
 17  7  1  0  0  0  0
 18  2  1  0  0  0  0
 18 12  1  0  0  0  0
 19  5  2  0  0  0  0
 20 14  1  0  0  0  0
 21 10  1  0  0  0  0
 22 17  1  0  0  0  0
 22 14  2  0  0  0  0
 23 20  1  0  0  0  0
 24 28  2  0  0  0  0
 24 26  1  0  0  0  0
 25 23  1  0  0  0  0
 26 30  2  0  0  0  0
 28 29  1  0  0  0  0
 29 25  2  0  0  0  0
 30 25  1  0  0  0  0
 30 27  1  0  0  0  0
M  END
>  <MODEL>
7

>  <REMARK>
 VINA RESULT:      -7.6      2.117      7.536
  Name = 
  1 active torsions:
  status: ('A' for Active; 'I' for Inactive)
    1  A    between atoms: C_7  and  C_30
                            x       y       z     vdW  Elec       q    Type
                         _______ _______ _______ _____ _____    ______ ____

>  <TORSDO>
F 1

$$$$
=
 OpenBabel11062419443D

 30 34  0  0  1  0  0  0  0  0999 V2000
  187.8200  178.1360  144.6720 C   0  0  0  0  0  1  0  0  0  0  0  0
  191.8570  175.5500  144.0630 C   0  0  0  0  0  0  0  0  0  0  0  0
  187.4290  177.1130  142.5090 N   0  0  0  0  0  2  0  0  0  0  0  0
  188.4350  173.9020  140.5760 C   0  0  0  0  0  1  0  0  0  0  0  0
  187.6690  176.1430  141.4760 C   0  0  0  0  0  0  0  0  0  0  0  0
  190.7910  174.8170  142.0170 C   0  0  0  0  0  3  0  0  0  0  0  0
  191.5660  176.8290  148.0850 O   0  0  0  0  0  1  0  0  0  0  0  0
  188.0450  175.6670  144.4970 C   0  0  0  0  0  2  0  0  0  0  0  0
  189.5250  174.9900  142.5960 C   0  0  0  0  0  0  0  0  0  0  0  0
  187.3050  176.9020  143.9580 C   0  0  0  0  0  0  0  0  0  0  0  0
  191.9480  175.0840  142.7490 C   0  0  0  0  0  3  0  0  0  0  0  0
  190.4940  176.1720  146.0090 C   0  0  0  0  0  3  0  0  0  0  0  0
  189.4180  175.4670  143.9150 C   0  0  0  0  0  0  0  0  0  0  0  0
  194.1050  176.3730  146.6960 N   0  0  0  0  0  0  0  0  0  0  0  0
  192.9920  175.8310  144.8380 C   0  0  0  0  0  0  0  0  0  0  0  0
  188.2610  174.8000  141.7990 C   0  0  2  0  0  3  0  0  0  0  0  0
  191.6530  176.4160  146.7610 C   0  0  0  0  0  0  0  0  0  0  0  0
  190.5790  175.7360  144.6640 C   0  0  0  0  0  0  0  0  0  0  0  0
  187.4410  176.4650  140.2790 O   0  0  0  0  0  0  0  0  0  0  0  0
  195.0010  176.0780  145.7610 N   0  0  0  0  0  0  0  0  0  0  0  0
  185.8360  176.7450  144.2960 C   0  0  0  0  0  1  0  0  0  0  0  0
  192.8870  176.2280  146.1450 C   0  0  1  0  0  3  0  0  0  0  0  0
  194.3570  175.7550  144.6160 C   0  0  0  0  0  0  0  0  0  0  0  0
  196.3440  174.7860  140.9570 C   0  0  0  0  0  3  0  0  0  0  0  0
  195.0550  175.4010  143.3710 C   0  0  0  0  0  0  0  0  0  0  0  0
  196.0120  173.7650  141.8510 C   0  0  0  0  0  3  0  0  0  0  0  0
  195.0060  173.0270  143.9080 O   0  0  0  0  0  1  0  0  0  0  0  0
  196.0190  176.1100  141.2580 C   0  0  0  0  0  3  0  0  0  0  0  0
  195.3710  176.4160  142.4590 C   0  0  0  0  0  3  0  0  0  0  0  0
  195.3610  174.0640  143.0510 C   0  0  0  0  0  0  0  0  0  0  0  0
  2 18  1  0  0  0  0
  2 15  1  0  0  0  0
  3 10  1  0  0  0  0
  5 16  1  0  0  0  0
  5  3  1  0  0  0  0
  6  9  2  0  0  0  0
  6 11  1  0  0  0  0
  9 13  1  0  0  0  0
 10 21  1  0  0  0  0
 10  8  1  0  0  0  0
 10  1  1  0  0  0  0
 11  2  2  0  0  0  0
 12 17  2  0  0  0  0
 13  8  1  0  0  0  0
 13 18  2  0  0  0  0
 16  4  1  6  0  0  0
 16  9  1  0  0  0  0
 17  7  1  0  0  0  0
 18 12  1  0  0  0  0
 19  5  2  0  0  0  0
 20 14  2  0  0  0  0
 22 15  1  1  0  0  0
 22 14  1  0  0  0  0
 22 17  1  0  0  0  0
 23 15  2  0  0  0  0
 23 20  1  0  0  0  0
 24 28  2  0  0  0  0
 24 26  1  0  0  0  0
 25 23  1  0  0  0  0
 26 30  2  0  0  0  0
 28 29  1  0  0  0  0
 29 25  2  0  0  0  0
 30 25  1  0  0  0  0
 30 27  1  0  0  0  0
M  END
>  <MODEL>
8

>  <REMARK>
 VINA RESULT:      -7.6      1.860      8.079
  Name = 
  1 active torsions:
  status: ('A' for Active; 'I' for Inactive)
    1  A    between atoms: C_7  and  C_30
                            x       y       z     vdW  Elec       q    Type
                         _______ _______ _______ _____ _____    ______ ____

>  <TORSDO>
F 1

$$$$
=
 OpenBabel11062419443D

 30 34  0  0  1  0  0  0  0  0999 V2000
  186.6880  178.8890  143.3930 C   0  0  0  0  0  1  0  0  0  0  0  0
  190.0850  176.0440  145.3230 C   0  0  0  0  0  0  0  0  0  0  0  0
  187.0250  177.2570  141.6310 N   0  0  0  0  0  2  0  0  0  0  0  0
  188.1220  173.5540  141.2560 C   0  0  0  0  0  1  0  0  0  0  0  0
  187.4800  176.0010  141.1040 C   0  0  0  0  0  0  0  0  0  0  0  0
  189.8210  174.7580  143.2890 C   0  0  0  0  0  3  0  0  0  0  0  0
  188.4340  178.5380  148.3150 O   0  0  0  0  0  1  0  0  0  0  0  0
  186.5120  176.4820  143.9900 C   0  0  0  0  0  2  0  0  0  0  0  0
  188.4840  175.1680  143.1840 C   0  0  0  0  0  0  0  0  0  0  0  0
  186.2900  177.5210  142.8770 C   0  0  0  0  0  0  0  0  0  0  0  0
  190.6120  175.1830  144.3560 C   0  0  0  0  0  3  0  0  0  0  0  0
  188.1900  177.3150  146.2330 C   0  0  0  0  0  3  0  0  0  0  0  0
  187.9420  176.0410  144.1460 C   0  0  0  0  0  0  0  0  0  0  0  0
  191.1890  177.5410  148.3570 N   0  0  0  0  0  0  0  0  0  0  0  0
  190.8410  176.4980  146.4140 C   0  0  0  0  0  0  0  0  0  0  0  0
  187.6360  174.8000  141.9950 C   0  0  2  0  0  3  0  0  0  0  0  0
  188.9710  177.7250  147.3240 C   0  0  0  0  0  0  0  0  0  0  0  0
  188.7300  176.4740  145.2290 C   0  0  0  0  0  0  0  0  0  0  0  0
  187.8170  175.9400  139.8920 O   0  0  0  0  0  0  0  0  0  0  0  0
  192.3160  176.9220  148.0240 N   0  0  0  0  0  2  0  0  0  0  0  0
  184.8080  177.5520  142.5640 C   0  0  0  0  0  1  0  0  0  0  0  0
  190.2920  177.2910  147.3860 C   0  0  0  0  0  0  0  0  0  0  0  0
  192.1410  176.2870  146.8420 C   0  0  0  0  0  0  0  0  0  0  0  0
  195.2230  174.0060  144.9520 C   0  0  0  0  0  3  0  0  0  0  0  0
  193.2050  175.5240  146.1730 C   0  0  0  0  0  0  0  0  0  0  0  0
  195.3310  175.3990  145.0020 C   0  0  0  0  0  3  0  0  0  0  0  0
  194.4790  177.5410  145.6900 O   0  0  0  0  0  1  0  0  0  0  0  0
  194.1200  173.3700  145.5240 C   0  0  0  0  0  3  0  0  0  0  0  0
  193.1170  174.1260  146.1380 C   0  0  0  0  0  3  0  0  0  0  0  0
  194.3320  176.1600  145.6180 C   0  0  0  0  0  0  0  0  0  0  0  0
  2 15  1  0  0  0  0
  3 10  1  0  0  0  0
  5  3  1  0  0  0  0
  5 16  1  0  0  0  0
  6 11  1  0  0  0  0
  8 13  1  0  0  0  0
  9  6  2  0  0  0  0
  9 13  1  0  0  0  0
 10  1  1  0  0  0  0
 10  8  1  0  0  0  0
 11  2  2  0  0  0  0
 12 17  2  0  0  0  0
 13 18  2  0  0  0  0
 15 23  2  0  0  0  0
 15 22  1  0  0  0  0
 16  4  1  6  0  0  0
 16  9  1  0  0  0  0
 17 22  1  0  0  0  0
 17  7  1  0  0  0  0
 18  2  1  0  0  0  0
 18 12  1  0  0  0  0
 19  5  2  0  0  0  0
 20 14  1  0  0  0  0
 21 10  1  0  0  0  0
 22 14  2  0  0  0  0
 23 20  1  0  0  0  0
 24 26  2  0  0  0  0
 24 28  1  0  0  0  0
 25 23  1  0  0  0  0
 26 30  1  0  0  0  0
 28 29  2  0  0  0  0
 29 25  1  0  0  0  0
 30 27  1  0  0  0  0
 30 25  2  0  0  0  0
M  END
>  <MODEL>
9

>  <REMARK>
 VINA RESULT:      -7.6      2.052      7.467
  Name = 
  1 active torsions:
  status: ('A' for Active; 'I' for Inactive)
    1  A    between atoms: C_7  and  C_30
                            x       y       z     vdW  Elec       q    Type
                         _______ _______ _______ _____ _____    ______ ____

>  <TORSDO>
F 1

$$$$
