=
 OpenBabel11062420553D

 31 34  0  0  1  0  0  0  0  0999 V2000
  188.6230  177.5390  143.0990 C   0  0  0  0  0  2  0  0  0  0  0  0
  190.0890  177.7490  142.7410 C   0  0  0  0  0  2  0  0  0  0  0  0
  190.8960  178.0270  143.9980 C   0  0  0  0  0  2  0  0  0  0  0  0
  190.5730  177.0020  145.0740 C   0  0  2  0  0  3  0  0  0  0  0  0
  189.9770  177.6260  146.1720 O   0  0  0  0  0  1  0  0  0  0  0  0
  191.8180  176.3030  145.5090 C   0  0  0  0  0  0  0  0  0  0  0  0
  193.0180  176.4720  144.7450 N   0  0  0  0  0  2  0  0  0  0  0  0
  191.8020  175.5780  146.5410 O   0  0  0  0  0  0  0  0  0  0  0  0
  193.8990  173.3600  145.3830 O   0  0  0  0  0  1  0  0  0  0  0  0
  194.1640  174.3050  144.3880 C   0  0  2  0  0  3  0  0  0  0  0  0
  194.6340  175.7630  146.4040 C   0  0  0  0  0  1  0  0  0  0  0  0
  195.4900  174.0130  143.7190 C   0  0  0  0  0  2  0  0  0  0  0  0
  196.1820  175.3490  143.4720 C   0  0  2  0  0  3  0  0  0  0  0  0
  195.4160  176.4120  144.1700 C   0  0  2  0  0  3  0  0  0  0  0  0
  194.2710  175.7350  144.9250 C   0  0  2  0  0  0  0  0  0  0  0  0
  195.3170  176.2160  142.7760 O   0  0  0  0  0  0  0  0  0  0  0  0
  187.9310  176.5330  142.1790 C   0  0  2  0  0  3  0  0  0  0  0  0
  188.8700  175.6630  141.6150 O   0  0  0  0  0  0  0  0  0  0  0  0
  188.5570  174.4060  142.1360 C   0  0  0  0  0  2  0  0  0  0  0  0
  189.6440  173.9530  143.0050 C   0  0  0  0  0  0  0  0  0  0  0  0
  190.5030  173.5950  143.6910 N   0  0  0  0  0  0  0  0  0  0  0  0
  187.1390  177.2350  141.0870 C   0  0  0  0  0  2  0  0  0  0  0  0
  186.4240  178.3720  141.6440 N   0  0  0  0  0  2  0  0  0  0  0  0
  183.8010  178.1950  141.7020 S   0  0  0  0  0  0  0  0  0  0  0  0
  185.2510  178.2830  142.4630 C   0  0  0  0  0  0  0  0  0  0  0  0
  185.4240  179.5110  144.7020 C   0  0  0  0  0  2  0  0  0  0  0  0
  185.3030  177.1040  144.7140 C   0  0  0  0  0  2  0  0  0  0  0  0
  184.2540  178.3740  146.5910 C   0  0  0  0  0  2  0  0  0  0  0  0
  185.3100  178.3060  143.9040 N   0  0  0  0  0  0  0  0  0  0  0  0
  185.4530  177.5480  146.1610 C   0  0  2  0  0  3  0  0  0  0  0  0
  185.5300  179.0690  146.1520 C   0  0  1  0  0  3  0  0  0  0  0  0
  2  1  1  0  0  0  0
  2  3  1  0  0  0  0
  3  4  1  0  0  0  0
  4  6  1  0  0  0  0
  4  5  1  1  0  0  0
  6  8  2  0  0  0  0
  7 15  1  0  0  0  0
  7  6  1  0  0  0  0
 10 15  1  0  0  0  0
 10  9  1  1  0  0  0
 12 10  1  0  0  0  0
 13 12  1  1  0  0  0
 13 14  1  0  0  0  0
 14 16  1  6  0  0  0
 14 15  1  0  0  0  0
 15 11  1  1  0  0  0
 16 13  1  0  0  0  0
 17 22  1  6  0  0  0
 17  1  1  0  0  0  0
 18 19  1  0  0  0  0
 18 17  1  0  0  0  0
 19 20  1  0  0  0  0
 20 21  3  0  0  0  0
 22 23  1  0  0  0  0
 23 25  1  0  0  0  0
 24 25  2  0  0  0  0
 25 29  1  0  0  0  0
 29 26  1  0  0  0  0
 29 27  1  0  0  0  0
 30 27  1  6  0  0  0
 30 28  1  0  0  0  0
 31 26  1  6  0  0  0
 31 30  1  0  0  0  0
 31 28  1  0  0  0  0
M  END
>  <MODEL>
1

>  <REMARK>
 VINA RESULT:      -6.0      0.000      0.000
  Name = 
  13 active torsions:
  status: ('A' for Active; 'I' for Inactive)
    1  A    between atoms: C_1  and  C_10
    2  A    between atoms: C_1  and  C_20
    3  A    between atoms: N_3  and  C_18
    4  A    between atoms: N_3  and  C_25
    5  A    between atoms: C_10  and  C_21
    6  A    between atoms: C_13  and  C_21
    7  A    between atoms: C_13  and  C_31
    8  A    between atoms: N_14  and  C_18
    9  A    between atoms: C_15  and  C_26
   10  A    between atoms: O_16  and  C_26
   11  A    between atoms: O_16  and  C_31
   12  A    between atoms: C_23  and  N_24
   13  A    between atoms: C_25  and  C_31
                            x       y       z     vdW  Elec       q    Type
                         _______ _______ _______ _____ _____    ______ ____

>  <TORSDO>
F 13

$$$$
=
 OpenBabel11062420553D

 31 34  0  0  1  0  0  0  0  0999 V2000
  189.2730  177.2190  143.7160 C   0  0  0  0  0  2  0  0  0  0  0  0
  190.4970  177.9240  143.1440 C   0  0  0  0  0  2  0  0  0  0  0  0
  191.6850  177.7410  144.0740 C   0  0  0  0  0  2  0  0  0  0  0  0
  191.6360  176.3720  144.7340 C   0  0  2  0  0  3  0  0  0  0  0  0
  191.7040  176.5030  146.1230 O   0  0  0  0  0  1  0  0  0  0  0  0
  192.7690  175.5280  144.2540 C   0  0  0  0  0  0  0  0  0  0  0  0
  193.9680  176.1630  143.7960 N   0  0  0  0  0  2  0  0  0  0  0  0
  192.6620  174.2710  144.2610 O   0  0  0  0  0  0  0  0  0  0  0  0
  196.2620  176.9930  141.5790 O   0  0  0  0  0  1  0  0  0  0  0  0
  196.2470  176.4880  142.8820 C   0  0  2  0  0  3  0  0  0  0  0  0
  194.5990  174.8680  141.8490 C   0  0  0  0  0  1  0  0  0  0  0  0
  197.5210  175.7210  143.1680 C   0  0  0  0  0  2  0  0  0  0  0  0
  197.1410  174.4920  143.9850 C   0  0  2  0  0  3  0  0  0  0  0  0
  195.6610  174.3800  144.0080 C   0  0  2  0  0  3  0  0  0  0  0  0
  195.1000  175.5070  143.1380 C   0  0  2  0  0  0  0  0  0  0  0  0
  196.3870  174.8780  145.1110 O   0  0  0  0  0  0  0  0  0  0  0  0
  188.5310  176.3870  142.6710 C   0  0  2  0  0  3  0  0  0  0  0  0
  189.4220  175.5490  141.9930 O   0  0  0  0  0  0  0  0  0  0  0  0
  189.0500  174.2540  142.3570 C   0  0  0  0  0  2  0  0  0  0  0  0
  188.5910  173.5260  141.1740 C   0  0  0  0  0  0  0  0  0  0  0  0
  188.2270  172.9510  140.2390 N   0  0  0  0  0  0  0  0  0  0  0  0
  187.7850  177.2730  141.6860 C   0  0  0  0  0  2  0  0  0  0  0  0
  187.0340  178.2910  142.4030 N   0  0  0  0  0  2  0  0  0  0  0  0
  184.5210  178.2160  141.6350 S   0  0  0  0  0  0  0  0  0  0  0  0
  185.6650  178.1690  142.8080 C   0  0  0  0  0  0  0  0  0  0  0  0
  185.7670  177.0250  145.0950 C   0  0  0  0  0  2  0  0  0  0  0  0
  184.3080  178.9220  144.8210 C   0  0  0  0  0  2  0  0  0  0  0  0
  185.4120  178.5610  147.0300 C   0  0  0  0  0  2  0  0  0  0  0  0
  185.2760  178.0470  144.1910 N   0  0  0  0  0  0  0  0  0  0  0  0
  184.1220  178.4220  146.2450 C   0  0  2  0  0  3  0  0  0  0  0  0
  185.0440  177.2220  146.4170 C   0  0  1  0  0  3  0  0  0  0  0  0
  2  1  1  0  0  0  0
  2  3  1  0  0  0  0
  3  4  1  0  0  0  0
  4  5  1  1  0  0  0
  6  8  2  0  0  0  0
  6  4  1  0  0  0  0
  7  6  1  0  0  0  0
 10  9  1  6  0  0  0
 10 15  1  0  0  0  0
 10 12  1  0  0  0  0
 13 12  1  6  0  0  0
 13 14  1  0  0  0  0
 13 16  1  0  0  0  0
 14 16  1  1  0  0  0
 15 11  1  6  0  0  0
 15  7  1  0  0  0  0
 15 14  1  0  0  0  0
 17 22  1  6  0  0  0
 17  1  1  0  0  0  0
 18 19  1  0  0  0  0
 18 17  1  0  0  0  0
 20 19  1  0  0  0  0
 21 20  3  0  0  0  0
 22 23  1  0  0  0  0
 23 25  1  0  0  0  0
 24 25  2  0  0  0  0
 25 29  1  0  0  0  0
 29 27  1  0  0  0  0
 29 26  1  0  0  0  0
 30 27  1  6  0  0  0
 30 31  1  0  0  0  0
 30 28  1  0  0  0  0
 31 26  1  6  0  0  0
 31 28  1  0  0  0  0
M  END
>  <MODEL>
2

>  <REMARK>
 VINA RESULT:      -5.9      1.417      2.253
  Name = 
  13 active torsions:
  status: ('A' for Active; 'I' for Inactive)
    1  A    between atoms: C_1  and  C_10
    2  A    between atoms: C_1  and  C_20
    3  A    between atoms: N_3  and  C_18
    4  A    between atoms: N_3  and  C_25
    5  A    between atoms: C_10  and  C_21
    6  A    between atoms: C_13  and  C_21
    7  A    between atoms: C_13  and  C_31
    8  A    between atoms: N_14  and  C_18
    9  A    between atoms: C_15  and  C_26
   10  A    between atoms: O_16  and  C_26
   11  A    between atoms: O_16  and  C_31
   12  A    between atoms: C_23  and  N_24
   13  A    between atoms: C_25  and  C_31
                            x       y       z     vdW  Elec       q    Type
                         _______ _______ _______ _____ _____    ______ ____

>  <TORSDO>
F 13

$$$$
=
 OpenBabel11062420553D

 31 34  0  0  1  0  0  0  0  0999 V2000
  188.2860  175.0510  141.5680 C   0  0  0  0  0  2  0  0  0  0  0  0
  189.0450  173.9020  142.2190 C   0  0  0  0  0  2  0  0  0  0  0  0
  190.2110  173.4850  141.3380 C   0  0  0  0  0  2  0  0  0  0  0  0
  191.4410  174.3200  141.6560 C   0  0  2  0  0  3  0  0  0  0  0  0
  192.4960  173.9670  140.8120 O   0  0  0  0  0  1  0  0  0  0  0  0
  191.8480  174.1170  143.0780 C   0  0  0  0  0  0  0  0  0  0  0  0
  192.1720  175.2590  143.8810 N   0  0  0  0  0  2  0  0  0  0  0  0
  191.8980  172.9520  143.5570 O   0  0  0  0  0  0  0  0  0  0  0  0
  194.0440  173.2040  145.6530 O   0  0  0  0  0  1  0  0  0  0  0  0
  194.1110  174.5390  145.2430 C   0  0  2  0  0  3  0  0  0  0  0  0
  191.7530  174.5630  146.1620 C   0  0  0  0  0  1  0  0  0  0  0  0
  194.9770  175.3420  146.1900 C   0  0  0  0  0  2  0  0  0  0  0  0
  194.3130  176.7000  146.3780 C   0  0  2  0  0  3  0  0  0  0  0  0
  192.9670  176.6570  145.7520 C   0  0  2  0  0  3  0  0  0  0  0  0
  192.7490  175.2370  145.2270 C   0  0  2  0  0  0  0  0  0  0  0  0
  194.0610  177.2890  145.1230 O   0  0  0  0  0  0  0  0  0  0  0  0
  188.5920  176.4010  142.2180 C   0  0  2  0  0  3  0  0  0  0  0  0
  188.6760  176.2640  143.6080 O   0  0  0  0  0  0  0  0  0  0  0  0
  189.2070  177.4740  144.0590 C   0  0  0  0  0  2  0  0  0  0  0  0
  189.3460  177.4340  145.5150 C   0  0  0  0  0  0  0  0  0  0  0  0
  189.4540  177.4020  146.6660 N   0  0  0  0  0  0  0  0  0  0  0  0
  187.5450  177.4420  141.8520 C   0  0  0  0  0  2  0  0  0  0  0  0
  186.2170  176.9440  142.1710 N   0  0  0  0  0  2  0  0  0  0  0  0
  183.9070  178.2000  142.1780 S   0  0  0  0  0  0  0  0  0  0  0  0
  185.2420  177.6480  142.9510 C   0  0  0  0  0  0  0  0  0  0  0  0
  185.4880  179.2310  144.9470 C   0  0  0  0  0  2  0  0  0  0  0  0
  185.5940  176.8560  145.3410 C   0  0  0  0  0  2  0  0  0  0  0  0
  184.5940  178.3250  147.0950 C   0  0  0  0  0  2  0  0  0  0  0  0
  185.4200  177.9080  144.3590 N   0  0  0  0  0  0  0  0  0  0  0  0
  185.8240  177.5390  146.6810 C   0  0  2  0  0  3  0  0  0  0  0  0
  185.7570  179.0390  146.4310 C   0  0  1  0  0  3  0  0  0  0  0  0
  1  2  1  0  0  0  0
  3  4  1  0  0  0  0
  3  2  1  0  0  0  0
  4  5  1  6  0  0  0
  4  6  1  0  0  0  0
  6  8  2  0  0  0  0
  6  7  1  0  0  0  0
  7 15  1  0  0  0  0
 10  9  1  1  0  0  0
 10 12  1  0  0  0  0
 13 12  1  6  0  0  0
 14 16  1  6  0  0  0
 14 13  1  0  0  0  0
 15 10  1  0  0  0  0
 15 14  1  0  0  0  0
 15 11  1  1  0  0  0
 16 13  1  0  0  0  0
 17  1  1  6  0  0  0
 17 18  1  0  0  0  0
 18 19  1  0  0  0  0
 19 20  1  0  0  0  0
 20 21  3  0  0  0  0
 22 23  1  0  0  0  0
 22 17  1  0  0  0  0
 23 25  1  0  0  0  0
 24 25  2  0  0  0  0
 25 29  1  0  0  0  0
 29 26  1  0  0  0  0
 29 27  1  0  0  0  0
 30 27  1  6  0  0  0
 30 28  1  0  0  0  0
 31 26  1  6  0  0  0
 31 30  1  0  0  0  0
 31 28  1  0  0  0  0
M  END
>  <MODEL>
3

>  <REMARK>
 VINA RESULT:      -5.9      1.709      2.951
  Name = 
  13 active torsions:
  status: ('A' for Active; 'I' for Inactive)
    1  A    between atoms: C_1  and  C_10
    2  A    between atoms: C_1  and  C_20
    3  A    between atoms: N_3  and  C_18
    4  A    between atoms: N_3  and  C_25
    5  A    between atoms: C_10  and  C_21
    6  A    between atoms: C_13  and  C_21
    7  A    between atoms: C_13  and  C_31
    8  A    between atoms: N_14  and  C_18
    9  A    between atoms: C_15  and  C_26
   10  A    between atoms: O_16  and  C_26
   11  A    between atoms: O_16  and  C_31
   12  A    between atoms: C_23  and  N_24
   13  A    between atoms: C_25  and  C_31
                            x       y       z     vdW  Elec       q    Type
                         _______ _______ _______ _____ _____    ______ ____

>  <TORSDO>
F 13

$$$$
=
 OpenBabel11062420553D

 31 34  0  0  1  0  0  0  0  0999 V2000
  191.2640  174.1450  143.7070 C   0  0  0  0  0  2  0  0  0  0  0  0
  190.3030  175.3120  143.8960 C   0  0  0  0  0  2  0  0  0  0  0  0
  190.7270  176.4800  143.0220 C   0  0  0  0  0  2  0  0  0  0  0  0
  190.1240  177.7770  143.5400 C   0  0  2  0  0  3  0  0  0  0  0  0
  190.3280  177.8890  144.9170 O   0  0  0  0  0  1  0  0  0  0  0  0
  188.6620  177.8190  143.2450 C   0  0  0  0  0  0  0  0  0  0  0  0
  187.7310  177.8700  144.3330 N   0  0  0  0  0  2  0  0  0  0  0  0
  188.2620  177.8140  142.0490 O   0  0  0  0  0  0  0  0  0  0  0  0
  185.3170  176.5160  146.1220 O   0  0  0  0  0  1  0  0  0  0  0  0
  185.6140  177.7840  145.6150 C   0  0  2  0  0  3  0  0  0  0  0  0
  185.9550  176.4570  143.4870 C   0  0  0  0  0  1  0  0  0  0  0  0
  184.3490  178.5980  145.4460 C   0  0  0  0  0  2  0  0  0  0  0  0
  184.4790  179.3810  144.1460 C   0  0  2  0  0  3  0  0  0  0  0  0
  185.6800  178.8950  143.4210 C   0  0  2  0  0  3  0  0  0  0  0  0
  186.2750  177.7450  144.2350 C   0  0  2  0  0  0  0  0  0  0  0  0
  185.6850  180.1090  144.1420 O   0  0  0  0  0  0  0  0  0  0  0  0
  191.5530  173.8530  142.2340 C   0  0  2  0  0  3  0  0  0  0  0  0
  190.7510  172.8010  141.7790 O   0  0  0  0  0  0  0  0  0  0  0  0
  190.3770  173.1650  140.4850 C   0  0  0  0  0  2  0  0  0  0  0  0
  189.2200  174.0590  140.5440 C   0  0  0  0  0  0  0  0  0  0  0  0
  188.3050  174.7660  140.5910 N   0  0  0  0  0  0  0  0  0  0  0  0
  193.0230  173.5330  142.0120 C   0  0  0  0  0  2  0  0  0  0  0  0
  193.7640  174.7560  141.7490 N   0  0  0  0  0  2  0  0  0  0  0  0
  196.2700  175.5300  141.9280 S   0  0  0  0  0  0  0  0  0  0  0  0
  194.7910  175.2900  142.5930 C   0  0  0  0  0  0  0  0  0  0  0  0
  193.8910  176.7590  144.4860 C   0  0  0  0  0  2  0  0  0  0  0  0
  195.0550  174.7290  145.0590 C   0  0  0  0  0  2  0  0  0  0  0  0
  193.1820  175.4970  146.5190 C   0  0  0  0  0  2  0  0  0  0  0  0
  194.5720  175.5800  143.9890 N   0  0  0  0  0  0  0  0  0  0  0  0
  194.6890  175.4140  146.3660 C   0  0  2  0  0  3  0  0  0  0  0  0
  193.9530  176.6970  146.0030 C   0  0  1  0  0  3  0  0  0  0  0  0
  1  2  1  0  0  0  0
  3  4  1  0  0  0  0
  3  2  1  0  0  0  0
  4  5  1  1  0  0  0
  6  4  1  0  0  0  0
  6  7  1  0  0  0  0
  8  6  2  0  0  0  0
 10  9  1  6  0  0  0
 12 10  1  0  0  0  0
 13 12  1  1  0  0  0
 14 16  1  1  0  0  0
 14 13  1  0  0  0  0
 14 15  1  0  0  0  0
 15 11  1  6  0  0  0
 15  7  1  0  0  0  0
 15 10  1  0  0  0  0
 16 13  1  0  0  0  0
 17 22  1  1  0  0  0
 17  1  1  0  0  0  0
 18 17  1  0  0  0  0
 19 20  1  0  0  0  0
 19 18  1  0  0  0  0
 20 21  3  0  0  0  0
 23 22  1  0  0  0  0
 23 25  1  0  0  0  0
 24 25  2  0  0  0  0
 25 29  1  0  0  0  0
 29 26  1  0  0  0  0
 29 27  1  0  0  0  0
 30 27  1  6  0  0  0
 30 28  1  0  0  0  0
 31 26  1  6  0  0  0
 31 30  1  0  0  0  0
 31 28  1  0  0  0  0
M  END
>  <MODEL>
4

>  <REMARK>
 VINA RESULT:      -5.8      3.215      7.880
  Name = 
  13 active torsions:
  status: ('A' for Active; 'I' for Inactive)
    1  A    between atoms: C_1  and  C_10
    2  A    between atoms: C_1  and  C_20
    3  A    between atoms: N_3  and  C_18
    4  A    between atoms: N_3  and  C_25
    5  A    between atoms: C_10  and  C_21
    6  A    between atoms: C_13  and  C_21
    7  A    between atoms: C_13  and  C_31
    8  A    between atoms: N_14  and  C_18
    9  A    between atoms: C_15  and  C_26
   10  A    between atoms: O_16  and  C_26
   11  A    between atoms: O_16  and  C_31
   12  A    between atoms: C_23  and  N_24
   13  A    between atoms: C_25  and  C_31
                            x       y       z     vdW  Elec       q    Type
                         _______ _______ _______ _____ _____    ______ ____

>  <TORSDO>
F 13

$$$$
=
 OpenBabel11062420553D

 31 34  0  0  1  0  0  0  0  0999 V2000
  189.5650  175.0690  146.0350 C   0  0  0  0  0  2  0  0  0  0  0  0
  189.6180  174.5080  144.6200 C   0  0  0  0  0  2  0  0  0  0  0  0
  189.5750  175.6410  143.6090 C   0  0  0  0  0  2  0  0  0  0  0  0
  190.7920  175.5900  142.7010 C   0  0  2  0  0  3  0  0  0  0  0  0
  190.9130  174.3230  142.1250 O   0  0  0  0  0  1  0  0  0  0  0  0
  192.0270  175.9070  143.4750 C   0  0  0  0  0  0  0  0  0  0  0  0
  193.0760  174.9340  143.5480 N   0  0  0  0  0  2  0  0  0  0  0  0
  192.1380  177.0240  144.0510 O   0  0  0  0  0  0  0  0  0  0  0  0
  194.9350  172.8150  145.2570 O   0  0  0  0  0  1  0  0  0  0  0  0
  195.1410  173.7570  144.2450 C   0  0  2  0  0  3  0  0  0  0  0  0
  193.8220  175.2200  145.8340 C   0  0  0  0  0  1  0  0  0  0  0  0
  196.5730  174.2460  144.2590 C   0  0  0  0  0  2  0  0  0  0  0  0
  196.5490  175.7430  143.9750 C   0  0  2  0  0  3  0  0  0  0  0  0
  195.1390  176.2060  144.0130 C   0  0  2  0  0  3  0  0  0  0  0  0
  194.2690  175.0070  144.3940 C   0  0  2  0  0  0  0  0  0  0  0  0
  195.8220  175.9960  142.7960 O   0  0  0  0  0  0  0  0  0  0  0  0
  188.9340  176.4610  146.0930 C   0  0  2  0  0  3  0  0  0  0  0  0
  189.8140  177.3700  146.6890 O   0  0  0  0  0  0  0  0  0  0  0  0
  190.7140  176.5840  147.4110 C   0  0  0  0  0  2  0  0  0  0  0  0
  191.2110  177.3410  148.5600 C   0  0  0  0  0  0  0  0  0  0  0  0
  191.6040  177.9390  149.4690 N   0  0  0  0  0  0  0  0  0  0  0  0
  187.6100  176.4380  146.8410 C   0  0  0  0  0  2  0  0  0  0  0  0
  186.9470  177.7260  146.7160 N   0  0  0  0  0  2  0  0  0  0  0  0
  184.3880  178.3150  146.5940 S   0  0  0  0  0  0  0  0  0  0  0  0
  185.8220  177.9910  145.8690 C   0  0  0  0  0  0  0  0  0  0  0  0
  185.8290  179.1050  143.5650 C   0  0  0  0  0  2  0  0  0  0  0  0
  186.0460  176.7080  143.6860 C   0  0  0  0  0  2  0  0  0  0  0  0
  187.2290  177.9350  141.8620 C   0  0  0  0  0  2  0  0  0  0  0  0
  185.9090  177.9440  144.4310 N   0  0  0  0  0  0  0  0  0  0  0  0
  186.0270  177.0780  142.2110 C   0  0  2  0  0  3  0  0  0  0  0  0
  185.8890  178.5930  142.1360 C   0  0  1  0  0  3  0  0  0  0  0  0
  2  1  1  0  0  0  0
  3  2  1  0  0  0  0
  4  5  1  1  0  0  0
  4  6  1  0  0  0  0
  4  3  1  0  0  0  0
  6  7  1  0  0  0  0
  6  8  2  0  0  0  0
  7 15  1  0  0  0  0
 10 12  1  0  0  0  0
 10 15  1  0  0  0  0
 10  9  1  1  0  0  0
 13 14  1  0  0  0  0
 13 12  1  6  0  0  0
 14 16  1  6  0  0  0
 14 15  1  0  0  0  0
 15 11  1  1  0  0  0
 16 13  1  0  0  0  0
 17  1  1  1  0  0  0
 17 18  1  0  0  0  0
 17 22  1  0  0  0  0
 18 19  1  0  0  0  0
 19 20  1  0  0  0  0
 20 21  3  0  0  0  0
 23 22  1  0  0  0  0
 25 24  2  0  0  0  0
 25 23  1  0  0  0  0
 26 29  1  0  0  0  0
 27 29  1  0  0  0  0
 29 25  1  0  0  0  0
 30 28  1  1  0  0  0
 30 27  1  0  0  0  0
 31 28  1  1  0  0  0
 31 30  1  0  0  0  0
 31 26  1  0  0  0  0
M  END
>  <MODEL>
5

>  <REMARK>
 VINA RESULT:      -5.7      2.135      3.782
  Name = 
  13 active torsions:
  status: ('A' for Active; 'I' for Inactive)
    1  A    between atoms: C_1  and  C_10
    2  A    between atoms: C_1  and  C_20
    3  A    between atoms: N_3  and  C_18
    4  A    between atoms: N_3  and  C_25
    5  A    between atoms: C_10  and  C_21
    6  A    between atoms: C_13  and  C_21
    7  A    between atoms: C_13  and  C_31
    8  A    between atoms: N_14  and  C_18
    9  A    between atoms: C_15  and  C_26
   10  A    between atoms: O_16  and  C_26
   11  A    between atoms: O_16  and  C_31
   12  A    between atoms: C_23  and  N_24
   13  A    between atoms: C_25  and  C_31
                            x       y       z     vdW  Elec       q    Type
                         _______ _______ _______ _____ _____    ______ ____

>  <TORSDO>
F 13

$$$$
=
 OpenBabel11062420553D

 31 34  0  0  1  0  0  0  0  0999 V2000
  192.6900  174.8890  143.4310 C   0  0  0  0  0  2  0  0  0  0  0  0
  192.2790  176.3440  143.2430 C   0  0  0  0  0  2  0  0  0  0  0  0
  190.8440  176.4190  142.7470 C   0  0  0  0  0  2  0  0  0  0  0  0
  190.0900  177.5240  143.4680 C   0  0  2  0  0  3  0  0  0  0  0  0
  190.7230  177.8350  144.6730 O   0  0  0  0  0  1  0  0  0  0  0  0
  188.6850  177.1000  143.7350 C   0  0  0  0  0  0  0  0  0  0  0  0
  187.6350  178.0720  143.6580 N   0  0  0  0  0  2  0  0  0  0  0  0
  188.4350  175.8970  144.0190 O   0  0  0  0  0  0  0  0  0  0  0  0
  186.0270  176.5640  146.1090 O   0  0  0  0  0  1  0  0  0  0  0  0
  186.0810  177.8550  145.5750 C   0  0  2  0  0  3  0  0  0  0  0  0
  185.7400  176.5840  143.4120 C   0  0  0  0  0  1  0  0  0  0  0  0
  184.7990  178.6050  145.8680 C   0  0  0  0  0  2  0  0  0  0  0  0
  184.4490  179.4160  144.6270 C   0  0  2  0  0  3  0  0  0  0  0  0
  185.3550  179.0050  143.5250 C   0  0  2  0  0  3  0  0  0  0  0  0
  186.2380  177.8730  144.0520 C   0  0  2  0  0  0  0  0  0  0  0  0
  185.5510  180.2050  144.2420 O   0  0  0  0  0  0  0  0  0  0  0  0
  192.9750  174.5420  144.8920 C   0  0  2  0  0  3  0  0  0  0  0  0
  191.8000  174.1400  145.5350 O   0  0  0  0  0  0  0  0  0  0  0  0
  191.5680  175.1140  146.5080 C   0  0  0  0  0  2  0  0  0  0  0  0
  190.1680  175.0590  146.9300 C   0  0  0  0  0  0  0  0  0  0  0  0
  189.0610  175.0170  147.2640 N   0  0  0  0  0  0  0  0  0  0  0  0
  193.6050  175.7150  145.6270 C   0  0  0  0  0  2  0  0  0  0  0  0
  194.9520  175.3700  146.0500 N   0  0  0  0  0  2  0  0  0  0  0  0
  196.9880  173.7240  145.8060 S   0  0  0  0  0  0  0  0  0  0  0  0
  195.9770  174.8580  145.1900 C   0  0  0  0  0  0  0  0  0  0  0  0
  196.1460  174.4840  142.6640 C   0  0  0  0  0  2  0  0  0  0  0  0
  196.4260  176.7200  143.5170 C   0  0  0  0  0  2  0  0  0  0  0  0
  195.3550  176.4080  141.2840 C   0  0  0  0  0  2  0  0  0  0  0  0
  196.1610  175.3310  143.8400 N   0  0  0  0  0  0  0  0  0  0  0  0
  196.6300  176.7910  142.0120 C   0  0  2  0  0  3  0  0  0  0  0  0
  196.4530  175.3780  141.4730 C   0  0  1  0  0  3  0  0  0  0  0  0
  2  1  1  0  0  0  0
  3  2  1  0  0  0  0
  3  4  1  0  0  0  0
  4  6  1  0  0  0  0
  4  5  1  1  0  0  0
  6  8  2  0  0  0  0
  7  6  1  0  0  0  0
  7 15  1  0  0  0  0
 10 12  1  0  0  0  0
 10  9  1  6  0  0  0
 13 12  1  1  0  0  0
 14 15  1  0  0  0  0
 14 16  1  1  0  0  0
 14 13  1  0  0  0  0
 15 11  1  6  0  0  0
 15 10  1  0  0  0  0
 16 13  1  0  0  0  0
 17  1  1  6  0  0  0
 17 18  1  0  0  0  0
 17 22  1  0  0  0  0
 18 19  1  0  0  0  0
 19 20  1  0  0  0  0
 20 21  3  0  0  0  0
 22 23  1  0  0  0  0
 25 24  2  0  0  0  0
 25 23  1  0  0  0  0
 26 29  1  0  0  0  0
 27 29  1  0  0  0  0
 29 25  1  0  0  0  0
 30 28  1  6  0  0  0
 30 27  1  0  0  0  0
 31 28  1  6  0  0  0
 31 30  1  0  0  0  0
 31 26  1  0  0  0  0
M  END
>  <MODEL>
6

>  <REMARK>
 VINA RESULT:      -5.7      3.425      8.832
  Name = 
  13 active torsions:
  status: ('A' for Active; 'I' for Inactive)
    1  A    between atoms: C_1  and  C_10
    2  A    between atoms: C_1  and  C_20
    3  A    between atoms: N_3  and  C_18
    4  A    between atoms: N_3  and  C_25
    5  A    between atoms: C_10  and  C_21
    6  A    between atoms: C_13  and  C_21
    7  A    between atoms: C_13  and  C_31
    8  A    between atoms: N_14  and  C_18
    9  A    between atoms: C_15  and  C_26
   10  A    between atoms: O_16  and  C_26
   11  A    between atoms: O_16  and  C_31
   12  A    between atoms: C_23  and  N_24
   13  A    between atoms: C_25  and  C_31
                            x       y       z     vdW  Elec       q    Type
                         _______ _______ _______ _____ _____    ______ ____

>  <TORSDO>
F 13

$$$$
=
 OpenBabel11062420553D

 31 34  0  0  1  0  0  0  0  0999 V2000
  188.8230  174.5960  141.3830 C   0  0  0  0  0  2  0  0  0  0  0  0
  188.5950  173.2510  142.0620 C   0  0  0  0  0  2  0  0  0  0  0  0
  189.8630  172.4160  142.0000 C   0  0  0  0  0  2  0  0  0  0  0  0
  190.5780  172.4370  143.3420 C   0  0  2  0  0  3  0  0  0  0  0  0
  189.6810  172.7550  144.3630 O   0  0  0  0  0  1  0  0  0  0  0  0
  191.6870  173.4350  143.3190 C   0  0  0  0  0  0  0  0  0  0  0  0
  192.1230  174.0230  144.5510 N   0  0  0  0  0  2  0  0  0  0  0  0
  192.2290  173.7470  142.2240 O   0  0  0  0  0  0  0  0  0  0  0  0
  192.7520  176.3580  146.7910 O   0  0  0  0  0  1  0  0  0  0  0  0
  193.4710  175.3390  146.1590 C   0  0  2  0  0  3  0  0  0  0  0  0
  192.4350  176.3810  144.0970 C   0  0  0  0  0  1  0  0  0  0  0  0
  194.9490  175.6650  146.1390 C   0  0  0  0  0  2  0  0  0  0  0  0
  195.4960  175.2310  144.7850 C   0  0  2  0  0  3  0  0  0  0  0  0
  194.3530  174.8620  143.9120 C   0  0  2  0  0  3  0  0  0  0  0  0
  193.0680  175.1320  144.6960 C   0  0  2  0  0  0  0  0  0  0  0  0
  195.1580  173.8860  144.5390 O   0  0  0  0  0  0  0  0  0  0  0  0
  188.1910  175.7570  142.1510 C   0  0  2  0  0  3  0  0  0  0  0  0
  188.0910  176.8860  141.3310 O   0  0  0  0  0  0  0  0  0  0  0  0
  186.7230  177.1410  141.2310 C   0  0  0  0  0  2  0  0  0  0  0  0
  186.3540  178.2020  142.1690 C   0  0  0  0  0  0  0  0  0  0  0  0
  186.0610  179.0410  142.9100 N   0  0  0  0  0  0  0  0  0  0  0  0
  188.9820  176.0850  143.4080 C   0  0  0  0  0  2  0  0  0  0  0  0
  188.1560  175.8690  144.5850 N   0  0  0  0  0  2  0  0  0  0  0  0
  189.4620  177.1650  146.4620 S   0  0  0  0  0  0  0  0  0  0  0  0
  188.0680  176.7630  145.7010 C   0  0  0  0  0  0  0  0  0  0  0  0
  186.6750  178.2940  147.2070 C   0  0  0  0  0  2  0  0  0  0  0  0
  185.5260  176.7900  145.7150 C   0  0  0  0  0  2  0  0  0  0  0  0
  184.5000  179.0110  146.2130 C   0  0  0  0  0  2  0  0  0  0  0  0
  186.8090  177.2760  146.1830 N   0  0  0  0  0  0  0  0  0  0  0  0
  184.4600  177.5240  146.5130 C   0  0  2  0  0  3  0  0  0  0  0  0
  185.1860  178.4740  147.4560 C   0  0  1  0  0  3  0  0  0  0  0  0
  1  2  1  0  0  0  0
  3  2  1  0  0  0  0
  3  4  1  0  0  0  0
  4  5  1  1  0  0  0
  6  4  1  0  0  0  0
  6  7  1  0  0  0  0
  7 15  1  0  0  0  0
  8  6  2  0  0  0  0
 10  9  1  6  0  0  0
 12 10  1  0  0  0  0
 13 12  1  1  0  0  0
 14 16  1  1  0  0  0
 14 15  1  0  0  0  0
 14 13  1  0  0  0  0
 15 11  1  6  0  0  0
 15 10  1  0  0  0  0
 16 13  1  0  0  0  0
 17  1  1  6  0  0  0
 17 22  1  0  0  0  0
 18 17  1  0  0  0  0
 19 18  1  0  0  0  0
 19 20  1  0  0  0  0
 20 21  3  0  0  0  0
 22 23  1  0  0  0  0
 23 25  1  0  0  0  0
 25 29  1  0  0  0  0
 25 24  2  0  0  0  0
 26 31  1  0  0  0  0
 27 29  1  0  0  0  0
 28 30  1  0  0  0  0
 29 26  1  0  0  0  0
 30 27  1  6  0  0  0
 30 31  1  0  0  0  0
 31 28  1  6  0  0  0
M  END
>  <MODEL>
7

>  <REMARK>
 VINA RESULT:      -5.6      2.250      3.760
  Name = 
  13 active torsions:
  status: ('A' for Active; 'I' for Inactive)
    1  A    between atoms: C_1  and  C_10
    2  A    between atoms: C_1  and  C_20
    3  A    between atoms: N_3  and  C_18
    4  A    between atoms: N_3  and  C_25
    5  A    between atoms: C_10  and  C_21
    6  A    between atoms: C_13  and  C_21
    7  A    between atoms: C_13  and  C_31
    8  A    between atoms: N_14  and  C_18
    9  A    between atoms: C_15  and  C_26
   10  A    between atoms: O_16  and  C_26
   11  A    between atoms: O_16  and  C_31
   12  A    between atoms: C_23  and  N_24
   13  A    between atoms: C_25  and  C_31
                            x       y       z     vdW  Elec       q    Type
                         _______ _______ _______ _____ _____    ______ ____

>  <TORSDO>
F 13

$$$$
=
 OpenBabel11062420553D

 31 34  0  0  1  0  0  0  0  0999 V2000
  191.5950  176.5140  143.8040 C   0  0  0  0  0  2  0  0  0  0  0  0
  192.5820  177.2370  144.7120 C   0  0  0  0  0  2  0  0  0  0  0  0
  192.9330  176.3580  145.9010 C   0  0  0  0  0  2  0  0  0  0  0  0
  194.4070  176.4980  146.2480 C   0  0  2  0  0  3  0  0  0  0  0  0
  194.8290  177.8140  146.0430 O   0  0  0  0  0  1  0  0  0  0  0  0
  195.2240  175.5730  145.4100 C   0  0  0  0  0  0  0  0  0  0  0  0
  195.8870  176.0850  144.2470 N   0  0  0  0  0  2  0  0  0  0  0  0
  195.3280  174.3590  145.7340 O   0  0  0  0  0  0  0  0  0  0  0  0
  195.6090  173.0670  142.9500 O   0  0  0  0  0  1  0  0  0  0  0  0
  195.6150  174.3800  142.4710 C   0  0  2  0  0  3  0  0  0  0  0  0
  197.6960  174.5120  143.9070 C   0  0  0  0  0  1  0  0  0  0  0  0
  196.0580  174.4150  141.0240 C   0  0  0  0  0  2  0  0  0  0  0  0
  196.9540  175.6350  140.8480 C   0  0  2  0  0  3  0  0  0  0  0  0
  197.2420  176.2050  142.1890 C   0  0  2  0  0  3  0  0  0  0  0  0
  196.5810  175.2960  143.2270 C   0  0  2  0  0  0  0  0  0  0  0  0
  196.2950  176.7870  141.3190 O   0  0  0  0  0  0  0  0  0  0  0  0
  190.1770  176.4920  144.3750 C   0  0  2  0  0  3  0  0  0  0  0  0
  189.5460  175.2830  144.0660 O   0  0  0  0  0  0  0  0  0  0  0  0
  190.0870  174.3540  144.9570 C   0  0  0  0  0  2  0  0  0  0  0  0
  189.5070  174.5560  146.2850 C   0  0  0  0  0  0  0  0  0  0  0  0
  189.0490  174.7150  147.3350 N   0  0  0  0  0  0  0  0  0  0  0  0
  189.3550  177.6640  143.8600 C   0  0  0  0  0  2  0  0  0  0  0  0
  188.0910  177.1850  143.3250 N   0  0  0  0  0  2  0  0  0  0  0  0
  186.2170  178.6640  142.2220 S   0  0  0  0  0  0  0  0  0  0  0  0
  186.8260  177.8360  143.4990 C   0  0  0  0  0  0  0  0  0  0  0  0
  186.3210  176.8320  145.7990 C   0  0  0  0  0  2  0  0  0  0  0  0
  185.0610  178.7570  145.0810 C   0  0  0  0  0  2  0  0  0  0  0  0
  185.5840  178.4960  147.5080 C   0  0  0  0  0  2  0  0  0  0  0  0
  186.1110  177.8130  144.7510 N   0  0  0  0  0  0  0  0  0  0  0  0
  184.5150  178.3510  146.4410 C   0  0  2  0  0  3  0  0  0  0  0  0
  185.3120  177.1350  146.8940 C   0  0  1  0  0  3  0  0  0  0  0  0
  1  2  1  0  0  0  0
  2  3  1  0  0  0  0
  3  4  1  0  0  0  0
  4  5  1  6  0  0  0
  6  8  2  0  0  0  0
  6  4  1  0  0  0  0
  7  6  1  0  0  0  0
 10  9  1  1  0  0  0
 10 15  1  0  0  0  0
 12 10  1  0  0  0  0
 13 12  1  1  0  0  0
 13 16  1  0  0  0  0
 13 14  1  0  0  0  0
 14 16  1  6  0  0  0
 14 15  1  0  0  0  0
 15 11  1  1  0  0  0
 15  7  1  0  0  0  0
 17  1  1  6  0  0  0
 18 17  1  0  0  0  0
 18 19  1  0  0  0  0
 19 20  1  0  0  0  0
 20 21  3  0  0  0  0
 22 17  1  0  0  0  0
 23 25  1  0  0  0  0
 23 22  1  0  0  0  0
 24 25  2  0  0  0  0
 25 29  1  0  0  0  0
 29 27  1  0  0  0  0
 29 26  1  0  0  0  0
 30 27  1  6  0  0  0
 30 31  1  0  0  0  0
 30 28  1  0  0  0  0
 31 26  1  6  0  0  0
 31 28  1  0  0  0  0
M  END
>  <MODEL>
8

>  <REMARK>
 VINA RESULT:      -5.6      2.051      3.003
  Name = 
  13 active torsions:
  status: ('A' for Active; 'I' for Inactive)
    1  A    between atoms: C_1  and  C_10
    2  A    between atoms: C_1  and  C_20
    3  A    between atoms: N_3  and  C_18
    4  A    between atoms: N_3  and  C_25
    5  A    between atoms: C_10  and  C_21
    6  A    between atoms: C_13  and  C_21
    7  A    between atoms: C_13  and  C_31
    8  A    between atoms: N_14  and  C_18
    9  A    between atoms: C_15  and  C_26
   10  A    between atoms: O_16  and  C_26
   11  A    between atoms: O_16  and  C_31
   12  A    between atoms: C_23  and  N_24
   13  A    between atoms: C_25  and  C_31
                            x       y       z     vdW  Elec       q    Type
                         _______ _______ _______ _____ _____    ______ ____

>  <TORSDO>
F 13

$$$$
=
 OpenBabel11062420553D

 31 34  0  0  1  0  0  0  0  0999 V2000
  189.9980  173.7940  144.0570 C   0  0  0  0  0  2  0  0  0  0  0  0
  190.4780  174.2960  145.4130 C   0  0  0  0  0  2  0  0  0  0  0  0
  189.3120  174.8760  146.1950 C   0  0  0  0  0  2  0  0  0  0  0  0
  189.3530  176.3960  146.1630 C   0  0  2  0  0  3  0  0  0  0  0  0
  190.1700  176.8790  147.1870 O   0  0  0  0  0  1  0  0  0  0  0  0
  187.9770  176.9520  146.3140 C   0  0  0  0  0  0  0  0  0  0  0  0
  187.1020  176.9690  145.1800 N   0  0  0  0  0  2  0  0  0  0  0  0
  187.5980  177.3960  147.4320 O   0  0  0  0  0  0  0  0  0  0  0  0
  185.6510  179.5890  146.5570 O   0  0  0  0  0  1  0  0  0  0  0  0
  185.9190  179.1430  145.2590 C   0  0  2  0  0  3  0  0  0  0  0  0
  184.8900  177.0150  146.1650 C   0  0  0  0  0  1  0  0  0  0  0  0
  184.9340  179.7430  144.2780 C   0  0  0  0  0  2  0  0  0  0  0  0
  184.5710  178.6570  143.2730 C   0  0  2  0  0  3  0  0  0  0  0  0
  185.1320  177.3680  143.7480 C   0  0  2  0  0  3  0  0  0  0  0  0
  185.7950  177.6250  145.1030 C   0  0  2  0  0  0  0  0  0  0  0  0
  185.7420  178.1100  142.7140 O   0  0  0  0  0  0  0  0  0  0  0  0
  190.7870  174.3940  142.8940 C   0  0  2  0  0  3  0  0  0  0  0  0
  189.9240  174.7480  141.8510 O   0  0  0  0  0  0  0  0  0  0  0  0
  188.8490  175.3870  142.4710 C   0  0  0  0  0  2  0  0  0  0  0  0
  188.9240  176.8260  142.2190 C   0  0  0  0  0  0  0  0  0  0  0  0
  188.9830  177.9640  142.0200 N   0  0  0  0  0  0  0  0  0  0  0  0
  191.8540  173.4330  142.3940 C   0  0  0  0  0  2  0  0  0  0  0  0
  193.0160  174.1760  141.9350 N   0  0  0  0  0  2  0  0  0  0  0  0
  195.5640  173.5320  142.0290 S   0  0  0  0  0  0  0  0  0  0  0  0
  194.2520  174.2910  142.6520 C   0  0  0  0  0  0  0  0  0  0  0  0
  193.9470  176.3880  144.0880 C   0  0  0  0  0  2  0  0  0  0  0  0
  194.9370  174.4370  145.0960 C   0  0  0  0  0  2  0  0  0  0  0  0
  193.5100  175.9270  146.5020 C   0  0  0  0  0  2  0  0  0  0  0  0
  194.3590  175.0110  143.8980 N   0  0  0  0  0  0  0  0  0  0  0  0
  194.9320  175.5290  146.1540 C   0  0  2  0  0  3  0  0  0  0  0  0
  194.3070  176.7620  145.5160 C   0  0  1  0  0  3  0  0  0  0  0  0
  1  2  1  0  0  0  0
  2  3  1  0  0  0  0
  4  3  1  0  0  0  0
  4  6  1  0  0  0  0
  4  5  1  1  0  0  0
  6  8  2  0  0  0  0
  7  6  1  0  0  0  0
 10  9  1  1  0  0  0
 12 10  1  0  0  0  0
 13 14  1  0  0  0  0
 13 12  1  1  0  0  0
 14 16  1  6  0  0  0
 14 15  1  0  0  0  0
 15  7  1  0  0  0  0
 15 10  1  0  0  0  0
 15 11  1  1  0  0  0
 16 13  1  0  0  0  0
 17 22  1  6  0  0  0
 17  1  1  0  0  0  0
 18 19  1  0  0  0  0
 18 17  1  0  0  0  0
 20 19  1  0  0  0  0
 21 20  3  0  0  0  0
 23 22  1  0  0  0  0
 23 25  1  0  0  0  0
 24 25  2  0  0  0  0
 25 29  1  0  0  0  0
 29 26  1  0  0  0  0
 29 27  1  0  0  0  0
 30 27  1  6  0  0  0
 30 28  1  0  0  0  0
 31 26  1  6  0  0  0
 31 30  1  0  0  0  0
 31 28  1  0  0  0  0
M  END
>  <MODEL>
9

>  <REMARK>
 VINA RESULT:      -5.6      3.132      7.924
  Name = 
  13 active torsions:
  status: ('A' for Active; 'I' for Inactive)
    1  A    between atoms: C_1  and  C_10
    2  A    between atoms: C_1  and  C_20
    3  A    between atoms: N_3  and  C_18
    4  A    between atoms: N_3  and  C_25
    5  A    between atoms: C_10  and  C_21
    6  A    between atoms: C_13  and  C_21
    7  A    between atoms: C_13  and  C_31
    8  A    between atoms: N_14  and  C_18
    9  A    between atoms: C_15  and  C_26
   10  A    between atoms: O_16  and  C_26
   11  A    between atoms: O_16  and  C_31
   12  A    between atoms: C_23  and  N_24
   13  A    between atoms: C_25  and  C_31
                            x       y       z     vdW  Elec       q    Type
                         _______ _______ _______ _____ _____    ______ ____

>  <TORSDO>
F 13

$$$$
