=
 OpenBabel11072409303D

 40 43  0  0  1  0  0  0  0  0999 V2000
  188.6990  177.3940  143.1020 C   0  0  0  0  0  0  0  0  0  0  0  0
  189.0480  178.2390  142.2880 O   0  0  0  0  0  0  0  0  0  0  0  0
  189.6330  176.9760  144.2020 C   0  0  2  0  0  3  0  0  0  0  0  0
  190.7650  177.9780  144.3250 C   0  0  0  0  0  1  0  0  0  0  0  0
  190.2020  175.6100  143.9460 C   0  0  0  0  0  3  0  0  0  0  0  0
  190.6800  174.8150  144.9130 C   0  0  0  0  0  3  0  0  0  0  0  0
  190.7010  175.2030  146.3580 C   0  0  0  0  0  2  0  0  0  0  0  0
  192.1390  175.3130  146.8420 C   0  0  0  0  0  2  0  0  0  0  0  0
  194.2170  177.1940  146.4160 O   0  0  0  0  0  1  0  0  0  0  0  0
  194.1130  174.0680  145.9860 N   0  0  0  0  0  2  0  0  0  0  0  0
  193.9700  176.3710  145.3140 C   0  0  1  0  0  3  0  0  0  0  0  0
  195.3450  174.4760  145.4290 C   0  0  0  0  0  0  0  0  0  0  0  0
  195.3060  175.8220  144.7960 C   0  0  1  0  0  3  0  0  0  0  0  0
  193.1590  175.1270  145.7180 C   0  0  2  0  0  3  0  0  0  0  0  0
  196.3800  173.7610  145.4890 O   0  0  0  0  0  0  0  0  0  0  0  0
  195.2780  175.6800  143.2650 C   0  0  2  0  0  3  0  0  0  0  0  0
  196.3340  176.5160  142.6140 C   0  0  0  0  0  0  0  0  0  0  0  0
  196.3180  176.6940  141.2030 N   0  0  0  0  0  1  0  0  0  0  0  0
  197.2310  177.0680  143.3040 O   0  0  0  0  0  0  0  0  0  0  0  0
  193.6510  176.1150  142.5640 S   0  0  0  0  0  0  0  0  0  0  0  0
  193.0530  173.2800  141.9090 C   0  0  0  0  0  3  0  0  0  0  0  0
  193.2940  174.4300  142.1760 C   0  0  0  0  0  0  0  0  0  0  0  0
  187.2980  176.8370  143.0740 C   0  0  2  0  0  3  0  0  0  0  0  0
  184.8060  177.6810  145.9390 C   0  0  0  0  0  2  0  0  0  0  0  0
  186.1220  178.1170  146.5380 C   0  0  0  0  0  0  0  0  0  0  0  0
  185.3580  177.5600  144.5630 C   0  0  2  0  0  0  0  0  0  0  0  0
  186.6530  176.7600  144.4640 C   0  0  2  0  0  3  0  0  0  0  0  0
  186.6360  178.1230  145.1130 C   0  0  2  0  0  3  0  0  0  0  0  0
  186.5680  178.4960  147.7310 C   0  0  0  0  0  2  0  0  0  0  0  0
  184.8900  178.5420  143.4980 C   0  0  0  0  0  2  0  0  0  0  0  0
  183.9610  177.9230  142.6630 O   0  0  0  0  0  1  0  0  0  0  0  0
  187.2520  175.5470  142.3840 N   0  0  0  0  0  2  0  0  0  0  0  0
  187.9590  175.6520  141.1750 N   0  0  0  0  0  2  0  0  0  0  0  0
  189.5840  173.9400  140.6630 C   0  0  1  0  0  3  0  0  0  0  0  0
  188.1120  174.3040  140.6620 C   0  0  1  0  0  3  0  0  0  0  0  0
  188.6740  173.4110  141.7500 C   0  0  0  0  0  2  0  0  0  0  0  0
  189.8240  172.8550  139.6360 C   0  0  0  0  0  2  0  0  0  0  0  0
  190.9980  173.2390  138.7580 C   0  0  0  0  0  2  0  0  0  0  0  0
  191.8630  172.0760  138.5610 C   0  0  0  0  0  0  0  0  0  0  0  0
  192.5490  171.1570  138.4050 N   0  0  0  0  0  0  0  0  0  0  0  0
  1  3  1  0  0  0  0
  2  1  2  0  0  0  0
  3  4  1  6  0  0  0
  5  3  1  0  0  0  0
  5  6  2  0  0  0  0
  6  7  1  0  0  0  0
  7  8  1  0  0  0  0
 11 14  1  0  0  0  0
 11  9  1  1  0  0  0
 12 15  2  0  0  0  0
 12 10  1  0  0  0  0
 13 16  1  6  0  0  0
 13 11  1  0  0  0  0
 13 12  1  0  0  0  0
 14 10  1  0  0  0  0
 14  8  1  1  0  0  0
 16 20  1  6  0  0  0
 17 16  1  0  0  0  0
 17 19  2  0  0  0  0
 18 17  1  0  0  0  0
 21 22  3  0  0  0  0
 22 20  1  0  0  0  0
 23 32  1  1  0  0  0
 23  1  1  0  0  0  0
 24 25  1  0  0  0  0
 25 29  2  0  0  0  0
 26 30  1  6  0  0  0
 26 28  1  0  0  0  0
 26 24  1  0  0  0  0
 27 23  1  6  0  0  0
 27 26  1  0  0  0  0
 27 28  1  0  0  0  0
 28 25  1  1  0  0  0
 31 30  1  0  0  0  0
 33 32  1  0  0  0  0
 34 37  1  6  0  0  0
 34 36  1  0  0  0  0
 35 34  1  0  0  0  0
 35 33  1  1  0  0  0
 35 36  1  0  0  0  0
 38 37  1  0  0  0  0
 39 38  1  0  0  0  0
 40 39  3  0  0  0  0
M  END
>  <MODEL>
1

>  <REMARK>
 VINA RESULT:      -6.0      0.000      0.000
  Name = 
  18 active torsions:
  status: ('A' for Active; 'I' for Inactive)
    1  A    between atoms: C_1  and  C_25
    2  A    between atoms: C_2  and  C_8
    3  A    between atoms: C_4  and  C_32
    4  A    between atoms: C_6  and  C_8
    5  A    between atoms: C_6  and  C_40
    6  A    between atoms: C_10  and  C_38
    7  A    between atoms: C_11  and  C_28
    8  A    between atoms: C_11  and  C_32
    9  A    between atoms: C_12  and  C_24
   10  A    between atoms: C_16  and  S_26
   11  A    between atoms: C_17  and  N_23
   12  A    between atoms: N_21  and  N_23
   13  A    between atoms: N_21  and  C_40
   14  A    between atoms: C_25  and  C_38
   15  A    between atoms: S_26  and  C_36
   16  A    between atoms: C_27  and  C_36
   17  A    between atoms: C_29  and  C_40
   18  A    between atoms: C_30  and  C_36
                            x       y       z     vdW  Elec       q    Type
                         _______ _______ _______ _____ _____    ______ ____

>  <TORSDO>
F 18

$$$$
=
 OpenBabel11072409303D

 40 43  0  0  1  0  0  0  0  0999 V2000
  188.3450  176.7570  143.6830 C   0  0  0  0  0  0  0  0  0  0  0  0
  187.8420  175.7970  143.1130 O   0  0  0  0  0  0  0  0  0  0  0  0
  189.4590  177.5230  143.0290 C   0  0  2  0  0  3  0  0  0  0  0  0
  188.9330  178.2610  141.8130 C   0  0  0  0  0  1  0  0  0  0  0  0
  190.5780  176.6100  142.6130 C   0  0  0  0  0  3  0  0  0  0  0  0
  191.7360  176.5100  143.2780 C   0  0  0  0  0  3  0  0  0  0  0  0
  192.0460  177.3000  144.5100 C   0  0  0  0  0  2  0  0  0  0  0  0
  193.4790  177.0360  144.9460 C   0  0  0  0  0  2  0  0  0  0  0  0
  196.0960  176.8850  143.8660 O   0  0  0  0  0  1  0  0  0  0  0  0
  194.3600  174.7630  145.4320 N   0  0  0  0  0  2  0  0  0  0  0  0
  195.2670  175.8290  143.4790 C   0  0  1  0  0  3  0  0  0  0  0  0
  195.5000  174.0540  144.9920 C   0  0  0  0  0  0  0  0  0  0  0  0
  196.0220  174.5080  143.6750 C   0  0  1  0  0  3  0  0  0  0  0  0
  194.0350  175.7230  144.3940 C   0  0  2  0  0  3  0  0  0  0  0  0
  196.0260  173.1380  145.6760 O   0  0  0  0  0  0  0  0  0  0  0  0
  195.6380  173.4960  142.5830 C   0  0  2  0  0  3  0  0  0  0  0  0
  196.6810  172.4370  142.4210 C   0  0  0  0  0  0  0  0  0  0  0  0
  196.2970  171.1290  142.0120 N   0  0  0  0  0  1  0  0  0  0  0  0
  197.8940  172.6930  142.6360 O   0  0  0  0  0  0  0  0  0  0  0  0
  195.3430  174.3000  140.9720 S   0  0  0  0  0  0  0  0  0  0  0  0
  192.4630  173.5720  141.0130 C   0  0  0  0  0  3  0  0  0  0  0  0
  193.6320  173.8670  140.9940 C   0  0  0  0  0  0  0  0  0  0  0  0
  187.7870  177.2450  144.9970 C   0  0  2  0  0  3  0  0  0  0  0  0
  184.3010  178.8740  145.5590 C   0  0  0  0  0  2  0  0  0  0  0  0
  184.2370  178.5120  144.0940 C   0  0  0  0  0  0  0  0  0  0  0  0
  185.5090  178.0460  145.8150 C   0  0  2  0  0  0  0  0  0  0  0  0
  186.6510  178.2620  144.8280 C   0  0  2  0  0  3  0  0  0  0  0  0
  185.3810  177.5670  144.3990 C   0  0  2  0  0  3  0  0  0  0  0  0
  183.4370  178.7660  143.0650 C   0  0  0  0  0  2  0  0  0  0  0  0
  185.3740  176.8080  146.6910 C   0  0  0  0  0  2  0  0  0  0  0  0
  185.8860  177.0720  147.9600 O   0  0  0  0  0  1  0  0  0  0  0  0
  188.8470  177.7570  145.8660 N   0  0  0  0  0  2  0  0  0  0  0  0
  189.0460  176.8540  146.9230 N   0  0  0  0  0  2  0  0  0  0  0  0
  190.0480  174.7290  146.3680 C   0  0  1  0  0  3  0  0  0  0  0  0
  188.7620  175.5300  146.4020 C   0  0  1  0  0  3  0  0  0  0  0  0
  189.0410  174.4960  147.4740 C   0  0  0  0  0  2  0  0  0  0  0  0
  189.9180  173.6330  145.3320 C   0  0  0  0  0  2  0  0  0  0  0  0
  191.2730  173.3570  144.7120 C   0  0  0  0  0  2  0  0  0  0  0  0
  191.2810  172.0160  144.1280 C   0  0  0  0  0  0  0  0  0  0  0  0
  191.2880  170.9550  143.6670 N   0  0  0  0  0  0  0  0  0  0  0  0
  2  1  2  0  0  0  0
  3  4  1  6  0  0  0
  3  1  1  0  0  0  0
  5  3  1  0  0  0  0
  5  6  2  0  0  0  0
  6  7  1  0  0  0  0
  7  8  1  0  0  0  0
 11 13  1  0  0  0  0
 11  9  1  1  0  0  0
 11 14  1  0  0  0  0
 12 10  1  0  0  0  0
 12 15  2  0  0  0  0
 13 16  1  6  0  0  0
 13 12  1  0  0  0  0
 14  8  1  1  0  0  0
 14 10  1  0  0  0  0
 16 20  1  6  0  0  0
 17 16  1  0  0  0  0
 17 19  2  0  0  0  0
 18 17  1  0  0  0  0
 20 22  1  0  0  0  0
 22 21  3  0  0  0  0
 23  1  1  6  0  0  0
 23 32  1  0  0  0  0
 24 26  1  0  0  0  0
 25 24  1  0  0  0  0
 26 30  1  1  0  0  0
 27 23  1  1  0  0  0
 27 26  1  0  0  0  0
 28 25  1  6  0  0  0
 28 27  1  0  0  0  0
 28 26  1  0  0  0  0
 29 25  2  0  0  0  0
 30 31  1  0  0  0  0
 32 33  1  0  0  0  0
 34 37  1  6  0  0  0
 34 35  1  0  0  0  0
 34 36  1  0  0  0  0
 35 33  1  1  0  0  0
 35 36  1  0  0  0  0
 38 37  1  0  0  0  0
 39 38  1  0  0  0  0
 40 39  3  0  0  0  0
M  END
>  <MODEL>
2

>  <REMARK>
 VINA RESULT:      -5.8      2.498      3.687
  Name = 
  18 active torsions:
  status: ('A' for Active; 'I' for Inactive)
    1  A    between atoms: C_1  and  C_25
    2  A    between atoms: C_2  and  C_8
    3  A    between atoms: C_4  and  C_32
    4  A    between atoms: C_6  and  C_8
    5  A    between atoms: C_6  and  C_40
    6  A    between atoms: C_10  and  C_38
    7  A    between atoms: C_11  and  C_28
    8  A    between atoms: C_11  and  C_32
    9  A    between atoms: C_12  and  C_24
   10  A    between atoms: C_16  and  S_26
   11  A    between atoms: C_17  and  N_23
   12  A    between atoms: N_21  and  N_23
   13  A    between atoms: N_21  and  C_40
   14  A    between atoms: C_25  and  C_38
   15  A    between atoms: S_26  and  C_36
   16  A    between atoms: C_27  and  C_36
   17  A    between atoms: C_29  and  C_40
   18  A    between atoms: C_30  and  C_36
                            x       y       z     vdW  Elec       q    Type
                         _______ _______ _______ _____ _____    ______ ____

>  <TORSDO>
F 18

$$$$
=
 OpenBabel11072409303D

 40 43  0  0  1  0  0  0  0  0999 V2000
  189.4610  176.6720  142.9130 C   0  0  0  0  0  0  0  0  0  0  0  0
  189.2950  177.6650  142.2170 O   0  0  0  0  0  0  0  0  0  0  0  0
  189.4300  175.3040  142.2930 C   0  0  2  0  0  3  0  0  0  0  0  0
  188.0360  175.0030  141.7770 C   0  0  0  0  0  1  0  0  0  0  0  0
  189.8330  174.2470  143.2820 C   0  0  0  0  0  3  0  0  0  0  0  0
  190.5440  173.1600  142.9530 C   0  0  0  0  0  3  0  0  0  0  0  0
  191.0120  172.8760  141.5600 C   0  0  0  0  0  2  0  0  0  0  0  0
  192.5060  172.5880  141.5670 C   0  0  0  0  0  2  0  0  0  0  0  0
  194.0880  171.4350  139.5170 O   0  0  0  0  0  1  0  0  0  0  0  0
  192.4280  174.1180  139.6090 N   0  0  0  0  0  2  0  0  0  0  0  0
  194.4070  172.7680  139.7900 C   0  0  1  0  0  3  0  0  0  0  0  0
  193.1510  174.1740  138.3980 C   0  0  0  0  0  0  0  0  0  0  0  0
  194.4950  173.5380  138.4660 C   0  0  1  0  0  3  0  0  0  0  0  0
  193.2820  173.4600  140.5800 C   0  0  2  0  0  3  0  0  0  0  0  0
  192.6780  174.7010  137.3570 O   0  0  0  0  0  0  0  0  0  0  0  0
  195.5840  174.6210  138.5380 C   0  0  2  0  0  3  0  0  0  0  0  0
  196.3020  174.7690  137.2350 C   0  0  0  0  0  0  0  0  0  0  0  0
  196.1580  173.7670  136.2360 N   0  0  0  0  0  1  0  0  0  0  0  0
  197.0250  175.7750  137.0120 O   0  0  0  0  0  0  0  0  0  0  0  0
  196.7980  174.2880  139.8590 S   0  0  0  0  0  0  0  0  0  0  0  0
  196.0480  176.7630  141.3210 C   0  0  0  0  0  3  0  0  0  0  0  0
  196.3520  175.7570  140.7300 C   0  0  0  0  0  0  0  0  0  0  0  0
  189.7990  176.8100  144.3760 C   0  0  2  0  0  3  0  0  0  0  0  0
  187.0870  177.1320  147.1450 C   0  0  0  0  0  2  0  0  0  0  0  0
  186.2510  177.1960  145.8890 C   0  0  0  0  0  0  0  0  0  0  0  0
  188.3010  176.6520  146.4340 C   0  0  2  0  0  0  0  0  0  0  0  0
  188.6760  177.4590  145.1950 C   0  0  2  0  0  3  0  0  0  0  0  0
  187.4500  176.5760  145.2000 C   0  0  2  0  0  3  0  0  0  0  0  0
  184.9940  177.4870  145.5720 C   0  0  0  0  0  2  0  0  0  0  0  0
  188.7890  175.2330  146.6950 C   0  0  0  0  0  2  0  0  0  0  0  0
  189.8350  175.2580  147.6150 O   0  0  0  0  0  1  0  0  0  0  0  0
  191.0750  177.5030  144.5630 N   0  0  0  0  0  2  0  0  0  0  0  0
  191.9470  176.6670  145.2790 N   0  0  0  0  0  2  0  0  0  0  0  0
  194.0950  175.5770  145.1040 C   0  0  1  0  0  3  0  0  0  0  0  0
  193.2230  176.7040  144.5890 C   0  0  1  0  0  3  0  0  0  0  0  0
  193.3910  175.4390  143.7720 C   0  0  0  0  0  2  0  0  0  0  0  0
  195.5480  175.9330  144.8710 C   0  0  0  0  0  2  0  0  0  0  0  0
  196.3050  174.7000  144.4210 C   0  0  0  0  0  2  0  0  0  0  0  0
  196.7670  173.9540  145.5920 C   0  0  0  0  0  0  0  0  0  0  0  0
  197.1310  173.3650  146.5200 N   0  0  0  0  0  0  0  0  0  0  0  0
  2  1  2  0  0  0  0
  3  4  1  1  0  0  0
  3  1  1  0  0  0  0
  3  5  1  0  0  0  0
  6  5  2  0  0  0  0
  7  8  1  0  0  0  0
  7  6  1  0  0  0  0
 10 14  1  0  0  0  0
 11  9  1  6  0  0  0
 11 14  1  0  0  0  0
 12 13  1  0  0  0  0
 12 10  1  0  0  0  0
 13 16  1  1  0  0  0
 13 11  1  0  0  0  0
 14  8  1  6  0  0  0
 15 12  2  0  0  0  0
 16 17  1  6  0  0  0
 16 20  1  0  0  0  0
 18 17  1  0  0  0  0
 19 17  2  0  0  0  0
 20 22  1  0  0  0  0
 22 21  3  0  0  0  0
 23  1  1  6  0  0  0
 23 32  1  0  0  0  0
 25 24  1  0  0  0  0
 26 30  1  1  0  0  0
 26 24  1  0  0  0  0
 27 23  1  6  0  0  0
 27 28  1  0  0  0  0
 27 26  1  0  0  0  0
 28 25  1  1  0  0  0
 28 26  1  0  0  0  0
 29 25  2  0  0  0  0
 30 31  1  0  0  0  0
 32 33  1  0  0  0  0
 34 37  1  6  0  0  0
 35 34  1  0  0  0  0
 35 33  1  1  0  0  0
 36 35  1  0  0  0  0
 36 34  1  0  0  0  0
 38 37  1  0  0  0  0
 38 39  1  0  0  0  0
 39 40  3  0  0  0  0
M  END
>  <MODEL>
3

>  <REMARK>
 VINA RESULT:      -5.6      3.102      5.687
  Name = 
  18 active torsions:
  status: ('A' for Active; 'I' for Inactive)
    1  A    between atoms: C_1  and  C_25
    2  A    between atoms: C_2  and  C_8
    3  A    between atoms: C_4  and  C_32
    4  A    between atoms: C_6  and  C_8
    5  A    between atoms: C_6  and  C_40
    6  A    between atoms: C_10  and  C_38
    7  A    between atoms: C_11  and  C_28
    8  A    between atoms: C_11  and  C_32
    9  A    between atoms: C_12  and  C_24
   10  A    between atoms: C_16  and  S_26
   11  A    between atoms: C_17  and  N_23
   12  A    between atoms: N_21  and  N_23
   13  A    between atoms: N_21  and  C_40
   14  A    between atoms: C_25  and  C_38
   15  A    between atoms: S_26  and  C_36
   16  A    between atoms: C_27  and  C_36
   17  A    between atoms: C_29  and  C_40
   18  A    between atoms: C_30  and  C_36
                            x       y       z     vdW  Elec       q    Type
                         _______ _______ _______ _____ _____    ______ ____

>  <TORSDO>
F 18

$$$$
=
 OpenBabel11072409303D

 40 43  0  0  1  0  0  0  0  0999 V2000
  196.4230  173.2950  145.7970 C   0  0  0  0  0  0  0  0  0  0  0  0
  197.1740  173.8120  146.6130 O   0  0  0  0  0  0  0  0  0  0  0  0
  194.9550  173.6140  145.8140 C   0  0  2  0  0  3  0  0  0  0  0  0
  194.2670  172.9410  144.6430 C   0  0  0  0  0  1  0  0  0  0  0  0
  194.7180  175.0960  145.7460 C   0  0  0  0  0  3  0  0  0  0  0  0
  193.5830  175.6830  146.1490 C   0  0  0  0  0  3  0  0  0  0  0  0
  192.4220  174.9240  146.7110 C   0  0  0  0  0  2  0  0  0  0  0  0
  191.5410  175.8590  147.5250 C   0  0  0  0  0  2  0  0  0  0  0  0
  189.0930  174.4440  147.3200 O   0  0  0  0  0  1  0  0  0  0  0  0
  189.7150  177.5380  147.3730 N   0  0  0  0  0  2  0  0  0  0  0  0
  189.2630  175.4200  146.3350 C   0  0  1  0  0  3  0  0  0  0  0  0
  188.3390  177.4440  147.0710 C   0  0  0  0  0  0  0  0  0  0  0  0
  187.9820  176.2600  146.2440 C   0  0  1  0  0  3  0  0  0  0  0  0
  190.3670  176.4180  146.7220 C   0  0  2  0  0  3  0  0  0  0  0  0
  187.5000  178.2850  147.4880 O   0  0  0  0  0  0  0  0  0  0  0  0
  187.7190  176.6940  144.7920 C   0  0  2  0  0  3  0  0  0  0  0  0
  186.2580  176.7000  144.4740 C   0  0  0  0  0  0  0  0  0  0  0  0
  185.3080  176.6940  145.5330 N   0  0  0  0  0  1  0  0  0  0  0  0
  185.8620  176.7170  143.2790 O   0  0  0  0  0  0  0  0  0  0  0  0
  188.5920  175.6370  143.5890 S   0  0  0  0  0  0  0  0  0  0  0  0
  190.4550  177.8300  142.8500 C   0  0  0  0  0  3  0  0  0  0  0  0
  189.7010  176.9390  143.1500 C   0  0  0  0  0  0  0  0  0  0  0  0
  196.9720  172.4130  144.7030 C   0  0  2  0  0  3  0  0  0  0  0  0
  197.3140  168.5710  145.1920 C   0  0  0  0  0  2  0  0  0  0  0  0
  197.0130  169.0330  146.5980 C   0  0  0  0  0  0  0  0  0  0  0  0
  196.9290  169.8670  144.5750 C   0  0  2  0  0  0  0  0  0  0  0  0
  197.5560  171.0950  145.2270 C   0  0  2  0  0  3  0  0  0  0  0  0
  196.4930  170.2980  145.9450 C   0  0  2  0  0  3  0  0  0  0  0  0
  197.0260  168.5060  147.8180 C   0  0  0  0  0  2  0  0  0  0  0  0
  195.6820  169.9190  143.7030 C   0  0  0  0  0  2  0  0  0  0  0  0
  196.0490  169.9200  142.3580 O   0  0  0  0  0  1  0  0  0  0  0  0
  197.9320  173.1380  143.8690 N   0  0  0  0  0  2  0  0  0  0  0  0
  197.3900  174.3880  143.5290 N   0  0  0  0  0  2  0  0  0  0  0  0
  195.5800  175.3050  142.2210 C   0  0  1  0  0  3  0  0  0  0  0  0
  196.5990  174.1880  142.3300 C   0  0  1  0  0  3  0  0  0  0  0  0
  196.8330  175.3400  141.3740 C   0  0  0  0  0  2  0  0  0  0  0  0
  194.4160  174.8290  141.3780 C   0  0  0  0  0  2  0  0  0  0  0  0
  193.1210  175.3660  141.9520 C   0  0  0  0  0  2  0  0  0  0  0  0
  192.0050  174.5320  141.5060 C   0  0  0  0  0  0  0  0  0  0  0  0
  191.1210  173.8720  141.1520 N   0  0  0  0  0  0  0  0  0  0  0  0
  1  3  1  0  0  0  0
  1  2  2  0  0  0  0
  3  4  1  6  0  0  0
  5  3  1  0  0  0  0
  5  6  2  0  0  0  0
  6  7  1  0  0  0  0
  7  8  1  0  0  0  0
 11 14  1  0  0  0  0
 11  9  1  1  0  0  0
 12 10  1  0  0  0  0
 12 15  2  0  0  0  0
 13 16  1  6  0  0  0
 13 11  1  0  0  0  0
 13 12  1  0  0  0  0
 14 10  1  0  0  0  0
 14  8  1  1  0  0  0
 16 20  1  6  0  0  0
 17 16  1  0  0  0  0
 17 18  1  0  0  0  0
 19 17  2  0  0  0  0
 21 22  3  0  0  0  0
 22 20  1  0  0  0  0
 23 32  1  1  0  0  0
 23  1  1  0  0  0  0
 24 25  1  0  0  0  0
 25 29  2  0  0  0  0
 26 30  1  6  0  0  0
 26 24  1  0  0  0  0
 26 27  1  0  0  0  0
 26 28  1  0  0  0  0
 27 23  1  6  0  0  0
 27 28  1  0  0  0  0
 28 25  1  1  0  0  0
 31 30  1  0  0  0  0
 33 32  1  0  0  0  0
 34 37  1  6  0  0  0
 34 35  1  0  0  0  0
 35 33  1  1  0  0  0
 36 34  1  0  0  0  0
 36 35  1  0  0  0  0
 37 38  1  0  0  0  0
 39 38  1  0  0  0  0
 40 39  3  0  0  0  0
M  END
>  <MODEL>
4

>  <REMARK>
 VINA RESULT:      -5.5      3.411      9.073
  Name = 
  18 active torsions:
  status: ('A' for Active; 'I' for Inactive)
    1  A    between atoms: C_1  and  C_25
    2  A    between atoms: C_2  and  C_8
    3  A    between atoms: C_4  and  C_32
    4  A    between atoms: C_6  and  C_8
    5  A    between atoms: C_6  and  C_40
    6  A    between atoms: C_10  and  C_38
    7  A    between atoms: C_11  and  C_28
    8  A    between atoms: C_11  and  C_32
    9  A    between atoms: C_12  and  C_24
   10  A    between atoms: C_16  and  S_26
   11  A    between atoms: C_17  and  N_23
   12  A    between atoms: N_21  and  N_23
   13  A    between atoms: N_21  and  C_40
   14  A    between atoms: C_25  and  C_38
   15  A    between atoms: S_26  and  C_36
   16  A    between atoms: C_27  and  C_36
   17  A    between atoms: C_29  and  C_40
   18  A    between atoms: C_30  and  C_36
                            x       y       z     vdW  Elec       q    Type
                         _______ _______ _______ _____ _____    ______ ____

>  <TORSDO>
F 18

$$$$
=
 OpenBabel11072409303D

 40 43  0  0  1  0  0  0  0  0999 V2000
  188.7570  177.2910  142.6320 C   0  0  0  0  0  0  0  0  0  0  0  0
  188.9180  178.3210  141.9910 O   0  0  0  0  0  0  0  0  0  0  0  0
  188.1460  176.0840  141.9800 C   0  0  2  0  0  3  0  0  0  0  0  0
  186.6340  176.1560  142.0760 C   0  0  0  0  0  1  0  0  0  0  0  0
  188.6260  174.8140  142.6220 C   0  0  0  0  0  3  0  0  0  0  0  0
  188.7910  173.6650  141.9540 C   0  0  0  0  0  3  0  0  0  0  0  0
  188.5120  173.5180  140.4910 C   0  0  0  0  0  2  0  0  0  0  0  0
  189.4370  172.4700  139.8920 C   0  0  0  0  0  2  0  0  0  0  0  0
  190.8050  170.0220  140.3070 O   0  0  0  0  0  1  0  0  0  0  0  0
  191.8740  172.9340  139.7220 N   0  0  0  0  0  2  0  0  0  0  0  0
  191.2690  171.0680  141.1090 C   0  0  1  0  0  3  0  0  0  0  0  0
  193.0250  172.1720  140.0170 C   0  0  0  0  0  0  0  0  0  0  0  0
  192.8010  171.1080  141.0330 C   0  0  1  0  0  3  0  0  0  0  0  0
  190.8080  172.4320  140.5690 C   0  0  2  0  0  3  0  0  0  0  0  0
  194.1290  172.3730  139.4470 O   0  0  0  0  0  0  0  0  0  0  0  0
  193.4000  171.5380  142.3820 C   0  0  2  0  0  3  0  0  0  0  0  0
  194.6470  170.7760  142.7000 C   0  0  0  0  0  0  0  0  0  0  0  0
  195.9020  171.4440  142.6870 N   0  0  0  0  0  1  0  0  0  0  0  0
  194.5940  169.5510  142.9860 O   0  0  0  0  0  0  0  0  0  0  0  0
  192.2130  171.3480  143.7550 S   0  0  0  0  0  0  0  0  0  0  0  0
  193.8540  173.0450  145.5580 C   0  0  0  0  0  3  0  0  0  0  0  0
  193.1900  172.3550  144.8260 C   0  0  0  0  0  0  0  0  0  0  0  0
  189.2610  177.1860  144.0490 C   0  0  2  0  0  3  0  0  0  0  0  0
  187.1160  177.3050  147.2910 C   0  0  0  0  0  2  0  0  0  0  0  0
  186.0530  177.3300  146.2190 C   0  0  0  0  0  0  0  0  0  0  0  0
  188.1990  176.9110  146.3510 C   0  0  2  0  0  0  0  0  0  0  0  0
  188.2790  177.7540  145.0820 C   0  0  2  0  0  3  0  0  0  0  0  0
  187.1330  176.7950  145.3000 C   0  0  2  0  0  3  0  0  0  0  0  0
  184.7430  177.5440  146.1540 C   0  0  0  0  0  2  0  0  0  0  0  0
  188.8110  175.5230  146.4820 C   0  0  0  0  0  2  0  0  0  0  0  0
  190.0030  175.6010  147.2000 O   0  0  0  0  0  1  0  0  0  0  0  0
  190.5920  177.7800  144.1840 N   0  0  0  0  0  2  0  0  0  0  0  0
  191.5430  176.7520  144.2900 N   0  0  0  0  0  2  0  0  0  0  0  0
  193.4250  175.7620  143.1470 C   0  0  1  0  0  3  0  0  0  0  0  0
  192.2340  176.6890  143.0160 C   0  0  1  0  0  3  0  0  0  0  0  0
  192.1610  175.2770  142.4710 C   0  0  0  0  0  2  0  0  0  0  0  0
  194.4510  176.1250  142.0940 C   0  0  0  0  0  2  0  0  0  0  0  0
  195.4770  175.0150  141.9830 C   0  0  0  0  0  2  0  0  0  0  0  0
  196.2320  174.9200  143.2320 C   0  0  0  0  0  0  0  0  0  0  0  0
  196.8290  174.8440  144.2210 N   0  0  0  0  0  0  0  0  0  0  0  0
  2  1  2  0  0  0  0
  3  4  1  1  0  0  0
  3  5  1  0  0  0  0
  3  1  1  0  0  0  0
  6  5  2  0  0  0  0
  7  6  1  0  0  0  0
  8  7  1  0  0  0  0
 10 12  1  0  0  0  0
 10 14  1  0  0  0  0
 11  9  1  6  0  0  0
 12 13  1  0  0  0  0
 13 11  1  0  0  0  0
 13 16  1  1  0  0  0
 14  8  1  6  0  0  0
 14 11  1  0  0  0  0
 15 12  2  0  0  0  0
 16 17  1  1  0  0  0
 16 20  1  0  0  0  0
 17 19  2  0  0  0  0
 18 17  1  0  0  0  0
 20 22  1  0  0  0  0
 22 21  3  0  0  0  0
 23  1  1  6  0  0  0
 23 32  1  0  0  0  0
 25 24  1  0  0  0  0
 26 30  1  1  0  0  0
 26 24  1  0  0  0  0
 27 23  1  6  0  0  0
 27 28  1  0  0  0  0
 27 26  1  0  0  0  0
 28 25  1  1  0  0  0
 28 26  1  0  0  0  0
 29 25  2  0  0  0  0
 30 31  1  0  0  0  0
 32 33  1  0  0  0  0
 34 37  1  6  0  0  0
 35 34  1  0  0  0  0
 35 33  1  1  0  0  0
 36 35  1  0  0  0  0
 36 34  1  0  0  0  0
 38 37  1  0  0  0  0
 38 39  1  0  0  0  0
 39 40  3  0  0  0  0
M  END
>  <MODEL>
5

>  <REMARK>
 VINA RESULT:      -5.5      2.950      5.377
  Name = 
  18 active torsions:
  status: ('A' for Active; 'I' for Inactive)
    1  A    between atoms: C_1  and  C_25
    2  A    between atoms: C_2  and  C_8
    3  A    between atoms: C_4  and  C_32
    4  A    between atoms: C_6  and  C_8
    5  A    between atoms: C_6  and  C_40
    6  A    between atoms: C_10  and  C_38
    7  A    between atoms: C_11  and  C_28
    8  A    between atoms: C_11  and  C_32
    9  A    between atoms: C_12  and  C_24
   10  A    between atoms: C_16  and  S_26
   11  A    between atoms: C_17  and  N_23
   12  A    between atoms: N_21  and  N_23
   13  A    between atoms: N_21  and  C_40
   14  A    between atoms: C_25  and  C_38
   15  A    between atoms: S_26  and  C_36
   16  A    between atoms: C_27  and  C_36
   17  A    between atoms: C_29  and  C_40
   18  A    between atoms: C_30  and  C_36
                            x       y       z     vdW  Elec       q    Type
                         _______ _______ _______ _____ _____    ______ ____

>  <TORSDO>
F 18

$$$$
=
 OpenBabel11072409303D

 40 43  0  0  1  0  0  0  0  0999 V2000
  189.1230  176.5190  145.8510 C   0  0  0  0  0  0  0  0  0  0  0  0
  188.8340  177.5120  146.5060 O   0  0  0  0  0  0  0  0  0  0  0  0
  189.9830  175.4440  146.4520 C   0  0  2  0  0  3  0  0  0  0  0  0
  189.1550  174.5840  147.3870 C   0  0  0  0  0  1  0  0  0  0  0  0
  191.1400  176.0300  147.2090 C   0  0  0  0  0  3  0  0  0  0  0  0
  192.2480  176.5000  146.6190 C   0  0  0  0  0  3  0  0  0  0  0  0
  192.4560  176.4890  145.1370 C   0  0  0  0  0  2  0  0  0  0  0  0
  193.9430  176.4140  144.8260 C   0  0  0  0  0  2  0  0  0  0  0  0
  195.9700  175.4080  143.1190 O   0  0  0  0  0  1  0  0  0  0  0  0
  195.3850  174.9100  146.1800 N   0  0  0  0  0  2  0  0  0  0  0  0
  195.2920  174.4160  143.8310 C   0  0  1  0  0  3  0  0  0  0  0  0
  196.4100  173.9970  145.8480 C   0  0  0  0  0  0  0  0  0  0  0  0
  196.3210  173.4670  144.4600 C   0  0  1  0  0  3  0  0  0  0  0  0
  194.5200  175.0120  145.0200 C   0  0  2  0  0  3  0  0  0  0  0  0
  197.3220  173.6870  146.6580 O   0  0  0  0  0  0  0  0  0  0  0  0
  195.7870  172.0250  144.4840 C   0  0  2  0  0  3  0  0  0  0  0  0
  196.8310  171.0580  144.9440 C   0  0  0  0  0  0  0  0  0  0  0  0
  196.5610  170.2070  146.0510 N   0  0  0  0  0  1  0  0  0  0  0  0
  197.9410  170.9850  144.3550 O   0  0  0  0  0  0  0  0  0  0  0  0
  195.1550  171.4990  142.8560 S   0  0  0  0  0  0  0  0  0  0  0  0
  192.7060  170.3290  144.0640 C   0  0  0  0  0  3  0  0  0  0  0  0
  193.7000  170.8020  143.5720 C   0  0  0  0  0  0  0  0  0  0  0  0
  188.5390  176.3130  144.4760 C   0  0  2  0  0  3  0  0  0  0  0  0
  185.1340  177.7380  143.2500 C   0  0  0  0  0  2  0  0  0  0  0  0
  185.1950  178.2620  144.6650 C   0  0  0  0  0  0  0  0  0  0  0  0
  186.5680  177.3420  143.2280 C   0  0  2  0  0  0  0  0  0  0  0  0
  187.0190  176.5180  144.4300 C   0  0  2  0  0  3  0  0  0  0  0  0
  186.6810  177.9820  144.5810 C   0  0  2  0  0  3  0  0  0  0  0  0
  184.3670  178.8590  145.5160 C   0  0  0  0  0  2  0  0  0  0  0  0
  187.5230  178.1040  142.3220 C   0  0  0  0  0  2  0  0  0  0  0  0
  187.6400  177.4440  141.1000 O   0  0  0  0  0  1  0  0  0  0  0  0
  188.9270  175.0140  143.9240 N   0  0  0  0  0  2  0  0  0  0  0  0
  189.6510  175.2190  142.7390 N   0  0  0  0  0  2  0  0  0  0  0  0
  191.4890  174.1810  141.5660 C   0  0  1  0  0  3  0  0  0  0  0  0
  190.2310  173.9400  142.3750 C   0  0  1  0  0  3  0  0  0  0  0  0
  191.5920  173.7990  143.0260 C   0  0  0  0  0  2  0  0  0  0  0  0
  191.7640  172.9640  140.7070 C   0  0  0  0  0  2  0  0  0  0  0  0
  191.8640  173.3820  139.2540 C   0  0  0  0  0  2  0  0  0  0  0  0
  190.5220  173.6010  138.7150 C   0  0  0  0  0  0  0  0  0  0  0  0
  189.4600  173.7750  138.2880 N   0  0  0  0  0  0  0  0  0  0  0  0
  1  3  1  0  0  0  0
  1  2  2  0  0  0  0
  3  5  1  0  0  0  0
  3  4  1  1  0  0  0
  6  5  2  0  0  0  0
  7  6  1  0  0  0  0
  8  7  1  0  0  0  0
 11  9  1  1  0  0  0
 11 13  1  0  0  0  0
 11 14  1  0  0  0  0
 12 10  1  0  0  0  0
 12 15  2  0  0  0  0
 13 16  1  1  0  0  0
 13 12  1  0  0  0  0
 14  8  1  6  0  0  0
 14 10  1  0  0  0  0
 16 20  1  6  0  0  0
 16 17  1  0  0  0  0
 17 18  1  0  0  0  0
 19 17  2  0  0  0  0
 20 22  1  0  0  0  0
 22 21  3  0  0  0  0
 23 32  1  1  0  0  0
 23  1  1  0  0  0  0
 24 25  1  0  0  0  0
 25 29  2  0  0  0  0
 26 30  1  6  0  0  0
 26 24  1  0  0  0  0
 26 27  1  0  0  0  0
 26 28  1  0  0  0  0
 27 23  1  6  0  0  0
 27 28  1  0  0  0  0
 28 25  1  1  0  0  0
 31 30  1  0  0  0  0
 33 32  1  0  0  0  0
 34 37  1  6  0  0  0
 34 35  1  0  0  0  0
 34 36  1  0  0  0  0
 35 33  1  1  0  0  0
 35 36  1  0  0  0  0
 38 37  1  0  0  0  0
 39 38  1  0  0  0  0
 40 39  3  0  0  0  0
M  END
>  <MODEL>
6

>  <REMARK>
 VINA RESULT:      -5.4      2.251      3.367
  Name = 
  18 active torsions:
  status: ('A' for Active; 'I' for Inactive)
    1  A    between atoms: C_1  and  C_25
    2  A    between atoms: C_2  and  C_8
    3  A    between atoms: C_4  and  C_32
    4  A    between atoms: C_6  and  C_8
    5  A    between atoms: C_6  and  C_40
    6  A    between atoms: C_10  and  C_38
    7  A    between atoms: C_11  and  C_28
    8  A    between atoms: C_11  and  C_32
    9  A    between atoms: C_12  and  C_24
   10  A    between atoms: C_16  and  S_26
   11  A    between atoms: C_17  and  N_23
   12  A    between atoms: N_21  and  N_23
   13  A    between atoms: N_21  and  C_40
   14  A    between atoms: C_25  and  C_38
   15  A    between atoms: S_26  and  C_36
   16  A    between atoms: C_27  and  C_36
   17  A    between atoms: C_29  and  C_40
   18  A    between atoms: C_30  and  C_36
                            x       y       z     vdW  Elec       q    Type
                         _______ _______ _______ _____ _____    ______ ____

>  <TORSDO>
F 18

$$$$
=
 OpenBabel11072409303D

 40 43  0  0  1  0  0  0  0  0999 V2000
  189.9880  177.5500  144.4850 C   0  0  0  0  0  0  0  0  0  0  0  0
  190.7810  178.4560  144.2690 O   0  0  0  0  0  0  0  0  0  0  0  0
  190.0980  176.7350  145.7410 C   0  0  2  0  0  3  0  0  0  0  0  0
  189.6770  177.5680  146.9360 C   0  0  0  0  0  1  0  0  0  0  0  0
  191.5020  176.2400  145.9490 C   0  0  0  0  0  3  0  0  0  0  0  0
  191.8780  174.9720  145.7330 C   0  0  0  0  0  3  0  0  0  0  0  0
  190.9390  173.9060  145.2630 C   0  0  0  0  0  2  0  0  0  0  0  0
  191.5810  173.1150  144.1330 C   0  0  0  0  0  2  0  0  0  0  0  0
  193.8500  171.7610  143.1050 O   0  0  0  0  0  1  0  0  0  0  0  0
  192.3540  174.3630  142.1270 N   0  0  0  0  0  2  0  0  0  0  0  0
  194.0520  173.1300  143.2970 C   0  0  1  0  0  3  0  0  0  0  0  0
  193.5170  174.2840  141.3290 C   0  0  0  0  0  0  0  0  0  0  0  0
  194.6970  173.7170  142.0350 C   0  0  1  0  0  3  0  0  0  0  0  0
  192.7150  173.8760  143.4450 C   0  0  2  0  0  3  0  0  0  0  0  0
  193.5300  174.6460  140.1230 O   0  0  0  0  0  0  0  0  0  0  0  0
  195.6790  174.8430  142.4010 C   0  0  2  0  0  3  0  0  0  0  0  0
  196.7910  174.9500  141.4070 C   0  0  0  0  0  0  0  0  0  0  0  0
  196.7980  176.0240  140.4740 N   0  0  0  0  0  1  0  0  0  0  0  0
  197.7220  174.1030  141.3930 O   0  0  0  0  0  0  0  0  0  0  0  0
  196.3840  174.6260  144.0700 S   0  0  0  0  0  0  0  0  0  0  0  0
  195.0480  177.0800  145.0780 C   0  0  0  0  0  3  0  0  0  0  0  0
  195.5900  176.0850  144.6670 C   0  0  0  0  0  0  0  0  0  0  0  0
  188.8300  177.3080  143.5490 C   0  0  2  0  0  3  0  0  0  0  0  0
  185.0490  177.4950  144.4410 C   0  0  0  0  0  2  0  0  0  0  0  0
  185.6910  177.9480  145.7300 C   0  0  0  0  0  0  0  0  0  0  0  0
  186.3030  177.6290  143.6520 C   0  0  2  0  0  0  0  0  0  0  0  0
  187.5250  176.9680  144.2800 C   0  0  2  0  0  3  0  0  0  0  0  0
  186.9230  178.2120  144.8880 C   0  0  2  0  0  3  0  0  0  0  0  0
  185.3030  178.1800  146.9800 C   0  0  0  0  0  2  0  0  0  0  0  0
  186.3850  178.7150  142.5890 C   0  0  0  0  0  2  0  0  0  0  0  0
  186.3330  178.1380  141.3210 O   0  0  0  0  0  1  0  0  0  0  0  0
  189.1640  176.3000  142.5410 N   0  0  0  0  0  2  0  0  0  0  0  0
  188.5780  175.0780  142.9050 N   0  0  0  0  0  2  0  0  0  0  0  0
  188.9500  173.1490  141.5010 C   0  0  1  0  0  3  0  0  0  0  0  0
  188.1600  174.4310  141.6760 C   0  0  1  0  0  3  0  0  0  0  0  0
  187.5230  173.0950  142.0000 C   0  0  0  0  0  2  0  0  0  0  0  0
  188.9820  172.7880  140.0310 C   0  0  0  0  0  2  0  0  0  0  0  0
  190.2380  173.3520  139.3970 C   0  0  0  0  0  2  0  0  0  0  0  0
  191.0840  172.2550  138.9270 C   0  0  0  0  0  0  0  0  0  0  0  0
  191.7540  171.3880  138.5550 N   0  0  0  0  0  0  0  0  0  0  0  0
  1  3  1  0  0  0  0
  2  1  2  0  0  0  0
  3  5  1  0  0  0  0
  3  4  1  1  0  0  0
  6  5  2  0  0  0  0
  7  6  1  0  0  0  0
  8  7  1  0  0  0  0
 10 14  1  0  0  0  0
 11  9  1  6  0  0  0
 11 14  1  0  0  0  0
 12 13  1  0  0  0  0
 12 10  1  0  0  0  0
 13 16  1  1  0  0  0
 13 11  1  0  0  0  0
 14  8  1  6  0  0  0
 15 12  2  0  0  0  0
 16 17  1  6  0  0  0
 16 20  1  0  0  0  0
 18 17  1  0  0  0  0
 19 17  2  0  0  0  0
 20 22  1  0  0  0  0
 22 21  3  0  0  0  0
 23 32  1  6  0  0  0
 23  1  1  0  0  0  0
 24 25  1  0  0  0  0
 25 29  2  0  0  0  0
 26 30  1  6  0  0  0
 26 27  1  0  0  0  0
 26 24  1  0  0  0  0
 26 28  1  0  0  0  0
 27 23  1  6  0  0  0
 27 28  1  0  0  0  0
 28 25  1  1  0  0  0
 31 30  1  0  0  0  0
 32 33  1  0  0  0  0
 34 37  1  6  0  0  0
 34 35  1  0  0  0  0
 34 36  1  0  0  0  0
 35 36  1  0  0  0  0
 35 33  1  1  0  0  0
 38 37  1  0  0  0  0
 39 38  1  0  0  0  0
 40 39  3  0  0  0  0
M  END
>  <MODEL>
7

>  <REMARK>
 VINA RESULT:      -5.4      1.989      2.770
  Name = 
  18 active torsions:
  status: ('A' for Active; 'I' for Inactive)
    1  A    between atoms: C_1  and  C_25
    2  A    between atoms: C_2  and  C_8
    3  A    between atoms: C_4  and  C_32
    4  A    between atoms: C_6  and  C_8
    5  A    between atoms: C_6  and  C_40
    6  A    between atoms: C_10  and  C_38
    7  A    between atoms: C_11  and  C_28
    8  A    between atoms: C_11  and  C_32
    9  A    between atoms: C_12  and  C_24
   10  A    between atoms: C_16  and  S_26
   11  A    between atoms: C_17  and  N_23
   12  A    between atoms: N_21  and  N_23
   13  A    between atoms: N_21  and  C_40
   14  A    between atoms: C_25  and  C_38
   15  A    between atoms: S_26  and  C_36
   16  A    between atoms: C_27  and  C_36
   17  A    between atoms: C_29  and  C_40
   18  A    between atoms: C_30  and  C_36
                            x       y       z     vdW  Elec       q    Type
                         _______ _______ _______ _____ _____    ______ ____

>  <TORSDO>
F 18

$$$$
=
 OpenBabel11072409303D

 40 43  0  0  1  0  0  0  0  0999 V2000
  195.8630  173.9820  143.2400 C   0  0  0  0  0  0  0  0  0  0  0  0
  197.0610  173.8350  143.0410 O   0  0  0  0  0  0  0  0  0  0  0  0
  195.3400  175.2890  143.7620 C   0  0  2  0  0  3  0  0  0  0  0  0
  195.9540  176.4380  142.9850 C   0  0  0  0  0  1  0  0  0  0  0  0
  195.6470  175.4560  145.2230 C   0  0  0  0  0  3  0  0  0  0  0  0
  194.7440  175.2680  146.1950 C   0  0  0  0  0  3  0  0  0  0  0  0
  193.3250  174.8730  145.9310 C   0  0  0  0  0  2  0  0  0  0  0  0
  192.3900  175.9960  146.3540 C   0  0  0  0  0  2  0  0  0  0  0  0
  191.5300  177.3070  143.9920 O   0  0  0  0  0  1  0  0  0  0  0  0
  190.7430  174.5120  145.2310 N   0  0  0  0  0  2  0  0  0  0  0  0
  190.4810  176.8610  144.8010 C   0  0  1  0  0  3  0  0  0  0  0  0
  189.8540  174.6980  144.1500 C   0  0  0  0  0  0  0  0  0  0  0  0
  189.4630  176.1170  143.9280 C   0  0  1  0  0  3  0  0  0  0  0  0
  190.9680  175.8180  145.8220 C   0  0  2  0  0  3  0  0  0  0  0  0
  189.4550  173.7420  143.4350 O   0  0  0  0  0  0  0  0  0  0  0  0
  188.0320  176.3520  144.4410 C   0  0  2  0  0  3  0  0  0  0  0  0
  187.1260  176.8250  143.3500 C   0  0  0  0  0  0  0  0  0  0  0  0
  187.1880  178.1810  142.9240 N   0  0  0  0  0  1  0  0  0  0  0  0
  186.3150  176.0340  142.8010 O   0  0  0  0  0  0  0  0  0  0  0  0
  187.9840  177.5430  145.8220 S   0  0  0  0  0  0  0  0  0  0  0  0
  185.1930  176.8000  146.5160 C   0  0  0  0  0  3  0  0  0  0  0  0
  186.3250  177.1000  146.2320 C   0  0  0  0  0  0  0  0  0  0  0  0
  194.8870  172.8940  142.8690 C   0  0  2  0  0  3  0  0  0  0  0  0
  194.3720  169.6950  145.0210 C   0  0  0  0  0  2  0  0  0  0  0  0
  195.5400  170.3500  145.7190 C   0  0  0  0  0  0  0  0  0  0  0  0
  194.0410  170.9050  144.2230 C   0  0  2  0  0  0  0  0  0  0  0  0
  195.2270  171.5380  143.5020 C   0  0  2  0  0  3  0  0  0  0  0  0
  195.1070  171.6140  145.0050 C   0  0  2  0  0  3  0  0  0  0  0  0
  196.4200  170.0200  146.6590 C   0  0  0  0  0  2  0  0  0  0  0  0
  192.7430  171.6430  144.5190 C   0  0  0  0  0  2  0  0  0  0  0  0
  191.7470  171.2110  143.6450 O   0  0  0  0  0  1  0  0  0  0  0  0
  194.7340  172.7900  141.4170 N   0  0  0  0  0  2  0  0  0  0  0  0
  193.5930  173.5090  141.0250 N   0  0  0  0  0  2  0  0  0  0  0  0
  191.2880  173.1960  140.3790 C   0  0  1  0  0  3  0  0  0  0  0  0
  192.6500  172.5420  140.4970 C   0  0  1  0  0  3  0  0  0  0  0  0
  192.1480  173.0120  139.1470 C   0  0  0  0  0  2  0  0  0  0  0  0
  190.2210  172.1220  140.4120 C   0  0  0  0  0  2  0  0  0  0  0  0
  189.0410  172.5540  139.5650 C   0  0  0  0  0  2  0  0  0  0  0  0
  188.5790  173.8700  140.0050 C   0  0  0  0  0  0  0  0  0  0  0  0
  188.2130  174.9120  140.3530 N   0  0  0  0  0  0  0  0  0  0  0  0
  1  3  1  0  0  0  0
  2  1  2  0  0  0  0
  3  4  1  6  0  0  0
  3  5  1  0  0  0  0
  5  6  2  0  0  0  0
  7  6  1  0  0  0  0
  7  8  1  0  0  0  0
 10 14  1  0  0  0  0
 11  9  1  6  0  0  0
 11 14  1  0  0  0  0
 12 10  1  0  0  0  0
 13 12  1  0  0  0  0
 13 16  1  1  0  0  0
 13 11  1  0  0  0  0
 14  8  1  6  0  0  0
 15 12  2  0  0  0  0
 16 17  1  6  0  0  0
 16 20  1  0  0  0  0
 18 17  1  0  0  0  0
 19 17  2  0  0  0  0
 20 22  1  0  0  0  0
 22 21  3  0  0  0  0
 23 32  1  6  0  0  0
 23  1  1  0  0  0  0
 24 25  1  0  0  0  0
 25 29  2  0  0  0  0
 26 30  1  6  0  0  0
 26 28  1  0  0  0  0
 26 24  1  0  0  0  0
 27 23  1  6  0  0  0
 27 26  1  0  0  0  0
 27 28  1  0  0  0  0
 28 25  1  1  0  0  0
 31 30  1  0  0  0  0
 33 32  1  0  0  0  0
 34 37  1  6  0  0  0
 34 35  1  0  0  0  0
 35 33  1  1  0  0  0
 36 34  1  0  0  0  0
 36 35  1  0  0  0  0
 38 39  1  0  0  0  0
 38 37  1  0  0  0  0
 39 40  3  0  0  0  0
M  END
>  <MODEL>
8

>  <REMARK>
 VINA RESULT:      -5.3      2.770      7.587
  Name = 
  18 active torsions:
  status: ('A' for Active; 'I' for Inactive)
    1  A    between atoms: C_1  and  C_25
    2  A    between atoms: C_2  and  C_8
    3  A    between atoms: C_4  and  C_32
    4  A    between atoms: C_6  and  C_8
    5  A    between atoms: C_6  and  C_40
    6  A    between atoms: C_10  and  C_38
    7  A    between atoms: C_11  and  C_28
    8  A    between atoms: C_11  and  C_32
    9  A    between atoms: C_12  and  C_24
   10  A    between atoms: C_16  and  S_26
   11  A    between atoms: C_17  and  N_23
   12  A    between atoms: N_21  and  N_23
   13  A    between atoms: N_21  and  C_40
   14  A    between atoms: C_25  and  C_38
   15  A    between atoms: S_26  and  C_36
   16  A    between atoms: C_27  and  C_36
   17  A    between atoms: C_29  and  C_40
   18  A    between atoms: C_30  and  C_36
                            x       y       z     vdW  Elec       q    Type
                         _______ _______ _______ _____ _____    ______ ____

>  <TORSDO>
F 18

$$$$
=
 OpenBabel11072409303D

 40 43  0  0  1  0  0  0  0  0999 V2000
  189.3960  177.1040  146.4330 C   0  0  0  0  0  0  0  0  0  0  0  0
  189.2200  177.9820  147.2660 O   0  0  0  0  0  0  0  0  0  0  0  0
  190.1600  175.8620  146.7950 C   0  0  2  0  0  3  0  0  0  0  0  0
  189.2000  174.7860  147.2660 C   0  0  0  0  0  1  0  0  0  0  0  0
  191.1680  176.1370  147.8750 C   0  0  0  0  0  3  0  0  0  0  0  0
  192.4620  176.3840  147.6320 C   0  0  0  0  0  3  0  0  0  0  0  0
  193.0480  176.4100  146.2550 C   0  0  0  0  0  2  0  0  0  0  0  0
  193.2230  174.9890  145.7420 C   0  0  0  0  0  2  0  0  0  0  0  0
  193.1380  175.2030  142.9160 O   0  0  0  0  0  1  0  0  0  0  0  0
  195.3960  175.9380  144.9970 N   0  0  0  0  0  2  0  0  0  0  0  0
  194.2730  174.5430  143.3960 C   0  0  1  0  0  3  0  0  0  0  0  0
  195.9990  176.0930  143.7290 C   0  0  0  0  0  0  0  0  0  0  0  0
  195.5140  175.1250  142.7080 C   0  0  1  0  0  3  0  0  0  0  0  0
  194.4840  174.8150  144.8950 C   0  0  2  0  0  3  0  0  0  0  0  0
  196.8530  176.9870  143.4960 O   0  0  0  0  0  0  0  0  0  0  0  0
  196.5710  174.0330  142.4780 C   0  0  2  0  0  3  0  0  0  0  0  0
  197.1700  174.1240  141.1110 C   0  0  0  0  0  0  0  0  0  0  0  0
  197.8500  175.3110  140.7200 N   0  0  0  0  0  1  0  0  0  0  0  0
  197.0850  173.1590  140.3070 O   0  0  0  0  0  0  0  0  0  0  0  0
  195.8930  172.3570  142.7260 S   0  0  0  0  0  0  0  0  0  0  0  0
  197.2050  172.0970  145.3790 C   0  0  0  0  0  3  0  0  0  0  0  0
  196.6750  172.2030  144.3020 C   0  0  0  0  0  0  0  0  0  0  0  0
  188.7640  177.2070  145.0670 C   0  0  2  0  0  3  0  0  0  0  0  0
  185.0320  177.5590  144.0300 C   0  0  0  0  0  2  0  0  0  0  0  0
  184.9950  178.0140  145.4700 C   0  0  0  0  0  0  0  0  0  0  0  0
  186.5150  177.6280  143.9410 C   0  0  2  0  0  0  0  0  0  0  0  0
  187.2540  176.9330  145.0800 C   0  0  2  0  0  3  0  0  0  0  0  0
  186.4900  178.2120  145.3240 C   0  0  2  0  0  3  0  0  0  0  0  0
  184.0640  178.2870  146.3780 C   0  0  0  0  0  2  0  0  0  0  0  0
  187.1460  178.6880  143.0490 C   0  0  0  0  0  2  0  0  0  0  0  0
  187.4900  178.1250  141.8220 O   0  0  0  0  0  1  0  0  0  0  0  0
  189.4590  176.3620  144.0950 N   0  0  0  0  0  2  0  0  0  0  0  0
  188.6210  175.2940  143.7360 N   0  0  0  0  0  2  0  0  0  0  0  0
  188.7580  173.6210  142.0010 C   0  0  1  0  0  3  0  0  0  0  0  0
  189.4730  174.2640  143.1720 C   0  0  1  0  0  3  0  0  0  0  0  0
  189.8480  174.6410  141.7540 C   0  0  0  0  0  2  0  0  0  0  0  0
  189.3160  172.2280  141.7890 C   0  0  0  0  0  2  0  0  0  0  0  0
  190.4330  172.2800  140.7670 C   0  0  0  0  0  2  0  0  0  0  0  0
  190.0370  171.5390  139.5700 C   0  0  0  0  0  0  0  0  0  0  0  0
  189.7220  170.9520  138.6230 N   0  0  0  0  0  0  0  0  0  0  0  0
  1  3  1  0  0  0  0
  1  2  2  0  0  0  0
  3  4  1  1  0  0  0
  3  5  1  0  0  0  0
  6  5  2  0  0  0  0
  7  6  1  0  0  0  0
  8  7  1  0  0  0  0
 11  9  1  6  0  0  0
 11 14  1  0  0  0  0
 12 10  1  0  0  0  0
 13 16  1  1  0  0  0
 13 11  1  0  0  0  0
 13 12  1  0  0  0  0
 14 10  1  0  0  0  0
 14  8  1  6  0  0  0
 15 12  2  0  0  0  0
 16 17  1  6  0  0  0
 16 20  1  0  0  0  0
 18 17  1  0  0  0  0
 19 17  2  0  0  0  0
 20 22  1  0  0  0  0
 22 21  3  0  0  0  0
 23 32  1  6  0  0  0
 23  1  1  0  0  0  0
 24 25  1  0  0  0  0
 25 29  2  0  0  0  0
 26 30  1  6  0  0  0
 26 24  1  0  0  0  0
 26 27  1  0  0  0  0
 26 28  1  0  0  0  0
 27 23  1  6  0  0  0
 27 28  1  0  0  0  0
 28 25  1  1  0  0  0
 31 30  1  0  0  0  0
 33 32  1  0  0  0  0
 34 37  1  6  0  0  0
 34 35  1  0  0  0  0
 35 33  1  1  0  0  0
 36 34  1  0  0  0  0
 36 35  1  0  0  0  0
 38 37  1  0  0  0  0
 39 38  1  0  0  0  0
 40 39  3  0  0  0  0
M  END
>  <MODEL>
9

>  <REMARK>
 VINA RESULT:      -5.3      2.181      3.046
  Name = 
  18 active torsions:
  status: ('A' for Active; 'I' for Inactive)
    1  A    between atoms: C_1  and  C_25
    2  A    between atoms: C_2  and  C_8
    3  A    between atoms: C_4  and  C_32
    4  A    between atoms: C_6  and  C_8
    5  A    between atoms: C_6  and  C_40
    6  A    between atoms: C_10  and  C_38
    7  A    between atoms: C_11  and  C_28
    8  A    between atoms: C_11  and  C_32
    9  A    between atoms: C_12  and  C_24
   10  A    between atoms: C_16  and  S_26
   11  A    between atoms: C_17  and  N_23
   12  A    between atoms: N_21  and  N_23
   13  A    between atoms: N_21  and  C_40
   14  A    between atoms: C_25  and  C_38
   15  A    between atoms: S_26  and  C_36
   16  A    between atoms: C_27  and  C_36
   17  A    between atoms: C_29  and  C_40
   18  A    between atoms: C_30  and  C_36
                            x       y       z     vdW  Elec       q    Type
                         _______ _______ _______ _____ _____    ______ ____

>  <TORSDO>
F 18

$$$$
