=
 OpenBabel11062419073D

 32 37  0  0  1  0  0  0  0  0999 V2000
  188.1830  173.7550  138.3990 C   0  0  0  0  0  1  0  0  0  0  0  0
  188.1570  175.8680  145.3810 N   0  0  1  0  0  0  0  0  0  0  0  0
  190.4270  175.2390  147.1720 O   0  0  0  0  0  0  0  0  0  0  0  0
  189.4870  173.4610  139.0640 C   0  0  0  0  0  3  0  0  0  0  0  0
  192.1430  173.0650  139.8190 N   0  0  0  0  0  2  0  0  0  0  0  0
  193.3420  172.4560  140.4230 C   0  0  0  0  0  2  0  0  0  0  0  0
  188.6020  177.1740  145.8080 C   0  0  2  0  0  0  0  0  0  0  0  0
  191.1360  173.3020  140.8640 C   0  0  2  0  0  3  0  0  0  0  0  0
  196.1830  174.5670  145.9290 O   0  0  0  0  0  0  0  0  0  0  0  0
  194.3660  176.0460  145.9830 C   0  0  0  0  0  2  0  0  0  0  0  0
  188.0080  177.0200  144.6050 O   0  0  0  0  0  0  0  0  0  0  0  0
  194.5130  173.9290  144.4050 C   0  0  0  0  0  2  0  0  0  0  0  0
  193.2050  174.4370  143.7870 C   0  0  2  0  0  3  0  0  0  0  0  0
  189.6260  175.2470  143.4920 C   0  0  0  0  0  2  0  0  0  0  0  0
  192.5140  176.5270  147.6190 C   0  0  0  0  0  2  0  0  0  0  0  0
  192.1500  174.3210  144.7200 O   0  0  0  0  0  0  0  0  0  0  0  0
  190.1130  177.2470  145.8550 C   0  0  0  0  0  2  0  0  0  0  0  0
  195.0860  174.8340  145.4670 C   0  0  0  0  0  0  0  0  0  0  0  0
  188.8090  174.2090  142.7230 C   0  0  0  0  0  2  0  0  0  0  0  0
  187.3900  176.4050  140.3940 O   0  0  0  0  0  0  0  0  0  0  0  0
  191.1660  175.9950  148.1290 C   0  0  0  0  0  2  0  0  0  0  0  0
  191.9890  175.5770  145.3290 C   0  0  1  0  0  3  0  0  0  0  0  0
  189.8080  173.7960  140.3250 C   0  0  0  0  0  0  0  0  0  0  0  0
  191.7140  174.2970  141.8420 C   0  0  0  0  0  2  0  0  0  0  0  0
  193.9300  173.3400  141.5410 C   0  0  0  0  0  2  0  0  0  0  0  0
  189.3970  175.1620  145.0070 C   0  0  1  0  0  3  0  0  0  0  0  0
  188.0920  175.4730  140.8050 C   0  0  0  0  0  0  0  0  0  0  0  0
  187.8010  177.7150  146.8130 O   0  0  0  0  0  1  0  0  0  0  0  0
  190.5280  175.7810  145.8580 C   0  0  1  0  0  0  0  0  0  0  0  0
  192.9960  175.6430  146.4890 C   0  0  1  0  0  3  0  0  0  0  0  0
  188.8370  174.4880  141.2430 C   0  0  0  0  0  0  0  0  0  0  0  0
  192.8300  173.6060  142.5670 C   0  0  1  0  0  3  0  0  0  0  0  0
  1  4  1  0  0  0  0
  2 11  1  6  0  0  0
  2  7  1  0  0  0  0
  3 21  1  0  0  0  0
  4 23  2  0  0  0  0
  5  6  1  0  0  0  0
  5  8  1  0  0  0  0
  6 25  1  0  0  0  0
  7 17  1  0  0  0  0
  7 28  1  1  0  0  0
  8 24  1  1  0  0  0
 11  7  1  0  0  0  0
 12 18  1  0  0  0  0
 13 12  1  1  0  0  0
 13 16  1  0  0  0  0
 15 21  1  0  0  0  0
 18  9  2  0  0  0  0
 18 10  1  0  0  0  0
 19 14  1  0  0  0  0
 20 27  2  0  0  0  0
 22 16  1  1  0  0  0
 22 29  1  0  0  0  0
 22 30  1  0  0  0  0
 23  8  1  0  0  0  0
 23 31  1  0  0  0  0
 24 32  1  0  0  0  0
 26 14  1  6  0  0  0
 26  2  1  0  0  0  0
 26 29  1  0  0  0  0
 27 31  2  0  0  0  0
 29 17  1  1  0  0  0
 29  3  1  0  0  0  0
 30 10  1  6  0  0  0
 30 15  1  0  0  0  0
 31 19  1  0  0  0  0
 32 25  1  6  0  0  0
 32 13  1  0  0  0  0
M  END
>  <MODEL>
1

>  <REMARK>
 VINA RESULT:      -8.2      0.000      0.000
  Name = 
  0 active torsions:
  status: ('A' for Active; 'I' for Inactive)
                            x       y       z     vdW  Elec       q    Type
                         _______ _______ _______ _____ _____    ______ ____

>  <TORSDO>
F 0

$$$$
=
 OpenBabel11062419073D

 32 37  0  0  1  0  0  0  0  0999 V2000
  189.6340  170.3600  137.6820 C   0  0  0  0  0  1  0  0  0  0  0  0
  187.0420  175.8530  141.7230 N   0  0  1  0  0  0  0  0  0  0  0  0
  188.1000  176.3810  144.4350 O   0  0  0  0  0  0  0  0  0  0  0  0
  190.4150  170.5280  138.9430 C   0  0  0  0  0  3  0  0  0  0  0  0
  192.3140  170.7220  140.9780 N   0  0  0  0  0  2  0  0  0  0  0  0
  192.9600  170.5860  142.2960 C   0  0  0  0  0  2  0  0  0  0  0  0
  187.5350  177.2060  141.6180 C   0  0  2  0  0  0  0  0  0  0  0  0
  191.0330  171.4290  141.1320 C   0  0  2  0  0  3  0  0  0  0  0  0
  193.5110  175.4310  146.6610 O   0  0  0  0  0  0  0  0  0  0  0  0
  192.2330  176.6240  145.1000 C   0  0  0  0  0  2  0  0  0  0  0  0
  187.5070  176.4090  140.5290 O   0  0  0  0  0  0  0  0  0  0  0  0
  192.5760  174.0020  145.0480 C   0  0  0  0  0  2  0  0  0  0  0  0
  191.8170  174.0410  143.7160 C   0  0  2  0  0  3  0  0  0  0  0  0
  189.0070  174.3960  141.3660 C   0  0  0  0  0  2  0  0  0  0  0  0
  190.0130  177.8090  145.1540 C   0  0  0  0  0  2  0  0  0  0  0  0
  190.4650  174.3870  143.9370 O   0  0  0  0  0  0  0  0  0  0  0  0
  188.8480  177.3660  142.3530 C   0  0  0  0  0  2  0  0  0  0  0  0
  192.8150  175.3590  145.6620 C   0  0  0  0  0  0  0  0  0  0  0  0
  188.3970  173.0710  140.9110 C   0  0  0  0  0  2  0  0  0  0  0  0
  188.6640  173.6230  137.4640 O   0  0  0  0  0  0  0  0  0  0  0  0
  188.4960  177.5650  145.1260 C   0  0  0  0  0  2  0  0  0  0  0  0
  190.3400  175.7650  143.6930 C   0  0  1  0  0  3  0  0  0  0  0  0
  190.2200  171.4970  139.8540 C   0  0  0  0  0  0  0  0  0  0  0  0
  191.3340  172.8180  141.6440 C   0  0  0  0  0  2  0  0  0  0  0  0
  193.1830  171.9550  142.9670 C   0  0  0  0  0  2  0  0  0  0  0  0
  188.1280  175.1170  142.3970 C   0  0  1  0  0  3  0  0  0  0  0  0
  188.8900  173.0870  138.5560 C   0  0  0  0  0  0  0  0  0  0  0  0
  186.5190  178.1590  141.6970 O   0  0  0  0  0  1  0  0  0  0  0  0
  188.8820  176.1470  143.2680 C   0  0  1  0  0  0  0  0  0  0  0  0
  190.7280  176.4850  144.9950 C   0  0  1  0  0  3  0  0  0  0  0  0
  189.1280  172.5220  139.7130 C   0  0  0  0  0  0  0  0  0  0  0  0
  191.8370  172.6720  143.0490 C   0  0  1  0  0  3  0  0  0  0  0  0
  1  4  1  0  0  0  0
  2 11  1  6  0  0  0
  2 26  1  0  0  0  0
  3 21  1  0  0  0  0
  4 23  2  0  0  0  0
  5  8  1  0  0  0  0
  5  6  1  0  0  0  0
  6 25  1  0  0  0  0
  7 28  1  1  0  0  0
  7  2  1  0  0  0  0
  7 17  1  0  0  0  0
  8 24  1  6  0  0  0
 10 18  1  0  0  0  0
 11  7  1  0  0  0  0
 12 18  1  0  0  0  0
 13 16  1  0  0  0  0
 13 12  1  1  0  0  0
 18  9  2  0  0  0  0
 19 14  1  0  0  0  0
 20 27  2  0  0  0  0
 21 15  1  0  0  0  0
 22 16  1  1  0  0  0
 22 30  1  0  0  0  0
 23  8  1  0  0  0  0
 25 32  1  0  0  0  0
 26 14  1  6  0  0  0
 26 29  1  0  0  0  0
 27 31  2  0  0  0  0
 29 17  1  6  0  0  0
 29 22  1  0  0  0  0
 29  3  1  0  0  0  0
 30 10  1  6  0  0  0
 30 15  1  0  0  0  0
 31 23  1  0  0  0  0
 31 19  1  0  0  0  0
 32 24  1  6  0  0  0
 32 13  1  0  0  0  0
M  END
>  <MODEL>
2

>  <REMARK>
 VINA RESULT:      -7.9      1.985      3.072
  Name = 
  0 active torsions:
  status: ('A' for Active; 'I' for Inactive)
                            x       y       z     vdW  Elec       q    Type
                         _______ _______ _______ _____ _____    ______ ____

>  <TORSDO>
F 0

$$$$
=
 OpenBabel11062419073D

 32 37  0  0  1  0  0  0  0  0999 V2000
  187.1110  175.3070  137.2990 C   0  0  0  0  0  1  0  0  0  0  0  0
  191.1800  173.6110  143.1120 N   0  0  1  0  0  0  0  0  0  0  0  0
  191.0370  175.2170  145.5930 O   0  0  0  0  0  0  0  0  0  0  0  0
  186.7650  176.1570  138.4760 C   0  0  0  0  0  3  0  0  0  0  0  0
  185.5950  177.6890  140.4930 N   0  0  0  0  0  2  0  0  0  0  0  0
  185.3730  178.7750  141.4640 C   0  0  0  0  0  2  0  0  0  0  0  0
  190.7710  172.6410  144.1010 C   0  0  2  0  0  0  0  0  0  0  0  0
  186.9060  177.0710  140.7410 C   0  0  2  0  0  3  0  0  0  0  0  0
  186.5110  178.2780  147.8900 O   0  0  0  0  0  0  0  0  0  0  0  0
  187.3300  176.1600  147.3110 C   0  0  0  0  0  2  0  0  0  0  0  0
  190.4110  172.4840  142.8090 O   0  0  0  0  0  0  0  0  0  0  0  0
  186.8100  178.0810  145.5680 C   0  0  0  0  0  2  0  0  0  0  0  0
  187.1270  177.0370  144.4910 C   0  0  2  0  0  3  0  0  0  0  0  0
  189.1040  174.7480  142.3940 C   0  0  0  0  0  2  0  0  0  0  0  0
  189.5370  174.9760  147.5690 C   0  0  0  0  0  2  0  0  0  0  0  0
  188.5020  176.7140  144.5180 O   0  0  0  0  0  0  0  0  0  0  0  0
  189.7590  173.2310  145.0580 C   0  0  0  0  0  2  0  0  0  0  0  0
  186.8630  177.5470  146.9790 C   0  0  0  0  0  0  0  0  0  0  0  0
  189.4550  175.3040  141.0150 C   0  0  0  0  0  2  0  0  0  0  0  0
  188.1880  172.6390  139.1310 O   0  0  0  0  0  0  0  0  0  0  0  0
  190.9520  174.8860  146.9780 C   0  0  0  0  0  2  0  0  0  0  0  0
  188.6410  175.5320  145.2650 C   0  0  1  0  0  3  0  0  0  0  0  0
  187.2930  176.0340  139.7060 C   0  0  0  0  0  0  0  0  0  0  0  0
  186.8710  176.4560  142.1200 C   0  0  0  0  0  2  0  0  0  0  0  0
  185.4590  178.2690  142.9180 C   0  0  0  0  0  2  0  0  0  0  0  0
  190.3030  174.7720  143.3530 C   0  0  1  0  0  3  0  0  0  0  0  0
  188.2700  173.7960  139.5630 C   0  0  0  0  0  0  0  0  0  0  0  0
  191.8250  171.8380  144.5370 O   0  0  0  0  0  1  0  0  0  0  0  0
  189.9230  174.7320  144.8500 C   0  0  1  0  0  0  0  0  0  0  0  0
  188.7190  175.9450  146.7430 C   0  0  1  0  0  3  0  0  0  0  0  0
  188.3580  175.0180  140.0230 C   0  0  0  0  0  0  0  0  0  0  0  0
  186.8120  177.5850  143.1050 C   0  0  1  0  0  3  0  0  0  0  0  0
  1  4  1  0  0  0  0
  2 11  1  6  0  0  0
  2 26  1  0  0  0  0
  2  7  1  0  0  0  0
  3 21  1  0  0  0  0
  4 23  2  0  0  0  0
  5  8  1  0  0  0  0
  5  6  1  0  0  0  0
  6 25  1  0  0  0  0
  7 28  1  1  0  0  0
  7 17  1  0  0  0  0
  8 24  1  1  0  0  0
 11  7  1  0  0  0  0
 12 18  1  0  0  0  0
 13 16  1  0  0  0  0
 13 12  1  1  0  0  0
 18 10  1  0  0  0  0
 18  9  2  0  0  0  0
 19 14  1  0  0  0  0
 20 27  2  0  0  0  0
 21 15  1  0  0  0  0
 22 16  1  6  0  0  0
 22 30  1  0  0  0  0
 23 31  1  0  0  0  0
 23  8  1  0  0  0  0
 25 32  1  0  0  0  0
 26 14  1  6  0  0  0
 26 29  1  0  0  0  0
 27 31  2  0  0  0  0
 29 17  1  1  0  0  0
 29 22  1  0  0  0  0
 29  3  1  0  0  0  0
 30 10  1  1  0  0  0
 30 15  1  0  0  0  0
 31 19  1  0  0  0  0
 32 24  1  6  0  0  0
 32 13  1  0  0  0  0
M  END
>  <MODEL>
3

>  <REMARK>
 VINA RESULT:      -7.7      2.705      5.656
  Name = 
  0 active torsions:
  status: ('A' for Active; 'I' for Inactive)
                            x       y       z     vdW  Elec       q    Type
                         _______ _______ _______ _____ _____    ______ ____

>  <TORSDO>
F 0

$$$$
=
 OpenBabel11062419073D

 32 37  0  0  1  0  0  0  0  0999 V2000
  186.6350  178.4510  145.1310 C   0  0  0  0  0  1  0  0  0  0  0  0
  189.7430  173.9200  140.3330 N   0  0  1  0  0  0  0  0  0  0  0  0
  192.4540  172.8310  140.8000 O   0  0  0  0  0  0  0  0  0  0  0  0
  187.9300  177.9160  145.6440 C   0  0  0  0  0  3  0  0  0  0  0  0
  190.0850  176.8970  147.0920 N   0  0  0  0  0  2  0  0  0  0  0  0
  191.4620  176.6880  147.5770 C   0  0  0  0  0  2  0  0  0  0  0  0
  189.5200  172.4930  140.3410 C   0  0  2  0  0  0  0  0  0  0  0  0
  190.0400  176.6780  145.6380 C   0  0  2  0  0  3  0  0  0  0  0  0
  195.2450  171.6210  145.8870 O   0  0  0  0  0  0  0  0  0  0  0  0
  193.4460  171.0890  144.4830 C   0  0  0  0  0  2  0  0  0  0  0  0
  188.5350  173.3350  140.7240 O   0  0  0  0  0  0  0  0  0  0  0  0
  193.7390  173.4150  145.7060 C   0  0  0  0  0  2  0  0  0  0  0  0
  192.3510  173.7560  145.1530 C   0  0  2  0  0  3  0  0  0  0  0  0
  189.7370  174.6120  142.7060 C   0  0  0  0  0  2  0  0  0  0  0  0
  193.1620  170.7650  142.0020 C   0  0  0  0  0  2  0  0  0  0  0  0
  192.4090  173.8940  143.7480 O   0  0  0  0  0  0  0  0  0  0  0  0
  190.3430  171.8190  141.4180 C   0  0  0  0  0  2  0  0  0  0  0  0
  194.2040  172.0160  145.3880 C   0  0  0  0  0  0  0  0  0  0  0  0
  189.3930  176.0990  142.6490 C   0  0  0  0  0  2  0  0  0  0  0  0
  185.9410  175.7720  143.1380 O   0  0  0  0  0  0  0  0  0  0  0  0
  193.0290  171.5320  140.6770 C   0  0  0  0  0  2  0  0  0  0  0  0
  191.9910  172.6740  143.1890 C   0  0  1  0  0  3  0  0  0  0  0  0
  188.6970  177.0070  145.0180 C   0  0  0  0  0  0  0  0  0  0  0  0
  190.4060  175.2360  145.3790 C   0  0  0  0  0  2  0  0  0  0  0  0
  191.9810  175.2780  147.2320 C   0  0  0  0  0  2  0  0  0  0  0  0
  190.5930  174.1660  141.5120 C   0  0  1  0  0  3  0  0  0  0  0  0
  187.1060  176.1030  143.3950 C   0  0  0  0  0  0  0  0  0  0  0  0
  189.3940  171.9580  139.0600 O   0  0  0  0  0  1  0  0  0  0  0  0
  191.3960  172.8680  141.7530 C   0  0  1  0  0  0  0  0  0  0  0  0
  193.2260  171.7590  143.1420 C   0  0  1  0  0  3  0  0  0  0  0  0
  188.3390  176.4490  143.6670 C   0  0  0  0  0  0  0  0  0  0  0  0
  191.8570  175.0800  145.7230 C   0  0  1  0  0  3  0  0  0  0  0  0
  1  4  1  0  0  0  0
  2  7  1  0  0  0  0
  2 11  1  1  0  0  0
  2 26  1  0  0  0  0
  3 29  1  0  0  0  0
  5  6  1  0  0  0  0
  7 28  1  6  0  0  0
  7 11  1  0  0  0  0
  7 17  1  0  0  0  0
  8 24  1  1  0  0  0
  8  5  1  0  0  0  0
 10 18  1  0  0  0  0
 13 12  1  1  0  0  0
 13 32  1  0  0  0  0
 16 13  1  0  0  0  0
 18 12  1  0  0  0  0
 18  9  2  0  0  0  0
 19 14  1  0  0  0  0
 19 31  1  0  0  0  0
 20 27  2  0  0  0  0
 21  3  1  0  0  0  0
 21 15  1  0  0  0  0
 22 16  1  6  0  0  0
 23  8  1  0  0  0  0
 23  4  2  0  0  0  0
 25  6  1  0  0  0  0
 26 29  1  0  0  0  0
 26 14  1  1  0  0  0
 27 31  2  0  0  0  0
 29 17  1  6  0  0  0
 29 22  1  0  0  0  0
 30 15  1  6  0  0  0
 30 22  1  0  0  0  0
 30 10  1  0  0  0  0
 31 23  1  0  0  0  0
 32 24  1  1  0  0  0
 32 25  1  0  0  0  0
M  END
>  <MODEL>
4

>  <REMARK>
 VINA RESULT:      -7.7      2.169      5.689
  Name = 
  0 active torsions:
  status: ('A' for Active; 'I' for Inactive)
                            x       y       z     vdW  Elec       q    Type
                         _______ _______ _______ _____ _____    ______ ____

>  <TORSDO>
F 0

$$$$
=
 OpenBabel11062419073D

 32 37  0  0  1  0  0  0  0  0999 V2000
  188.5520  172.2910  138.9320 C   0  0  0  0  0  1  0  0  0  0  0  0
  194.4060  174.2730  142.8080 N   0  0  1  0  0  0  0  0  0  0  0  0
  194.2550  176.4750  144.7790 O   0  0  0  0  0  0  0  0  0  0  0  0
  188.2050  173.3130  139.9630 C   0  0  0  0  0  3  0  0  0  0  0  0
  187.0910  174.9250  141.9480 N   0  0  0  0  0  2  0  0  0  0  0  0
  186.6820  176.1260  142.6990 C   0  0  0  0  0  2  0  0  0  0  0  0
  194.7860  173.6270  144.0430 C   0  0  2  0  0  0  0  0  0  0  0  0
  188.5490  174.9400  141.7570 C   0  0  2  0  0  3  0  0  0  0  0  0
  189.6910  178.3200  148.0820 O   0  0  0  0  0  0  0  0  0  0  0  0
  191.1870  176.5710  147.6350 C   0  0  0  0  0  2  0  0  0  0  0  0
  194.1880  172.9160  143.0630 O   0  0  0  0  0  0  0  0  0  0  0  0
  189.3750  177.4520  145.9210 C   0  0  0  0  0  2  0  0  0  0  0  0
  189.8140  176.2860  145.0290 C   0  0  2  0  0  3  0  0  0  0  0  0
  191.9330  174.2750  142.7890 C   0  0  0  0  0  2  0  0  0  0  0  0
  193.6610  176.4160  147.1990 C   0  0  0  0  0  2  0  0  0  0  0  0
  191.1280  176.5030  144.5570 O   0  0  0  0  0  0  0  0  0  0  0  0
  193.9340  174.1110  145.1960 C   0  0  0  0  0  2  0  0  0  0  0  0
  190.0640  177.4950  147.2630 C   0  0  0  0  0  0  0  0  0  0  0  0
  191.5830  174.4060  141.3080 C   0  0  0  0  0  2  0  0  0  0  0  0
  191.2000  170.9890  140.6440 O   0  0  0  0  0  0  0  0  0  0  0  0
  194.7270  176.6360  146.1150 C   0  0  0  0  0  2  0  0  0  0  0  0
  191.9980  175.7830  145.3950 C   0  0  1  0  0  3  0  0  0  0  0  0
  189.0560  173.8190  140.8720 C   0  0  0  0  0  0  0  0  0  0  0  0
  189.1920  174.8710  143.1220 C   0  0  0  0  0  2  0  0  0  0  0  0
  187.3990  176.2190  144.0610 C   0  0  0  0  0  2  0  0  0  0  0  0
  193.2040  175.0530  143.1570 C   0  0  1  0  0  3  0  0  0  0  0  0
  190.8630  172.1720  140.7760 C   0  0  0  0  0  0  0  0  0  0  0  0
  196.1650  173.4550  144.1590 O   0  0  0  0  0  1  0  0  0  0  0  0
  193.3270  175.4010  144.6580 C   0  0  1  0  0  0  0  0  0  0  0  0
  192.2940  176.6810  146.6070 C   0  0  1  0  0  3  0  0  0  0  0  0
  190.5070  173.4240  140.9190 C   0  0  0  0  0  0  0  0  0  0  0  0
  188.9050  176.1710  143.8120 C   0  0  1  0  0  3  0  0  0  0  0  0
  1  4  1  0  0  0  0
  2 11  1  6  0  0  0
  2 26  1  0  0  0  0
  2  7  1  0  0  0  0
  3 21  1  0  0  0  0
  4 23  2  0  0  0  0
  5  6  1  0  0  0  0
  6 25  1  0  0  0  0
  7 28  1  1  0  0  0
  7 17  1  0  0  0  0
  8  5  1  0  0  0  0
  8 24  1  1  0  0  0
 11  7  1  0  0  0  0
 12 18  1  0  0  0  0
 13 12  1  1  0  0  0
 16 13  1  0  0  0  0
 18 10  1  0  0  0  0
 18  9  2  0  0  0  0
 19 14  1  0  0  0  0
 20 27  2  0  0  0  0
 21 15  1  0  0  0  0
 22 16  1  6  0  0  0
 22 30  1  0  0  0  0
 23 31  1  0  0  0  0
 23  8  1  0  0  0  0
 26 14  1  1  0  0  0
 26 29  1  0  0  0  0
 27 31  2  0  0  0  0
 29  3  1  0  0  0  0
 29 17  1  1  0  0  0
 29 22  1  0  0  0  0
 30 15  1  1  0  0  0
 30 10  1  0  0  0  0
 31 19  1  0  0  0  0
 32 24  1  1  0  0  0
 32 25  1  0  0  0  0
 32 13  1  0  0  0  0
M  END
>  <MODEL>
5

>  <REMARK>
 VINA RESULT:      -7.6      2.012      5.021
  Name = 
  0 active torsions:
  status: ('A' for Active; 'I' for Inactive)
                            x       y       z     vdW  Elec       q    Type
                         _______ _______ _______ _____ _____    ______ ____

>  <TORSDO>
F 0

$$$$
=
 OpenBabel11062419073D

 32 37  0  0  1  0  0  0  0  0999 V2000
  190.0660  177.5330  147.7040 C   0  0  0  0  0  1  0  0  0  0  0  0
  191.7690  171.2520  144.4070 N   0  0  1  0  0  0  0  0  0  0  0  0
  190.4410  170.4440  141.8900 O   0  0  0  0  0  0  0  0  0  0  0  0
  189.3860  177.4080  146.3820 C   0  0  0  0  0  3  0  0  0  0  0  0
  188.2210  177.7170  143.8670 N   0  0  0  0  0  2  0  0  0  0  0  0
  187.2710  177.5850  142.7470 C   0  0  0  0  0  2  0  0  0  0  0  0
  192.8750  171.1220  143.4870 C   0  0  2  0  0  0  0  0  0  0  0  0
  188.6830  176.3820  144.2750 C   0  0  2  0  0  3  0  0  0  0  0  0
  188.2310  173.7740  137.5130 O   0  0  0  0  0  0  0  0  0  0  0  0
  190.1580  173.1210  138.6750 C   0  0  0  0  0  2  0  0  0  0  0  0
  192.9520  171.9870  144.5220 O   0  0  0  0  0  0  0  0  0  0  0  0
  188.1630  174.4820  139.7520 C   0  0  0  0  0  2  0  0  0  0  0  0
  189.0480  174.5770  141.0000 C   0  0  2  0  0  3  0  0  0  0  0  0
  190.8490  173.5160  144.0300 C   0  0  0  0  0  2  0  0  0  0  0  0
  191.0650  170.9320  139.5260 C   0  0  0  0  0  2  0  0  0  0  0  0
  189.1910  173.3020  141.5930 O   0  0  0  0  0  0  0  0  0  0  0  0
  192.5160  171.6710  142.1230 C   0  0  0  0  0  2  0  0  0  0  0  0
  188.8180  173.7910  138.5820 C   0  0  0  0  0  0  0  0  0  0  0  0
  190.1220  173.8330  145.3360 C   0  0  0  0  0  2  0  0  0  0  0  0
  192.7360  175.5750  146.8840 O   0  0  0  0  0  0  0  0  0  0  0  0
  190.9120  169.9030  140.6570 C   0  0  0  0  0  2  0  0  0  0  0  0
  190.4110  172.7670  141.1470 C   0  0  1  0  0  3  0  0  0  0  0  0
  189.5570  176.3960  145.5140 C   0  0  0  0  0  0  0  0  0  0  0  0
  189.4270  175.7760  143.1080 C   0  0  0  0  0  2  0  0  0  0  0  0
  187.8980  176.8470  141.5480 C   0  0  0  0  0  2  0  0  0  0  0  0
  190.7610  172.0280  143.6620 C   0  0  1  0  0  3  0  0  0  0  0  0
  191.6250  175.4050  146.3650 C   0  0  0  0  0  0  0  0  0  0  0  0
  193.5720  169.9250  143.6460 O   0  0  0  0  0  1  0  0  0  0  0  0
  190.9940  171.7280  142.1650 C   0  0  1  0  0  0  0  0  0  0  0  0
  190.1360  172.0960  139.7910 C   0  0  1  0  0  3  0  0  0  0  0  0
  190.4510  175.2230  145.8140 C   0  0  0  0  0  0  0  0  0  0  0  0
  188.4150  175.4960  142.0370 C   0  0  1  0  0  3  0  0  0  0  0  0
  2 11  1  1  0  0  0
  3 29  1  0  0  0  0
  4  1  1  0  0  0  0
  5  8  1  0  0  0  0
  6  5  1  0  0  0  0
  7 28  1  1  0  0  0
  7  2  1  0  0  0  0
  7 11  1  0  0  0  0
  8 24  1  6  0  0  0
  8 23  1  0  0  0  0
  9 18  2  0  0  0  0
 13 12  1  6  0  0  0
 13 16  1  0  0  0  0
 13 32  1  0  0  0  0
 14 19  1  0  0  0  0
 15 30  1  0  0  0  0
 15 21  1  0  0  0  0
 17  7  1  0  0  0  0
 18 10  1  0  0  0  0
 18 12  1  0  0  0  0
 19 31  1  0  0  0  0
 21  3  1  0  0  0  0
 22 16  1  1  0  0  0
 22 29  1  0  0  0  0
 23 31  1  0  0  0  0
 23  4  2  0  0  0  0
 25  6  1  0  0  0  0
 26 14  1  6  0  0  0
 26  2  1  0  0  0  0
 27 20  2  0  0  0  0
 29 17  1  6  0  0  0
 29 26  1  0  0  0  0
 30 10  1  6  0  0  0
 30 22  1  0  0  0  0
 31 27  2  0  0  0  0
 32 25  1  6  0  0  0
 32 24  1  0  0  0  0
M  END
>  <MODEL>
6

>  <REMARK>
 VINA RESULT:      -7.5      2.517      7.244
  Name = 
  0 active torsions:
  status: ('A' for Active; 'I' for Inactive)
                            x       y       z     vdW  Elec       q    Type
                         _______ _______ _______ _____ _____    ______ ____

>  <TORSDO>
F 0

$$$$
=
 OpenBabel11062419073D

 32 37  0  0  1  0  0  0  0  0999 V2000
  193.9920  171.2410  141.1240 C   0  0  0  0  0  1  0  0  0  0  0  0
  192.0800  175.8330  146.4590 N   0  0  1  0  0  0  0  0  0  0  0  0
  189.8410  177.7350  146.1040 O   0  0  0  0  0  0  0  0  0  0  0  0
  192.7510  171.9940  140.7780 C   0  0  0  0  0  3  0  0  0  0  0  0
  190.2670  172.9200  139.9090 N   0  0  0  0  0  2  0  0  0  0  0  0
  189.2340  173.7970  139.3290 C   0  0  0  0  0  2  0  0  0  0  0  0
  191.1750  175.4680  147.5240 C   0  0  2  0  0  0  0  0  0  0  0  0
  190.9400  173.6220  141.0130 C   0  0  2  0  0  3  0  0  0  0  0  0
  184.9210  177.2530  142.8340 O   0  0  0  0  0  0  0  0  0  0  0  0
  186.1340  176.4160  144.6560 C   0  0  0  0  0  2  0  0  0  0  0  0
  191.9940  174.5410  146.9830 O   0  0  0  0  0  0  0  0  0  0  0  0
  186.9550  176.3000  142.1440 C   0  0  0  0  0  2  0  0  0  0  0  0
  188.1230  175.4660  142.6810 C   0  0  2  0  0  3  0  0  0  0  0  0
  191.2520  174.6620  144.4460 C   0  0  0  0  0  2  0  0  0  0  0  0
  187.4090  177.4450  146.5670 C   0  0  0  0  0  2  0  0  0  0  0  0
  188.9730  176.2720  143.4720 O   0  0  0  0  0  0  0  0  0  0  0  0
  189.7360  175.5100  147.0540 C   0  0  0  0  0  2  0  0  0  0  0  0
  185.9420  176.6890  143.1920 C   0  0  0  0  0  0  0  0  0  0  0  0
  192.4810  174.5830  143.5420 C   0  0  0  0  0  2  0  0  0  0  0  0
  193.5290  171.3830  144.5000 O   0  0  0  0  0  0  0  0  0  0  0  0
  188.7400  178.1260  146.9220 C   0  0  0  0  0  2  0  0  0  0  0  0
  188.6140  176.0670  144.8150 C   0  0  1  0  0  3  0  0  0  0  0  0
  192.1170  172.8600  141.5880 C   0  0  0  0  0  0  0  0  0  0  0  0
  189.9080  173.8910  142.0830 C   0  0  0  0  0  2  0  0  0  0  0  0
  188.2040  174.2440  140.3840 C   0  0  0  0  0  2  0  0  0  0  0  0
  191.2170  175.9560  145.2700 C   0  0  1  0  0  3  0  0  0  0  0  0
  193.0960  172.2670  143.7500 C   0  0  0  0  0  0  0  0  0  0  0  0
  191.5660  175.9730  148.7630 O   0  0  0  0  0  1  0  0  0  0  0  0
  189.8140  176.3470  145.7830 C   0  0  1  0  0  0  0  0  0  0  0  0
  187.4460  177.0190  145.1150 C   0  0  1  0  0  3  0  0  0  0  0  0
  192.6350  173.2020  142.9580 C   0  0  0  0  0  0  0  0  0  0  0  0
  188.9570  174.9110  141.5330 C   0  0  1  0  0  3  0  0  0  0  0  0
  2 11  1  6  0  0  0
  2  7  1  0  0  0  0
  3 21  1  0  0  0  0
  4  1  1  0  0  0  0
  4 23  2  0  0  0  0
  5  8  1  0  0  0  0
  6  5  1  0  0  0  0
  6 25  1  0  0  0  0
  7 28  1  1  0  0  0
  8 23  1  0  0  0  0
  8 24  1  1  0  0  0
  9 18  2  0  0  0  0
 11  7  1  0  0  0  0
 12 18  1  0  0  0  0
 13 12  1  6  0  0  0
 13 16  1  0  0  0  0
 15 21  1  0  0  0  0
 17  7  1  0  0  0  0
 18 10  1  0  0  0  0
 19 14  1  0  0  0  0
 22 16  1  6  0  0  0
 22 30  1  0  0  0  0
 22 29  1  0  0  0  0
 23 31  1  0  0  0  0
 26 14  1  1  0  0  0
 26 29  1  0  0  0  0
 26  2  1  0  0  0  0
 27 20  2  0  0  0  0
 29  3  1  0  0  0  0
 29 17  1  1  0  0  0
 30 10  1  1  0  0  0
 30 15  1  0  0  0  0
 31 19  1  0  0  0  0
 31 27  2  0  0  0  0
 32 25  1  6  0  0  0
 32 24  1  0  0  0  0
 32 13  1  0  0  0  0
M  END
>  <MODEL>
7

>  <REMARK>
 VINA RESULT:      -7.4      1.965      5.333
  Name = 
  0 active torsions:
  status: ('A' for Active; 'I' for Inactive)
                            x       y       z     vdW  Elec       q    Type
                         _______ _______ _______ _____ _____    ______ ____

>  <TORSDO>
F 0

$$$$
=
 OpenBabel11062419073D

 32 37  0  0  1  0  0  0  0  0999 V2000
  186.7270  178.5330  148.0080 C   0  0  0  0  0  1  0  0  0  0  0  0
  192.8370  174.7390  146.7840 N   0  0  1  0  0  0  0  0  0  0  0  0
  193.0850  172.9690  144.4250 O   0  0  0  0  0  0  0  0  0  0  0  0
  186.6810  177.8320  146.6910 C   0  0  0  0  0  3  0  0  0  0  0  0
  186.3430  176.9870  144.0540 N   0  0  0  0  0  2  0  0  0  0  0  0
  186.0490  176.1230  142.8960 C   0  0  0  0  0  2  0  0  0  0  0  0
  193.9770  175.2890  146.0870 C   0  0  2  0  0  0  0  0  0  0  0  0
  187.4060  176.3730  144.8650 C   0  0  2  0  0  3  0  0  0  0  0  0
  190.6040  173.4080  139.0600 O   0  0  0  0  0  0  0  0  0  0  0  0
  192.0900  174.3660  140.5990 C   0  0  0  0  0  2  0  0  0  0  0  0
  193.2000  176.0870  146.8510 O   0  0  0  0  0  0  0  0  0  0  0  0
  189.4860  174.1300  140.9960 C   0  0  0  0  0  2  0  0  0  0  0  0
  189.7200  174.9370  142.2770 C   0  0  2  0  0  3  0  0  0  0  0  0
  190.8490  175.7230  145.6910 C   0  0  0  0  0  2  0  0  0  0  0  0
  193.8890  173.4800  142.1210 C   0  0  0  0  0  2  0  0  0  0  0  0
  190.4610  174.1720  143.2050 O   0  0  0  0  0  0  0  0  0  0  0  0
  193.7510  175.2920  144.5910 C   0  0  0  0  0  2  0  0  0  0  0  0
  190.7220  173.9380  140.1530 C   0  0  0  0  0  0  0  0  0  0  0  0
  189.7580  175.6090  146.7560 C   0  0  0  0  0  2  0  0  0  0  0  0
  190.1250  178.8190  148.1060 O   0  0  0  0  0  0  0  0  0  0  0  0
  194.1110  172.7550  143.4570 C   0  0  0  0  0  2  0  0  0  0  0  0
  191.8070  174.5570  143.0860 C   0  0  1  0  0  3  0  0  0  0  0  0
  187.6850  177.1140  146.1580 C   0  0  0  0  0  0  0  0  0  0  0  0
  188.6510  176.3040  144.0140 C   0  0  0  0  0  2  0  0  0  0  0  0
  187.3030  175.8750  142.0350 C   0  0  0  0  0  2  0  0  0  0  0  0
  191.8250  174.5390  145.7300 C   0  0  1  0  0  3  0  0  0  0  0  0
  189.5710  177.8860  147.5110 C   0  0  0  0  0  0  0  0  0  0  0  0
  195.1920  174.9060  146.6540 O   0  0  0  0  0  1  0  0  0  0  0  0
  192.6000  174.3090  144.4140 C   0  0  1  0  0  0  0  0  0  0  0  0
  192.4080  173.7300  141.9370 C   0  0  1  0  0  3  0  0  0  0  0  0
  188.9880  176.8980  146.8790 C   0  0  0  0  0  0  0  0  0  0  0  0
  188.3930  175.2950  142.9350 C   0  0  1  0  0  3  0  0  0  0  0  0
  2 11  1  1  0  0  0
  4  1  1  0  0  0  0
  5  8  1  0  0  0  0
  6  5  1  0  0  0  0
  7 28  1  1  0  0  0
  7  2  1  0  0  0  0
  7 11  1  0  0  0  0
  8 24  1  6  0  0  0
  8 23  1  0  0  0  0
  9 18  2  0  0  0  0
 13 12  1  6  0  0  0
 13 32  1  0  0  0  0
 13 16  1  0  0  0  0
 14 19  1  0  0  0  0
 15 21  1  0  0  0  0
 17  7  1  0  0  0  0
 18 10  1  0  0  0  0
 18 12  1  0  0  0  0
 19 31  1  0  0  0  0
 21  3  1  0  0  0  0
 22 16  1  1  0  0  0
 22 29  1  0  0  0  0
 23  4  2  0  0  0  0
 23 31  1  0  0  0  0
 25  6  1  0  0  0  0
 26 14  1  6  0  0  0
 26  2  1  0  0  0  0
 27 20  2  0  0  0  0
 29  3  1  0  0  0  0
 29 17  1  1  0  0  0
 29 26  1  0  0  0  0
 30 10  1  6  0  0  0
 30 15  1  0  0  0  0
 30 22  1  0  0  0  0
 31 27  2  0  0  0  0
 32 25  1  6  0  0  0
 32 24  1  0  0  0  0
M  END
>  <MODEL>
8

>  <REMARK>
 VINA RESULT:      -7.4      2.280      6.258
  Name = 
  0 active torsions:
  status: ('A' for Active; 'I' for Inactive)
                            x       y       z     vdW  Elec       q    Type
                         _______ _______ _______ _____ _____    ______ ____

>  <TORSDO>
F 0

$$$$
=
 OpenBabel11062419073D

 32 37  0  0  1  0  0  0  0  0999 V2000
  186.7460  178.8860  148.0130 C   0  0  0  0  0  1  0  0  0  0  0  0
  191.5110  173.7210  146.0530 N   0  0  1  0  0  0  0  0  0  0  0  0
  191.1510  172.1860  143.5480 O   0  0  0  0  0  0  0  0  0  0  0  0
  186.4480  178.3550  146.6500 C   0  0  0  0  0  3  0  0  0  0  0  0
  185.7660  177.8910  143.9850 N   0  0  0  0  0  2  0  0  0  0  0  0
  185.1910  177.2550  142.7860 C   0  0  0  0  0  2  0  0  0  0  0  0
  192.7240  174.0070  145.3230 C   0  0  2  0  0  0  0  0  0  0  0  0
  186.6550  176.9380  144.6660 C   0  0  2  0  0  3  0  0  0  0  0  0
  188.6370  173.7960  138.4270 O   0  0  0  0  0  0  0  0  0  0  0  0
  190.3990  174.1640  139.9280 C   0  0  0  0  0  2  0  0  0  0  0  0
  192.2330  174.9070  146.2010 O   0  0  0  0  0  0  0  0  0  0  0  0
  187.8530  174.6020  140.4900 C   0  0  0  0  0  2  0  0  0  0  0  0
  188.3600  175.1880  141.8120 C   0  0  2  0  0  3  0  0  0  0  0  0
  189.8210  175.3050  145.1880 C   0  0  0  0  0  2  0  0  0  0  0  0
  191.9550  172.6820  141.2410 C   0  0  0  0  0  2  0  0  0  0  0  0
  188.9050  174.1650  142.6200 O   0  0  0  0  0  0  0  0  0  0  0  0
  192.4380  174.2160  143.8510 C   0  0  0  0  0  2  0  0  0  0  0  0
  188.9470  174.1660  139.5480 C   0  0  0  0  0  0  0  0  0  0  0  0
  188.7930  175.3880  146.3160 C   0  0  0  0  0  2  0  0  0  0  0  0
  190.0920  178.2330  147.8900 O   0  0  0  0  0  0  0  0  0  0  0  0
  192.0310  171.7980  142.4950 C   0  0  0  0  0  2  0  0  0  0  0  0
  190.2980  174.1820  142.4360 C   0  0  1  0  0  3  0  0  0  0  0  0
  187.1880  177.4470  145.9910 C   0  0  0  0  0  0  0  0  0  0  0  0
  187.7920  176.6180  143.7250 C   0  0  0  0  0  2  0  0  0  0  0  0
  186.2870  176.7620  141.8200 C   0  0  0  0  0  2  0  0  0  0  0  0
  190.4340  173.9040  145.0620 C   0  0  1  0  0  3  0  0  0  0  0  0
  189.2750  177.5460  147.2630 C   0  0  0  0  0  0  0  0  0  0  0  0
  193.8120  173.2570  145.7680 O   0  0  0  0  0  1  0  0  0  0  0  0
  191.0530  173.6020  143.6790 C   0  0  1  0  0  0  0  0  0  0  0  0
  190.5930  173.3390  141.1840 C   0  0  1  0  0  3  0  0  0  0  0  0
  188.4140  176.8190  146.5970 C   0  0  0  0  0  0  0  0  0  0  0  0
  187.2160  175.8260  142.5900 C   0  0  1  0  0  3  0  0  0  0  0  0
  2 11  1  1  0  0  0
  3 29  1  0  0  0  0
  4  1  1  0  0  0  0
  5  8  1  0  0  0  0
  6  5  1  0  0  0  0
  7 28  1  1  0  0  0
  7  2  1  0  0  0  0
  7 11  1  0  0  0  0
  8 24  1  6  0  0  0
  8 23  1  0  0  0  0
  9 18  2  0  0  0  0
 13 12  1  6  0  0  0
 13 32  1  0  0  0  0
 13 16  1  0  0  0  0
 14 19  1  0  0  0  0
 15 21  1  0  0  0  0
 17  7  1  0  0  0  0
 18 10  1  0  0  0  0
 18 12  1  0  0  0  0
 19 31  1  0  0  0  0
 21  3  1  0  0  0  0
 22 16  1  1  0  0  0
 22 29  1  0  0  0  0
 23 31  1  0  0  0  0
 23  4  2  0  0  0  0
 25  6  1  0  0  0  0
 26 14  1  6  0  0  0
 26  2  1  0  0  0  0
 27 20  2  0  0  0  0
 29 17  1  6  0  0  0
 29 26  1  0  0  0  0
 30 10  1  6  0  0  0
 30 15  1  0  0  0  0
 30 22  1  0  0  0  0
 31 27  2  0  0  0  0
 32 25  1  6  0  0  0
 32 24  1  0  0  0  0
M  END
>  <MODEL>
9

>  <REMARK>
 VINA RESULT:      -7.3      2.295      6.774
  Name = 
  0 active torsions:
  status: ('A' for Active; 'I' for Inactive)
                            x       y       z     vdW  Elec       q    Type
                         _______ _______ _______ _____ _____    ______ ____

>  <TORSDO>
F 0

$$$$
