=
 OpenBabel11062420003D

 42 47  0  0  1  0  0  0  0  0999 V2000
  186.2570  177.0470  147.3280 N   0  0  0  0  0  2  0  0  0  0  0  0
  184.9010  177.5160  145.4970 C   0  0  0  0  0  2  0  0  0  0  0  0
  188.8680  177.0900  143.8970 C   0  0  2  0  0  3  0  0  0  0  0  0
  187.9900  176.3570  142.8920 C   0  0  1  0  0  3  0  0  0  0  0  0
  189.0140  176.0510  147.4470 C   0  0  0  0  0  1  0  0  0  0  0  0
  188.4380  176.7180  146.2110 C   0  0  2  0  0  3  0  0  0  0  0  0
  186.9130  176.5100  146.1480 C   0  0  2  0  0  3  0  0  0  0  0  0
  186.2210  176.2420  143.4290 S   0  0  0  0  0  0  0  0  0  0  0  0
  184.9360  177.3670  146.9510 N   0  0  0  0  0  0  0  0  0  0  0  0
  186.2840  177.2380  144.9810 C   0  0  1  0  0  3  0  0  0  0  0  0
  190.2520  176.6150  144.3300 C   0  0  1  0  0  3  0  0  0  0  0  0
  189.0150  176.0450  144.9860 C   0  0  2  0  0  3  0  0  0  0  0  0
  184.6420  178.6730  147.5180 C   0  0  0  0  0  1  0  0  0  0  0  0
  192.4280  173.6250  143.4510 C   0  0  0  0  0  2  0  0  0  0  0  0
  193.7460  174.1300  144.0550 C   0  0  1  0  0  3  0  0  0  0  0  0
  190.8460  175.6060  143.3520 C   0  0  2  0  0  3  0  0  0  0  0  0
  193.9710  175.6450  144.0410 C   0  0  0  0  0  0  0  0  0  0  0  0
  191.2260  174.3170  144.0860 C   0  0  0  0  0  2  0  0  0  0  0  0
  193.2030  176.5360  143.3750 C   0  0  0  0  0  3  0  0  0  0  0  0
  191.9960  176.2200  142.5430 C   0  0  0  0  0  2  0  0  0  0  0  0
  193.9270  173.5490  145.4590 C   0  0  0  0  0  3  0  0  0  0  0  0
  194.1010  172.0430  145.3820 C   0  0  0  0  0  2  0  0  0  0  0  0
  195.3070  172.9310  145.5880 C   0  0  0  0  0  2  0  0  0  0  0  0
  195.1940  176.1730  144.7450 C   0  0  1  0  0  3  0  0  0  0  0  0
  196.1160  176.6810  143.8280 O   0  0  0  0  0  1  0  0  0  0  0  0
  194.8460  177.2080  145.7660 C   0  0  0  0  0  0  0  0  0  0  0  0
  194.0720  176.8750  146.8720 O   0  0  0  0  0  1  0  0  0  0  0  0
  195.2670  178.3870  145.6310 O   0  0  0  0  0  0  0  0  0  0  0  0
  187.7680  173.8730  139.3770 O   0  0  0  0  0  0  0  0  0  0  0  0
  188.1280  176.8330  141.4730 C   0  0  0  0  0  0  0  0  0  0  0  0
  187.1500  176.5900  139.2020 C   0  0  0  0  0  1  0  0  0  0  0  0
  188.2860  174.6340  140.2400 C   0  0  0  0  0  0  0  0  0  0  0  0
  188.4290  178.0430  141.2840 O   0  0  0  0  0  0  0  0  0  0  0  0
  187.8400  175.9950  140.3380 N   0  0  0  0  0  0  0  0  0  0  0  0
  189.2950  174.1620  141.0960 O   0  0  0  0  0  0  0  0  0  0  0  0
  191.8900  171.0220  140.1730 N   0  0  0  0  0  0  0  0  0  0  0  0
  189.9890  171.8170  141.3800 C   0  0  0  0  0  3  0  0  0  0  0  0
  190.6980  169.4890  141.6020 N   0  0  0  0  0  1  0  0  0  0  0  0
  192.0800  172.2500  139.6140 C   0  0  0  0  0  3  0  0  0  0  0  0
  191.2170  173.3020  139.9270 C   0  0  0  0  0  3  0  0  0  0  0  0
  190.1630  173.0940  140.8200 C   0  0  0  0  0  0  0  0  0  0  0  0
  190.8710  170.7870  141.0430 C   0  0  0  0  0  0  0  0  0  0  0  0
  2  9  1  0  0  0  0
  3 11  1  0  0  0  0
  3 12  1  0  0  0  0
  4  8  1  0  0  0  0
  4  3  1  0  0  0  0
  6  5  1  0  0  0  0
  7  6  1  0  0  0  0
  7  1  1  0  0  0  0
  8 10  1  0  0  0  0
  9  1  1  0  0  0  0
  9 13  1  0  0  0  0
 10  2  1  0  0  0  0
 10  7  1  0  0  0  0
 11 12  1  0  0  0  0
 12  6  1  0  0  0  0
 14 15  1  0  0  0  0
 14 18  1  0  0  0  0
 15 21  1  0  0  0  0
 16 18  1  0  0  0  0
 16 11  1  0  0  0  0
 17 15  1  0  0  0  0
 17 24  1  0  0  0  0
 19 17  2  0  0  0  0
 20 16  1  0  0  0  0
 20 19  1  0  0  0  0
 21 23  1  0  0  0  0
 22 21  1  0  0  0  0
 22 23  1  0  0  0  0
 24 26  1  0  0  0  0
 25 24  1  0  0  0  0
 26 27  1  0  0  0  0
 28 26  2  0  0  0  0
 29 32  2  0  0  0  0
 30  4  1  0  0  0  0
 31 34  1  0  0  0  0
 32 34  1  0  0  0  0
 32 35  1  0  0  0  0
 33 30  2  0  0  0  0
 34 30  1  0  0  0  0
 36 42  1  0  0  0  0
 39 40  1  0  0  0  0
 39 36  2  0  0  0  0
 40 41  2  0  0  0  0
 41 35  1  0  0  0  0
 41 37  1  0  0  0  0
 42 37  2  0  0  0  0
 42 38  1  0  0  0  0
M  END
>  <MODEL>
1

>  <REMARK>
 VINA RESULT:      -7.5      0.000      0.000
  Name = 
  7 active torsions:
  status: ('A' for Active; 'I' for Inactive)
    1  A    between atoms: C_2  and  C_21
    2  A    between atoms: C_10  and  C_23
    3  A    between atoms: C_14  and  C_29
    4  A    between atoms: C_17  and  C_28
    5  A    between atoms: C_19  and  C_21
    6  A    between atoms: O_31  and  C_33
    7  A    between atoms: O_31  and  C_36
                            x       y       z     vdW  Elec       q    Type
                         _______ _______ _______ _____ _____    ______ ____

>  <TORSDO>
F 7

$$$$
=
 OpenBabel11062420003D

 42 47  0  0  1  0  0  0  0  0999 V2000
  190.4500  170.3950  141.9960 N   0  0  0  0  0  2  0  0  0  0  0  0
  192.7710  170.5340  141.9520 C   0  0  0  0  0  2  0  0  0  0  0  0
  191.3870  174.6030  141.8890 C   0  0  2  0  0  3  0  0  0  0  0  0
  192.5610  174.6340  142.8570 C   0  0  1  0  0  3  0  0  0  0  0  0
  188.4310  172.4620  142.5100 C   0  0  0  0  0  1  0  0  0  0  0  0
  189.8500  172.7930  142.0800 C   0  0  2  0  0  3  0  0  0  0  0  0
  190.8220  171.6910  142.5400 C   0  0  2  0  0  3  0  0  0  0  0  0
  193.2540  172.9510  143.2030 S   0  0  0  0  0  0  0  0  0  0  0  0
  191.6280  169.6220  141.9380 N   0  0  0  0  0  0  0  0  0  0  0  0
  192.2330  171.9330  142.0520 C   0  0  1  0  0  3  0  0  0  0  0  0
  190.0970  175.3960  142.0820 C   0  0  1  0  0  3  0  0  0  0  0  0
  190.2800  174.0650  142.7740 C   0  0  2  0  0  3  0  0  0  0  0  0
  191.6310  168.9570  140.6470 C   0  0  0  0  0  1  0  0  0  0  0  0
  189.0300  177.4560  145.0930 C   0  0  0  0  0  2  0  0  0  0  0  0
  187.6060  177.7950  144.6310 C   0  0  1  0  0  3  0  0  0  0  0  0
  190.2690  176.5390  143.0780 C   0  0  2  0  0  3  0  0  0  0  0  0
  187.3890  177.9330  143.1210 C   0  0  0  0  0  0  0  0  0  0  0  0
  189.5580  176.2080  144.3920 C   0  0  0  0  0  2  0  0  0  0  0  0
  188.3750  177.9740  142.1980 C   0  0  0  0  0  3  0  0  0  0  0  0
  189.8480  177.8820  142.4670 C   0  0  0  0  0  2  0  0  0  0  0  0
  186.6140  176.8090  145.2520 C   0  0  0  0  0  3  0  0  0  0  0  0
  186.6760  176.8890  146.7670 C   0  0  0  0  0  2  0  0  0  0  0  0
  185.5470  177.5660  146.0230 C   0  0  0  0  0  2  0  0  0  0  0  0
  185.9760  178.1340  142.6370 C   0  0  1  0  0  3  0  0  0  0  0  0
  185.5150  179.4120  142.9640 O   0  0  0  0  0  1  0  0  0  0  0  0
  185.8510  177.8930  141.1670 C   0  0  0  0  0  0  0  0  0  0  0  0
  186.4780  176.8020  140.5770 O   0  0  0  0  0  1  0  0  0  0  0  0
  185.1630  178.6750  140.4610 O   0  0  0  0  0  0  0  0  0  0  0  0
  195.2270  176.5140  145.6730 O   0  0  0  0  0  0  0  0  0  0  0  0
  193.6300  175.6350  142.5170 C   0  0  0  0  0  0  0  0  0  0  0  0
  195.9880  176.2500  142.9990 C   0  0  0  0  0  1  0  0  0  0  0  0
  194.3010  176.4240  144.8210 C   0  0  0  0  0  0  0  0  0  0  0  0
  193.7000  176.0390  141.3250 O   0  0  0  0  0  0  0  0  0  0  0  0
  194.6200  176.0700  143.4670 N   0  0  0  0  0  0  0  0  0  0  0  0
  192.9670  176.6730  145.1860 O   0  0  0  0  0  0  0  0  0  0  0  0
  191.2180  175.8090  148.8790 N   0  0  0  0  0  0  0  0  0  0  0  0
  192.2890  177.3880  147.4420 C   0  0  0  0  0  3  0  0  0  0  0  0
  191.5660  178.0570  149.6780 N   0  0  0  0  0  1  0  0  0  0  0  0
  191.3150  174.8390  147.9270 C   0  0  0  0  0  3  0  0  0  0  0  0
  191.9050  175.1250  146.6950 C   0  0  0  0  0  3  0  0  0  0  0  0
  192.4040  176.4060  146.4430 C   0  0  0  0  0  0  0  0  0  0  0  0
  191.6910  177.0660  148.6640 C   0  0  0  0  0  0  0  0  0  0  0  0
  1  7  1  0  0  0  0
  2 10  1  0  0  0  0
  3 11  1  0  0  0  0
  3 12  1  0  0  0  0
  3  4  1  0  0  0  0
  4  8  1  0  0  0  0
  6  5  1  0  0  0  0
  6  7  1  0  0  0  0
  6 12  1  0  0  0  0
  9  2  1  0  0  0  0
  9  1  1  0  0  0  0
 10  7  1  0  0  0  0
 10  8  1  0  0  0  0
 11 12  1  0  0  0  0
 11 16  1  0  0  0  0
 13  9  1  0  0  0  0
 15 14  1  0  0  0  0
 15 21  1  0  0  0  0
 16 18  1  0  0  0  0
 17 15  1  0  0  0  0
 18 14  1  0  0  0  0
 19 20  1  0  0  0  0
 19 17  2  0  0  0  0
 20 16  1  0  0  0  0
 21 23  1  0  0  0  0
 21 22  1  0  0  0  0
 23 22  1  0  0  0  0
 24 25  1  0  0  0  0
 24 17  1  0  0  0  0
 26 24  1  0  0  0  0
 27 26  1  0  0  0  0
 28 26  2  0  0  0  0
 30  4  1  0  0  0  0
 30 34  1  0  0  0  0
 31 34  1  0  0  0  0
 32 35  1  0  0  0  0
 32 29  2  0  0  0  0
 33 30  2  0  0  0  0
 34 32  1  0  0  0  0
 35 41  1  0  0  0  0
 37 42  2  0  0  0  0
 39 36  2  0  0  0  0
 40 39  1  0  0  0  0
 41 40  2  0  0  0  0
 41 37  1  0  0  0  0
 42 36  1  0  0  0  0
 42 38  1  0  0  0  0
M  END
>  <MODEL>
2

>  <REMARK>
 VINA RESULT:      -7.1      2.817      8.192
  Name = 
  7 active torsions:
  status: ('A' for Active; 'I' for Inactive)
    1  A    between atoms: C_2  and  C_21
    2  A    between atoms: C_10  and  C_23
    3  A    between atoms: C_14  and  C_29
    4  A    between atoms: C_17  and  C_28
    5  A    between atoms: C_19  and  C_21
    6  A    between atoms: O_31  and  C_33
    7  A    between atoms: O_31  and  C_36
                            x       y       z     vdW  Elec       q    Type
                         _______ _______ _______ _____ _____    ______ ____

>  <TORSDO>
F 7

$$$$
=
 OpenBabel11062420003D

 42 47  0  0  1  0  0  0  0  0999 V2000
  186.1290  178.1670  142.5060 N   0  0  0  0  0  2  0  0  0  0  0  0
  186.4900  178.5680  144.7680 C   0  0  0  0  0  2  0  0  0  0  0  0
  188.7320  175.0120  143.8720 C   0  0  2  0  0  3  0  0  0  0  0  0
  189.6640  175.8130  144.7690 C   0  0  1  0  0  3  0  0  0  0  0  0
  187.5180  176.3690  140.6480 C   0  0  0  0  0  1  0  0  0  0  0  0
  187.5730  176.1900  142.1560 C   0  0  2  0  0  3  0  0  0  0  0  0
  187.3930  177.5450  142.8650 C   0  0  2  0  0  3  0  0  0  0  0  0
  189.0040  177.4950  145.1770 S   0  0  0  0  0  0  0  0  0  0  0  0
  185.7710  179.0130  143.5750 N   0  0  0  0  0  0  0  0  0  0  0  0
  187.3470  177.4010  144.3700 C   0  0  1  0  0  3  0  0  0  0  0  0
  189.1930  174.2010  142.6640 C   0  0  1  0  0  3  0  0  0  0  0  0
  188.9480  175.6860  142.5320 C   0  0  2  0  0  3  0  0  0  0  0  0
  184.3560  178.7980  143.8260 C   0  0  0  0  0  1  0  0  0  0  0  0
  192.6380  173.9480  141.0780 C   0  0  0  0  0  2  0  0  0  0  0  0
  192.2750  173.0100  139.9180 C   0  0  1  0  0  3  0  0  0  0  0  0
  190.6900  173.9110  142.7040 C   0  0  2  0  0  3  0  0  0  0  0  0
  191.1500  172.0030  140.1770 C   0  0  0  0  0  0  0  0  0  0  0  0
  191.4090  174.6890  141.5980 C   0  0  0  0  0  2  0  0  0  0  0  0
  190.6000  171.7500  141.3850 C   0  0  0  0  0  3  0  0  0  0  0  0
  190.9700  172.4030  142.6830 C   0  0  0  0  0  2  0  0  0  0  0  0
  192.0130  173.8310  138.6530 C   0  0  0  0  0  3  0  0  0  0  0  0
  193.2860  174.5330  138.2140 C   0  0  0  0  0  2  0  0  0  0  0  0
  192.8330  173.2780  137.5010 C   0  0  0  0  0  2  0  0  0  0  0  0
  190.6880  171.1630  139.0140 C   0  0  1  0  0  3  0  0  0  0  0  0
  190.4260  169.8530  139.4200 O   0  0  0  0  0  1  0  0  0  0  0  0
  189.4910  171.7530  138.3420 C   0  0  0  0  0  0  0  0  0  0  0  0
  188.4450  172.2720  139.0950 O   0  0  0  0  0  1  0  0  0  0  0  0
  189.4350  171.7920  137.0850 O   0  0  0  0  0  0  0  0  0  0  0  0
  193.3230  176.6250  146.8970 O   0  0  0  0  0  0  0  0  0  0  0  0
  190.1520  175.0780  145.9860 C   0  0  0  0  0  0  0  0  0  0  0  0
  191.1820  175.4180  148.2210 C   0  0  0  0  0  1  0  0  0  0  0  0
  192.5020  175.9820  146.1870 C   0  0  0  0  0  0  0  0  0  0  0  0
  189.4910  174.0750  146.3720 O   0  0  0  0  0  0  0  0  0  0  0  0
  191.2720  175.5260  146.7710 N   0  0  0  0  0  0  0  0  0  0  0  0
  192.7840  175.7050  144.8400 O   0  0  0  0  0  0  0  0  0  0  0  0
  196.4930  174.4270  143.4060 N   0  0  0  0  0  0  0  0  0  0  0  0
  195.0070  176.2250  143.9170 C   0  0  0  0  0  3  0  0  0  0  0  0
  197.2370  176.6900  143.0320 N   0  0  0  0  0  1  0  0  0  0  0  0
  195.5660  173.5140  143.8060 C   0  0  0  0  0  3  0  0  0  0  0  0
  194.3230  173.9390  144.2790 C   0  0  0  0  0  3  0  0  0  0  0  0
  194.0310  175.3040  144.3340 C   0  0  0  0  0  0  0  0  0  0  0  0
  196.2400  175.7640  143.4500 C   0  0  0  0  0  0  0  0  0  0  0  0
  1  7  1  0  0  0  0
  1  9  1  0  0  0  0
  3  4  1  0  0  0  0
  4  8  1  0  0  0  0
  4 30  1  0  0  0  0
  5  6  1  0  0  0  0
  6 12  1  0  0  0  0
  6  7  1  0  0  0  0
  7 10  1  0  0  0  0
  9 13  1  0  0  0  0
  9  2  1  0  0  0  0
 10  2  1  0  0  0  0
 10  8  1  0  0  0  0
 11 16  1  0  0  0  0
 11  3  1  0  0  0  0
 12 11  1  0  0  0  0
 12  3  1  0  0  0  0
 14 18  1  0  0  0  0
 15 17  1  0  0  0  0
 15 14  1  0  0  0  0
 17 19  2  0  0  0  0
 18 16  1  0  0  0  0
 19 20  1  0  0  0  0
 20 16  1  0  0  0  0
 21 15  1  0  0  0  0
 22 21  1  0  0  0  0
 23 22  1  0  0  0  0
 23 21  1  0  0  0  0
 24 25  1  0  0  0  0
 24 17  1  0  0  0  0
 26 24  1  0  0  0  0
 26 27  1  0  0  0  0
 28 26  2  0  0  0  0
 30 33  2  0  0  0  0
 30 34  1  0  0  0  0
 32 34  1  0  0  0  0
 32 29  2  0  0  0  0
 34 31  1  0  0  0  0
 35 32  1  0  0  0  0
 36 42  2  0  0  0  0
 36 39  1  0  0  0  0
 37 41  2  0  0  0  0
 38 42  1  0  0  0  0
 39 40  2  0  0  0  0
 40 41  1  0  0  0  0
 41 35  1  0  0  0  0
 42 37  1  0  0  0  0
M  END
>  <MODEL>
3

>  <REMARK>
 VINA RESULT:      -7.1      2.854      6.502
  Name = 
  7 active torsions:
  status: ('A' for Active; 'I' for Inactive)
    1  A    between atoms: C_2  and  C_21
    2  A    between atoms: C_10  and  C_23
    3  A    between atoms: C_14  and  C_29
    4  A    between atoms: C_17  and  C_28
    5  A    between atoms: C_19  and  C_21
    6  A    between atoms: O_31  and  C_33
    7  A    between atoms: O_31  and  C_36
                            x       y       z     vdW  Elec       q    Type
                         _______ _______ _______ _____ _____    ______ ____

>  <TORSDO>
F 7

$$$$
=
 OpenBabel11062420003D

 42 47  0  0  1  0  0  0  0  0999 V2000
  189.7710  170.9860  140.5860 N   0  0  0  0  0  2  0  0  0  0  0  0
  192.0700  171.1920  140.3030 C   0  0  0  0  0  2  0  0  0  0  0  0
  190.7670  174.9930  141.8280 C   0  0  2  0  0  3  0  0  0  0  0  0
  192.0540  174.7180  142.5920 C   0  0  1  0  0  3  0  0  0  0  0  0
  187.8720  172.6940  142.0330 C   0  0  0  0  0  1  0  0  0  0  0  0
  189.2310  173.1900  141.5710 C   0  0  2  0  0  3  0  0  0  0  0  0
  190.2330  172.0220  141.4950 C   0  0  2  0  0  3  0  0  0  0  0  0
  192.7530  173.0370  142.2440 S   0  0  0  0  0  0  0  0  0  0  0  0
  190.9170  170.3120  140.1170 N   0  0  0  0  0  0  0  0  0  0  0  0
  191.5750  172.4550  140.9480 C   0  0  1  0  0  3  0  0  0  0  0  0
  189.5270  175.6360  142.4440 C   0  0  1  0  0  3  0  0  0  0  0  0
  189.7700  174.1530  142.6030 C   0  0  2  0  0  3  0  0  0  0  0  0
  190.7440  170.1360  138.6850 C   0  0  0  0  0  1  0  0  0  0  0  0
  188.7060  176.7890  145.9720 C   0  0  0  0  0  2  0  0  0  0  0  0
  187.3650  177.4730  145.6710 C   0  0  1  0  0  3  0  0  0  0  0  0
  189.8450  176.3680  143.7450 C   0  0  2  0  0  3  0  0  0  0  0  0
  187.2150  178.1100  144.2860 C   0  0  0  0  0  0  0  0  0  0  0  0
  189.0540  175.7560  144.9040 C   0  0  0  0  0  2  0  0  0  0  0  0
  188.2220  178.2840  143.4020 C   0  0  0  0  0  3  0  0  0  0  0  0
  189.6550  177.8840  143.5960 C   0  0  0  0  0  2  0  0  0  0  0  0
  186.2140  176.5090  145.9710 C   0  0  0  0  0  3  0  0  0  0  0  0
  185.9120  176.5050  147.4590 C   0  0  0  0  0  2  0  0  0  0  0  0
  185.0230  177.2800  146.5130 C   0  0  0  0  0  2  0  0  0  0  0  0
  185.8650  178.6700  143.9200 C   0  0  1  0  0  3  0  0  0  0  0  0
  185.9410  180.0480  143.7010 O   0  0  0  0  0  1  0  0  0  0  0  0
  185.2800  177.9820  142.7300 C   0  0  0  0  0  0  0  0  0  0  0  0
  184.4330  178.6660  141.8660 O   0  0  0  0  0  0  0  0  0  0  0  0
  185.5660  176.7770  142.5010 O   0  0  0  0  0  1  0  0  0  0  0  0
  196.2730  174.2370  143.3280 O   0  0  0  0  0  0  0  0  0  0  0  0
  193.0900  175.8020  142.4900 C   0  0  0  0  0  0  0  0  0  0  0  0
  195.3770  176.2780  141.6460 C   0  0  0  0  0  1  0  0  0  0  0  0
  195.0950  174.6510  143.5080 C   0  0  0  0  0  0  0  0  0  0  0  0
  192.6920  176.9770  142.2630 O   0  0  0  0  0  0  0  0  0  0  0  0
  194.5040  175.5360  142.5450 N   0  0  0  0  0  0  0  0  0  0  0  0
  194.3650  174.2570  144.6410 O   0  0  0  0  0  0  0  0  0  0  0  0
  192.8880  176.8590  147.5550 N   0  0  0  0  0  0  0  0  0  0  0  0
  192.6530  174.8310  146.3160 C   0  0  0  0  0  3  0  0  0  0  0  0
  191.0000  175.4300  148.0130 N   0  0  0  0  0  1  0  0  0  0  0  0
  194.0350  177.1640  146.8880 C   0  0  0  0  0  3  0  0  0  0  0  0
  194.5260  176.2980  145.9080 C   0  0  0  0  0  3  0  0  0  0  0  0
  193.8340  175.1220  145.6100 C   0  0  0  0  0  0  0  0  0  0  0  0
  192.1920  175.7200  147.2900 C   0  0  0  0  0  0  0  0  0  0  0  0
  1  7  1  0  0  0  0
  2 10  1  0  0  0  0
  3 11  1  0  0  0  0
  3  4  1  0  0  0  0
  3 12  1  0  0  0  0
  6  5  1  0  0  0  0
  6 12  1  0  0  0  0
  7  6  1  0  0  0  0
  8  4  1  0  0  0  0
  9  2  1  0  0  0  0
  9  1  1  0  0  0  0
 10  7  1  0  0  0  0
 10  8  1  0  0  0  0
 11 12  1  0  0  0  0
 11 16  1  0  0  0  0
 13  9  1  0  0  0  0
 15 21  1  0  0  0  0
 15 14  1  0  0  0  0
 16 18  1  0  0  0  0
 17 15  1  0  0  0  0
 18 14  1  0  0  0  0
 19 20  1  0  0  0  0
 19 17  2  0  0  0  0
 20 16  1  0  0  0  0
 21 23  1  0  0  0  0
 21 22  1  0  0  0  0
 23 22  1  0  0  0  0
 24 17  1  0  0  0  0
 25 24  1  0  0  0  0
 26 24  1  0  0  0  0
 27 26  2  0  0  0  0
 28 26  1  0  0  0  0
 29 32  2  0  0  0  0
 30 34  1  0  0  0  0
 30  4  1  0  0  0  0
 31 34  1  0  0  0  0
 32 35  1  0  0  0  0
 33 30  2  0  0  0  0
 34 32  1  0  0  0  0
 35 41  1  0  0  0  0
 37 42  2  0  0  0  0
 39 36  2  0  0  0  0
 40 39  1  0  0  0  0
 41 40  2  0  0  0  0
 41 37  1  0  0  0  0
 42 36  1  0  0  0  0
 42 38  1  0  0  0  0
M  END
>  <MODEL>
4

>  <REMARK>
 VINA RESULT:      -6.8      2.807      7.927
  Name = 
  7 active torsions:
  status: ('A' for Active; 'I' for Inactive)
    1  A    between atoms: C_2  and  C_21
    2  A    between atoms: C_10  and  C_23
    3  A    between atoms: C_14  and  C_29
    4  A    between atoms: C_17  and  C_28
    5  A    between atoms: C_19  and  C_21
    6  A    between atoms: O_31  and  C_33
    7  A    between atoms: O_31  and  C_36
                            x       y       z     vdW  Elec       q    Type
                         _______ _______ _______ _____ _____    ______ ____

>  <TORSDO>
F 7

$$$$
=
 OpenBabel11062420003D

 42 47  0  0  1  0  0  0  0  0999 V2000
  195.9470  175.1460  139.9720 N   0  0  0  0  0  2  0  0  0  0  0  0
  195.9190  173.1100  138.8490 C   0  0  0  0  0  2  0  0  0  0  0  0
  192.7830  172.8370  141.7750 C   0  0  2  0  0  3  0  0  0  0  0  0
  192.1720  172.2140  140.5290 C   0  0  1  0  0  3  0  0  0  0  0  0
  193.9790  176.3410  141.7920 C   0  0  0  0  0  1  0  0  0  0  0  0
  194.0270  174.8510  141.5020 C   0  0  2  0  0  3  0  0  0  0  0  0
  194.6090  174.5930  140.1000 C   0  0  2  0  0  3  0  0  0  0  0  0
  193.2680  172.3520  139.0420 S   0  0  0  0  0  0  0  0  0  0  0  0
  196.6070  174.3940  138.9790 N   0  0  0  0  0  0  0  0  0  0  0  0
  194.7630  173.1180  139.8070 C   0  0  1  0  0  3  0  0  0  0  0  0
  192.0190  173.7310  142.7480 C   0  0  1  0  0  3  0  0  0  0  0  0
  192.6130  174.3160  141.4880 C   0  0  2  0  0  3  0  0  0  0  0  0
  197.9410  174.1110  139.4830 C   0  0  0  0  0  1  0  0  0  0  0  0
  188.4550  175.0450  142.8780 C   0  0  0  0  0  2  0  0  0  0  0  0
  188.4720  175.5790  144.3170 C   0  0  1  0  0  3  0  0  0  0  0  0
  190.5080  173.5810  142.6010 C   0  0  2  0  0  3  0  0  0  0  0  0
  189.3640  174.8340  145.3150 C   0  0  0  0  0  0  0  0  0  0  0  0
  189.8660  174.9400  142.3090 C   0  0  0  0  0  2  0  0  0  0  0  0
  189.9700  173.6500  145.0770 C   0  0  0  0  0  3  0  0  0  0  0  0
  189.8970  172.8540  143.8080 C   0  0  0  0  0  2  0  0  0  0  0  0
  188.7730  177.0800  144.3070 C   0  0  0  0  0  3  0  0  0  0  0  0
  187.6920  177.8240  143.5440 C   0  0  0  0  0  2  0  0  0  0  0  0
  187.6860  177.8290  145.0560 C   0  0  0  0  0  2  0  0  0  0  0  0
  189.4990  175.4180  146.6970 C   0  0  1  0  0  3  0  0  0  0  0  0
  188.9450  174.5650  147.6540 O   0  0  0  0  0  1  0  0  0  0  0  0
  190.9210  175.7290  147.0340 C   0  0  0  0  0  0  0  0  0  0  0  0
  191.6670  176.5790  146.2250 O   0  0  0  0  0  0  0  0  0  0  0  0
  191.4440  175.2280  148.0640 O   0  0  0  0  0  1  0  0  0  0  0  0
  189.8400  170.0040  137.6560 O   0  0  0  0  0  0  0  0  0  0  0  0
  191.6370  170.8220  140.7190 C   0  0  0  0  0  0  0  0  0  0  0  0
  191.3490  168.6400  139.5690 C   0  0  0  0  0  1  0  0  0  0  0  0
  190.0980  170.6200  138.7270 C   0  0  0  0  0  0  0  0  0  0  0  0
  191.7950  170.2800  141.8470 O   0  0  0  0  0  0  0  0  0  0  0  0
  191.0450  170.0620  139.6500 N   0  0  0  0  0  0  0  0  0  0  0  0
  189.4640  171.8380  139.0210 O   0  0  0  0  0  0  0  0  0  0  0  0
  188.8880  174.9470  136.2920 N   0  0  0  0  0  0  0  0  0  0  0  0
  188.1480  173.7620  138.2290 C   0  0  0  0  0  3  0  0  0  0  0  0
  186.8960  175.6990  137.4230 N   0  0  0  0  0  1  0  0  0  0  0  0
  189.9500  174.1060  136.1520 C   0  0  0  0  0  3  0  0  0  0  0  0
  190.1400  173.0620  137.0600 C   0  0  0  0  0  3  0  0  0  0  0  0
  189.2330  172.8780  138.1070 C   0  0  0  0  0  0  0  0  0  0  0  0
  187.9890  174.7960  137.3020 C   0  0  0  0  0  0  0  0  0  0  0  0
  1  7  1  0  0  0  0
  2  9  1  0  0  0  0
  2 10  1  0  0  0  0
  3 11  1  0  0  0  0
  4 30  1  0  0  0  0
  4  3  1  0  0  0  0
  6  5  1  0  0  0  0
  7  6  1  0  0  0  0
  8 10  1  0  0  0  0
  8  4  1  0  0  0  0
  9 13  1  0  0  0  0
  9  1  1  0  0  0  0
 10  7  1  0  0  0  0
 12  6  1  0  0  0  0
 12  3  1  0  0  0  0
 12 11  1  0  0  0  0
 14 15  1  0  0  0  0
 15 17  1  0  0  0  0
 16 11  1  0  0  0  0
 16 20  1  0  0  0  0
 17 24  1  0  0  0  0
 18 16  1  0  0  0  0
 18 14  1  0  0  0  0
 19 17  2  0  0  0  0
 20 19  1  0  0  0  0
 21 15  1  0  0  0  0
 21 23  1  0  0  0  0
 22 21  1  0  0  0  0
 22 23  1  0  0  0  0
 24 26  1  0  0  0  0
 24 25  1  0  0  0  0
 26 28  1  0  0  0  0
 27 26  2  0  0  0  0
 29 32  2  0  0  0  0
 30 33  2  0  0  0  0
 31 34  1  0  0  0  0
 32 35  1  0  0  0  0
 32 34  1  0  0  0  0
 34 30  1  0  0  0  0
 36 42  1  0  0  0  0
 39 36  2  0  0  0  0
 39 40  1  0  0  0  0
 40 41  2  0  0  0  0
 41 37  1  0  0  0  0
 41 35  1  0  0  0  0
 42 38  1  0  0  0  0
 42 37  2  0  0  0  0
M  END
>  <MODEL>
5

>  <REMARK>
 VINA RESULT:      -6.4      3.668      7.448
  Name = 
  7 active torsions:
  status: ('A' for Active; 'I' for Inactive)
    1  A    between atoms: C_2  and  C_21
    2  A    between atoms: C_10  and  C_23
    3  A    between atoms: C_14  and  C_29
    4  A    between atoms: C_17  and  C_28
    5  A    between atoms: C_19  and  C_21
    6  A    between atoms: O_31  and  C_33
    7  A    between atoms: O_31  and  C_36
                            x       y       z     vdW  Elec       q    Type
                         _______ _______ _______ _____ _____    ______ ____

>  <TORSDO>
F 7

$$$$
=
 OpenBabel11062420003D

 42 47  0  0  1  0  0  0  0  0999 V2000
  190.5210  170.7580  142.1390 N   0  0  0  0  0  2  0  0  0  0  0  0
  192.5650  170.2790  143.1410 C   0  0  0  0  0  2  0  0  0  0  0  0
  192.3320  174.5690  143.0260 C   0  0  2  0  0  3  0  0  0  0  0  0
  192.9000  174.2730  144.4060 C   0  0  1  0  0  3  0  0  0  0  0  0
  189.0230  173.2760  141.9840 C   0  0  0  0  0  1  0  0  0  0  0  0
  190.5130  173.2270  142.2730 C   0  0  2  0  0  3  0  0  0  0  0  0
  190.8850  171.9000  142.9610 C   0  0  2  0  0  3  0  0  0  0  0  0
  192.9520  172.4620  144.7910 S   0  0  0  0  0  0  0  0  0  0  0  0
  191.3830  169.7020  142.5010 N   0  0  0  0  0  0  0  0  0  0  0  0
  192.3750  171.7680  143.1810 C   0  0  1  0  0  3  0  0  0  0  0  0
  191.3170  175.6720  142.7360 C   0  0  1  0  0  3  0  0  0  0  0  0
  190.8520  174.3290  143.2510 C   0  0  2  0  0  3  0  0  0  0  0  0
  191.8290  169.0800  141.2660 C   0  0  0  0  0  1  0  0  0  0  0  0
  189.7500  177.2760  145.8050 C   0  0  0  0  0  2  0  0  0  0  0  0
  188.3450  177.5150  145.2320 C   0  0  1  0  0  3  0  0  0  0  0  0
  191.2660  176.7130  143.8500 C   0  0  2  0  0  3  0  0  0  0  0  0
  188.2550  177.7920  143.7290 C   0  0  0  0  0  0  0  0  0  0  0  0
  190.4770  176.1710  145.0460 C   0  0  0  0  0  2  0  0  0  0  0  0
  189.3120  178.0330  142.9220 C   0  0  0  0  0  3  0  0  0  0  0  0
  190.7540  178.0640  143.3320 C   0  0  0  0  0  2  0  0  0  0  0  0
  187.4170  176.3710  145.6480 C   0  0  0  0  0  3  0  0  0  0  0  0
  186.9900  176.5450  147.0950 C   0  0  0  0  0  2  0  0  0  0  0  0
  186.0400  176.9190  145.9800 C   0  0  0  0  0  2  0  0  0  0  0  0
  186.8800  177.8980  143.1220 C   0  0  1  0  0  3  0  0  0  0  0  0
  186.6570  179.1800  142.6160 O   0  0  0  0  0  1  0  0  0  0  0  0
  186.6580  176.8700  142.0610 C   0  0  0  0  0  0  0  0  0  0  0  0
  186.3920  177.2540  140.7520 O   0  0  0  0  0  0  0  0  0  0  0  0
  186.7270  175.6470  142.3510 O   0  0  0  0  0  1  0  0  0  0  0  0
  196.0920  174.9720  141.5960 O   0  0  0  0  0  0  0  0  0  0  0  0
  194.2010  174.9620  144.7110 C   0  0  0  0  0  0  0  0  0  0  0  0
  195.8100  176.6330  143.8230 C   0  0  0  0  0  1  0  0  0  0  0  0
  195.5060  174.4850  142.6020 C   0  0  0  0  0  0  0  0  0  0  0  0
  194.4300  175.2830  145.9090 O   0  0  0  0  0  0  0  0  0  0  0  0
  195.1370  175.3480  143.6880 N   0  0  0  0  0  0  0  0  0  0  0  0
  195.2180  173.1120  142.6660 O   0  0  0  0  0  0  0  0  0  0  0  0
  197.9410  170.2150  143.9480 N   0  0  0  0  0  0  0  0  0  0  0  0
  196.1720  170.8500  142.4740 C   0  0  0  0  0  3  0  0  0  0  0  0
  197.1760  168.6290  142.3010 N   0  0  0  0  0  1  0  0  0  0  0  0
  197.9010  171.4310  144.5600 C   0  0  0  0  0  3  0  0  0  0  0  0
  196.9870  172.3980  144.1370 C   0  0  0  0  0  3  0  0  0  0  0  0
  196.1080  172.1120  143.0890 C   0  0  0  0  0  0  0  0  0  0  0  0
  197.1010  169.9070  142.9230 C   0  0  0  0  0  0  0  0  0  0  0  0
  1  9  1  0  0  0  0
  1  7  1  0  0  0  0
  2 10  1  0  0  0  0
  3 12  1  0  0  0  0
  3  4  1  0  0  0  0
  4 30  1  0  0  0  0
  4  8  1  0  0  0  0
  5  6  1  0  0  0  0
  6  7  1  0  0  0  0
  6 12  1  0  0  0  0
  7 10  1  0  0  0  0
  9  2  1  0  0  0  0
 10  8  1  0  0  0  0
 11  3  1  0  0  0  0
 11 12  1  0  0  0  0
 11 16  1  0  0  0  0
 13  9  1  0  0  0  0
 15 21  1  0  0  0  0
 15 14  1  0  0  0  0
 16 18  1  0  0  0  0
 17 15  1  0  0  0  0
 18 14  1  0  0  0  0
 19 20  1  0  0  0  0
 19 17  2  0  0  0  0
 20 16  1  0  0  0  0
 21 23  1  0  0  0  0
 21 22  1  0  0  0  0
 23 22  1  0  0  0  0
 24 17  1  0  0  0  0
 25 24  1  0  0  0  0
 26 28  1  0  0  0  0
 26 24  1  0  0  0  0
 27 26  2  0  0  0  0
 29 32  2  0  0  0  0
 30 33  2  0  0  0  0
 32 35  1  0  0  0  0
 32 34  1  0  0  0  0
 34 31  1  0  0  0  0
 34 30  1  0  0  0  0
 35 41  1  0  0  0  0
 36 39  1  0  0  0  0
 37 42  1  0  0  0  0
 37 41  2  0  0  0  0
 38 42  1  0  0  0  0
 40 39  2  0  0  0  0
 41 40  1  0  0  0  0
 42 36  2  0  0  0  0
M  END
>  <MODEL>
6

>  <REMARK>
 VINA RESULT:      -6.3      3.222      7.556
  Name = 
  7 active torsions:
  status: ('A' for Active; 'I' for Inactive)
    1  A    between atoms: C_2  and  C_21
    2  A    between atoms: C_10  and  C_23
    3  A    between atoms: C_14  and  C_29
    4  A    between atoms: C_17  and  C_28
    5  A    between atoms: C_19  and  C_21
    6  A    between atoms: O_31  and  C_33
    7  A    between atoms: O_31  and  C_36
                            x       y       z     vdW  Elec       q    Type
                         _______ _______ _______ _____ _____    ______ ____

>  <TORSDO>
F 7

$$$$
=
 OpenBabel11062420003D

 42 47  0  0  1  0  0  0  0  0999 V2000
  187.4160  176.4230  140.6800 N   0  0  0  0  0  2  0  0  0  0  0  0
  187.5200  178.1920  142.1860 C   0  0  0  0  0  2  0  0  0  0  0  0
  189.8130  175.0330  143.9840 C   0  0  2  0  0  3  0  0  0  0  0  0
  190.6450  176.2800  144.2460 C   0  0  1  0  0  3  0  0  0  0  0  0
  188.9900  173.9500  140.5410 C   0  0  0  0  0  1  0  0  0  0  0  0
  188.8710  174.7740  141.8110 C   0  0  2  0  0  3  0  0  0  0  0  0
  188.6240  176.2550  141.4710 C   0  0  2  0  0  3  0  0  0  0  0  0
  189.9590  177.7900  143.4210 S   0  0  0  0  0  0  0  0  0  0  0  0
  186.9470  177.7300  140.9220 N   0  0  0  0  0  0  0  0  0  0  0  0
  188.4050  177.0970  142.7080 C   0  0  1  0  0  3  0  0  0  0  0  0
  190.4010  173.6720  143.6230 C   0  0  1  0  0  3  0  0  0  0  0  0
  190.1880  174.7140  142.5500 C   0  0  2  0  0  3  0  0  0  0  0  0
  185.5110  177.6310  141.1180 C   0  0  0  0  0  1  0  0  0  0  0  0
  194.0660  173.1500  142.7620 C   0  0  0  0  0  2  0  0  0  0  0  0
  193.9310  171.7960  142.0500 C   0  0  1  0  0  3  0  0  0  0  0  0
  191.8810  173.5720  143.9800 C   0  0  2  0  0  3  0  0  0  0  0  0
  192.8160  170.8690  142.5440 C   0  0  0  0  0  0  0  0  0  0  0  0
  192.7430  173.9100  142.7610 C   0  0  0  0  0  2  0  0  0  0  0  0
  192.0850  171.0660  143.6630 C   0  0  0  0  0  3  0  0  0  0  0  0
  192.2130  172.2160  144.6170 C   0  0  0  0  0  2  0  0  0  0  0  0
  193.8510  172.0130  140.5380 C   0  0  0  0  0  3  0  0  0  0  0  0
  195.1350  172.6490  140.0330 C   0  0  0  0  0  2  0  0  0  0  0  0
  194.9010  171.1680  139.8390 C   0  0  0  0  0  2  0  0  0  0  0  0
  192.5810  169.5940  141.7760 C   0  0  1  0  0  3  0  0  0  0  0  0
  192.9760  168.4830  142.5240 O   0  0  0  0  0  1  0  0  0  0  0  0
  191.1560  169.4570  141.3470 C   0  0  0  0  0  0  0  0  0  0  0  0
  190.4410  168.3010  141.6370 O   0  0  0  0  0  1  0  0  0  0  0  0
  190.5960  170.4000  140.7300 O   0  0  0  0  0  0  0  0  0  0  0  0
  188.4980  174.6810  147.6240 O   0  0  0  0  0  0  0  0  0  0  0  0
  190.9820  176.5190  145.6910 C   0  0  0  0  0  0  0  0  0  0  0  0
  191.1890  175.3790  147.8880 C   0  0  0  0  0  1  0  0  0  0  0  0
  188.9440  175.5530  146.8280 C   0  0  0  0  0  0  0  0  0  0  0  0
  191.9110  177.3310  145.9520 O   0  0  0  0  0  0  0  0  0  0  0  0
  190.3570  175.7950  146.7670 N   0  0  0  0  0  0  0  0  0  0  0  0
  188.0690  176.2880  146.0110 O   0  0  0  0  0  0  0  0  0  0  0  0
  184.8620  178.6520  147.2660 N   0  0  0  0  0  0  0  0  0  0  0  0
  187.2130  178.2310  147.2580 C   0  0  0  0  0  3  0  0  0  0  0  0
  186.3170  180.1660  148.4520 N   0  0  0  0  0  1  0  0  0  0  0  0
  184.6370  177.5510  146.4960 C   0  0  0  0  0  3  0  0  0  0  0  0
  185.7080  176.7560  146.0820 C   0  0  0  0  0  3  0  0  0  0  0  0
  187.0100  177.0890  146.4650 C   0  0  0  0  0  0  0  0  0  0  0  0
  186.1180  179.0040  147.6540 C   0  0  0  0  0  0  0  0  0  0  0  0
  1  9  1  0  0  0  0
  1  7  1  0  0  0  0
  2 10  1  0  0  0  0
  3  4  1  0  0  0  0
  4 30  1  0  0  0  0
  5  6  1  0  0  0  0
  6 12  1  0  0  0  0
  7  6  1  0  0  0  0
  7 10  1  0  0  0  0
  8  4  1  0  0  0  0
  9 13  1  0  0  0  0
  9  2  1  0  0  0  0
 10  8  1  0  0  0  0
 11 16  1  0  0  0  0
 11  3  1  0  0  0  0
 12 11  1  0  0  0  0
 12  3  1  0  0  0  0
 15 17  1  0  0  0  0
 15 14  1  0  0  0  0
 16 20  1  0  0  0  0
 17 19  2  0  0  0  0
 18 14  1  0  0  0  0
 18 16  1  0  0  0  0
 19 20  1  0  0  0  0
 21 15  1  0  0  0  0
 22 21  1  0  0  0  0
 23 22  1  0  0  0  0
 23 21  1  0  0  0  0
 24 25  1  0  0  0  0
 24 17  1  0  0  0  0
 26 27  1  0  0  0  0
 26 24  1  0  0  0  0
 28 26  2  0  0  0  0
 30 33  2  0  0  0  0
 30 34  1  0  0  0  0
 32 29  2  0  0  0  0
 34 32  1  0  0  0  0
 34 31  1  0  0  0  0
 35 41  1  0  0  0  0
 35 32  1  0  0  0  0
 36 42  1  0  0  0  0
 37 42  2  0  0  0  0
 39 36  2  0  0  0  0
 40 41  2  0  0  0  0
 40 39  1  0  0  0  0
 41 37  1  0  0  0  0
 42 38  1  0  0  0  0
M  END
>  <MODEL>
7

>  <REMARK>
 VINA RESULT:      -6.2      2.895      7.111
  Name = 
  7 active torsions:
  status: ('A' for Active; 'I' for Inactive)
    1  A    between atoms: C_2  and  C_21
    2  A    between atoms: C_10  and  C_23
    3  A    between atoms: C_14  and  C_29
    4  A    between atoms: C_17  and  C_28
    5  A    between atoms: C_19  and  C_21
    6  A    between atoms: O_31  and  C_33
    7  A    between atoms: O_31  and  C_36
                            x       y       z     vdW  Elec       q    Type
                         _______ _______ _______ _____ _____    ______ ____

>  <TORSDO>
F 7

$$$$
=
 OpenBabel11062420003D

 42 47  0  0  1  0  0  0  0  0999 V2000
  195.7390  175.7600  140.9710 N   0  0  0  0  0  2  0  0  0  0  0  0
  196.2440  173.6470  140.1430 C   0  0  0  0  0  2  0  0  0  0  0  0
  192.8880  173.0690  142.7650 C   0  0  2  0  0  3  0  0  0  0  0  0
  192.5660  172.1920  141.5640 C   0  0  1  0  0  3  0  0  0  0  0  0
  193.3710  176.7230  142.4120 C   0  0  0  0  0  1  0  0  0  0  0  0
  193.7420  175.2520  142.3370 C   0  0  2  0  0  3  0  0  0  0  0  0
  194.5280  174.9600  141.0460 C   0  0  2  0  0  3  0  0  0  0  0  0
  193.7870  172.3810  140.1840 S   0  0  0  0  0  0  0  0  0  0  0  0
  196.6490  175.0520  140.1600 N   0  0  0  0  0  0  0  0  0  0  0  0
  195.0000  173.5250  140.9760 C   0  0  1  0  0  3  0  0  0  0  0  0
  191.8530  173.8910  143.5280 C   0  0  1  0  0  3  0  0  0  0  0  0
  192.4710  174.4370  142.2610 C   0  0  2  0  0  3  0  0  0  0  0  0
  197.9410  175.1130  140.8230 C   0  0  0  0  0  1  0  0  0  0  0  0
  188.2630  174.4090  142.3920 C   0  0  0  0  0  2  0  0  0  0  0  0
  187.9160  175.5970  143.3010 C   0  0  1  0  0  3  0  0  0  0  0  0
  190.4290  173.4140  143.2590 C   0  0  2  0  0  3  0  0  0  0  0  0
  188.6140  175.6440  144.6640 C   0  0  0  0  0  0  0  0  0  0  0  0
  189.7700  174.2880  142.1890 C   0  0  0  0  0  2  0  0  0  0  0  0
  189.3440  174.6390  145.1940 C   0  0  0  0  0  3  0  0  0  0  0  0
  189.6190  173.3080  144.5590 C   0  0  0  0  0  2  0  0  0  0  0  0
  188.0990  176.9070  142.5310 C   0  0  0  0  0  3  0  0  0  0  0  0
  186.9530  177.1030  141.5550 C   0  0  0  0  0  2  0  0  0  0  0  0
  186.9660  177.8620  142.8620 C   0  0  0  0  0  2  0  0  0  0  0  0
  188.3910  176.8660  145.5170 C   0  0  1  0  0  3  0  0  0  0  0  0
  187.6180  176.5550  146.6380 O   0  0  0  0  0  1  0  0  0  0  0  0
  189.6800  177.5010  145.9280 C   0  0  0  0  0  0  0  0  0  0  0  0
  190.0490  177.5420  147.2670 O   0  0  0  0  0  1  0  0  0  0  0  0
  190.4420  177.9910  145.0540 O   0  0  0  0  0  0  0  0  0  0  0  0
  190.6800  169.3330  138.9480 O   0  0  0  0  0  0  0  0  0  0  0  0
  192.2910  170.7510  141.8930 C   0  0  0  0  0  0  0  0  0  0  0  0
  192.4070  168.4530  140.9580 C   0  0  0  0  0  1  0  0  0  0  0  0
  190.8190  170.0840  139.9520 C   0  0  0  0  0  0  0  0  0  0  0  0
  192.5430  170.3570  143.0640 O   0  0  0  0  0  0  0  0  0  0  0  0
  191.8490  169.7980  140.9100 N   0  0  0  0  0  0  0  0  0  0  0  0
  189.9740  171.1900  140.1400 O   0  0  0  0  0  0  0  0  0  0  0  0
  189.1760  174.1730  137.3260 N   0  0  0  0  0  0  0  0  0  0  0  0
  190.7450  172.6850  138.3410 C   0  0  0  0  0  3  0  0  0  0  0  0
  191.4520  174.1640  136.5290 N   0  0  0  0  0  1  0  0  0  0  0  0
  188.1840  173.7250  138.1450 C   0  0  0  0  0  3  0  0  0  0  0  0
  188.4510  172.7330  139.0900 C   0  0  0  0  0  3  0  0  0  0  0  0
  189.7400  172.2060  139.1990 C   0  0  0  0  0  0  0  0  0  0  0  0
  190.4410  173.6780  137.4060 C   0  0  0  0  0  0  0  0  0  0  0  0
  1  7  1  0  0  0  0
  2  9  1  0  0  0  0
  2 10  1  0  0  0  0
  3 11  1  0  0  0  0
  4 30  1  0  0  0  0
  4  3  1  0  0  0  0
  6  5  1  0  0  0  0
  7  6  1  0  0  0  0
  8 10  1  0  0  0  0
  8  4  1  0  0  0  0
  9 13  1  0  0  0  0
  9  1  1  0  0  0  0
 10  7  1  0  0  0  0
 12  6  1  0  0  0  0
 12  3  1  0  0  0  0
 12 11  1  0  0  0  0
 14 15  1  0  0  0  0
 15 17  1  0  0  0  0
 16 11  1  0  0  0  0
 16 20  1  0  0  0  0
 17 19  2  0  0  0  0
 17 24  1  0  0  0  0
 18 14  1  0  0  0  0
 18 16  1  0  0  0  0
 20 19  1  0  0  0  0
 21 23  1  0  0  0  0
 21 15  1  0  0  0  0
 22 21  1  0  0  0  0
 22 23  1  0  0  0  0
 24 26  1  0  0  0  0
 24 25  1  0  0  0  0
 26 27  1  0  0  0  0
 28 26  2  0  0  0  0
 29 32  2  0  0  0  0
 30 33  2  0  0  0  0
 32 35  1  0  0  0  0
 32 34  1  0  0  0  0
 34 31  1  0  0  0  0
 34 30  1  0  0  0  0
 36 42  2  0  0  0  0
 36 39  1  0  0  0  0
 37 41  2  0  0  0  0
 38 42  1  0  0  0  0
 39 40  2  0  0  0  0
 40 41  1  0  0  0  0
 41 35  1  0  0  0  0
 42 37  1  0  0  0  0
M  END
>  <MODEL>
8

>  <REMARK>
 VINA RESULT:      -6.1      3.797      7.344
  Name = 
  7 active torsions:
  status: ('A' for Active; 'I' for Inactive)
    1  A    between atoms: C_2  and  C_21
    2  A    between atoms: C_10  and  C_23
    3  A    between atoms: C_14  and  C_29
    4  A    between atoms: C_17  and  C_28
    5  A    between atoms: C_19  and  C_21
    6  A    between atoms: O_31  and  C_33
    7  A    between atoms: O_31  and  C_36
                            x       y       z     vdW  Elec       q    Type
                         _______ _______ _______ _____ _____    ______ ____

>  <TORSDO>
F 7

$$$$
=
 OpenBabel11062420003D

 42 47  0  0  1  0  0  0  0  0999 V2000
  186.6850  177.1950  142.7910 N   0  0  0  0  0  2  0  0  0  0  0  0
  187.4880  178.0800  144.7860 C   0  0  0  0  0  2  0  0  0  0  0  0
  190.1150  174.8080  143.8530 C   0  0  2  0  0  3  0  0  0  0  0  0
  191.0560  175.9030  144.3350 C   0  0  1  0  0  3  0  0  0  0  0  0
  187.9190  175.3070  140.9140 C   0  0  0  0  0  1  0  0  0  0  0  0
  188.3680  175.4360  142.3590 C   0  0  2  0  0  3  0  0  0  0  0  0
  188.0960  176.8580  142.8830 C   0  0  2  0  0  3  0  0  0  0  0  0
  190.1900  177.5090  144.6530 S   0  0  0  0  0  0  0  0  0  0  0  0
  186.4310  178.1670  143.7800 N   0  0  0  0  0  0  0  0  0  0  0  0
  188.4410  177.0040  144.3480 C   0  0  1  0  0  3  0  0  0  0  0  0
  190.4270  173.8590  142.6990 C   0  0  1  0  0  3  0  0  0  0  0  0
  189.8650  175.2340  142.4190 C   0  0  2  0  0  3  0  0  0  0  0  0
  185.1900  177.7880  144.4340 C   0  0  0  0  0  1  0  0  0  0  0  0
  193.3770  173.9790  140.3060 C   0  0  0  0  0  2  0  0  0  0  0  0
  192.9240  172.8690  139.3470 C   0  0  1  0  0  3  0  0  0  0  0  0
  191.9170  173.8180  142.3740 C   0  0  2  0  0  3  0  0  0  0  0  0
  192.0990  171.7310  139.9550 C   0  0  0  0  0  0  0  0  0  0  0  0
  192.1950  174.5680  141.0690 C   0  0  0  0  0  2  0  0  0  0  0  0
  191.9100  171.5330  141.2780 C   0  0  0  0  0  3  0  0  0  0  0  0
  192.4550  172.3810  142.3890 C   0  0  0  0  0  2  0  0  0  0  0  0
  192.2210  173.4880  138.1360 C   0  0  0  0  0  3  0  0  0  0  0  0
  193.2040  174.3190  137.3300 C   0  0  0  0  0  2  0  0  0  0  0  0
  192.8200  172.9360  136.8540 C   0  0  0  0  0  2  0  0  0  0  0  0
  191.5330  170.7020  139.0110 C   0  0  1  0  0  3  0  0  0  0  0  0
  191.8350  169.4090  139.4460 O   0  0  0  0  0  1  0  0  0  0  0  0
  190.0580  170.8630  138.8300 C   0  0  0  0  0  0  0  0  0  0  0  0
  189.3900  171.9340  139.4120 O   0  0  0  0  0  1  0  0  0  0  0  0
  189.4180  170.0300  138.1360 O   0  0  0  0  0  0  0  0  0  0  0  0
  194.8900  177.6540  145.2340 O   0  0  0  0  0  0  0  0  0  0  0  0
  191.9570  175.5030  145.4700 C   0  0  0  0  0  0  0  0  0  0  0  0
  193.4110  176.4270  147.2600 C   0  0  0  0  0  1  0  0  0  0  0  0
  194.0630  176.7680  144.8820 C   0  0  0  0  0  0  0  0  0  0  0  0
  191.6180  174.5100  146.1680 O   0  0  0  0  0  0  0  0  0  0  0  0
  193.1240  176.2590  145.8410 N   0  0  0  0  0  0  0  0  0  0  0  0
  194.0590  176.2770  143.5670 O   0  0  0  0  0  0  0  0  0  0  0  0
  197.3330  174.7670  141.4570 N   0  0  0  0  0  0  0  0  0  0  0  0
  195.7290  174.5030  143.2060 C   0  0  0  0  0  3  0  0  0  0  0  0
  197.3850  172.7560  142.7860 N   0  0  0  0  0  1  0  0  0  0  0  0
  196.8100  175.9810  141.1270 C   0  0  0  0  0  3  0  0  0  0  0  0
  195.7210  176.4900  141.8360 C   0  0  0  0  0  3  0  0  0  0  0  0
  195.1720  175.7540  142.8890 C   0  0  0  0  0  0  0  0  0  0  0  0
  196.8190  174.0250  142.4750 C   0  0  0  0  0  0  0  0  0  0  0  0
  1  7  1  0  0  0  0
  1  9  1  0  0  0  0
  3  4  1  0  0  0  0
  4  8  1  0  0  0  0
  4 30  1  0  0  0  0
  5  6  1  0  0  0  0
  6 12  1  0  0  0  0
  6  7  1  0  0  0  0
  7 10  1  0  0  0  0
  9 13  1  0  0  0  0
  9  2  1  0  0  0  0
 10  8  1  0  0  0  0
 10  2  1  0  0  0  0
 11  3  1  0  0  0  0
 12 11  1  0  0  0  0
 12  3  1  0  0  0  0
 14 18  1  0  0  0  0
 15 17  1  0  0  0  0
 15 14  1  0  0  0  0
 16 20  1  0  0  0  0
 16 11  1  0  0  0  0
 17 19  2  0  0  0  0
 18 16  1  0  0  0  0
 19 20  1  0  0  0  0
 21 15  1  0  0  0  0
 22 21  1  0  0  0  0
 23 22  1  0  0  0  0
 23 21  1  0  0  0  0
 24 25  1  0  0  0  0
 24 17  1  0  0  0  0
 26 24  1  0  0  0  0
 26 27  1  0  0  0  0
 28 26  2  0  0  0  0
 30 34  1  0  0  0  0
 30 33  2  0  0  0  0
 32 29  2  0  0  0  0
 32 34  1  0  0  0  0
 34 31  1  0  0  0  0
 35 32  1  0  0  0  0
 36 42  1  0  0  0  0
 39 36  2  0  0  0  0
 39 40  1  0  0  0  0
 40 41  2  0  0  0  0
 41 37  1  0  0  0  0
 41 35  1  0  0  0  0
 42 38  1  0  0  0  0
 42 37  2  0  0  0  0
M  END
>  <MODEL>
9

>  <REMARK>
 VINA RESULT:      -6.1      2.954      6.554
  Name = 
  7 active torsions:
  status: ('A' for Active; 'I' for Inactive)
    1  A    between atoms: C_2  and  C_21
    2  A    between atoms: C_10  and  C_23
    3  A    between atoms: C_14  and  C_29
    4  A    between atoms: C_17  and  C_28
    5  A    between atoms: C_19  and  C_21
    6  A    between atoms: O_31  and  C_33
    7  A    between atoms: O_31  and  C_36
                            x       y       z     vdW  Elec       q    Type
                         _______ _______ _______ _____ _____    ______ ____

>  <TORSDO>
F 7

$$$$
