=
 OpenBabel11062419273D

 38 43  0  0  1  0  0  0  0  0999 V2000
  190.0300  171.7930  140.5090 O   0  0  0  0  0  0  0  0  0  0  0  0
  189.4230  172.6880  139.5770 C   0  0  1  0  0  0  0  0  0  0  0  0
  189.6070  173.1730  142.3600 N   0  0  0  0  0  0  0  0  0  0  0  0
  190.4360  173.5750  139.0280 N   0  0  0  0  0  1  0  0  0  0  0  0
  188.9250  174.1590  141.5220 C   0  0  1  0  0  3  0  0  0  0  0  0
  190.1500  172.0980  141.8710 C   0  0  0  0  0  0  0  0  0  0  0  0
  188.8520  171.9540  138.5390 O   0  0  0  0  0  1  0  0  0  0  0  0
  188.3390  173.5080  140.2700 C   0  0  0  0  0  2  0  0  0  0  0  0
  187.8190  174.8480  142.3130 C   0  0  0  0  0  2  0  0  0  0  0  0
  188.3340  176.0240  143.1590 C   0  0  1  0  0  3  0  0  0  0  0  0
  189.5530  178.1880  143.1510 C   0  0  0  0  0  2  0  0  0  0  0  0
  189.2550  176.9350  142.3490 C   0  0  0  0  0  3  0  0  0  0  0  0
  190.5860  177.0870  143.0610 C   0  0  0  0  0  2  0  0  0  0  0  0
  187.1690  176.7990  143.7970 C   0  0  2  0  0  3  0  0  0  0  0  0
  186.9280  176.3720  145.1060 O   0  0  0  0  0  1  0  0  0  0  0  0
  185.8870  176.6870  142.9690 C   0  0  0  0  0  2  0  0  0  0  0  0
  184.1960  177.9510  141.7860 O   0  0  0  0  0  0  0  0  0  0  0  0
  184.2220  178.4310  143.1060 C   0  0  2  0  0  3  0  0  0  0  0  0
  185.5180  179.1480  143.3950 C   0  0  0  0  0  2  0  0  0  0  0  0
  185.4620  178.0270  142.3880 C   0  0  1  0  0  0  0  0  0  0  0  0
  190.8780  171.1670  142.7760 C   0  0  0  0  0  2  0  0  0  0  0  0
  192.3470  171.1320  142.3960 C   0  0  0  0  0  2  0  0  0  0  0  0
  192.2590  172.3600  144.5560 C   0  0  0  0  0  2  0  0  0  0  0  0
  193.3230  174.1770  143.5830 C   0  0  0  0  0  0  0  0  0  0  0  0
  192.4470  173.8450  144.5120 C   0  0  0  0  0  0  0  0  0  0  0  0
  193.1850  171.8370  143.4500 C   0  0  2  0  0  3  0  0  0  0  0  0
  194.8790  173.0390  141.9200 C   0  0  0  0  0  1  0  0  0  0  0  0
  193.8050  173.0340  142.8980 N   0  0  0  0  0  0  0  0  0  0  0  0
  190.3400  174.4270  145.7110 C   0  0  0  0  0  2  0  0  0  0  0  0
  189.5450  177.4070  146.6080 O   0  0  0  0  0  0  0  0  0  0  0  0
  189.6910  175.0740  146.9400 C   0  0  0  0  0  2  0  0  0  0  0  0
  192.6320  176.3940  147.2040 C   0  0  0  0  0  2  0  0  0  0  0  0
  192.6450  174.9420  146.7300 C   0  0  0  0  0  2  0  0  0  0  0  0
  191.8090  174.8120  145.4590 C   0  0  1  0  0  3  0  0  0  0  0  0
  191.3580  176.7450  147.9720 C   0  0  0  0  0  2  0  0  0  0  0  0
  190.1330  176.4860  147.1510 C   0  0  0  0  0  0  0  0  0  0  0  0
  193.8290  175.5610  143.3400 C   0  0  0  0  0  2  0  0  0  0  0  0
  194.9690  175.7860  144.1130 O   0  0  0  0  0  1  0  0  0  0  0  0
  1  6  1  0  0  0  0
  2  7  1  6  0  0  0
  2  8  1  0  0  0  0
  2  1  1  0  0  0  0
  4  2  1  0  0  0  0
  5  9  1  1  0  0  0
  5  3  1  0  0  0  0
  6  3  2  0  0  0  0
  6 21  1  0  0  0  0
  8  5  1  0  0  0  0
 10  9  1  6  0  0  0
 10 14  1  0  0  0  0
 12 13  1  0  0  0  0
 12 11  1  0  0  0  0
 12 10  1  0  0  0  0
 13 11  1  0  0  0  0
 14 15  1  1  0  0  0
 16 14  1  0  0  0  0
 17 20  1  0  0  0  0
 17 18  1  0  0  0  0
 18 19  1  6  0  0  0
 20 16  1  1  0  0  0
 20 18  1  0  0  0  0
 20 19  1  0  0  0  0
 22 21  1  0  0  0  0
 24 25  2  0  0  0  0
 25 23  1  0  0  0  0
 26 22  1  6  0  0  0
 26 23  1  0  0  0  0
 27 28  1  0  0  0  0
 28 26  1  0  0  0  0
 28 24  1  0  0  0  0
 29 31  1  0  0  0  0
 30 36  2  0  0  0  0
 31 36  1  0  0  0  0
 32 35  1  0  0  0  0
 33 32  1  0  0  0  0
 34 25  1  6  0  0  0
 34 29  1  0  0  0  0
 34 33  1  0  0  0  0
 36 35  1  0  0  0  0
 37 24  1  0  0  0  0
 37 38  1  0  0  0  0
M  END
>  <MODEL>
1

>  <REMARK>
 VINA RESULT:      -6.6      0.000      0.000
  Name = 
  11 active torsions:
  status: ('A' for Active; 'I' for Inactive)
    1  A    between atoms: C_4  and  C_14
    2  A    between atoms: C_4  and  C_35
    3  A    between atoms: C_10  and  C_24
    4  A    between atoms: C_10  and  C_30
    5  A    between atoms: C_14  and  C_17
    6  A    between atoms: C_15  and  C_25
    7  A    between atoms: C_16  and  C_17
    8  A    between atoms: C_17  and  C_22
    9  A    between atoms: C_18  and  C_20
   10  A    between atoms: C_22  and  C_28
   11  A    between atoms: C_30  and  C_32
                            x       y       z     vdW  Elec       q    Type
                         _______ _______ _______ _____ _____    ______ ____

>  <TORSDO>
F 11

$$$$
=
 OpenBabel11062419273D

 38 43  0  0  1  0  0  0  0  0999 V2000
  189.2870  173.8440  144.1140 O   0  0  0  0  0  0  0  0  0  0  0  0
  189.6840  173.3340  142.8410 C   0  0  1  0  0  0  0  0  0  0  0  0
  191.4500  173.7340  145.0180 N   0  0  0  0  0  0  0  0  0  0  0  0
  189.5160  171.8890  142.8250 N   0  0  0  0  0  1  0  0  0  0  0  0
  191.9980  173.2390  143.7550 C   0  0  1  0  0  3  0  0  0  0  0  0
  190.1830  173.9740  145.1830 C   0  0  0  0  0  0  0  0  0  0  0  0
  188.8830  173.8950  141.8490 O   0  0  0  0  0  1  0  0  0  0  0  0
  191.1440  173.6870  142.5700 C   0  0  0  0  0  2  0  0  0  0  0  0
  193.4310  173.7270  143.5750 C   0  0  0  0  0  2  0  0  0  0  0  0
  194.3310  173.3900  144.7750 C   0  0  1  0  0  3  0  0  0  0  0  0
  196.0030  171.8210  145.7290 C   0  0  0  0  0  2  0  0  0  0  0  0
  195.0130  172.0330  144.5990 C   0  0  0  0  0  3  0  0  0  0  0  0
  194.6610  171.1250  145.7630 C   0  0  0  0  0  2  0  0  0  0  0  0
  195.3440  174.5170  145.0400 C   0  0  2  0  0  3  0  0  0  0  0  0
  195.0800  175.1650  146.2510 O   0  0  0  0  0  1  0  0  0  0  0  0
  195.3750  175.5360  143.9000 C   0  0  0  0  0  2  0  0  0  0  0  0
  196.2640  175.1330  141.6850 O   0  0  0  0  0  0  0  0  0  0  0  0
  196.5570  176.4680  142.0120 C   0  0  2  0  0  3  0  0  0  0  0  0
  197.5610  176.5420  143.1360 C   0  0  0  0  0  2  0  0  0  0  0  0
  196.6090  175.3780  143.0240 C   0  0  1  0  0  0  0  0  0  0  0  0
  189.6880  174.4220  146.5130 C   0  0  0  0  0  2  0  0  0  0  0  0
  190.7250  175.3160  147.1670 C   0  0  0  0  0  2  0  0  0  0  0  0
  188.9390  176.9670  146.6510 C   0  0  0  0  0  2  0  0  0  0  0  0
  189.9950  177.5090  144.6580 C   0  0  0  0  0  0  0  0  0  0  0  0
  188.8100  177.4200  145.2290 C   0  0  0  0  0  0  0  0  0  0  0  0
  190.4490  176.7750  146.8420 C   0  0  2  0  0  3  0  0  0  0  0  0
  192.4510  177.2550  145.2850 C   0  0  0  0  0  1  0  0  0  0  0  0
  191.0280  177.1330  145.5540 N   0  0  0  0  0  0  0  0  0  0  0  0
  187.0320  176.6990  143.6370 C   0  0  0  0  0  2  0  0  0  0  0  0
  185.2410  178.7260  141.9030 O   0  0  0  0  0  0  0  0  0  0  0  0
  185.5600  176.7900  143.2180 C   0  0  0  0  0  2  0  0  0  0  0  0
  185.6830  179.4160  145.1030 C   0  0  0  0  0  2  0  0  0  0  0  0
  186.5000  178.2380  145.6280 C   0  0  0  0  0  2  0  0  0  0  0  0
  187.5240  177.8150  144.5760 C   0  0  1  0  0  3  0  0  0  0  0  0
  184.5690  178.9760  144.1540 C   0  0  0  0  0  2  0  0  0  0  0  0
  185.1090  178.1980  142.9950 C   0  0  0  0  0  0  0  0  0  0  0  0
  190.2450  178.0330  143.2820 C   0  0  0  0  0  2  0  0  0  0  0  0
  190.3510  176.9660  142.3870 O   0  0  0  0  0  1  0  0  0  0  0  0
  1  6  1  0  0  0  0
  2  7  1  6  0  0  0
  2  1  1  0  0  0  0
  3  6  2  0  0  0  0
  4  2  1  0  0  0  0
  5  9  1  6  0  0  0
  5  3  1  0  0  0  0
  6 21  1  0  0  0  0
  8  2  1  0  0  0  0
  8  5  1  0  0  0  0
 10  9  1  6  0  0  0
 10 14  1  0  0  0  0
 11 13  1  0  0  0  0
 12 10  1  0  0  0  0
 12 11  1  0  0  0  0
 12 13  1  0  0  0  0
 14 15  1  1  0  0  0
 16 14  1  0  0  0  0
 17 18  1  0  0  0  0
 17 20  1  0  0  0  0
 18 20  1  0  0  0  0
 18 19  1  6  0  0  0
 20 19  1  0  0  0  0
 20 16  1  1  0  0  0
 21 22  1  0  0  0  0
 23 26  1  0  0  0  0
 24 25  2  0  0  0  0
 24 28  1  0  0  0  0
 25 23  1  0  0  0  0
 26 22  1  6  0  0  0
 27 28  1  0  0  0  0
 28 26  1  0  0  0  0
 29 34  1  0  0  0  0
 30 36  2  0  0  0  0
 31 29  1  0  0  0  0
 32 33  1  0  0  0  0
 34 25  1  1  0  0  0
 34 33  1  0  0  0  0
 35 32  1  0  0  0  0
 36 31  1  0  0  0  0
 36 35  1  0  0  0  0
 37 24  1  0  0  0  0
 38 37  1  0  0  0  0
M  END
>  <MODEL>
2

>  <REMARK>
 VINA RESULT:      -6.5      2.313      7.058
  Name = 
  11 active torsions:
  status: ('A' for Active; 'I' for Inactive)
    1  A    between atoms: C_4  and  C_14
    2  A    between atoms: C_4  and  C_35
    3  A    between atoms: C_10  and  C_24
    4  A    between atoms: C_10  and  C_30
    5  A    between atoms: C_14  and  C_17
    6  A    between atoms: C_15  and  C_25
    7  A    between atoms: C_16  and  C_17
    8  A    between atoms: C_17  and  C_22
    9  A    between atoms: C_18  and  C_20
   10  A    between atoms: C_22  and  C_28
   11  A    between atoms: C_30  and  C_32
                            x       y       z     vdW  Elec       q    Type
                         _______ _______ _______ _____ _____    ______ ____

>  <TORSDO>
F 11

$$$$
=
 OpenBabel11062419273D

 38 43  0  0  1  0  0  0  0  0999 V2000
  188.0670  176.0010  140.8050 O   0  0  0  0  0  0  0  0  0  0  0  0
  187.3030  177.2010  140.9260 C   0  0  1  0  0  0  0  0  0  0  0  0
  187.7980  175.4080  143.0600 N   0  0  0  0  0  0  0  0  0  0  0  0
  188.1910  178.3120  141.2270 N   0  0  0  0  0  1  0  0  0  0  0  0
  186.9660  176.5840  143.3140 C   0  0  1  0  0  3  0  0  0  0  0  0
  188.3360  175.1700  141.9010 C   0  0  0  0  0  0  0  0  0  0  0  0
  186.6510  177.4550  139.7210 O   0  0  0  0  0  1  0  0  0  0  0  0
  186.2680  177.0520  142.0380 C   0  0  0  0  0  2  0  0  0  0  0  0
  185.9290  176.2740  144.3880 C   0  0  0  0  0  2  0  0  0  0  0  0
  186.0490  177.1890  145.6170 C   0  0  1  0  0  3  0  0  0  0  0  0
  184.7700  178.9570  146.8030 C   0  0  0  0  0  2  0  0  0  0  0  0
  184.6750  177.5890  146.1530 C   0  0  0  0  0  3  0  0  0  0  0  0
  184.1730  178.8190  145.4200 C   0  0  0  0  0  2  0  0  0  0  0  0
  186.9300  176.5470  146.7010 C   0  0  2  0  0  3  0  0  0  0  0  0
  186.2750  176.5170  147.9370 O   0  0  0  0  0  1  0  0  0  0  0  0
  188.2750  177.2610  146.8420 C   0  0  0  0  0  2  0  0  0  0  0  0
  190.3880  177.3420  145.6660 O   0  0  0  0  0  0  0  0  0  0  0  0
  190.6460  176.8160  146.9430 C   0  0  2  0  0  3  0  0  0  0  0  0
  190.0180  175.4540  147.1050 C   0  0  0  0  0  2  0  0  0  0  0  0
  189.4070  176.4840  146.1880 C   0  0  1  0  0  0  0  0  0  0  0  0
  189.2180  173.9840  141.7310 C   0  0  0  0  0  2  0  0  0  0  0  0
  188.6480  172.8100  142.5060 C   0  0  0  0  0  2  0  0  0  0  0  0
  190.4920  173.2780  144.1060 C   0  0  0  0  0  2  0  0  0  0  0  0
  191.9840  172.1440  142.7410 C   0  0  0  0  0  0  0  0  0  0  0  0
  191.8950  173.1400  143.6000 C   0  0  0  0  0  0  0  0  0  0  0  0
  189.7230  172.1730  143.3710 C   0  0  2  0  0  3  0  0  0  0  0  0
  190.5100  170.3060  141.7730 C   0  0  0  0  0  1  0  0  0  0  0  0
  190.7280  171.5190  142.5440 N   0  0  0  0  0  0  0  0  0  0  0  0
  192.7380  175.4560  143.9760 C   0  0  0  0  0  2  0  0  0  0  0  0
  195.8450  176.2720  143.9090 O   0  0  0  0  0  0  0  0  0  0  0  0
  193.6550  176.3800  144.7860 C   0  0  0  0  0  2  0  0  0  0  0  0
  195.0050  173.5510  145.5840 C   0  0  0  0  0  2  0  0  0  0  0  0
  193.4830  173.5010  145.4740 C   0  0  0  0  0  2  0  0  0  0  0  0
  193.0560  173.9530  144.0790 C   0  0  1  0  0  3  0  0  0  0  0  0
  195.5250  174.9630  145.8510 C   0  0  0  0  0  2  0  0  0  0  0  0
  195.0780  175.9230  144.7920 C   0  0  0  0  0  0  0  0  0  0  0  0
  193.2550  171.6570  142.1250 C   0  0  0  0  0  2  0  0  0  0  0  0
  193.4030  172.2150  140.8530 O   0  0  0  0  0  1  0  0  0  0  0  0
  1  2  1  0  0  0  0
  1  6  1  0  0  0  0
  2  7  1  6  0  0  0
  2  4  1  0  0  0  0
  2  8  1  0  0  0  0
  3  5  1  0  0  0  0
  5  9  1  1  0  0  0
  6  3  2  0  0  0  0
  8  5  1  0  0  0  0
 10  9  1  6  0  0  0
 10 12  1  0  0  0  0
 10 14  1  0  0  0  0
 12 11  1  0  0  0  0
 13 12  1  0  0  0  0
 13 11  1  0  0  0  0
 14 16  1  0  0  0  0
 14 15  1  1  0  0  0
 17 20  1  0  0  0  0
 17 18  1  0  0  0  0
 18 19  1  6  0  0  0
 20 16  1  1  0  0  0
 20 18  1  0  0  0  0
 20 19  1  0  0  0  0
 21  6  1  0  0  0  0
 21 22  1  0  0  0  0
 24 25  2  0  0  0  0
 25 23  1  0  0  0  0
 26 22  1  6  0  0  0
 26 23  1  0  0  0  0
 27 28  1  0  0  0  0
 28 24  1  0  0  0  0
 28 26  1  0  0  0  0
 29 34  1  0  0  0  0
 29 31  1  0  0  0  0
 30 36  2  0  0  0  0
 31 36  1  0  0  0  0
 32 35  1  0  0  0  0
 33 32  1  0  0  0  0
 34 25  1  1  0  0  0
 34 33  1  0  0  0  0
 36 35  1  0  0  0  0
 37 24  1  0  0  0  0
 38 37  1  0  0  0  0
M  END
>  <MODEL>
3

>  <REMARK>
 VINA RESULT:      -6.4      2.268      4.706
  Name = 
  11 active torsions:
  status: ('A' for Active; 'I' for Inactive)
    1  A    between atoms: C_4  and  C_14
    2  A    between atoms: C_4  and  C_35
    3  A    between atoms: C_10  and  C_24
    4  A    between atoms: C_10  and  C_30
    5  A    between atoms: C_14  and  C_17
    6  A    between atoms: C_15  and  C_25
    7  A    between atoms: C_16  and  C_17
    8  A    between atoms: C_17  and  C_22
    9  A    between atoms: C_18  and  C_20
   10  A    between atoms: C_22  and  C_28
   11  A    between atoms: C_30  and  C_32
                            x       y       z     vdW  Elec       q    Type
                         _______ _______ _______ _____ _____    ______ ____

>  <TORSDO>
F 11

$$$$
=
 OpenBabel11062419273D

 38 43  0  0  1  0  0  0  0  0999 V2000
  187.9290  175.6470  141.8700 O   0  0  0  0  0  0  0  0  0  0  0  0
  187.3850  176.9520  142.0660 C   0  0  1  0  0  0  0  0  0  0  0  0
  189.8400  176.0700  143.1660 N   0  0  0  0  0  0  0  0  0  0  0  0
  187.8120  177.8220  140.9820 N   0  0  0  0  0  1  0  0  0  0  0  0
  189.3800  177.4240  143.4770 C   0  0  1  0  0  3  0  0  0  0  0  0
  189.1760  175.2700  142.3860 C   0  0  0  0  0  0  0  0  0  0  0  0
  185.9940  176.8750  142.0650 O   0  0  0  0  0  1  0  0  0  0  0  0
  187.8570  177.5200  143.4010 C   0  0  0  0  0  2  0  0  0  0  0  0
  189.8570  177.8360  144.8660 C   0  0  0  0  0  2  0  0  0  0  0  0
  190.0460  176.6390  145.8120 C   0  0  1  0  0  3  0  0  0  0  0  0
  191.2580  176.3720  147.9640 C   0  0  0  0  0  2  0  0  0  0  0  0
  191.4180  176.6700  146.4850 C   0  0  0  0  0  3  0  0  0  0  0  0
  191.7570  175.2940  147.0290 C   0  0  0  0  0  2  0  0  0  0  0  0
  188.9020  176.5560  146.8360 C   0  0  2  0  0  3  0  0  0  0  0  0
  188.0300  175.5030  146.5410 O   0  0  0  0  0  1  0  0  0  0  0  0
  188.1210  177.8680  146.9260 C   0  0  0  0  0  2  0  0  0  0  0  0
  186.0690  177.5550  148.1710 O   0  0  0  0  0  0  0  0  0  0  0  0
  185.9900  178.8150  147.5530 C   0  0  2  0  0  3  0  0  0  0  0  0
  185.8940  178.6770  146.0530 C   0  0  0  0  0  2  0  0  0  0  0  0
  186.6170  177.6440  146.8810 C   0  0  1  0  0  0  0  0  0  0  0  0
  189.7330  173.9270  142.0680 C   0  0  0  0  0  2  0  0  0  0  0  0
  189.1290  172.8920  143.0000 C   0  0  0  0  0  2  0  0  0  0  0  0
  191.1810  172.9310  144.4030 C   0  0  0  0  0  2  0  0  0  0  0  0
  192.3800  171.9050  142.7040 C   0  0  0  0  0  0  0  0  0  0  0  0
  192.4950  172.7540  143.7080 C   0  0  0  0  0  0  0  0  0  0  0  0
  190.2200  172.0310  143.6160 C   0  0  2  0  0  3  0  0  0  0  0  0
  190.6190  170.3850  141.6690 C   0  0  0  0  0  1  0  0  0  0  0  0
  191.0500  171.4330  142.5780 N   0  0  0  0  0  0  0  0  0  0  0  0
  193.7060  174.9070  144.0430 C   0  0  0  0  0  2  0  0  0  0  0  0
  196.9000  175.2170  143.8910 O   0  0  0  0  0  0  0  0  0  0  0  0
  194.7780  175.6770  144.8220 C   0  0  0  0  0  2  0  0  0  0  0  0
  195.6810  172.6720  145.6090 C   0  0  0  0  0  2  0  0  0  0  0  0
  194.1680  172.8650  145.5380 C   0  0  0  0  0  2  0  0  0  0  0  0
  193.7820  173.3730  144.1500 C   0  0  1  0  0  3  0  0  0  0  0  0
  196.4260  173.9850  145.8510 C   0  0  0  0  0  2  0  0  0  0  0  0
  196.1100  174.9990  144.7960 C   0  0  0  0  0  0  0  0  0  0  0  0
  193.5140  171.4150  141.8650 C   0  0  0  0  0  2  0  0  0  0  0  0
  194.0940  170.2960  142.4670 O   0  0  0  0  0  1  0  0  0  0  0  0
  1  2  1  0  0  0  0
  1  6  1  0  0  0  0
  2  4  1  6  0  0  0
  2  8  1  0  0  0  0
  3  5  1  0  0  0  0
  5  9  1  1  0  0  0
  6  3  2  0  0  0  0
  7  2  1  0  0  0  0
  8  5  1  0  0  0  0
 10  9  1  1  0  0  0
 10 12  1  0  0  0  0
 10 14  1  0  0  0  0
 12 13  1  0  0  0  0
 12 11  1  0  0  0  0
 13 11  1  0  0  0  0
 14 15  1  6  0  0  0
 14 16  1  0  0  0  0
 18 19  1  6  0  0  0
 18 17  1  0  0  0  0
 19 20  1  0  0  0  0
 20 16  1  6  0  0  0
 20 18  1  0  0  0  0
 20 17  1  0  0  0  0
 21  6  1  0  0  0  0
 21 22  1  0  0  0  0
 24 25  2  0  0  0  0
 25 23  1  0  0  0  0
 26 22  1  6  0  0  0
 26 23  1  0  0  0  0
 27 28  1  0  0  0  0
 28 24  1  0  0  0  0
 28 26  1  0  0  0  0
 29 34  1  0  0  0  0
 29 31  1  0  0  0  0
 30 36  2  0  0  0  0
 32 35  1  0  0  0  0
 33 32  1  0  0  0  0
 34 25  1  1  0  0  0
 34 33  1  0  0  0  0
 36 31  1  0  0  0  0
 36 35  1  0  0  0  0
 37 38  1  0  0  0  0
 37 24  1  0  0  0  0
M  END
>  <MODEL>
4

>  <REMARK>
 VINA RESULT:      -6.4      2.376      4.547
  Name = 
  11 active torsions:
  status: ('A' for Active; 'I' for Inactive)
    1  A    between atoms: C_4  and  C_14
    2  A    between atoms: C_4  and  C_35
    3  A    between atoms: C_10  and  C_24
    4  A    between atoms: C_10  and  C_30
    5  A    between atoms: C_14  and  C_17
    6  A    between atoms: C_15  and  C_25
    7  A    between atoms: C_16  and  C_17
    8  A    between atoms: C_17  and  C_22
    9  A    between atoms: C_18  and  C_20
   10  A    between atoms: C_22  and  C_28
   11  A    between atoms: C_30  and  C_32
                            x       y       z     vdW  Elec       q    Type
                         _______ _______ _______ _____ _____    ______ ____

>  <TORSDO>
F 11

$$$$
=
 OpenBabel11062419273D

 38 43  0  0  1  0  0  0  0  0999 V2000
  189.2220  173.8510  142.7850 O   0  0  0  0  0  0  0  0  0  0  0  0
  189.5320  173.8140  141.3920 C   0  0  1  0  0  0  0  0  0  0  0  0
  191.3270  173.0470  143.4420 N   0  0  0  0  0  0  0  0  0  0  0  0
  189.1130  172.5370  140.8370 N   0  0  0  0  0  1  0  0  0  0  0  0
  191.7870  172.9950  142.0550 C   0  0  1  0  0  3  0  0  0  0  0  0
  190.1210  173.4090  143.7650 C   0  0  0  0  0  0  0  0  0  0  0  0
  188.8480  174.8390  140.7410 O   0  0  0  0  0  1  0  0  0  0  0  0
  191.0330  173.9990  141.1860 C   0  0  0  0  0  2  0  0  0  0  0  0
  193.2850  173.2710  141.9860 C   0  0  0  0  0  2  0  0  0  0  0  0
  193.7770  174.1840  143.1200 C   0  0  1  0  0  3  0  0  0  0  0  0
  195.3210  174.4520  145.0470 C   0  0  0  0  0  2  0  0  0  0  0  0
  194.8550  173.5010  143.9610 C   0  0  0  0  0  3  0  0  0  0  0  0
  194.3660  173.3310  145.3870 C   0  0  0  0  0  2  0  0  0  0  0  0
  194.2440  175.5430  142.5730 C   0  0  2  0  0  3  0  0  0  0  0  0
  193.1640  176.4060  142.3590 O   0  0  0  0  0  1  0  0  0  0  0  0
  195.0530  175.3920  141.2840 C   0  0  0  0  0  2  0  0  0  0  0  0
  196.6560  176.6740  142.5660 O   0  0  0  0  0  0  0  0  0  0  0  0
  197.3440  175.5750  142.0240 C   0  0  2  0  0  3  0  0  0  0  0  0
  197.4420  175.6860  140.5220 C   0  0  0  0  0  2  0  0  0  0  0  0
  196.2790  176.2910  141.2690 C   0  0  1  0  0  0  0  0  0  0  0  0
  189.7040  173.3840  145.1930 C   0  0  0  0  0  2  0  0  0  0  0  0
  190.8210  173.9380  146.0590 C   0  0  0  0  0  2  0  0  0  0  0  0
  188.9470  175.5270  146.4360 C   0  0  0  0  0  2  0  0  0  0  0  0
  190.0010  177.1080  145.1070 C   0  0  0  0  0  0  0  0  0  0  0  0
  188.8140  176.6740  145.4830 C   0  0  0  0  0  0  0  0  0  0  0  0
  190.4620  175.3260  146.5640 C   0  0  2  0  0  3  0  0  0  0  0  0
  192.4560  176.6580  145.6110 C   0  0  0  0  0  1  0  0  0  0  0  0
  191.0390  176.3500  145.7040 N   0  0  0  0  0  0  0  0  0  0  0  0
  187.0160  176.7200  143.7560 C   0  0  0  0  0  2  0  0  0  0  0  0
  185.1940  179.2900  143.1250 O   0  0  0  0  0  0  0  0  0  0  0  0
  185.5380  176.9750  143.4380 C   0  0  0  0  0  2  0  0  0  0  0  0
  185.6790  178.4880  146.2930 C   0  0  0  0  0  2  0  0  0  0  0  0
  186.5070  177.2080  146.2300 C   0  0  0  0  0  2  0  0  0  0  0  0
  187.5170  177.3070  145.0880 C   0  0  1  0  0  3  0  0  0  0  0  0
  184.5520  178.5060  145.2600 C   0  0  0  0  0  2  0  0  0  0  0  0
  185.0780  178.3300  143.8700 C   0  0  0  0  0  0  0  0  0  0  0  0
  190.2410  178.3060  144.2480 C   0  0  0  0  0  2  0  0  0  0  0  0
  190.3210  177.9150  142.9100 O   0  0  0  0  0  1  0  0  0  0  0  0
  1  6  1  0  0  0  0
  2  7  1  6  0  0  0
  2  1  1  0  0  0  0
  3  6  2  0  0  0  0
  4  2  1  0  0  0  0
  5  9  1  1  0  0  0
  5  3  1  0  0  0  0
  6 21  1  0  0  0  0
  8  2  1  0  0  0  0
  8  5  1  0  0  0  0
 10  9  1  6  0  0  0
 10 12  1  0  0  0  0
 11 13  1  0  0  0  0
 12 11  1  0  0  0  0
 12 13  1  0  0  0  0
 14 15  1  6  0  0  0
 14 10  1  0  0  0  0
 16 14  1  0  0  0  0
 18 19  1  6  0  0  0
 18 17  1  0  0  0  0
 19 20  1  0  0  0  0
 20 16  1  6  0  0  0
 20 18  1  0  0  0  0
 20 17  1  0  0  0  0
 21 22  1  0  0  0  0
 23 26  1  0  0  0  0
 24 25  2  0  0  0  0
 24 28  1  0  0  0  0
 25 23  1  0  0  0  0
 26 22  1  6  0  0  0
 27 28  1  0  0  0  0
 28 26  1  0  0  0  0
 29 34  1  0  0  0  0
 30 36  2  0  0  0  0
 31 29  1  0  0  0  0
 31 36  1  0  0  0  0
 33 32  1  0  0  0  0
 34 25  1  1  0  0  0
 34 33  1  0  0  0  0
 35 32  1  0  0  0  0
 36 35  1  0  0  0  0
 37 24  1  0  0  0  0
 38 37  1  0  0  0  0
M  END
>  <MODEL>
5

>  <REMARK>
 VINA RESULT:      -6.2      2.295      6.520
  Name = 
  11 active torsions:
  status: ('A' for Active; 'I' for Inactive)
    1  A    between atoms: C_4  and  C_14
    2  A    between atoms: C_4  and  C_35
    3  A    between atoms: C_10  and  C_24
    4  A    between atoms: C_10  and  C_30
    5  A    between atoms: C_14  and  C_17
    6  A    between atoms: C_15  and  C_25
    7  A    between atoms: C_16  and  C_17
    8  A    between atoms: C_17  and  C_22
    9  A    between atoms: C_18  and  C_20
   10  A    between atoms: C_22  and  C_28
   11  A    between atoms: C_30  and  C_32
                            x       y       z     vdW  Elec       q    Type
                         _______ _______ _______ _____ _____    ______ ____

>  <TORSDO>
F 11

$$$$
=
 OpenBabel11062419273D

 38 43  0  0  1  0  0  0  0  0999 V2000
  190.9730  175.1470  145.8910 O   0  0  0  0  0  0  0  0  0  0  0  0
  191.1400  176.5160  146.2590 C   0  0  1  0  0  0  0  0  0  0  0  0
  188.7230  175.4150  145.2780 N   0  0  0  0  0  0  0  0  0  0  0  0
  190.8690  176.6710  147.6790 N   0  0  0  0  0  1  0  0  0  0  0  0
  188.7670  176.8440  145.5830 C   0  0  1  0  0  3  0  0  0  0  0  0
  189.7430  174.6300  145.4630 C   0  0  0  0  0  0  0  0  0  0  0  0
  192.4520  176.9050  146.0020 O   0  0  0  0  0  1  0  0  0  0  0  0
  190.1860  177.3930  145.4530 C   0  0  0  0  0  2  0  0  0  0  0  0
  187.8280  177.6090  144.6580 C   0  0  0  0  0  2  0  0  0  0  0  0
  186.3580  177.5320  145.1000 C   0  0  1  0  0  3  0  0  0  0  0  0
  184.5460  178.6480  146.3820 C   0  0  0  0  0  2  0  0  0  0  0  0
  185.8820  178.8580  145.6940 C   0  0  0  0  0  3  0  0  0  0  0  0
  185.8100  178.7500  147.2060 C   0  0  0  0  0  2  0  0  0  0  0  0
  185.4570  177.0570  143.9480 C   0  0  2  0  0  3  0  0  0  0  0  0
  185.9490  175.8850  143.3660 O   0  0  0  0  0  1  0  0  0  0  0  0
  185.2820  178.1360  142.8790 C   0  0  0  0  0  2  0  0  0  0  0  0
  184.0590  177.9320  140.8000 O   0  0  0  0  0  0  0  0  0  0  0  0
  185.2050  178.7000  140.5320 C   0  0  2  0  0  3  0  0  0  0  0  0
  186.4570  177.8670  140.6600 C   0  0  0  0  0  2  0  0  0  0  0  0
  185.2280  177.5490  141.4770 C   0  0  1  0  0  0  0  0  0  0  0  0
  189.6100  173.1740  145.1830 C   0  0  0  0  0  2  0  0  0  0  0  0
  189.4850  172.9520  143.6870 C   0  0  0  0  0  2  0  0  0  0  0  0
  191.7580  172.1260  144.2650 C   0  0  0  0  0  2  0  0  0  0  0  0
  192.6560  173.3030  142.4790 C   0  0  0  0  0  0  0  0  0  0  0  0
  192.9270  172.8690  143.6950 C   0  0  0  0  0  0  0  0  0  0  0  0
  190.6970  172.2010  143.1590 C   0  0  2  0  0  3  0  0  0  0  0  0
  190.7810  173.1520  140.7620 C   0  0  0  0  0  1  0  0  0  0  0  0
  191.3400  172.9510  142.0880 N   0  0  0  0  0  0  0  0  0  0  0  0
  194.3850  174.4090  145.0060 C   0  0  0  0  0  2  0  0  0  0  0  0
  197.5950  174.2890  144.9960 O   0  0  0  0  0  0  0  0  0  0  0  0
  195.4980  174.5560  146.0500 C   0  0  0  0  0  2  0  0  0  0  0  0
  195.9510  171.4400  145.3050 C   0  0  0  0  0  2  0  0  0  0  0  0
  194.4830  171.8610  145.3450 C   0  0  0  0  0  2  0  0  0  0  0  0
  194.2540  173.0130  144.3700 C   0  0  1  0  0  3  0  0  0  0  0  0
  196.8440  172.3600  146.1370 C   0  0  0  0  0  2  0  0  0  0  0  0
  196.7290  173.7860  145.6940 C   0  0  0  0  0  0  0  0  0  0  0  0
  193.6310  173.9870  141.5780 C   0  0  0  0  0  2  0  0  0  0  0  0
  193.4620  175.3700  141.6690 O   0  0  0  0  0  1  0  0  0  0  0  0
  1  2  1  0  0  0  0
  2  7  1  6  0  0  0
  2  4  1  0  0  0  0
  3  6  2  0  0  0  0
  3  5  1  0  0  0  0
  5  9  1  6  0  0  0
  6  1  1  0  0  0  0
  8  5  1  0  0  0  0
  8  2  1  0  0  0  0
 10  9  1  6  0  0  0
 10 12  1  0  0  0  0
 11 13  1  0  0  0  0
 12 11  1  0  0  0  0
 12 13  1  0  0  0  0
 14 15  1  6  0  0  0
 14 10  1  0  0  0  0
 16 14  1  0  0  0  0
 17 20  1  0  0  0  0
 18 19  1  6  0  0  0
 18 17  1  0  0  0  0
 18 20  1  0  0  0  0
 19 20  1  0  0  0  0
 20 16  1  1  0  0  0
 21  6  1  0  0  0  0
 22 21  1  0  0  0  0
 24 25  2  0  0  0  0
 25 23  1  0  0  0  0
 26 22  1  1  0  0  0
 26 23  1  0  0  0  0
 27 28  1  0  0  0  0
 28 24  1  0  0  0  0
 28 26  1  0  0  0  0
 29 31  1  0  0  0  0
 30 36  2  0  0  0  0
 32 33  1  0  0  0  0
 32 35  1  0  0  0  0
 34 25  1  1  0  0  0
 34 29  1  0  0  0  0
 34 33  1  0  0  0  0
 36 31  1  0  0  0  0
 36 35  1  0  0  0  0
 37 38  1  0  0  0  0
 37 24  1  0  0  0  0
M  END
>  <MODEL>
6

>  <REMARK>
 VINA RESULT:      -6.2      2.523      4.906
  Name = 
  11 active torsions:
  status: ('A' for Active; 'I' for Inactive)
    1  A    between atoms: C_4  and  C_14
    2  A    between atoms: C_4  and  C_35
    3  A    between atoms: C_10  and  C_24
    4  A    between atoms: C_10  and  C_30
    5  A    between atoms: C_14  and  C_17
    6  A    between atoms: C_15  and  C_25
    7  A    between atoms: C_16  and  C_17
    8  A    between atoms: C_17  and  C_22
    9  A    between atoms: C_18  and  C_20
   10  A    between atoms: C_22  and  C_28
   11  A    between atoms: C_30  and  C_32
                            x       y       z     vdW  Elec       q    Type
                         _______ _______ _______ _____ _____    ______ ____

>  <TORSDO>
F 11

$$$$
=
 OpenBabel11062419273D

 38 43  0  0  1  0  0  0  0  0999 V2000
  192.4770  176.5830  146.8900 O   0  0  0  0  0  0  0  0  0  0  0  0
  191.1740  176.4520  147.4570 C   0  0  1  0  0  0  0  0  0  0  0  0
  191.6730  177.0090  144.7270 N   0  0  0  0  0  0  0  0  0  0  0  0
  190.7740  175.0540  147.4310 N   0  0  0  0  0  1  0  0  0  0  0  0
  190.2850  176.9370  145.1830 C   0  0  1  0  0  3  0  0  0  0  0  0
  192.6810  176.8040  145.5210 C   0  0  0  0  0  0  0  0  0  0  0  0
  191.2000  176.8930  148.7780 O   0  0  0  0  0  1  0  0  0  0  0  0
  190.1730  177.2890  146.6660 C   0  0  0  0  0  2  0  0  0  0  0  0
  189.4110  177.8760  144.3600 C   0  0  0  0  0  2  0  0  0  0  0  0
  188.5890  177.1420  143.2880 C   0  0  1  0  0  3  0  0  0  0  0  0
  187.8980  174.9510  142.3440 C   0  0  0  0  0  2  0  0  0  0  0  0
  188.7690  175.6270  143.3860 C   0  0  0  0  0  3  0  0  0  0  0  0
  189.3830  175.0970  142.1030 C   0  0  0  0  0  2  0  0  0  0  0  0
  187.1080  177.5530  143.3470 C   0  0  2  0  0  3  0  0  0  0  0  0
  186.7980  178.4830  142.3500 O   0  0  0  0  0  1  0  0  0  0  0  0
  186.7260  178.1140  144.7180 C   0  0  0  0  0  2  0  0  0  0  0  0
  186.8680  176.4300  146.4510 O   0  0  0  0  0  0  0  0  0  0  0  0
  186.1570  177.5170  146.9880 C   0  0  2  0  0  3  0  0  0  0  0  0
  184.8170  177.6750  146.3120 C   0  0  0  0  0  2  0  0  0  0  0  0
  185.9940  177.0890  145.5710 C   0  0  1  0  0  0  0  0  0  0  0  0
  194.0650  176.8370  144.9760 C   0  0  0  0  0  2  0  0  0  0  0  0
  194.8490  175.6490  145.5030 C   0  0  0  0  0  2  0  0  0  0  0  0
  194.0130  174.4930  143.4670 C   0  0  0  0  0  2  0  0  0  0  0  0
  194.6540  172.4460  144.3480 C   0  0  0  0  0  0  0  0  0  0  0  0
  193.7610  173.0200  143.5650 C   0  0  0  0  0  0  0  0  0  0  0  0
  195.2360  174.7200  144.3640 C   0  0  2  0  0  3  0  0  0  0  0  0
  196.7520  173.0730  145.6490 C   0  0  0  0  0  1  0  0  0  0  0  0
  195.5670  173.3950  144.8710 N   0  0  0  0  0  0  0  0  0  0  0  0
  191.4780  172.0280  143.6930 C   0  0  0  0  0  2  0  0  0  0  0  0
  190.4860  169.5590  141.8930 O   0  0  0  0  0  0  0  0  0  0  0  0
  190.1910  171.6500  142.9500 C   0  0  0  0  0  2  0  0  0  0  0  0
  192.1380  171.9930  140.3890 C   0  0  0  0  0  2  0  0  0  0  0  0
  192.3870  173.0130  141.4980 C   0  0  0  0  0  2  0  0  0  0  0  0
  192.7060  172.2840  142.8010 C   0  0  1  0  0  3  0  0  0  0  0  0
  190.7270  171.4080  140.4410 C   0  0  0  0  0  2  0  0  0  0  0  0
  190.4440  170.7720  141.7670 C   0  0  0  0  0  0  0  0  0  0  0  0
  194.7660  170.9750  144.5820 C   0  0  0  0  0  2  0  0  0  0  0  0
  194.2120  170.6540  145.8220 O   0  0  0  0  0  1  0  0  0  0  0  0
  1  2  1  0  0  0  0
  2  4  1  6  0  0  0
  2  7  1  0  0  0  0
  3  5  1  0  0  0  0
  3  6  2  0  0  0  0
  5  9  1  6  0  0  0
  5  8  1  0  0  0  0
  6  1  1  0  0  0  0
  8  2  1  0  0  0  0
 10 14  1  0  0  0  0
 10 12  1  0  0  0  0
 10  9  1  1  0  0  0
 11 12  1  0  0  0  0
 13 11  1  0  0  0  0
 13 12  1  0  0  0  0
 14 15  1  6  0  0  0
 14 16  1  0  0  0  0
 17 18  1  0  0  0  0
 18 19  1  1  0  0  0
 20 16  1  6  0  0  0
 20 19  1  0  0  0  0
 20 17  1  0  0  0  0
 20 18  1  0  0  0  0
 21 22  1  0  0  0  0
 21  6  1  0  0  0  0
 23 25  1  0  0  0  0
 23 26  1  0  0  0  0
 24 37  1  0  0  0  0
 24 28  1  0  0  0  0
 25 24  2  0  0  0  0
 26 28  1  0  0  0  0
 26 22  1  1  0  0  0
 28 27  1  0  0  0  0
 31 29  1  0  0  0  0
 32 35  1  0  0  0  0
 32 33  1  0  0  0  0
 33 34  1  0  0  0  0
 34 25  1  1  0  0  0
 34 29  1  0  0  0  0
 35 36  1  0  0  0  0
 36 30  2  0  0  0  0
 36 31  1  0  0  0  0
 37 38  1  0  0  0  0
M  END
>  <MODEL>
7

>  <REMARK>
 VINA RESULT:      -6.1      2.440      5.647
  Name = 
  11 active torsions:
  status: ('A' for Active; 'I' for Inactive)
    1  A    between atoms: C_4  and  C_14
    2  A    between atoms: C_4  and  C_35
    3  A    between atoms: C_10  and  C_24
    4  A    between atoms: C_10  and  C_30
    5  A    between atoms: C_14  and  C_17
    6  A    between atoms: C_15  and  C_25
    7  A    between atoms: C_16  and  C_17
    8  A    between atoms: C_17  and  C_22
    9  A    between atoms: C_18  and  C_20
   10  A    between atoms: C_22  and  C_28
   11  A    between atoms: C_30  and  C_32
                            x       y       z     vdW  Elec       q    Type
                         _______ _______ _______ _____ _____    ______ ____

>  <TORSDO>
F 11

$$$$
=
 OpenBabel11062419273D

 38 43  0  0  1  0  0  0  0  0999 V2000
  193.8210  170.8050  144.2600 O   0  0  0  0  0  0  0  0  0  0  0  0
  195.0360  170.4850  144.9360 C   0  0  1  0  0  0  0  0  0  0  0  0
  193.7700  173.0140  145.0500 N   0  0  0  0  0  0  0  0  0  0  0  0
  194.7300  169.9130  146.2370 N   0  0  0  0  0  1  0  0  0  0  0  0
  195.0350  172.8320  145.7620 C   0  0  1  0  0  3  0  0  0  0  0  0
  193.1970  172.0530  144.3890 C   0  0  0  0  0  0  0  0  0  0  0  0
  195.7480  169.5510  144.1860 O   0  0  0  0  0  1  0  0  0  0  0  0
  195.8830  171.7420  145.1110 C   0  0  0  0  0  2  0  0  0  0  0  0
  195.8130  174.1430  145.7970 C   0  0  0  0  0  2  0  0  0  0  0  0
  195.2520  175.1970  144.8290 C   0  0  1  0  0  3  0  0  0  0  0  0
  193.4720  176.9140  145.0560 C   0  0  0  0  0  2  0  0  0  0  0  0
  194.8280  176.4660  145.5670 C   0  0  0  0  0  3  0  0  0  0  0  0
  193.5770  176.1950  146.3820 C   0  0  0  0  0  2  0  0  0  0  0  0
  196.2480  175.4920  143.6950 C   0  0  2  0  0  3  0  0  0  0  0  0
  196.4430  176.8680  143.5330 O   0  0  0  0  0  1  0  0  0  0  0  0
  195.8060  174.8700  142.3700 C   0  0  0  0  0  2  0  0  0  0  0  0
  195.2870  175.9680  140.2760 O   0  0  0  0  0  0  0  0  0  0  0  0
  194.3170  174.9700  140.4710 C   0  0  2  0  0  3  0  0  0  0  0  0
  193.4270  175.3030  141.6440 C   0  0  0  0  0  2  0  0  0  0  0  0
  194.8580  175.7770  141.6000 C   0  0  1  0  0  0  0  0  0  0  0  0
  191.8820  172.2940  143.7350 C   0  0  0  0  0  2  0  0  0  0  0  0
  191.0160  173.1560  144.6360 C   0  0  0  0  0  2  0  0  0  0  0  0
  189.9620  175.3840  144.9570 C   0  0  0  0  0  2  0  0  0  0  0  0
  188.5770  175.0080  143.1360 C   0  0  0  0  0  0  0  0  0  0  0  0
  188.6360  175.6200  144.3030 C   0  0  0  0  0  0  0  0  0  0  0  0
  190.7100  174.4850  143.9650 C   0  0  2  0  0  3  0  0  0  0  0  0
  190.0870  173.6420  141.6070 C   0  0  0  0  0  1  0  0  0  0  0  0
  189.7740  174.3010  142.8640 N   0  0  0  0  0  0  0  0  0  0  0  0
  187.5170  176.4150  146.3840 C   0  0  0  0  0  2  0  0  0  0  0  0
  184.4720  177.4310  146.5130 O   0  0  0  0  0  0  0  0  0  0  0  0
  186.7590  177.5450  147.0910 C   0  0  0  0  0  2  0  0  0  0  0  0
  186.3600  178.5400  144.0390 C   0  0  0  0  0  2  0  0  0  0  0  0
  187.7320  177.9320  144.3180 C   0  0  0  0  0  2  0  0  0  0  0  0
  187.5640  176.5100  144.8480 C   0  0  1  0  0  3  0  0  0  0  0  0
  185.6850  179.0620  145.3070 C   0  0  0  0  0  2  0  0  0  0  0  0
  185.5450  177.9860  146.3390 C   0  0  0  0  0  0  0  0  0  0  0  0
  187.4440  175.1190  142.1690 C   0  0  0  0  0  2  0  0  0  0  0  0
  187.6980  176.1520  141.2650 O   0  0  0  0  0  1  0  0  0  0  0  0
  1  6  1  0  0  0  0
  1  2  1  0  0  0  0
  2  7  1  6  0  0  0
  2  8  1  0  0  0  0
  2  4  1  0  0  0  0
  3  5  1  0  0  0  0
  5  9  1  6  0  0  0
  6  3  2  0  0  0  0
  8  5  1  0  0  0  0
 10 12  1  0  0  0  0
 10  9  1  1  0  0  0
 11 12  1  0  0  0  0
 11 13  1  0  0  0  0
 12 13  1  0  0  0  0
 14 15  1  6  0  0  0
 14 10  1  0  0  0  0
 16 14  1  0  0  0  0
 17 18  1  0  0  0  0
 17 20  1  0  0  0  0
 18 20  1  0  0  0  0
 18 19  1  6  0  0  0
 20 19  1  0  0  0  0
 20 16  1  1  0  0  0
 21  6  1  0  0  0  0
 21 22  1  0  0  0  0
 24 25  2  0  0  0  0
 25 23  1  0  0  0  0
 26 22  1  1  0  0  0
 26 23  1  0  0  0  0
 27 28  1  0  0  0  0
 28 24  1  0  0  0  0
 28 26  1  0  0  0  0
 29 31  1  0  0  0  0
 32 33  1  0  0  0  0
 32 35  1  0  0  0  0
 33 34  1  0  0  0  0
 34 25  1  1  0  0  0
 34 29  1  0  0  0  0
 35 36  1  0  0  0  0
 36 30  2  0  0  0  0
 36 31  1  0  0  0  0
 37 24  1  0  0  0  0
 38 37  1  0  0  0  0
M  END
>  <MODEL>
8

>  <REMARK>
 VINA RESULT:      -6.1      2.646      6.926
  Name = 
  11 active torsions:
  status: ('A' for Active; 'I' for Inactive)
    1  A    between atoms: C_4  and  C_14
    2  A    between atoms: C_4  and  C_35
    3  A    between atoms: C_10  and  C_24
    4  A    between atoms: C_10  and  C_30
    5  A    between atoms: C_14  and  C_17
    6  A    between atoms: C_15  and  C_25
    7  A    between atoms: C_16  and  C_17
    8  A    between atoms: C_17  and  C_22
    9  A    between atoms: C_18  and  C_20
   10  A    between atoms: C_22  and  C_28
   11  A    between atoms: C_30  and  C_32
                            x       y       z     vdW  Elec       q    Type
                         _______ _______ _______ _____ _____    ______ ____

>  <TORSDO>
F 11

$$$$
=
 OpenBabel11062419273D

 38 43  0  0  1  0  0  0  0  0999 V2000
  192.1380  176.3260  146.6690 O   0  0  0  0  0  0  0  0  0  0  0  0
  190.9220  176.3430  147.4160 C   0  0  1  0  0  0  0  0  0  0  0  0
  191.0860  176.8270  144.6320 N   0  0  0  0  0  0  0  0  0  0  0  0
  190.3730  174.9980  147.4770 N   0  0  0  0  0  1  0  0  0  0  0  0
  189.7770  176.9110  145.2800 C   0  0  1  0  0  3  0  0  0  0  0  0
  192.1680  176.5150  145.2810 C   0  0  0  0  0  0  0  0  0  0  0  0
  191.1830  176.7850  148.7110 O   0  0  0  0  0  1  0  0  0  0  0  0
  189.9160  177.2810  146.7560 C   0  0  0  0  0  2  0  0  0  0  0  0
  188.9020  177.9370  144.5680 C   0  0  0  0  0  2  0  0  0  0  0  0
  188.0920  177.3310  143.4110 C   0  0  1  0  0  3  0  0  0  0  0  0
  187.1540  175.2670  142.3980 C   0  0  0  0  0  2  0  0  0  0  0  0
  188.0550  175.8050  143.4930 C   0  0  0  0  0  3  0  0  0  0  0  0
  188.6550  175.2060  142.2340 C   0  0  0  0  0  2  0  0  0  0  0  0
  186.6830  177.9410  143.3420 C   0  0  2  0  0  3  0  0  0  0  0  0
  186.5790  178.8680  142.2990 O   0  0  0  0  0  1  0  0  0  0  0  0
  186.2790  178.5970  144.6630 C   0  0  0  0  0  2  0  0  0  0  0  0
  185.8190  176.8350  146.2580 O   0  0  0  0  0  0  0  0  0  0  0  0
  185.4390  178.0470  146.8590 C   0  0  2  0  0  3  0  0  0  0  0  0
  184.2450  178.6480  146.1580 C   0  0  0  0  0  2  0  0  0  0  0  0
  185.2300  177.7860  145.4080 C   0  0  1  0  0  0  0  0  0  0  0  0
  193.4560  176.3920  144.5450 C   0  0  0  0  0  2  0  0  0  0  0  0
  194.5370  175.9010  145.4910 C   0  0  0  0  0  2  0  0  0  0  0  0
  195.6740  176.2070  143.3010 C   0  0  0  0  0  2  0  0  0  0  0  0
  196.4310  174.0160  143.3720 C   0  0  0  0  0  0  0  0  0  0  0  0
  196.0550  174.9720  142.5450 C   0  0  0  0  0  0  0  0  0  0  0  0
  195.8730  175.8170  144.7710 C   0  0  2  0  0  3  0  0  0  0  0  0
  196.8170  173.6790  145.8670 C   0  0  0  0  0  1  0  0  0  0  0  0
  196.3440  174.4390  144.7220 N   0  0  0  0  0  0  0  0  0  0  0  0
  194.6830  174.9670  140.4630 C   0  0  0  0  0  2  0  0  0  0  0  0
  195.5320  173.4660  137.7530 O   0  0  0  0  0  0  0  0  0  0  0  0
  194.6140  175.2740  138.9620 C   0  0  0  0  0  2  0  0  0  0  0  0
  197.8310  175.2660  139.2990 C   0  0  0  0  0  2  0  0  0  0  0  0
  197.0870  175.8850  140.4790 C   0  0  0  0  0  2  0  0  0  0  0  0
  196.1020  174.8680  141.0530 C   0  0  1  0  0  3  0  0  0  0  0  0
  197.0080  175.2930  138.0110 C   0  0  0  0  0  2  0  0  0  0  0  0
  195.6940  174.5960  138.1830 C   0  0  0  0  0  0  0  0  0  0  0  0
  196.9780  172.6900  142.9550 C   0  0  0  0  0  2  0  0  0  0  0  0
  196.0790  171.6810  143.3060 O   0  0  0  0  0  1  0  0  0  0  0  0
  1  2  1  0  0  0  0
  2  4  1  1  0  0  0
  2  7  1  0  0  0  0
  3  5  1  0  0  0  0
  3  6  2  0  0  0  0
  5  9  1  6  0  0  0
  5  8  1  0  0  0  0
  6  1  1  0  0  0  0
  8  2  1  0  0  0  0
 10 12  1  0  0  0  0
 10  9  1  1  0  0  0
 11 12  1  0  0  0  0
 13 11  1  0  0  0  0
 13 12  1  0  0  0  0
 14 15  1  6  0  0  0
 14 10  1  0  0  0  0
 14 16  1  0  0  0  0
 17 18  1  0  0  0  0
 18 19  1  1  0  0  0
 20 16  1  6  0  0  0
 20 19  1  0  0  0  0
 20 17  1  0  0  0  0
 20 18  1  0  0  0  0
 21  6  1  0  0  0  0
 21 22  1  0  0  0  0
 23 26  1  0  0  0  0
 24 28  1  0  0  0  0
 25 23  1  0  0  0  0
 25 24  2  0  0  0  0
 26 22  1  1  0  0  0
 28 26  1  0  0  0  0
 28 27  1  0  0  0  0
 29 34  1  0  0  0  0
 30 36  2  0  0  0  0
 31 29  1  0  0  0  0
 32 33  1  0  0  0  0
 33 34  1  0  0  0  0
 34 25  1  1  0  0  0
 35 36  1  0  0  0  0
 35 32  1  0  0  0  0
 36 31  1  0  0  0  0
 37 38  1  0  0  0  0
 37 24  1  0  0  0  0
M  END
>  <MODEL>
9

>  <REMARK>
 VINA RESULT:      -5.9      3.153      6.351
  Name = 
  11 active torsions:
  status: ('A' for Active; 'I' for Inactive)
    1  A    between atoms: C_4  and  C_14
    2  A    between atoms: C_4  and  C_35
    3  A    between atoms: C_10  and  C_24
    4  A    between atoms: C_10  and  C_30
    5  A    between atoms: C_14  and  C_17
    6  A    between atoms: C_15  and  C_25
    7  A    between atoms: C_16  and  C_17
    8  A    between atoms: C_17  and  C_22
    9  A    between atoms: C_18  and  C_20
   10  A    between atoms: C_22  and  C_28
   11  A    between atoms: C_30  and  C_32
                            x       y       z     vdW  Elec       q    Type
                         _______ _______ _______ _____ _____    ______ ____

>  <TORSDO>
F 11

$$$$
