=
 OpenBabel11062422103D

 27 31  0  0  1  0  0  0  0  0999 V2000
  188.8150  175.8830  143.0880 N   0  0  0  0  0  0  0  0  0  0  0  0
  187.8160  177.9690  144.2080 C   0  0  0  0  0  2  0  0  0  0  0  0
  187.2820  176.3380  140.8280 O   0  0  0  0  0  0  0  0  0  0  0  0
  185.9940  178.1110  142.0250 C   0  0  0  0  0  0  0  0  0  0  0  0
  187.1060  177.1480  141.9590 C   0  0  0  0  0  0  0  0  0  0  0  0
  189.9590  175.6740  143.9740 C   0  0  2  0  0  3  0  0  0  0  0  0
  184.1610  178.8370  143.5680 C   0  0  0  0  0  3  0  0  0  0  0  0
  185.8820  178.4970  145.7750 C   0  0  0  0  0  0  0  0  0  0  0  0
  188.5920  174.7470  142.2220 C   0  0  2  0  0  3  0  0  0  0  0  0
  190.4600  174.2490  143.6560 C   0  0  0  0  0  2  0  0  0  0  0  0
  183.6740  178.9620  144.8680 C   0  0  0  0  0  3  0  0  0  0  0  0
  187.9250  177.0210  143.0390 C   0  0  0  0  0  0  0  0  0  0  0  0
  188.3870  174.5630  139.8220 O   0  0  0  0  0  0  0  0  0  0  0  0
  185.4750  178.5630  140.9770 O   0  0  0  0  0  0  0  0  0  0  0  0
  185.5000  178.4580  143.3670 C   0  0  0  0  0  0  0  0  0  0  0  0
  189.8980  173.9500  142.2650 C   0  0  0  0  0  2  0  0  0  0  0  0
  188.1230  175.2050  140.8700 C   0  0  0  0  0  0  0  0  0  0  0  0
  184.5220  178.7760  145.9630 C   0  0  0  0  0  3  0  0  0  0  0  0
  186.7090  178.1550  146.9650 C   0  0  0  0  0  1  0  0  0  0  0  0
  186.3810  178.3220  144.4720 C   0  0  0  0  0  0  0  0  0  0  0  0
  189.6440  174.6420  146.1820 C   0  0  0  0  0  2  0  0  0  0  0  0
  190.5890  176.4510  147.3670 N   0  0  0  0  0  0  0  0  0  0  0  0
  190.1640  175.0650  147.5200 C   0  0  0  0  0  2  0  0  0  0  0  0
  189.6060  175.8710  145.3960 N   0  0  1  0  0  0  0  0  0  0  0  0
  190.5210  176.7640  145.9940 N   0  0  0  0  0  2  0  0  0  0  0  0
  192.9920  176.2580  146.6840 C   0  0  0  0  0  1  0  0  0  0  0  0
  191.9850  176.5770  147.7990 C   0  0  0  0  0  2  0  0  0  0  0  0
  1  6  1  0  0  0  0
  2 20  1  0  0  0  0
  3 17  1  0  0  0  0
  3  5  1  0  0  0  0
  4 15  1  0  0  0  0
  5  4  1  0  0  0  0
  5 12  2  0  0  0  0
  6 10  1  1  0  0  0
  6 24  1  0  0  0  0
  7 11  1  0  0  0  0
  8 18  1  0  0  0  0
  8 19  1  0  0  0  0
  9 16  1  6  0  0  0
  9  1  1  0  0  0  0
 11 18  2  0  0  0  0
 12  1  1  0  0  0  0
 12  2  1  0  0  0  0
 13 17  2  0  0  0  0
 14  4  2  0  0  0  0
 15  7  2  0  0  0  0
 15 20  1  0  0  0  0
 16 10  1  0  0  0  0
 17  9  1  0  0  0  0
 20  8  2  0  0  0  0
 21 23  1  0  0  0  0
 22 23  1  0  0  0  0
 22 27  1  0  0  0  0
 24 25  1  0  0  0  0
 24 21  1  1  0  0  0
 25 22  1  0  0  0  0
 26 27  1  0  0  0  0
M  END
>  <MODEL>
1

>  <REMARK>
 VINA RESULT:      -8.4      0.000      0.000
  Name = 
  2 active torsions:
  status: ('A' for Active; 'I' for Inactive)
    1  A    between atoms: N_7  and  C_17
    2  A    between atoms: C_9  and  N_14
                            x       y       z     vdW  Elec       q    Type
                         _______ _______ _______ _____ _____    ______ ____

>  <TORSDO>
F 2

$$$$
=
 OpenBabel11062422103D

 27 31  0  0  1  0  0  0  0  0999 V2000
  188.3400  176.0530  142.2250 N   0  0  0  0  0  0  0  0  0  0  0  0
  188.4700  177.0970  144.5700 C   0  0  0  0  0  2  0  0  0  0  0  0
  186.5580  178.0160  141.4280 O   0  0  0  0  0  0  0  0  0  0  0  0
  186.3350  178.8100  143.7860 C   0  0  0  0  0  0  0  0  0  0  0  0
  186.9730  177.9590  142.7660 C   0  0  0  0  0  0  0  0  0  0  0  0
  189.5150  175.1870  142.2960 C   0  0  2  0  0  3  0  0  0  0  0  0
  185.3340  178.6540  146.0750 C   0  0  0  0  0  3  0  0  0  0  0  0
  187.3130  176.7860  146.8150 C   0  0  0  0  0  0  0  0  0  0  0  0
  187.5150  175.7470  141.0780 C   0  0  2  0  0  3  0  0  0  0  0  0
  189.3760  174.2190  141.1010 C   0  0  0  0  0  2  0  0  0  0  0  0
  185.2670  178.0060  147.3070 C   0  0  0  0  0  3  0  0  0  0  0  0
  187.9350  177.0790  143.1590 C   0  0  0  0  0  0  0  0  0  0  0  0
  186.6630  177.1260  139.2880 O   0  0  0  0  0  0  0  0  0  0  0  0
  185.7680  179.8800  143.4630 O   0  0  0  0  0  0  0  0  0  0  0  0
  186.3520  178.3070  145.1690 C   0  0  0  0  0  0  0  0  0  0  0  0
  188.4140  174.9300  140.1460 C   0  0  0  0  0  2  0  0  0  0  0  0
  186.9190  177.0040  140.5130 C   0  0  0  0  0  0  0  0  0  0  0  0
  186.2370  177.0670  147.6680 C   0  0  0  0  0  3  0  0  0  0  0  0
  188.2320  175.6710  147.1730 C   0  0  0  0  0  1  0  0  0  0  0  0
  187.3720  177.3960  145.5490 C   0  0  0  0  0  0  0  0  0  0  0  0
  189.3270  173.0730  143.5350 C   0  0  0  0  0  2  0  0  0  0  0  0
  191.1950  173.5010  144.9120 N   0  0  0  0  0  0  0  0  0  0  0  0
  190.2770  172.4440  144.5060 C   0  0  0  0  0  2  0  0  0  0  0  0
  189.6250  174.5000  143.6000 N   0  0  1  0  0  0  0  0  0  0  0  0
  190.9430  174.6180  144.0910 N   0  0  0  0  0  2  0  0  0  0  0  0
  193.5860  173.6990  145.6380 C   0  0  0  0  0  1  0  0  0  0  0  0
  192.5740  173.0580  144.6760 C   0  0  0  0  0  2  0  0  0  0  0  0
  1  6  1  0  0  0  0
  1 12  1  0  0  0  0
  2 20  1  0  0  0  0
  3  5  1  0  0  0  0
  4 15  1  0  0  0  0
  5 12  2  0  0  0  0
  5  4  1  0  0  0  0
  6 10  1  6  0  0  0
  6 24  1  0  0  0  0
  7 11  1  0  0  0  0
  8 19  1  0  0  0  0
  8 18  1  0  0  0  0
  9 16  1  6  0  0  0
  9  1  1  0  0  0  0
 11 18  2  0  0  0  0
 12  2  1  0  0  0  0
 13 17  2  0  0  0  0
 14  4  2  0  0  0  0
 15 20  1  0  0  0  0
 15  7  2  0  0  0  0
 16 10  1  0  0  0  0
 17  9  1  0  0  0  0
 17  3  1  0  0  0  0
 20  8  2  0  0  0  0
 21 23  1  0  0  0  0
 23 22  1  0  0  0  0
 24 21  1  6  0  0  0
 24 25  1  0  0  0  0
 25 22  1  0  0  0  0
 27 22  1  0  0  0  0
 27 26  1  0  0  0  0
M  END
>  <MODEL>
2

>  <REMARK>
 VINA RESULT:      -8.1      1.946      2.638
  Name = 
  2 active torsions:
  status: ('A' for Active; 'I' for Inactive)
    1  A    between atoms: N_7  and  C_17
    2  A    between atoms: C_9  and  N_14
                            x       y       z     vdW  Elec       q    Type
                         _______ _______ _______ _____ _____    ______ ____

>  <TORSDO>
F 2

$$$$
=
 OpenBabel11062422103D

 27 31  0  0  1  0  0  0  0  0999 V2000
  189.9720  175.7540  142.6900 N   0  0  0  0  0  0  0  0  0  0  0  0
  188.9520  177.4950  144.2830 C   0  0  0  0  0  2  0  0  0  0  0  0
  187.5600  175.5400  141.3480 O   0  0  0  0  0  0  0  0  0  0  0  0
  186.4270  176.8990  143.1110 C   0  0  0  0  0  0  0  0  0  0  0  0
  187.6420  176.3320  142.5020 C   0  0  0  0  0  0  0  0  0  0  0  0
  191.3860  175.9800  142.9810 C   0  0  2  0  0  3  0  0  0  0  0  0
  185.3100  177.1210  145.3410 C   0  0  0  0  0  3  0  0  0  0  0  0
  187.8230  177.4990  146.5630 C   0  0  0  0  0  0  0  0  0  0  0  0
  189.7670  174.5470  141.9220 C   0  0  2  0  0  3  0  0  0  0  0  0
  192.1220  174.7660  142.3740 C   0  0  0  0  0  2  0  0  0  0  0  0
  185.4170  177.1790  146.7290 C   0  0  0  0  0  3  0  0  0  0  0  0
  188.8400  176.5480  143.1130 C   0  0  0  0  0  0  0  0  0  0  0  0
  188.6200  174.1350  139.8370 O   0  0  0  0  0  0  0  0  0  0  0  0
  185.3950  177.0880  142.4240 O   0  0  0  0  0  0  0  0  0  0  0  0
  186.4770  177.1690  144.5560 C   0  0  0  0  0  0  0  0  0  0  0  0
  191.1420  174.2060  141.3410 C   0  0  0  0  0  2  0  0  0  0  0  0
  188.6460  174.7350  140.9410 C   0  0  0  0  0  0  0  0  0  0  0  0
  186.6640  177.3490  147.3360 C   0  0  0  0  0  3  0  0  0  0  0  0
  189.1420  177.5210  147.2530 C   0  0  0  0  0  1  0  0  0  0  0  0
  187.7400  177.3960  145.1620 C   0  0  0  0  0  0  0  0  0  0  0  0
  191.7130  174.9010  145.1650 C   0  0  0  0  0  2  0  0  0  0  0  0
  193.3800  176.4140  145.8700 N   0  0  0  0  0  0  0  0  0  0  0  0
  192.7690  175.1330  146.2000 C   0  0  0  0  0  2  0  0  0  0  0  0
  191.6370  176.1570  144.4280 N   0  0  1  0  0  0  0  0  0  0  0  0
  192.8710  176.8150  144.6180 N   0  0  0  0  0  2  0  0  0  0  0  0
  195.3220  176.3290  144.2890 C   0  0  0  0  0  1  0  0  0  0  0  0
  194.8310  176.2370  145.7420 C   0  0  0  0  0  2  0  0  0  0  0  0
  1  6  1  0  0  0  0
  1 12  1  0  0  0  0
  2 20  1  0  0  0  0
  3  5  1  0  0  0  0
  4 15  1  0  0  0  0
  5  4  1  0  0  0  0
  5 12  2  0  0  0  0
  6 10  1  1  0  0  0
  6 24  1  0  0  0  0
  7 11  1  0  0  0  0
  8 19  1  0  0  0  0
  8 18  1  0  0  0  0
  9 16  1  6  0  0  0
  9  1  1  0  0  0  0
 11 18  2  0  0  0  0
 12  2  1  0  0  0  0
 13 17  2  0  0  0  0
 14  4  2  0  0  0  0
 15 20  1  0  0  0  0
 15  7  2  0  0  0  0
 16 10  1  0  0  0  0
 17  3  1  0  0  0  0
 17  9  1  0  0  0  0
 20  8  2  0  0  0  0
 21 23  1  0  0  0  0
 22 23  1  0  0  0  0
 24 25  1  0  0  0  0
 24 21  1  1  0  0  0
 25 22  1  0  0  0  0
 26 27  1  0  0  0  0
 27 22  1  0  0  0  0
M  END
>  <MODEL>
3

>  <REMARK>
 VINA RESULT:      -8.0      1.782      2.200
  Name = 
  2 active torsions:
  status: ('A' for Active; 'I' for Inactive)
    1  A    between atoms: N_7  and  C_17
    2  A    between atoms: C_9  and  N_14
                            x       y       z     vdW  Elec       q    Type
                         _______ _______ _______ _____ _____    ______ ____

>  <TORSDO>
F 2

$$$$
=
 OpenBabel11062422103D

 27 31  0  0  1  0  0  0  0  0999 V2000
  187.7400  177.6630  145.0450 N   0  0  0  0  0  0  0  0  0  0  0  0
  190.2440  177.4760  144.4940 C   0  0  0  0  0  2  0  0  0  0  0  0
  188.3060  177.5350  147.7520 O   0  0  0  0  0  0  0  0  0  0  0  0
  190.6800  176.9380  147.2550 C   0  0  0  0  0  0  0  0  0  0  0  0
  189.3400  177.3650  146.8190 C   0  0  0  0  0  0  0  0  0  0  0  0
  187.2540  178.1240  143.7460 C   0  0  2  0  0  3  0  0  0  0  0  0
  192.4560  175.2710  146.6770 C   0  0  0  0  0  3  0  0  0  0  0  0
  191.8960  175.6240  143.9360 C   0  0  0  0  0  0  0  0  0  0  0  0
  186.6560  177.2590  145.9110 C   0  0  2  0  0  3  0  0  0  0  0  0
  185.7220  177.9410  143.7990 C   0  0  0  0  0  2  0  0  0  0  0  0
  193.0650  174.4590  145.7220 C   0  0  0  0  0  3  0  0  0  0  0  0
  189.1100  177.5390  145.4880 C   0  0  0  0  0  0  0  0  0  0  0  0
  186.0530  177.9140  148.1570 O   0  0  0  0  0  0  0  0  0  0  0  0
  191.0690  177.1480  148.4280 O   0  0  0  0  0  0  0  0  0  0  0  0
  191.4950  176.2140  146.2680 C   0  0  0  0  0  0  0  0  0  0  0  0
  185.3990  177.8780  145.2930 C   0  0  0  0  0  2  0  0  0  0  0  0
  186.9610  177.6250  147.3350 C   0  0  0  0  0  0  0  0  0  0  0  0
  192.7750  174.6200  144.3650 C   0  0  0  0  0  3  0  0  0  0  0  0
  191.5000  175.6560  142.5010 C   0  0  0  0  0  1  0  0  0  0  0  0
  191.2360  176.4220  144.8870 C   0  0  0  0  0  0  0  0  0  0  0  0
  187.5170  175.9990  142.5400 C   0  0  0  0  0  2  0  0  0  0  0  0
  187.5700  177.0050  140.4050 N   0  0  0  0  0  0  0  0  0  0  0  0
  187.4420  175.7150  141.0720 C   0  0  0  0  0  2  0  0  0  0  0  0
  187.8950  177.4060  142.6230 N   0  0  1  0  0  0  0  0  0  0  0  0
  187.5170  178.0020  141.4010 N   0  0  0  0  0  2  0  0  0  0  0  0
  185.2630  177.9530  140.1550 C   0  0  0  0  0  1  0  0  0  0  0  0
  186.4290  177.1960  139.5020 C   0  0  0  0  0  2  0  0  0  0  0  0
  1 12  1  0  0  0  0
  1  9  1  0  0  0  0
  2 20  1  0  0  0  0
  2 12  1  0  0  0  0
  4 14  2  0  0  0  0
  5  4  1  0  0  0  0
  5  3  1  0  0  0  0
  6 10  1  1  0  0  0
  6  1  1  0  0  0  0
  8 18  2  0  0  0  0
  8 20  1  0  0  0  0
  9 16  1  6  0  0  0
  9 17  1  0  0  0  0
 10 16  1  0  0  0  0
 11  7  2  0  0  0  0
 12  5  2  0  0  0  0
 15  7  1  0  0  0  0
 15  4  1  0  0  0  0
 17  3  1  0  0  0  0
 17 13  2  0  0  0  0
 18 11  1  0  0  0  0
 19  8  1  0  0  0  0
 20 15  2  0  0  0  0
 22 23  1  0  0  0  0
 22 25  1  0  0  0  0
 23 21  1  0  0  0  0
 24 21  1  6  0  0  0
 24  6  1  0  0  0  0
 25 24  1  0  0  0  0
 27 26  1  0  0  0  0
 27 22  1  0  0  0  0
M  END
>  <MODEL>
4

>  <REMARK>
 VINA RESULT:      -7.5      3.118      7.025
  Name = 
  2 active torsions:
  status: ('A' for Active; 'I' for Inactive)
    1  A    between atoms: N_7  and  C_17
    2  A    between atoms: C_9  and  N_14
                            x       y       z     vdW  Elec       q    Type
                         _______ _______ _______ _____ _____    ______ ____

>  <TORSDO>
F 2

$$$$
=
 OpenBabel11062422103D

 27 31  0  0  1  0  0  0  0  0999 V2000
  190.1600  175.7220  145.4790 N   0  0  0  0  0  0  0  0  0  0  0  0
  187.7850  175.9540  144.5230 C   0  0  0  0  0  2  0  0  0  0  0  0
  189.4670  177.3100  147.6380 O   0  0  0  0  0  0  0  0  0  0  0  0
  187.2990  177.8980  146.5460 C   0  0  0  0  0  0  0  0  0  0  0  0
  188.5480  177.1200  146.5960 C   0  0  0  0  0  0  0  0  0  0  0  0
  190.6190  174.5920  144.6750 C   0  0  2  0  0  3  0  0  0  0  0  0
  185.9380  179.2600  144.9460 C   0  0  0  0  0  3  0  0  0  0  0  0
  186.5810  177.4660  142.8680 C   0  0  0  0  0  0  0  0  0  0  0  0
  191.2480  176.3550  146.1880 C   0  0  2  0  0  3  0  0  0  0  0  0
  192.1510  174.5540  144.8690 C   0  0  0  0  0  2  0  0  0  0  0  0
  185.5660  179.5400  143.6320 C   0  0  0  0  0  3  0  0  0  0  0  0
  188.8190  176.2520  145.5810 C   0  0  0  0  0  0  0  0  0  0  0  0
  191.5660  176.8770  148.5250 O   0  0  0  0  0  0  0  0  0  0  0  0
  186.8040  178.3830  147.5910 O   0  0  0  0  0  0  0  0  0  0  0  0
  186.7100  178.1160  145.2150 C   0  0  0  0  0  0  0  0  0  0  0  0
  192.3880  175.3330  146.1650 C   0  0  0  0  0  2  0  0  0  0  0  0
  190.7890  176.8260  147.5380 C   0  0  0  0  0  0  0  0  0  0  0  0
  185.9000  178.6610  142.5990 C   0  0  0  0  0  3  0  0  0  0  0  0
  187.0490  176.6400  141.7210 C   0  0  0  0  0  1  0  0  0  0  0  0
  187.0050  177.1890  144.1810 C   0  0  0  0  0  0  0  0  0  0  0  0
  191.3230  174.9330  142.3450 C   0  0  0  0  0  2  0  0  0  0  0  0
  189.7800  173.3840  141.4580 N   0  0  0  0  0  0  0  0  0  0  0  0
  190.9600  174.1660  141.1120 C   0  0  0  0  0  2  0  0  0  0  0  0
  190.2080  174.7090  143.2590 N   0  0  1  0  0  0  0  0  0  0  0  0
  189.5780  173.5160  142.8470 N   0  0  0  0  0  2  0  0  0  0  0  0
  190.4410  171.1590  142.4020 C   0  0  0  0  0  1  0  0  0  0  0  0
  190.0350  171.9700  141.1620 C   0  0  0  0  0  2  0  0  0  0  0  0
  1 12  1  0  0  0  0
  1  9  1  0  0  0  0
  2 12  1  0  0  0  0
  4  5  1  0  0  0  0
  4 14  2  0  0  0  0
  5  3  1  0  0  0  0
  6 10  1  6  0  0  0
  6  1  1  0  0  0  0
  7 15  1  0  0  0  0
  8 20  1  0  0  0  0
  9 16  1  1  0  0  0
  9 17  1  0  0  0  0
 10 16  1  0  0  0  0
 11  7  2  0  0  0  0
 12  5  2  0  0  0  0
 15  4  1  0  0  0  0
 17  3  1  0  0  0  0
 17 13  2  0  0  0  0
 18  8  2  0  0  0  0
 18 11  1  0  0  0  0
 19  8  1  0  0  0  0
 20  2  1  0  0  0  0
 20 15  2  0  0  0  0
 22 25  1  0  0  0  0
 23 22  1  0  0  0  0
 23 21  1  0  0  0  0
 24 21  1  6  0  0  0
 24  6  1  0  0  0  0
 25 24  1  0  0  0  0
 27 22  1  0  0  0  0
 27 26  1  0  0  0  0
M  END
>  <MODEL>
5

>  <REMARK>
 VINA RESULT:      -7.4      3.010      5.043
  Name = 
  2 active torsions:
  status: ('A' for Active; 'I' for Inactive)
    1  A    between atoms: N_7  and  C_17
    2  A    between atoms: C_9  and  N_14
                            x       y       z     vdW  Elec       q    Type
                         _______ _______ _______ _____ _____    ______ ____

>  <TORSDO>
F 2

$$$$
=
 OpenBabel11062422103D

 27 31  0  0  1  0  0  0  0  0999 V2000
  190.6690  176.7150  145.4270 N   0  0  0  0  0  0  0  0  0  0  0  0
  189.8760  176.3310  143.0120 C   0  0  0  0  0  2  0  0  0  0  0  0
  193.2230  175.8980  144.7400 O   0  0  0  0  0  0  0  0  0  0  0  0
  192.4050  175.1240  142.5100 C   0  0  0  0  0  0  0  0  0  0  0  0
  192.1910  175.8120  143.7950 C   0  0  0  0  0  0  0  0  0  0  0  0
  189.5490  177.5210  145.9090 C   0  0  2  0  0  3  0  0  0  0  0  0
  191.3250  173.4140  141.0340 C   0  0  0  0  0  3  0  0  0  0  0  0
  188.7860  174.4550  141.6840 C   0  0  0  0  0  0  0  0  0  0  0  0
  191.5150  176.2700  146.5100 C   0  0  2  0  0  3  0  0  0  0  0  0
  189.6920  177.5330  147.4460 C   0  0  0  0  0  2  0  0  0  0  0  0
  190.1670  172.7690  140.6040 C   0  0  0  0  0  3  0  0  0  0  0  0
  190.9540  176.3140  144.0680 C   0  0  0  0  0  0  0  0  0  0  0  0
  193.8930  176.4670  146.8860 O   0  0  0  0  0  0  0  0  0  0  0  0
  193.5580  175.0070  142.0310 O   0  0  0  0  0  0  0  0  0  0  0  0
  191.2170  174.5440  141.8660 C   0  0  0  0  0  0  0  0  0  0  0  0
  191.1590  177.1740  147.6930 C   0  0  0  0  0  2  0  0  0  0  0  0
  192.9540  176.2570  146.0780 C   0  0  0  0  0  0  0  0  0  0  0  0
  188.9090  173.2730  140.9400 C   0  0  0  0  0  3  0  0  0  0  0  0
  187.4330  174.8670  142.1480 C   0  0  0  0  0  1  0  0  0  0  0  0
  189.9430  175.0940  142.1660 C   0  0  0  0  0  0  0  0  0  0  0  0
  187.4380  176.4150  146.5070 C   0  0  0  0  0  2  0  0  0  0  0  0
  186.1230  177.7280  145.0530 N   0  0  0  0  0  0  0  0  0  0  0  0
  186.0300  176.7860  146.1610 C   0  0  0  0  0  2  0  0  0  0  0  0
  188.2450  177.0010  145.4430 N   0  0  1  0  0  0  0  0  0  0  0  0
  187.4850  178.0520  144.8880 N   0  0  0  0  0  2  0  0  0  0  0  0
  184.0760  178.6840  146.1370 C   0  0  0  0  0  1  0  0  0  0  0  0
  185.3970  178.9540  145.4000 C   0  0  0  0  0  2  0  0  0  0  0  0
  1  6  1  0  0  0  0
  1  9  1  0  0  0  0
  2 12  1  0  0  0  0
  3 17  1  0  0  0  0
  4  5  1  0  0  0  0
  5 12  2  0  0  0  0
  5  3  1  0  0  0  0
  6 10  1  1  0  0  0
  7 15  1  0  0  0  0
  8 19  1  0  0  0  0
  8 20  1  0  0  0  0
  9 16  1  1  0  0  0
 10 16  1  0  0  0  0
 11 18  1  0  0  0  0
 11  7  2  0  0  0  0
 12  1  1  0  0  0  0
 14  4  2  0  0  0  0
 15 20  2  0  0  0  0
 15  4  1  0  0  0  0
 17  9  1  0  0  0  0
 17 13  2  0  0  0  0
 18  8  2  0  0  0  0
 20  2  1  0  0  0  0
 22 27  1  0  0  0  0
 22 23  1  0  0  0  0
 23 21  1  0  0  0  0
 24  6  1  0  0  0  0
 24 21  1  1  0  0  0
 25 22  1  0  0  0  0
 25 24  1  0  0  0  0
 27 26  1  0  0  0  0
M  END
>  <MODEL>
6

>  <REMARK>
 VINA RESULT:      -7.0      2.998      6.403
  Name = 
  2 active torsions:
  status: ('A' for Active; 'I' for Inactive)
    1  A    between atoms: N_7  and  C_17
    2  A    between atoms: C_9  and  N_14
                            x       y       z     vdW  Elec       q    Type
                         _______ _______ _______ _____ _____    ______ ____

>  <TORSDO>
F 2

$$$$
=
 OpenBabel11062422103D

 27 31  0  0  1  0  0  0  0  0999 V2000
  186.8790  176.4100  142.4960 N   0  0  0  0  0  0  0  0  0  0  0  0
  188.1830  174.4070  143.4430 C   0  0  0  0  0  2  0  0  0  0  0  0
  187.8160  175.8440  139.9540 O   0  0  0  0  0  0  0  0  0  0  0  0
  189.4100  174.1620  140.8860 C   0  0  0  0  0  0  0  0  0  0  0  0
  188.2900  175.1040  141.0470 C   0  0  0  0  0  0  0  0  0  0  0  0
  185.9850  176.6550  143.6260 C   0  0  2  0  0  3  0  0  0  0  0  0
  191.5880  173.5530  141.9610 C   0  0  0  0  0  3  0  0  0  0  0  0
  190.4580  173.9990  144.5060 C   0  0  0  0  0  0  0  0  0  0  0  0
  186.8490  177.4960  141.5420 C   0  0  2  0  0  3  0  0  0  0  0  0
  185.3810  178.0520  143.3680 C   0  0  0  0  0  2  0  0  0  0  0  0
  192.3850  173.5110  143.1040 C   0  0  0  0  0  3  0  0  0  0  0  0
  187.7610  175.2840  142.2890 C   0  0  0  0  0  0  0  0  0  0  0  0
  186.4480  177.5410  139.1610 O   0  0  0  0  0  0  0  0  0  0  0  0
  189.6650  173.6560  139.7680 O   0  0  0  0  0  0  0  0  0  0  0  0
  190.2300  173.9010  142.0800 C   0  0  0  0  0  0  0  0  0  0  0  0
  185.5720  178.2760  141.8660 C   0  0  0  0  0  2  0  0  0  0  0  0
  186.9810  176.9650  140.1430 C   0  0  0  0  0  0  0  0  0  0  0  0
  191.8300  173.7500  144.3630 C   0  0  0  0  0  3  0  0  0  0  0  0
  189.9420  174.3990  145.8440 C   0  0  0  0  0  1  0  0  0  0  0  0
  189.6470  174.0910  143.3600 C   0  0  0  0  0  0  0  0  0  0  0  0
  187.7170  177.5610  145.1170 C   0  0  0  0  0  2  0  0  0  0  0  0
  186.4560  177.2330  147.0840 N   0  0  0  0  0  0  0  0  0  0  0  0
  187.6450  177.9020  146.5730 C   0  0  0  0  0  2  0  0  0  0  0  0
  186.6850  176.5480  144.9250 N   0  0  1  0  0  0  0  0  0  0  0  0
  185.7590  176.7060  145.9780 N   0  0  0  0  0  2  0  0  0  0  0  0
  184.4110  178.6660  146.8710 C   0  0  0  0  0  1  0  0  0  0  0  0
  185.5940  178.2200  147.7440 C   0  0  0  0  0  2  0  0  0  0  0  0
  1  6  1  0  0  0  0
  3 17  1  0  0  0  0
  3  5  1  0  0  0  0
  4  5  1  0  0  0  0
  4 15  1  0  0  0  0
  5 12  2  0  0  0  0
  6 10  1  6  0  0  0
  6 24  1  0  0  0  0
  7 15  2  0  0  0  0
  7 11  1  0  0  0  0
  8 19  1  0  0  0  0
  9 16  1  6  0  0  0
  9  1  1  0  0  0  0
 11 18  2  0  0  0  0
 12  1  1  0  0  0  0
 12  2  1  0  0  0  0
 13 17  2  0  0  0  0
 14  4  2  0  0  0  0
 15 20  1  0  0  0  0
 16 10  1  0  0  0  0
 17  9  1  0  0  0  0
 18  8  1  0  0  0  0
 20  2  1  0  0  0  0
 20  8  2  0  0  0  0
 21 23  1  0  0  0  0
 22 27  1  0  0  0  0
 23 22  1  0  0  0  0
 24 21  1  6  0  0  0
 24 25  1  0  0  0  0
 25 22  1  0  0  0  0
 26 27  1  0  0  0  0
M  END
>  <MODEL>
7

>  <REMARK>
 VINA RESULT:      -7.0      2.018      5.593
  Name = 
  2 active torsions:
  status: ('A' for Active; 'I' for Inactive)
    1  A    between atoms: N_7  and  C_17
    2  A    between atoms: C_9  and  N_14
                            x       y       z     vdW  Elec       q    Type
                         _______ _______ _______ _____ _____    ______ ____

>  <TORSDO>
F 2

$$$$
=
 OpenBabel11062422103D

 27 31  0  0  1  0  0  0  0  0999 V2000
  188.2580  175.5650  142.9850 N   0  0  0  0  0  0  0  0  0  0  0  0
  189.3150  175.1420  145.2900 C   0  0  0  0  0  2  0  0  0  0  0  0
  190.1120  173.8810  141.8040 O   0  0  0  0  0  0  0  0  0  0  0  0
  191.4100  173.7720  143.9350 C   0  0  0  0  0  0  0  0  0  0  0  0
  190.2220  174.1850  143.1690 C   0  0  0  0  0  0  0  0  0  0  0  0
  186.9940  176.1550  143.4180 C   0  0  2  0  0  3  0  0  0  0  0  0
  193.0920  174.7050  145.5370 C   0  0  0  0  0  3  0  0  0  0  0  0
  191.0720  176.2430  146.7640 C   0  0  0  0  0  0  0  0  0  0  0  0
  188.4730  175.7380  141.5660 C   0  0  2  0  0  3  0  0  0  0  0  0
  186.3920  176.7980  142.1500 C   0  0  0  0  0  2  0  0  0  0  0  0
  193.4160  175.6420  146.5170 C   0  0  0  0  0  3  0  0  0  0  0  0
  189.2610  174.9150  143.7990 C   0  0  0  0  0  0  0  0  0  0  0  0
  188.9690  174.1610  139.8050 O   0  0  0  0  0  0  0  0  0  0  0  0
  192.1050  172.7970  143.5620 O   0  0  0  0  0  0  0  0  0  0  0  0
  191.7580  174.5910  145.1060 C   0  0  0  0  0  0  0  0  0  0  0  0
  187.0970  176.0870  140.9930 C   0  0  0  0  0  2  0  0  0  0  0  0
  189.1590  174.5320  140.9910 C   0  0  0  0  0  0  0  0  0  0  0  0
  192.4180  176.4170  147.1130 C   0  0  0  0  0  3  0  0  0  0  0  0
  190.0660  177.1950  147.3110 C   0  0  0  0  0  1  0  0  0  0  0  0
  190.7310  175.3350  145.7450 C   0  0  0  0  0  0  0  0  0  0  0  0
  186.8310  178.4850  144.1850 C   0  0  0  0  0  2  0  0  0  0  0  0
  186.0430  177.9160  146.3350 N   0  0  0  0  0  0  0  0  0  0  0  0
  186.2100  179.0430  145.4280 C   0  0  0  0  0  2  0  0  0  0  0  0
  187.1770  177.1110  144.5320 N   0  0  1  0  0  0  0  0  0  0  0  0
  186.3480  176.7440  145.6140 N   0  0  0  0  0  2  0  0  0  0  0  0
  183.6970  178.6660  145.8700 C   0  0  0  0  0  1  0  0  0  0  0  0
  184.6400  177.8430  146.7610 C   0  0  0  0  0  2  0  0  0  0  0  0
  1  6  1  0  0  0  0
  1 12  1  0  0  0  0
  2 20  1  0  0  0  0
  3  5  1  0  0  0  0
  4 15  1  0  0  0  0
  5 12  2  0  0  0  0
  5  4  1  0  0  0  0
  6 10  1  6  0  0  0
  6 24  1  0  0  0  0
  7 11  1  0  0  0  0
  8 18  1  0  0  0  0
  8 19  1  0  0  0  0
  9 16  1  6  0  0  0
  9  1  1  0  0  0  0
 11 18  2  0  0  0  0
 12  2  1  0  0  0  0
 13 17  2  0  0  0  0
 14  4  2  0  0  0  0
 15  7  2  0  0  0  0
 15 20  1  0  0  0  0
 16 10  1  0  0  0  0
 17  9  1  0  0  0  0
 17  3  1  0  0  0  0
 20  8  2  0  0  0  0
 21 23  1  0  0  0  0
 22 27  1  0  0  0  0
 23 22  1  0  0  0  0
 24 21  1  6  0  0  0
 24 25  1  0  0  0  0
 25 22  1  0  0  0  0
 26 27  1  0  0  0  0
M  END
>  <MODEL>
8

>  <REMARK>
 VINA RESULT:      -6.9      2.048      5.817
  Name = 
  2 active torsions:
  status: ('A' for Active; 'I' for Inactive)
    1  A    between atoms: N_7  and  C_17
    2  A    between atoms: C_9  and  N_14
                            x       y       z     vdW  Elec       q    Type
                         _______ _______ _______ _____ _____    ______ ____

>  <TORSDO>
F 2

$$$$
=
 OpenBabel11062422103D

 27 31  0  0  1  0  0  0  0  0999 V2000
  188.0620  176.6610  145.7480 N   0  0  0  0  0  0  0  0  0  0  0  0
  186.8780  175.8980  143.5970 C   0  0  0  0  0  2  0  0  0  0  0  0
  185.9510  178.3540  146.3330 O   0  0  0  0  0  0  0  0  0  0  0  0
  184.9700  177.9580  144.0700 C   0  0  0  0  0  0  0  0  0  0  0  0
  185.9640  177.6590  145.1150 C   0  0  0  0  0  0  0  0  0  0  0  0
  189.0610  175.5990  145.8460 C   0  0  2  0  0  3  0  0  0  0  0  0
  184.8350  178.4320  141.6160 C   0  0  0  0  0  3  0  0  0  0  0  0
  186.8790  176.5500  141.1380 C   0  0  0  0  0  0  0  0  0  0  0  0
  188.3420  177.7490  146.6570 C   0  0  2  0  0  3  0  0  0  0  0  0
  190.0870  176.1050  146.8840 C   0  0  0  0  0  2  0  0  0  0  0  0
  185.3800  178.2910  140.3410 C   0  0  0  0  0  3  0  0  0  0  0  0
  186.9280  176.7340  144.8530 C   0  0  0  0  0  0  0  0  0  0  0  0
  186.9970  178.8270  148.3490 O   0  0  0  0  0  0  0  0  0  0  0  0
  183.8620  178.4640  144.3670 O   0  0  0  0  0  0  0  0  0  0  0  0
  185.3700  177.6860  142.6810 C   0  0  0  0  0  0  0  0  0  0  0  0
  189.3300  177.1740  147.6750 C   0  0  0  0  0  2  0  0  0  0  0  0
  187.0630  178.3180  147.2010 C   0  0  0  0  0  0  0  0  0  0  0  0
  186.4050  177.3720  140.1070 C   0  0  0  0  0  3  0  0  0  0  0  0
  188.0730  175.6990  140.8790 C   0  0  0  0  0  1  0  0  0  0  0  0
  186.3740  176.7100  142.4410 C   0  0  0  0  0  0  0  0  0  0  0  0
  190.6160  176.2750  144.0670 C   0  0  0  0  0  2  0  0  0  0  0  0
  191.3980  174.0850  143.6650 N   0  0  0  0  0  0  0  0  0  0  0  0
  191.6830  175.4840  143.3760 C   0  0  0  0  0  2  0  0  0  0  0  0
  189.6620  175.2750  144.5350 N   0  0  1  0  0  0  0  0  0  0  0  0
  190.3640  174.0530  144.6230 N   0  0  0  0  0  2  0  0  0  0  0  0
  192.9220  174.0000  145.6520 C   0  0  0  0  0  1  0  0  0  0  0  0
  192.5890  173.4610  144.2520 C   0  0  0  0  0  2  0  0  0  0  0  0
  1  6  1  0  0  0  0
  1  9  1  0  0  0  0
  2 12  1  0  0  0  0
  3 17  1  0  0  0  0
  4 14  2  0  0  0  0
  4  5  1  0  0  0  0
  5  3  1  0  0  0  0
  6 10  1  1  0  0  0
  7 15  1  0  0  0  0
  8 20  1  0  0  0  0
  9 17  1  0  0  0  0
  9 16  1  1  0  0  0
 10 16  1  0  0  0  0
 11  7  2  0  0  0  0
 12  5  2  0  0  0  0
 12  1  1  0  0  0  0
 15  4  1  0  0  0  0
 17 13  2  0  0  0  0
 18 11  1  0  0  0  0
 18  8  2  0  0  0  0
 19  8  1  0  0  0  0
 20 15  2  0  0  0  0
 20  2  1  0  0  0  0
 22 27  1  0  0  0  0
 22 25  1  0  0  0  0
 23 22  1  0  0  0  0
 23 21  1  0  0  0  0
 24 21  1  1  0  0  0
 24 25  1  0  0  0  0
 24  6  1  0  0  0  0
 27 26  1  0  0  0  0
M  END
>  <MODEL>
9

>  <REMARK>
 VINA RESULT:      -6.8      2.472      4.513
  Name = 
  2 active torsions:
  status: ('A' for Active; 'I' for Inactive)
    1  A    between atoms: N_7  and  C_17
    2  A    between atoms: C_9  and  N_14
                            x       y       z     vdW  Elec       q    Type
                         _______ _______ _______ _____ _____    ______ ____

>  <TORSDO>
F 2

$$$$
