=
 OpenBabel11062418563D

 33 38  0  0  1  0  0  0  0  0999 V2000
  191.3430  176.4510  146.3970 C   0  0  0  0  0  3  0  0  0  0  0  0
  189.6810  174.9060  147.2950 C   0  0  0  0  0  3  0  0  0  0  0  0
  190.2850  174.7930  144.9720 C   0  0  0  0  0  0  0  0  0  0  0  0
  191.1690  175.8540  145.1490 C   0  0  0  0  0  0  0  0  0  0  0  0
  190.3040  174.1440  143.2980 P   0  0  1  0  0  4  0  0  0  0  0  0
  192.5640  175.2640  142.0520 N   0  0  0  0  0  0  0  0  0  0  0  0
  190.5850  175.9700  147.4750 C   0  0  0  0  0  3  0  0  0  0  0  0
  191.8580  176.1750  143.9050 C   0  0  0  0  0  0  0  0  0  0  0  0
  189.5300  174.3070  146.0360 C   0  0  0  0  0  3  0  0  0  0  0  0
  191.5060  175.3850  142.8670 C   0  0  2  0  0  3  0  0  0  0  0  0
  193.1270  176.5740  143.7330 N   0  0  0  0  0  0  0  0  0  0  0  0
  193.5100  176.0410  142.5760 N   0  0  0  0  0  0  0  0  0  0  0  0
  192.2390  170.6330  143.7920 C   0  0  0  0  0  3  0  0  0  0  0  0
  191.7530  170.1990  142.5600 C   0  0  0  0  0  3  0  0  0  0  0  0
  191.8320  171.9250  144.1530 C   0  0  0  0  0  3  0  0  0  0  0  0
  190.8130  171.4420  141.9240 S   0  0  0  0  0  0  0  0  0  0  0  0
  191.0160  172.5060  143.2000 C   0  0  0  0  0  0  0  0  0  0  0  0
  188.7350  174.4110  142.4600 C   0  0  0  0  0  0  0  0  0  0  0  0
  188.0340  173.4090  142.1650 O   0  0  0  0  0  0  0  0  0  0  0  0
  188.2590  175.7150  142.1050 N   0  0  0  0  0  2  0  0  0  0  0  0
  188.9500  176.9600  142.3930 C   0  0  0  0  0  2  0  0  0  0  0  0
  188.4290  177.5740  143.6810 C   0  0  0  0  0  2  0  0  0  0  0  0
  184.3430  178.6650  146.3200 C   0  0  0  0  0  3  0  0  0  0  0  0
  184.0520  178.9350  143.8910 C   0  0  0  0  0  2  0  0  0  0  0  0
  185.3130  178.4320  141.7780 C   0  0  0  0  0  2  0  0  0  0  0  0
  184.1700  178.0020  142.6970 C   0  0  0  0  0  2  0  0  0  0  0  0
  185.0590  178.3430  147.4720 C   0  0  0  0  0  3  0  0  0  0  0  0
  186.5840  178.8030  142.5400 C   0  0  0  0  0  2  0  0  0  0  0  0
  186.3600  177.8580  147.3670 C   0  0  0  0  0  3  0  0  0  0  0  0
  186.9140  177.7490  143.5910 C   0  0  2  0  0  3  0  0  0  0  0  0
  186.9440  177.7020  146.1110 C   0  0  0  0  0  3  0  0  0  0  0  0
  186.2530  178.0380  144.9340 C   0  0  0  0  0  0  0  0  0  0  0  0
  184.9090  178.5040  145.0510 C   0  0  0  0  0  0  0  0  0  0  0  0
  1  7  1  0  0  0  0
  2  7  2  0  0  0  0
  3  4  1  0  0  0  0
  3  9  2  0  0  0  0
  4  1  2  0  0  0  0
  5 18  1  6  0  0  0
  5  3  1  0  0  0  0
  6 12  2  0  0  0  0
  8  4  1  0  0  0  0
  9  2  1  0  0  0  0
 10  6  1  1  0  0  0
 10  5  1  0  0  0  0
 10  8  1  0  0  0  0
 11  8  2  0  0  0  0
 12 11  1  0  0  0  0
 13 15  1  0  0  0  0
 14 13  2  0  0  0  0
 16 14  1  0  0  0  0
 16 17  1  0  0  0  0
 17  5  1  0  0  0  0
 17 15  2  0  0  0  0
 19 18  2  0  0  0  0
 20 21  1  0  0  0  0
 20 18  1  0  0  0  0
 21 22  1  0  0  0  0
 23 27  1  0  0  0  0
 24 33  1  0  0  0  0
 25 28  1  0  0  0  0
 25 26  1  0  0  0  0
 26 24  1  0  0  0  0
 28 30  1  0  0  0  0
 29 27  2  0  0  0  0
 30 22  1  1  0  0  0
 30 32  1  0  0  0  0
 31 29  1  0  0  0  0
 32 33  1  0  0  0  0
 32 31  2  0  0  0  0
 33 23  2  0  0  0  0
M  END
>  <MODEL>
1

>  <REMARK>
 VINA RESULT:      -9.0      0.000      0.000
  Name = 
  5 active torsions:
  status: ('A' for Active; 'I' for Inactive)
    1  A    between atoms: C_8  and  C_21
    2  A    between atoms: C_8  and  C_32
    3  A    between atoms: C_15  and  P_16
    4  A    between atoms: P_16  and  C_29
    5  A    between atoms: N_19  and  C_32
                            x       y       z     vdW  Elec       q    Type
                         _______ _______ _______ _____ _____    ______ ____

>  <TORSDO>
F 5

$$$$
=
 OpenBabel11062418563D

 33 38  0  0  1  0  0  0  0  0999 V2000
  191.4570  175.4340  147.4870 C   0  0  0  0  0  3  0  0  0  0  0  0
  189.4390  174.3830  146.6050 C   0  0  0  0  0  3  0  0  0  0  0  0
  191.4100  174.5220  145.2360 C   0  0  0  0  0  0  0  0  0  0  0  0
  192.0800  175.1780  146.2660 C   0  0  0  0  0  0  0  0  0  0  0  0
  192.4510  174.2340  143.8030 P   0  0  1  0  0  4  0  0  0  0  0  0
  195.0870  174.7620  144.6320 N   0  0  0  0  0  0  0  0  0  0  0  0
  190.1220  175.0340  147.6500 C   0  0  0  0  0  3  0  0  0  0  0  0
  193.4530  175.4850  145.8860 C   0  0  0  0  0  0  0  0  0  0  0  0
  190.0850  174.1190  145.3880 C   0  0  0  0  0  3  0  0  0  0  0  0
  193.7800  175.0670  144.6430 C   0  0  0  0  0  0  0  0  0  0  0  0
  194.5540  175.4670  146.6510 N   0  0  0  0  0  0  0  0  0  0  0  0
  195.5360  175.0690  145.8470 N   0  0  0  0  0  2  0  0  0  0  0  0
  192.7650  170.2080  143.8410 C   0  0  0  0  0  3  0  0  0  0  0  0
  193.7420  170.2800  142.8500 C   0  0  0  0  0  3  0  0  0  0  0  0
  192.2560  171.4500  144.2450 C   0  0  0  0  0  3  0  0  0  0  0  0
  193.9670  171.9080  142.4840 S   0  0  0  0  0  0  0  0  0  0  0  0
  192.8330  172.5040  143.5610 C   0  0  0  0  0  0  0  0  0  0  0  0
  191.8810  175.1590  142.3680 C   0  0  0  0  0  0  0  0  0  0  0  0
  191.7870  174.5590  141.2660 O   0  0  0  0  0  0  0  0  0  0  0  0
  191.5430  176.5500  142.4270 N   0  0  0  0  0  2  0  0  0  0  0  0
  191.5890  177.3660  143.6290 C   0  0  0  0  0  2  0  0  0  0  0  0
  190.3180  178.1870  143.7630 C   0  0  0  0  0  2  0  0  0  0  0  0
  185.9420  176.7370  145.6600 C   0  0  0  0  0  3  0  0  0  0  0  0
  186.1580  176.3220  143.2440 C   0  0  0  0  0  2  0  0  0  0  0  0
  187.9320  176.4230  141.4690 C   0  0  0  0  0  2  0  0  0  0  0  0
  187.1180  175.5130  142.3870 C   0  0  0  0  0  2  0  0  0  0  0  0
  186.3910  177.1750  146.9050 C   0  0  0  0  0  3  0  0  0  0  0  0
  188.4630  177.6660  142.1810 C   0  0  0  0  0  2  0  0  0  0  0  0
  187.6870  177.6640  147.0420 C   0  0  0  0  0  3  0  0  0  0  0  0
  189.1010  177.2980  143.5150 C   0  0  2  0  0  3  0  0  0  0  0  0
  188.5300  177.7200  145.9340 C   0  0  0  0  0  3  0  0  0  0  0  0
  188.0970  177.3040  144.6620 C   0  0  0  0  0  0  0  0  0  0  0  0
  186.7770  176.7750  144.5380 C   0  0  0  0  0  0  0  0  0  0  0  0
  1  7  1  0  0  0  0
  2  7  2  0  0  0  0
  3  9  2  0  0  0  0
  3  4  1  0  0  0  0
  4  1  2  0  0  0  0
  5 18  1  6  0  0  0
  5 10  1  0  0  0  0
  5  3  1  0  0  0  0
  6 10  2  0  0  0  0
  6 12  1  0  0  0  0
  8  4  1  0  0  0  0
  8 11  2  0  0  0  0
  9  2  1  0  0  0  0
 10  8  1  0  0  0  0
 12 11  1  0  0  0  0
 13 15  1  0  0  0  0
 14 13  2  0  0  0  0
 16 14  1  0  0  0  0
 16 17  1  0  0  0  0
 17  5  1  0  0  0  0
 17 15  2  0  0  0  0
 18 20  1  0  0  0  0
 19 18  2  0  0  0  0
 20 21  1  0  0  0  0
 21 22  1  0  0  0  0
 23 27  1  0  0  0  0
 24 33  1  0  0  0  0
 25 28  1  0  0  0  0
 25 26  1  0  0  0  0
 26 24  1  0  0  0  0
 27 29  2  0  0  0  0
 28 30  1  0  0  0  0
 30 22  1  1  0  0  0
 30 32  1  0  0  0  0
 31 29  1  0  0  0  0
 32 31  2  0  0  0  0
 33 32  1  0  0  0  0
 33 23  2  0  0  0  0
M  END
>  <MODEL>
2

>  <REMARK>
 VINA RESULT:      -8.7      1.956      2.538
  Name = 
  5 active torsions:
  status: ('A' for Active; 'I' for Inactive)
    1  A    between atoms: C_8  and  C_21
    2  A    between atoms: C_8  and  C_32
    3  A    between atoms: C_15  and  P_16
    4  A    between atoms: P_16  and  C_29
    5  A    between atoms: N_19  and  C_32
                            x       y       z     vdW  Elec       q    Type
                         _______ _______ _______ _____ _____    ______ ____

>  <TORSDO>
F 5

$$$$
=
 OpenBabel11062418563D

 33 38  0  0  1  0  0  0  0  0999 V2000
  192.0700  175.1750  147.2790 C   0  0  0  0  0  3  0  0  0  0  0  0
  189.6330  175.2980  147.2630 C   0  0  0  0  0  3  0  0  0  0  0  0
  190.8490  175.4330  145.1950 C   0  0  0  0  0  0  0  0  0  0  0  0
  192.0500  175.3200  145.8930 C   0  0  0  0  0  0  0  0  0  0  0  0
  191.0850  175.5210  143.4170 P   0  0  1  0  0  4  0  0  0  0  0  0
  193.7620  174.7950  142.9470 N   0  0  0  0  0  0  0  0  0  0  0  0
  190.8450  175.1690  147.9650 C   0  0  0  0  0  3  0  0  0  0  0  0
  193.1880  175.3330  144.9830 C   0  0  0  0  0  0  0  0  0  0  0  0
  189.6290  175.4270  145.8660 C   0  0  0  0  0  3  0  0  0  0  0  0
  192.8440  175.4420  143.6810 C   0  0  0  0  0  0  0  0  0  0  0  0
  194.3340  174.6410  145.0700 N   0  0  0  0  0  0  0  0  0  0  0  0
  194.6790  174.3710  143.8140 N   0  0  0  0  0  2  0  0  0  0  0  0
  189.4740  172.0130  142.2290 C   0  0  0  0  0  3  0  0  0  0  0  0
  189.9420  172.2430  140.9370 C   0  0  0  0  0  3  0  0  0  0  0  0
  189.7870  173.0250  143.1480 C   0  0  0  0  0  3  0  0  0  0  0  0
  190.7510  173.7190  140.9500 S   0  0  0  0  0  0  0  0  0  0  0  0
  190.5000  174.0590  142.5690 C   0  0  0  0  0  0  0  0  0  0  0  0
  190.5770  177.1150  142.7540 C   0  0  0  0  0  0  0  0  0  0  0  0
  191.3940  178.0700  142.7970 O   0  0  0  0  0  0  0  0  0  0  0  0
  189.2790  177.3420  142.1930 N   0  0  0  0  0  2  0  0  0  0  0  0
  188.2400  176.3330  142.0640 C   0  0  0  0  0  2  0  0  0  0  0  0
  187.4790  176.1820  143.3690 C   0  0  0  0  0  2  0  0  0  0  0  0
  184.0740  178.7300  145.9680 C   0  0  0  0  0  3  0  0  0  0  0  0
  183.9050  179.0530  143.5350 C   0  0  0  0  0  2  0  0  0  0  0  0
  184.8960  178.0940  141.4360 C   0  0  0  0  0  2  0  0  0  0  0  0
  183.6750  178.1250  142.3530 C   0  0  0  0  0  2  0  0  0  0  0  0
  184.6210  178.1860  147.1290 C   0  0  0  0  0  3  0  0  0  0  0  0
  186.2140  177.9840  142.2010 C   0  0  0  0  0  2  0  0  0  0  0  0
  185.6550  177.2570  147.0380 C   0  0  0  0  0  3  0  0  0  0  0  0
  186.1340  176.8980  143.2680 C   0  0  2  0  0  3  0  0  0  0  0  0
  186.1430  176.8800  145.7880 C   0  0  0  0  0  3  0  0  0  0  0  0
  185.6240  177.4290  144.6020 C   0  0  0  0  0  0  0  0  0  0  0  0
  184.5430  178.3560  144.7050 C   0  0  0  0  0  0  0  0  0  0  0  0
  1  7  1  0  0  0  0
  2  7  2  0  0  0  0
  3  9  2  0  0  0  0
  3  4  1  0  0  0  0
  4  1  2  0  0  0  0
  5 18  1  6  0  0  0
  5 10  1  0  0  0  0
  5  3  1  0  0  0  0
  6 10  2  0  0  0  0
  6 12  1  0  0  0  0
  8 11  2  0  0  0  0
  8  4  1  0  0  0  0
  9  2  1  0  0  0  0
 10  8  1  0  0  0  0
 12 11  1  0  0  0  0
 13 15  1  0  0  0  0
 14 16  1  0  0  0  0
 14 13  2  0  0  0  0
 16 17  1  0  0  0  0
 17 15  2  0  0  0  0
 17  5  1  0  0  0  0
 18 19  2  0  0  0  0
 20 18  1  0  0  0  0
 21 20  1  0  0  0  0
 21 22  1  0  0  0  0
 23 27  1  0  0  0  0
 24 33  1  0  0  0  0
 25 28  1  0  0  0  0
 25 26  1  0  0  0  0
 26 24  1  0  0  0  0
 28 30  1  0  0  0  0
 29 27  2  0  0  0  0
 30 22  1  1  0  0  0
 30 32  1  0  0  0  0
 31 29  1  0  0  0  0
 32 33  1  0  0  0  0
 32 31  2  0  0  0  0
 33 23  2  0  0  0  0
M  END
>  <MODEL>
3

>  <REMARK>
 VINA RESULT:      -8.7      1.801      1.973
  Name = 
  5 active torsions:
  status: ('A' for Active; 'I' for Inactive)
    1  A    between atoms: C_8  and  C_21
    2  A    between atoms: C_8  and  C_32
    3  A    between atoms: C_15  and  P_16
    4  A    between atoms: P_16  and  C_29
    5  A    between atoms: N_19  and  C_32
                            x       y       z     vdW  Elec       q    Type
                         _______ _______ _______ _____ _____    ______ ____

>  <TORSDO>
F 5

$$$$
=
 OpenBabel11062418563D

 33 38  0  0  1  0  0  0  0  0999 V2000
  195.5900  175.0840  144.3250 C   0  0  0  0  0  3  0  0  0  0  0  0
  194.4910  175.3170  146.4910 C   0  0  0  0  0  3  0  0  0  0  0  0
  193.1840  175.3890  144.4760 C   0  0  0  0  0  0  0  0  0  0  0  0
  194.3420  175.2240  143.7180 C   0  0  0  0  0  0  0  0  0  0  0  0
  191.7000  175.4580  143.4690 P   0  0  1  0  0  4  0  0  0  0  0  0
  192.4600  174.6100  140.8960 N   0  0  0  0  0  0  0  0  0  0  0  0
  195.6580  175.1360  145.7260 C   0  0  0  0  0  3  0  0  0  0  0  0
  194.0360  175.1820  142.2940 C   0  0  0  0  0  0  0  0  0  0  0  0
  193.2410  175.4400  145.8660 C   0  0  0  0  0  3  0  0  0  0  0  0
  192.7180  175.3010  142.0170 C   0  0  2  0  0  3  0  0  0  0  0  0
  194.6130  174.4400  141.3380 N   0  0  0  0  0  0  0  0  0  0  0  0
  193.6380  174.1490  140.4810 N   0  0  0  0  0  0  0  0  0  0  0  0
  189.7720  172.0980  144.6120 C   0  0  0  0  0  3  0  0  0  0  0  0
  188.9800  172.1710  143.4680 C   0  0  0  0  0  3  0  0  0  0  0  0
  190.7150  173.1290  144.7310 C   0  0  0  0  0  3  0  0  0  0  0  0
  189.4670  173.5320  142.6040 S   0  0  0  0  0  0  0  0  0  0  0  0
  190.6560  174.0210  143.6750 C   0  0  0  0  0  0  0  0  0  0  0  0
  190.9070  177.0710  143.5590 C   0  0  0  0  0  0  0  0  0  0  0  0
  191.1080  177.8920  142.6280 O   0  0  0  0  0  0  0  0  0  0  0  0
  190.0670  177.4600  144.6530 N   0  0  0  0  0  2  0  0  0  0  0  0
  189.7340  176.6160  145.7880 C   0  0  0  0  0  2  0  0  0  0  0  0
  188.3450  176.0240  145.6210 C   0  0  0  0  0  2  0  0  0  0  0  0
  184.3630  178.2940  143.6620 C   0  0  0  0  0  3  0  0  0  0  0  0
  184.5550  178.5650  146.1000 C   0  0  0  0  0  2  0  0  0  0  0  0
  186.2140  178.0810  147.9220 C   0  0  0  0  0  2  0  0  0  0  0  0
  185.6070  179.1580  147.0240 C   0  0  0  0  0  2  0  0  0  0  0  0
  184.7760  177.8350  142.4120 C   0  0  0  0  0  3  0  0  0  0  0  0
  186.5500  176.7950  147.1690 C   0  0  0  0  0  2  0  0  0  0  0  0
  185.9730  177.1340  142.2910 C   0  0  0  0  0  3  0  0  0  0  0  0
  187.2920  177.1010  145.8740 C   0  0  2  0  0  3  0  0  0  0  0  0
  186.7500  176.8860  143.4220 C   0  0  0  0  0  3  0  0  0  0  0  0
  186.3480  177.3180  144.6980 C   0  0  0  0  0  0  0  0  0  0  0  0
  185.1350  178.0640  144.8060 C   0  0  0  0  0  0  0  0  0  0  0  0
  1  7  1  0  0  0  0
  3  9  2  0  0  0  0
  4  1  2  0  0  0  0
  4  3  1  0  0  0  0
  5 18  1  1  0  0  0
  5 17  1  0  0  0  0
  5  3  1  0  0  0  0
  7  2  2  0  0  0  0
  8  4  1  0  0  0  0
  9  2  1  0  0  0  0
 10  6  1  1  0  0  0
 10  8  1  0  0  0  0
 10  5  1  0  0  0  0
 11  8  2  0  0  0  0
 12  6  2  0  0  0  0
 12 11  1  0  0  0  0
 13 15  1  0  0  0  0
 14 13  2  0  0  0  0
 16 14  1  0  0  0  0
 16 17  1  0  0  0  0
 17 15  2  0  0  0  0
 18 20  1  0  0  0  0
 19 18  2  0  0  0  0
 20 21  1  0  0  0  0
 22 21  1  0  0  0  0
 23 33  1  0  0  0  0
 24 26  1  0  0  0  0
 26 25  1  0  0  0  0
 27 23  2  0  0  0  0
 28 25  1  0  0  0  0
 29 27  1  0  0  0  0
 29 31  2  0  0  0  0
 30 22  1  6  0  0  0
 30 28  1  0  0  0  0
 31 32  1  0  0  0  0
 32 33  2  0  0  0  0
 32 30  1  0  0  0  0
 33 24  1  0  0  0  0
M  END
>  <MODEL>
4

>  <REMARK>
 VINA RESULT:      -8.5      2.224      3.585
  Name = 
  5 active torsions:
  status: ('A' for Active; 'I' for Inactive)
    1  A    between atoms: C_8  and  C_21
    2  A    between atoms: C_8  and  C_32
    3  A    between atoms: C_15  and  P_16
    4  A    between atoms: P_16  and  C_29
    5  A    between atoms: N_19  and  C_32
                            x       y       z     vdW  Elec       q    Type
                         _______ _______ _______ _____ _____    ______ ____

>  <TORSDO>
F 5

$$$$
=
 OpenBabel11062418563D

 33 38  0  0  1  0  0  0  0  0999 V2000
  189.7710  177.1070  145.7110 C   0  0  0  0  0  3  0  0  0  0  0  0
  188.9370  175.2920  147.1120 C   0  0  0  0  0  3  0  0  0  0  0  0
  190.0460  174.7890  145.0400 C   0  0  0  0  0  0  0  0  0  0  0  0
  190.2160  176.1500  144.8000 C   0  0  0  0  0  0  0  0  0  0  0  0
  190.7790  173.7610  143.7640 P   0  0  1  0  0  4  0  0  0  0  0  0
  192.4050  175.4650  142.2260 N   0  0  0  0  0  0  0  0  0  0  0  0
  189.1220  176.6670  146.8740 C   0  0  0  0  0  3  0  0  0  0  0  0
  190.9250  176.3760  143.5470 C   0  0  0  0  0  0  0  0  0  0  0  0
  189.4050  174.3410  146.1930 C   0  0  0  0  0  3  0  0  0  0  0  0
  191.2680  175.2390  142.9020 C   0  0  2  0  0  3  0  0  0  0  0  0
  191.8290  177.3250  143.2590 N   0  0  0  0  0  0  0  0  0  0  0  0
  192.6860  176.7520  142.4180 N   0  0  0  0  0  0  0  0  0  0  0  0
  194.1430  172.3770  145.5200 C   0  0  0  0  0  3  0  0  0  0  0  0
  194.0360  171.1990  144.7830 C   0  0  0  0  0  3  0  0  0  0  0  0
  193.1250  173.3090  145.2740 C   0  0  0  0  0  3  0  0  0  0  0  0
  192.6610  171.3320  143.8200 S   0  0  0  0  0  0  0  0  0  0  0  0
  192.2090  172.8560  144.3420 C   0  0  0  0  0  0  0  0  0  0  0  0
  189.5320  172.8350  142.8540 C   0  0  0  0  0  0  0  0  0  0  0  0
  189.6840  171.5940  142.7220 O   0  0  0  0  0  0  0  0  0  0  0  0
  188.3830  173.4570  142.2650 N   0  0  0  0  0  2  0  0  0  0  0  0
  188.0700  174.8740  142.3480 C   0  0  0  0  0  2  0  0  0  0  0  0
  186.9960  175.1210  143.3930 C   0  0  0  0  0  2  0  0  0  0  0  0
  185.3580  179.1410  145.8440 C   0  0  0  0  0  3  0  0  0  0  0  0
  185.9410  179.5850  143.4950 C   0  0  0  0  0  2  0  0  0  0  0  0
  186.5740  178.2930  141.4370 C   0  0  0  0  0  2  0  0  0  0  0  0
  185.4570  179.0440  142.1590 C   0  0  0  0  0  2  0  0  0  0  0  0
  185.2030  178.3330  146.9690 C   0  0  0  0  0  3  0  0  0  0  0  0
  187.3580  177.3600  142.3580 C   0  0  0  0  0  2  0  0  0  0  0  0
  185.4570  176.9670  146.8830 C   0  0  0  0  0  3  0  0  0  0  0  0
  186.4150  176.5220  143.2140 C   0  0  2  0  0  3  0  0  0  0  0  0
  185.8720  176.4130  145.6730 C   0  0  0  0  0  3  0  0  0  0  0  0
  186.0570  177.2070  144.5270 C   0  0  0  0  0  0  0  0  0  0  0  0
  185.7630  178.6010  144.6180 C   0  0  0  0  0  0  0  0  0  0  0  0
  1  7  1  0  0  0  0
  3  9  2  0  0  0  0
  4  3  1  0  0  0  0
  4  1  2  0  0  0  0
  5 18  1  6  0  0  0
  5 17  1  0  0  0  0
  5  3  1  0  0  0  0
  6 12  2  0  0  0  0
  7  2  2  0  0  0  0
  8  4  1  0  0  0  0
  9  2  1  0  0  0  0
 10  6  1  1  0  0  0
 10  8  1  0  0  0  0
 10  5  1  0  0  0  0
 11  8  2  0  0  0  0
 12 11  1  0  0  0  0
 14 13  2  0  0  0  0
 15 13  1  0  0  0  0
 16 17  1  0  0  0  0
 16 14  1  0  0  0  0
 17 15  2  0  0  0  0
 19 18  2  0  0  0  0
 20 21  1  0  0  0  0
 20 18  1  0  0  0  0
 21 22  1  0  0  0  0
 23 27  1  0  0  0  0
 24 33  1  0  0  0  0
 25 26  1  0  0  0  0
 25 28  1  0  0  0  0
 26 24  1  0  0  0  0
 28 30  1  0  0  0  0
 29 27  2  0  0  0  0
 30 22  1  1  0  0  0
 30 32  1  0  0  0  0
 31 29  1  0  0  0  0
 32 33  1  0  0  0  0
 32 31  2  0  0  0  0
 33 23  2  0  0  0  0
M  END
>  <MODEL>
5

>  <REMARK>
 VINA RESULT:      -8.5      1.506      1.735
  Name = 
  5 active torsions:
  status: ('A' for Active; 'I' for Inactive)
    1  A    between atoms: C_8  and  C_21
    2  A    between atoms: C_8  and  C_32
    3  A    between atoms: C_15  and  P_16
    4  A    between atoms: P_16  and  C_29
    5  A    between atoms: N_19  and  C_32
                            x       y       z     vdW  Elec       q    Type
                         _______ _______ _______ _____ _____    ______ ____

>  <TORSDO>
F 5

$$$$
=
 OpenBabel11062418563D

 33 38  0  0  1  0  0  0  0  0999 V2000
  195.8600  172.6920  145.0100 C   0  0  0  0  0  3  0  0  0  0  0  0
  196.0100  175.0200  145.7260 C   0  0  0  0  0  3  0  0  0  0  0  0
  193.9890  174.2120  144.7080 C   0  0  0  0  0  0  0  0  0  0  0  0
  194.5650  172.9510  144.5640 C   0  0  0  0  0  0  0  0  0  0  0  0
  192.2890  174.2680  144.1360 P   0  0  1  0  0  4  0  0  0  0  0  0
  191.4960  171.5930  143.7740 N   0  0  0  0  0  0  0  0  0  0  0  0
  196.5850  173.7420  145.5920 C   0  0  0  0  0  3  0  0  0  0  0  0
  193.6300  172.0160  143.9520 C   0  0  0  0  0  0  0  0  0  0  0  0
  194.7000  175.2600  145.2860 C   0  0  0  0  0  3  0  0  0  0  0  0
  192.4240  172.5560  143.6680 C   0  0  0  0  0  0  0  0  0  0  0  0
  193.4670  170.7100  144.2110 N   0  0  0  0  0  0  0  0  0  0  0  0
  192.1680  170.4770  144.0480 N   0  0  0  0  0  2  0  0  0  0  0  0
  189.1160  174.3960  146.6320 C   0  0  0  0  0  3  0  0  0  0  0  0
  189.9120  175.0040  147.6020 C   0  0  0  0  0  3  0  0  0  0  0  0
  189.7850  174.1010  145.4360 C   0  0  0  0  0  3  0  0  0  0  0  0
  191.4560  175.1720  146.9530 S   0  0  0  0  0  0  0  0  0  0  0  0
  191.1160  174.4750  145.4700 C   0  0  0  0  0  0  0  0  0  0  0  0
  192.1020  175.3420  142.7030 C   0  0  0  0  0  0  0  0  0  0  0  0
  192.2550  174.8460  141.5580 O   0  0  0  0  0  0  0  0  0  0  0  0
  191.7980  176.7370  142.8160 N   0  0  0  0  0  2  0  0  0  0  0  0
  191.5790  177.4430  144.0670 C   0  0  0  0  0  2  0  0  0  0  0  0
  190.3010  178.2600  144.0020 C   0  0  0  0  0  2  0  0  0  0  0  0
  185.8030  176.7530  145.5320 C   0  0  0  0  0  3  0  0  0  0  0  0
  186.2290  176.3250  143.1470 C   0  0  0  0  0  2  0  0  0  0  0  0
  188.1460  176.4430  141.5280 C   0  0  0  0  0  2  0  0  0  0  0  0
  187.2720  175.5250  142.3810 C   0  0  0  0  0  2  0  0  0  0  0  0
  186.1370  177.2070  146.8070 C   0  0  0  0  0  3  0  0  0  0  0  0
  188.5960  177.6990  142.2720 C   0  0  0  0  0  2  0  0  0  0  0  0
  187.4090  177.7180  147.0500 C   0  0  0  0  0  3  0  0  0  0  0  0
  189.1230  177.3500  143.6590 C   0  0  2  0  0  3  0  0  0  0  0  0
  188.3420  177.7790  146.0160 C   0  0  0  0  0  3  0  0  0  0  0  0
  188.0260  177.3480  144.7160 C   0  0  0  0  0  0  0  0  0  0  0  0
  186.7290  176.7970  144.4850 C   0  0  0  0  0  0  0  0  0  0  0  0
  1  7  1  0  0  0  0
  3  9  2  0  0  0  0
  4  3  1  0  0  0  0
  4  1  2  0  0  0  0
  5 18  1  6  0  0  0
  5  3  1  0  0  0  0
  5 17  1  0  0  0  0
  6 12  1  0  0  0  0
  7  2  2  0  0  0  0
  8 11  2  0  0  0  0
  8  4  1  0  0  0  0
  9  2  1  0  0  0  0
 10  6  2  0  0  0  0
 10  8  1  0  0  0  0
 10  5  1  0  0  0  0
 12 11  1  0  0  0  0
 13 14  2  0  0  0  0
 15 17  2  0  0  0  0
 15 13  1  0  0  0  0
 16 14  1  0  0  0  0
 17 16  1  0  0  0  0
 18 20  1  0  0  0  0
 19 18  2  0  0  0  0
 20 21  1  0  0  0  0
 22 21  1  0  0  0  0
 23 27  1  0  0  0  0
 24 33  1  0  0  0  0
 25 28  1  0  0  0  0
 25 26  1  0  0  0  0
 26 24  1  0  0  0  0
 27 29  2  0  0  0  0
 28 30  1  0  0  0  0
 30 22  1  1  0  0  0
 30 32  1  0  0  0  0
 31 29  1  0  0  0  0
 32 31  2  0  0  0  0
 33 32  1  0  0  0  0
 33 23  2  0  0  0  0
M  END
>  <MODEL>
6

>  <REMARK>
 VINA RESULT:      -8.5      2.832      4.210
  Name = 
  5 active torsions:
  status: ('A' for Active; 'I' for Inactive)
    1  A    between atoms: C_8  and  C_21
    2  A    between atoms: C_8  and  C_32
    3  A    between atoms: C_15  and  P_16
    4  A    between atoms: P_16  and  C_29
    5  A    between atoms: N_19  and  C_32
                            x       y       z     vdW  Elec       q    Type
                         _______ _______ _______ _____ _____    ______ ____

>  <TORSDO>
F 5

$$$$
=
 OpenBabel11062418563D

 33 38  0  0  1  0  0  0  0  0999 V2000
  195.9650  173.4150  144.2670 C   0  0  0  0  0  3  0  0  0  0  0  0
  195.0280  171.6830  145.7080 C   0  0  0  0  0  3  0  0  0  0  0  0
  193.6730  173.5580  145.0580 C   0  0  0  0  0  0  0  0  0  0  0  0
  194.7420  174.0820  144.3350 C   0  0  0  0  0  0  0  0  0  0  0  0
  192.1870  174.5550  144.9200 P   0  0  1  0  0  4  0  0  0  0  0  0
  192.6550  176.3700  142.8220 N   0  0  0  0  0  0  0  0  0  0  0  0
  196.1040  172.2070  144.9660 C   0  0  0  0  0  3  0  0  0  0  0  0
  194.3710  175.3290  143.6790 C   0  0  0  0  0  0  0  0  0  0  0  0
  193.7990  172.3580  145.7540 C   0  0  0  0  0  3  0  0  0  0  0  0
  193.0900  175.7000  143.9000 C   0  0  2  0  0  3  0  0  0  0  0  0
  194.7510  175.7840  142.4760 N   0  0  0  0  0  0  0  0  0  0  0  0
  193.7020  176.4510  142.0040 N   0  0  0  0  0  0  0  0  0  0  0  0
  189.3850  173.3360  142.2790 C   0  0  0  0  0  3  0  0  0  0  0  0
  189.0790  172.2600  143.1100 C   0  0  0  0  0  3  0  0  0  0  0  0
  190.3980  174.1740  142.7650 C   0  0  0  0  0  3  0  0  0  0  0  0
  190.0830  172.3630  144.4570 S   0  0  0  0  0  0  0  0  0  0  0  0
  190.8950  173.7470  143.9830 C   0  0  0  0  0  0  0  0  0  0  0  0
  191.7240  175.2860  146.4990 C   0  0  0  0  0  0  0  0  0  0  0  0
  192.3220  174.9020  147.5360 O   0  0  0  0  0  0  0  0  0  0  0  0
  190.6950  176.2760  146.6210 N   0  0  0  0  0  2  0  0  0  0  0  0
  189.9320  176.8250  145.5130 C   0  0  0  0  0  2  0  0  0  0  0  0
  188.5350  176.2300  145.4820 C   0  0  0  0  0  2  0  0  0  0  0  0
  184.5120  179.0450  144.6210 C   0  0  0  0  0  3  0  0  0  0  0  0
  186.1260  179.0340  142.7640 C   0  0  0  0  0  2  0  0  0  0  0  0
  188.2210  177.8190  142.0990 C   0  0  0  0  0  2  0  0  0  0  0  0
  186.7150  177.9510  141.8750 C   0  0  0  0  0  2  0  0  0  0  0  0
  184.0400  178.6710  145.8790 C   0  0  0  0  0  3  0  0  0  0  0  0
  188.6070  177.8360  143.5770 C   0  0  0  0  0  2  0  0  0  0  0  0
  184.7580  177.7570  146.6460 C   0  0  0  0  0  3  0  0  0  0  0  0
  187.7130  176.9030  144.3840 C   0  0  2  0  0  3  0  0  0  0  0  0
  185.9500  177.2240  146.1560 C   0  0  0  0  0  3  0  0  0  0  0  0
  186.4600  177.5990  144.9000 C   0  0  0  0  0  0  0  0  0  0  0  0
  185.7000  178.5120  144.1090 C   0  0  0  0  0  0  0  0  0  0  0  0
  1  4  2  0  0  0  0
  1  7  1  0  0  0  0
  2  9  1  0  0  0  0
  3  9  2  0  0  0  0
  4  3  1  0  0  0  0
  5  3  1  0  0  0  0
  5 18  1  1  0  0  0
  7  2  2  0  0  0  0
  8 10  1  0  0  0  0
  8  4  1  0  0  0  0
 10  6  1  6  0  0  0
 10  5  1  0  0  0  0
 11  8  2  0  0  0  0
 12 11  1  0  0  0  0
 12  6  2  0  0  0  0
 13 15  1  0  0  0  0
 13 14  2  0  0  0  0
 14 16  1  0  0  0  0
 15 17  2  0  0  0  0
 17 16  1  0  0  0  0
 17  5  1  0  0  0  0
 18 20  1  0  0  0  0
 18 19  2  0  0  0  0
 21 20  1  0  0  0  0
 22 21  1  0  0  0  0
 23 27  1  0  0  0  0
 24 33  1  0  0  0  0
 25 28  1  0  0  0  0
 26 25  1  0  0  0  0
 26 24  1  0  0  0  0
 27 29  2  0  0  0  0
 28 30  1  0  0  0  0
 30 32  1  0  0  0  0
 30 22  1  1  0  0  0
 31 29  1  0  0  0  0
 32 31  2  0  0  0  0
 33 23  2  0  0  0  0
 33 32  1  0  0  0  0
M  END
>  <MODEL>
7

>  <REMARK>
 VINA RESULT:      -8.3      2.433      3.535
  Name = 
  5 active torsions:
  status: ('A' for Active; 'I' for Inactive)
    1  A    between atoms: C_8  and  C_21
    2  A    between atoms: C_8  and  C_32
    3  A    between atoms: C_15  and  P_16
    4  A    between atoms: P_16  and  C_29
    5  A    between atoms: N_19  and  C_32
                            x       y       z     vdW  Elec       q    Type
                         _______ _______ _______ _____ _____    ______ ____

>  <TORSDO>
F 5

$$$$
=
 OpenBabel11062418563D

 33 38  0  0  1  0  0  0  0  0999 V2000
  189.4660  173.1380  145.6510 C   0  0  0  0  0  3  0  0  0  0  0  0
  190.2910  172.1370  143.5840 C   0  0  0  0  0  3  0  0  0  0  0  0
  191.3300  174.1250  144.4460 C   0  0  0  0  0  0  0  0  0  0  0  0
  190.4340  174.1310  145.5140 C   0  0  0  0  0  0  0  0  0  0  0  0
  192.5310  175.4560  144.5400 P   0  0  1  0  0  4  0  0  0  0  0  0
  192.3180  176.5200  147.1350 N   0  0  0  0  0  0  0  0  0  0  0  0
  189.3960  172.1360  144.6710 C   0  0  0  0  0  3  0  0  0  0  0  0
  190.6990  175.2470  146.4130 C   0  0  0  0  0  0  0  0  0  0  0  0
  191.2700  173.1350  143.4690 C   0  0  0  0  0  3  0  0  0  0  0  0
  191.7410  176.0180  146.0330 C   0  0  0  0  0  0  0  0  0  0  0  0
  190.6020  175.2810  147.7500 N   0  0  0  0  0  0  0  0  0  0  0  0
  191.5700  176.1000  148.1530 N   0  0  0  0  0  2  0  0  0  0  0  0
  195.8940  173.4630  145.5540 C   0  0  0  0  0  3  0  0  0  0  0  0
  196.6560  174.5630  145.1650 C   0  0  0  0  0  3  0  0  0  0  0  0
  194.5110  173.6310  145.3980 C   0  0  0  0  0  3  0  0  0  0  0  0
  195.5890  175.7480  144.6250 S   0  0  0  0  0  0  0  0  0  0  0  0
  194.1870  174.8700  144.8760 C   0  0  0  0  0  0  0  0  0  0  0  0
  192.3310  176.6320  143.1920 C   0  0  0  0  0  0  0  0  0  0  0  0
  193.1750  176.6250  142.2600 O   0  0  0  0  0  0  0  0  0  0  0  0
  191.2600  177.5820  143.1470 N   0  0  0  0  0  2  0  0  0  0  0  0
  190.2070  177.6970  144.1420 C   0  0  0  0  0  2  0  0  0  0  0  0
  188.9650  176.9460  143.6930 C   0  0  0  0  0  2  0  0  0  0  0  0
  184.2510  178.2820  142.7750 C   0  0  0  0  0  3  0  0  0  0  0  0
  184.7770  178.0950  145.1720 C   0  0  0  0  0  2  0  0  0  0  0  0
  186.7900  177.7650  146.6360 C   0  0  0  0  0  2  0  0  0  0  0  0
  185.7760  178.7720  146.0970 C   0  0  0  0  0  2  0  0  0  0  0  0
  184.5520  178.2320  141.4150 C   0  0  0  0  0  3  0  0  0  0  0  0
  187.3200  176.8180  145.5620 C   0  0  0  0  0  2  0  0  0  0  0  0
  185.8530  177.9560  141.0020 C   0  0  0  0  0  3  0  0  0  0  0  0
  187.7240  177.5880  144.3100 C   0  0  2  0  0  3  0  0  0  0  0  0
  186.8490  177.7260  141.9500 C   0  0  0  0  0  3  0  0  0  0  0  0
  186.5700  177.7490  143.3280 C   0  0  0  0  0  0  0  0  0  0  0  0
  185.2400  178.0640  143.7410 C   0  0  0  0  0  0  0  0  0  0  0  0
  2  7  1  0  0  0  0
  3  5  1  0  0  0  0
  3  4  2  0  0  0  0
  4  1  1  0  0  0  0
  4  8  1  0  0  0  0
  5 18  1  6  0  0  0
  5 17  1  0  0  0  0
  5 10  1  0  0  0  0
  6 12  1  0  0  0  0
  7  1  2  0  0  0  0
  8 11  2  0  0  0  0
  9  2  2  0  0  0  0
  9  3  1  0  0  0  0
 10  8  1  0  0  0  0
 10  6  2  0  0  0  0
 11 12  1  0  0  0  0
 14 13  2  0  0  0  0
 15 13  1  0  0  0  0
 16 17  1  0  0  0  0
 16 14  1  0  0  0  0
 17 15  2  0  0  0  0
 19 18  2  0  0  0  0
 20 18  1  0  0  0  0
 20 21  1  0  0  0  0
 22 21  1  0  0  0  0
 23 33  1  0  0  0  0
 24 26  1  0  0  0  0
 26 25  1  0  0  0  0
 27 23  2  0  0  0  0
 28 25  1  0  0  0  0
 29 27  1  0  0  0  0
 29 31  2  0  0  0  0
 30 22  1  6  0  0  0
 30 28  1  0  0  0  0
 31 32  1  0  0  0  0
 32 33  2  0  0  0  0
 32 30  1  0  0  0  0
 33 24  1  0  0  0  0
M  END
>  <MODEL>
8

>  <REMARK>
 VINA RESULT:      -8.3      2.767      4.228
  Name = 
  5 active torsions:
  status: ('A' for Active; 'I' for Inactive)
    1  A    between atoms: C_8  and  C_21
    2  A    between atoms: C_8  and  C_32
    3  A    between atoms: C_15  and  P_16
    4  A    between atoms: P_16  and  C_29
    5  A    between atoms: N_19  and  C_32
                            x       y       z     vdW  Elec       q    Type
                         _______ _______ _______ _____ _____    ______ ____

>  <TORSDO>
F 5

$$$$
=
 OpenBabel11062418563D

 33 38  0  0  1  0  0  0  0  0999 V2000
  196.8080  172.5390  145.4210 C   0  0  0  0  0  3  0  0  0  0  0  0
  194.9320  171.0170  145.7720 C   0  0  0  0  0  3  0  0  0  0  0  0
  194.5220  173.2720  145.0490 C   0  0  0  0  0  0  0  0  0  0  0  0
  195.8910  173.5290  145.0700 C   0  0  0  0  0  0  0  0  0  0  0  0
  193.5600  174.6770  144.4820 P   0  0  1  0  0  4  0  0  0  0  0  0
  195.4040  176.4900  143.3740 N   0  0  0  0  0  0  0  0  0  0  0  0
  196.3160  171.2740  145.7790 C   0  0  0  0  0  3  0  0  0  0  0  0
  196.1740  174.8950  144.6490 C   0  0  0  0  0  0  0  0  0  0  0  0
  194.0240  172.0200  145.4010 C   0  0  0  0  0  3  0  0  0  0  0  0
  195.0710  175.6050  144.3260 C   0  0  2  0  0  3  0  0  0  0  0  0
  197.2070  175.3460  143.9220 N   0  0  0  0  0  0  0  0  0  0  0  0
  196.7150  176.3450  143.1940 N   0  0  0  0  0  0  0  0  0  0  0  0
  191.1920  173.9410  141.2940 C   0  0  0  0  0  3  0  0  0  0  0  0
  192.2910  174.0950  140.4500 C   0  0  0  0  0  3  0  0  0  0  0  0
  191.4790  174.1080  142.6550 C   0  0  0  0  0  3  0  0  0  0  0  0
  193.6240  174.4390  141.4180 S   0  0  0  0  0  0  0  0  0  0  0  0
  192.8120  174.4020  142.8800 C   0  0  0  0  0  0  0  0  0  0  0  0
  192.5030  175.3320  145.7820 C   0  0  0  0  0  0  0  0  0  0  0  0
  192.5020  174.7580  146.9010 O   0  0  0  0  0  0  0  0  0  0  0  0
  191.6540  176.4700  145.5900 N   0  0  0  0  0  2  0  0  0  0  0  0
  191.5610  177.2410  144.3620 C   0  0  0  0  0  2  0  0  0  0  0  0
  190.3040  178.0940  144.3620 C   0  0  0  0  0  2  0  0  0  0  0  0
  185.6320  176.7700  145.4870 C   0  0  0  0  0  3  0  0  0  0  0  0
  186.2220  176.4030  143.1260 C   0  0  0  0  0  2  0  0  0  0  0  0
  188.2620  176.4780  141.6640 C   0  0  0  0  0  2  0  0  0  0  0  0
  187.2800  175.5780  142.4110 C   0  0  0  0  0  2  0  0  0  0  0  0
  185.8880  177.1620  146.8000 C   0  0  0  0  0  3  0  0  0  0  0  0
  188.7140  177.6820  142.4880 C   0  0  0  0  0  2  0  0  0  0  0  0
  187.1610  177.5970  147.1590 C   0  0  0  0  0  3  0  0  0  0  0  0
  189.1140  177.2580  143.8960 C   0  0  2  0  0  3  0  0  0  0  0  0
  188.1740  177.6450  146.2020 C   0  0  0  0  0  3  0  0  0  0  0  0
  187.9390  177.2770  144.8650 C   0  0  0  0  0  0  0  0  0  0  0  0
  186.6390  176.8020  144.5160 C   0  0  0  0  0  0  0  0  0  0  0  0
  1  7  1  0  0  0  0
  2  7  2  0  0  0  0
  3  4  1  0  0  0  0
  3  9  2  0  0  0  0
  4  1  2  0  0  0  0
  5  3  1  0  0  0  0
  5 18  1  1  0  0  0
  8  4  1  0  0  0  0
  9  2  1  0  0  0  0
 10  6  1  6  0  0  0
 10  5  1  0  0  0  0
 10  8  1  0  0  0  0
 11  8  2  0  0  0  0
 12  6  2  0  0  0  0
 12 11  1  0  0  0  0
 13 15  1  0  0  0  0
 14 13  2  0  0  0  0
 14 16  1  0  0  0  0
 15 17  2  0  0  0  0
 16 17  1  0  0  0  0
 17  5  1  0  0  0  0
 18 19  2  0  0  0  0
 20 18  1  0  0  0  0
 21 20  1  0  0  0  0
 22 21  1  0  0  0  0
 23 27  1  0  0  0  0
 24 33  1  0  0  0  0
 25 26  1  0  0  0  0
 25 28  1  0  0  0  0
 26 24  1  0  0  0  0
 27 29  2  0  0  0  0
 28 30  1  0  0  0  0
 30 22  1  1  0  0  0
 30 32  1  0  0  0  0
 31 29  1  0  0  0  0
 32 31  2  0  0  0  0
 33 32  1  0  0  0  0
 33 23  2  0  0  0  0
M  END
>  <MODEL>
9

>  <REMARK>
 VINA RESULT:      -8.3      2.913      4.124
  Name = 
  5 active torsions:
  status: ('A' for Active; 'I' for Inactive)
    1  A    between atoms: C_8  and  C_21
    2  A    between atoms: C_8  and  C_32
    3  A    between atoms: C_15  and  P_16
    4  A    between atoms: P_16  and  C_29
    5  A    between atoms: N_19  and  C_32
                            x       y       z     vdW  Elec       q    Type
                         _______ _______ _______ _____ _____    ______ ____

>  <TORSDO>
F 5

$$$$
