=
 OpenBabel11062421123D

 33 38  0  0  1  0  0  0  0  0999 V2000
  189.0510  173.3910  142.8000 N   0  0  0  0  0  0  0  0  0  0  0  0
  189.3810  174.6810  143.1960 C   0  0  1  0  0  3  0  0  0  0  0  0
  191.3020  173.8010  144.2510 C   0  0  0  0  0  0  0  0  0  0  0  0
  190.9270  172.5180  143.8490 C   0  0  1  0  0  0  0  0  0  0  0  0
  190.5640  174.9270  143.9510 C   0  0  0  0  0  3  0  0  0  0  0  0
  192.4450  173.1980  144.8780 C   0  0  2  0  0  0  0  0  0  0  0  0
  189.7920  172.2790  143.1120 C   0  0  0  0  0  3  0  0  0  0  0  0
  192.0860  171.8850  144.4760 N   0  0  0  0  0  2  0  0  0  0  0  0
  185.0800  177.9070  144.5790 C   0  0  2  0  0  3  0  0  0  0  0  0
  187.1630  177.6440  143.3940 N   0  0  0  0  0  0  0  0  0  0  0  0
  188.0070  176.4760  145.1610 N   0  0  0  0  0  2  0  0  0  0  0  0
  186.5710  178.2710  144.5680 C   0  0  2  0  0  3  0  0  0  0  0  0
  185.1930  176.9360  146.8420 C   0  0  0  0  0  2  0  0  0  0  0  0
  187.3760  177.6490  145.7320 C   0  0  1  0  0  3  0  0  0  0  0  0
  187.9090  176.6550  143.7550 C   0  0  0  0  0  0  0  0  0  0  0  0
  186.6470  177.3500  147.0470 C   0  0  1  0  0  3  0  0  0  0  0  0
  184.1800  178.9950  143.4990 Cl  0  0  0  0  0  0  0  0  0  0  0  0
  188.5330  175.7740  142.8010 N   0  0  0  0  0  0  0  0  0  0  0  0
  186.7300  178.5530  147.9670 C   0  0  0  0  0  1  0  0  0  0  0  0
  184.4720  177.9480  145.9680 C   0  0  0  0  0  2  0  0  0  0  0  0
  188.2060  175.9240  141.3870 C   0  0  0  0  0  1  0  0  0  0  0  0
  196.0740  173.2470  144.8770 C   0  0  1  0  0  0  0  0  0  0  0  0
  194.2950  174.9020  144.8120 C   0  0  0  0  0  2  0  0  0  0  0  0
  195.5880  174.5370  145.5130 C   0  0  0  0  0  2  0  0  0  0  0  0
  193.7500  173.6250  144.1960 C   0  0  1  0  0  3  0  0  0  0  0  0
  196.7450  172.3880  145.9390 C   0  0  0  0  0  1  0  0  0  0  0  0
  194.8100  172.5540  144.3980 C   0  0  0  0  0  2  0  0  0  0  0  0
  197.0240  173.5350  143.6890 C   0  0  2  0  0  3  0  0  0  0  0  0
  197.9280  172.3490  143.3810 C   0  0  0  0  0  1  0  0  0  0  0  0
  197.8980  174.7690  143.9030 C   0  0  0  0  0  2  0  0  0  0  0  0
  197.9370  175.5420  142.7420 O   0  0  0  0  0  0  0  0  0  0  0  0
  196.0260  176.5700  142.0520 O   0  0  0  0  0  1  0  0  0  0  0  0
  197.0550  176.5910  142.9940 C   0  0  0  0  0  2  0  0  0  0  0  0
  1  7  2  0  0  0  0
  1  2  1  0  0  0  0
  2 18  1  6  0  0  0
  2  5  1  0  0  0  0
  4  7  1  1  0  0  0
  4  3  1  0  0  0  0
  4  8  1  0  0  0  0
  4  6  1  0  0  0  0
  5  3  2  0  0  0  0
  6  3  1  1  0  0  0
  8  6  1  0  0  0  0
  9 17  1  6  0  0  0
  9 20  1  0  0  0  0
 10 15  2  0  0  0  0
 12 10  1  6  0  0  0
 12  9  1  0  0  0  0
 12 14  1  0  0  0  0
 13 16  1  0  0  0  0
 14 11  1  6  0  0  0
 14 16  1  0  0  0  0
 15 11  1  0  0  0  0
 16 19  1  1  0  0  0
 18 15  1  0  0  0  0
 20 13  1  0  0  0  0
 21 18  1  0  0  0  0
 22 24  1  0  0  0  0
 22 26  1  1  0  0  0
 23 24  1  0  0  0  0
 25 27  1  1  0  0  0
 25 23  1  0  0  0  0
 25  6  1  0  0  0  0
 27 22  1  0  0  0  0
 28 29  1  1  0  0  0
 28 30  1  0  0  0  0
 28 22  1  0  0  0  0
 31 33  1  0  0  0  0
 31 30  1  0  0  0  0
 32 33  1  0  0  0  0
M  END
>  <MODEL>
1

>  <REMARK>
 VINA RESULT:      -7.4      0.000      0.000
  Name = 
  6 active torsions:
  status: ('A' for Active; 'I' for Inactive)
    1  A    between atoms: C_1  and  C_4
    2  A    between atoms: C_4  and  C_25
    3  A    between atoms: C_6  and  N_28
    4  A    between atoms: C_7  and  C_27
    5  A    between atoms: C_16  and  O_18
    6  A    between atoms: O_18  and  C_25
                            x       y       z     vdW  Elec       q    Type
                         _______ _______ _______ _____ _____    ______ ____

>  <TORSDO>
F 6

$$$$
=
 OpenBabel11062421123D

 33 38  0  0  1  0  0  0  0  0999 V2000
  193.9790  175.7230  145.9770 N   0  0  0  0  0  0  0  0  0  0  0  0
  193.3330  174.8980  145.0660 C   0  0  1  0  0  3  0  0  0  0  0  0
  191.2720  175.6110  145.9710 C   0  0  0  0  0  0  0  0  0  0  0  0
  191.9580  176.4150  146.8840 C   0  0  1  0  0  0  0  0  0  0  0  0
  191.9100  174.8280  145.0330 C   0  0  0  0  0  3  0  0  0  0  0  0
  190.0560  176.0810  146.5750 C   0  0  2  0  0  0  0  0  0  0  0  0
  193.3300  176.4920  146.9100 C   0  0  0  0  0  3  0  0  0  0  0  0
  190.7330  176.9080  147.5090 N   0  0  0  0  0  2  0  0  0  0  0  0
  196.9130  170.7140  144.3640 C   0  0  2  0  0  3  0  0  0  0  0  0
  195.1370  172.0790  143.4720 N   0  0  0  0  0  0  0  0  0  0  0  0
  194.1010  172.0360  145.5040 N   0  0  0  0  0  2  0  0  0  0  0  0
  195.4210  170.7530  144.0050 C   0  0  2  0  0  3  0  0  0  0  0  0
  196.4740  170.0630  146.7010 C   0  0  0  0  0  2  0  0  0  0  0  0
  194.4800  170.6650  145.2280 C   0  0  1  0  0  3  0  0  0  0  0  0
  194.4470  172.7550  144.3280 C   0  0  0  0  0  0  0  0  0  0  0  0
  194.9720  169.9230  146.4760 C   0  0  1  0  0  3  0  0  0  0  0  0
  197.8790  170.3780  142.9100 Cl  0  0  0  0  0  0  0  0  0  0  0  0
  194.1170  174.1420  144.1250 N   0  0  0  0  0  0  0  0  0  0  0  0
  194.5840  168.4580  146.3910 C   0  0  0  0  0  1  0  0  0  0  0  0
  197.2350  169.6940  145.4390 C   0  0  0  0  0  2  0  0  0  0  0  0
  194.6900  174.8420  142.9800 C   0  0  0  0  0  1  0  0  0  0  0  0
  186.8110  177.2290  145.4220 C   0  0  1  0  0  0  0  0  0  0  0  0
  188.7270  176.1020  144.4380 C   0  0  0  0  0  2  0  0  0  0  0  0
  187.2190  176.0410  144.5690 C   0  0  0  0  0  2  0  0  0  0  0  0
  189.2380  176.9370  145.6010 C   0  0  1  0  0  3  0  0  0  0  0  0
  185.6260  176.8360  146.2920 C   0  0  0  0  0  1  0  0  0  0  0  0
  188.0150  177.4970  146.3090 C   0  0  0  0  0  2  0  0  0  0  0  0
  186.4930  178.4630  144.5440 C   0  0  2  0  0  3  0  0  0  0  0  0
  185.5540  179.4350  145.2450 C   0  0  0  0  0  1  0  0  0  0  0  0
  185.8920  178.0980  143.1890 C   0  0  0  0  0  2  0  0  0  0  0  0
  186.4750  178.8620  142.1780 O   0  0  0  0  0  0  0  0  0  0  0  0
  188.6090  178.2740  141.6420 O   0  0  0  0  0  1  0  0  0  0  0  0
  187.2620  177.9550  141.4690 C   0  0  0  0  0  2  0  0  0  0  0  0
  1  7  2  0  0  0  0
  2 18  1  6  0  0  0
  2  1  1  0  0  0  0
  3  4  1  0  0  0  0
  4  7  1  1  0  0  0
  4  8  1  0  0  0  0
  5  2  1  0  0  0  0
  5  3  2  0  0  0  0
  6  3  1  1  0  0  0
  6  4  1  0  0  0  0
  6  8  1  0  0  0  0
  9 17  1  6  0  0  0
  9 20  1  0  0  0  0
 10 15  2  0  0  0  0
 12 10  1  1  0  0  0
 12  9  1  0  0  0  0
 12 14  1  0  0  0  0
 14 11  1  1  0  0  0
 14 16  1  0  0  0  0
 15 11  1  0  0  0  0
 16 19  1  6  0  0  0
 16 13  1  0  0  0  0
 18 15  1  0  0  0  0
 20 13  1  0  0  0  0
 21 18  1  0  0  0  0
 22 26  1  1  0  0  0
 22 27  1  0  0  0  0
 23 24  1  0  0  0  0
 24 22  1  0  0  0  0
 25 23  1  6  0  0  0
 25 27  1  0  0  0  0
 25  6  1  0  0  0  0
 28 29  1  1  0  0  0
 28 22  1  0  0  0  0
 30 28  1  0  0  0  0
 31 30  1  0  0  0  0
 33 32  1  0  0  0  0
 33 31  1  0  0  0  0
M  END
>  <MODEL>
2

>  <REMARK>
 VINA RESULT:      -7.4      4.347      9.733
  Name = 
  6 active torsions:
  status: ('A' for Active; 'I' for Inactive)
    1  A    between atoms: C_1  and  C_4
    2  A    between atoms: C_4  and  C_25
    3  A    between atoms: C_6  and  N_28
    4  A    between atoms: C_7  and  C_27
    5  A    between atoms: C_16  and  O_18
    6  A    between atoms: O_18  and  C_25
                            x       y       z     vdW  Elec       q    Type
                         _______ _______ _______ _____ _____    ______ ____

>  <TORSDO>
F 6

$$$$
=
 OpenBabel11062421123D

 33 38  0  0  1  0  0  0  0  0999 V2000
  190.7820  177.1280  144.8680 N   0  0  0  0  0  0  0  0  0  0  0  0
  190.1270  175.9380  145.1610 C   0  0  1  0  0  3  0  0  0  0  0  0
  191.9410  174.7720  144.1990 C   0  0  0  0  0  0  0  0  0  0  0  0
  192.5600  175.9890  143.9050 C   0  0  1  0  0  0  0  0  0  0  0  0
  190.7190  174.6850  144.8310 C   0  0  0  0  0  3  0  0  0  0  0  0
  193.0720  174.1270  143.5910 C   0  0  2  0  0  0  0  0  0  0  0  0
  191.9960  177.1990  144.2330 C   0  0  0  0  0  3  0  0  0  0  0  0
  193.7210  175.3530  143.2870 N   0  0  0  0  0  2  0  0  0  0  0  0
  185.2120  178.4850  145.5730 C   0  0  2  0  0  3  0  0  0  0  0  0
  186.5170  176.4720  145.8130 N   0  0  0  0  0  0  0  0  0  0  0  0
  187.6250  176.9760  143.8840 N   0  0  0  0  0  2  0  0  0  0  0  0
  185.5160  177.1080  144.9670 C   0  0  2  0  0  3  0  0  0  0  0  0
  185.7540  179.6780  143.4860 C   0  0  0  0  0  2  0  0  0  0  0  0
  186.2190  177.1720  143.5910 C   0  0  1  0  0  3  0  0  0  0  0  0
  187.6550  176.4490  145.2030 C   0  0  0  0  0  0  0  0  0  0  0  0
  185.9630  178.3900  142.6960 C   0  0  1  0  0  3  0  0  0  0  0  0
  184.0400  178.3190  146.9000 Cl  0  0  0  0  0  0  0  0  0  0  0  0
  188.8600  175.9840  145.8400 N   0  0  0  0  0  0  0  0  0  0  0  0
  184.7730  178.1240  141.7920 C   0  0  0  0  0  1  0  0  0  0  0  0
  184.6920  179.4790  144.5530 C   0  0  0  0  0  2  0  0  0  0  0  0
  188.8210  175.6530  147.2610 C   0  0  0  0  0  1  0  0  0  0  0  0
  195.6250  171.6410  144.2790 C   0  0  1  0  0  0  0  0  0  0  0  0
  193.2850  171.9600  144.8510 C   0  0  0  0  0  2  0  0  0  0  0  0
  194.2750  170.9480  144.3110 C   0  0  0  0  0  2  0  0  0  0  0  0
  193.8870  173.3360  144.6200 C   0  0  1  0  0  3  0  0  0  0  0  0
  196.4100  171.1500  143.0700 C   0  0  0  0  0  1  0  0  0  0  0  0
  195.2980  173.1130  144.0980 C   0  0  0  0  0  2  0  0  0  0  0  0
  196.4020  171.4100  145.5980 C   0  0  2  0  0  3  0  0  0  0  0  0
  197.0430  172.6920  146.1130 C   0  0  0  0  0  1  0  0  0  0  0  0
  197.4830  170.3390  145.4790 C   0  0  0  0  0  2  0  0  0  0  0  0
  196.9750  169.0940  145.8530 O   0  0  0  0  0  0  0  0  0  0  0  0
  197.3300  168.4560  148.0100 O   0  0  0  0  0  1  0  0  0  0  0  0
  196.5650  169.2700  147.1740 C   0  0  0  0  0  2  0  0  0  0  0  0
  1  2  1  0  0  0  0
  2 18  1  1  0  0  0
  3  5  2  0  0  0  0
  4  3  1  0  0  0  0
  4  7  1  6  0  0  0
  5  2  1  0  0  0  0
  6  8  1  6  0  0  0
  6  4  1  0  0  0  0
  6  3  1  0  0  0  0
  6 25  1  0  0  0  0
  7  1  2  0  0  0  0
  8  4  1  0  0  0  0
  9 17  1  1  0  0  0
 11 15  1  0  0  0  0
 12  9  1  0  0  0  0
 12 10  1  1  0  0  0
 13 20  1  0  0  0  0
 14 11  1  1  0  0  0
 14 12  1  0  0  0  0
 15 10  2  0  0  0  0
 15 18  1  0  0  0  0
 16 19  1  1  0  0  0
 16 13  1  0  0  0  0
 16 14  1  0  0  0  0
 18 21  1  0  0  0  0
 20  9  1  0  0  0  0
 22 26  1  6  0  0  0
 22 24  1  0  0  0  0
 22 28  1  0  0  0  0
 24 23  1  0  0  0  0
 25 27  1  6  0  0  0
 25 23  1  0  0  0  0
 27 22  1  0  0  0  0
 28 29  1  6  0  0  0
 30 28  1  0  0  0  0
 30 31  1  0  0  0  0
 31 33  1  0  0  0  0
 33 32  1  0  0  0  0
M  END
>  <MODEL>
3

>  <REMARK>
 VINA RESULT:      -7.3      2.888      4.132
  Name = 
  6 active torsions:
  status: ('A' for Active; 'I' for Inactive)
    1  A    between atoms: C_1  and  C_4
    2  A    between atoms: C_4  and  C_25
    3  A    between atoms: C_6  and  N_28
    4  A    between atoms: C_7  and  C_27
    5  A    between atoms: C_16  and  O_18
    6  A    between atoms: O_18  and  C_25
                            x       y       z     vdW  Elec       q    Type
                         _______ _______ _______ _____ _____    ______ ____

>  <TORSDO>
F 6

$$$$
=
 OpenBabel11062421123D

 33 38  0  0  1  0  0  0  0  0999 V2000
  192.6260  174.9930  146.4310 N   0  0  0  0  0  0  0  0  0  0  0  0
  192.0830  174.2470  145.3940 C   0  0  1  0  0  3  0  0  0  0  0  0
  189.9810  175.2070  145.8820 C   0  0  0  0  0  0  0  0  0  0  0  0
  190.5600  175.9270  146.9280 C   0  0  1  0  0  0  0  0  0  0  0  0
  190.6970  174.3480  145.0760 C   0  0  0  0  0  3  0  0  0  0  0  0
  188.7330  175.8220  146.2390 C   0  0  2  0  0  0  0  0  0  0  0  0
  191.8990  175.8400  147.2300 C   0  0  0  0  0  3  0  0  0  0  0  0
  189.3020  176.5670  147.3040 N   0  0  0  0  0  2  0  0  0  0  0  0
  195.8270  173.9930  141.3030 C   0  0  2  0  0  3  0  0  0  0  0  0
  194.9610  173.0900  143.3640 N   0  0  0  0  0  0  0  0  0  0  0  0
  194.6250  175.2090  144.1360 N   0  0  0  0  0  2  0  0  0  0  0  0
  196.0660  173.8640  142.8140 C   0  0  2  0  0  3  0  0  0  0  0  0
  195.9240  176.4550  141.3580 C   0  0  0  0  0  2  0  0  0  0  0  0
  195.9630  175.2030  143.5800 C   0  0  1  0  0  3  0  0  0  0  0  0
  194.1850  173.8610  144.0480 C   0  0  0  0  0  0  0  0  0  0  0  0
  196.3020  176.4990  142.8350 C   0  0  1  0  0  3  0  0  0  0  0  0
  196.3910  172.5260  140.4720 Cl  0  0  0  0  0  0  0  0  0  0  0  0
  192.9440  173.3970  144.6150 N   0  0  0  0  0  0  0  0  0  0  0  0
  197.7790  176.8120  142.9940 C   0  0  0  0  0  1  0  0  0  0  0  0
  196.4980  175.2120  140.7010 C   0  0  0  0  0  2  0  0  0  0  0  0
  192.4870  172.0490  144.2970 C   0  0  0  0  0  1  0  0  0  0  0  0
  186.0200  177.7570  144.8010 C   0  0  1  0  0  0  0  0  0  0  0  0
  187.5120  175.9940  144.0450 C   0  0  0  0  0  2  0  0  0  0  0  0
  186.0560  176.4090  144.1030 C   0  0  0  0  0  2  0  0  0  0  0  0
  188.2360  176.7650  145.1370 C   0  0  1  0  0  3  0  0  0  0  0  0
  184.7570  177.8480  145.6440 C   0  0  0  0  0  1  0  0  0  0  0  0
  187.2320  177.7490  145.7150 C   0  0  0  0  0  2  0  0  0  0  0  0
  186.1120  178.9170  143.7800 C   0  0  2  0  0  3  0  0  0  0  0  0
  185.2750  180.1170  144.2030 C   0  0  0  0  0  1  0  0  0  0  0  0
  185.6970  178.5090  142.3680 C   0  0  0  0  0  2  0  0  0  0  0  0
  186.7850  178.6020  141.4980 O   0  0  0  0  0  0  0  0  0  0  0  0
  187.1670  176.5360  140.6210 O   0  0  0  0  0  1  0  0  0  0  0  0
  186.4690  177.7330  140.4550 C   0  0  0  0  0  2  0  0  0  0  0  0
  1  7  2  0  0  0  0
  2 18  1  6  0  0  0
  2  1  1  0  0  0  0
  3  4  1  0  0  0  0
  4  7  1  1  0  0  0
  4  8  1  0  0  0  0
  5  2  1  0  0  0  0
  5  3  2  0  0  0  0
  6  3  1  1  0  0  0
  6  4  1  0  0  0  0
  6  8  1  0  0  0  0
  9 17  1  6  0  0  0
  9 12  1  0  0  0  0
 10 15  2  0  0  0  0
 12 10  1  1  0  0  0
 12 14  1  0  0  0  0
 13 16  1  0  0  0  0
 14 11  1  6  0  0  0
 15 11  1  0  0  0  0
 15 18  1  0  0  0  0
 16 19  1  6  0  0  0
 16 14  1  0  0  0  0
 20  9  1  0  0  0  0
 20 13  1  0  0  0  0
 21 18  1  0  0  0  0
 22 26  1  1  0  0  0
 22 27  1  0  0  0  0
 23 24  1  0  0  0  0
 24 22  1  0  0  0  0
 25 23  1  6  0  0  0
 25 27  1  0  0  0  0
 25  6  1  0  0  0  0
 28 29  1  1  0  0  0
 28 22  1  0  0  0  0
 30 28  1  0  0  0  0
 31 30  1  0  0  0  0
 33 32  1  0  0  0  0
 33 31  1  0  0  0  0
M  END
>  <MODEL>
4

>  <REMARK>
 VINA RESULT:      -7.1      4.090      9.490
  Name = 
  6 active torsions:
  status: ('A' for Active; 'I' for Inactive)
    1  A    between atoms: C_1  and  C_4
    2  A    between atoms: C_4  and  C_25
    3  A    between atoms: C_6  and  N_28
    4  A    between atoms: C_7  and  C_27
    5  A    between atoms: C_16  and  O_18
    6  A    between atoms: O_18  and  C_25
                            x       y       z     vdW  Elec       q    Type
                         _______ _______ _______ _____ _____    ______ ____

>  <TORSDO>
F 6

$$$$
=
 OpenBabel11062421123D

 33 38  0  0  1  0  0  0  0  0999 V2000
  193.2040  175.1600  145.6120 N   0  0  0  0  0  0  0  0  0  0  0  0
  192.2640  174.4420  144.8840 C   0  0  1  0  0  3  0  0  0  0  0  0
  190.5660  175.5560  146.0890 C   0  0  0  0  0  0  0  0  0  0  0  0
  191.5410  176.2450  146.8130 C   0  0  1  0  0  0  0  0  0  0  0  0
  190.8710  174.6380  145.1060 C   0  0  0  0  0  3  0  0  0  0  0  0
  189.5860  176.2630  146.8660 C   0  0  2  0  0  0  0  0  0  0  0  0
  192.8870  176.0660  146.5930 C   0  0  0  0  0  3  0  0  0  0  0  0
  190.5600  176.9780  147.6100 N   0  0  0  0  0  2  0  0  0  0  0  0
  196.2610  170.9320  143.2940 C   0  0  2  0  0  3  0  0  0  0  0  0
  193.9330  171.5590  143.2580 N   0  0  0  0  0  0  0  0  0  0  0  0
  194.0620  172.1180  145.4650 N   0  0  0  0  0  2  0  0  0  0  0  0
  194.8630  170.5940  143.8300 C   0  0  2  0  0  3  0  0  0  0  0  0
  197.2250  171.1470  145.5520 C   0  0  0  0  0  2  0  0  0  0  0  0
  194.7030  170.8240  145.3510 C   0  0  1  0  0  3  0  0  0  0  0  0
  193.5460  172.3870  144.1680 C   0  0  0  0  0  0  0  0  0  0  0  0
  195.9430  170.6950  146.2430 C   0  0  1  0  0  3  0  0  0  0  0  0
  196.4760  170.2340  141.6730 Cl  0  0  0  0  0  0  0  0  0  0  0  0
  192.7140  173.5240  143.8710 N   0  0  0  0  0  0  0  0  0  0  0  0
  196.0810  169.2630  146.7300 C   0  0  0  0  0  1  0  0  0  0  0  0
  197.3750  170.4570  144.2080 C   0  0  0  0  0  2  0  0  0  0  0  0
  192.4050  173.8240  142.4770 C   0  0  0  0  0  1  0  0  0  0  0  0
  186.3410  177.4130  145.7180 C   0  0  1  0  0  0  0  0  0  0  0  0
  188.3730  176.5720  144.6830 C   0  0  0  0  0  2  0  0  0  0  0  0
  186.8670  176.4090  144.7070 C   0  0  0  0  0  2  0  0  0  0  0  0
  188.7690  177.2260  145.9970 C   0  0  1  0  0  3  0  0  0  0  0  0
  185.1390  176.8170  146.4350 C   0  0  0  0  0  1  0  0  0  0  0  0
  187.4770  177.5920  146.7090 C   0  0  0  0  0  2  0  0  0  0  0  0
  185.9920  178.7590  145.0370 C   0  0  2  0  0  3  0  0  0  0  0  0
  184.5950  179.2410  145.4070 C   0  0  0  0  0  1  0  0  0  0  0  0
  186.1010  178.7090  143.5150 C   0  0  0  0  0  2  0  0  0  0  0  0
  184.8470  178.8980  142.9330 O   0  0  0  0  0  0  0  0  0  0  0  0
  186.0460  177.7090  141.4040 O   0  0  0  0  0  1  0  0  0  0  0  0
  184.7750  177.9210  141.9400 C   0  0  0  0  0  2  0  0  0  0  0  0
  1  7  2  0  0  0  0
  2 18  1  6  0  0  0
  2  5  1  0  0  0  0
  2  1  1  0  0  0  0
  3  4  1  0  0  0  0
  4  7  1  1  0  0  0
  4  6  1  0  0  0  0
  4  8  1  0  0  0  0
  5  3  2  0  0  0  0
  6  3  1  1  0  0  0
  6  8  1  0  0  0  0
  9 17  1  6  0  0  0
  9 12  1  0  0  0  0
  9 20  1  0  0  0  0
 10 15  2  0  0  0  0
 12 10  1  6  0  0  0
 12 14  1  0  0  0  0
 13 16  1  0  0  0  0
 14 11  1  6  0  0  0
 14 16  1  0  0  0  0
 15 11  1  0  0  0  0
 16 19  1  6  0  0  0
 18 15  1  0  0  0  0
 20 13  1  0  0  0  0
 21 18  1  0  0  0  0
 22 26  1  1  0  0  0
 22 27  1  0  0  0  0
 23 24  1  0  0  0  0
 24 22  1  0  0  0  0
 25 23  1  6  0  0  0
 25 27  1  0  0  0  0
 25  6  1  0  0  0  0
 28 29  1  6  0  0  0
 28 22  1  0  0  0  0
 30 28  1  0  0  0  0
 31 30  1  0  0  0  0
 32 33  1  0  0  0  0
 33 31  1  0  0  0  0
M  END
>  <MODEL>
5

>  <REMARK>
 VINA RESULT:      -7.0      4.595      9.899
  Name = 
  6 active torsions:
  status: ('A' for Active; 'I' for Inactive)
    1  A    between atoms: C_1  and  C_4
    2  A    between atoms: C_4  and  C_25
    3  A    between atoms: C_6  and  N_28
    4  A    between atoms: C_7  and  C_27
    5  A    between atoms: C_16  and  O_18
    6  A    between atoms: O_18  and  C_25
                            x       y       z     vdW  Elec       q    Type
                         _______ _______ _______ _____ _____    ______ ____

>  <TORSDO>
F 6

$$$$
=
 OpenBabel11062421123D

 33 38  0  0  1  0  0  0  0  0999 V2000
  189.9510  172.6930  141.1570 N   0  0  0  0  0  0  0  0  0  0  0  0
  190.4350  173.2640  142.3270 C   0  0  1  0  0  3  0  0  0  0  0  0
  189.0160  175.1110  141.9420 C   0  0  0  0  0  0  0  0  0  0  0  0
  188.5670  174.5130  140.7630 C   0  0  1  0  0  0  0  0  0  0  0  0
  189.9530  174.5290  142.7690 C   0  0  0  0  0  3  0  0  0  0  0  0
  188.1350  176.2060  141.6420 C   0  0  2  0  0  0  0  0  0  0  0  0
  189.0230  173.2870  140.3390 C   0  0  0  0  0  3  0  0  0  0  0  0
  187.6620  175.6140  140.4420 N   0  0  0  0  0  2  0  0  0  0  0  0
  195.3480  173.4660  144.9040 C   0  0  2  0  0  3  0  0  0  0  0  0
  193.1270  172.5370  144.7700 N   0  0  0  0  0  0  0  0  0  0  0  0
  192.3100  174.6000  144.2420 N   0  0  0  0  0  2  0  0  0  0  0  0
  193.9480  173.4670  145.5340 C   0  0  2  0  0  3  0  0  0  0  0  0
  195.3370  175.9040  144.5420 C   0  0  0  0  0  2  0  0  0  0  0  0
  193.1910  174.8060  145.3740 C   0  0  1  0  0  3  0  0  0  0  0  0
  192.2720  173.1920  144.0580 C   0  0  0  0  0  0  0  0  0  0  0  0
  194.0080  176.0980  145.2640 C   0  0  1  0  0  3  0  0  0  0  0  0
  196.2850  172.0820  145.5090 Cl  0  0  0  0  0  0  0  0  0  0  0  0
  191.4030  172.5430  143.1100 N   0  0  0  0  0  0  0  0  0  0  0  0
  194.2350  176.6830  146.6460 C   0  0  0  0  0  1  0  0  0  0  0  0
  196.1110  174.7520  145.1580 C   0  0  0  0  0  2  0  0  0  0  0  0
  191.5830  171.1180  142.8520 C   0  0  0  0  0  1  0  0  0  0  0  0
  186.0380  178.2910  143.7470 C   0  0  1  0  0  0  0  0  0  0  0  0
  187.5490  176.4160  144.0800 C   0  0  0  0  0  2  0  0  0  0  0  0
  187.2060  177.8030  144.5850 C   0  0  0  0  0  2  0  0  0  0  0  0
  187.0000  176.3120  142.6660 C   0  0  1  0  0  3  0  0  0  0  0  0
  186.1710  179.7910  143.5300 C   0  0  0  0  0  1  0  0  0  0  0  0
  186.1950  177.5770  142.4150 C   0  0  0  0  0  2  0  0  0  0  0  0
  184.6870  177.9250  144.4080 C   0  0  2  0  0  3  0  0  0  0  0  0
  183.6600  179.0400  144.2620 C   0  0  0  0  0  1  0  0  0  0  0  0
  184.8170  177.5740  145.8880 C   0  0  0  0  0  2  0  0  0  0  0  0
  184.4380  178.6600  146.6780 O   0  0  0  0  0  0  0  0  0  0  0  0
  185.9410  177.4970  147.9330 O   0  0  0  0  0  1  0  0  0  0  0  0
  185.4530  178.7680  147.6270 C   0  0  0  0  0  2  0  0  0  0  0  0
  1  2  1  0  0  0  0
  2  5  1  0  0  0  0
  2 18  1  1  0  0  0
  3  5  2  0  0  0  0
  4  7  1  6  0  0  0
  4  6  1  0  0  0  0
  4  3  1  0  0  0  0
  6  8  1  6  0  0  0
  6  3  1  0  0  0  0
  6 25  1  0  0  0  0
  7  1  2  0  0  0  0
  8  4  1  0  0  0  0
  9 20  1  0  0  0  0
  9 17  1  1  0  0  0
  9 12  1  0  0  0  0
 12 10  1  6  0  0  0
 13 20  1  0  0  0  0
 13 16  1  0  0  0  0
 14 11  1  6  0  0  0
 14 12  1  0  0  0  0
 15 11  1  0  0  0  0
 15 10  2  0  0  0  0
 16 14  1  0  0  0  0
 16 19  1  1  0  0  0
 18 15  1  0  0  0  0
 21 18  1  0  0  0  0
 22 26  1  6  0  0  0
 22 28  1  0  0  0  0
 22 24  1  0  0  0  0
 23 24  1  0  0  0  0
 25 27  1  6  0  0  0
 25 23  1  0  0  0  0
 27 22  1  0  0  0  0
 28 29  1  1  0  0  0
 28 30  1  0  0  0  0
 30 31  1  0  0  0  0
 31 33  1  0  0  0  0
 33 32  1  0  0  0  0
M  END
>  <MODEL>
6

>  <REMARK>
 VINA RESULT:      -7.0      4.306      9.259
  Name = 
  6 active torsions:
  status: ('A' for Active; 'I' for Inactive)
    1  A    between atoms: C_1  and  C_4
    2  A    between atoms: C_4  and  C_25
    3  A    between atoms: C_6  and  N_28
    4  A    between atoms: C_7  and  C_27
    5  A    between atoms: C_16  and  O_18
    6  A    between atoms: O_18  and  C_25
                            x       y       z     vdW  Elec       q    Type
                         _______ _______ _______ _____ _____    ______ ____

>  <TORSDO>
F 6

$$$$
=
 OpenBabel11062421123D

 33 38  0  0  1  0  0  0  0  0999 V2000
  192.3580  174.3440  143.1080 N   0  0  0  0  0  0  0  0  0  0  0  0
  191.2110  173.5820  142.9320 C   0  0  1  0  0  3  0  0  0  0  0  0
  190.0130  175.2100  144.1530 C   0  0  0  0  0  0  0  0  0  0  0  0
  191.1910  175.9390  144.3230 C   0  0  1  0  0  0  0  0  0  0  0  0
  189.9620  174.0180  143.4610 C   0  0  0  0  0  3  0  0  0  0  0  0
  189.3490  176.2340  144.9100 C   0  0  2  0  0  0  0  0  0  0  0  0
  192.3950  175.5260  143.8050 C   0  0  0  0  0  3  0  0  0  0  0  0
  190.5330  176.9930  145.0930 N   0  0  0  0  0  2  0  0  0  0  0  0
  189.8770  171.0090  138.1970 C   0  0  2  0  0  3  0  0  0  0  0  0
  191.3910  171.2480  140.0570 N   0  0  0  0  0  0  0  0  0  0  0  0
  191.1610  173.5130  139.9380 N   0  0  0  0  0  2  0  0  0  0  0  0
  191.2520  171.5310  138.6350 C   0  0  2  0  0  3  0  0  0  0  0  0
  189.1760  173.1990  137.3080 C   0  0  0  0  0  2  0  0  0  0  0  0
  191.3850  173.0700  138.5770 C   0  0  1  0  0  3  0  0  0  0  0  0
  191.3050  172.3440  140.7320 C   0  0  0  0  0  0  0  0  0  0  0  0
  190.5390  173.8380  137.5550 C   0  0  1  0  0  3  0  0  0  0  0  0
  189.9630  169.2620  137.8790 Cl  0  0  0  0  0  0  0  0  0  0  0  0
  191.2890  172.3620  142.1730 N   0  0  0  0  0  0  0  0  0  0  0  0
  191.3040  173.9750  136.2520 C   0  0  0  0  0  1  0  0  0  0  0  0
  189.3350  171.7250  136.9750 C   0  0  0  0  0  2  0  0  0  0  0  0
  191.2390  171.0930  142.8910 C   0  0  0  0  0  1  0  0  0  0  0  0
  186.0480  177.6990  144.5480 C   0  0  1  0  0  0  0  0  0  0  0  0
  187.3860  176.0660  143.3450 C   0  0  0  0  0  2  0  0  0  0  0  0
  186.0140  176.3090  143.9380 C   0  0  0  0  0  2  0  0  0  0  0  0
  188.3460  177.0100  144.0490 C   0  0  1  0  0  3  0  0  0  0  0  0
  185.1920  177.7130  145.8060 C   0  0  0  0  0  1  0  0  0  0  0  0
  187.5020  177.9150  144.9300 C   0  0  0  0  0  2  0  0  0  0  0  0
  185.5850  178.7670  143.5280 C   0  0  2  0  0  3  0  0  0  0  0  0
  185.1880  180.0710  144.2080 C   0  0  0  0  0  1  0  0  0  0  0  0
  184.4220  178.3010  142.6550 C   0  0  0  0  0  2  0  0  0  0  0  0
  184.8800  177.9550  141.3830 O   0  0  0  0  0  0  0  0  0  0  0  0
  182.8870  177.9170  140.2830 O   0  0  0  0  0  1  0  0  0  0  0  0
  184.0480  178.6560  140.5130 C   0  0  0  0  0  2  0  0  0  0  0  0
  1  7  2  0  0  0  0
  2 18  1  6  0  0  0
  2  1  1  0  0  0  0
  2  5  1  0  0  0  0
  3  4  1  0  0  0  0
  4  7  1  1  0  0  0
  4  6  1  0  0  0  0
  4  8  1  0  0  0  0
  5  3  2  0  0  0  0
  6  3  1  1  0  0  0
  6  8  1  0  0  0  0
  9 17  1  6  0  0  0
  9 12  1  0  0  0  0
 10 15  2  0  0  0  0
 11 15  1  0  0  0  0
 12 10  1  1  0  0  0
 13 16  1  0  0  0  0
 14 12  1  0  0  0  0
 14 11  1  1  0  0  0
 15 18  1  0  0  0  0
 16 19  1  6  0  0  0
 16 14  1  0  0  0  0
 18 21  1  0  0  0  0
 20 13  1  0  0  0  0
 20  9  1  0  0  0  0
 22 27  1  0  0  0  0
 22 26  1  1  0  0  0
 23 24  1  0  0  0  0
 24 22  1  0  0  0  0
 25 23  1  1  0  0  0
 25  6  1  0  0  0  0
 25 27  1  0  0  0  0
 28 29  1  1  0  0  0
 28 22  1  0  0  0  0
 30 28  1  0  0  0  0
 31 30  1  0  0  0  0
 32 33  1  0  0  0  0
 33 31  1  0  0  0  0
M  END
>  <MODEL>
7

>  <REMARK>
 VINA RESULT:      -6.8      4.842      9.530
  Name = 
  6 active torsions:
  status: ('A' for Active; 'I' for Inactive)
    1  A    between atoms: C_1  and  C_4
    2  A    between atoms: C_4  and  C_25
    3  A    between atoms: C_6  and  N_28
    4  A    between atoms: C_7  and  C_27
    5  A    between atoms: C_16  and  O_18
    6  A    between atoms: O_18  and  C_25
                            x       y       z     vdW  Elec       q    Type
                         _______ _______ _______ _____ _____    ______ ____

>  <TORSDO>
F 6

$$$$
=
 OpenBabel11062421123D

 33 38  0  0  1  0  0  0  0  0999 V2000
  193.0800  175.0940  145.6610 N   0  0  0  0  0  0  0  0  0  0  0  0
  192.2380  174.2080  145.0030 C   0  0  1  0  0  3  0  0  0  0  0  0
  190.4010  175.4870  145.7560 C   0  0  0  0  0  0  0  0  0  0  0  0
  191.2800  176.3460  146.4200 C   0  0  1  0  0  0  0  0  0  0  0  0
  190.8260  174.3970  145.0260 C   0  0  0  0  0  3  0  0  0  0  0  0
  189.3310  176.3050  146.2550 C   0  0  2  0  0  0  0  0  0  0  0  0
  192.6430  176.1720  146.3890 C   0  0  0  0  0  3  0  0  0  0  0  0
  190.2060  177.1930  146.9340 N   0  0  0  0  0  2  0  0  0  0  0  0
  191.6120  170.7070  140.7400 C   0  0  2  0  0  3  0  0  0  0  0  0
  193.0860  171.9440  142.1930 N   0  0  0  0  0  0  0  0  0  0  0  0
  191.6610  173.7220  142.1040 N   0  0  0  0  0  2  0  0  0  0  0  0
  192.5490  171.9190  140.8390 C   0  0  2  0  0  3  0  0  0  0  0  0
  189.6940  172.0740  140.0140 C   0  0  0  0  0  2  0  0  0  0  0  0
  191.8230  173.2800  140.7330 C   0  0  1  0  0  3  0  0  0  0  0  0
  192.5570  172.9150  142.8570 C   0  0  0  0  0  0  0  0  0  0  0  0
  190.5200  173.3530  139.9290 C   0  0  1  0  0  3  0  0  0  0  0  0
  192.5580  169.2330  140.4310 Cl  0  0  0  0  0  0  0  0  0  0  0  0
  192.8100  173.1160  144.2600 N   0  0  0  0  0  0  0  0  0  0  0  0
  190.8270  173.6900  138.4810 C   0  0  0  0  0  1  0  0  0  0  0  0
  190.5500  170.8670  139.6700 C   0  0  0  0  0  2  0  0  0  0  0  0
  193.5850  172.1150  144.9850 C   0  0  0  0  0  1  0  0  0  0  0  0
  186.2410  177.6400  144.8980 C   0  0  1  0  0  0  0  0  0  0  0  0
  187.9350  176.0530  144.1780 C   0  0  0  0  0  2  0  0  0  0  0  0
  186.4400  176.2460  144.3300 C   0  0  0  0  0  2  0  0  0  0  0  0
  188.6070  177.0370  145.1200 C   0  0  1  0  0  3  0  0  0  0  0  0
  185.0480  177.6290  145.8420 C   0  0  0  0  0  1  0  0  0  0  0  0
  187.5060  177.9150  145.6930 C   0  0  0  0  0  2  0  0  0  0  0  0
  186.0680  178.6840  143.7680 C   0  0  2  0  0  3  0  0  0  0  0  0
  185.4390  179.9750  144.2750 C   0  0  0  0  0  1  0  0  0  0  0  0
  185.2380  178.1670  142.5950 C   0  0  0  0  0  2  0  0  0  0  0  0
  185.7890  178.5970  141.3860 O   0  0  0  0  0  0  0  0  0  0  0  0
  186.6610  177.5430  139.5660 O   0  0  0  0  0  1  0  0  0  0  0  0
  186.5640  177.5200  140.9580 C   0  0  0  0  0  2  0  0  0  0  0  0
  1  7  2  0  0  0  0
  2 18  1  6  0  0  0
  2  5  1  0  0  0  0
  2  1  1  0  0  0  0
  3  4  1  0  0  0  0
  4  7  1  1  0  0  0
  4  8  1  0  0  0  0
  5  3  2  0  0  0  0
  6  3  1  1  0  0  0
  6  4  1  0  0  0  0
  6  8  1  0  0  0  0
  9 17  1  6  0  0  0
  9 12  1  0  0  0  0
 10 15  2  0  0  0  0
 11 15  1  0  0  0  0
 12 10  1  1  0  0  0
 14 12  1  0  0  0  0
 14 11  1  1  0  0  0
 15 18  1  0  0  0  0
 16 19  1  6  0  0  0
 16 13  1  0  0  0  0
 16 14  1  0  0  0  0
 18 21  1  0  0  0  0
 20 13  1  0  0  0  0
 20  9  1  0  0  0  0
 22 27  1  0  0  0  0
 22 26  1  1  0  0  0
 23 24  1  0  0  0  0
 24 22  1  0  0  0  0
 25 23  1  6  0  0  0
 25 27  1  0  0  0  0
 25  6  1  0  0  0  0
 28 29  1  1  0  0  0
 28 22  1  0  0  0  0
 30 28  1  0  0  0  0
 31 30  1  0  0  0  0
 32 33  1  0  0  0  0
 33 31  1  0  0  0  0
M  END
>  <MODEL>
8

>  <REMARK>
 VINA RESULT:      -6.7      4.399      9.019
  Name = 
  6 active torsions:
  status: ('A' for Active; 'I' for Inactive)
    1  A    between atoms: C_1  and  C_4
    2  A    between atoms: C_4  and  C_25
    3  A    between atoms: C_6  and  N_28
    4  A    between atoms: C_7  and  C_27
    5  A    between atoms: C_16  and  O_18
    6  A    between atoms: O_18  and  C_25
                            x       y       z     vdW  Elec       q    Type
                         _______ _______ _______ _____ _____    ______ ____

>  <TORSDO>
F 6

$$$$
=
 OpenBabel11062421123D

 33 38  0  0  1  0  0  0  0  0999 V2000
  189.0180  173.9200  143.3680 N   0  0  0  0  0  0  0  0  0  0  0  0
  189.3470  175.1200  142.7500 C   0  0  1  0  0  3  0  0  0  0  0  0
  191.3170  175.1820  144.0510 C   0  0  0  0  0  0  0  0  0  0  0  0
  190.9430  173.9840  144.6620 C   0  0  1  0  0  0  0  0  0  0  0  0
  190.5550  175.7990  143.0820 C   0  0  0  0  0  3  0  0  0  0  0  0
  192.4900  175.1610  144.8790 C   0  0  2  0  0  0  0  0  0  0  0  0
  189.7840  173.3200  144.3370 C   0  0  0  0  0  3  0  0  0  0  0  0
  192.1320  173.9410  145.5110 N   0  0  0  0  0  2  0  0  0  0  0  0
  184.5750  177.7610  141.7130 C   0  0  2  0  0  3  0  0  0  0  0  0
  186.8420  177.2650  141.0570 N   0  0  0  0  0  0  0  0  0  0  0  0
  187.4930  177.4210  143.2370 N   0  0  0  0  0  2  0  0  0  0  0  0
  186.0040  178.3150  141.6190 C   0  0  2  0  0  3  0  0  0  0  0  0
  184.4080  178.2210  144.1290 C   0  0  0  0  0  2  0  0  0  0  0  0
  186.6620  178.5830  142.9920 C   0  0  1  0  0  3  0  0  0  0  0  0
  187.6130  176.7830  141.9730 C   0  0  0  0  0  0  0  0  0  0  0  0
  185.7580  178.9280  144.1810 C   0  0  1  0  0  3  0  0  0  0  0  0
  183.7630  177.9030  140.1380 Cl  0  0  0  0  0  0  0  0  0  0  0  0
  188.4710  175.6500  141.7390 N   0  0  0  0  0  0  0  0  0  0  0  0
  185.5670  180.4310  144.2640 C   0  0  0  0  0  1  0  0  0  0  0  0
  183.7440  178.4460  142.7810 C   0  0  0  0  0  2  0  0  0  0  0  0
  188.3710  174.9430  140.4670 C   0  0  0  0  0  1  0  0  0  0  0  0
  196.0330  174.3800  144.7560 C   0  0  1  0  0  0  0  0  0  0  0  0
  194.6170  176.2310  144.0650 C   0  0  0  0  0  2  0  0  0  0  0  0
  195.8870  175.8900  144.8180 C   0  0  0  0  0  2  0  0  0  0  0  0
  193.7630  174.9740  144.0460 C   0  0  1  0  0  3  0  0  0  0  0  0
  196.6440  173.8840  146.0590 C   0  0  0  0  0  1  0  0  0  0  0  0
  194.6100  173.8610  144.6410 C   0  0  0  0  0  2  0  0  0  0  0  0
  196.8730  173.9510  143.5290 C   0  0  2  0  0  3  0  0  0  0  0  0
  197.7400  172.7350  143.8290 C   0  0  0  0  0  1  0  0  0  0  0  0
  197.7680  175.0660  142.9930 C   0  0  0  0  0  2  0  0  0  0  0  0
  197.9190  174.9440  141.6120 O   0  0  0  0  0  0  0  0  0  0  0  0
  196.9310  175.6570  139.6870 O   0  0  0  0  0  1  0  0  0  0  0  0
  196.8800  175.7070  141.0810 C   0  0  0  0  0  2  0  0  0  0  0  0
  1  7  2  0  0  0  0
  2 18  1  6  0  0  0
  2  5  1  0  0  0  0
  2  1  1  0  0  0  0
  3  4  1  0  0  0  0
  4  7  1  1  0  0  0
  4  6  1  0  0  0  0
  4  8  1  0  0  0  0
  5  3  2  0  0  0  0
  6  3  1  1  0  0  0
  6  8  1  0  0  0  0
  9 17  1  6  0  0  0
  9 20  1  0  0  0  0
 10 15  2  0  0  0  0
 12 10  1  1  0  0  0
 12  9  1  0  0  0  0
 12 14  1  0  0  0  0
 13 16  1  0  0  0  0
 14 11  1  1  0  0  0
 14 16  1  0  0  0  0
 15 11  1  0  0  0  0
 16 19  1  6  0  0  0
 18 15  1  0  0  0  0
 20 13  1  0  0  0  0
 21 18  1  0  0  0  0
 22 24  1  0  0  0  0
 22 26  1  1  0  0  0
 23 24  1  0  0  0  0
 25 23  1  1  0  0  0
 25 27  1  0  0  0  0
 25  6  1  0  0  0  0
 27 22  1  0  0  0  0
 28 29  1  1  0  0  0
 28 22  1  0  0  0  0
 30 28  1  0  0  0  0
 31 30  1  0  0  0  0
 32 33  1  0  0  0  0
 33 31  1  0  0  0  0
M  END
>  <MODEL>
9

>  <REMARK>
 VINA RESULT:      -6.7      1.806      2.150
  Name = 
  6 active torsions:
  status: ('A' for Active; 'I' for Inactive)
    1  A    between atoms: C_1  and  C_4
    2  A    between atoms: C_4  and  C_25
    3  A    between atoms: C_6  and  N_28
    4  A    between atoms: C_7  and  C_27
    5  A    between atoms: C_16  and  O_18
    6  A    between atoms: O_18  and  C_25
                            x       y       z     vdW  Elec       q    Type
                         _______ _______ _______ _____ _____    ______ ____

>  <TORSDO>
F 6

$$$$
