=
 OpenBabel11062423123D

 28 32  0  0  1  0  0  0  0  0999 V2000
  187.0650  177.7750  142.4080 C   0  0  2  0  0  3  0  0  0  0  0  0
  183.4120  178.2440  142.2890 O   0  0  0  0  0  0  0  0  0  0  0  0
  183.6990  177.9160  140.1380 N   0  0  0  0  0  2  0  0  0  0  0  0
  186.7600  177.9160  146.6750 C   0  0  0  0  0  0  0  0  0  0  0  0
  185.1910  180.0460  144.7880 C   0  0  0  0  0  1  0  0  0  0  0  0
  187.7270  177.4570  144.7440 C   0  0  0  0  0  0  0  0  0  0  0  0
  187.9200  177.1770  143.2760 C   0  0  0  0  0  0  0  0  0  0  0  0
  187.9960  177.2560  146.9380 N   0  0  0  0  0  0  0  0  0  0  0  0
  185.7590  178.3480  142.9580 C   0  0  0  0  0  0  0  0  0  0  0  0
  185.5030  178.5660  144.4410 C   0  0  0  0  0  0  0  0  0  0  0  0
  187.2440  177.7600  141.0230 O   0  0  0  0  0  0  0  0  0  0  0  0
  184.9590  178.2000  140.6800 C   0  0  0  0  0  0  0  0  0  0  0  0
  185.7690  177.8080  147.4360 O   0  0  0  0  0  0  0  0  0  0  0  0
  182.7220  178.0540  141.1090 O   0  0  0  0  0  0  0  0  0  0  0  0
  186.1280  177.9160  140.1300 C   0  0  0  0  0  3  0  0  0  0  0  0
  188.5450  176.9750  145.8200 N   0  0  0  0  0  0  0  0  0  0  0  0
  184.7650  178.3800  142.0640 C   0  0  0  0  0  0  0  0  0  0  0  0
  186.6610  178.0590  145.2370 C   0  0  0  0  0  0  0  0  0  0  0  0
  188.6120  175.8570  142.8210 C   0  0  2  0  0  3  0  0  0  0  0  0
  187.7000  174.6920  142.3880 C   0  0  0  0  0  1  0  0  0  0  0  0
  189.9190  174.2380  144.2660 C   0  0  0  0  0  3  0  0  0  0  0  0
  192.1800  174.6930  145.0480 C   0  0  0  0  0  0  0  0  0  0  0  0
  193.2700  174.2160  145.7170 F   0  0  0  0  0  0  0  0  0  0  0  0
  189.9240  175.3970  143.4840 C   0  0  0  0  0  0  0  0  0  0  0  0
  193.1540  176.8620  144.5160 F   0  0  0  0  0  0  0  0  0  0  0  0
  191.0300  176.2640  143.5790 C   0  0  0  0  0  3  0  0  0  0  0  0
  192.1340  175.9670  144.4180 C   0  0  0  0  0  0  0  0  0  0  0  0
  191.0430  173.8730  145.0130 C   0  0  0  0  0  3  0  0  0  0  0  0
  1 11  1  6  0  0  0
  1  9  1  0  0  0  0
  1  7  1  0  0  0  0
  3 12  1  0  0  0  0
  3 14  1  0  0  0  0
  4  8  1  0  0  0  0
  4 13  2  0  0  0  0
  6 18  1  0  0  0  0
  6 16  1  0  0  0  0
  7  6  2  0  0  0  0
  9 10  1  0  0  0  0
 10  5  1  0  0  0  0
 10 18  2  0  0  0  0
 12 17  1  0  0  0  0
 14  2  1  0  0  0  0
 15 12  2  0  0  0  0
 15 11  1  0  0  0  0
 16  8  2  0  0  0  0
 17  2  1  0  0  0  0
 17  9  2  0  0  0  0
 18  4  1  0  0  0  0
 19 20  1  1  0  0  0
 19  7  1  0  0  0  0
 19 24  1  0  0  0  0
 21 28  1  0  0  0  0
 22 23  1  0  0  0  0
 24 26  1  0  0  0  0
 24 21  2  0  0  0  0
 26 27  2  0  0  0  0
 27 25  1  0  0  0  0
 27 22  1  0  0  0  0
 28 22  2  0  0  0  0
M  END
>  <MODEL>
1

>  <REMARK>
 VINA RESULT:      -8.6      0.000      0.000
  Name = 
  2 active torsions:
  status: ('A' for Active; 'I' for Inactive)
    1  A    between atoms: C_4  and  C_12
    2  A    between atoms: C_4  and  C_15
                            x       y       z     vdW  Elec       q    Type
                         _______ _______ _______ _____ _____    ______ ____

>  <TORSDO>
F 2

$$$$
=
 OpenBabel11062423123D

 28 32  0  0  1  0  0  0  0  0999 V2000
  187.7560  178.0230  143.1760 C   0  0  2  0  0  3  0  0  0  0  0  0
  184.4270  177.9920  141.5950 O   0  0  0  0  0  0  0  0  0  0  0  0
  185.5790  177.5570  139.7780 N   0  0  0  0  0  2  0  0  0  0  0  0
  185.7610  178.4160  146.9420 C   0  0  0  0  0  0  0  0  0  0  0  0
  184.8810  180.1830  144.3610 C   0  0  0  0  0  1  0  0  0  0  0  0
  187.4570  177.9580  145.6050 C   0  0  0  0  0  0  0  0  0  0  0  0
  188.2460  177.6060  144.3710 C   0  0  0  0  0  0  0  0  0  0  0  0
  186.8460  177.9460  147.7390 N   0  0  0  0  0  0  0  0  0  0  0  0
  186.2910  178.4540  143.1050 C   0  0  0  0  0  0  0  0  0  0  0  0
  185.4450  178.7380  144.3370 C   0  0  0  0  0  0  0  0  0  0  0  0
  188.4730  177.9370  141.9810 O   0  0  0  0  0  0  0  0  0  0  0  0
  186.4850  178.0430  140.7290 C   0  0  0  0  0  0  0  0  0  0  0  0
  184.5640  178.2300  147.2660 O   0  0  0  0  0  0  0  0  0  0  0  0
  184.2870  177.6300  140.2700 O   0  0  0  0  0  0  0  0  0  0  0  0
  187.7970  177.8800  140.7130 C   0  0  0  0  0  3  0  0  0  0  0  0
  187.8190  177.6650  146.9630 N   0  0  0  0  0  0  0  0  0  0  0  0
  185.7380  178.2920  141.8980 C   0  0  0  0  0  0  0  0  0  0  0  0
  186.2310  178.4460  145.5730 C   0  0  0  0  0  0  0  0  0  0  0  0
  189.1840  176.3610  144.3760 C   0  0  2  0  0  3  0  0  0  0  0  0
  188.5170  174.9720  144.3610 C   0  0  0  0  0  1  0  0  0  0  0  0
  191.6740  176.8190  144.4840 C   0  0  0  0  0  3  0  0  0  0  0  0
  193.0650  176.1260  146.3600 C   0  0  0  0  0  0  0  0  0  0  0  0
  194.3050  176.1550  146.9280 F   0  0  0  0  0  0  0  0  0  0  0  0
  190.5170  176.3960  145.1480 C   0  0  0  0  0  0  0  0  0  0  0  0
  192.0190  174.8190  148.1310 F   0  0  0  0  0  0  0  0  0  0  0  0
  190.6580  175.7290  146.3800 C   0  0  0  0  0  3  0  0  0  0  0  0
  191.9320  175.5150  146.9640 C   0  0  0  0  0  0  0  0  0  0  0  0
  192.9270  176.7160  145.0950 C   0  0  0  0  0  3  0  0  0  0  0  0
  1 11  1  6  0  0  0
  1  7  1  0  0  0  0
  2 17  1  0  0  0  0
  3 14  1  0  0  0  0
  3 12  1  0  0  0  0
  4 13  2  0  0  0  0
  4  8  1  0  0  0  0
  6 16  1  0  0  0  0
  7 19  1  0  0  0  0
  7  6  2  0  0  0  0
  9  1  1  0  0  0  0
  9 10  1  0  0  0  0
 10  5  1  0  0  0  0
 10 18  2  0  0  0  0
 12 17  1  0  0  0  0
 14  2  1  0  0  0  0
 15 12  2  0  0  0  0
 15 11  1  0  0  0  0
 16  8  2  0  0  0  0
 17  9  2  0  0  0  0
 18  6  1  0  0  0  0
 18  4  1  0  0  0  0
 19 20  1  1  0  0  0
 19 24  1  0  0  0  0
 21 28  2  0  0  0  0
 21 24  1  0  0  0  0
 22 23  1  0  0  0  0
 22 27  2  0  0  0  0
 24 26  2  0  0  0  0
 26 27  1  0  0  0  0
 27 25  1  0  0  0  0
 28 22  1  0  0  0  0
M  END
>  <MODEL>
2

>  <REMARK>
 VINA RESULT:      -8.5      1.497      1.961
  Name = 
  2 active torsions:
  status: ('A' for Active; 'I' for Inactive)
    1  A    between atoms: C_4  and  C_12
    2  A    between atoms: C_4  and  C_15
                            x       y       z     vdW  Elec       q    Type
                         _______ _______ _______ _____ _____    ______ ____

>  <TORSDO>
F 2

$$$$
=
 OpenBabel11062423123D

 28 32  0  0  1  0  0  0  0  0999 V2000
  188.9950  174.9400  142.3680 C   0  0  2  0  0  3  0  0  0  0  0  0
  192.0600  173.8840  140.6170 O   0  0  0  0  0  0  0  0  0  0  0  0
  190.6690  173.4830  138.9660 N   0  0  0  0  0  2  0  0  0  0  0  0
  191.5010  176.2470  145.5820 C   0  0  0  0  0  0  0  0  0  0  0  0
  191.9530  173.3730  144.1360 C   0  0  0  0  0  1  0  0  0  0  0  0
  189.6430  176.1530  144.3940 C   0  0  0  0  0  0  0  0  0  0  0  0
  188.6940  175.9320  143.2460 C   0  0  0  0  0  0  0  0  0  0  0  0
  190.5560  177.1460  146.1570 N   0  0  0  0  0  0  0  0  0  0  0  0
  190.4230  174.3940  142.3560 C   0  0  0  0  0  0  0  0  0  0  0  0
  191.4300  174.6690  143.4620 C   0  0  0  0  0  0  0  0  0  0  0  0
  188.1150  174.5000  141.3770 O   0  0  0  0  0  0  0  0  0  0  0  0
  189.8980  173.6100  140.1290 C   0  0  0  0  0  0  0  0  0  0  0  0
  192.7380  176.4540  145.6340 O   0  0  0  0  0  0  0  0  0  0  0  0
  192.0160  173.5380  139.2810 O   0  0  0  0  0  0  0  0  0  0  0  0
  188.6020  173.8670  140.1820 C   0  0  0  0  0  3  0  0  0  0  0  0
  189.4880  177.1040  145.4590 N   0  0  0  0  0  0  0  0  0  0  0  0
  190.7990  173.8950  141.1740 C   0  0  0  0  0  0  0  0  0  0  0  0
  190.8380  175.5990  144.4700 C   0  0  0  0  0  0  0  0  0  0  0  0
  187.7990  177.1030  142.7390 C   0  0  2  0  0  3  0  0  0  0  0  0
  188.4950  178.2470  141.9760 C   0  0  0  0  0  1  0  0  0  0  0  0
  186.1860  178.9030  143.4950 C   0  0  0  0  0  3  0  0  0  0  0  0
  184.6100  178.5830  145.3250 C   0  0  0  0  0  0  0  0  0  0  0  0
  183.5760  179.1120  146.0420 F   0  0  0  0  0  0  0  0  0  0  0  0
  186.5810  177.5640  143.5620 C   0  0  0  0  0  0  0  0  0  0  0  0
  184.7030  176.4800  146.5520 F   0  0  0  0  0  0  0  0  0  0  0  0
  186.0620  176.7640  144.5980 C   0  0  0  0  0  3  0  0  0  0  0  0
  185.1350  177.2780  145.5380 C   0  0  0  0  0  0  0  0  0  0  0  0
  185.1900  179.3980  144.3430 C   0  0  0  0  0  3  0  0  0  0  0  0
  1 11  1  6  0  0  0
  1  7  1  0  0  0  0
  2 17  1  0  0  0  0
  3 14  1  0  0  0  0
  3 12  1  0  0  0  0
  4 13  2  0  0  0  0
  4  8  1  0  0  0  0
  6 18  1  0  0  0  0
  6 16  1  0  0  0  0
  7  6  2  0  0  0  0
  9  1  1  0  0  0  0
  9 10  1  0  0  0  0
 10  5  1  0  0  0  0
 10 18  2  0  0  0  0
 12 15  2  0  0  0  0
 12 17  1  0  0  0  0
 14  2  1  0  0  0  0
 15 11  1  0  0  0  0
 16  8  2  0  0  0  0
 17  9  2  0  0  0  0
 18  4  1  0  0  0  0
 19 20  1  1  0  0  0
 19  7  1  0  0  0  0
 19 24  1  0  0  0  0
 21 24  2  0  0  0  0
 21 28  1  0  0  0  0
 22 27  1  0  0  0  0
 22 23  1  0  0  0  0
 24 26  1  0  0  0  0
 26 27  2  0  0  0  0
 27 25  1  0  0  0  0
 28 22  2  0  0  0  0
M  END
>  <MODEL>
3

>  <REMARK>
 VINA RESULT:      -8.4      3.974      6.553
  Name = 
  2 active torsions:
  status: ('A' for Active; 'I' for Inactive)
    1  A    between atoms: C_4  and  C_12
    2  A    between atoms: C_4  and  C_15
                            x       y       z     vdW  Elec       q    Type
                         _______ _______ _______ _____ _____    ______ ____

>  <TORSDO>
F 2

$$$$
=
 OpenBabel11062423123D

 28 32  0  0  1  0  0  0  0  0999 V2000
  188.1940  177.9850  143.9680 C   0  0  2  0  0  3  0  0  0  0  0  0
  185.5060  177.6730  141.4670 O   0  0  0  0  0  0  0  0  0  0  0  0
  187.1840  177.4920  140.0640 N   0  0  0  0  0  2  0  0  0  0  0  0
  185.1530  177.9020  146.9780 C   0  0  0  0  0  0  0  0  0  0  0  0
  184.8460  179.7190  144.3020 C   0  0  0  0  0  1  0  0  0  0  0  0
  187.2100  177.7300  146.1950 C   0  0  0  0  0  0  0  0  0  0  0  0
  188.3630  177.5500  145.2430 C   0  0  0  0  0  0  0  0  0  0  0  0
  186.0090  177.5100  148.0480 N   0  0  0  0  0  0  0  0  0  0  0  0
  186.7710  178.2480  143.4760 C   0  0  0  0  0  0  0  0  0  0  0  0
  185.5730  178.3530  144.4070 C   0  0  0  0  0  0  0  0  0  0  0  0
  189.2340  178.0600  143.0390 O   0  0  0  0  0  0  0  0  0  0  0  0
  187.7020  178.0170  141.2550 C   0  0  0  0  0  0  0  0  0  0  0  0
  183.9470  177.5590  146.9250 O   0  0  0  0  0  0  0  0  0  0  0  0
  185.8070  177.3850  140.1510 O   0  0  0  0  0  0  0  0  0  0  0  0
  188.9710  178.0080  141.6260 C   0  0  0  0  0  3  0  0  0  0  0  0
  187.1940  177.3920  147.5900 N   0  0  0  0  0  0  0  0  0  0  0  0
  186.6210  178.1020  142.1550 C   0  0  0  0  0  0  0  0  0  0  0  0
  185.9940  178.0740  145.8120 C   0  0  0  0  0  0  0  0  0  0  0  0
  189.4120  176.4240  145.4930 C   0  0  2  0  0  3  0  0  0  0  0  0
  190.8800  176.8540  145.6800 C   0  0  0  0  0  1  0  0  0  0  0  0
  189.8290  173.9270  145.4180 C   0  0  0  0  0  3  0  0  0  0  0  0
  189.3500  172.5650  143.4570 C   0  0  0  0  0  0  0  0  0  0  0  0
  189.3120  171.3080  142.9260 F   0  0  0  0  0  0  0  0  0  0  0  0
  189.2540  175.0500  144.8150 C   0  0  0  0  0  0  0  0  0  0  0  0
  188.5640  173.6980  141.4480 F   0  0  0  0  0  0  0  0  0  0  0  0
  188.8280  174.9470  143.4770 C   0  0  0  0  0  3  0  0  0  0  0  0
  188.9410  173.7330  142.7550 C   0  0  0  0  0  0  0  0  0  0  0  0
  189.8470  172.6930  144.7610 C   0  0  0  0  0  3  0  0  0  0  0  0
  1 11  1  6  0  0  0
  1  7  1  0  0  0  0
  2 17  1  0  0  0  0
  3 14  1  0  0  0  0
  3 12  1  0  0  0  0
  4  8  1  0  0  0  0
  5 10  1  0  0  0  0
  6 16  1  0  0  0  0
  7 19  1  0  0  0  0
  7  6  2  0  0  0  0
  9  1  1  0  0  0  0
  9 10  1  0  0  0  0
 10 18  2  0  0  0  0
 12 15  2  0  0  0  0
 12 17  1  0  0  0  0
 13  4  2  0  0  0  0
 14  2  1  0  0  0  0
 15 11  1  0  0  0  0
 16  8  2  0  0  0  0
 17  9  2  0  0  0  0
 18  6  1  0  0  0  0
 18  4  1  0  0  0  0
 19 20  1  6  0  0  0
 22 28  1  0  0  0  0
 23 22  1  0  0  0  0
 24 21  1  0  0  0  0
 24 19  1  0  0  0  0
 25 27  1  0  0  0  0
 26 24  2  0  0  0  0
 27 22  2  0  0  0  0
 27 26  1  0  0  0  0
 28 21  2  0  0  0  0
M  END
>  <MODEL>
4

>  <REMARK>
 VINA RESULT:      -8.3      2.328      2.931
  Name = 
  2 active torsions:
  status: ('A' for Active; 'I' for Inactive)
    1  A    between atoms: C_4  and  C_12
    2  A    between atoms: C_4  and  C_15
                            x       y       z     vdW  Elec       q    Type
                         _______ _______ _______ _____ _____    ______ ____

>  <TORSDO>
F 2

$$$$
=
 OpenBabel11062423123D

 28 32  0  0  1  0  0  0  0  0999 V2000
  190.7080  176.1430  144.8490 C   0  0  0  0  0  0  0  0  0  0  0  0
  193.1190  173.3850  144.4540 O   0  0  0  0  0  0  0  0  0  0  0  0
  194.1270  174.3670  146.1380 N   0  0  0  0  0  2  0  0  0  0  0  0
  188.2870  174.2070  141.8990 C   0  0  0  0  0  0  0  0  0  0  0  0
  191.4950  174.5460  141.5090 C   0  0  0  0  0  1  0  0  0  0  0  0
  188.7000  175.6040  143.5570 C   0  0  0  0  0  0  0  0  0  0  0  0
  189.3590  176.2500  144.7480 C   0  0  0  0  0  0  0  0  0  0  0  0
  187.0660  174.8480  142.2590 N   0  0  0  0  0  0  0  0  0  0  0  0
  191.4150  175.0780  144.0120 C   0  0  0  0  0  0  0  0  0  0  0  0
  190.7480  174.3500  142.8540 C   0  0  1  0  0  3  0  0  0  0  0  0
  191.4650  176.8500  145.7870 O   0  0  0  0  0  0  0  0  0  0  0  0
  193.2190  175.2930  145.6090 C   0  0  0  0  0  0  0  0  0  0  0  0
  188.3200  173.0400  141.4390 O   0  0  0  0  0  0  0  0  0  0  0  0
  194.1510  173.2250  145.3560 O   0  0  0  0  0  0  0  0  0  0  0  0
  192.7440  176.3620  146.2260 C   0  0  0  0  0  3  0  0  0  0  0  0
  187.3030  175.6420  143.2300 N   0  0  0  0  0  0  0  0  0  0  0  0
  192.5590  174.6410  144.5470 C   0  0  0  0  0  0  0  0  0  0  0  0
  189.3190  174.7710  142.7430 C   0  0  0  0  0  0  0  0  0  0  0  0
  188.5480  176.4740  146.0600 C   0  0  2  0  0  3  0  0  0  0  0  0
  188.5660  175.3420  147.1060 C   0  0  0  0  0  1  0  0  0  0  0  0
  186.0950  176.7170  146.6480 C   0  0  0  0  0  3  0  0  0  0  0  0
  184.6740  178.4530  145.6990 C   0  0  0  0  0  0  0  0  0  0  0  0
  183.4430  179.0410  145.6990 F   0  0  0  0  0  0  0  0  0  0  0  0
  187.2250  177.2640  146.0320 C   0  0  0  0  0  0  0  0  0  0  0  0
  185.6430  179.9210  144.0130 F   0  0  0  0  0  0  0  0  0  0  0  0
  187.0490  178.3490  145.1520 C   0  0  0  0  0  3  0  0  0  0  0  0
  185.7680  178.9070  144.9120 C   0  0  0  0  0  0  0  0  0  0  0  0
  184.8420  177.3220  146.5100 C   0  0  0  0  0  3  0  0  0  0  0  0
  1 11  1  0  0  0  0
  2 17  1  0  0  0  0
  2 14  1  0  0  0  0
  4  8  1  0  0  0  0
  4 18  1  0  0  0  0
  6  7  1  0  0  0  0
  7  1  2  0  0  0  0
  7 19  1  0  0  0  0
  8 16  2  0  0  0  0
  9 17  2  0  0  0  0
  9  1  1  0  0  0  0
 10  5  1  6  0  0  0
 10  9  1  0  0  0  0
 11 15  1  0  0  0  0
 12  3  1  0  0  0  0
 12 15  2  0  0  0  0
 13  4  2  0  0  0  0
 14  3  1  0  0  0  0
 16  6  1  0  0  0  0
 17 12  1  0  0  0  0
 18 10  1  0  0  0  0
 18  6  2  0  0  0  0
 19 20  1  6  0  0  0
 22 23  1  0  0  0  0
 22 28  2  0  0  0  0
 24 19  1  0  0  0  0
 24 21  2  0  0  0  0
 25 27  1  0  0  0  0
 26 24  1  0  0  0  0
 27 26  2  0  0  0  0
 27 22  1  0  0  0  0
 28 21  1  0  0  0  0
M  END
>  <MODEL>
5

>  <REMARK>
 VINA RESULT:      -8.2      4.197      7.535
  Name = 
  2 active torsions:
  status: ('A' for Active; 'I' for Inactive)
    1  A    between atoms: C_4  and  C_12
    2  A    between atoms: C_4  and  C_15
                            x       y       z     vdW  Elec       q    Type
                         _______ _______ _______ _____ _____    ______ ____

>  <TORSDO>
F 2

$$$$
=
 OpenBabel11062423123D

 28 32  0  0  1  0  0  0  0  0999 V2000
  189.2140  174.8290  143.4410 C   0  0  2  0  0  3  0  0  0  0  0  0
  191.4840  173.3560  140.9390 O   0  0  0  0  0  0  0  0  0  0  0  0
  189.8260  173.7790  139.5650 N   0  0  0  0  0  2  0  0  0  0  0  0
  192.4290  174.5550  146.2520 C   0  0  0  0  0  0  0  0  0  0  0  0
  191.7010  172.0940  144.2590 C   0  0  0  0  0  1  0  0  0  0  0  0
  190.4990  175.2900  145.4730 C   0  0  0  0  0  0  0  0  0  0  0  0
  189.3820  175.6320  144.5220 C   0  0  0  0  0  0  0  0  0  0  0  0
  191.9230  175.5320  147.1580 N   0  0  0  0  0  0  0  0  0  0  0  0
  190.3640  173.9060  143.0400 C   0  0  0  0  0  0  0  0  0  0  0  0
  191.5480  173.6060  143.9470 C   0  0  0  0  0  0  0  0  0  0  0  0
  188.1100  174.9100  142.5890 O   0  0  0  0  0  0  0  0  0  0  0  0
  189.3080  173.8520  140.8640 C   0  0  0  0  0  0  0  0  0  0  0  0
  193.6590  174.3710  146.0850 O   0  0  0  0  0  0  0  0  0  0  0  0
  191.1450  173.3600  139.6010 O   0  0  0  0  0  0  0  0  0  0  0  0
  188.1910  174.4590  141.2270 C   0  0  0  0  0  3  0  0  0  0  0  0
  190.8160  175.9690  146.6970 N   0  0  0  0  0  0  0  0  0  0  0  0
  190.3870  173.6070  141.7370 C   0  0  0  0  0  0  0  0  0  0  0  0
  191.4420  174.4070  145.2030 C   0  0  0  0  0  0  0  0  0  0  0  0
  188.8630  177.0980  144.4250 C   0  0  2  0  0  3  0  0  0  0  0  0
  189.9160  178.2110  144.2560 C   0  0  0  0  0  1  0  0  0  0  0  0
  187.2640  176.8200  146.3700 C   0  0  0  0  0  3  0  0  0  0  0  0
  185.1600  178.0360  146.5370 C   0  0  0  0  0  0  0  0  0  0  0  0
  184.0610  178.3080  147.2980 F   0  0  0  0  0  0  0  0  0  0  0  0
  187.6240  177.5400  145.2270 C   0  0  0  0  0  0  0  0  0  0  0  0
  184.5260  179.4740  144.6740 F   0  0  0  0  0  0  0  0  0  0  0  0
  186.6870  178.4350  144.6770 C   0  0  0  0  0  3  0  0  0  0  0  0
  185.4170  178.6380  145.2740 C   0  0  0  0  0  0  0  0  0  0  0  0
  186.0630  177.0860  147.0350 C   0  0  0  0  0  3  0  0  0  0  0  0
  1 11  1  6  0  0  0
  1  7  1  0  0  0  0
  2 17  1  0  0  0  0
  3 14  1  0  0  0  0
  3 12  1  0  0  0  0
  4  8  1  0  0  0  0
  6 16  1  0  0  0  0
  7  6  2  0  0  0  0
  9  1  1  0  0  0  0
  9 10  1  0  0  0  0
 10  5  1  0  0  0  0
 10 18  2  0  0  0  0
 12 15  2  0  0  0  0
 12 17  1  0  0  0  0
 13  4  2  0  0  0  0
 14  2  1  0  0  0  0
 15 11  1  0  0  0  0
 16  8  2  0  0  0  0
 17  9  2  0  0  0  0
 18  6  1  0  0  0  0
 18  4  1  0  0  0  0
 19 20  1  1  0  0  0
 19  7  1  0  0  0  0
 19 24  1  0  0  0  0
 21 28  1  0  0  0  0
 22 28  2  0  0  0  0
 22 23  1  0  0  0  0
 24 21  2  0  0  0  0
 25 27  1  0  0  0  0
 26 24  1  0  0  0  0
 26 27  2  0  0  0  0
 27 22  1  0  0  0  0
M  END
>  <MODEL>
6

>  <REMARK>
 VINA RESULT:      -8.1      4.045      6.562
  Name = 
  2 active torsions:
  status: ('A' for Active; 'I' for Inactive)
    1  A    between atoms: C_4  and  C_12
    2  A    between atoms: C_4  and  C_15
                            x       y       z     vdW  Elec       q    Type
                         _______ _______ _______ _____ _____    ______ ____

>  <TORSDO>
F 2

$$$$
=
 OpenBabel11062423123D

 28 32  0  0  1  0  0  0  0  0999 V2000
  189.6430  176.3760  143.3340 C   0  0  2  0  0  3  0  0  0  0  0  0
  190.6540  174.8090  146.5130 O   0  0  0  0  0  0  0  0  0  0  0  0
  190.4090  176.8450  147.2960 N   0  0  0  0  0  2  0  0  0  0  0  0
  189.5860  172.4500  141.6300 C   0  0  0  0  0  0  0  0  0  0  0  0
  192.0280  173.4430  143.5300 C   0  0  0  0  0  1  0  0  0  0  0  0
  189.0990  174.6010  141.7380 C   0  0  0  0  0  0  0  0  0  0  0  0
  188.8770  175.9870  142.2840 C   0  0  0  0  0  0  0  0  0  0  0  0
  188.7360  172.7730  140.5320 N   0  0  0  0  0  0  0  0  0  0  0  0
  190.3720  175.2970  144.1360 C   0  0  0  0  0  0  0  0  0  0  0  0
  190.5410  173.8670  143.6480 C   0  0  0  0  0  0  0  0  0  0  0  0
  189.6810  177.6870  143.8130 O   0  0  0  0  0  0  0  0  0  0  0  0
  190.4720  176.9490  145.9010 C   0  0  0  0  0  0  0  0  0  0  0  0
  189.5840  171.3160  142.1670 O   0  0  0  0  0  0  0  0  0  0  0  0
  190.6350  175.5360  147.6860 O   0  0  0  0  0  0  0  0  0  0  0  0
  190.0500  177.9690  145.1730 C   0  0  0  0  0  3  0  0  0  0  0  0
  188.4410  174.0130  140.6060 N   0  0  0  0  0  0  0  0  0  0  0  0
  190.6010  175.6340  145.4100 C   0  0  0  0  0  0  0  0  0  0  0  0
  189.8240  173.6830  142.3510 C   0  0  0  0  0  0  0  0  0  0  0  0
  187.4960  176.6860  142.0940 C   0  0  2  0  0  3  0  0  0  0  0  0
  187.2420  177.3950  140.7490 C   0  0  0  0  0  1  0  0  0  0  0  0
  186.1920  176.5580  144.2620 C   0  0  0  0  0  3  0  0  0  0  0  0
  185.1600  178.5050  145.3000 C   0  0  0  0  0  0  0  0  0  0  0  0
  184.4750  178.9910  146.3760 F   0  0  0  0  0  0  0  0  0  0  0  0
  186.7950  177.3610  143.2880 C   0  0  0  0  0  0  0  0  0  0  0  0
  185.2860  180.6290  144.1130 F   0  0  0  0  0  0  0  0  0  0  0  0
  186.4800  178.7320  143.2620 C   0  0  0  0  0  3  0  0  0  0  0  0
  185.6010  179.3090  144.2130 C   0  0  0  0  0  0  0  0  0  0  0  0
  185.4120  177.1260  145.2730 C   0  0  0  0  0  3  0  0  0  0  0  0
  1  7  1  1  0  0  0
  1 11  1  0  0  0  0
  1  9  1  0  0  0  0
  2 14  1  0  0  0  0
  3 14  1  0  0  0  0
  4 13  2  0  0  0  0
  4 18  1  0  0  0  0
  5 10  1  0  0  0  0
  6  7  2  0  0  0  0
  6 18  1  0  0  0  0
  8 16  2  0  0  0  0
  8  4  1  0  0  0  0
  9 17  2  0  0  0  0
 10  9  1  0  0  0  0
 11 15  1  0  0  0  0
 12  3  1  0  0  0  0
 15 12  2  0  0  0  0
 16  6  1  0  0  0  0
 17 12  1  0  0  0  0
 17  2  1  0  0  0  0
 18 10  2  0  0  0  0
 19 20  1  6  0  0  0
 19  7  1  0  0  0  0
 19 24  1  0  0  0  0
 21 28  1  0  0  0  0
 22 23  1  0  0  0  0
 24 21  2  0  0  0  0
 25 27  1  0  0  0  0
 26 24  1  0  0  0  0
 26 27  2  0  0  0  0
 27 22  1  0  0  0  0
 28 22  2  0  0  0  0
M  END
>  <MODEL>
7

>  <REMARK>
 VINA RESULT:      -8.0      3.878      6.955
  Name = 
  2 active torsions:
  status: ('A' for Active; 'I' for Inactive)
    1  A    between atoms: C_4  and  C_12
    2  A    between atoms: C_4  and  C_15
                            x       y       z     vdW  Elec       q    Type
                         _______ _______ _______ _____ _____    ______ ____

>  <TORSDO>
F 2

$$$$
=
 OpenBabel11062423123D

 28 32  0  0  1  0  0  0  0  0999 V2000
  188.5210  176.0310  145.2030 C   0  0  2  0  0  3  0  0  0  0  0  0
  189.3520  178.2650  148.0130 O   0  0  0  0  0  0  0  0  0  0  0  0
  191.2510  177.1660  147.9890 N   0  0  0  0  0  2  0  0  0  0  0  0
  184.9220  178.2930  144.7080 C   0  0  0  0  0  0  0  0  0  0  0  0
  185.9370  177.3370  147.6420 C   0  0  0  0  0  1  0  0  0  0  0  0
  186.5190  176.8990  144.0930 C   0  0  0  0  0  0  0  0  0  0  0  0
  187.8420  176.1800  144.0370 C   0  0  0  0  0  0  0  0  0  0  0  0
  184.6850  177.9080  143.3560 N   0  0  0  0  0  0  0  0  0  0  0  0
  188.1280  176.9140  146.3870 C   0  0  0  0  0  0  0  0  0  0  0  0
  186.8370  177.7160  146.4370 C   0  0  0  0  0  0  0  0  0  0  0  0
  189.6540  175.2250  145.3320 O   0  0  0  0  0  0  0  0  0  0  0  0
  190.3330  176.4130  147.2450 C   0  0  0  0  0  0  0  0  0  0  0  0
  184.5840  179.4160  145.1520 O   0  0  0  0  0  0  0  0  0  0  0  0
  190.6180  178.2560  148.5610 O   0  0  0  0  0  0  0  0  0  0  0  0
  190.6270  175.4750  146.3600 C   0  0  0  0  0  3  0  0  0  0  0  0
  185.6190  177.1170  142.9950 N   0  0  0  0  0  0  0  0  0  0  0  0
  189.1280  177.1420  147.2450 C   0  0  0  0  0  0  0  0  0  0  0  0
  186.0980  177.5720  145.1470 C   0  0  0  0  0  0  0  0  0  0  0  0
  188.6610  176.1580  142.7110 C   0  0  2  0  0  3  0  0  0  0  0  0
  188.9390  177.5130  142.0290 C   0  0  0  0  0  1  0  0  0  0  0  0
  189.0630  173.7490  142.0400 C   0  0  0  0  0  3  0  0  0  0  0  0
  188.6040  172.9060  139.8020 C   0  0  0  0  0  0  0  0  0  0  0  0
  188.5660  171.8150  138.9820 F   0  0  0  0  0  0  0  0  0  0  0  0
  188.5050  174.9900  141.7190 C   0  0  0  0  0  0  0  0  0  0  0  0
  187.8560  174.4990  138.1170 F   0  0  0  0  0  0  0  0  0  0  0  0
  188.0980  175.2180  140.3910 C   0  0  0  0  0  3  0  0  0  0  0  0
  188.2140  174.2130  139.3980 C   0  0  0  0  0  0  0  0  0  0  0  0
  189.0830  172.7100  141.1050 C   0  0  0  0  0  3  0  0  0  0  0  0
  1  7  1  6  0  0  0
  1 11  1  0  0  0  0
  1  9  1  0  0  0  0
  2 14  1  0  0  0  0
  3 14  1  0  0  0  0
  4 18  1  0  0  0  0
  4 13  2  0  0  0  0
  6 18  1  0  0  0  0
  7  6  2  0  0  0  0
  8  4  1  0  0  0  0
  9 10  1  0  0  0  0
  9 17  2  0  0  0  0
 10  5  1  0  0  0  0
 11 15  1  0  0  0  0
 12  3  1  0  0  0  0
 15 12  2  0  0  0  0
 16  8  2  0  0  0  0
 16  6  1  0  0  0  0
 17 12  1  0  0  0  0
 17  2  1  0  0  0  0
 18 10  2  0  0  0  0
 19 20  1  6  0  0  0
 19  7  1  0  0  0  0
 22 28  1  0  0  0  0
 23 22  1  0  0  0  0
 24 21  1  0  0  0  0
 24 19  1  0  0  0  0
 25 27  1  0  0  0  0
 26 24  2  0  0  0  0
 27 22  2  0  0  0  0
 27 26  1  0  0  0  0
 28 21  2  0  0  0  0
M  END
>  <MODEL>
8

>  <REMARK>
 VINA RESULT:      -7.9      3.449      5.783
  Name = 
  2 active torsions:
  status: ('A' for Active; 'I' for Inactive)
    1  A    between atoms: C_4  and  C_12
    2  A    between atoms: C_4  and  C_15
                            x       y       z     vdW  Elec       q    Type
                         _______ _______ _______ _____ _____    ______ ____

>  <TORSDO>
F 2

$$$$
=
 OpenBabel11062423123D

 28 32  0  0  1  0  0  0  0  0999 V2000
  190.7890  173.9110  144.7950 C   0  0  0  0  0  0  0  0  0  0  0  0
  191.6150  174.1970  141.2150 O   0  0  0  0  0  0  0  0  0  0  0  0
  189.7080  173.1420  140.9560 N   0  0  0  0  0  2  0  0  0  0  0  0
  194.2130  176.3520  145.5920 C   0  0  0  0  0  0  0  0  0  0  0  0
  194.3390  173.8850  143.4820 C   0  0  0  0  0  1  0  0  0  0  0  0
  192.2780  175.3940  146.0510 C   0  0  0  0  0  0  0  0  0  0  0  0
  190.9430  174.7190  145.8750 C   0  0  0  0  0  0  0  0  0  0  0  0
  193.7970  176.7810  146.8870 N   0  0  0  0  0  0  0  0  0  0  0  0
  191.7900  174.0400  143.6470 C   0  0  0  0  0  0  0  0  0  0  0  0
  193.1100  174.7850  143.7710 C   0  0  1  0  0  3  0  0  0  0  0  0
  189.6830  173.0780  144.6120 O   0  0  0  0  0  0  0  0  0  0  0  0
  190.0820  172.9850  142.2960 C   0  0  0  0  0  0  0  0  0  0  0  0
  194.9040  177.0790  144.8380 O   0  0  0  0  0  0  0  0  0  0  0  0
  190.7080  173.7940  140.2560 O   0  0  0  0  0  0  0  0  0  0  0  0
  189.2840  172.6560  143.2970 C   0  0  0  0  0  3  0  0  0  0  0  0
  192.6690  176.2400  147.1430 N   0  0  0  0  0  0  0  0  0  0  0  0
  191.2920  173.6900  142.4560 C   0  0  0  0  0  0  0  0  0  0  0  0
  193.2120  175.4200  145.1190 C   0  0  0  0  0  0  0  0  0  0  0  0
  189.6610  175.3550  146.4940 C   0  0  2  0  0  3  0  0  0  0  0  0
  188.9430  174.5610  147.6030 C   0  0  0  0  0  1  0  0  0  0  0  0
  189.2470  177.0190  144.6300 C   0  0  0  0  0  3  0  0  0  0  0  0
  187.0750  178.0480  144.2350 C   0  0  0  0  0  0  0  0  0  0  0  0
  186.3320  178.8650  143.4330 F   0  0  0  0  0  0  0  0  0  0  0  0
  188.7080  176.1930  145.6210 C   0  0  0  0  0  0  0  0  0  0  0  0
  185.2750  177.5420  145.7970 F   0  0  0  0  0  0  0  0  0  0  0  0
  187.3640  176.3830  145.9930 C   0  0  0  0  0  3  0  0  0  0  0  0
  186.5520  177.3610  145.3650 C   0  0  0  0  0  0  0  0  0  0  0  0
  188.4350  177.9120  143.9240 C   0  0  0  0  0  3  0  0  0  0  0  0
  1  7  2  0  0  0  0
  2 17  1  0  0  0  0
  3 12  1  0  0  0  0
  4  8  1  0  0  0  0
  6 16  1  0  0  0  0
  7  6  1  0  0  0  0
  7 19  1  0  0  0  0
  8 16  2  0  0  0  0
  9 10  1  0  0  0  0
  9  1  1  0  0  0  0
 10  5  1  1  0  0  0
 10 18  1  0  0  0  0
 11  1  1  0  0  0  0
 12 17  1  0  0  0  0
 12 15  2  0  0  0  0
 13  4  2  0  0  0  0
 14  3  1  0  0  0  0
 14  2  1  0  0  0  0
 15 11  1  0  0  0  0
 17  9  2  0  0  0  0
 18  4  1  0  0  0  0
 18  6  2  0  0  0  0
 19 20  1  6  0  0  0
 21 24  1  0  0  0  0
 22 27  2  0  0  0  0
 23 22  1  0  0  0  0
 24 26  2  0  0  0  0
 24 19  1  0  0  0  0
 27 25  1  0  0  0  0
 27 26  1  0  0  0  0
 28 22  1  0  0  0  0
 28 21  2  0  0  0  0
M  END
>  <MODEL>
9

>  <REMARK>
 VINA RESULT:      -7.8      4.434      6.910
  Name = 
  2 active torsions:
  status: ('A' for Active; 'I' for Inactive)
    1  A    between atoms: C_4  and  C_12
    2  A    between atoms: C_4  and  C_15
                            x       y       z     vdW  Elec       q    Type
                         _______ _______ _______ _____ _____    ______ ____

>  <TORSDO>
F 2

$$$$
