=
 OpenBabel11062420353D

 32 34  0  0  1  0  0  0  0  0999 V2000
  183.9230  178.6530  145.7580 N   0  0  0  0  0  0  0  0  0  0  0  0
  184.0440  178.4030  143.3180 N   0  0  0  0  0  0  0  0  0  0  0  0
  186.1330  177.1810  143.2760 C   0  0  1  0  0  3  0  0  0  0  0  0
  186.3270  177.2370  145.8800 C   0  0  0  0  0  0  0  0  0  0  0  0
  185.7010  177.6860  147.0580 C   0  0  0  0  0  3  0  0  0  0  0  0
  184.5350  178.2180  144.6270 C   0  0  0  0  0  0  0  0  0  0  0  0
  184.4900  178.3990  146.9720 C   0  0  0  0  0  3  0  0  0  0  0  0
  185.7110  177.5300  144.6610 C   0  0  0  0  0  0  0  0  0  0  0  0
  184.9940  177.7630  142.4060 C   0  0  0  0  0  3  0  0  0  0  0  0
  188.3600  176.4980  146.9570 N   0  0  0  0  0  0  0  0  0  0  0  0
  187.5890  176.4860  145.9170 C   0  0  0  0  0  3  0  0  0  0  0  0
  189.6060  175.7490  146.9600 C   0  0  2  0  0  3  0  0  0  0  0  0
  192.0790  174.7580  146.5650 O   0  0  0  0  0  0  0  0  0  0  0  0
  192.0640  176.1680  146.5440 C   0  0  0  0  0  2  0  0  0  0  0  0
  190.7810  176.7030  147.1850 C   0  0  0  0  0  2  0  0  0  0  0  0
  191.1370  174.2620  145.6220 C   0  0  1  0  0  3  0  0  0  0  0  0
  189.7770  174.9840  145.6470 C   0  0  0  0  0  2  0  0  0  0  0  0
  191.6990  174.2450  144.2290 C   0  0  0  0  0  3  0  0  0  0  0  0
  192.4170  173.2300  143.7320 C   0  0  0  0  0  0  0  0  0  0  0  0
  192.9220  173.3270  142.3330 C   0  0  0  0  0  1  0  0  0  0  0  0
  192.0420  170.9050  143.9780 O   0  0  0  0  0  1  0  0  0  0  0  0
  192.7090  171.9980  144.5300 C   0  0  0  0  0  2  0  0  0  0  0  0
  187.4420  177.8810  142.9380 C   0  0  0  0  0  2  0  0  0  0  0  0
  188.0320  177.3400  141.6430 C   0  0  0  0  0  2  0  0  0  0  0  0
  190.0210  176.5540  142.6270 O   0  0  0  0  0  0  0  0  0  0  0  0
  189.0600  176.2820  141.9250 C   0  0  0  0  0  0  0  0  0  0  0  0
  188.2300  174.9110  140.1490 O   0  0  0  0  0  1  0  0  0  0  0  0
  188.9350  174.8980  141.3550 C   0  0  2  0  0  3  0  0  0  0  0  0
  188.2430  173.9800  142.3510 C   0  0  0  0  0  2  0  0  0  0  0  0
  188.9750  172.6880  142.4620 C   0  0  0  0  0  0  0  0  0  0  0  0
  188.9760  171.9930  143.6640 O   0  0  0  0  0  1  0  0  0  0  0  0
  189.6150  172.2390  141.4770 O   0  0  0  0  0  0  0  0  0  0  0  0
  1  7  1  0  0  0  0
  2  6  1  0  0  0  0
  3 23  1  6  0  0  0
  3  8  1  0  0  0  0
  4 11  1  0  0  0  0
  4  5  1  0  0  0  0
  6  8  1  0  0  0  0
  6  1  2  0  0  0  0
  7  5  2  0  0  0  0
  8  4  2  0  0  0  0
  9  3  1  0  0  0  0
  9  2  2  0  0  0  0
 11 10  2  0  0  0  0
 12 10  1  6  0  0  0
 12 15  1  0  0  0  0
 14 13  1  0  0  0  0
 14 15  1  0  0  0  0
 16 18  1  6  0  0  0
 16 17  1  0  0  0  0
 16 13  1  0  0  0  0
 17 12  1  0  0  0  0
 19 18  2  0  0  0  0
 19 22  1  0  0  0  0
 20 19  1  0  0  0  0
 21 22  1  0  0  0  0
 24 26  1  0  0  0  0
 24 23  1  0  0  0  0
 26 25  2  0  0  0  0
 28 27  1  6  0  0  0
 28 26  1  0  0  0  0
 28 29  1  0  0  0  0
 29 30  1  0  0  0  0
 30 31  1  0  0  0  0
 32 30  2  0  0  0  0
M  END
>  <MODEL>
1

>  <REMARK>
 VINA RESULT:      -6.5      0.000      0.000
  Name = 
  10 active torsions:
  status: ('A' for Active; 'I' for Inactive)
    1  A    between atoms: C_3  and  N_24
    2  A    between atoms: C_4  and  C_21
    3  A    between atoms: C_6  and  C_17
    4  A    between atoms: C_6  and  C_18
    5  A    between atoms: C_9  and  C_18
    6  A    between atoms: C_10  and  C_26
    7  A    between atoms: C_14  and  C_28
    8  A    between atoms: C_16  and  C_23
    9  A    between atoms: C_17  and  C_29
   10  A    between atoms: C_21  and  C_29
                            x       y       z     vdW  Elec       q    Type
                         _______ _______ _______ _____ _____    ______ ____

>  <TORSDO>
F 10

$$$$
=
 OpenBabel11062420353D

 32 34  0  0  1  0  0  0  0  0999 V2000
  183.8580  178.8230  145.8910 N   0  0  0  0  0  0  0  0  0  0  0  0
  183.6510  178.6900  143.4480 N   0  0  0  0  0  0  0  0  0  0  0  0
  185.7710  177.5900  143.0570 C   0  0  1  0  0  3  0  0  0  0  0  0
  186.3230  177.5400  145.6100 C   0  0  0  0  0  0  0  0  0  0  0  0
  185.8460  177.9010  146.8830 C   0  0  0  0  0  3  0  0  0  0  0  0
  184.3280  178.4740  144.6660 C   0  0  0  0  0  0  0  0  0  0  0  0
  184.6010  178.5470  147.0010 C   0  0  0  0  0  3  0  0  0  0  0  0
  185.5290  177.8530  144.5020 C   0  0  0  0  0  0  0  0  0  0  0  0
  184.4940  178.1450  142.3830 C   0  0  0  0  0  3  0  0  0  0  0  0
  188.2060  176.2580  146.4150 N   0  0  0  0  0  0  0  0  0  0  0  0
  187.6140  176.8600  145.4350 C   0  0  0  0  0  3  0  0  0  0  0  0
  189.4860  175.5990  146.2110 C   0  0  2  0  0  3  0  0  0  0  0  0
  192.0250  174.7050  146.2920 O   0  0  0  0  0  0  0  0  0  0  0  0
  191.4920  174.9020  147.5820 C   0  0  0  0  0  2  0  0  0  0  0  0
  189.9640  174.9830  147.5280 C   0  0  0  0  0  2  0  0  0  0  0  0
  191.8940  175.9050  145.5390 C   0  0  1  0  0  3  0  0  0  0  0  0
  190.5200  176.5870  145.6720 C   0  0  0  0  0  2  0  0  0  0  0  0
  192.9970  176.8780  145.8440 C   0  0  0  0  0  3  0  0  0  0  0  0
  194.1560  176.9180  145.1740 C   0  0  0  0  0  0  0  0  0  0  0  0
  195.1760  177.9310  145.5690 C   0  0  0  0  0  1  0  0  0  0  0  0
  195.6160  176.3920  143.3860 O   0  0  0  0  0  1  0  0  0  0  0  0
  194.4460  175.9950  144.0330 C   0  0  0  0  0  2  0  0  0  0  0  0
  186.9840  178.3760  142.5800 C   0  0  0  0  0  2  0  0  0  0  0  0
  187.6580  177.6810  141.4060 C   0  0  0  0  0  2  0  0  0  0  0  0
  189.7140  177.3620  142.5080 O   0  0  0  0  0  0  0  0  0  0  0  0
  188.8110  176.8400  141.8730 C   0  0  0  0  0  0  0  0  0  0  0  0
  188.1100  175.0500  140.4490 O   0  0  0  0  0  1  0  0  0  0  0  0
  188.8820  175.3710  141.5680 C   0  0  2  0  0  3  0  0  0  0  0  0
  188.4160  174.5620  142.7690 C   0  0  0  0  0  2  0  0  0  0  0  0
  189.3720  173.4580  143.0560 C   0  0  0  0  0  0  0  0  0  0  0  0
  188.9080  172.1580  143.2030 O   0  0  0  0  0  1  0  0  0  0  0  0
  190.5980  173.7060  143.1940 O   0  0  0  0  0  0  0  0  0  0  0  0
  1  7  1  0  0  0  0
  2  6  1  0  0  0  0
  3 23  1  6  0  0  0
  3  8  1  0  0  0  0
  4  5  1  0  0  0  0
  5  7  2  0  0  0  0
  6  1  2  0  0  0  0
  8  6  1  0  0  0  0
  8  4  2  0  0  0  0
  9  3  1  0  0  0  0
  9  2  2  0  0  0  0
 11  4  1  0  0  0  0
 11 10  2  0  0  0  0
 12 10  1  1  0  0  0
 12 15  1  0  0  0  0
 13 14  1  0  0  0  0
 15 14  1  0  0  0  0
 16 17  1  0  0  0  0
 16 18  1  1  0  0  0
 16 13  1  0  0  0  0
 17 12  1  0  0  0  0
 19 20  1  0  0  0  0
 19 18  2  0  0  0  0
 21 22  1  0  0  0  0
 22 19  1  0  0  0  0
 24 26  1  0  0  0  0
 24 23  1  0  0  0  0
 26 25  2  0  0  0  0
 28 27  1  6  0  0  0
 28 26  1  0  0  0  0
 28 29  1  0  0  0  0
 29 30  1  0  0  0  0
 30 32  2  0  0  0  0
 30 31  1  0  0  0  0
M  END
>  <MODEL>
2

>  <REMARK>
 VINA RESULT:      -6.5      1.572      2.206
  Name = 
  10 active torsions:
  status: ('A' for Active; 'I' for Inactive)
    1  A    between atoms: C_3  and  N_24
    2  A    between atoms: C_4  and  C_21
    3  A    between atoms: C_6  and  C_17
    4  A    between atoms: C_6  and  C_18
    5  A    between atoms: C_9  and  C_18
    6  A    between atoms: C_10  and  C_26
    7  A    between atoms: C_14  and  C_28
    8  A    between atoms: C_16  and  C_23
    9  A    between atoms: C_17  and  C_29
   10  A    between atoms: C_21  and  C_29
                            x       y       z     vdW  Elec       q    Type
                         _______ _______ _______ _____ _____    ______ ____

>  <TORSDO>
F 10

$$$$
=
 OpenBabel11062420353D

 32 34  0  0  1  0  0  0  0  0999 V2000
  183.6880  178.8910  143.8100 N   0  0  0  0  0  0  0  0  0  0  0  0
  184.7580  179.0670  146.0120 N   0  0  0  0  0  0  0  0  0  0  0  0
  186.7330  177.7820  145.4560 C   0  0  1  0  0  3  0  0  0  0  0  0
  185.9130  177.4050  143.0050 C   0  0  0  0  0  0  0  0  0  0  0  0
  184.8660  177.6710  142.1030 C   0  0  0  0  0  3  0  0  0  0  0  0
  184.7010  178.6270  144.6740 C   0  0  0  0  0  0  0  0  0  0  0  0
  183.7540  178.4210  142.5300 C   0  0  0  0  0  3  0  0  0  0  0  0
  185.7940  177.8990  144.3070 C   0  0  0  0  0  0  0  0  0  0  0  0
  186.0220  178.5840  146.5720 C   0  0  0  0  0  3  0  0  0  0  0  0
  187.0250  175.3660  142.3400 N   0  0  0  0  0  0  0  0  0  0  0  0
  187.0950  176.6300  142.6060 C   0  0  0  0  0  3  0  0  0  0  0  0
  188.2150  174.6260  141.9530 C   0  0  2  0  0  3  0  0  0  0  0  0
  190.2920  172.9290  141.7090 O   0  0  0  0  0  0  0  0  0  0  0  0
  189.1210  172.2730  142.1390 C   0  0  0  0  0  2  0  0  0  0  0  0
  187.8860  173.1350  141.8580 C   0  0  0  0  0  2  0  0  0  0  0  0
  190.5740  174.0130  142.5860 C   0  0  1  0  0  3  0  0  0  0  0  0
  189.3460  174.8660  142.9530 C   0  0  0  0  0  2  0  0  0  0  0  0
  191.2880  173.5560  143.8260 C   0  0  0  0  0  3  0  0  0  0  0  0
  192.6210  173.5690  143.9620 C   0  0  0  0  0  0  0  0  0  0  0  0
  193.2150  173.0900  145.2430 C   0  0  0  0  0  1  0  0  0  0  0  0
  194.4950  174.9110  143.4190 O   0  0  0  0  0  1  0  0  0  0  0  0
  193.5250  174.0670  142.8780 C   0  0  0  0  0  2  0  0  0  0  0  0
  186.8630  176.3250  145.8770 C   0  0  0  0  0  2  0  0  0  0  0  0
  187.7200  176.1920  147.1280 C   0  0  0  0  0  2  0  0  0  0  0  0
  189.3200  174.5690  146.5370 O   0  0  0  0  0  0  0  0  0  0  0  0
  189.1110  175.7480  146.7780 C   0  0  0  0  0  0  0  0  0  0  0  0
  190.0500  177.7860  147.6080 O   0  0  0  0  0  1  0  0  0  0  0  0
  190.2530  176.7220  146.7260 C   0  0  2  0  0  3  0  0  0  0  0  0
  190.4300  177.2490  145.3100 C   0  0  0  0  0  2  0  0  0  0  0  0
  191.8290  177.0360  144.8460 C   0  0  0  0  0  0  0  0  0  0  0  0
  192.7990  176.6070  145.7420 O   0  0  0  0  0  1  0  0  0  0  0  0
  192.1390  177.2720  143.6500 O   0  0  0  0  0  0  0  0  0  0  0  0
  1  6  2  0  0  0  0
  2  9  2  0  0  0  0
  3 23  1  1  0  0  0
  3  9  1  0  0  0  0
  4  8  2  0  0  0  0
  5  7  2  0  0  0  0
  5  4  1  0  0  0  0
  6  2  1  0  0  0  0
  7  1  1  0  0  0  0
  8  6  1  0  0  0  0
  8  3  1  0  0  0  0
 10 11  2  0  0  0  0
 11  4  1  0  0  0  0
 12 10  1  1  0  0  0
 12 17  1  0  0  0  0
 13 14  1  0  0  0  0
 13 16  1  0  0  0  0
 15 12  1  0  0  0  0
 15 14  1  0  0  0  0
 16 17  1  0  0  0  0
 16 18  1  1  0  0  0
 18 19  2  0  0  0  0
 19 20  1  0  0  0  0
 22 21  1  0  0  0  0
 22 19  1  0  0  0  0
 23 24  1  0  0  0  0
 25 26  2  0  0  0  0
 26 24  1  0  0  0  0
 28 26  1  0  0  0  0
 28 27  1  1  0  0  0
 29 28  1  0  0  0  0
 30 29  1  0  0  0  0
 30 31  1  0  0  0  0
 32 30  2  0  0  0  0
M  END
>  <MODEL>
3

>  <REMARK>
 VINA RESULT:      -6.5      1.761      4.527
  Name = 
  10 active torsions:
  status: ('A' for Active; 'I' for Inactive)
    1  A    between atoms: C_3  and  N_24
    2  A    between atoms: C_4  and  C_21
    3  A    between atoms: C_6  and  C_17
    4  A    between atoms: C_6  and  C_18
    5  A    between atoms: C_9  and  C_18
    6  A    between atoms: C_10  and  C_26
    7  A    between atoms: C_14  and  C_28
    8  A    between atoms: C_16  and  C_23
    9  A    between atoms: C_17  and  C_29
   10  A    between atoms: C_21  and  C_29
                            x       y       z     vdW  Elec       q    Type
                         _______ _______ _______ _____ _____    ______ ____

>  <TORSDO>
F 10

$$$$
=
 OpenBabel11062420353D

 32 34  0  0  1  0  0  0  0  0999 V2000
  184.6910  178.4980  141.1580 N   0  0  0  0  0  0  0  0  0  0  0  0
  184.2830  179.0070  143.5250 N   0  0  0  0  0  0  0  0  0  0  0  0
  186.2830  177.9440  144.3780 C   0  0  1  0  0  3  0  0  0  0  0  0
  187.0490  177.2460  141.9800 C   0  0  0  0  0  0  0  0  0  0  0  0
  186.7020  177.2930  140.6180 C   0  0  0  0  0  3  0  0  0  0  0  0
  185.0320  178.4460  142.4700 C   0  0  0  0  0  0  0  0  0  0  0  0
  185.5080  177.9290  140.2260 C   0  0  0  0  0  3  0  0  0  0  0  0
  186.1740  177.8360  142.8970 C   0  0  0  0  0  0  0  0  0  0  0  0
  185.0160  178.7430  144.7640 C   0  0  0  0  0  3  0  0  0  0  0  0
  188.8040  175.5960  141.8070 N   0  0  0  0  0  0  0  0  0  0  0  0
  188.2850  176.5980  142.4390 C   0  0  0  0  0  3  0  0  0  0  0  0
  190.0260  174.9730  142.2890 C   0  0  2  0  0  3  0  0  0  0  0  0
  192.1070  174.0180  143.7060 O   0  0  0  0  0  0  0  0  0  0  0  0
  190.8920  173.9030  144.4100 C   0  0  0  0  0  2  0  0  0  0  0  0
  189.7020  174.0370  143.4560 C   0  0  0  0  0  2  0  0  0  0  0  0
  192.2960  175.3690  143.3070 C   0  0  1  0  0  3  0  0  0  0  0  0
  191.0390  176.0350  142.7170 C   0  0  0  0  0  2  0  0  0  0  0  0
  192.8630  176.2050  144.4190 C   0  0  0  0  0  3  0  0  0  0  0  0
  194.1690  176.4680  144.5580 C   0  0  0  0  0  0  0  0  0  0  0  0
  194.6120  177.3120  145.7030 C   0  0  0  0  0  1  0  0  0  0  0  0
  196.3380  176.7450  143.6490 O   0  0  0  0  0  1  0  0  0  0  0  0
  195.1890  175.9570  143.5890 C   0  0  0  0  0  2  0  0  0  0  0  0
  186.2250  176.5600  145.0080 C   0  0  0  0  0  2  0  0  0  0  0  0
  186.3800  176.6400  146.5200 C   0  0  0  0  0  2  0  0  0  0  0  0
  188.0230  178.0370  147.4640 O   0  0  0  0  0  0  0  0  0  0  0  0
  187.7940  176.9820  146.8950 C   0  0  0  0  0  0  0  0  0  0  0  0
  189.0200  175.0230  147.5130 O   0  0  0  0  0  1  0  0  0  0  0  0
  188.9330  176.0560  146.5770 C   0  0  2  0  0  3  0  0  0  0  0  0
  190.2420  176.8290  146.5340 C   0  0  0  0  0  2  0  0  0  0  0  0
  191.1320  176.4090  147.6500 C   0  0  0  0  0  0  0  0  0  0  0  0
  191.2920  177.2300  148.7580 O   0  0  0  0  0  1  0  0  0  0  0  0
  191.7620  175.3220  147.5780 O   0  0  0  0  0  0  0  0  0  0  0  0
  1  6  2  0  0  0  0
  2  9  2  0  0  0  0
  3  9  1  0  0  0  0
  3 23  1  1  0  0  0
  4 11  1  0  0  0  0
  4  8  2  0  0  0  0
  5  4  1  0  0  0  0
  6  8  1  0  0  0  0
  6  2  1  0  0  0  0
  7  5  2  0  0  0  0
  7  1  1  0  0  0  0
  8  3  1  0  0  0  0
 10 11  2  0  0  0  0
 12 10  1  1  0  0  0
 12 17  1  0  0  0  0
 12 15  1  0  0  0  0
 13 14  1  0  0  0  0
 15 14  1  0  0  0  0
 16 13  1  0  0  0  0
 16 18  1  1  0  0  0
 17 16  1  0  0  0  0
 18 19  2  0  0  0  0
 19 20  1  0  0  0  0
 22 21  1  0  0  0  0
 22 19  1  0  0  0  0
 23 24  1  0  0  0  0
 24 26  1  0  0  0  0
 26 25  2  0  0  0  0
 28 26  1  0  0  0  0
 28 27  1  1  0  0  0
 29 28  1  0  0  0  0
 29 30  1  0  0  0  0
 30 31  1  0  0  0  0
 32 30  2  0  0  0  0
M  END
>  <MODEL>
4

>  <REMARK>
 VINA RESULT:      -6.3      2.436      4.849
  Name = 
  10 active torsions:
  status: ('A' for Active; 'I' for Inactive)
    1  A    between atoms: C_3  and  N_24
    2  A    between atoms: C_4  and  C_21
    3  A    between atoms: C_6  and  C_17
    4  A    between atoms: C_6  and  C_18
    5  A    between atoms: C_9  and  C_18
    6  A    between atoms: C_10  and  C_26
    7  A    between atoms: C_14  and  C_28
    8  A    between atoms: C_16  and  C_23
    9  A    between atoms: C_17  and  C_29
   10  A    between atoms: C_21  and  C_29
                            x       y       z     vdW  Elec       q    Type
                         _______ _______ _______ _____ _____    ______ ____

>  <TORSDO>
F 10

$$$$
=
 OpenBabel11062420353D

 32 34  0  0  1  0  0  0  0  0999 V2000
  184.2210  179.0380  145.1700 N   0  0  0  0  0  0  0  0  0  0  0  0
  185.6180  178.7460  147.1680 N   0  0  0  0  0  0  0  0  0  0  0  0
  187.4580  177.6400  146.0510 C   0  0  1  0  0  3  0  0  0  0  0  0
  186.2660  177.7920  143.7320 C   0  0  0  0  0  0  0  0  0  0  0  0
  185.1000  178.2330  143.0800 C   0  0  0  0  0  3  0  0  0  0  0  0
  185.3480  178.6070  145.7910 C   0  0  0  0  0  0  0  0  0  0  0  0
  184.0810  178.8580  143.8250 C   0  0  0  0  0  3  0  0  0  0  0  0
  186.3570  177.9910  145.1120 C   0  0  0  0  0  0  0  0  0  0  0  0
  186.9420  178.1710  147.4090 C   0  0  0  0  0  3  0  0  0  0  0  0
  187.2690  175.9130  142.5920 N   0  0  0  0  0  0  0  0  0  0  0  0
  187.3580  177.1380  142.9980 C   0  0  0  0  0  3  0  0  0  0  0  0
  188.3700  175.2930  141.8730 C   0  0  2  0  0  3  0  0  0  0  0  0
  190.4350  173.7930  141.0130 O   0  0  0  0  0  0  0  0  0  0  0  0
  189.4710  173.0230  141.6960 C   0  0  0  0  0  2  0  0  0  0  0  0
  188.1430  173.7810  141.7880 C   0  0  0  0  0  2  0  0  0  0  0  0
  190.8530  174.8700  141.8430 C   0  0  1  0  0  3  0  0  0  0  0  0
  189.7010  175.6000  142.5590 C   0  0  0  0  0  2  0  0  0  0  0  0
  191.8990  174.4380  142.8310 C   0  0  0  0  0  3  0  0  0  0  0  0
  193.2150  174.5800  142.6270 C   0  0  0  0  0  0  0  0  0  0  0  0
  194.1580  174.1150  143.6840 C   0  0  0  0  0  1  0  0  0  0  0  0
  194.8540  174.4720  140.9210 O   0  0  0  0  0  1  0  0  0  0  0  0
  193.7630  175.2080  141.3840 C   0  0  0  0  0  2  0  0  0  0  0  0
  187.6210  176.1280  146.1220 C   0  0  0  0  0  2  0  0  0  0  0  0
  189.0820  175.7280  145.9690 C   0  0  0  0  0  2  0  0  0  0  0  0
  188.9210  174.4940  147.9670 O   0  0  0  0  0  0  0  0  0  0  0  0
  189.6290  175.1970  147.2620 C   0  0  0  0  0  0  0  0  0  0  0  0
  191.1440  176.8650  148.0660 O   0  0  0  0  0  1  0  0  0  0  0  0
  191.0250  175.5180  147.7130 C   0  0  2  0  0  3  0  0  0  0  0  0
  192.0220  175.1800  146.6150 C   0  0  0  0  0  2  0  0  0  0  0  0
  192.7280  176.4070  146.1560 C   0  0  0  0  0  0  0  0  0  0  0  0
  192.2340  177.1290  145.0770 O   0  0  0  0  0  0  0  0  0  0  0  0
  193.7860  176.7760  146.7260 O   0  0  0  0  0  1  0  0  0  0  0  0
  1  6  2  0  0  0  0
  2  9  2  0  0  0  0
  3 23  1  1  0  0  0
  3  9  1  0  0  0  0
  4  8  2  0  0  0  0
  5  4  1  0  0  0  0
  5  7  2  0  0  0  0
  6  2  1  0  0  0  0
  7  1  1  0  0  0  0
  8  6  1  0  0  0  0
  8  3  1  0  0  0  0
 10 11  2  0  0  0  0
 11  4  1  0  0  0  0
 12 17  1  0  0  0  0
 12 10  1  1  0  0  0
 13 14  1  0  0  0  0
 13 16  1  0  0  0  0
 14 15  1  0  0  0  0
 15 12  1  0  0  0  0
 16 17  1  0  0  0  0
 16 18  1  1  0  0  0
 19 18  2  0  0  0  0
 19 20  1  0  0  0  0
 21 22  1  0  0  0  0
 22 19  1  0  0  0  0
 24 23  1  0  0  0  0
 24 26  1  0  0  0  0
 26 28  1  0  0  0  0
 26 25  2  0  0  0  0
 28 27  1  6  0  0  0
 29 28  1  0  0  0  0
 30 29  1  0  0  0  0
 30 32  1  0  0  0  0
 31 30  2  0  0  0  0
M  END
>  <MODEL>
5

>  <REMARK>
 VINA RESULT:      -6.2      1.974      4.851
  Name = 
  10 active torsions:
  status: ('A' for Active; 'I' for Inactive)
    1  A    between atoms: C_3  and  N_24
    2  A    between atoms: C_4  and  C_21
    3  A    between atoms: C_6  and  C_17
    4  A    between atoms: C_6  and  C_18
    5  A    between atoms: C_9  and  C_18
    6  A    between atoms: C_10  and  C_26
    7  A    between atoms: C_14  and  C_28
    8  A    between atoms: C_16  and  C_23
    9  A    between atoms: C_17  and  C_29
   10  A    between atoms: C_21  and  C_29
                            x       y       z     vdW  Elec       q    Type
                         _______ _______ _______ _____ _____    ______ ____

>  <TORSDO>
F 10

$$$$
=
 OpenBabel11062420353D

 32 34  0  0  1  0  0  0  0  0999 V2000
  185.1640  178.7310  147.4570 N   0  0  0  0  0  0  0  0  0  0  0  0
  183.8520  179.0440  145.4050 N   0  0  0  0  0  0  0  0  0  0  0  0
  185.4470  178.0140  143.9050 C   0  0  1  0  0  3  0  0  0  0  0  0
  187.0970  177.4960  145.8630 C   0  0  0  0  0  0  0  0  0  0  0  0
  187.2900  177.6250  147.2510 C   0  0  0  0  0  3  0  0  0  0  0  0
  184.9870  178.6050  146.1170 C   0  0  0  0  0  0  0  0  0  0  0  0
  186.3030  178.2510  148.0350 C   0  0  0  0  0  3  0  0  0  0  0  0
  185.9180  178.0120  145.3180 C   0  0  0  0  0  0  0  0  0  0  0  0
  184.0610  178.6940  143.9990 C   0  0  0  0  0  3  0  0  0  0  0  0
  189.0440  176.1150  145.4920 N   0  0  0  0  0  0  0  0  0  0  0  0
  188.0950  176.8470  145.0030 C   0  0  0  0  0  3  0  0  0  0  0  0
  190.0210  175.4900  144.6150 C   0  0  2  0  0  3  0  0  0  0  0  0
  191.8990  173.9600  143.4400 O   0  0  0  0  0  0  0  0  0  0  0  0
  190.9970  173.1940  144.2070 C   0  0  0  0  0  2  0  0  0  0  0  0
  189.7240  173.9940  144.4970 C   0  0  0  0  0  2  0  0  0  0  0  0
  192.4610  174.9810  144.2540 C   0  0  1  0  0  3  0  0  0  0  0  0
  191.4390  175.7180  145.1390 C   0  0  0  0  0  2  0  0  0  0  0  0
  193.6040  174.4680  145.0840 C   0  0  0  0  0  3  0  0  0  0  0  0
  194.7310  175.1580  145.3010 C   0  0  0  0  0  0  0  0  0  0  0  0
  195.7960  174.5440  146.1440 C   0  0  0  0  0  1  0  0  0  0  0  0
  194.6910  177.4880  145.7230 O   0  0  0  0  0  1  0  0  0  0  0  0
  194.9430  176.5300  144.7410 C   0  0  0  0  0  2  0  0  0  0  0  0
  186.3750  178.8610  143.0470 C   0  0  0  0  0  2  0  0  0  0  0  0
  186.4860  178.2950  141.6390 C   0  0  0  0  0  2  0  0  0  0  0  0
  188.8190  178.1060  141.8960 O   0  0  0  0  0  0  0  0  0  0  0  0
  187.8040  177.6000  141.4440 C   0  0  0  0  0  0  0  0  0  0  0  0
  186.9860  176.2540  139.6440 O   0  0  0  0  0  1  0  0  0  0  0  0
  187.9000  176.2990  140.6990 C   0  0  2  0  0  3  0  0  0  0  0  0
  187.6610  175.1330  141.6450 C   0  0  0  0  0  2  0  0  0  0  0  0
  188.4690  173.9530  141.2310 C   0  0  0  0  0  0  0  0  0  0  0  0
  188.1620  172.6930  141.7270 O   0  0  0  0  0  1  0  0  0  0  0  0
  189.4480  174.1010  140.4550 O   0  0  0  0  0  0  0  0  0  0  0  0
  1  7  1  0  0  0  0
  2  6  1  0  0  0  0
  3 23  1  6  0  0  0
  3  9  1  0  0  0  0
  3  8  1  0  0  0  0
  4  5  1  0  0  0  0
  5  7  2  0  0  0  0
  6  1  2  0  0  0  0
  8  4  2  0  0  0  0
  8  6  1  0  0  0  0
  9  2  2  0  0  0  0
 11 10  2  0  0  0  0
 11  4  1  0  0  0  0
 12 17  1  0  0  0  0
 12 10  1  1  0  0  0
 13 14  1  0  0  0  0
 13 16  1  0  0  0  0
 14 15  1  0  0  0  0
 15 12  1  0  0  0  0
 16 18  1  1  0  0  0
 16 17  1  0  0  0  0
 18 19  2  0  0  0  0
 19 20  1  0  0  0  0
 22 19  1  0  0  0  0
 22 21  1  0  0  0  0
 24 23  1  0  0  0  0
 26 24  1  0  0  0  0
 26 25  2  0  0  0  0
 28 27  1  6  0  0  0
 28 26  1  0  0  0  0
 28 29  1  0  0  0  0
 30 29  1  0  0  0  0
 30 31  1  0  0  0  0
 32 30  2  0  0  0  0
M  END
>  <MODEL>
6

>  <REMARK>
 VINA RESULT:      -6.1      1.900      2.736
  Name = 
  10 active torsions:
  status: ('A' for Active; 'I' for Inactive)
    1  A    between atoms: C_3  and  N_24
    2  A    between atoms: C_4  and  C_21
    3  A    between atoms: C_6  and  C_17
    4  A    between atoms: C_6  and  C_18
    5  A    between atoms: C_9  and  C_18
    6  A    between atoms: C_10  and  C_26
    7  A    between atoms: C_14  and  C_28
    8  A    between atoms: C_16  and  C_23
    9  A    between atoms: C_17  and  C_29
   10  A    between atoms: C_21  and  C_29
                            x       y       z     vdW  Elec       q    Type
                         _______ _______ _______ _____ _____    ______ ____

>  <TORSDO>
F 10

$$$$
=
 OpenBabel11062420353D

 32 34  0  0  1  0  0  0  0  0999 V2000
  191.2040  172.3060  139.6950 N   0  0  0  0  0  0  0  0  0  0  0  0
  191.6940  171.4800  141.9540 N   0  0  0  0  0  0  0  0  0  0  0  0
  189.9340  172.7050  143.0770 C   0  0  1  0  0  3  0  0  0  0  0  0
  189.1160  173.7700  140.8360 C   0  0  0  0  0  0  0  0  0  0  0  0
  189.3590  173.8310  139.4510 C   0  0  0  0  0  3  0  0  0  0  0  0
  190.9640  172.2550  141.0290 C   0  0  0  0  0  0  0  0  0  0  0  0
  190.4170  173.0850  138.8970 C   0  0  0  0  0  3  0  0  0  0  0  0
  189.9560  172.9650  141.6110 C   0  0  0  0  0  0  0  0  0  0  0  0
  191.0940  171.6990  143.2710 C   0  0  0  0  0  3  0  0  0  0  0  0
  188.0640  175.8140  141.5780 N   0  0  0  0  0  0  0  0  0  0  0  0
  188.0220  174.5250  141.4600 C   0  0  0  0  0  3  0  0  0  0  0  0
  186.9670  176.5320  142.2060 C   0  0  2  0  0  3  0  0  0  0  0  0
  185.3480  178.2710  143.4750 O   0  0  0  0  0  0  0  0  0  0  0  0
  186.2870  178.9260  142.6520 C   0  0  0  0  0  2  0  0  0  0  0  0
  186.8870  177.9500  141.6360 C   0  0  0  0  0  2  0  0  0  0  0  0
  186.0310  177.4070  144.3750 C   0  0  1  0  0  3  0  0  0  0  0  0
  187.1490  176.5720  143.7240 C   0  0  0  0  0  2  0  0  0  0  0  0
  186.5570  178.1500  145.5700 C   0  0  0  0  0  3  0  0  0  0  0  0
  185.8340  178.3900  146.6710 C   0  0  0  0  0  0  0  0  0  0  0  0
  186.4660  179.1380  147.7950 C   0  0  0  0  0  1  0  0  0  0  0  0
  183.5590  178.7750  146.1380 O   0  0  0  0  0  1  0  0  0  0  0  0
  184.4220  177.9130  146.8140 C   0  0  0  0  0  2  0  0  0  0  0  0
  190.2360  173.9870  143.8380 C   0  0  0  0  0  2  0  0  0  0  0  0
  190.1100  173.7740  145.3400 C   0  0  0  0  0  2  0  0  0  0  0  0
  188.7920  175.2050  146.6670 O   0  0  0  0  0  0  0  0  0  0  0  0
  189.8340  175.0720  146.0430 C   0  0  0  0  0  0  0  0  0  0  0  0
  191.2760  176.5400  147.2630 O   0  0  0  0  0  1  0  0  0  0  0  0
  190.8070  176.2150  145.9880 C   0  0  2  0  0  3  0  0  0  0  0  0
  190.1550  177.4310  145.3480 C   0  0  0  0  0  2  0  0  0  0  0  0
  190.8780  177.8160  144.1050 C   0  0  0  0  0  0  0  0  0  0  0  0
  190.1650  178.1280  142.9550 O   0  0  0  0  0  0  0  0  0  0  0  0
  192.1360  177.8320  144.0870 O   0  0  0  0  0  1  0  0  0  0  0  0
  1  6  2  0  0  0  0
  2  9  2  0  0  0  0
  3  9  1  0  0  0  0
  3 23  1  1  0  0  0
  4 11  1  0  0  0  0
  4  8  2  0  0  0  0
  5  4  1  0  0  0  0
  6  8  1  0  0  0  0
  6  2  1  0  0  0  0
  7  5  2  0  0  0  0
  7  1  1  0  0  0  0
  8  3  1  0  0  0  0
 11 10  2  0  0  0  0
 12 10  1  6  0  0  0
 12 17  1  0  0  0  0
 13 16  1  0  0  0  0
 14 13  1  0  0  0  0
 15 12  1  0  0  0  0
 15 14  1  0  0  0  0
 16 18  1  1  0  0  0
 17 16  1  0  0  0  0
 18 19  2  0  0  0  0
 19 22  1  0  0  0  0
 19 20  1  0  0  0  0
 21 22  1  0  0  0  0
 23 24  1  0  0  0  0
 24 26  1  0  0  0  0
 26 25  2  0  0  0  0
 28 26  1  0  0  0  0
 28 27  1  1  0  0  0
 29 28  1  0  0  0  0
 30 29  1  0  0  0  0
 31 30  2  0  0  0  0
 32 30  1  0  0  0  0
M  END
>  <MODEL>
7

>  <REMARK>
 VINA RESULT:      -6.0      3.269      7.601
  Name = 
  10 active torsions:
  status: ('A' for Active; 'I' for Inactive)
    1  A    between atoms: C_3  and  N_24
    2  A    between atoms: C_4  and  C_21
    3  A    between atoms: C_6  and  C_17
    4  A    between atoms: C_6  and  C_18
    5  A    between atoms: C_9  and  C_18
    6  A    between atoms: C_10  and  C_26
    7  A    between atoms: C_14  and  C_28
    8  A    between atoms: C_16  and  C_23
    9  A    between atoms: C_17  and  C_29
   10  A    between atoms: C_21  and  C_29
                            x       y       z     vdW  Elec       q    Type
                         _______ _______ _______ _____ _____    ______ ____

>  <TORSDO>
F 10

$$$$
=
 OpenBabel11062420353D

 32 34  0  0  1  0  0  0  0  0999 V2000
  190.6140  171.4770  140.1810 N   0  0  0  0  0  0  0  0  0  0  0  0
  191.6370  171.7930  142.3900 N   0  0  0  0  0  0  0  0  0  0  0  0
  190.4000  173.7880  142.9790 C   0  0  1  0  0  3  0  0  0  0  0  0
  189.0930  173.7580  140.7170 C   0  0  0  0  0  0  0  0  0  0  0  0
  188.9380  173.0650  139.5020 C   0  0  0  0  0  3  0  0  0  0  0  0
  190.7580  172.1540  141.3490 C   0  0  0  0  0  0  0  0  0  0  0  0
  189.7160  171.9170  139.2530 C   0  0  0  0  0  3  0  0  0  0  0  0
  190.0320  173.2720  141.6310 C   0  0  0  0  0  0  0  0  0  0  0  0
  191.4600  172.7720  143.4640 C   0  0  0  0  0  3  0  0  0  0  0  0
  187.4600  174.9850  142.0080 N   0  0  0  0  0  0  0  0  0  0  0  0
  188.3020  174.9570  141.0250 C   0  0  0  0  0  3  0  0  0  0  0  0
  186.6880  176.1850  142.2840 C   0  0  2  0  0  3  0  0  0  0  0  0
  185.7770  178.6230  142.9760 O   0  0  0  0  0  0  0  0  0  0  0  0
  187.0520  178.6850  142.3770 C   0  0  0  0  0  2  0  0  0  0  0  0
  187.3540  177.3910  141.6170 C   0  0  0  0  0  2  0  0  0  0  0  0
  185.8160  177.7250  144.0770 C   0  0  1  0  0  3  0  0  0  0  0  0
  186.5600  176.4070  143.7920 C   0  0  0  0  0  2  0  0  0  0  0  0
  186.3620  178.3810  145.3130 C   0  0  0  0  0  3  0  0  0  0  0  0
  185.6480  178.5690  146.4300 C   0  0  0  0  0  0  0  0  0  0  0  0
  186.3000  179.2320  147.5950 C   0  0  0  0  0  1  0  0  0  0  0  0
  183.3850  179.0110  145.8890 O   0  0  0  0  0  1  0  0  0  0  0  0
  184.2260  178.1150  146.5500 C   0  0  0  0  0  2  0  0  0  0  0  0
  191.0330  175.1670  142.8540 C   0  0  0  0  0  2  0  0  0  0  0  0
  192.1820  175.3310  143.8380 C   0  0  0  0  0  2  0  0  0  0  0  0
  192.5910  176.4490  145.8700 O   0  0  0  0  0  0  0  0  0  0  0  0
  191.7760  176.1990  144.9940 C   0  0  0  0  0  0  0  0  0  0  0  0
  190.3370  178.0750  144.6310 O   0  0  0  0  0  1  0  0  0  0  0  0
  190.3870  176.7610  145.1020 C   0  0  2  0  0  3  0  0  0  0  0  0
  189.9090  176.7070  146.5440 C   0  0  0  0  0  2  0  0  0  0  0  0
  188.9950  175.5490  146.7460 C   0  0  0  0  0  0  0  0  0  0  0  0
  189.4780  174.2530  146.6200 O   0  0  0  0  0  0  0  0  0  0  0  0
  187.7790  175.7430  147.0040 O   0  0  0  0  0  1  0  0  0  0  0  0
  1  6  2  0  0  0  0
  2  9  2  0  0  0  0
  3 23  1  6  0  0  0
  3  9  1  0  0  0  0
  4 11  1  0  0  0  0
  4  8  2  0  0  0  0
  5  4  1  0  0  0  0
  6  8  1  0  0  0  0
  6  2  1  0  0  0  0
  7  5  2  0  0  0  0
  7  1  1  0  0  0  0
  8  3  1  0  0  0  0
 11 10  2  0  0  0  0
 12 10  1  1  0  0  0
 12 17  1  0  0  0  0
 13 16  1  0  0  0  0
 14 13  1  0  0  0  0
 15 12  1  0  0  0  0
 15 14  1  0  0  0  0
 16 18  1  1  0  0  0
 17 16  1  0  0  0  0
 18 19  2  0  0  0  0
 19 22  1  0  0  0  0
 19 20  1  0  0  0  0
 21 22  1  0  0  0  0
 23 24  1  0  0  0  0
 24 26  1  0  0  0  0
 26 28  1  0  0  0  0
 26 25  2  0  0  0  0
 28 27  1  1  0  0  0
 28 29  1  0  0  0  0
 29 30  1  0  0  0  0
 30 32  1  0  0  0  0
 31 30  2  0  0  0  0
M  END
>  <MODEL>
8

>  <REMARK>
 VINA RESULT:      -5.9      3.216      7.434
  Name = 
  10 active torsions:
  status: ('A' for Active; 'I' for Inactive)
    1  A    between atoms: C_3  and  N_24
    2  A    between atoms: C_4  and  C_21
    3  A    between atoms: C_6  and  C_17
    4  A    between atoms: C_6  and  C_18
    5  A    between atoms: C_9  and  C_18
    6  A    between atoms: C_10  and  C_26
    7  A    between atoms: C_14  and  C_28
    8  A    between atoms: C_16  and  C_23
    9  A    between atoms: C_17  and  C_29
   10  A    between atoms: C_21  and  C_29
                            x       y       z     vdW  Elec       q    Type
                         _______ _______ _______ _____ _____    ______ ____

>  <TORSDO>
F 10

$$$$
=
 OpenBabel11062420353D

 32 34  0  0  1  0  0  0  0  0999 V2000
  196.1790  174.8310  143.7510 N   0  0  0  0  0  0  0  0  0  0  0  0
  194.9870  174.9950  141.6110 N   0  0  0  0  0  0  0  0  0  0  0  0
  192.7780  175.2930  142.5550 C   0  0  1  0  0  3  0  0  0  0  0  0
  193.7030  175.1830  144.9960 C   0  0  0  0  0  0  0  0  0  0  0  0
  194.8730  175.0250  145.7620 C   0  0  0  0  0  3  0  0  0  0  0  0
  195.0460  174.9800  143.0200 C   0  0  0  0  0  0  0  0  0  0  0  0
  196.1100  174.8480  145.1140 C   0  0  0  0  0  3  0  0  0  0  0  0
  193.8260  175.1480  143.6040 C   0  0  0  0  0  0  0  0  0  0  0  0
  193.5870  175.2020  141.2390 C   0  0  0  0  0  3  0  0  0  0  0  0
  191.9240  176.5540  145.8840 N   0  0  0  0  0  0  0  0  0  0  0  0
  192.3900  175.3750  145.6250 C   0  0  0  0  0  3  0  0  0  0  0  0
  190.6220  176.7110  146.5120 C   0  0  2  0  0  3  0  0  0  0  0  0
  188.0400  176.6090  147.2710 O   0  0  0  0  0  0  0  0  0  0  0  0
  188.5290  175.3440  146.8880 C   0  0  0  0  0  2  0  0  0  0  0  0
  190.0600  175.3360  146.8830 C   0  0  0  0  0  2  0  0  0  0  0  0
  188.2620  177.5390  146.2180 C   0  0  1  0  0  3  0  0  0  0  0  0
  189.6610  177.4520  145.5820 C   0  0  0  0  0  2  0  0  0  0  0  0
  187.1970  177.4490  145.1620 C   0  0  0  0  0  3  0  0  0  0  0  0
  186.0350  178.1130  145.2220 C   0  0  0  0  0  0  0  0  0  0  0  0
  185.0550  177.9440  144.1120 C   0  0  0  0  0  1  0  0  0  0  0  0
  185.0340  178.3250  147.3580 O   0  0  0  0  0  1  0  0  0  0  0  0
  185.7020  179.0310  146.3570 C   0  0  0  0  0  2  0  0  0  0  0  0
  191.7980  174.1310  142.6340 C   0  0  0  0  0  2  0  0  0  0  0  0
  190.6760  174.2930  141.6180 C   0  0  0  0  0  2  0  0  0  0  0  0
  189.3310  174.6160  143.5240 O   0  0  0  0  0  0  0  0  0  0  0  0
  189.3610  174.5190  142.3070 C   0  0  0  0  0  0  0  0  0  0  0  0
  188.3260  174.8280  140.1720 O   0  0  0  0  0  1  0  0  0  0  0  0
  188.0780  174.6200  141.5300 C   0  0  2  0  0  3  0  0  0  0  0  0
  187.2180  175.7470  142.0810 C   0  0  0  0  0  2  0  0  0  0  0  0
  187.5620  177.0350  141.4180 C   0  0  0  0  0  0  0  0  0  0  0  0
  186.7630  177.5230  140.3930 O   0  0  0  0  0  0  0  0  0  0  0  0
  188.5920  177.6670  141.7670 O   0  0  0  0  0  1  0  0  0  0  0  0
  1  7  1  0  0  0  0
  2  6  1  0  0  0  0
  3 23  1  6  0  0  0
  3  8  1  0  0  0  0
  4 11  1  0  0  0  0
  4  5  1  0  0  0  0
  6  8  1  0  0  0  0
  6  1  2  0  0  0  0
  7  5  2  0  0  0  0
  8  4  2  0  0  0  0
  9  2  2  0  0  0  0
  9  3  1  0  0  0  0
 11 10  2  0  0  0  0
 12 10  1  6  0  0  0
 12 15  1  0  0  0  0
 14 13  1  0  0  0  0
 15 14  1  0  0  0  0
 16 18  1  6  0  0  0
 16 13  1  0  0  0  0
 17 16  1  0  0  0  0
 17 12  1  0  0  0  0
 18 19  2  0  0  0  0
 19 22  1  0  0  0  0
 20 19  1  0  0  0  0
 22 21  1  0  0  0  0
 24 26  1  0  0  0  0
 24 23  1  0  0  0  0
 26 25  2  0  0  0  0
 28 27  1  6  0  0  0
 28 29  1  0  0  0  0
 28 26  1  0  0  0  0
 30 32  1  0  0  0  0
 30 29  1  0  0  0  0
 31 30  2  0  0  0  0
M  END
>  <MODEL>
9

>  <REMARK>
 VINA RESULT:      -5.9      3.228      7.067
  Name = 
  10 active torsions:
  status: ('A' for Active; 'I' for Inactive)
    1  A    between atoms: C_3  and  N_24
    2  A    between atoms: C_4  and  C_21
    3  A    between atoms: C_6  and  C_17
    4  A    between atoms: C_6  and  C_18
    5  A    between atoms: C_9  and  C_18
    6  A    between atoms: C_10  and  C_26
    7  A    between atoms: C_14  and  C_28
    8  A    between atoms: C_16  and  C_23
    9  A    between atoms: C_17  and  C_29
   10  A    between atoms: C_21  and  C_29
                            x       y       z     vdW  Elec       q    Type
                         _______ _______ _______ _____ _____    ______ ____

>  <TORSDO>
F 10

$$$$
