=
 OpenBabel11062421493D

 48 54  0  0  1  0  0  0  0  0999 V2000
  192.5660  170.6600  141.0430 C   0  0  0  0  0  2  0  0  0  0  0  0
  191.9450  173.2740  142.1720 C   0  0  0  0  0  2  0  0  0  0  0  0
  191.1360  171.0340  141.4330 C   0  0  0  0  0  2  0  0  0  0  0  0
  193.5740  171.4040  141.8220 N   0  0  0  0  0  0  0  0  0  0  0  0
  190.9420  172.5420  141.2960 C   0  0  1  0  0  3  0  0  0  0  0  0
  193.3760  172.8640  141.8060 C   0  0  1  0  0  3  0  0  0  0  0  0
  193.7930  173.4480  140.4650 C   0  0  0  0  0  1  0  0  0  0  0  0
  189.3420  175.7650  144.1200 C   0  0  0  0  0  0  0  0  0  0  0  0
  190.0300  174.4660  143.7920 C   0  0  0  0  0  2  0  0  0  0  0  0
  189.4770  174.2140  142.4320 C   0  0  0  0  0  0  0  0  0  0  0  0
  189.5090  172.9900  141.6050 C   0  0  1  0  0  3  0  0  0  0  0  0
  188.5370  173.3920  140.0990 S   0  0  0  0  0  0  0  0  0  0  0  0
  187.8480  174.9120  140.8540 C   0  0  0  0  0  2  0  0  0  0  0  0
  188.6590  175.1530  142.0690 C   0  0  0  0  0  0  0  0  0  0  0  0
  188.5570  176.1680  143.1130 C   0  0  0  0  0  0  0  0  0  0  0  0
  186.1040  178.2900  141.7540 C   0  0  2  0  0  3  0  0  0  0  0  0
  186.2350  176.9210  143.6710 C   0  0  0  0  0  2  0  0  0  0  0  0
  185.6240  178.2220  140.3830 N   0  0  0  0  0  1  0  0  0  0  0  0
  187.5910  177.3360  143.1280 C   0  0  2  0  0  0  0  0  0  0  0  0
  184.2570  178.1640  143.2480 O   0  0  0  0  0  1  0  0  0  0  0  0
  187.4220  177.8130  141.8120 O   0  0  0  0  0  0  0  0  0  0  0  0
  188.0870  178.3670  143.9340 O   0  0  0  0  0  1  0  0  0  0  0  0
  185.2600  177.4110  142.6410 C   0  0  1  0  0  3  0  0  0  0  0  0
  190.7590  176.1840  145.9740 O   0  0  0  0  0  1  0  0  0  0  0  0
  189.5090  176.4820  145.4290 C   0  0  2  0  0  3  0  0  0  0  0  0
  188.4250  176.1690  146.4210 C   0  0  0  0  0  0  0  0  0  0  0  0
  188.4290  175.0800  147.0580 O   0  0  0  0  0  0  0  0  0  0  0  0
  187.4510  177.1650  146.7210 N   0  0  0  0  0  2  0  0  0  0  0  0
  185.3950  178.0610  147.6400 C   0  0  0  0  0  1  0  0  0  0  0  0
  186.3850  176.9250  147.6770 C   0  0  0  0  0  2  0  0  0  0  0  0
  193.8160  170.9480  143.2020 C   0  0  1  0  0  3  0  0  0  0  0  0
  193.1420  169.6340  143.5860 C   0  0  0  0  0  1  0  0  0  0  0  0
  195.3110  170.8290  143.4290 C   0  0  0  0  0  2  0  0  0  0  0  0
  195.7830  171.8460  144.4630 C   0  0  2  0  0  3  0  0  0  0  0  0
  193.3370  173.6010  145.5850 C   0  0  0  0  0  1  0  0  0  0  0  0
  196.7140  173.3050  142.8170 O   0  0  0  0  0  0  0  0  0  0  0  0
  194.3560  175.8300  146.0190 C   0  0  0  0  0  2  0  0  0  0  0  0
  195.3440  175.7050  143.8650 C   0  0  0  0  0  0  0  0  0  0  0  0
  193.2100  176.9190  144.1170 C   0  0  0  0  0  1  0  0  0  0  0  0
  194.5610  176.6440  144.7410 C   0  0  1  0  0  3  0  0  0  0  0  0
  195.3450  174.3580  144.4060 N   0  0  0  0  0  0  0  0  0  0  0  0
  194.6570  174.3590  145.6910 C   0  0  2  0  0  3  0  0  0  0  0  0
  195.9840  173.1990  143.8380 C   0  0  0  0  0  0  0  0  0  0  0  0
  195.7730  175.9920  142.4410 C   0  0  0  0  0  2  0  0  0  0  0  0
  196.7410  176.2240  143.5980 C   0  0  0  0  0  2  0  0  0  0  0  0
  197.0970  169.8680  145.1980 C   0  0  0  0  0  2  0  0  0  0  0  0
  196.7700  170.6920  146.4200 C   0  0  0  0  0  2  0  0  0  0  0  0
  197.0720  171.3800  145.1020 C   0  0  0  0  0  3  0  0  0  0  0  0
  1  3  1  0  0  0  0
  1  4  1  0  0  0  0
  4 31  1  0  0  0  0
  5  3  1  1  0  0  0
  5 11  1  0  0  0  0
  5  2  1  0  0  0  0
  6  7  1  6  0  0  0
  6  4  1  0  0  0  0
  6  2  1  0  0  0  0
  8 25  1  0  0  0  0
  9  8  1  0  0  0  0
 10  9  1  0  0  0  0
 11 12  1  6  0  0  0
 11 10  1  0  0  0  0
 12 13  1  0  0  0  0
 13 14  1  0  0  0  0
 14 10  2  0  0  0  0
 14 15  1  0  0  0  0
 15 19  1  0  0  0  0
 15  8  2  0  0  0  0
 16 18  1  6  0  0  0
 16 21  1  0  0  0  0
 16 23  1  0  0  0  0
 19 17  1  0  0  0  0
 19 22  1  1  0  0  0
 21 19  1  0  0  0  0
 23 20  1  1  0  0  0
 23 17  1  0  0  0  0
 25 24  1  1  0  0  0
 25 26  1  0  0  0  0
 26 28  1  0  0  0  0
 26 27  2  0  0  0  0
 28 30  1  0  0  0  0
 29 30  1  0  0  0  0
 31 33  1  0  0  0  0
 31 32  1  6  0  0  0
 34 33  1  6  0  0  0
 34 48  1  0  0  0  0
 36 43  2  0  0  0  0
 38 41  1  0  0  0  0
 38 40  1  0  0  0  0
 40 39  1  6  0  0  0
 40 37  1  0  0  0  0
 41 42  1  0  0  0  0
 42 35  1  6  0  0  0
 42 37  1  0  0  0  0
 43 41  1  0  0  0  0
 43 34  1  0  0  0  0
 44 45  1  0  0  0  0
 44 38  1  0  0  0  0
 45 38  1  0  0  0  0
 46 47  1  0  0  0  0
 48 46  1  0  0  0  0
 48 47  1  0  0  0  0
M  END
>  <MODEL>
1

>  <REMARK>
 VINA RESULT:      -7.6      0.000      0.000
  Name = 
  10 active torsions:
  status: ('A' for Active; 'I' for Inactive)
    1  A    between atoms: C_3  and  C_29
    2  A    between atoms: C_3  and  N_31
    3  A    between atoms: C_5  and  C_25
    4  A    between atoms: C_9  and  C_33
    5  A    between atoms: C_17  and  C_25
    6  A    between atoms: C_18  and  C_29
    7  A    between atoms: C_18  and  C_38
    8  A    between atoms: C_18  and  C_47
    9  A    between atoms: N_21  and  C_30
   10  A    between atoms: C_32  and  C_42
                            x       y       z     vdW  Elec       q    Type
                         _______ _______ _______ _____ _____    ______ ____

>  <TORSDO>
F 10

$$$$
=
 OpenBabel11062421493D

 48 54  0  0  1  0  0  0  0  0999 V2000
  192.4300  171.2150  140.5470 C   0  0  0  0  0  2  0  0  0  0  0  0
  191.9950  173.3270  142.5060 C   0  0  0  0  0  2  0  0  0  0  0  0
  191.1100  171.3260  141.3100 C   0  0  0  0  0  2  0  0  0  0  0  0
  193.5620  171.7960  141.2930 N   0  0  0  0  0  0  0  0  0  0  0  0
  190.8460  172.7850  141.6720 C   0  0  1  0  0  3  0  0  0  0  0  0
  193.3230  173.1740  141.7550 C   0  0  1  0  0  3  0  0  0  0  0  0
  193.4170  174.1540  140.5950 C   0  0  0  0  0  1  0  0  0  0  0  0
  189.1020  176.4320  143.8120 C   0  0  0  0  0  0  0  0  0  0  0  0
  190.0780  175.2990  143.6340 C   0  0  0  0  0  2  0  0  0  0  0  0
  189.2810  174.4030  142.7510 C   0  0  0  0  0  0  0  0  0  0  0  0
  189.5040  172.9910  142.3820 C   0  0  1  0  0  3  0  0  0  0  0  0
  188.0600  172.5230  141.3470 S   0  0  0  0  0  0  0  0  0  0  0  0
  187.1280  174.0240  141.8300 C   0  0  0  0  0  2  0  0  0  0  0  0
  188.1160  174.9080  142.4870 C   0  0  0  0  0  0  0  0  0  0  0  0
  187.9690  176.2080  143.1340 C   0  0  0  0  0  0  0  0  0  0  0  0
  185.2310  177.7400  144.7250 C   0  0  2  0  0  3  0  0  0  0  0  0
  187.0150  178.5110  143.3860 C   0  0  0  0  0  2  0  0  0  0  0  0
  184.9000  177.5790  146.1320 N   0  0  0  0  0  1  0  0  0  0  0  0
  186.7000  177.0370  143.1900 C   0  0  2  0  0  0  0  0  0  0  0  0
  185.4150  180.0560  144.2140 O   0  0  0  0  0  1  0  0  0  0  0  0
  185.9070  176.5980  144.2700 O   0  0  0  0  0  0  0  0  0  0  0  0
  185.9780  176.9000  141.9990 O   0  0  0  0  0  1  0  0  0  0  0  0
  186.1510  178.9200  144.5420 C   0  0  1  0  0  3  0  0  0  0  0  0
  190.5010  178.3080  144.1910 O   0  0  0  0  0  1  0  0  0  0  0  0
  189.3760  177.6350  144.6690 C   0  0  2  0  0  3  0  0  0  0  0  0
  189.5520  177.3010  146.1230 C   0  0  0  0  0  0  0  0  0  0  0  0
  188.5520  177.0710  146.8570 O   0  0  0  0  0  0  0  0  0  0  0  0
  190.8680  177.1330  146.6410 N   0  0  0  0  0  2  0  0  0  0  0  0
  191.3040  175.3140  148.1830 C   0  0  0  0  0  1  0  0  0  0  0  0
  191.1020  176.8010  148.0350 C   0  0  0  0  0  2  0  0  0  0  0  0
  194.1140  170.9890  142.3960 C   0  0  1  0  0  3  0  0  0  0  0  0
  193.6750  169.5290  142.4240 C   0  0  0  0  0  1  0  0  0  0  0  0
  195.6300  171.0560  142.3470 C   0  0  0  0  0  2  0  0  0  0  0  0
  196.1730  171.8670  143.5180 C   0  0  2  0  0  3  0  0  0  0  0  0
  193.9970  173.2410  145.4410 C   0  0  0  0  0  1  0  0  0  0  0  0
  196.7640  173.6800  142.0800 O   0  0  0  0  0  0  0  0  0  0  0  0
  195.0840  175.3670  146.1430 C   0  0  0  0  0  2  0  0  0  0  0  0
  195.6290  175.7430  143.8650 C   0  0  0  0  0  0  0  0  0  0  0  0
  193.5880  176.7870  144.7780 C   0  0  0  0  0  1  0  0  0  0  0  0
  195.0340  176.4420  145.0570 C   0  0  1  0  0  3  0  0  0  0  0  0
  195.7350  174.3140  144.0910 N   0  0  0  0  0  0  0  0  0  0  0  0
  195.3120  174.0130  145.4540 C   0  0  2  0  0  3  0  0  0  0  0  0
  196.2490  173.3290  143.1740 C   0  0  0  0  0  0  0  0  0  0  0  0
  195.7710  176.3440  142.4820 C   0  0  0  0  0  2  0  0  0  0  0  0
  196.9480  176.3650  143.4540 C   0  0  0  0  0  2  0  0  0  0  0  0
  197.5020  169.8670  144.1600 C   0  0  0  0  0  2  0  0  0  0  0  0
  197.5000  170.8220  145.3290 C   0  0  0  0  0  2  0  0  0  0  0  0
  197.5430  171.3610  143.9120 C   0  0  0  0  0  3  0  0  0  0  0  0
  1  4  1  0  0  0  0
  1  3  1  0  0  0  0
  4  6  1  0  0  0  0
  4 31  1  0  0  0  0
  5  3  1  1  0  0  0
  5 11  1  0  0  0  0
  5  2  1  0  0  0  0
  6  7  1  6  0  0  0
  6  2  1  0  0  0  0
  8 25  1  0  0  0  0
  9  8  1  0  0  0  0
 10  9  1  0  0  0  0
 11 12  1  6  0  0  0
 11 10  1  0  0  0  0
 12 13  1  0  0  0  0
 13 14  1  0  0  0  0
 14 10  2  0  0  0  0
 14 15  1  0  0  0  0
 15 19  1  0  0  0  0
 15  8  2  0  0  0  0
 16 18  1  1  0  0  0
 17 23  1  0  0  0  0
 19 22  1  6  0  0  0
 19 17  1  0  0  0  0
 19 21  1  0  0  0  0
 21 16  1  0  0  0  0
 23 20  1  6  0  0  0
 23 16  1  0  0  0  0
 25 24  1  6  0  0  0
 25 26  1  0  0  0  0
 26 28  1  0  0  0  0
 26 27  2  0  0  0  0
 28 30  1  0  0  0  0
 30 29  1  0  0  0  0
 31 32  1  6  0  0  0
 33 31  1  0  0  0  0
 34 33  1  6  0  0  0
 34 48  1  0  0  0  0
 36 43  2  0  0  0  0
 38 41  1  0  0  0  0
 38 40  1  0  0  0  0
 40 39  1  6  0  0  0
 40 37  1  0  0  0  0
 41 42  1  0  0  0  0
 42 35  1  6  0  0  0
 42 37  1  0  0  0  0
 43 34  1  0  0  0  0
 43 41  1  0  0  0  0
 44 45  1  0  0  0  0
 44 38  1  0  0  0  0
 45 38  1  0  0  0  0
 46 47  1  0  0  0  0
 48 46  1  0  0  0  0
 48 47  1  0  0  0  0
M  END
>  <MODEL>
2

>  <REMARK>
 VINA RESULT:      -7.6      1.578      2.030
  Name = 
  10 active torsions:
  status: ('A' for Active; 'I' for Inactive)
    1  A    between atoms: C_3  and  C_29
    2  A    between atoms: C_3  and  N_31
    3  A    between atoms: C_5  and  C_25
    4  A    between atoms: C_9  and  C_33
    5  A    between atoms: C_17  and  C_25
    6  A    between atoms: C_18  and  C_29
    7  A    between atoms: C_18  and  C_38
    8  A    between atoms: C_18  and  C_47
    9  A    between atoms: N_21  and  C_30
   10  A    between atoms: C_32  and  C_42
                            x       y       z     vdW  Elec       q    Type
                         _______ _______ _______ _____ _____    ______ ____

>  <TORSDO>
F 10

$$$$
=
 OpenBabel11062421493D

 48 54  0  0  1  0  0  0  0  0999 V2000
  193.1920  175.1030  146.4350 C   0  0  0  0  0  2  0  0  0  0  0  0
  194.2030  176.3280  143.9910 C   0  0  0  0  0  2  0  0  0  0  0  0
  193.5710  174.2530  145.2210 C   0  0  0  0  0  2  0  0  0  0  0  0
  192.7980  176.4740  146.0600 N   0  0  0  0  0  0  0  0  0  0  0  0
  194.6730  174.9500  144.4280 C   0  0  1  0  0  3  0  0  0  0  0  0
  193.7830  177.1620  145.2080 C   0  0  1  0  0  3  0  0  0  0  0  0
  194.9920  177.5940  146.0250 C   0  0  0  0  0  1  0  0  0  0  0  0
  192.6040  173.8560  140.4980 C   0  0  0  0  0  0  0  0  0  0  0  0
  192.7910  173.8170  141.9920 C   0  0  0  0  0  2  0  0  0  0  0  0
  194.2240  174.2090  142.0870 C   0  0  0  0  0  0  0  0  0  0  0  0
  195.1570  174.1280  143.2290 C   0  0  1  0  0  3  0  0  0  0  0  0
  196.7800  174.6900  142.5760 S   0  0  0  0  0  0  0  0  0  0  0  0
  196.2090  174.5720  140.8390 C   0  0  0  0  0  2  0  0  0  0  0  0
  194.7390  174.4200  140.9150 C   0  0  0  0  0  0  0  0  0  0  0  0
  193.7330  174.2190  139.8760 C   0  0  0  0  0  0  0  0  0  0  0  0
  195.6280  174.7740  136.9660 C   0  0  2  0  0  3  0  0  0  0  0  0
  194.5650  172.8950  137.9190 C   0  0  0  0  0  2  0  0  0  0  0  0
  196.9390  175.4040  136.9440 N   0  0  0  0  0  1  0  0  0  0  0  0
  193.9850  174.2220  138.3810 C   0  0  2  0  0  0  0  0  0  0  0  0
  195.7450  172.6640  135.8730 O   0  0  0  0  0  1  0  0  0  0  0  0
  194.9010  175.2470  138.0680 O   0  0  0  0  0  0  0  0  0  0  0  0
  192.7900  174.4400  137.6870 O   0  0  0  0  0  1  0  0  0  0  0  0
  195.7750  173.2820  137.1210 C   0  0  1  0  0  3  0  0  0  0  0  0
  190.2510  174.1390  140.4530 O   0  0  0  0  0  1  0  0  0  0  0  0
  191.3150  173.5000  139.8140 C   0  0  2  0  0  3  0  0  0  0  0  0
  191.0660  172.0200  139.7500 C   0  0  0  0  0  0  0  0  0  0  0  0
  190.5290  171.4140  140.7180 O   0  0  0  0  0  0  0  0  0  0  0  0
  191.3350  171.3240  138.5370 N   0  0  0  0  0  2  0  0  0  0  0  0
  189.7880  169.6460  137.7200 C   0  0  0  0  0  1  0  0  0  0  0  0
  191.1050  169.8960  138.4100 C   0  0  0  0  0  2  0  0  0  0  0  0
  191.4460  176.6460  145.4980 C   0  0  1  0  0  3  0  0  0  0  0  0
  191.3700  176.7010  143.9760 C   0  0  0  0  0  1  0  0  0  0  0  0
  190.5550  175.5270  146.0040 C   0  0  0  0  0  2  0  0  0  0  0  0
  189.3070  175.3960  145.1370 C   0  0  2  0  0  3  0  0  0  0  0  0
  188.1580  177.2860  142.8070 C   0  0  0  0  0  1  0  0  0  0  0  0
  188.0450  176.1310  147.0260 O   0  0  0  0  0  0  0  0  0  0  0  0
  185.6890  177.1150  143.0690 C   0  0  0  0  0  2  0  0  0  0  0  0
  185.9930  177.4910  145.3920 C   0  0  0  0  0  0  0  0  0  0  0  0
  185.4470  179.4160  143.9470 C   0  0  0  0  0  1  0  0  0  0  0  0
  185.1590  177.9570  144.2300 C   0  0  1  0  0  3  0  0  0  0  0  0
  187.1210  176.6950  144.9440 N   0  0  0  0  0  0  0  0  0  0  0  0
  187.0370  176.5180  143.4990 C   0  0  2  0  0  3  0  0  0  0  0  0
  188.1330  176.0880  145.7700 C   0  0  0  0  0  0  0  0  0  0  0  0
  185.9170  178.0460  146.7990 C   0  0  0  0  0  2  0  0  0  0  0  0
  185.1540  176.7760  146.4310 C   0  0  0  0  0  2  0  0  0  0  0  0
  190.2520  173.1400  144.6930 C   0  0  0  0  0  2  0  0  0  0  0  0
  189.4030  173.5320  143.5090 C   0  0  0  0  0  2  0  0  0  0  0  0
  188.9820  173.9370  144.9090 C   0  0  0  0  0  3  0  0  0  0  0  0
  2  6  1  0  0  0  0
  3  1  1  0  0  0  0
  4  1  1  0  0  0  0
  5  2  1  6  0  0  0
  5  3  1  0  0  0  0
  6  7  1  1  0  0  0
  6  4  1  0  0  0  0
  8  9  1  0  0  0  0
  9 10  1  0  0  0  0
 11 10  1  6  0  0  0
 11  5  1  0  0  0  0
 12 11  1  0  0  0  0
 13 14  1  0  0  0  0
 13 12  1  0  0  0  0
 14 10  2  0  0  0  0
 15  8  2  0  0  0  0
 15 14  1  0  0  0  0
 16 18  1  1  0  0  0
 16 23  1  0  0  0  0
 16 21  1  0  0  0  0
 17 19  1  0  0  0  0
 19 22  1  6  0  0  0
 19 15  1  0  0  0  0
 21 19  1  0  0  0  0
 23 20  1  6  0  0  0
 23 17  1  0  0  0  0
 25 24  1  1  0  0  0
 25  8  1  0  0  0  0
 26 25  1  0  0  0  0
 26 27  2  0  0  0  0
 28 26  1  0  0  0  0
 29 30  1  0  0  0  0
 30 28  1  0  0  0  0
 31 32  1  6  0  0  0
 31 33  1  0  0  0  0
 31  4  1  0  0  0  0
 34 43  1  0  0  0  0
 34 33  1  1  0  0  0
 37 42  1  0  0  0  0
 37 40  1  0  0  0  0
 38 45  1  0  0  0  0
 38 44  1  0  0  0  0
 40 39  1  6  0  0  0
 40 38  1  0  0  0  0
 41 38  1  0  0  0  0
 41 43  1  0  0  0  0
 42 35  1  6  0  0  0
 42 41  1  0  0  0  0
 43 36  2  0  0  0  0
 45 44  1  0  0  0  0
 46 48  1  0  0  0  0
 47 46  1  0  0  0  0
 47 48  1  0  0  0  0
 48 34  1  0  0  0  0
M  END
>  <MODEL>
3

>  <REMARK>
 VINA RESULT:      -7.3      3.194      8.661
  Name = 
  10 active torsions:
  status: ('A' for Active; 'I' for Inactive)
    1  A    between atoms: C_3  and  C_29
    2  A    between atoms: C_3  and  N_31
    3  A    between atoms: C_5  and  C_25
    4  A    between atoms: C_9  and  C_33
    5  A    between atoms: C_17  and  C_25
    6  A    between atoms: C_18  and  C_29
    7  A    between atoms: C_18  and  C_38
    8  A    between atoms: C_18  and  C_47
    9  A    between atoms: N_21  and  C_30
   10  A    between atoms: C_32  and  C_42
                            x       y       z     vdW  Elec       q    Type
                         _______ _______ _______ _____ _____    ______ ____

>  <TORSDO>
F 10

$$$$
=
 OpenBabel11062421493D

 48 54  0  0  1  0  0  0  0  0999 V2000
  193.4390  172.8300  143.3610 C   0  0  0  0  0  2  0  0  0  0  0  0
  191.3320  171.2600  142.1010 C   0  0  0  0  0  2  0  0  0  0  0  0
  192.0340  173.4020  143.1680 C   0  0  0  0  0  2  0  0  0  0  0  0
  193.7650  171.7910  142.3650 N   0  0  0  0  0  0  0  0  0  0  0  0
  191.0100  172.2690  143.1910 C   0  0  1  0  0  3  0  0  0  0  0  0
  192.7580  170.7210  142.2730 C   0  0  1  0  0  3  0  0  0  0  0  0
  192.8550  169.7870  143.4700 C   0  0  0  0  0  1  0  0  0  0  0  0
  189.0020  176.0710  144.7510 C   0  0  0  0  0  0  0  0  0  0  0  0
  189.6840  174.7360  144.8980 C   0  0  0  0  0  2  0  0  0  0  0  0
  189.4170  174.1560  143.5530 C   0  0  0  0  0  0  0  0  0  0  0  0
  189.5660  172.7680  143.0710 C   0  0  1  0  0  3  0  0  0  0  0  0
  188.9490  172.7830  141.3400 S   0  0  0  0  0  0  0  0  0  0  0  0
  188.1860  174.4350  141.5440 C   0  0  0  0  0  2  0  0  0  0  0  0
  188.7350  174.9720  142.8090 C   0  0  0  0  0  0  0  0  0  0  0  0
  188.4630  176.2100  143.5330 C   0  0  0  0  0  0  0  0  0  0  0  0
  186.4600  177.9260  141.2070 C   0  0  2  0  0  3  0  0  0  0  0  0
  186.1090  177.0500  143.3690 C   0  0  0  0  0  2  0  0  0  0  0  0
  186.2890  177.5320  139.8170 N   0  0  0  0  0  1  0  0  0  0  0  0
  187.5680  177.3390  143.0600 C   0  0  2  0  0  0  0  0  0  0  0  0
  184.3270  178.1380  142.2400 O   0  0  0  0  0  1  0  0  0  0  0  0
  187.7110  177.4900  141.6650 O   0  0  0  0  0  0  0  0  0  0  0  0
  187.9200  178.5360  143.6940 O   0  0  0  0  0  1  0  0  0  0  0  0
  185.4060  177.2730  142.0630 C   0  0  1  0  0  3  0  0  0  0  0  0
  190.0620  177.0020  146.6560 O   0  0  0  0  0  1  0  0  0  0  0  0
  188.9230  177.0870  145.8530 C   0  0  2  0  0  3  0  0  0  0  0  0
  187.6870  176.9550  146.6960 C   0  0  0  0  0  0  0  0  0  0  0  0
  187.4460  175.8880  147.3260 O   0  0  0  0  0  0  0  0  0  0  0  0
  186.8430  178.0900  146.8720 N   0  0  0  0  0  2  0  0  0  0  0  0
  184.4270  178.2750  146.8230 C   0  0  0  0  0  1  0  0  0  0  0  0
  185.6400  178.0270  147.6830 C   0  0  0  0  0  2  0  0  0  0  0  0
  194.1240  172.2570  141.0140 C   0  0  1  0  0  3  0  0  0  0  0  0
  195.2340  173.3020  140.9530 C   0  0  0  0  0  1  0  0  0  0  0  0
  194.5140  171.0610  140.1660 C   0  0  0  0  0  2  0  0  0  0  0  0
  194.1310  171.2850  138.7070 C   0  0  2  0  0  3  0  0  0  0  0  0
  192.5600  174.0090  138.0460 C   0  0  0  0  0  1  0  0  0  0  0  0
  192.3380  169.7150  138.8620 O   0  0  0  0  0  0  0  0  0  0  0  0
  191.0160  173.3700  136.2020 C   0  0  0  0  0  2  0  0  0  0  0  0
  190.4000  171.4720  137.4870 C   0  0  0  0  0  0  0  0  0  0  0  0
  188.9910  173.4940  137.6190 C   0  0  0  0  0  1  0  0  0  0  0  0
  189.7920  172.5990  136.6980 C   0  0  1  0  0  3  0  0  0  0  0  0
  191.8140  171.6990  137.7240 N   0  0  0  0  0  0  0  0  0  0  0  0
  192.2240  172.9170  137.0350 C   0  0  2  0  0  3  0  0  0  0  0  0
  192.7180  170.8410  138.4450 C   0  0  0  0  0  0  0  0  0  0  0  0
  189.6220  170.4230  138.2520 C   0  0  0  0  0  2  0  0  0  0  0  0
  190.1280  170.1290  136.8420 C   0  0  0  0  0  2  0  0  0  0  0  0
  196.5030  171.0100  138.0170 C   0  0  0  0  0  2  0  0  0  0  0  0
  195.7240  171.5060  136.8230 C   0  0  0  0  0  2  0  0  0  0  0  0
  195.0810  170.5380  137.7980 C   0  0  0  0  0  3  0  0  0  0  0  0
  2  6  1  0  0  0  0
  3  5  1  0  0  0  0
  3  1  1  0  0  0  0
  4  1  1  0  0  0  0
  5  2  1  6  0  0  0
  6  4  1  0  0  0  0
  6  7  1  1  0  0  0
  8  9  1  0  0  0  0
  8 25  1  0  0  0  0
 10  9  1  0  0  0  0
 11 12  1  6  0  0  0
 11  5  1  0  0  0  0
 11 10  1  0  0  0  0
 12 13  1  0  0  0  0
 13 14  1  0  0  0  0
 14 15  1  0  0  0  0
 14 10  2  0  0  0  0
 15  8  2  0  0  0  0
 16 18  1  6  0  0  0
 16 21  1  0  0  0  0
 16 23  1  0  0  0  0
 19 17  1  0  0  0  0
 19 15  1  0  0  0  0
 19 22  1  1  0  0  0
 21 19  1  0  0  0  0
 23 20  1  1  0  0  0
 23 17  1  0  0  0  0
 25 24  1  1  0  0  0
 25 26  1  0  0  0  0
 26 28  1  0  0  0  0
 26 27  2  0  0  0  0
 28 30  1  0  0  0  0
 29 30  1  0  0  0  0
 31 32  1  1  0  0  0
 31  4  1  0  0  0  0
 33 31  1  0  0  0  0
 34 33  1  1  0  0  0
 37 40  1  0  0  0  0
 37 42  1  0  0  0  0
 38 41  1  0  0  0  0
 38 44  1  0  0  0  0
 40 38  1  0  0  0  0
 40 39  1  1  0  0  0
 41 43  1  0  0  0  0
 42 41  1  0  0  0  0
 42 35  1  1  0  0  0
 43 34  1  0  0  0  0
 43 36  2  0  0  0  0
 45 38  1  0  0  0  0
 45 44  1  0  0  0  0
 47 48  1  0  0  0  0
 47 46  1  0  0  0  0
 48 46  1  0  0  0  0
 48 34  1  0  0  0  0
M  END
>  <MODEL>
4

>  <REMARK>
 VINA RESULT:      -7.3      2.555      5.097
  Name = 
  10 active torsions:
  status: ('A' for Active; 'I' for Inactive)
    1  A    between atoms: C_3  and  C_29
    2  A    between atoms: C_3  and  N_31
    3  A    between atoms: C_5  and  C_25
    4  A    between atoms: C_9  and  C_33
    5  A    between atoms: C_17  and  C_25
    6  A    between atoms: C_18  and  C_29
    7  A    between atoms: C_18  and  C_38
    8  A    between atoms: C_18  and  C_47
    9  A    between atoms: N_21  and  C_30
   10  A    between atoms: C_32  and  C_42
                            x       y       z     vdW  Elec       q    Type
                         _______ _______ _______ _____ _____    ______ ____

>  <TORSDO>
F 10

$$$$
=
 OpenBabel11062421493D

 48 54  0  0  1  0  0  0  0  0999 V2000
  194.3950  174.9340  146.4470 C   0  0  0  0  0  2  0  0  0  0  0  0
  193.7020  176.3740  144.0100 C   0  0  0  0  0  2  0  0  0  0  0  0
  194.4890  174.2610  145.0770 C   0  0  0  0  0  2  0  0  0  0  0  0
  193.4010  176.0230  146.4720 N   0  0  0  0  0  0  0  0  0  0  0  0
  194.7880  175.3100  144.0080 C   0  0  1  0  0  3  0  0  0  0  0  0
  193.5810  177.0150  145.3980 C   0  0  1  0  0  3  0  0  0  0  0  0
  194.7690  177.9180  145.6940 C   0  0  0  0  0  1  0  0  0  0  0  0
  192.6530  171.8310  141.9450 C   0  0  0  0  0  0  0  0  0  0  0  0
  193.5490  172.4500  142.9850 C   0  0  0  0  0  2  0  0  0  0  0  0
  193.9110  173.7200  142.2960 C   0  0  0  0  0  0  0  0  0  0  0  0
  194.9650  174.7050  142.6120 C   0  0  1  0  0  3  0  0  0  0  0  0
  194.8840  175.9560  141.2680 S   0  0  0  0  0  0  0  0  0  0  0  0
  193.8140  174.8880  140.2330 C   0  0  0  0  0  2  0  0  0  0  0  0
  193.3510  173.8050  141.1290 C   0  0  0  0  0  0  0  0  0  0  0  0
  192.5300  172.6250  140.8740 C   0  0  0  0  0  0  0  0  0  0  0  0
  189.7820  172.3450  138.6980 C   0  0  2  0  0  3  0  0  0  0  0  0
  191.8550  173.4680  138.6140 C   0  0  0  0  0  2  0  0  0  0  0  0
  188.4010  172.6070  139.0750 N   0  0  0  0  0  1  0  0  0  0  0  0
  191.8430  172.2840  139.5660 C   0  0  2  0  0  0  0  0  0  0  0  0
  190.3440  173.6540  136.7930 O   0  0  0  0  0  1  0  0  0  0  0  0
  190.5030  171.9290  139.8250 O   0  0  0  0  0  0  0  0  0  0  0  0
  192.4930  171.2150  138.9400 O   0  0  0  0  0  1  0  0  0  0  0  0
  190.4240  173.6070  138.1830 C   0  0  1  0  0  3  0  0  0  0  0  0
  190.7880  170.6110  142.7520 O   0  0  0  0  0  1  0  0  0  0  0  0
  192.0150  170.4800  142.0990 C   0  0  2  0  0  3  0  0  0  0  0  0
  192.8830  169.4920  142.8240 C   0  0  0  0  0  0  0  0  0  0  0  0
  193.8380  168.9170  142.2330 O   0  0  0  0  0  0  0  0  0  0  0  0
  192.6910  169.2950  144.2220 N   0  0  0  0  0  2  0  0  0  0  0  0
  194.5630  169.1090  145.7510 C   0  0  0  0  0  1  0  0  0  0  0  0
  193.5060  168.3610  144.9790 C   0  0  0  0  0  2  0  0  0  0  0  0
  191.9840  175.6270  146.5520 C   0  0  1  0  0  3  0  0  0  0  0  0
  191.4720  175.2990  147.9520 C   0  0  0  0  0  1  0  0  0  0  0  0
  191.1280  176.7250  145.9510 C   0  0  0  0  0  2  0  0  0  0  0  0
  189.9430  176.1350  145.1930 C   0  0  2  0  0  3  0  0  0  0  0  0
  188.6430  177.9140  142.8550 C   0  0  0  0  0  1  0  0  0  0  0  0
  188.4750  176.5850  147.0210 O   0  0  0  0  0  0  0  0  0  0  0  0
  186.2210  177.3470  142.9570 C   0  0  0  0  0  2  0  0  0  0  0  0
  186.3290  177.6710  145.3050 C   0  0  0  0  0  0  0  0  0  0  0  0
  185.5670  179.5430  143.8890 C   0  0  0  0  0  1  0  0  0  0  0  0
  185.4990  178.0480  144.1080 C   0  0  1  0  0  3  0  0  0  0  0  0
  187.5930  177.0800  144.9040 N   0  0  0  0  0  0  0  0  0  0  0  0
  187.6200  176.9510  143.4520 C   0  0  2  0  0  3  0  0  0  0  0  0
  188.6400  176.6080  145.7730 C   0  0  0  0  0  0  0  0  0  0  0  0
  186.0860  178.1500  146.7210 C   0  0  0  0  0  2  0  0  0  0  0  0
  185.5560  176.7920  146.2660 C   0  0  0  0  0  2  0  0  0  0  0  0
  190.8230  174.1000  144.0660 C   0  0  0  0  0  2  0  0  0  0  0  0
  189.3150  174.0560  144.0010 C   0  0  0  0  0  2  0  0  0  0  0  0
  190.0030  174.6240  145.2280 C   0  0  0  0  0  3  0  0  0  0  0  0
  1  4  1  0  0  0  0
  2  6  1  0  0  0  0
  3  1  1  0  0  0  0
  4 31  1  0  0  0  0
  5  2  1  6  0  0  0
  5  3  1  0  0  0  0
  6  7  1  1  0  0  0
  6  4  1  0  0  0  0
  8 25  1  0  0  0  0
  8  9  1  0  0  0  0
 10 11  1  0  0  0  0
 10  9  1  0  0  0  0
 11 12  1  6  0  0  0
 11  5  1  0  0  0  0
 13 14  1  0  0  0  0
 13 12  1  0  0  0  0
 14 10  2  0  0  0  0
 15 14  1  0  0  0  0
 15  8  2  0  0  0  0
 16 18  1  1  0  0  0
 16 21  1  0  0  0  0
 17 19  1  0  0  0  0
 19 22  1  6  0  0  0
 19 21  1  0  0  0  0
 19 15  1  0  0  0  0
 23 20  1  6  0  0  0
 23 17  1  0  0  0  0
 23 16  1  0  0  0  0
 25 24  1  1  0  0  0
 25 26  1  0  0  0  0
 26 28  1  0  0  0  0
 27 26  2  0  0  0  0
 28 30  1  0  0  0  0
 30 29  1  0  0  0  0
 31 32  1  1  0  0  0
 33 31  1  0  0  0  0
 34 48  1  0  0  0  0
 34 43  1  0  0  0  0
 34 33  1  1  0  0  0
 37 42  1  0  0  0  0
 37 40  1  0  0  0  0
 38 45  1  0  0  0  0
 38 44  1  0  0  0  0
 40 39  1  6  0  0  0
 40 38  1  0  0  0  0
 41 38  1  0  0  0  0
 41 43  1  0  0  0  0
 42 35  1  6  0  0  0
 42 41  1  0  0  0  0
 43 36  2  0  0  0  0
 45 44  1  0  0  0  0
 46 48  1  0  0  0  0
 47 46  1  0  0  0  0
 47 48  1  0  0  0  0
M  END
>  <MODEL>
5

>  <REMARK>
 VINA RESULT:      -7.1      2.962      7.884
  Name = 
  10 active torsions:
  status: ('A' for Active; 'I' for Inactive)
    1  A    between atoms: C_3  and  C_29
    2  A    between atoms: C_3  and  N_31
    3  A    between atoms: C_5  and  C_25
    4  A    between atoms: C_9  and  C_33
    5  A    between atoms: C_17  and  C_25
    6  A    between atoms: C_18  and  C_29
    7  A    between atoms: C_18  and  C_38
    8  A    between atoms: C_18  and  C_47
    9  A    between atoms: N_21  and  C_30
   10  A    between atoms: C_32  and  C_42
                            x       y       z     vdW  Elec       q    Type
                         _______ _______ _______ _____ _____    ______ ____

>  <TORSDO>
F 10

$$$$
=
 OpenBabel11062421493D

 48 54  0  0  1  0  0  0  0  0999 V2000
  194.3530  172.6080  145.3870 C   0  0  0  0  0  2  0  0  0  0  0  0
  192.4960  173.7500  143.4530 C   0  0  0  0  0  2  0  0  0  0  0  0
  193.9120  174.0680  145.4810 C   0  0  0  0  0  2  0  0  0  0  0  0
  194.2860  172.0880  144.0070 N   0  0  0  0  0  0  0  0  0  0  0  0
  192.5090  174.2210  144.8980 C   0  0  1  0  0  3  0  0  0  0  0  0
  192.9810  172.2980  143.3580 C   0  0  1  0  0  3  0  0  0  0  0  0
  191.9430  171.3320  143.9100 C   0  0  0  0  0  1  0  0  0  0  0  0
  188.3410  175.9290  144.1040 C   0  0  0  0  0  0  0  0  0  0  0  0
  189.6450  175.2900  143.7070 C   0  0  0  0  0  3  0  0  0  0  0  0
  190.4980  175.6990  144.8570 C   0  0  0  0  0  0  0  0  0  0  0  0
  191.9660  175.6490  145.0160 C   0  0  1  0  0  3  0  0  0  0  0  0
  192.3060  176.4170  146.6500 S   0  0  0  0  0  0  0  0  0  0  0  0
  190.6080  177.0930  146.7740 C   0  0  0  0  0  2  0  0  0  0  0  0
  189.8330  176.4120  145.7130 C   0  0  0  0  0  0  0  0  0  0  0  0
  188.4490  176.5680  145.2760 C   0  0  1  0  0  3  0  0  0  0  0  0
  185.9000  178.9900  145.3030 C   0  0  2  0  0  3  0  0  0  0  0  0
  186.0640  176.7480  146.0190 C   0  0  0  0  0  2  0  0  0  0  0  0
  185.4680  179.7460  144.1380 N   0  0  0  0  0  1  0  0  0  0  0  0
  187.4050  177.4560  145.9250 C   0  0  2  0  0  0  0  0  0  0  0  0
  184.0200  177.9220  146.2960 O   0  0  0  0  0  1  0  0  0  0  0  0
  187.2450  178.6240  145.1500 O   0  0  0  0  0  0  0  0  0  0  0  0
  187.8040  177.8090  147.2190 O   0  0  0  0  0  1  0  0  0  0  0  0
  185.0910  177.7250  145.4270 C   0  0  1  0  0  3  0  0  0  0  0  0
  187.0520  174.6530  142.5770 O   0  0  0  0  0  1  0  0  0  0  0  0
  187.0980  175.8680  143.2630 C   0  0  2  0  0  3  0  0  0  0  0  0
  186.9780  177.0110  142.2960 C   0  0  0  0  0  0  0  0  0  0  0  0
  187.9790  177.7290  142.0180 O   0  0  0  0  0  0  0  0  0  0  0  0
  185.7480  177.2090  141.6050 N   0  0  0  0  0  2  0  0  0  0  0  0
  184.1100  178.6230  140.5120 C   0  0  0  0  0  1  0  0  0  0  0  0
  185.5740  178.2900  140.6520 C   0  0  0  0  0  2  0  0  0  0  0  0
  195.3690  172.4900  143.0930 C   0  0  1  0  0  3  0  0  0  0  0  0
  196.6870  172.8660  143.7620 C   0  0  0  0  0  1  0  0  0  0  0  0
  195.6150  171.3730  142.0960 C   0  0  0  0  0  2  0  0  0  0  0  0
  195.2390  171.8150  140.6850 C   0  0  2  0  0  3  0  0  0  0  0  0
  193.4010  174.3850  140.1040 C   0  0  0  0  0  1  0  0  0  0  0  0
  193.6450  170.0410  140.5670 O   0  0  0  0  0  0  0  0  0  0  0  0
  192.0890  173.7340  138.0920 C   0  0  0  0  0  2  0  0  0  0  0  0
  191.6160  171.6740  139.1710 C   0  0  0  0  0  0  0  0  0  0  0  0
  189.9640  173.5000  139.3370 C   0  0  0  0  0  1  0  0  0  0  0  0
  190.9350  172.7860  138.4220 C   0  0  1  0  0  3  0  0  0  0  0  0
  192.9700  172.0410  139.5440 N   0  0  0  0  0  0  0  0  0  0  0  0
  193.2780  173.3540  138.9870 C   0  0  2  0  0  3  0  0  0  0  0  0
  193.9150  171.2350  140.2710 C   0  0  0  0  0  0  0  0  0  0  0  0
  190.9170  170.4790  139.7850 C   0  0  0  0  0  2  0  0  0  0  0  0
  191.5600  170.3680  138.4050 C   0  0  0  0  0  2  0  0  0  0  0  0
  197.6690  171.8850  140.1680 C   0  0  0  0  0  2  0  0  0  0  0  0
  196.9380  172.6290  139.0770 C   0  0  0  0  0  2  0  0  0  0  0  0
  196.3120  171.3980  139.7050 C   0  0  0  0  0  3  0  0  0  0  0  0
  1  3  1  0  0  0  0
  4  1  1  0  0  0  0
  5  2  1  6  0  0  0
  5 11  1  0  0  0  0
  5  3  1  0  0  0  0
  6  2  1  0  0  0  0
  6  7  1  1  0  0  0
  6  4  1  0  0  0  0
  9  8  2  0  0  0  0
  9 10  1  0  0  0  0
 10 14  2  0  0  0  0
 11 10  1  1  0  0  0
 11 12  1  0  0  0  0
 12 13  1  0  0  0  0
 14 13  1  0  0  0  0
 15  8  1  6  0  0  0
 15 14  1  0  0  0  0
 15 19  1  0  0  0  0
 16 18  1  6  0  0  0
 16 23  1  0  0  0  0
 19 17  1  0  0  0  0
 19 22  1  1  0  0  0
 21 16  1  0  0  0  0
 21 19  1  0  0  0  0
 23 17  1  0  0  0  0
 23 20  1  1  0  0  0
 25 24  1  6  0  0  0
 25  8  1  0  0  0  0
 26 25  1  0  0  0  0
 27 26  2  0  0  0  0
 28 26  1  0  0  0  0
 29 30  1  0  0  0  0
 30 28  1  0  0  0  0
 31 32  1  1  0  0  0
 31  4  1  0  0  0  0
 33 31  1  0  0  0  0
 34 33  1  1  0  0  0
 37 40  1  0  0  0  0
 37 42  1  0  0  0  0
 38 41  1  0  0  0  0
 38 44  1  0  0  0  0
 40 38  1  0  0  0  0
 40 39  1  1  0  0  0
 41 43  1  0  0  0  0
 42 41  1  0  0  0  0
 42 35  1  1  0  0  0
 43 36  2  0  0  0  0
 43 34  1  0  0  0  0
 45 38  1  0  0  0  0
 45 44  1  0  0  0  0
 47 48  1  0  0  0  0
 47 46  1  0  0  0  0
 48 46  1  0  0  0  0
 48 34  1  0  0  0  0
M  END
>  <MODEL>
6

>  <REMARK>
 VINA RESULT:      -7.1      2.504      5.192
  Name = 
  10 active torsions:
  status: ('A' for Active; 'I' for Inactive)
    1  A    between atoms: C_3  and  C_29
    2  A    between atoms: C_3  and  N_31
    3  A    between atoms: C_5  and  C_25
    4  A    between atoms: C_9  and  C_33
    5  A    between atoms: C_17  and  C_25
    6  A    between atoms: C_18  and  C_29
    7  A    between atoms: C_18  and  C_38
    8  A    between atoms: C_18  and  C_47
    9  A    between atoms: N_21  and  C_30
   10  A    between atoms: C_32  and  C_42
                            x       y       z     vdW  Elec       q    Type
                         _______ _______ _______ _____ _____    ______ ____

>  <TORSDO>
F 10

$$$$
=
 OpenBabel11062421493D

 48 54  0  0  1  0  0  0  0  0999 V2000
  193.3900  173.1940  138.3770 C   0  0  0  0  0  2  0  0  0  0  0  0
  193.2620  173.8380  141.2160 C   0  0  0  0  0  2  0  0  0  0  0  0
  192.1490  172.8650  139.2070 C   0  0  0  0  0  2  0  0  0  0  0  0
  194.6170  173.2460  139.1950 N   0  0  0  0  0  0  0  0  0  0  0  0
  192.0130  173.8690  140.3490 C   0  0  1  0  0  3  0  0  0  0  0  0
  194.5080  174.1250  140.3710 C   0  0  1  0  0  3  0  0  0  0  0  0
  194.5690  175.5880  139.9560 C   0  0  0  0  0  1  0  0  0  0  0  0
  189.8350  176.6180  143.2850 C   0  0  0  0  0  0  0  0  0  0  0  0
  190.9920  175.7770  142.8150 C   0  0  0  0  0  2  0  0  0  0  0  0
  190.2930  174.8920  141.8420 C   0  0  0  0  0  0  0  0  0  0  0  0
  190.7520  173.6470  141.1910 C   0  0  1  0  0  3  0  0  0  0  0  0
  189.3200  173.0560  140.2040 S   0  0  0  0  0  0  0  0  0  0  0  0
  188.1670  174.2080  141.0400 C   0  0  0  0  0  2  0  0  0  0  0  0
  189.0270  175.1640  141.7740 C   0  0  0  0  0  0  0  0  0  0  0  0
  188.6980  176.2690  142.6700 C   0  0  0  0  0  0  0  0  0  0  0  0
  186.0470  177.1890  144.7900 C   0  0  2  0  0  3  0  0  0  0  0  0
  187.2830  178.2890  143.1070 C   0  0  0  0  0  2  0  0  0  0  0  0
  186.0540  177.0290  146.2350 N   0  0  0  0  0  1  0  0  0  0  0  0
  187.3040  176.7740  142.9850 C   0  0  2  0  0  0  0  0  0  0  0  0
  185.5550  179.4520  144.2450 O   0  0  0  0  0  1  0  0  0  0  0  0
  186.8750  176.2180  144.2080 O   0  0  0  0  0  0  0  0  0  0  0  0
  186.4120  176.4060  141.9710 O   0  0  0  0  0  1  0  0  0  0  0  0
  186.5960  178.5420  144.4170 C   0  0  1  0  0  3  0  0  0  0  0  0
  191.1660  178.3700  144.1680 O   0  0  0  0  0  1  0  0  0  0  0  0
  189.9590  177.6870  144.3320 C   0  0  2  0  0  3  0  0  0  0  0  0
  189.8510  177.1600  145.7350 C   0  0  0  0  0  0  0  0  0  0  0  0
  189.5220  177.9210  146.6870 O   0  0  0  0  0  0  0  0  0  0  0  0
  190.0120  175.7630  145.9650 N   0  0  0  0  0  2  0  0  0  0  0  0
  191.2100  175.3760  148.0360 C   0  0  0  0  0  1  0  0  0  0  0  0
  189.9090  175.1930  147.2960 C   0  0  0  0  0  2  0  0  0  0  0  0
  195.2060  171.9540  139.5910 C   0  0  1  0  0  3  0  0  0  0  0  0
  195.3510  170.9280  138.4710 C   0  0  0  0  0  1  0  0  0  0  0  0
  196.5630  172.2010  140.2220 C   0  0  0  0  0  2  0  0  0  0  0  0
  196.6320  171.5850  141.6150 C   0  0  2  0  0  3  0  0  0  0  0  0
  193.7580  171.0850  142.9600 C   0  0  0  0  0  1  0  0  0  0  0  0
  197.2850  173.6530  142.6160 O   0  0  0  0  0  0  0  0  0  0  0  0
  194.1640  171.4680  145.3850 C   0  0  0  0  0  2  0  0  0  0  0  0
  195.2970  173.4680  144.7950 C   0  0  0  0  0  0  0  0  0  0  0  0
  192.9170  173.6050  145.4360 C   0  0  0  0  0  1  0  0  0  0  0  0
  194.2480  172.9530  145.7420 C   0  0  1  0  0  3  0  0  0  0  0  0
  195.5930  172.4960  143.7590 N   0  0  0  0  0  0  0  0  0  0  0  0
  194.8390  171.2750  144.0200 C   0  0  2  0  0  3  0  0  0  0  0  0
  196.5350  172.6420  142.6790 C   0  0  0  0  0  0  0  0  0  0  0  0
  195.7380  174.9120  144.6820 C   0  0  0  0  0  2  0  0  0  0  0  0
  196.5380  173.9270  145.5310 C   0  0  0  0  0  2  0  0  0  0  0  0
  197.7630  169.4050  141.2290 C   0  0  0  0  0  2  0  0  0  0  0  0
  197.6960  169.6390  142.7180 C   0  0  0  0  0  2  0  0  0  0  0  0
  197.9200  170.8080  141.7780 C   0  0  0  0  0  3  0  0  0  0  0  0
  1  4  1  0  0  0  0
  1  3  1  0  0  0  0
  4 31  1  0  0  0  0
  4  6  1  0  0  0  0
  5  3  1  6  0  0  0
  5 11  1  0  0  0  0
  5  2  1  0  0  0  0
  6  7  1  6  0  0  0
  6  2  1  0  0  0  0
  8 25  1  0  0  0  0
  9  8  1  0  0  0  0
 10  9  1  0  0  0  0
 11 12  1  6  0  0  0
 11 10  1  0  0  0  0
 12 13  1  0  0  0  0
 13 14  1  0  0  0  0
 14 10  2  0  0  0  0
 14 15  1  0  0  0  0
 15 19  1  0  0  0  0
 15  8  2  0  0  0  0
 16 18  1  1  0  0  0
 17 23  1  0  0  0  0
 19 22  1  6  0  0  0
 19 17  1  0  0  0  0
 19 21  1  0  0  0  0
 21 16  1  0  0  0  0
 23 20  1  6  0  0  0
 23 16  1  0  0  0  0
 25 24  1  1  0  0  0
 25 26  1  0  0  0  0
 26 28  1  0  0  0  0
 26 27  2  0  0  0  0
 28 30  1  0  0  0  0
 30 29  1  0  0  0  0
 31 32  1  6  0  0  0
 31 33  1  0  0  0  0
 34 33  1  6  0  0  0
 34 48  1  0  0  0  0
 34 43  1  0  0  0  0
 36 43  2  0  0  0  0
 37 40  1  0  0  0  0
 38 45  1  0  0  0  0
 38 40  1  0  0  0  0
 40 39  1  6  0  0  0
 41 42  1  0  0  0  0
 41 38  1  0  0  0  0
 42 35  1  6  0  0  0
 42 37  1  0  0  0  0
 43 41  1  0  0  0  0
 44 38  1  0  0  0  0
 44 45  1  0  0  0  0
 46 48  1  0  0  0  0
 46 47  1  0  0  0  0
 48 47  1  0  0  0  0
M  END
>  <MODEL>
7

>  <REMARK>
 VINA RESULT:      -6.9      2.035      3.055
  Name = 
  10 active torsions:
  status: ('A' for Active; 'I' for Inactive)
    1  A    between atoms: C_3  and  C_29
    2  A    between atoms: C_3  and  N_31
    3  A    between atoms: C_5  and  C_25
    4  A    between atoms: C_9  and  C_33
    5  A    between atoms: C_17  and  C_25
    6  A    between atoms: C_18  and  C_29
    7  A    between atoms: C_18  and  C_38
    8  A    between atoms: C_18  and  C_47
    9  A    between atoms: N_21  and  C_30
   10  A    between atoms: C_32  and  C_42
                            x       y       z     vdW  Elec       q    Type
                         _______ _______ _______ _____ _____    ______ ____

>  <TORSDO>
F 10

$$$$
=
 OpenBabel11062421493D

 48 54  0  0  1  0  0  0  0  0999 V2000
  189.1080  174.4530  140.8990 C   0  0  0  0  0  2  0  0  0  0  0  0
  189.4250  171.9440  142.3470 C   0  0  0  0  0  2  0  0  0  0  0  0
  190.4130  173.6600  140.8310 C   0  0  0  0  0  2  0  0  0  0  0  0
  188.3620  174.2030  142.1470 N   0  0  0  0  0  0  0  0  0  0  0  0
  190.1220  172.1730  141.0160 C   0  0  1  0  0  3  0  0  0  0  0  0
  188.1390  172.7750  142.4280 C   0  0  1  0  0  3  0  0  0  0  0  0
  187.0580  172.2110  141.5180 C   0  0  0  0  0  1  0  0  0  0  0  0
  193.8970  171.9500  143.5890 C   0  0  0  0  0  0  0  0  0  0  0  0
  192.9380  172.6180  142.6400 C   0  0  0  0  0  3  0  0  0  0  0  0
  192.2550  171.4210  142.0740 C   0  0  0  0  0  0  0  0  0  0  0  0
  191.3760  171.3000  140.8930 C   0  0  1  0  0  3  0  0  0  0  0  0
  190.9960  169.5080  140.7490 S   0  0  0  0  0  0  0  0  0  0  0  0
  192.3140  169.0530  141.9380 C   0  0  0  0  0  2  0  0  0  0  0  0
  192.7200  170.3220  142.5820 C   0  0  0  0  0  0  0  0  0  0  0  0
  193.7590  170.6180  143.5630 C   0  0  1  0  0  3  0  0  0  0  0  0
  196.6940  169.5060  145.1500 C   0  0  2  0  0  3  0  0  0  0  0  0
  194.4170  169.6100  145.7590 C   0  0  0  0  0  2  0  0  0  0  0  0
  197.9080  170.2960  145.2860 N   0  0  0  0  0  1  0  0  0  0  0  0
  194.6440  169.6010  144.2570 C   0  0  2  0  0  0  0  0  0  0  0  0
  196.0050  168.7380  147.2930 O   0  0  0  0  0  1  0  0  0  0  0  0
  195.9960  169.9150  144.0050 O   0  0  0  0  0  0  0  0  0  0  0  0
  194.3710  168.3140  143.7820 O   0  0  0  0  0  1  0  0  0  0  0  0
  195.7960  169.7310  146.3390 C   0  0  1  0  0  3  0  0  0  0  0  0
  194.2200  173.4960  145.3570 O   0  0  0  0  0  1  0  0  0  0  0  0
  194.8920  172.7020  144.4270 C   0  0  2  0  0  3  0  0  0  0  0  0
  195.8360  173.5420  143.6160 C   0  0  0  0  0  0  0  0  0  0  0  0
  197.0030  173.1350  143.3580 O   0  0  0  0  0  0  0  0  0  0  0  0
  195.3640  174.7570  143.0400 N   0  0  0  0  0  2  0  0  0  0  0  0
  196.9370  176.6000  143.1230 C   0  0  0  0  0  1  0  0  0  0  0  0
  196.2270  175.6060  142.2390 C   0  0  0  0  0  2  0  0  0  0  0  0
  188.8540  174.8790  143.3610 C   0  0  1  0  0  3  0  0  0  0  0  0
  189.8930  174.1060  144.1680 C   0  0  0  0  0  1  0  0  0  0  0  0
  189.4240  176.2320  142.9770 C   0  0  0  0  0  2  0  0  0  0  0  0
  189.1780  177.2560  144.0800 C   0  0  2  0  0  3  0  0  0  0  0  0
  187.4780  176.4460  146.6830 C   0  0  0  0  0  1  0  0  0  0  0  0
  187.5250  178.3360  142.7370 O   0  0  0  0  0  0  0  0  0  0  0  0
  186.2590  178.5350  147.2690 C   0  0  0  0  0  2  0  0  0  0  0  0
  185.6450  178.7180  144.9850 C   0  0  0  0  0  0  0  0  0  0  0  0
  184.0590  177.6610  146.5520 C   0  0  0  0  0  1  0  0  0  0  0  0
  185.0520  178.7870  146.3650 C   0  0  1  0  0  3  0  0  0  0  0  0
  186.9880  178.1700  145.0150 N   0  0  0  0  0  0  0  0  0  0  0  0
  187.3790  177.9420  146.4010 C   0  0  2  0  0  3  0  0  0  0  0  0
  187.8580  177.9500  143.8890 C   0  0  0  0  0  0  0  0  0  0  0  0
  184.8650  178.8460  143.6920 C   0  0  0  0  0  2  0  0  0  0  0  0
  185.5810  180.0590  144.2820 C   0  0  0  0  0  2  0  0  0  0  0  0
  191.4500  177.8120  143.2410 C   0  0  0  0  0  2  0  0  0  0  0  0
  191.5300  177.6630  144.7410 C   0  0  0  0  0  2  0  0  0  0  0  0
  190.2950  178.2740  144.1060 C   0  0  0  0  0  3  0  0  0  0  0  0
  1  4  1  0  0  0  0
  2  6  1  0  0  0  0
  3  1  1  0  0  0  0
  4  6  1  0  0  0  0
  4 31  1  0  0  0  0
  5  3  1  1  0  0  0
  5  2  1  0  0  0  0
  6  7  1  6  0  0  0
  8 25  1  0  0  0  0
  9  8  2  0  0  0  0
 10 14  2  0  0  0  0
 10  9  1  0  0  0  0
 11 12  1  1  0  0  0
 11  5  1  0  0  0  0
 11 10  1  0  0  0  0
 12 13  1  0  0  0  0
 13 14  1  0  0  0  0
 15 14  1  6  0  0  0
 15  8  1  0  0  0  0
 15 19  1  0  0  0  0
 16 18  1  1  0  0  0
 16 23  1  0  0  0  0
 17 23  1  0  0  0  0
 19 22  1  6  0  0  0
 19 17  1  0  0  0  0
 21 19  1  0  0  0  0
 21 16  1  0  0  0  0
 23 20  1  1  0  0  0
 25 24  1  1  0  0  0
 26 25  1  0  0  0  0
 27 26  2  0  0  0  0
 28 26  1  0  0  0  0
 30 28  1  0  0  0  0
 30 29  1  0  0  0  0
 31 32  1  6  0  0  0
 33 31  1  0  0  0  0
 34 33  1  6  0  0  0
 34 48  1  0  0  0  0
 36 43  2  0  0  0  0
 38 41  1  0  0  0  0
 38 40  1  0  0  0  0
 40 39  1  6  0  0  0
 40 37  1  0  0  0  0
 41 42  1  0  0  0  0
 42 35  1  6  0  0  0
 42 37  1  0  0  0  0
 43 34  1  0  0  0  0
 43 41  1  0  0  0  0
 44 45  1  0  0  0  0
 44 38  1  0  0  0  0
 45 38  1  0  0  0  0
 46 48  1  0  0  0  0
 46 47  1  0  0  0  0
 48 47  1  0  0  0  0
M  END
>  <MODEL>
8

>  <REMARK>
 VINA RESULT:      -6.8      2.358      8.993
  Name = 
  10 active torsions:
  status: ('A' for Active; 'I' for Inactive)
    1  A    between atoms: C_3  and  C_29
    2  A    between atoms: C_3  and  N_31
    3  A    between atoms: C_5  and  C_25
    4  A    between atoms: C_9  and  C_33
    5  A    between atoms: C_17  and  C_25
    6  A    between atoms: C_18  and  C_29
    7  A    between atoms: C_18  and  C_38
    8  A    between atoms: C_18  and  C_47
    9  A    between atoms: N_21  and  C_30
   10  A    between atoms: C_32  and  C_42
                            x       y       z     vdW  Elec       q    Type
                         _______ _______ _______ _____ _____    ______ ____

>  <TORSDO>
F 10

$$$$
=
 OpenBabel11062421493D

 48 54  0  0  1  0  0  0  0  0999 V2000
  192.8760  171.2750  142.2110 C   0  0  0  0  0  2  0  0  0  0  0  0
  190.8470  171.3000  140.1190 C   0  0  0  0  0  2  0  0  0  0  0  0
  191.6540  172.1900  142.3050 C   0  0  0  0  0  2  0  0  0  0  0  0
  193.2270  170.9460  140.8170 N   0  0  0  0  0  0  0  0  0  0  0  0
  190.4760  171.5530  141.5710 C   0  0  1  0  0  3  0  0  0  0  0  0
  192.0990  170.4180  140.0310 C   0  0  1  0  0  3  0  0  0  0  0  0
  191.7920  168.9820  140.4290 C   0  0  0  0  0  1  0  0  0  0  0  0
  189.5330  175.3640  143.9170 C   0  0  0  0  0  0  0  0  0  0  0  0
  189.8820  173.9060  143.7780 C   0  0  0  0  0  2  0  0  0  0  0  0
  189.4060  173.6540  142.3890 C   0  0  0  0  0  0  0  0  0  0  0  0
  189.1900  172.3790  141.6760 C   0  0  1  0  0  3  0  0  0  0  0  0
  188.4970  172.8450  140.0400 S   0  0  0  0  0  0  0  0  0  0  0  0
  188.1660  174.5630  140.5830 C   0  0  0  0  0  2  0  0  0  0  0  0
  188.8990  174.7230  141.8580 C   0  0  0  0  0  0  0  0  0  0  0  0
  188.9740  175.8390  142.7960 C   0  0  0  0  0  0  0  0  0  0  0  0
  186.8360  178.1800  141.2740 C   0  0  2  0  0  3  0  0  0  0  0  0
  187.1190  177.3790  143.4750 C   0  0  0  0  0  2  0  0  0  0  0  0
  186.0210  177.9100  140.0990 N   0  0  0  0  0  1  0  0  0  0  0  0
  188.3520  177.2080  142.6030 C   0  0  2  0  0  0  0  0  0  0  0  0
  185.4550  179.0100  143.0240 O   0  0  0  0  0  1  0  0  0  0  0  0
  187.9720  177.3580  141.2530 O   0  0  0  0  0  0  0  0  0  0  0  0
  189.2670  178.2110  142.9410 O   0  0  0  0  0  1  0  0  0  0  0  0
  186.0610  177.8590  142.5260 C   0  0  1  0  0  3  0  0  0  0  0  0
  191.0190  175.8470  145.7000 O   0  0  0  0  0  1  0  0  0  0  0  0
  189.7640  176.1560  145.1720 C   0  0  2  0  0  3  0  0  0  0  0  0
  188.7000  175.9450  146.2120 C   0  0  0  0  0  0  0  0  0  0  0  0
  188.7100  174.9170  146.9450 O   0  0  0  0  0  0  0  0  0  0  0  0
  187.7430  176.9740  146.4430 N   0  0  0  0  0  2  0  0  0  0  0  0
  185.3440  176.9610  146.7890 C   0  0  0  0  0  1  0  0  0  0  0  0
  186.6980  176.8330  147.4400 C   0  0  0  0  0  2  0  0  0  0  0  0
  193.9290  171.9870  140.0450 C   0  0  1  0  0  3  0  0  0  0  0  0
  193.6870  171.9630  138.5390 C   0  0  0  0  0  1  0  0  0  0  0  0
  193.5460  173.3500  140.5920 C   0  0  0  0  0  2  0  0  0  0  0  0
  194.7750  174.0910  141.1070 C   0  0  2  0  0  3  0  0  0  0  0  0
  196.9490  172.1940  142.5220 C   0  0  0  0  0  1  0  0  0  0  0  0
  193.5920  174.9630  142.9890 O   0  0  0  0  0  0  0  0  0  0  0  0
  197.9110  173.6290  144.3130 C   0  0  0  0  0  2  0  0  0  0  0  0
  195.6930  174.2080  144.9260 C   0  0  0  0  0  0  0  0  0  0  0  0
  196.8150  172.3800  146.1450 C   0  0  0  0  0  1  0  0  0  0  0  0
  196.9930  173.7500  145.5290 C   0  0  1  0  0  3  0  0  0  0  0  0
  195.7080  174.0750  143.4810 N   0  0  0  0  0  0  0  0  0  0  0  0
  197.0270  173.6210  143.0570 C   0  0  2  0  0  3  0  0  0  0  0  0
  194.6420  174.4070  142.5710 C   0  0  0  0  0  0  0  0  0  0  0  0
  194.4070  174.4350  145.6920 C   0  0  0  0  0  2  0  0  0  0  0  0
  195.3310  175.6080  145.3750 C   0  0  0  0  0  2  0  0  0  0  0  0
  195.5750  175.0610  138.9630 C   0  0  0  0  0  2  0  0  0  0  0  0
  196.4620  175.5770  140.0690 C   0  0  0  0  0  2  0  0  0  0  0  0
  194.9820  175.3670  140.3230 C   0  0  0  0  0  3  0  0  0  0  0  0
  1  3  1  0  0  0  0
  4  1  1  0  0  0  0
  5  2  1  6  0  0  0
  5 11  1  0  0  0  0
  5  3  1  0  0  0  0
  6  2  1  0  0  0  0
  6  7  1  1  0  0  0
  6  4  1  0  0  0  0
  8 25  1  0  0  0  0
  9  8  1  0  0  0  0
 10  9  1  0  0  0  0
 11 12  1  6  0  0  0
 11 10  1  0  0  0  0
 12 13  1  0  0  0  0
 13 14  1  0  0  0  0
 14 10  2  0  0  0  0
 14 15  1  0  0  0  0
 15  8  2  0  0  0  0
 16 18  1  6  0  0  0
 16 23  1  0  0  0  0
 19 15  1  0  0  0  0
 19 22  1  1  0  0  0
 19 17  1  0  0  0  0
 21 16  1  0  0  0  0
 21 19  1  0  0  0  0
 23 20  1  1  0  0  0
 23 17  1  0  0  0  0
 25 24  1  1  0  0  0
 25 26  1  0  0  0  0
 26 28  1  0  0  0  0
 26 27  2  0  0  0  0
 28 30  1  0  0  0  0
 29 30  1  0  0  0  0
 31 32  1  6  0  0  0
 31 33  1  0  0  0  0
 31  4  1  0  0  0  0
 34 33  1  6  0  0  0
 34 43  1  0  0  0  0
 37 40  1  0  0  0  0
 38 45  1  0  0  0  0
 38 40  1  0  0  0  0
 38 44  1  0  0  0  0
 40 39  1  6  0  0  0
 41 38  1  0  0  0  0
 42 35  1  1  0  0  0
 42 41  1  0  0  0  0
 42 37  1  0  0  0  0
 43 36  2  0  0  0  0
 43 41  1  0  0  0  0
 45 44  1  0  0  0  0
 46 47  1  0  0  0  0
 46 48  1  0  0  0  0
 47 48  1  0  0  0  0
 48 34  1  0  0  0  0
M  END
>  <MODEL>
9

>  <REMARK>
 VINA RESULT:      -6.8      1.388      3.134
  Name = 
  10 active torsions:
  status: ('A' for Active; 'I' for Inactive)
    1  A    between atoms: C_3  and  C_29
    2  A    between atoms: C_3  and  N_31
    3  A    between atoms: C_5  and  C_25
    4  A    between atoms: C_9  and  C_33
    5  A    between atoms: C_17  and  C_25
    6  A    between atoms: C_18  and  C_29
    7  A    between atoms: C_18  and  C_38
    8  A    between atoms: C_18  and  C_47
    9  A    between atoms: N_21  and  C_30
   10  A    between atoms: C_32  and  C_42
                            x       y       z     vdW  Elec       q    Type
                         _______ _______ _______ _____ _____    ______ ____

>  <TORSDO>
F 10

$$$$
