=
 OpenBabel11062419443D

 30 34  0  0  1  0  0  0  0  0999 V2000
  186.2550  178.1470  143.0760 C   0  0  1  0  0  3  0  0  0  0  0  0
  187.9060  175.1970  142.9620 C   0  0  1  0  0  3  0  0  0  0  0  0
  186.7020  177.6170  140.7490 C   0  0  0  0  0  2  0  0  0  0  0  0
  188.9170  174.6820  142.1980 N   0  0  0  0  0  0  0  0  0  0  0  0
  189.3590  175.0780  145.9590 C   0  0  0  0  0  2  0  0  0  0  0  0
  185.0390  178.6760  142.3090 C   0  0  1  0  0  3  0  0  0  0  0  0
  188.4040  176.2810  143.9250 C   0  0  1  0  0  3  0  0  0  0  0  0
  187.2710  176.7210  144.8550 C   0  0  0  0  0  0  0  0  0  0  0  0
  189.6780  175.8340  144.6690 C   0  0  1  0  0  3  0  0  0  0  0  0
  188.0290  175.6460  141.6780 C   0  0  0  0  0  0  0  0  0  0  0  0
  188.5160  175.9440  146.8860 C   0  0  0  0  0  2  0  0  0  0  0  0
  187.5940  176.4710  140.5920 N   0  0  0  0  0  2  0  0  0  0  0  0
  185.9920  177.2910  144.3080 C   0  0  0  0  0  2  0  0  0  0  0  0
  185.7170  177.3930  141.8780 C   0  0  2  0  0  3  0  0  0  0  0  0
  187.3090  176.4900  146.1780 C   0  0  0  0  0  3  0  0  0  0  0  0
  190.6230  176.9710  144.8950 C   0  0  0  0  0  0  0  0  0  0  0  0
  191.8240  176.7760  145.5670 O   0  0  0  0  0  1  0  0  0  0  0  0
  190.3400  178.1130  144.4480 O   0  0  0  0  0  0  0  0  0  0  0  0
  183.7000  178.3570  142.9680 C   0  0  0  0  0  2  0  0  0  0  0  0
  180.4680  178.8030  140.6630 C   0  0  2  0  0  3  0  0  0  0  0  0
  182.6750  177.9420  140.7610 C   0  0  0  0  0  3  0  0  0  0  0  0
  181.5240  178.1090  140.0120 O   0  0  0  0  0  0  0  0  0  0  0  0
  182.5930  178.4460  141.9760 C   0  0  0  0  0  0  0  0  0  0  0  0
  181.0160  179.1800  142.3680 S   0  0  0  0  0  0  0  0  0  0  0  0
  179.2310  177.9630  140.6880 C   0  0  0  0  0  0  0  0  0  0  0  0
  178.8930  177.3800  141.7550 O   0  0  0  0  0  0  0  0  0  0  0  0
  177.8730  178.8530  138.9620 O   0  0  0  0  0  0  0  0  0  0  0  0
  178.3990  177.8340  139.4820 C   0  0  0  0  0  0  0  0  0  0  0  0
  179.1440  176.3200  137.8320 O   0  0  0  0  0  1  0  0  0  0  0  0
  178.1970  176.5040  138.8390 C   0  0  0  0  0  2  0  0  0  0  0  0
  1 13  1  1  0  0  0
  2 10  1  6  0  0  0
  2  7  1  0  0  0  0
  4  2  1  0  0  0  0
  5 11  1  0  0  0  0
  6 19  1  1  0  0  0
  6  1  1  0  0  0  0
  7  9  1  0  0  0  0
  7  8  1  1  0  0  0
  8 15  2  0  0  0  0
  9 16  1  1  0  0  0
  9  5  1  0  0  0  0
 10  4  2  0  0  0  0
 12  3  1  0  0  0  0
 12 10  1  0  0  0  0
 13  8  1  0  0  0  0
 14  3  1  6  0  0  0
 14  6  1  0  0  0  0
 14  1  1  0  0  0  0
 15 11  1  0  0  0  0
 16 17  1  0  0  0  0
 18 16  2  0  0  0  0
 20 25  1  1  0  0  0
 20 24  1  0  0  0  0
 21 23  2  0  0  0  0
 22 20  1  0  0  0  0
 22 21  1  0  0  0  0
 23 24  1  0  0  0  0
 23 19  1  0  0  0  0
 25 26  2  0  0  0  0
 27 28  2  0  0  0  0
 28 25  1  0  0  0  0
 29 30  1  0  0  0  0
 30 28  1  0  0  0  0
M  END
>  <MODEL>
1

>  <REMARK>
 VINA RESULT:      -7.3      0.000      0.000
  Name = 
  6 active torsions:
  status: ('A' for Active; 'I' for Inactive)
    1  A    between atoms: C_1  and  C_21
    2  A    between atoms: C_2  and  C_8
    3  A    between atoms: C_8  and  C_28
    4  A    between atoms: C_9  and  C_16
    5  A    between atoms: C_9  and  C_17
    6  A    between atoms: C_18  and  C_28
                            x       y       z     vdW  Elec       q    Type
                         _______ _______ _______ _____ _____    ______ ____

>  <TORSDO>
F 6

$$$$
=
 OpenBabel11062419443D

 30 34  0  0  1  0  0  0  0  0999 V2000
  190.4740  174.7700  143.7790 C   0  0  1  0  0  3  0  0  0  0  0  0
  192.2950  176.6410  145.9300 C   0  0  1  0  0  3  0  0  0  0  0  0
  189.2710  174.8930  145.8850 C   0  0  0  0  0  2  0  0  0  0  0  0
  192.5570  176.5940  147.2710 N   0  0  0  0  0  0  0  0  0  0  0  0
  195.3890  176.2780  144.7450 C   0  0  0  0  0  2  0  0  0  0  0  0
  188.9930  174.8020  143.3870 C   0  0  1  0  0  3  0  0  0  0  0  0
  192.9940  175.5110  145.1640 C   0  0  1  0  0  3  0  0  0  0  0  0
  192.7910  175.6910  143.6570 C   0  0  0  0  0  0  0  0  0  0  0  0
  194.4740  175.3800  145.5770 C   0  0  1  0  0  3  0  0  0  0  0  0
  191.3420  176.1050  146.7490 C   0  0  0  0  0  0  0  0  0  0  0  0
  195.2510  175.9470  143.2650 C   0  0  0  0  0  2  0  0  0  0  0  0
  190.0610  175.4990  146.9530 N   0  0  0  0  0  2  0  0  0  0  0  0
  191.4120  175.7280  143.0580 C   0  0  0  0  0  2  0  0  0  0  0  0
  189.4900  175.6100  144.5670 C   0  0  2  0  0  3  0  0  0  0  0  0
  193.8140  175.9630  142.8310 C   0  0  0  0  0  3  0  0  0  0  0  0
  194.9280  173.9550  145.5860 C   0  0  0  0  0  0  0  0  0  0  0  0
  194.0320  172.9210  145.3420 O   0  0  0  0  0  0  0  0  0  0  0  0
  196.1410  173.6910  145.7910 O   0  0  0  0  0  1  0  0  0  0  0  0
  188.6780  175.7330  142.2200 C   0  0  0  0  0  2  0  0  0  0  0  0
  185.7190  178.3250  142.9210 C   0  0  2  0  0  3  0  0  0  0  0  0
  186.3350  176.0350  142.9380 C   0  0  0  0  0  3  0  0  0  0  0  0
  185.3510  176.9770  143.1810 O   0  0  0  0  0  0  0  0  0  0  0  0
  187.4710  176.5540  142.5160 C   0  0  0  0  0  0  0  0  0  0  0  0
  187.4730  178.3340  142.4000 S   0  0  0  0  0  0  0  0  0  0  0  0
  185.5360  179.1610  144.1480 C   0  0  0  0  0  0  0  0  0  0  0  0
  185.5390  180.4180  144.0530 O   0  0  0  0  0  0  0  0  0  0  0  0
  184.1720  178.4060  145.9320 O   0  0  0  0  0  0  0  0  0  0  0  0
  185.3330  178.5210  145.4560 C   0  0  0  0  0  0  0  0  0  0  0  0
  186.2840  176.6120  146.4660 O   0  0  0  0  0  1  0  0  0  0  0  0
  186.4890  177.9700  146.2190 C   0  0  0  0  0  2  0  0  0  0  0  0
  1 13  1  6  0  0  0
  1 14  1  0  0  0  0
  2 10  1  1  0  0  0
  2  4  1  0  0  0  0
  3 12  1  0  0  0  0
  5  9  1  0  0  0  0
  6 19  1  6  0  0  0
  6  1  1  0  0  0  0
  6 14  1  0  0  0  0
  7  8  1  6  0  0  0
  7  9  1  0  0  0  0
  7  2  1  0  0  0  0
  9 16  1  6  0  0  0
 10 12  1  0  0  0  0
 10  4  2  0  0  0  0
 11  5  1  0  0  0  0
 13  8  1  0  0  0  0
 14  3  1  1  0  0  0
 15 11  1  0  0  0  0
 15  8  2  0  0  0  0
 16 18  1  0  0  0  0
 17 16  2  0  0  0  0
 19 23  1  0  0  0  0
 20 22  1  0  0  0  0
 20 25  1  1  0  0  0
 21 22  1  0  0  0  0
 23 21  2  0  0  0  0
 24 23  1  0  0  0  0
 24 20  1  0  0  0  0
 25 28  1  0  0  0  0
 26 25  2  0  0  0  0
 28 27  2  0  0  0  0
 28 30  1  0  0  0  0
 30 29  1  0  0  0  0
M  END
>  <MODEL>
2

>  <REMARK>
 VINA RESULT:      -7.3      4.659      6.758
  Name = 
  6 active torsions:
  status: ('A' for Active; 'I' for Inactive)
    1  A    between atoms: C_1  and  C_21
    2  A    between atoms: C_2  and  C_8
    3  A    between atoms: C_8  and  C_28
    4  A    between atoms: C_9  and  C_16
    5  A    between atoms: C_9  and  C_17
    6  A    between atoms: C_18  and  C_28
                            x       y       z     vdW  Elec       q    Type
                         _______ _______ _______ _____ _____    ______ ____

>  <TORSDO>
F 6

$$$$
=
 OpenBabel11062419443D

 30 34  0  0  1  0  0  0  0  0999 V2000
  191.6090  176.7330  144.3120 C   0  0  1  0  0  3  0  0  0  0  0  0
  192.6470  173.5670  143.7220 C   0  0  1  0  0  3  0  0  0  0  0  0
  190.3500  175.8590  142.4290 C   0  0  0  0  0  2  0  0  0  0  0  0
  192.8580  172.8100  142.6040 N   0  0  0  0  0  0  0  0  0  0  0  0
  195.7360  173.5870  144.9730 C   0  0  0  0  0  2  0  0  0  0  0  0
  190.2130  177.3500  144.4490 C   0  0  1  0  0  3  0  0  0  0  0  0
  193.7020  174.6690  143.8840 C   0  0  1  0  0  3  0  0  0  0  0  0
  193.5090  175.3920  145.2190 C   0  0  0  0  0  0  0  0  0  0  0  0
  195.1270  174.1200  143.6760 C   0  0  1  0  0  3  0  0  0  0  0  0
  191.8860  173.8310  142.6200 C   0  0  0  0  0  0  0  0  0  0  0  0
  195.7700  174.6820  146.0310 C   0  0  0  0  0  2  0  0  0  0  0  0
  190.8610  174.5770  141.9530 N   0  0  0  0  0  2  0  0  0  0  0  0
  192.2170  176.0860  145.5490 C   0  0  0  0  0  2  0  0  0  0  0  0
  190.3780  175.9320  143.9420 C   0  0  2  0  0  3  0  0  0  0  0  0
  194.4220  175.3210  146.2020 C   0  0  0  0  0  3  0  0  0  0  0  0
  196.0160  175.1130  142.9960 C   0  0  0  0  0  0  0  0  0  0  0  0
  197.3900  174.9140  142.9350 O   0  0  0  0  0  1  0  0  0  0  0  0
  195.5100  176.1280  142.4500 O   0  0  0  0  0  0  0  0  0  0  0  0
  189.6610  177.3280  145.8710 C   0  0  0  0  0  2  0  0  0  0  0  0
  185.7130  176.9810  145.3700 C   0  0  2  0  0  3  0  0  0  0  0  0
  187.4950  176.7770  146.9200 C   0  0  0  0  0  3  0  0  0  0  0  0
  186.1330  176.6880  146.6960 O   0  0  0  0  0  0  0  0  0  0  0  0
  188.1830  177.1390  145.8560 C   0  0  0  0  0  0  0  0  0  0  0  0
  187.1930  177.4620  144.4090 S   0  0  0  0  0  0  0  0  0  0  0  0
  184.7110  178.0920  145.3740 C   0  0  0  0  0  0  0  0  0  0  0  0
  184.0240  178.3090  146.4090 O   0  0  0  0  0  0  0  0  0  0  0  0
  184.9800  180.1220  144.1830 O   0  0  0  0  0  0  0  0  0  0  0  0
  184.5430  178.9410  144.1850 C   0  0  0  0  0  0  0  0  0  0  0  0
  184.7640  178.4960  141.8790 O   0  0  0  0  0  1  0  0  0  0  0  0
  183.8850  178.4070  142.9590 C   0  0  0  0  0  2  0  0  0  0  0  0
  1  6  1  0  0  0  0
  1 13  1  1  0  0  0
  2  4  1  6  0  0  0
  2  7  1  0  0  0  0
  4 10  2  0  0  0  0
  5 11  1  0  0  0  0
  6 19  1  1  0  0  0
  7  8  1  1  0  0  0
  8 13  1  0  0  0  0
  8 15  2  0  0  0  0
  9 16  1  1  0  0  0
  9  7  1  0  0  0  0
  9  5  1  0  0  0  0
 10  2  1  0  0  0  0
 11 15  1  0  0  0  0
 12  3  1  0  0  0  0
 12 10  1  0  0  0  0
 14  3  1  6  0  0  0
 14  1  1  0  0  0  0
 14  6  1  0  0  0  0
 17 16  1  0  0  0  0
 18 16  2  0  0  0  0
 20 25  1  1  0  0  0
 20 22  1  0  0  0  0
 22 21  1  0  0  0  0
 23 19  1  0  0  0  0
 23 21  2  0  0  0  0
 24 20  1  0  0  0  0
 24 23  1  0  0  0  0
 25 26  2  0  0  0  0
 27 28  2  0  0  0  0
 28 25  1  0  0  0  0
 29 30  1  0  0  0  0
 30 28  1  0  0  0  0
M  END
>  <MODEL>
3

>  <REMARK>
 VINA RESULT:      -7.1      4.011      6.510
  Name = 
  6 active torsions:
  status: ('A' for Active; 'I' for Inactive)
    1  A    between atoms: C_1  and  C_21
    2  A    between atoms: C_2  and  C_8
    3  A    between atoms: C_8  and  C_28
    4  A    between atoms: C_9  and  C_16
    5  A    between atoms: C_9  and  C_17
    6  A    between atoms: C_18  and  C_28
                            x       y       z     vdW  Elec       q    Type
                         _______ _______ _______ _____ _____    ______ ____

>  <TORSDO>
F 6

$$$$
=
 OpenBabel11062419443D

 30 34  0  0  1  0  0  0  0  0999 V2000
  190.5690  177.6220  144.8870 C   0  0  1  0  0  3  0  0  0  0  0  0
  188.5940  175.3280  146.4000 C   0  0  1  0  0  3  0  0  0  0  0  0
  191.9140  176.4110  146.5070 C   0  0  0  0  0  2  0  0  0  0  0  0
  188.4810  174.8340  147.6690 N   0  0  0  0  0  0  0  0  0  0  0  0
  185.5600  176.6610  146.0490 C   0  0  0  0  0  2  0  0  0  0  0  0
  191.9600  177.5230  144.2520 C   0  0  1  0  0  3  0  0  0  0  0  0
  188.0940  176.7740  146.2940 C   0  0  1  0  0  3  0  0  0  0  0  0
  188.1040  177.2310  144.8330 C   0  0  0  0  0  0  0  0  0  0  0  0
  186.7290  176.9520  146.9890 C   0  0  1  0  0  3  0  0  0  0  0  0
  189.7180  175.2970  147.1750 C   0  0  0  0  0  0  0  0  0  0  0  0
  185.6220  177.5700  144.8290 C   0  0  0  0  0  2  0  0  0  0  0  0
  191.1160  175.5410  147.3660 N   0  0  0  0  0  2  0  0  0  0  0  0
  189.3740  177.2330  144.0280 C   0  0  0  0  0  2  0  0  0  0  0  0
  191.4120  176.3780  145.0770 C   0  0  2  0  0  3  0  0  0  0  0  0
  186.9700  177.5110  144.1700 C   0  0  0  0  0  3  0  0  0  0  0  0
  186.6090  178.2870  147.6530 C   0  0  0  0  0  0  0  0  0  0  0  0
  185.3960  178.9660  147.6680 O   0  0  0  0  0  0  0  0  0  0  0  0
  187.6100  178.7890  148.2250 O   0  0  0  0  0  1  0  0  0  0  0  0
  191.9430  177.1480  142.7730 C   0  0  0  0  0  2  0  0  0  0  0  0
  193.9970  173.8250  141.9400 C   0  0  2  0  0  3  0  0  0  0  0  0
  194.1470  176.0350  142.7840 C   0  0  0  0  0  3  0  0  0  0  0  0
  194.8060  174.8550  142.4930 O   0  0  0  0  0  0  0  0  0  0  0  0
  192.8570  176.0010  142.5130 C   0  0  0  0  0  0  0  0  0  0  0  0
  192.2750  174.4400  141.8770 S   0  0  0  0  0  0  0  0  0  0  0  0
  194.0780  172.5910  142.7810 C   0  0  0  0  0  0  0  0  0  0  0  0
  193.7190  171.4820  142.2990 O   0  0  0  0  0  0  0  0  0  0  0  0
  195.7680  172.2880  144.4140 O   0  0  0  0  0  0  0  0  0  0  0  0
  194.5940  172.6650  144.1560 C   0  0  0  0  0  0  0  0  0  0  0  0
  192.4120  172.8970  145.0230 O   0  0  0  0  0  1  0  0  0  0  0  0
  193.7500  173.2160  145.2540 C   0  0  0  0  0  2  0  0  0  0  0  0
  1 13  1  6  0  0  0
  1 14  1  0  0  0  0
  2 10  1  1  0  0  0
  2  4  1  0  0  0  0
  3 12  1  0  0  0  0
  5  9  1  0  0  0  0
  6 19  1  6  0  0  0
  6  1  1  0  0  0  0
  6 14  1  0  0  0  0
  7  8  1  6  0  0  0
  7  2  1  0  0  0  0
  7  9  1  0  0  0  0
  9 16  1  6  0  0  0
 10 12  1  0  0  0  0
 10  4  2  0  0  0  0
 11  5  1  0  0  0  0
 13  8  1  0  0  0  0
 14  3  1  1  0  0  0
 15 11  1  0  0  0  0
 15  8  2  0  0  0  0
 16 17  2  0  0  0  0
 16 18  1  0  0  0  0
 20 22  1  0  0  0  0
 20 25  1  1  0  0  0
 22 21  1  0  0  0  0
 23 19  1  0  0  0  0
 23 21  2  0  0  0  0
 24 20  1  0  0  0  0
 24 23  1  0  0  0  0
 25 28  1  0  0  0  0
 26 25  2  0  0  0  0
 28 27  2  0  0  0  0
 28 30  1  0  0  0  0
 29 30  1  0  0  0  0
M  END
>  <MODEL>
4

>  <REMARK>
 VINA RESULT:      -7.0      6.007     10.170
  Name = 
  6 active torsions:
  status: ('A' for Active; 'I' for Inactive)
    1  A    between atoms: C_1  and  C_21
    2  A    between atoms: C_2  and  C_8
    3  A    between atoms: C_8  and  C_28
    4  A    between atoms: C_9  and  C_16
    5  A    between atoms: C_9  and  C_17
    6  A    between atoms: C_18  and  C_28
                            x       y       z     vdW  Elec       q    Type
                         _______ _______ _______ _____ _____    ______ ____

>  <TORSDO>
F 6

$$$$
=
 OpenBabel11062419443D

 30 34  0  0  1  0  0  0  0  0999 V2000
  188.8500  176.8410  143.4840 C   0  0  1  0  0  3  0  0  0  0  0  0
  190.2160  174.1420  144.9990 C   0  0  1  0  0  3  0  0  0  0  0  0
  189.1890  175.1180  141.8060 C   0  0  0  0  0  2  0  0  0  0  0  0
  191.1550  173.2100  144.6540 N   0  0  0  0  0  0  0  0  0  0  0  0
  191.7250  175.4980  147.6440 C   0  0  0  0  0  2  0  0  0  0  0  0
  187.6700  176.9920  142.5190 C   0  0  1  0  0  3  0  0  0  0  0  0
  190.8370  175.5210  145.2550 C   0  0  1  0  0  3  0  0  0  0  0  0
  189.7730  176.4900  145.7770 C   0  0  0  0  0  0  0  0  0  0  0  0
  192.0810  175.4210  146.1590 C   0  0  1  0  0  3  0  0  0  0  0  0
  190.3480  173.8280  143.6770 C   0  0  0  0  0  0  0  0  0  0  0  0
  190.9890  176.7970  147.9450 C   0  0  0  0  0  2  0  0  0  0  0  0
  189.9660  173.9880  142.3060 N   0  0  0  0  0  2  0  0  0  0  0  0
  188.5390  176.7970  144.9740 C   0  0  0  0  0  2  0  0  0  0  0  0
  188.2150  175.6190  142.8540 C   0  0  2  0  0  3  0  0  0  0  0  0
  189.8220  176.9930  147.0220 C   0  0  0  0  0  3  0  0  0  0  0  0
  193.1340  176.4130  145.7740 C   0  0  0  0  0  0  0  0  0  0  0  0
  194.1670  176.7280  146.6480 O   0  0  0  0  0  1  0  0  0  0  0  0
  193.0970  176.9470  144.6360 O   0  0  0  0  0  0  0  0  0  0  0  0
  186.3250  177.1950  143.2090 C   0  0  0  0  0  2  0  0  0  0  0  0
  183.3790  178.8420  141.0700 C   0  0  2  0  0  3  0  0  0  0  0  0
  185.5880  177.9830  140.9880 C   0  0  0  0  0  3  0  0  0  0  0  0
  184.5300  178.5390  140.2920 O   0  0  0  0  0  0  0  0  0  0  0  0
  185.3420  177.8070  142.2710 C   0  0  0  0  0  0  0  0  0  0  0  0
  183.7040  178.2900  142.7840 S   0  0  0  0  0  0  0  0  0  0  0  0
  182.1790  178.1420  140.5170 C   0  0  0  0  0  0  0  0  0  0  0  0
  182.3300  177.1840  139.7100 O   0  0  0  0  0  0  0  0  0  0  0  0
  180.6750  179.4210  141.8270 O   0  0  0  0  0  0  0  0  0  0  0  0
  180.8280  178.5520  140.9290 C   0  0  0  0  0  0  0  0  0  0  0  0
  178.4870  178.2680  141.0190 O   0  0  0  0  0  1  0  0  0  0  0  0
  179.6240  177.9720  140.2670 C   0  0  0  0  0  2  0  0  0  0  0  0
  1 13  1  1  0  0  0
  2 10  1  6  0  0  0
  2  7  1  0  0  0  0
  3 12  1  0  0  0  0
  4  2  1  0  0  0  0
  5 11  1  0  0  0  0
  6 14  1  0  0  0  0
  6 19  1  1  0  0  0
  6  1  1  0  0  0  0
  7  8  1  1  0  0  0
  7  9  1  0  0  0  0
  8 15  2  0  0  0  0
  9 16  1  6  0  0  0
  9  5  1  0  0  0  0
 10  4  2  0  0  0  0
 12 10  1  0  0  0  0
 13  8  1  0  0  0  0
 14  3  1  6  0  0  0
 14  1  1  0  0  0  0
 15 11  1  0  0  0  0
 16 17  1  0  0  0  0
 18 16  2  0  0  0  0
 20 25  1  6  0  0  0
 20 24  1  0  0  0  0
 21 23  2  0  0  0  0
 22 21  1  0  0  0  0
 22 20  1  0  0  0  0
 23 24  1  0  0  0  0
 23 19  1  0  0  0  0
 25 28  1  0  0  0  0
 26 25  2  0  0  0  0
 28 27  2  0  0  0  0
 30 28  1  0  0  0  0
 30 29  1  0  0  0  0
M  END
>  <MODEL>
5

>  <REMARK>
 VINA RESULT:      -6.9      1.882      3.123
  Name = 
  6 active torsions:
  status: ('A' for Active; 'I' for Inactive)
    1  A    between atoms: C_1  and  C_21
    2  A    between atoms: C_2  and  C_8
    3  A    between atoms: C_8  and  C_28
    4  A    between atoms: C_9  and  C_16
    5  A    between atoms: C_9  and  C_17
    6  A    between atoms: C_18  and  C_28
                            x       y       z     vdW  Elec       q    Type
                         _______ _______ _______ _____ _____    ______ ____

>  <TORSDO>
F 6

$$$$
=
 OpenBabel11062419443D

 30 34  0  0  1  0  0  0  0  0999 V2000
  188.6510  175.4350  145.2420 C   0  0  1  0  0  3  0  0  0  0  0  0
  188.6590  178.1820  143.2680 C   0  0  1  0  0  3  0  0  0  0  0  0
  189.9080  174.9200  143.2290 C   0  0  0  0  0  2  0  0  0  0  0  0
  188.5860  178.4070  141.9210 N   0  0  0  0  0  0  0  0  0  0  0  0
  185.8990  179.7710  144.2490 C   0  0  0  0  0  2  0  0  0  0  0  0
  189.7710  174.4960  145.7040 C   0  0  1  0  0  3  0  0  0  0  0  0
  187.3250  177.6970  143.8470 C   0  0  1  0  0  3  0  0  0  0  0  0
  187.4160  177.6000  145.3720 C   0  0  0  0  0  0  0  0  0  0  0  0
  186.1470  178.5590  143.3510 C   0  0  1  0  0  3  0  0  0  0  0  0
  189.1610  177.2250  142.4320 C   0  0  0  0  0  0  0  0  0  0  0  0
  185.6240  179.3230  145.6790 C   0  0  0  0  0  2  0  0  0  0  0  0
  189.8000  175.9630  142.2130 N   0  0  0  0  0  2  0  0  0  0  0  0
  188.4350  176.7160  146.0360 C   0  0  0  0  0  2  0  0  0  0  0  0
  190.0280  175.5180  144.6160 C   0  0  2  0  0  3  0  0  0  0  0  0
  186.6950  178.3970  146.1780 C   0  0  0  0  0  3  0  0  0  0  0  0
  184.9100  177.7460  143.1370 C   0  0  0  0  0  0  0  0  0  0  0  0
  183.7510  178.3320  142.6410 O   0  0  0  0  0  0  0  0  0  0  0  0
  184.9260  176.5120  143.3840 O   0  0  0  0  0  1  0  0  0  0  0  0
  190.4560  174.9330  146.9950 C   0  0  0  0  0  2  0  0  0  0  0  0
  194.2790  175.9910  146.5160 C   0  0  2  0  0  3  0  0  0  0  0  0
  192.7130  174.2240  146.2900 C   0  0  0  0  0  3  0  0  0  0  0  0
  194.0200  174.6480  146.1270 O   0  0  0  0  0  0  0  0  0  0  0  0
  191.9110  175.1550  146.7670 C   0  0  0  0  0  0  0  0  0  0  0  0
  192.6930  176.7330  147.0500 S   0  0  0  0  0  0  0  0  0  0  0  0
  194.8550  176.7620  145.3710 C   0  0  0  0  0  0  0  0  0  0  0  0
  194.9330  178.0190  145.4420 O   0  0  0  0  0  0  0  0  0  0  0  0
  196.4370  175.4280  144.2180 O   0  0  0  0  0  0  0  0  0  0  0  0
  195.3480  176.0590  144.1780 C   0  0  0  0  0  0  0  0  0  0  0  0
  195.4100  176.0120  141.8200 O   0  0  0  0  0  1  0  0  0  0  0  0
  194.5510  176.0530  142.9180 C   0  0  0  0  0  2  0  0  0  0  0  0
  1  6  1  0  0  0  0
  1 13  1  1  0  0  0
  2  4  1  6  0  0  0
  2  7  1  0  0  0  0
  4 10  2  0  0  0  0
  5 11  1  0  0  0  0
  6 19  1  1  0  0  0
  7  8  1  1  0  0  0
  8 13  1  0  0  0  0
  8 15  2  0  0  0  0
  9 16  1  1  0  0  0
  9  7  1  0  0  0  0
  9  5  1  0  0  0  0
 10  2  1  0  0  0  0
 11 15  1  0  0  0  0
 12 10  1  0  0  0  0
 12  3  1  0  0  0  0
 14  3  1  6  0  0  0
 14  1  1  0  0  0  0
 14  6  1  0  0  0  0
 16 18  1  0  0  0  0
 17 16  2  0  0  0  0
 20 25  1  6  0  0  0
 20 24  1  0  0  0  0
 21 23  2  0  0  0  0
 22 21  1  0  0  0  0
 22 20  1  0  0  0  0
 23 19  1  0  0  0  0
 23 24  1  0  0  0  0
 25 26  2  0  0  0  0
 28 27  2  0  0  0  0
 28 25  1  0  0  0  0
 29 30  1  0  0  0  0
 30 28  1  0  0  0  0
M  END
>  <MODEL>
6

>  <REMARK>
 VINA RESULT:      -6.8      4.386     10.236
  Name = 
  6 active torsions:
  status: ('A' for Active; 'I' for Inactive)
    1  A    between atoms: C_1  and  C_21
    2  A    between atoms: C_2  and  C_8
    3  A    between atoms: C_8  and  C_28
    4  A    between atoms: C_9  and  C_16
    5  A    between atoms: C_9  and  C_17
    6  A    between atoms: C_18  and  C_28
                            x       y       z     vdW  Elec       q    Type
                         _______ _______ _______ _____ _____    ______ ____

>  <TORSDO>
F 6

$$$$
=
 OpenBabel11062419443D

 30 34  0  0  1  0  0  0  0  0999 V2000
  190.7790  177.4960  145.0490 C   0  0  1  0  0  3  0  0  0  0  0  0
  188.5920  175.3040  146.4120 C   0  0  1  0  0  3  0  0  0  0  0  0
  191.9430  176.2280  146.7620 C   0  0  0  0  0  2  0  0  0  0  0  0
  188.3640  174.8200  147.6700 N   0  0  0  0  0  0  0  0  0  0  0  0
  185.6580  176.7780  145.8410 C   0  0  0  0  0  2  0  0  0  0  0  0
  192.2060  177.3300  144.5170 C   0  0  1  0  0  3  0  0  0  0  0  0
  188.1700  176.7710  146.2710 C   0  0  1  0  0  3  0  0  0  0  0  0
  188.3090  177.2220  144.8150 C   0  0  0  0  0  0  0  0  0  0  0  0
  186.7690  177.0150  146.8640 C   0  0  1  0  0  3  0  0  0  0  0  0
  189.6540  175.2210  147.2680 C   0  0  0  0  0  0  0  0  0  0  0  0
  185.8530  177.6790  144.6290 C   0  0  0  0  0  2  0  0  0  0  0  0
  191.0440  175.3990  147.5610 N   0  0  0  0  0  2  0  0  0  0  0  0
  189.6320  177.1620  144.1040 C   0  0  0  0  0  2  0  0  0  0  0  0
  191.5460  176.2140  145.3000 C   0  0  2  0  0  3  0  0  0  0  0  0
  187.2410  177.5540  144.0700 C   0  0  0  0  0  3  0  0  0  0  0  0
  186.6630  178.3570  147.5180 C   0  0  0  0  0  0  0  0  0  0  0  0
  187.7180  178.8690  148.2640 O   0  0  0  0  0  1  0  0  0  0  0  0
  185.6180  179.0400  147.3690 O   0  0  0  0  0  0  0  0  0  0  0  0
  192.2790  176.9510  143.0410 C   0  0  0  0  0  2  0  0  0  0  0  0
  195.6320  174.7980  142.7480 C   0  0  2  0  0  3  0  0  0  0  0  0
  193.5590  175.3060  141.7170 C   0  0  0  0  0  3  0  0  0  0  0  0
  194.7450  174.5970  141.6560 O   0  0  0  0  0  0  0  0  0  0  0  0
  193.4560  176.0750  142.7820 C   0  0  0  0  0  0  0  0  0  0  0  0
  194.8770  176.0410  143.8590 S   0  0  0  0  0  0  0  0  0  0  0  0
  196.9610  175.2780  142.2580 C   0  0  0  0  0  0  0  0  0  0  0  0
  197.6290  176.0890  142.9560 O   0  0  0  0  0  0  0  0  0  0  0  0
  197.9410  173.6150  140.8830 O   0  0  0  0  0  0  0  0  0  0  0  0
  197.4980  174.7900  140.9780 C   0  0  0  0  0  0  0  0  0  0  0  0
  197.1950  174.9040  138.6410 O   0  0  0  0  0  1  0  0  0  0  0  0
  197.4940  175.6650  139.7710 C   0  0  0  0  0  2  0  0  0  0  0  0
  1 13  1  6  0  0  0
  1 14  1  0  0  0  0
  2 10  1  1  0  0  0
  2  4  1  0  0  0  0
  3 12  1  0  0  0  0
  5  9  1  0  0  0  0
  6 19  1  6  0  0  0
  6  1  1  0  0  0  0
  6 14  1  0  0  0  0
  7  8  1  6  0  0  0
  7  2  1  0  0  0  0
  7  9  1  0  0  0  0
  9 16  1  6  0  0  0
 10 12  1  0  0  0  0
 10  4  2  0  0  0  0
 11  5  1  0  0  0  0
 13  8  1  0  0  0  0
 14  3  1  1  0  0  0
 15 11  1  0  0  0  0
 15  8  2  0  0  0  0
 16 17  1  0  0  0  0
 18 16  2  0  0  0  0
 20 25  1  6  0  0  0
 20 24  1  0  0  0  0
 21 23  2  0  0  0  0
 22 21  1  0  0  0  0
 22 20  1  0  0  0  0
 23 19  1  0  0  0  0
 23 24  1  0  0  0  0
 25 26  2  0  0  0  0
 27 28  2  0  0  0  0
 28 25  1  0  0  0  0
 29 30  1  0  0  0  0
 30 28  1  0  0  0  0
M  END
>  <MODEL>
7

>  <REMARK>
 VINA RESULT:      -6.7      6.180     11.034
  Name = 
  6 active torsions:
  status: ('A' for Active; 'I' for Inactive)
    1  A    between atoms: C_1  and  C_21
    2  A    between atoms: C_2  and  C_8
    3  A    between atoms: C_8  and  C_28
    4  A    between atoms: C_9  and  C_16
    5  A    between atoms: C_9  and  C_17
    6  A    between atoms: C_18  and  C_28
                            x       y       z     vdW  Elec       q    Type
                         _______ _______ _______ _____ _____    ______ ____

>  <TORSDO>
F 6

$$$$
=
 OpenBabel11062419443D

 30 34  0  0  1  0  0  0  0  0999 V2000
  190.5420  177.6170  144.9090 C   0  0  1  0  0  3  0  0  0  0  0  0
  188.5430  175.3430  146.4200 C   0  0  1  0  0  3  0  0  0  0  0  0
  191.8730  176.3940  146.5310 C   0  0  0  0  0  2  0  0  0  0  0  0
  188.4240  174.8510  147.6890 N   0  0  0  0  0  0  0  0  0  0  0  0
  185.5220  176.7050  146.0640 C   0  0  0  0  0  2  0  0  0  0  0  0
  191.9320  177.5050  144.2760 C   0  0  1  0  0  3  0  0  0  0  0  0
  188.0570  176.7940  146.3130 C   0  0  1  0  0  3  0  0  0  0  0  0
  188.0740  177.2500  144.8520 C   0  0  0  0  0  0  0  0  0  0  0  0
  186.6930  176.9850  147.0060 C   0  0  1  0  0  3  0  0  0  0  0  0
  189.6660  175.3010  147.1960 C   0  0  0  0  0  0  0  0  0  0  0  0
  185.5950  177.6130  144.8440 C   0  0  0  0  0  2  0  0  0  0  0  0
  191.0660  175.5320  147.3890 N   0  0  0  0  0  2  0  0  0  0  0  0
  189.3440  177.2400  144.0480 C   0  0  0  0  0  2  0  0  0  0  0  0
  191.3730  176.3650  145.1000 C   0  0  2  0  0  3  0  0  0  0  0  0
  186.9430  177.5410  144.1870 C   0  0  0  0  0  3  0  0  0  0  0  0
  186.5850  178.3220  147.6690 C   0  0  0  0  0  0  0  0  0  0  0  0
  185.3770  179.0090  147.6890 O   0  0  0  0  0  0  0  0  0  0  0  0
  187.5920  178.8180  148.2360 O   0  0  0  0  0  1  0  0  0  0  0  0
  191.9140  177.1290  142.7970 C   0  0  0  0  0  2  0  0  0  0  0  0
  192.3400  173.2050  142.1800 C   0  0  2  0  0  3  0  0  0  0  0  0
  193.4220  175.1790  142.9270 C   0  0  0  0  0  3  0  0  0  0  0  0
  193.5090  173.8150  142.7100 O   0  0  0  0  0  0  0  0  0  0  0  0
  192.2460  175.6880  142.6180 C   0  0  0  0  0  0  0  0  0  0  0  0
  191.0520  174.4980  142.0370 S   0  0  0  0  0  0  0  0  0  0  0  0
  191.8740  172.1040  143.0800 C   0  0  0  0  0  0  0  0  0  0  0  0
  192.6270  171.6900  144.0020 O   0  0  0  0  0  0  0  0  0  0  0  0
  190.3720  170.5190  142.1600 O   0  0  0  0  0  0  0  0  0  0  0  0
  190.5350  171.5220  142.9040 C   0  0  0  0  0  0  0  0  0  0  0  0
  189.5580  171.9710  145.0050 O   0  0  0  0  0  1  0  0  0  0  0  0
  189.3610  172.0870  143.6290 C   0  0  0  0  0  2  0  0  0  0  0  0
  1 13  1  6  0  0  0
  1 14  1  0  0  0  0
  2 10  1  1  0  0  0
  2  4  1  0  0  0  0
  3 12  1  0  0  0  0
  5  9  1  0  0  0  0
  6 19  1  6  0  0  0
  6  1  1  0  0  0  0
  6 14  1  0  0  0  0
  7  8  1  6  0  0  0
  7  2  1  0  0  0  0
  7  9  1  0  0  0  0
  9 16  1  6  0  0  0
 10 12  1  0  0  0  0
 10  4  2  0  0  0  0
 11  5  1  0  0  0  0
 13  8  1  0  0  0  0
 14  3  1  1  0  0  0
 15 11  1  0  0  0  0
 15  8  2  0  0  0  0
 16 17  2  0  0  0  0
 16 18  1  0  0  0  0
 20 22  1  0  0  0  0
 20 25  1  1  0  0  0
 22 21  1  0  0  0  0
 23 19  1  0  0  0  0
 23 21  2  0  0  0  0
 24 20  1  0  0  0  0
 24 23  1  0  0  0  0
 25 26  2  0  0  0  0
 27 28  2  0  0  0  0
 28 25  1  0  0  0  0
 28 30  1  0  0  0  0
 30 29  1  0  0  0  0
M  END
>  <MODEL>
8

>  <REMARK>
 VINA RESULT:      -6.7      5.945      9.051
  Name = 
  6 active torsions:
  status: ('A' for Active; 'I' for Inactive)
    1  A    between atoms: C_1  and  C_21
    2  A    between atoms: C_2  and  C_8
    3  A    between atoms: C_8  and  C_28
    4  A    between atoms: C_9  and  C_16
    5  A    between atoms: C_9  and  C_17
    6  A    between atoms: C_18  and  C_28
                            x       y       z     vdW  Elec       q    Type
                         _______ _______ _______ _____ _____    ______ ____

>  <TORSDO>
F 6

$$$$
=
 OpenBabel11062419443D

 30 34  0  0  1  0  0  0  0  0999 V2000
  190.5800  176.5520  144.8820 C   0  0  1  0  0  3  0  0  0  0  0  0
  189.1510  174.7110  142.4290 C   0  0  1  0  0  3  0  0  0  0  0  0
  190.6660  174.2150  145.5370 C   0  0  0  0  0  2  0  0  0  0  0  0
  188.3550  173.6000  142.3900 N   0  0  0  0  0  0  0  0  0  0  0  0
  187.1040  176.9120  140.9890 C   0  0  0  0  0  2  0  0  0  0  0  0
  191.9010  176.4030  145.6430 C   0  0  1  0  0  3  0  0  0  0  0  0
  188.4020  175.9420  142.9560 C   0  0  1  0  0  3  0  0  0  0  0  0
  189.2870  177.1860  142.8430 C   0  0  0  0  0  0  0  0  0  0  0  0
  187.0260  176.0970  142.2800 C   0  0  1  0  0  3  0  0  0  0  0  0
  189.2800  173.7980  143.4360 C   0  0  0  0  0  0  0  0  0  0  0  0
  187.6830  178.2930  141.2690 C   0  0  0  0  0  2  0  0  0  0  0  0
  189.8910  173.3510  144.6510 N   0  0  0  0  0  2  0  0  0  0  0  0
  190.6200  177.2580  143.5330 C   0  0  0  0  0  2  0  0  0  0  0  0
  191.4000  175.2850  144.7530 C   0  0  2  0  0  3  0  0  0  0  0  0
  188.9810  178.2010  142.0170 C   0  0  0  0  0  3  0  0  0  0  0  0
  185.9940  176.6260  143.2260 C   0  0  0  0  0  0  0  0  0  0  0  0
  184.8820  177.3130  142.7540 O   0  0  0  0  0  0  0  0  0  0  0  0
  186.1230  176.4250  144.4610 O   0  0  0  0  0  1  0  0  0  0  0  0
  193.0840  177.1000  144.9780 C   0  0  0  0  0  2  0  0  0  0  0  0
  196.3610  174.8400  144.6460 C   0  0  2  0  0  3  0  0  0  0  0  0
  194.7390  175.6920  146.1500 C   0  0  0  0  0  3  0  0  0  0  0  0
  195.8640  174.9070  145.9760 O   0  0  0  0  0  0  0  0  0  0  0  0
  194.2990  176.2400  145.0350 C   0  0  0  0  0  0  0  0  0  0  0  0
  195.2330  175.8090  143.5790 S   0  0  0  0  0  0  0  0  0  0  0  0
  196.4230  173.4190  144.1830 C   0  0  0  0  0  0  0  0  0  0  0  0
  196.7830  173.1620  143.0020 O   0  0  0  0  0  0  0  0  0  0  0  0
  196.9030  171.9760  146.0000 O   0  0  0  0  0  0  0  0  0  0  0  0
  196.0870  172.3250  145.1070 C   0  0  0  0  0  0  0  0  0  0  0  0
  193.8190  172.3480  145.7590 O   0  0  0  0  0  1  0  0  0  0  0  0
  194.7660  171.6380  145.0200 C   0  0  0  0  0  2  0  0  0  0  0  0
  1 13  1  6  0  0  0
  1  6  1  0  0  0  0
  2  4  1  6  0  0  0
  2  7  1  0  0  0  0
  2 10  1  0  0  0  0
  4 10  2  0  0  0  0
  5 11  1  0  0  0  0
  5  9  1  0  0  0  0
  6 19  1  6  0  0  0
  7  8  1  6  0  0  0
  8 13  1  0  0  0  0
  9  7  1  0  0  0  0
  9 16  1  1  0  0  0
 10 12  1  0  0  0  0
 11 15  1  0  0  0  0
 12  3  1  0  0  0  0
 14  1  1  0  0  0  0
 14  3  1  1  0  0  0
 14  6  1  0  0  0  0
 15  8  2  0  0  0  0
 16 18  1  0  0  0  0
 17 16  2  0  0  0  0
 19 23  1  0  0  0  0
 20 25  1  6  0  0  0
 20 22  1  0  0  0  0
 22 21  1  0  0  0  0
 23 21  2  0  0  0  0
 24 20  1  0  0  0  0
 24 23  1  0  0  0  0
 25 28  1  0  0  0  0
 26 25  2  0  0  0  0
 28 27  2  0  0  0  0
 30 28  1  0  0  0  0
 30 29  1  0  0  0  0
M  END
>  <MODEL>
9

>  <REMARK>
 VINA RESULT:      -6.7      5.119     11.214
  Name = 
  6 active torsions:
  status: ('A' for Active; 'I' for Inactive)
    1  A    between atoms: C_1  and  C_21
    2  A    between atoms: C_2  and  C_8
    3  A    between atoms: C_8  and  C_28
    4  A    between atoms: C_9  and  C_16
    5  A    between atoms: C_9  and  C_17
    6  A    between atoms: C_18  and  C_28
                            x       y       z     vdW  Elec       q    Type
                         _______ _______ _______ _____ _____    ______ ____

>  <TORSDO>
F 6

$$$$
