=
 OpenBabel11062420213D

 53 57  0  0  1  0  0  0  0  0999 V2000
  188.5270  177.1670  142.5340 C   0  0  1  0  0  3  0  0  0  0  0  0
  188.4790  175.6390  142.4550 C   0  0  0  0  0  2  0  0  0  0  0  0
  189.7220  175.0620  141.7660 C   0  0  0  0  0  2  0  0  0  0  0  0
  188.2290  173.5000  140.7300 O   0  0  0  0  0  0  0  0  0  0  0  0
  189.3440  174.0870  140.6850 C   0  0  0  0  0  0  0  0  0  0  0  0
  190.2450  173.7490  139.6660 O   0  0  0  0  0  0  0  0  0  0  0  0
  192.5280  173.0440  139.1300 C   0  0  2  0  0  3  0  0  0  0  0  0
  192.3540  173.1660  137.6130 C   0  0  0  0  0  2  0  0  0  0  0  0
  190.4580  171.5340  137.6870 C   0  0  0  0  0  2  0  0  0  0  0  0
  191.1940  172.6930  139.8050 C   0  0  2  0  0  3  0  0  0  0  0  0
  190.6220  171.4040  139.2040 C   0  0  0  0  0  2  0  0  0  0  0  0
  191.8000  171.8640  137.0390 C   0  0  0  0  0  2  0  0  0  0  0  0
  193.1090  174.3300  139.7000 C   0  0  0  0  0  2  0  0  0  0  0  0
  195.6330  175.7410  140.3610 C   0  0  1  0  0  3  0  0  0  0  0  0
  197.3690  175.2790  138.5390 C   0  0  0  0  0  2  0  0  0  0  0  0
  194.8590  174.1100  140.1490 P   0  0  1  0  0  0  0  0  0  0  0  0
  195.4870  176.1740  141.6800 O   0  0  0  0  0  1  0  0  0  0  0  0
  194.9740  173.2960  141.4190 O   0  0  0  0  0  0  0  0  0  0  0  0
  197.1140  175.6260  140.0190 C   0  0  0  0  0  2  0  0  0  0  0  0
  196.3100  174.3790  137.8830 C   0  0  0  0  0  2  0  0  0  0  0  0
  195.7980  173.3040  138.8250 C   0  0  0  0  0  2  0  0  0  0  0  0
  189.9700  177.6740  142.5940 C   0  0  0  0  0  2  0  0  0  0  0  0
  190.2950  178.0350  143.9040 O   0  0  0  0  0  0  0  0  0  0  0  0
  191.6890  178.1220  143.9140 C   0  0  0  0  0  2  0  0  0  0  0  0
  192.2970  176.7490  144.1780 C   0  0  0  0  0  2  0  0  0  0  0  0
  193.2210  176.7750  145.3920 C   0  0  0  0  0  2  0  0  0  0  0  0
  194.8880  175.2630  146.1440 O   0  0  0  0  0  1  0  0  0  0  0  0
  194.5300  176.0800  145.0740 C   0  0  0  0  0  2  0  0  0  0  0  0
  187.8710  177.7480  141.4400 O   0  0  0  0  0  0  0  0  0  0  0  0
  184.2740  177.9260  142.3310 C   0  0  0  0  0  3  0  0  0  0  0  0
  183.0890  179.1670  143.9250 O   0  0  0  0  0  1  0  0  0  0  0  0
  186.8410  178.4860  143.4660 C   0  0  0  0  0  2  0  0  0  0  0  0
  185.5920  179.1380  144.0840 C   0  0  2  0  0  0  0  0  0  0  0  0
  185.5200  177.3570  141.7250 C   0  0  0  0  0  2  0  0  0  0  0  0
  186.6950  178.3000  141.9600 C   0  0  2  0  0  3  0  0  0  0  0  0
  184.2980  178.7020  143.4200 C   0  0  0  0  0  0  0  0  0  0  0  0
  185.7040  180.5250  143.9610 O   0  0  0  0  0  1  0  0  0  0  0  0
  185.5110  178.7630  145.5640 C   0  0  0  0  0  2  0  0  0  0  0  0
  186.1380  177.0380  147.3680 C   0  0  2  0  0  3  0  0  0  0  0  0
  186.0800  177.3760  145.8740 C   0  0  2  0  0  3  0  0  0  0  0  0
  185.6730  178.1440  148.3100 C   0  0  0  0  0  1  0  0  0  0  0  0
  187.3830  177.5000  146.6350 C   0  0  2  0  0  3  0  0  0  0  0  0
  190.1600  177.3140  147.2190 O   0  0  0  0  0  0  0  0  0  0  0  0
  189.5820  176.2810  146.7840 C   0  0  0  0  0  0  0  0  0  0  0  0
  188.2180  176.3420  146.3630 N   0  0  0  0  0  2  0  0  0  0  0  0
  190.3010  175.0440  146.7270 N   0  0  0  0  0  2  0  0  0  0  0  0
  189.6920  173.8000  146.2920 C   0  0  0  0  0  2  0  0  0  0  0  0
  192.2720  172.9070  143.5700 C   0  0  0  0  0  2  0  0  0  0  0  0
  191.7520  173.3090  144.9450 C   0  0  0  0  0  2  0  0  0  0  0  0
  190.1590  171.6180  143.1590 C   0  0  0  0  0  2  0  0  0  0  0  0
  189.6480  172.0350  144.5360 C   0  0  0  0  0  2  0  0  0  0  0  0
  190.2280  173.3900  144.9270 C   0  0  0  0  0  3  0  0  0  0  0  0
  191.6870  171.5550  143.1610 C   0  0  0  0  0  2  0  0  0  0  0  0
  1  2  1  6  0  0  0
  1 22  1  0  0  0  0
  3  2  1  0  0  0  0
  5  4  2  0  0  0  0
  5  3  1  0  0  0  0
  6  5  1  0  0  0  0
  7 13  1  1  0  0  0
  7 10  1  0  0  0  0
  8  7  1  0  0  0  0
  9 11  1  0  0  0  0
 10  6  1  6  0  0  0
 11 10  1  0  0  0  0
 12  8  1  0  0  0  0
 12  9  1  0  0  0  0
 13 16  1  0  0  0  0
 14 17  1  1  0  0  0
 15 19  1  0  0  0  0
 16 14  1  0  0  0  0
 16 18  2  1  0  0  0
 19 14  1  0  0  0  0
 20 15  1  0  0  0  0
 20 21  1  0  0  0  0
 21 16  1  0  0  0  0
 22 23  1  0  0  0  0
 23 24  1  0  0  0  0
 24 25  1  0  0  0  0
 25 26  1  0  0  0  0
 28 26  1  0  0  0  0
 28 27  1  0  0  0  0
 29  1  1  0  0  0  0
 30 36  2  0  0  0  0
 32 33  1  0  0  0  0
 33 37  1  6  0  0  0
 33 38  1  0  0  0  0
 34 35  1  0  0  0  0
 34 30  1  0  0  0  0
 35 29  1  1  0  0  0
 35 32  1  0  0  0  0
 36 31  1  0  0  0  0
 36 33  1  0  0  0  0
 39 41  1  1  0  0  0
 40 38  1  1  0  0  0
 40 42  1  0  0  0  0
 40 39  1  0  0  0  0
 42 45  1  6  0  0  0
 42 39  1  0  0  0  0
 44 43  2  0  0  0  0
 45 44  1  0  0  0  0
 46 44  1  0  0  0  0
 47 46  1  0  0  0  0
 48 49  1  0  0  0  0
 50 53  1  0  0  0  0
 50 51  1  0  0  0  0
 51 52  1  0  0  0  0
 52 49  1  0  0  0  0
 52 47  1  0  0  0  0
 53 48  1  0  0  0  0
M  END
>  <MODEL>
1

>  <REMARK>
 VINA RESULT:      -6.5      0.000      0.000
  Name = 
  20 active torsions:
  status: ('A' for Active; 'I' for Inactive)
    1  A    between atoms: C_1  and  C_49
    2  A    between atoms: C_1  and  C_51
    3  A    between atoms: O_2  and  C_27
    4  A    between atoms: O_2  and  C_50
    5  A    between atoms: C_5  and  P_12
    6  A    between atoms: C_5  and  C_28
    7  A    between atoms: O_8  and  C_29
    8  A    between atoms: O_8  and  C_35
    9  A    between atoms: C_14  and  N_39
   10  A    between atoms: C_14  and  C_44
   11  A    between atoms: N_21  and  C_41
   12  A    between atoms: C_23  and  C_48
   13  A    between atoms: O_24  and  C_30
   14  A    between atoms: O_24  and  C_45
   15  A    between atoms: C_27  and  C_43
   16  A    between atoms: C_30  and  C_35
   17  A    between atoms: C_34  and  C_35
   18  A    between atoms: C_34  and  C_43
   19  A    between atoms: C_38  and  C_48
   20  A    between atoms: C_45  and  C_51
                            x       y       z     vdW  Elec       q    Type
                         _______ _______ _______ _____ _____    ______ ____

>  <TORSDO>
F 20

$$$$
=
 OpenBabel11062420213D

 53 57  0  0  1  0  0  0  0  0999 V2000
  188.3640  176.8660  141.9890 C   0  0  1  0  0  3  0  0  0  0  0  0
  188.3050  175.4070  141.5310 C   0  0  0  0  0  2  0  0  0  0  0  0
  188.6220  174.4350  142.6750 C   0  0  0  0  0  2  0  0  0  0  0  0
  187.2110  172.5870  142.0920 O   0  0  0  0  0  0  0  0  0  0  0  0
  188.3870  173.0080  142.2590 C   0  0  0  0  0  0  0  0  0  0  0  0
  189.4520  172.1050  142.1350 O   0  0  0  0  0  0  0  0  0  0  0  0
  190.9680  171.8180  140.2330 C   0  0  2  0  0  3  0  0  0  0  0  0
  191.0910  170.2980  140.3880 C   0  0  0  0  0  2  0  0  0  0  0  0
  191.9510  170.5930  142.7200 C   0  0  0  0  0  2  0  0  0  0  0  0
  190.7160  172.4850  141.5940 C   0  0  2  0  0  3  0  0  0  0  0  0
  191.8310  172.1140  142.5770 C   0  0  0  0  0  2  0  0  0  0  0  0
  192.2190  169.9570  141.3590 C   0  0  0  0  0  2  0  0  0  0  0  0
  189.8640  172.1600  139.2420 C   0  0  0  0  0  2  0  0  0  0  0  0
  189.2100  173.1930  136.5400 C   0  0  1  0  0  3  0  0  0  0  0  0
  189.9340  171.4860  134.7780 C   0  0  0  0  0  2  0  0  0  0  0  0
  190.5630  172.7290  137.6610 P   0  0  1  0  0  0  0  0  0  0  0  0
  188.8740  174.5360  136.7230 O   0  0  0  0  0  1  0  0  0  0  0  0
  191.4900  173.9020  137.8930 O   0  0  0  0  0  0  0  0  0  0  0  0
  189.6670  172.9690  135.1040 C   0  0  0  0  0  2  0  0  0  0  0  0
  190.4710  170.6420  135.9440 C   0  0  0  0  0  2  0  0  0  0  0  0
  191.4600  171.4060  136.8060 C   0  0  0  0  0  2  0  0  0  0  0  0
  189.8110  177.3430  142.1360 C   0  0  0  0  0  2  0  0  0  0  0  0
  190.1320  177.4860  143.4870 O   0  0  0  0  0  0  0  0  0  0  0  0
  191.5230  177.3650  143.5370 C   0  0  0  0  0  2  0  0  0  0  0  0
  191.9700  176.1400  142.7480 C   0  0  0  0  0  2  0  0  0  0  0  0
  193.4740  176.1630  142.4920 C   0  0  0  0  0  2  0  0  0  0  0  0
  194.3310  175.5840  140.3560 O   0  0  0  0  0  1  0  0  0  0  0  0
  193.8670  175.0410  141.5510 C   0  0  0  0  0  2  0  0  0  0  0  0
  187.6820  177.7020  141.0950 O   0  0  0  0  0  0  0  0  0  0  0  0
  184.1850  178.4990  142.0430 C   0  0  0  0  0  3  0  0  0  0  0  0
  183.1970  179.1740  144.0580 O   0  0  0  0  0  1  0  0  0  0  0  0
  186.6570  177.7130  143.2520 C   0  0  0  0  0  2  0  0  0  0  0  0
  185.5650  178.3490  144.1300 C   0  0  2  0  0  0  0  0  0  0  0  0
  185.2960  177.9290  141.2160 C   0  0  0  0  0  2  0  0  0  0  0  0
  186.6440  178.2760  141.8370 C   0  0  2  0  0  3  0  0  0  0  0  0
  184.2890  178.6570  143.3670 C   0  0  0  0  0  0  0  0  0  0  0  0
  186.0580  179.5420  144.6640 O   0  0  0  0  0  1  0  0  0  0  0  0
  185.2140  177.3890  145.2680 C   0  0  0  0  0  2  0  0  0  0  0  0
  186.6190  176.6820  147.3040 C   0  0  2  0  0  3  0  0  0  0  0  0
  186.4150  176.5940  145.7870 C   0  0  2  0  0  3  0  0  0  0  0  0
  185.6360  177.5800  148.0490 C   0  0  0  0  0  1  0  0  0  0  0  0
  187.4550  177.5310  146.3650 C   0  0  2  0  0  3  0  0  0  0  0  0
  189.7420  178.2860  147.8780 O   0  0  0  0  0  0  0  0  0  0  0  0
  189.8470  177.2870  147.1150 C   0  0  0  0  0  0  0  0  0  0  0  0
  188.7720  176.9290  146.2440 N   0  0  0  0  0  2  0  0  0  0  0  0
  191.0470  176.5070  147.1390 N   0  0  0  0  0  2  0  0  0  0  0  0
  191.2260  175.3120  146.3340 C   0  0  0  0  0  2  0  0  0  0  0  0
  194.3600  173.2270  145.5000 C   0  0  0  0  0  2  0  0  0  0  0  0
  192.9200  173.7150  145.3950 C   0  0  0  0  0  2  0  0  0  0  0  0
  195.0660  175.5070  146.2710 C   0  0  0  0  0  2  0  0  0  0  0  0
  193.6180  175.9810  146.1690 C   0  0  0  0  0  2  0  0  0  0  0  0
  192.6630  174.8180  146.4190 C   0  0  0  0  0  3  0  0  0  0  0  0
  195.3270  174.3870  145.2640 C   0  0  0  0  0  2  0  0  0  0  0  0
  1  2  1  6  0  0  0
  1 22  1  0  0  0  0
  2  3  1  0  0  0  0
  4  5  2  0  0  0  0
  5  3  1  0  0  0  0
  6  5  1  0  0  0  0
  7 13  1  6  0  0  0
  7  8  1  0  0  0  0
  7 10  1  0  0  0  0
  8 12  1  0  0  0  0
 10  6  1  1  0  0  0
 10 11  1  0  0  0  0
 11  9  1  0  0  0  0
 12  9  1  0  0  0  0
 14 17  1  6  0  0  0
 14 16  1  0  0  0  0
 15 19  1  0  0  0  0
 15 20  1  0  0  0  0
 16 18  2  1  0  0  0
 16 13  1  0  0  0  0
 19 14  1  0  0  0  0
 20 21  1  0  0  0  0
 21 16  1  0  0  0  0
 22 23  1  0  0  0  0
 23 24  1  0  0  0  0
 25 24  1  0  0  0  0
 26 25  1  0  0  0  0
 27 28  1  0  0  0  0
 28 26  1  0  0  0  0
 29  1  1  0  0  0  0
 30 36  2  0  0  0  0
 32 33  1  0  0  0  0
 33 37  1  1  0  0  0
 33 38  1  0  0  0  0
 34 35  1  0  0  0  0
 34 30  1  0  0  0  0
 35 29  1  6  0  0  0
 35 32  1  0  0  0  0
 36 31  1  0  0  0  0
 36 33  1  0  0  0  0
 39 41  1  1  0  0  0
 40 38  1  1  0  0  0
 40 42  1  0  0  0  0
 40 39  1  0  0  0  0
 42 45  1  6  0  0  0
 42 39  1  0  0  0  0
 44 46  1  0  0  0  0
 44 43  2  0  0  0  0
 45 44  1  0  0  0  0
 47 52  1  0  0  0  0
 47 46  1  0  0  0  0
 49 48  1  0  0  0  0
 49 52  1  0  0  0  0
 51 50  1  0  0  0  0
 51 52  1  0  0  0  0
 53 48  1  0  0  0  0
 53 50  1  0  0  0  0
M  END
>  <MODEL>
2

>  <REMARK>
 VINA RESULT:      -6.3      2.063      3.809
  Name = 
  20 active torsions:
  status: ('A' for Active; 'I' for Inactive)
    1  A    between atoms: C_1  and  C_49
    2  A    between atoms: C_1  and  C_51
    3  A    between atoms: O_2  and  C_27
    4  A    between atoms: O_2  and  C_50
    5  A    between atoms: C_5  and  P_12
    6  A    between atoms: C_5  and  C_28
    7  A    between atoms: O_8  and  C_29
    8  A    between atoms: O_8  and  C_35
    9  A    between atoms: C_14  and  N_39
   10  A    between atoms: C_14  and  C_44
   11  A    between atoms: N_21  and  C_41
   12  A    between atoms: C_23  and  C_48
   13  A    between atoms: O_24  and  C_30
   14  A    between atoms: O_24  and  C_45
   15  A    between atoms: C_27  and  C_43
   16  A    between atoms: C_30  and  C_35
   17  A    between atoms: C_34  and  C_35
   18  A    between atoms: C_34  and  C_43
   19  A    between atoms: C_38  and  C_48
   20  A    between atoms: C_45  and  C_51
                            x       y       z     vdW  Elec       q    Type
                         _______ _______ _______ _____ _____    ______ ____

>  <TORSDO>
F 20

$$$$
=
 OpenBabel11062420213D

 53 57  0  0  1  0  0  0  0  0999 V2000
  194.7490  173.9640  139.7000 C   0  0  1  0  0  3  0  0  0  0  0  0
  195.0930  175.4250  139.9990 C   0  0  0  0  0  2  0  0  0  0  0  0
  194.6440  175.8430  141.4050 C   0  0  0  0  0  2  0  0  0  0  0  0
  196.6410  177.0270  141.9980 O   0  0  0  0  0  0  0  0  0  0  0  0
  195.8250  176.1130  142.2960 C   0  0  0  0  0  0  0  0  0  0  0  0
  196.0880  175.3110  143.4150 O   0  0  0  0  0  0  0  0  0  0  0  0
  194.8550  174.2950  145.2710 C   0  0  2  0  0  3  0  0  0  0  0  0
  196.0860  174.1130  146.1660 C   0  0  0  0  0  2  0  0  0  0  0  0
  197.1820  172.7210  144.3990 C   0  0  0  0  0  2  0  0  0  0  0  0
  195.2460  174.2210  143.7870 C   0  0  2  0  0  3  0  0  0  0  0  0
  195.9580  172.8960  143.4950 C   0  0  0  0  0  2  0  0  0  0  0  0
  196.7650  172.7790  145.8660 C   0  0  0  0  0  2  0  0  0  0  0  0
  194.1600  175.6100  145.5900 C   0  0  0  0  0  2  0  0  0  0  0  0
  191.2870  175.4240  146.3040 C   0  0  1  0  0  3  0  0  0  0  0  0
  190.2940  173.2950  145.2900 C   0  0  0  0  0  2  0  0  0  0  0  0
  192.4620  175.6240  144.9320 P   0  0  1  0  0  0  0  0  0  0  0  0
  190.9500  176.6710  146.8330 O   0  0  0  0  0  1  0  0  0  0  0  0
  192.2010  176.9160  144.1900 O   0  0  0  0  0  0  0  0  0  0  0  0
  190.0340  174.7350  145.7760 C   0  0  0  0  0  2  0  0  0  0  0  0
  191.6800  173.0490  144.6740 C   0  0  0  0  0  2  0  0  0  0  0  0
  192.1560  174.2180  143.8310 C   0  0  0  0  0  2  0  0  0  0  0  0
  196.0030  173.0870  139.7060 C   0  0  0  0  0  2  0  0  0  0  0  0
  195.8780  172.0690  138.7570 O   0  0  0  0  0  0  0  0  0  0  0  0
  195.9840  172.7190  137.5240 C   0  0  0  0  0  2  0  0  0  0  0  0
  194.9810  172.1340  136.5370 C   0  0  0  0  0  2  0  0  0  0  0  0
  194.6010  170.7050  136.9120 C   0  0  0  0  0  2  0  0  0  0  0  0
  192.4970  171.5710  136.2370 O   0  0  0  0  0  1  0  0  0  0  0  0
  193.2020  170.3850  136.4230 C   0  0  0  0  0  2  0  0  0  0  0  0
  193.8230  173.4650  140.6270 O   0  0  0  0  0  0  0  0  0  0  0  0
  191.4310  170.8380  139.5590 C   0  0  0  0  0  3  0  0  0  0  0  0
  189.4180  170.9100  138.3620 O   0  0  0  0  0  1  0  0  0  0  0  0
  191.5180  173.6600  140.0330 C   0  0  0  0  0  2  0  0  0  0  0  0
  190.3810  173.0800  139.1720 C   0  0  2  0  0  0  0  0  0  0  0  0
  192.5510  171.4490  140.3440 C   0  0  0  0  0  2  0  0  0  0  0  0
  192.8110  172.8730  139.8630 C   0  0  2  0  0  3  0  0  0  0  0  0
  190.4280  171.5670  139.0590 C   0  0  0  0  0  0  0  0  0  0  0  0
  190.4720  173.6220  137.8870 O   0  0  0  0  0  1  0  0  0  0  0  0
  189.0370  173.4650  139.7920 C   0  0  0  0  0  2  0  0  0  0  0  0
  188.7530  173.7810  142.3300 C   0  0  2  0  0  3  0  0  0  0  0  0
  189.1660  174.4070  140.9930 C   0  0  2  0  0  3  0  0  0  0  0  0
  188.2330  172.3490  142.2540 C   0  0  0  0  0  1  0  0  0  0  0  0
  187.8020  174.6960  141.5820 C   0  0  2  0  0  3  0  0  0  0  0  0
  186.8520  177.1030  140.4010 O   0  0  0  0  0  0  0  0  0  0  0  0
  187.2210  177.1470  141.6070 C   0  0  0  0  0  0  0  0  0  0  0  0
  187.8160  176.0020  142.2210 N   0  0  0  0  0  2  0  0  0  0  0  0
  187.0280  178.3510  142.3570 N   0  0  0  0  0  2  0  0  0  0  0  0
  187.3740  178.4650  143.7630 C   0  0  0  0  0  2  0  0  0  0  0  0
  185.4860  177.1010  146.8350 C   0  0  0  0  0  2  0  0  0  0  0  0
  186.6770  177.5060  145.9760 C   0  0  0  0  0  2  0  0  0  0  0  0
  184.1030  178.8860  145.7430 C   0  0  0  0  0  2  0  0  0  0  0  0
  185.3030  179.2760  144.8820 C   0  0  0  0  0  2  0  0  0  0  0  0
  186.1950  178.0630  144.6390 C   0  0  0  0  0  3  0  0  0  0  0  0
  184.5770  178.3050  147.0750 C   0  0  0  0  0  2  0  0  0  0  0  0
  1 22  1  1  0  0  0
  1  2  1  0  0  0  0
  1 29  1  0  0  0  0
  2  3  1  0  0  0  0
  3  5  1  0  0  0  0
  4  5  2  0  0  0  0
  5  6  1  0  0  0  0
  7 13  1  6  0  0  0
  7  8  1  0  0  0  0
  9 12  1  0  0  0  0
 10  6  1  1  0  0  0
 10  7  1  0  0  0  0
 11 10  1  0  0  0  0
 11  9  1  0  0  0  0
 12  8  1  0  0  0  0
 14 17  1  6  0  0  0
 15 19  1  0  0  0  0
 16 18  2  6  0  0  0
 16 13  1  0  0  0  0
 16 14  1  0  0  0  0
 19 14  1  0  0  0  0
 20 15  1  0  0  0  0
 21 20  1  0  0  0  0
 21 16  1  0  0  0  0
 23 22  1  0  0  0  0
 24 23  1  0  0  0  0
 25 26  1  0  0  0  0
 25 24  1  0  0  0  0
 27 28  1  0  0  0  0
 28 26  1  0  0  0  0
 30 34  1  0  0  0  0
 31 36  1  0  0  0  0
 33 37  1  6  0  0  0
 33 38  1  0  0  0  0
 33 32  1  0  0  0  0
 35 32  1  0  0  0  0
 35 34  1  0  0  0  0
 35 29  1  1  0  0  0
 36 33  1  0  0  0  0
 36 30  2  0  0  0  0
 39 41  1  6  0  0  0
 40 38  1  6  0  0  0
 40 42  1  0  0  0  0
 40 39  1  0  0  0  0
 42 45  1  1  0  0  0
 42 39  1  0  0  0  0
 43 44  2  0  0  0  0
 44 45  1  0  0  0  0
 44 46  1  0  0  0  0
 46 47  1  0  0  0  0
 47 52  1  0  0  0  0
 48 53  1  0  0  0  0
 49 48  1  0  0  0  0
 50 53  1  0  0  0  0
 51 50  1  0  0  0  0
 52 51  1  0  0  0  0
 52 49  1  0  0  0  0
M  END
>  <MODEL>
3

>  <REMARK>
 VINA RESULT:      -5.9      2.308      8.233
  Name = 
  20 active torsions:
  status: ('A' for Active; 'I' for Inactive)
    1  A    between atoms: C_1  and  C_49
    2  A    between atoms: C_1  and  C_51
    3  A    between atoms: O_2  and  C_27
    4  A    between atoms: O_2  and  C_50
    5  A    between atoms: C_5  and  P_12
    6  A    between atoms: C_5  and  C_28
    7  A    between atoms: O_8  and  C_29
    8  A    between atoms: O_8  and  C_35
    9  A    between atoms: C_14  and  N_39
   10  A    between atoms: C_14  and  C_44
   11  A    between atoms: N_21  and  C_41
   12  A    between atoms: C_23  and  C_48
   13  A    between atoms: O_24  and  C_30
   14  A    between atoms: O_24  and  C_45
   15  A    between atoms: C_27  and  C_43
   16  A    between atoms: C_30  and  C_35
   17  A    between atoms: C_34  and  C_35
   18  A    between atoms: C_34  and  C_43
   19  A    between atoms: C_38  and  C_48
   20  A    between atoms: C_45  and  C_51
                            x       y       z     vdW  Elec       q    Type
                         _______ _______ _______ _____ _____    ______ ____

>  <TORSDO>
F 20

$$$$
=
 OpenBabel11062420213D

 53 57  0  0  1  0  0  0  0  0999 V2000
  188.7700  173.9540  139.9190 C   0  0  1  0  0  3  0  0  0  0  0  0
  188.7510  174.6950  141.2580 C   0  0  0  0  0  2  0  0  0  0  0  0
  188.4650  173.7490  142.4310 C   0  0  0  0  0  2  0  0  0  0  0  0
  190.2700  172.8300  143.7110 O   0  0  0  0  0  0  0  0  0  0  0  0
  189.5430  173.8330  143.4760 C   0  0  0  0  0  0  0  0  0  0  0  0
  189.7040  174.9830  144.2600 O   0  0  0  0  0  0  0  0  0  0  0  0
  188.7030  176.7890  145.5760 C   0  0  2  0  0  3  0  0  0  0  0  0
  190.0400  177.4230  145.9750 C   0  0  0  0  0  2  0  0  0  0  0  0
  190.7590  175.2710  147.0300 C   0  0  0  0  0  2  0  0  0  0  0  0
  188.8580  175.2750  145.3710 C   0  0  2  0  0  3  0  0  0  0  0  0
  189.4270  174.6260  146.6370 C   0  0  0  0  0  2  0  0  0  0  0  0
  190.5750  176.7700  147.2470 C   0  0  0  0  0  2  0  0  0  0  0  0
  188.1530  177.4590  144.3250 C   0  0  0  0  0  2  0  0  0  0  0  0
  185.5680  178.7790  143.7160 C   0  0  1  0  0  3  0  0  0  0  0  0
  184.1160  178.8220  145.8220 C   0  0  0  0  0  2  0  0  0  0  0  0
  186.3540  177.2120  144.1930 P   0  0  1  0  0  0  0  0  0  0  0  0
  185.5210  178.8890  142.3240 O   0  0  0  0  0  1  0  0  0  0  0  0
  186.0490  176.1320  143.1790 O   0  0  0  0  0  0  0  0  0  0  0  0
  184.1520  178.8070  144.2810 C   0  0  0  0  0  2  0  0  0  0  0  0
  185.2540  178.0560  146.5140 C   0  0  0  0  0  2  0  0  0  0  0  0
  185.6160  176.7730  145.7880 C   0  0  0  0  0  2  0  0  0  0  0  0
  187.9740  174.7130  138.8540 C   0  0  0  0  0  2  0  0  0  0  0  0
  187.3430  175.8190  139.4280 O   0  0  0  0  0  0  0  0  0  0  0  0
  186.8520  176.5500  138.3430 C   0  0  0  0  0  2  0  0  0  0  0  0
  186.9340  175.7160  137.0700 C   0  0  0  0  0  2  0  0  0  0  0  0
  187.2130  176.5910  135.8510 C   0  0  0  0  0  2  0  0  0  0  0  0
  189.2550  175.5070  135.3130 O   0  0  0  0  0  1  0  0  0  0  0  0
  187.9930  175.8110  134.8100 C   0  0  0  0  0  2  0  0  0  0  0  0
  190.0840  173.7580  139.4710 O   0  0  0  0  0  0  0  0  0  0  0  0
  191.1450  170.4020  138.3000 C   0  0  0  0  0  3  0  0  0  0  0  0
  191.7510  168.4400  139.4290 O   0  0  0  0  0  1  0  0  0  0  0  0
  191.3150  172.0660  140.6220 C   0  0  0  0  0  2  0  0  0  0  0  0
  191.5500  170.5520  140.7680 C   0  0  2  0  0  0  0  0  0  0  0  0
  190.8680  171.8710  138.2120 C   0  0  0  0  0  2  0  0  0  0  0  0
  190.2970  172.3770  139.5320 C   0  0  2  0  0  3  0  0  0  0  0  0
  191.4900  169.8070  139.4470 C   0  0  0  0  0  0  0  0  0  0  0  0
  190.5700  170.0270  141.6150 O   0  0  0  0  0  1  0  0  0  0  0  0
  192.9310  170.3160  141.3800 C   0  0  0  0  0  2  0  0  0  0  0  0
  194.9410  171.3600  142.6020 C   0  0  2  0  0  3  0  0  0  0  0  0
  193.5520  171.5760  141.9900 C   0  0  2  0  0  3  0  0  0  0  0  0
  195.4650  169.9290  142.5560 C   0  0  0  0  0  1  0  0  0  0  0  0
  193.7100  171.4120  143.4870 C   0  0  2  0  0  3  0  0  0  0  0  0
  195.3360  172.2310  145.6710 O   0  0  0  0  0  0  0  0  0  0  0  0
  194.5770  173.0930  145.1500 C   0  0  0  0  0  0  0  0  0  0  0  0
  193.6530  172.7150  144.1270 N   0  0  0  0  0  2  0  0  0  0  0  0
  194.6590  174.4560  145.5820 N   0  0  0  0  0  2  0  0  0  0  0  0
  193.8610  175.5170  144.9930 C   0  0  0  0  0  2  0  0  0  0  0  0
  196.9260  176.7490  143.0050 C   0  0  0  0  0  2  0  0  0  0  0  0
  196.1500  176.0060  144.0850 C   0  0  0  0  0  2  0  0  0  0  0  0
  194.9770  176.4980  141.4450 C   0  0  0  0  0  2  0  0  0  0  0  0
  194.2080  175.7620  142.5400 C   0  0  0  0  0  2  0  0  0  0  0  0
  194.6520  176.2460  143.9160 C   0  0  0  0  0  3  0  0  0  0  0  0
  196.4800  176.2810  141.6200 C   0  0  0  0  0  2  0  0  0  0  0  0
  1 22  1  6  0  0  0
  1  2  1  0  0  0  0
  2  3  1  0  0  0  0
  3  5  1  0  0  0  0
  5  4  2  0  0  0  0
  5  6  1  0  0  0  0
  7 13  1  6  0  0  0
  7  8  1  0  0  0  0
  8 12  1  0  0  0  0
  9 12  1  0  0  0  0
 10  6  1  6  0  0  0
 10  7  1  0  0  0  0
 10 11  1  0  0  0  0
 11  9  1  0  0  0  0
 14 17  1  6  0  0  0
 14 16  1  0  0  0  0
 14 19  1  0  0  0  0
 15 20  1  0  0  0  0
 16 18  2  6  0  0  0
 16 13  1  0  0  0  0
 16 21  1  0  0  0  0
 19 15  1  0  0  0  0
 21 20  1  0  0  0  0
 22 23  1  0  0  0  0
 24 23  1  0  0  0  0
 25 24  1  0  0  0  0
 26 25  1  0  0  0  0
 28 27  1  0  0  0  0
 28 26  1  0  0  0  0
 29  1  1  0  0  0  0
 30 36  2  0  0  0  0
 31 36  1  0  0  0  0
 32 33  1  0  0  0  0
 33 38  1  0  0  0  0
 33 37  1  1  0  0  0
 34 30  1  0  0  0  0
 34 35  1  0  0  0  0
 35 29  1  6  0  0  0
 35 32  1  0  0  0  0
 36 33  1  0  0  0  0
 39 41  1  6  0  0  0
 39 42  1  0  0  0  0
 40 38  1  6  0  0  0
 40 39  1  0  0  0  0
 40 42  1  0  0  0  0
 42 45  1  1  0  0  0
 44 46  1  0  0  0  0
 44 43  2  0  0  0  0
 45 44  1  0  0  0  0
 47 46  1  0  0  0  0
 48 49  1  0  0  0  0
 50 53  1  0  0  0  0
 50 51  1  0  0  0  0
 51 52  1  0  0  0  0
 52 49  1  0  0  0  0
 52 47  1  0  0  0  0
 53 48  1  0  0  0  0
M  END
>  <MODEL>
4

>  <REMARK>
 VINA RESULT:      -5.9      3.060      9.227
  Name = 
  20 active torsions:
  status: ('A' for Active; 'I' for Inactive)
    1  A    between atoms: C_1  and  C_49
    2  A    between atoms: C_1  and  C_51
    3  A    between atoms: O_2  and  C_27
    4  A    between atoms: O_2  and  C_50
    5  A    between atoms: C_5  and  P_12
    6  A    between atoms: C_5  and  C_28
    7  A    between atoms: O_8  and  C_29
    8  A    between atoms: O_8  and  C_35
    9  A    between atoms: C_14  and  N_39
   10  A    between atoms: C_14  and  C_44
   11  A    between atoms: N_21  and  C_41
   12  A    between atoms: C_23  and  C_48
   13  A    between atoms: O_24  and  C_30
   14  A    between atoms: O_24  and  C_45
   15  A    between atoms: C_27  and  C_43
   16  A    between atoms: C_30  and  C_35
   17  A    between atoms: C_34  and  C_35
   18  A    between atoms: C_34  and  C_43
   19  A    between atoms: C_38  and  C_48
   20  A    between atoms: C_45  and  C_51
                            x       y       z     vdW  Elec       q    Type
                         _______ _______ _______ _____ _____    ______ ____

>  <TORSDO>
F 20

$$$$
=
 OpenBabel11062420213D

 53 57  0  0  1  0  0  0  0  0999 V2000
  192.4440  176.3050  143.2900 C   0  0  1  0  0  3  0  0  0  0  0  0
  193.3760  176.0460  142.1040 C   0  0  0  0  0  2  0  0  0  0  0  0
  194.4740  175.0310  142.4490 C   0  0  0  0  0  2  0  0  0  0  0  0
  194.9400  172.9230  141.4090 O   0  0  0  0  0  0  0  0  0  0  0  0
  194.0950  173.6450  142.0040 C   0  0  0  0  0  0  0  0  0  0  0  0
  192.7870  173.1660  142.1610 O   0  0  0  0  0  0  0  0  0  0  0  0
  191.3500  171.4940  141.0960 C   0  0  2  0  0  3  0  0  0  0  0  0
  190.0350  172.1380  141.5490 C   0  0  0  0  0  2  0  0  0  0  0  0
  190.7430  171.9300  143.9400 C   0  0  0  0  0  2  0  0  0  0  0  0
  192.4710  171.7760  142.1070 C   0  0  2  0  0  3  0  0  0  0  0  0
  192.0610  171.2860  143.5000 C   0  0  0  0  0  2  0  0  0  0  0  0
  189.6420  171.6200  142.9300 C   0  0  0  0  0  2  0  0  0  0  0  0
  191.7270  171.9860  139.7060 C   0  0  0  0  0  2  0  0  0  0  0  0
  192.3390  170.9870  136.9810 C   0  0  1  0  0  3  0  0  0  0  0  0
  191.1780  168.7370  136.6190 C   0  0  0  0  0  2  0  0  0  0  0  0
  192.5630  170.6760  138.7570 P   0  0  1  0  0  0  0  0  0  0  0  0
  193.3660  171.8050  136.5040 O   0  0  0  0  0  1  0  0  0  0  0  0
  194.0330  170.6330  139.1100 O   0  0  0  0  0  0  0  0  0  0  0  0
  192.3600  169.6530  136.2450 C   0  0  0  0  0  2  0  0  0  0  0  0
  190.6830  168.8590  138.0670 C   0  0  0  0  0  2  0  0  0  0  0  0
  191.8200  169.0510  139.0550 C   0  0  0  0  0  2  0  0  0  0  0  0
  193.2250  176.3720  144.6050 C   0  0  0  0  0  2  0  0  0  0  0  0
  192.4230  176.9180  145.6090 O   0  0  0  0  0  0  0  0  0  0  0  0
  191.8980  175.8140  146.2850 C   0  0  0  0  0  2  0  0  0  0  0  0
  191.0230  176.2770  147.4440 C   0  0  0  0  0  2  0  0  0  0  0  0
  189.6380  176.6990  146.9600 C   0  0  0  0  0  2  0  0  0  0  0  0
  188.9280  174.5500  147.6710 O   0  0  0  0  0  1  0  0  0  0  0  0
  188.7950  175.4800  146.6440 C   0  0  0  0  0  2  0  0  0  0  0  0
  191.7220  177.4930  143.1130 O   0  0  0  0  0  0  0  0  0  0  0  0
  188.7860  175.2310  142.9540 C   0  0  0  0  0  3  0  0  0  0  0  0
  186.4820  175.6220  142.7830 O   0  0  0  0  0  1  0  0  0  0  0  0
  189.4300  177.9380  143.6200 C   0  0  0  0  0  2  0  0  0  0  0  0
  187.9700  177.5750  143.2970 C   0  0  2  0  0  0  0  0  0  0  0  0
  190.2020  175.6380  143.2200 C   0  0  0  0  0  2  0  0  0  0  0  0
  190.4130  177.0940  142.8190 C   0  0  2  0  0  3  0  0  0  0  0  0
  187.7680  176.0960  143.0240 C   0  0  0  0  0  0  0  0  0  0  0  0
  187.5710  178.2910  142.1660 O   0  0  0  0  0  1  0  0  0  0  0  0
  187.0840  177.9610  144.4820 C   0  0  0  0  0  2  0  0  0  0  0  0
  185.1450  179.4420  145.2990 C   0  0  2  0  0  3  0  0  0  0  0  0
  185.9270  178.8890  144.1020 C   0  0  2  0  0  3  0  0  0  0  0  0
  185.6020  178.9480  146.6680 C   0  0  0  0  0  1  0  0  0  0  0  0
  184.6040  178.2700  144.5030 C   0  0  2  0  0  3  0  0  0  0  0  0
  184.3330  177.5820  141.7570 O   0  0  0  0  0  0  0  0  0  0  0  0
  183.4200  178.2790  142.2790 C   0  0  0  0  0  0  0  0  0  0  0  0
  183.5550  178.7540  143.6210 N   0  0  0  0  0  2  0  0  0  0  0  0
  182.2430  178.5780  141.5220 N   0  0  0  0  0  2  0  0  0  0  0  0
  181.1240  179.3250  142.0690 C   0  0  0  0  0  2  0  0  0  0  0  0
  177.8000  179.7730  140.1690 C   0  0  0  0  0  2  0  0  0  0  0  0
  179.0970  180.1770  140.8580 C   0  0  0  0  0  2  0  0  0  0  0  0
  178.8460  177.5940  139.4990 C   0  0  0  0  0  2  0  0  0  0  0  0
  180.1370  178.0090  140.2000 C   0  0  0  0  0  2  0  0  0  0  0  0
  179.8290  178.9390  141.3690 C   0  0  0  0  0  3  0  0  0  0  0  0
  178.0950  178.8300  139.0030 C   0  0  0  0  0  2  0  0  0  0  0  0
  1  2  1  6  0  0  0
  1 22  1  0  0  0  0
  2  3  1  0  0  0  0
  4  5  2  0  0  0  0
  5  6  1  0  0  0  0
  5  3  1  0  0  0  0
  7 13  1  6  0  0  0
  7  8  1  0  0  0  0
  7 10  1  0  0  0  0
  8 12  1  0  0  0  0
 10  6  1  1  0  0  0
 10 11  1  0  0  0  0
 11  9  1  0  0  0  0
 12  9  1  0  0  0  0
 14 17  1  6  0  0  0
 14 16  1  0  0  0  0
 15 20  1  0  0  0  0
 16 21  1  0  0  0  0
 16 18  2  1  0  0  0
 16 13  1  0  0  0  0
 19 15  1  0  0  0  0
 19 14  1  0  0  0  0
 20 21  1  0  0  0  0
 22 23  1  0  0  0  0
 23 24  1  0  0  0  0
 24 25  1  0  0  0  0
 26 25  1  0  0  0  0
 28 26  1  0  0  0  0
 28 27  1  0  0  0  0
 29  1  1  0  0  0  0
 30 36  2  0  0  0  0
 30 34  1  0  0  0  0
 31 36  1  0  0  0  0
 33 37  1  6  0  0  0
 33 32  1  0  0  0  0
 33 38  1  0  0  0  0
 35 29  1  1  0  0  0
 35 34  1  0  0  0  0
 35 32  1  0  0  0  0
 36 33  1  0  0  0  0
 39 41  1  1  0  0  0
 40 38  1  1  0  0  0
 40 42  1  0  0  0  0
 40 39  1  0  0  0  0
 42 45  1  6  0  0  0
 42 39  1  0  0  0  0
 43 44  2  0  0  0  0
 44 45  1  0  0  0  0
 46 47  1  0  0  0  0
 46 44  1  0  0  0  0
 48 49  1  0  0  0  0
 49 52  1  0  0  0  0
 50 51  1  0  0  0  0
 51 52  1  0  0  0  0
 52 47  1  0  0  0  0
 53 50  1  0  0  0  0
 53 48  1  0  0  0  0
M  END
>  <MODEL>
5

>  <REMARK>
 VINA RESULT:      -5.7      3.094      7.026
  Name = 
  20 active torsions:
  status: ('A' for Active; 'I' for Inactive)
    1  A    between atoms: C_1  and  C_49
    2  A    between atoms: C_1  and  C_51
    3  A    between atoms: O_2  and  C_27
    4  A    between atoms: O_2  and  C_50
    5  A    between atoms: C_5  and  P_12
    6  A    between atoms: C_5  and  C_28
    7  A    between atoms: O_8  and  C_29
    8  A    between atoms: O_8  and  C_35
    9  A    between atoms: C_14  and  N_39
   10  A    between atoms: C_14  and  C_44
   11  A    between atoms: N_21  and  C_41
   12  A    between atoms: C_23  and  C_48
   13  A    between atoms: O_24  and  C_30
   14  A    between atoms: O_24  and  C_45
   15  A    between atoms: C_27  and  C_43
   16  A    between atoms: C_30  and  C_35
   17  A    between atoms: C_34  and  C_35
   18  A    between atoms: C_34  and  C_43
   19  A    between atoms: C_38  and  C_48
   20  A    between atoms: C_45  and  C_51
                            x       y       z     vdW  Elec       q    Type
                         _______ _______ _______ _____ _____    ______ ____

>  <TORSDO>
F 20

$$$$
=
 OpenBabel11062420213D

 53 57  0  0  1  0  0  0  0  0999 V2000
  192.6320  176.1070  143.1780 C   0  0  1  0  0  3  0  0  0  0  0  0
  193.3880  175.7800  141.8880 C   0  0  0  0  0  2  0  0  0  0  0  0
  194.7800  176.4240  141.8620 C   0  0  0  0  0  2  0  0  0  0  0  0
  196.7750  176.2750  140.5430 O   0  0  0  0  0  0  0  0  0  0  0  0
  195.6780  175.7440  140.8650 C   0  0  0  0  0  0  0  0  0  0  0  0
  195.2800  174.5670  140.2180 O   0  0  0  0  0  0  0  0  0  0  0  0
  194.0450  173.2010  138.6030 C   0  0  2  0  0  3  0  0  0  0  0  0
  195.1500  172.1520  138.4410 C   0  0  0  0  0  2  0  0  0  0  0  0
  196.7490  173.9310  137.7060 C   0  0  0  0  0  2  0  0  0  0  0  0
  194.6440  174.5750  138.9410 C   0  0  2  0  0  3  0  0  0  0  0  0
  195.6530  174.9890  137.8650 C   0  0  0  0  0  2  0  0  0  0  0  0
  196.1300  172.5820  137.3520 C   0  0  0  0  0  2  0  0  0  0  0  0
  193.0500  172.7600  139.6660 C   0  0  0  0  0  2  0  0  0  0  0  0
  190.5100  173.7250  138.4760 C   0  0  1  0  0  3  0  0  0  0  0  0
  188.5510  173.0220  139.9620 C   0  0  0  0  0  2  0  0  0  0  0  0
  191.4750  172.2470  138.9100 P   0  0  1  0  0  0  0  0  0  0  0  0
  190.8380  174.1500  137.1860 O   0  0  0  0  0  1  0  0  0  0  0  0
  191.7360  171.4000  137.6840 O   0  0  0  0  0  0  0  0  0  0  0  0
  189.0280  173.3770  138.5400 C   0  0  0  0  0  2  0  0  0  0  0  0
  189.5910  172.3210  140.8490 C   0  0  0  0  0  2  0  0  0  0  0  0
  190.4370  171.3250  140.0760 C   0  0  0  0  0  2  0  0  0  0  0  0
  193.5810  176.1710  144.3760 C   0  0  0  0  0  2  0  0  0  0  0  0
  193.2960  175.1350  145.2680 O   0  0  0  0  0  0  0  0  0  0  0  0
  193.2900  175.7410  146.5270 C   0  0  0  0  0  2  0  0  0  0  0  0
  191.9470  176.4170  146.7770 C   0  0  0  0  0  2  0  0  0  0  0  0
  191.0270  175.5340  147.6150 C   0  0  0  0  0  2  0  0  0  0  0  0
  188.8730  174.5400  147.6190 O   0  0  0  0  0  1  0  0  0  0  0  0
  189.6080  175.5950  147.0850 C   0  0  0  0  0  2  0  0  0  0  0  0
  191.9400  177.3210  143.0620 O   0  0  0  0  0  0  0  0  0  0  0  0
  188.9260  175.1580  143.1000 C   0  0  0  0  0  3  0  0  0  0  0  0
  186.6310  175.6270  143.1150 O   0  0  0  0  0  1  0  0  0  0  0  0
  189.7110  177.8310  143.7530 C   0  0  0  0  0  2  0  0  0  0  0  0
  188.2190  177.5210  143.5400 C   0  0  2  0  0  0  0  0  0  0  0  0
  190.3720  175.5140  143.2610 C   0  0  0  0  0  2  0  0  0  0  0  0
  190.6000  176.9690  142.8660 C   0  0  2  0  0  3  0  0  0  0  0  0
  187.9470  176.0540  143.2620 C   0  0  0  0  0  0  0  0  0  0  0  0
  187.7570  178.2690  142.4540 O   0  0  0  0  0  1  0  0  0  0  0  0
  187.4410  177.9150  144.7960 C   0  0  0  0  0  2  0  0  0  0  0  0
  185.4540  179.2360  145.7600 C   0  0  2  0  0  3  0  0  0  0  0  0
  186.2570  178.8450  144.5140 C   0  0  2  0  0  3  0  0  0  0  0  0
  185.9200  178.6050  147.0680 C   0  0  0  0  0  1  0  0  0  0  0  0
  184.9520  178.1450  144.8320 C   0  0  2  0  0  3  0  0  0  0  0  0
  184.6060  177.6100  142.0610 O   0  0  0  0  0  0  0  0  0  0  0  0
  183.7180  178.2930  142.6410 C   0  0  0  0  0  0  0  0  0  0  0  0
  183.8930  178.6940  144.0020 N   0  0  0  0  0  2  0  0  0  0  0  0
  182.5300  178.6530  141.9290 N   0  0  0  0  0  2  0  0  0  0  0  0
  181.4380  179.3890  142.5410 C   0  0  0  0  0  2  0  0  0  0  0  0
  179.0910  178.1180  139.7590 C   0  0  0  0  0  2  0  0  0  0  0  0
  180.3750  178.2590  140.5680 C   0  0  0  0  0  2  0  0  0  0  0  0
  177.7480  178.5710  141.8290 C   0  0  0  0  0  2  0  0  0  0  0  0
  179.0420  178.7170  142.6260 C   0  0  0  0  0  2  0  0  0  0  0  0
  180.1620  179.2300  141.7270 C   0  0  0  0  0  3  0  0  0  0  0  0
  177.9580  177.6170  140.6530 C   0  0  0  0  0  2  0  0  0  0  0  0
  1  2  1  6  0  0  0
  1 22  1  0  0  0  0
  3  2  1  0  0  0  0
  4  5  2  0  0  0  0
  5  3  1  0  0  0  0
  6  5  1  0  0  0  0
  7 10  1  0  0  0  0
  7 13  1  1  0  0  0
  8  7  1  0  0  0  0
  9 11  1  0  0  0  0
 10  6  1  1  0  0  0
 11 10  1  0  0  0  0
 12  9  1  0  0  0  0
 12  8  1  0  0  0  0
 14 17  1  6  0  0  0
 14 19  1  0  0  0  0
 14 16  1  0  0  0  0
 15 20  1  0  0  0  0
 16 18  2  6  0  0  0
 16 13  1  0  0  0  0
 16 21  1  0  0  0  0
 19 15  1  0  0  0  0
 21 20  1  0  0  0  0
 22 23  1  0  0  0  0
 23 24  1  0  0  0  0
 24 25  1  0  0  0  0
 25 26  1  0  0  0  0
 28 26  1  0  0  0  0
 28 27  1  0  0  0  0
 29  1  1  0  0  0  0
 30 34  1  0  0  0  0
 30 36  2  0  0  0  0
 31 36  1  0  0  0  0
 33 37  1  6  0  0  0
 33 32  1  0  0  0  0
 33 38  1  0  0  0  0
 35 29  1  1  0  0  0
 35 34  1  0  0  0  0
 35 32  1  0  0  0  0
 36 33  1  0  0  0  0
 39 41  1  1  0  0  0
 40 38  1  1  0  0  0
 40 42  1  0  0  0  0
 40 39  1  0  0  0  0
 42 45  1  6  0  0  0
 42 39  1  0  0  0  0
 43 44  2  0  0  0  0
 44 45  1  0  0  0  0
 46 47  1  0  0  0  0
 46 44  1  0  0  0  0
 48 49  1  0  0  0  0
 48 53  1  0  0  0  0
 49 52  1  0  0  0  0
 50 51  1  0  0  0  0
 52 47  1  0  0  0  0
 52 51  1  0  0  0  0
 53 50  1  0  0  0  0
M  END
>  <MODEL>
6

>  <REMARK>
 VINA RESULT:      -5.7      2.827      6.940
  Name = 
  20 active torsions:
  status: ('A' for Active; 'I' for Inactive)
    1  A    between atoms: C_1  and  C_49
    2  A    between atoms: C_1  and  C_51
    3  A    between atoms: O_2  and  C_27
    4  A    between atoms: O_2  and  C_50
    5  A    between atoms: C_5  and  P_12
    6  A    between atoms: C_5  and  C_28
    7  A    between atoms: O_8  and  C_29
    8  A    between atoms: O_8  and  C_35
    9  A    between atoms: C_14  and  N_39
   10  A    between atoms: C_14  and  C_44
   11  A    between atoms: N_21  and  C_41
   12  A    between atoms: C_23  and  C_48
   13  A    between atoms: O_24  and  C_30
   14  A    between atoms: O_24  and  C_45
   15  A    between atoms: C_27  and  C_43
   16  A    between atoms: C_30  and  C_35
   17  A    between atoms: C_34  and  C_35
   18  A    between atoms: C_34  and  C_43
   19  A    between atoms: C_38  and  C_48
   20  A    between atoms: C_45  and  C_51
                            x       y       z     vdW  Elec       q    Type
                         _______ _______ _______ _____ _____    ______ ____

>  <TORSDO>
F 20

$$$$
=
 OpenBabel11062420213D

 53 57  0  0  1  0  0  0  0  0999 V2000
  196.2240  174.4120  140.3200 C   0  0  1  0  0  3  0  0  0  0  0  0
  195.0410  174.1550  139.3850 C   0  0  0  0  0  2  0  0  0  0  0  0
  194.9580  172.6840  138.9570 C   0  0  0  0  0  2  0  0  0  0  0  0
  193.7150  171.4530  140.5950 O   0  0  0  0  0  0  0  0  0  0  0  0
  193.7050  172.0330  139.4760 C   0  0  0  0  0  0  0  0  0  0  0  0
  192.5400  171.9840  138.6990 O   0  0  0  0  0  0  0  0  0  0  0  0
  190.1790  172.1440  139.3290 C   0  0  2  0  0  3  0  0  0  0  0  0
  189.6780  171.2260  138.2090 C   0  0  0  0  0  2  0  0  0  0  0  0
  190.6870  172.7460  136.4950 C   0  0  0  0  0  2  0  0  0  0  0  0
  191.4520  172.8860  138.8960 C   0  0  2  0  0  3  0  0  0  0  0  0
  191.1930  173.6710  137.6060 C   0  0  0  0  0  2  0  0  0  0  0  0
  189.4120  172.0360  136.9420 C   0  0  0  0  0  2  0  0  0  0  0  0
  190.4160  171.3440  140.6020 C   0  0  0  0  0  2  0  0  0  0  0  0
  188.9040  173.6890  141.6080 C   0  0  1  0  0  3  0  0  0  0  0  0
  190.5460  175.4800  142.4100 C   0  0  0  0  0  2  0  0  0  0  0  0
  190.0260  172.3380  142.0760 P   0  0  1  0  0  0  0  0  0  0  0  0
  187.5770  173.2660  141.7060 O   0  0  0  0  0  1  0  0  0  0  0  0
  189.3970  171.4670  143.1410 O   0  0  0  0  0  0  0  0  0  0  0  0
  189.1390  174.8650  142.5480 C   0  0  0  0  0  2  0  0  0  0  0  0
  191.6640  174.4900  142.0510 C   0  0  0  0  0  2  0  0  0  0  0  0
  191.5000  173.1510  142.7480 C   0  0  0  0  0  2  0  0  0  0  0  0
  197.4010  175.0350  139.5670 C   0  0  0  0  0  2  0  0  0  0  0  0
  196.9730  175.5190  138.3290 O   0  0  0  0  0  0  0  0  0  0  0  0
  197.9390  175.0780  137.4210 C   0  0  0  0  0  2  0  0  0  0  0  0
  197.5310  175.4510  136.0000 C   0  0  0  0  0  2  0  0  0  0  0  0
  196.1090  176.0040  135.9580 C   0  0  0  0  0  2  0  0  0  0  0  0
  194.0450  174.9390  135.4710 O   0  0  0  0  0  1  0  0  0  0  0  0
  195.2850  175.2620  134.9240 C   0  0  0  0  0  2  0  0  0  0  0  0
  195.8530  175.2460  141.3840 O   0  0  0  0  0  0  0  0  0  0  0  0
  197.6440  174.3640  144.5110 C   0  0  0  0  0  3  0  0  0  0  0  0
  197.0170  173.1520  146.4150 O   0  0  0  0  0  1  0  0  0  0  0  0
  194.9730  174.6230  143.5150 C   0  0  0  0  0  2  0  0  0  0  0  0
  195.2180  173.8010  144.7930 C   0  0  2  0  0  0  0  0  0  0  0  0
  197.3680  175.1080  143.2410 C   0  0  0  0  0  2  0  0  0  0  0  0
  196.1440  174.5230  142.5450 C   0  0  2  0  0  3  0  0  0  0  0  0
  196.6700  173.8030  145.2360 C   0  0  0  0  0  0  0  0  0  0  0  0
  194.8310  172.4800  144.5560 O   0  0  0  0  0  1  0  0  0  0  0  0
  194.3770  174.3810  145.9310 C   0  0  0  0  0  2  0  0  0  0  0  0
  193.2790  176.6950  145.6790 C   0  0  2  0  0  3  0  0  0  0  0  0
  193.1660  175.1830  145.4470 C   0  0  2  0  0  3  0  0  0  0  0  0
  194.5430  177.1570  146.3960 C   0  0  0  0  0  1  0  0  0  0  0  0
  192.4610  175.8300  146.6210 C   0  0  2  0  0  3  0  0  0  0  0  0
  190.6410  177.4320  148.1080 O   0  0  0  0  0  0  0  0  0  0  0  0
  190.2250  176.9120  147.0360 C   0  0  0  0  0  0  0  0  0  0  0  0
  191.0530  176.0050  146.3060 N   0  0  0  0  0  2  0  0  0  0  0  0
  188.9210  177.2490  146.5520 N   0  0  0  0  0  2  0  0  0  0  0  0
  188.3900  176.7380  145.3000 C   0  0  0  0  0  2  0  0  0  0  0  0
  184.7560  177.2870  146.4660 C   0  0  0  0  0  2  0  0  0  0  0  0
  186.2520  177.0200  146.5850 C   0  0  0  0  0  2  0  0  0  0  0  0
  185.1720  178.6420  144.3960 C   0  0  0  0  0  2  0  0  0  0  0  0
  186.6680  178.3590  144.5230 C   0  0  0  0  0  2  0  0  0  0  0  0
  186.8960  177.0130  145.2010 C   0  0  0  0  0  3  0  0  0  0  0  0
  184.5150  178.6290  145.7760 C   0  0  0  0  0  2  0  0  0  0  0  0
  1  2  1  6  0  0  0
  1 29  1  0  0  0  0
  3  2  1  0  0  0  0
  3  5  1  0  0  0  0
  5  4  2  0  0  0  0
  6  5  1  0  0  0  0
  7 13  1  1  0  0  0
  8  7  1  0  0  0  0
  9 12  1  0  0  0  0
  9 11  1  0  0  0  0
 10  6  1  6  0  0  0
 10  7  1  0  0  0  0
 11 10  1  0  0  0  0
 12  8  1  0  0  0  0
 13 16  1  0  0  0  0
 14 17  1  1  0  0  0
 14 16  1  0  0  0  0
 14 19  1  0  0  0  0
 15 19  1  0  0  0  0
 16 21  1  0  0  0  0
 16 18  2  1  0  0  0
 20 15  1  0  0  0  0
 20 21  1  0  0  0  0
 22  1  1  0  0  0  0
 23 22  1  0  0  0  0
 24 23  1  0  0  0  0
 25 24  1  0  0  0  0
 26 25  1  0  0  0  0
 28 27  1  0  0  0  0
 28 26  1  0  0  0  0
 30 36  2  0  0  0  0
 32 33  1  0  0  0  0
 33 37  1  6  0  0  0
 33 36  1  0  0  0  0
 33 38  1  0  0  0  0
 34 30  1  0  0  0  0
 35 29  1  6  0  0  0
 35 34  1  0  0  0  0
 35 32  1  0  0  0  0
 36 31  1  0  0  0  0
 39 41  1  1  0  0  0
 39 42  1  0  0  0  0
 40 39  1  0  0  0  0
 40 38  1  1  0  0  0
 40 42  1  0  0  0  0
 42 45  1  6  0  0  0
 44 43  2  0  0  0  0
 45 44  1  0  0  0  0
 46 44  1  0  0  0  0
 47 46  1  0  0  0  0
 48 49  1  0  0  0  0
 50 51  1  0  0  0  0
 50 53  1  0  0  0  0
 51 52  1  0  0  0  0
 52 47  1  0  0  0  0
 52 49  1  0  0  0  0
 53 48  1  0  0  0  0
M  END
>  <MODEL>
7

>  <REMARK>
 VINA RESULT:      -5.7      2.490      7.962
  Name = 
  20 active torsions:
  status: ('A' for Active; 'I' for Inactive)
    1  A    between atoms: C_1  and  C_49
    2  A    between atoms: C_1  and  C_51
    3  A    between atoms: O_2  and  C_27
    4  A    between atoms: O_2  and  C_50
    5  A    between atoms: C_5  and  P_12
    6  A    between atoms: C_5  and  C_28
    7  A    between atoms: O_8  and  C_29
    8  A    between atoms: O_8  and  C_35
    9  A    between atoms: C_14  and  N_39
   10  A    between atoms: C_14  and  C_44
   11  A    between atoms: N_21  and  C_41
   12  A    between atoms: C_23  and  C_48
   13  A    between atoms: O_24  and  C_30
   14  A    between atoms: O_24  and  C_45
   15  A    between atoms: C_27  and  C_43
   16  A    between atoms: C_30  and  C_35
   17  A    between atoms: C_34  and  C_35
   18  A    between atoms: C_34  and  C_43
   19  A    between atoms: C_38  and  C_48
   20  A    between atoms: C_45  and  C_51
                            x       y       z     vdW  Elec       q    Type
                         _______ _______ _______ _____ _____    ______ ____

>  <TORSDO>
F 20

$$$$
=
 OpenBabel11062420213D

 53 57  0  0  1  0  0  0  0  0999 V2000
  192.3470  176.3210  143.1810 C   0  0  1  0  0  3  0  0  0  0  0  0
  193.3840  176.2330  142.0590 C   0  0  0  0  0  2  0  0  0  0  0  0
  194.8000  176.0090  142.6060 C   0  0  0  0  0  2  0  0  0  0  0  0
  196.1570  174.3660  141.5110 O   0  0  0  0  0  0  0  0  0  0  0  0
  195.2610  174.5980  142.3660 C   0  0  0  0  0  0  0  0  0  0  0  0
  194.6510  173.5170  143.0170 O   0  0  0  0  0  0  0  0  0  0  0  0
  193.0220  171.7500  142.5430 C   0  0  2  0  0  3  0  0  0  0  0  0
  192.7040  171.4620  144.0140 C   0  0  0  0  0  2  0  0  0  0  0  0
  195.1150  170.9450  144.4460 C   0  0  0  0  0  2  0  0  0  0  0  0
  194.4660  172.2510  142.3860 C   0  0  2  0  0  3  0  0  0  0  0  0
  195.4450  171.2310  142.9780 C   0  0  0  0  0  2  0  0  0  0  0  0
  193.6830  170.4320  144.5730 C   0  0  0  0  0  2  0  0  0  0  0  0
  192.0290  172.7540  141.9750 C   0  0  0  0  0  2  0  0  0  0  0  0
  191.1870  170.2060  140.7120 C   0  0  1  0  0  3  0  0  0  0  0  0
  190.8710  170.5650  138.1990 C   0  0  0  0  0  2  0  0  0  0  0  0
  190.6760  171.9070  141.1000 P   0  0  1  0  0  0  0  0  0  0  0  0
  190.8600  169.3540  141.7680 O   0  0  0  0  0  1  0  0  0  0  0  0
  189.4240  171.9070  141.9500 O   0  0  0  0  0  0  0  0  0  0  0  0
  190.4660  169.7570  139.4470 C   0  0  0  0  0  2  0  0  0  0  0  0
  191.2230  172.0390  138.4550 C   0  0  0  0  0  2  0  0  0  0  0  0
  190.3230  172.6770  139.4980 C   0  0  0  0  0  2  0  0  0  0  0  0
  193.0050  176.1950  144.5570 C   0  0  0  0  0  2  0  0  0  0  0  0
  192.1990  176.7900  145.5290 O   0  0  0  0  0  0  0  0  0  0  0  0
  192.7610  176.3980  146.7470 C   0  0  0  0  0  2  0  0  0  0  0  0
  191.8650  175.3700  147.4300 C   0  0  0  0  0  2  0  0  0  0  0  0
  190.4470  175.9030  147.6120 C   0  0  0  0  0  2  0  0  0  0  0  0
  188.3360  175.6110  146.5690 O   0  0  0  0  0  1  0  0  0  0  0  0
  189.4370  174.9150  147.0620 C   0  0  0  0  0  2  0  0  0  0  0  0
  191.6320  177.5260  143.1120 O   0  0  0  0  0  0  0  0  0  0  0  0
  188.6680  175.3100  142.8510 C   0  0  0  0  0  3  0  0  0  0  0  0
  186.3670  175.7360  142.7560 O   0  0  0  0  0  1  0  0  0  0  0  0
  189.3570  177.9560  143.6970 C   0  0  0  0  0  2  0  0  0  0  0  0
  187.8860  177.6320  143.3780 C   0  0  2  0  0  0  0  0  0  0  0  0
  190.0940  175.6830  143.1170 C   0  0  0  0  0  2  0  0  0  0  0  0
  190.3140  177.1620  142.8180 C   0  0  2  0  0  3  0  0  0  0  0  0
  187.6620  176.1780  143.0040 C   0  0  0  0  0  0  0  0  0  0  0  0
  187.4730  178.4310  142.3090 O   0  0  0  0  0  1  0  0  0  0  0  0
  187.0280  177.9400  144.6060 C   0  0  0  0  0  2  0  0  0  0  0  0
  184.9520  179.1560  145.5180 C   0  0  2  0  0  3  0  0  0  0  0  0
  185.8430  178.8620  144.3060 C   0  0  2  0  0  3  0  0  0  0  0  0
  185.3480  178.4520  146.8120 C   0  0  0  0  0  1  0  0  0  0  0  0
  184.5380  178.1170  144.4930 C   0  0  2  0  0  3  0  0  0  0  0  0
  184.2910  177.6290  141.7020 O   0  0  0  0  0  0  0  0  0  0  0  0
  183.3930  178.3190  142.2590 C   0  0  0  0  0  0  0  0  0  0  0  0
  183.5200  178.6960  143.6310 N   0  0  0  0  0  2  0  0  0  0  0  0
  182.2390  178.7090  141.5070 N   0  0  0  0  0  2  0  0  0  0  0  0
  181.1360  179.4540  142.0880 C   0  0  0  0  0  2  0  0  0  0  0  0
  177.7300  179.6640  140.2930 C   0  0  0  0  0  2  0  0  0  0  0  0
  179.0590  180.1480  140.8600 C   0  0  0  0  0  2  0  0  0  0  0  0
  178.7370  177.4020  139.8900 C   0  0  0  0  0  2  0  0  0  0  0  0
  180.0610  177.8980  140.4680 C   0  0  0  0  0  2  0  0  0  0  0  0
  179.8090  178.9860  141.5070 C   0  0  0  0  0  3  0  0  0  0  0  0
  177.9700  178.5640  139.2590 C   0  0  0  0  0  2  0  0  0  0  0  0
  1  2  1  6  0  0  0
  1 22  1  0  0  0  0
  2  3  1  0  0  0  0
  4  5  2  0  0  0  0
  5  3  1  0  0  0  0
  5  6  1  0  0  0  0
  7 13  1  1  0  0  0
  7  8  1  0  0  0  0
  8 12  1  0  0  0  0
  9 12  1  0  0  0  0
 10  7  1  0  0  0  0
 10 11  1  0  0  0  0
 10  6  1  1  0  0  0
 11  9  1  0  0  0  0
 14 16  1  0  0  0  0
 14 17  1  1  0  0  0
 15 20  1  0  0  0  0
 15 19  1  0  0  0  0
 16 18  2  1  0  0  0
 16 13  1  0  0  0  0
 19 14  1  0  0  0  0
 20 21  1  0  0  0  0
 21 16  1  0  0  0  0
 22 23  1  0  0  0  0
 23 24  1  0  0  0  0
 24 25  1  0  0  0  0
 25 26  1  0  0  0  0
 27 28  1  0  0  0  0
 28 26  1  0  0  0  0
 29  1  1  0  0  0  0
 30 36  2  0  0  0  0
 30 34  1  0  0  0  0
 31 36  1  0  0  0  0
 33 37  1  6  0  0  0
 33 32  1  0  0  0  0
 33 38  1  0  0  0  0
 35 29  1  1  0  0  0
 35 34  1  0  0  0  0
 35 32  1  0  0  0  0
 36 33  1  0  0  0  0
 39 41  1  1  0  0  0
 40 42  1  0  0  0  0
 40 38  1  1  0  0  0
 40 39  1  0  0  0  0
 42 45  1  6  0  0  0
 42 39  1  0  0  0  0
 43 44  2  0  0  0  0
 44 45  1  0  0  0  0
 46 47  1  0  0  0  0
 46 44  1  0  0  0  0
 48 49  1  0  0  0  0
 49 52  1  0  0  0  0
 50 51  1  0  0  0  0
 51 52  1  0  0  0  0
 52 47  1  0  0  0  0
 53 50  1  0  0  0  0
 53 48  1  0  0  0  0
M  END
>  <MODEL>
8

>  <REMARK>
 VINA RESULT:      -5.6      3.135      7.214
  Name = 
  20 active torsions:
  status: ('A' for Active; 'I' for Inactive)
    1  A    between atoms: C_1  and  C_49
    2  A    between atoms: C_1  and  C_51
    3  A    between atoms: O_2  and  C_27
    4  A    between atoms: O_2  and  C_50
    5  A    between atoms: C_5  and  P_12
    6  A    between atoms: C_5  and  C_28
    7  A    between atoms: O_8  and  C_29
    8  A    between atoms: O_8  and  C_35
    9  A    between atoms: C_14  and  N_39
   10  A    between atoms: C_14  and  C_44
   11  A    between atoms: N_21  and  C_41
   12  A    between atoms: C_23  and  C_48
   13  A    between atoms: O_24  and  C_30
   14  A    between atoms: O_24  and  C_45
   15  A    between atoms: C_27  and  C_43
   16  A    between atoms: C_30  and  C_35
   17  A    between atoms: C_34  and  C_35
   18  A    between atoms: C_34  and  C_43
   19  A    between atoms: C_38  and  C_48
   20  A    between atoms: C_45  and  C_51
                            x       y       z     vdW  Elec       q    Type
                         _______ _______ _______ _____ _____    ______ ____

>  <TORSDO>
F 20

$$$$
=
 OpenBabel11062420213D

 53 57  0  0  1  0  0  0  0  0999 V2000
  193.9270  171.1340  142.2580 C   0  0  1  0  0  3  0  0  0  0  0  0
  193.6260  171.5980  143.6840 C   0  0  0  0  0  2  0  0  0  0  0  0
  192.3710  170.9230  144.2530 C   0  0  0  0  0  2  0  0  0  0  0  0
  190.2920  171.8630  143.5230 O   0  0  0  0  0  0  0  0  0  0  0  0
  191.2300  171.8960  144.3640 C   0  0  0  0  0  0  0  0  0  0  0  0
  191.2290  172.9030  145.3390 O   0  0  0  0  0  0  0  0  0  0  0  0
  192.1230  175.1420  145.7680 C   0  0  2  0  0  3  0  0  0  0  0  0
  191.8480  175.1110  147.2750 C   0  0  0  0  0  2  0  0  0  0  0  0
  189.4140  174.7300  146.8350 C   0  0  0  0  0  2  0  0  0  0  0  0
  191.0990  174.2850  145.0090 C   0  0  2  0  0  3  0  0  0  0  0  0
  189.6770  174.7590  145.3260 C   0  0  0  0  0  2  0  0  0  0  0  0
  190.4320  175.6030  147.5630 C   0  0  0  0  0  2  0  0  0  0  0  0
  193.5450  174.6800  145.4810 C   0  0  0  0  0  2  0  0  0  0  0  0
  193.7970  175.8850  142.7820 C   0  0  1  0  0  3  0  0  0  0  0  0
  196.0900  175.3110  141.8050 C   0  0  0  0  0  2  0  0  0  0  0  0
  194.4390  175.9120  144.4820 P   0  0  1  0  0  0  0  0  0  0  0  0
  192.7200  176.7650  142.6620 O   0  0  0  0  0  1  0  0  0  0  0  0
  194.2850  177.2880  145.0890 O   0  0  0  0  0  0  0  0  0  0  0  0
  194.9120  176.3050  141.8320 C   0  0  0  0  0  2  0  0  0  0  0  0
  196.3790  174.5960  143.1330 C   0  0  0  0  0  2  0  0  0  0  0  0
  196.2000  175.5080  144.3340 C   0  0  0  0  0  2  0  0  0  0  0  0
  195.1610  170.2300  142.2170 C   0  0  0  0  0  2  0  0  0  0  0  0
  196.3220  171.0070  142.2200 O   0  0  0  0  0  0  0  0  0  0  0  0
  196.8440  170.8730  140.9310 C   0  0  0  0  0  2  0  0  0  0  0  0
  196.3480  172.0080  140.0440 C   0  0  0  0  0  2  0  0  0  0  0  0
  195.8230  171.4830  138.7110 C   0  0  0  0  0  2  0  0  0  0  0  0
  197.2820  171.5970  136.8430 O   0  0  0  0  0  1  0  0  0  0  0  0
  196.9360  170.8060  137.9350 C   0  0  0  0  0  2  0  0  0  0  0  0
  192.8300  170.4550  141.7070 O   0  0  0  0  0  0  0  0  0  0  0  0
  191.7060  170.7260  138.1820 C   0  0  0  0  0  3  0  0  0  0  0  0
  191.0870  172.5470  136.8450 O   0  0  0  0  0  1  0  0  0  0  0  0
  191.5900  172.1940  140.6360 C   0  0  0  0  0  2  0  0  0  0  0  0
  191.3350  172.9320  139.3100 C   0  0  2  0  0  0  0  0  0  0  0  0
  192.0030  170.0580  139.4890 C   0  0  0  0  0  2  0  0  0  0  0  0
  192.5980  171.0630  140.4690 C   0  0  2  0  0  3  0  0  0  0  0  0
  191.3680  172.0170  138.1000 C   0  0  0  0  0  0  0  0  0  0  0  0
  192.3180  173.9120  139.1480 O   0  0  0  0  0  1  0  0  0  0  0  0
  189.9590  173.5960  139.3630 C   0  0  0  0  0  2  0  0  0  0  0  0
  188.4610  173.5870  141.4560 C   0  0  2  0  0  3  0  0  0  0  0  0
  189.6400  174.2330  140.7180 C   0  0  2  0  0  3  0  0  0  0  0  0
  187.7610  172.4540  140.7120 C   0  0  0  0  0  1  0  0  0  0  0  0
  188.2710  174.8800  140.6850 C   0  0  2  0  0  3  0  0  0  0  0  0
  186.9340  177.3540  140.2580 O   0  0  0  0  0  0  0  0  0  0  0  0
  187.4490  177.1540  141.3920 C   0  0  0  0  0  0  0  0  0  0  0  0
  188.2320  175.9820  141.6320 N   0  0  0  0  0  2  0  0  0  0  0  0
  187.2300  178.1030  142.4410 N   0  0  0  0  0  2  0  0  0  0  0  0
  187.7400  177.9190  143.7880 C   0  0  0  0  0  2  0  0  0  0  0  0
  185.9660  177.2760  147.1500 C   0  0  0  0  0  2  0  0  0  0  0  0
  187.1250  177.4700  146.1800 C   0  0  0  0  0  2  0  0  0  0  0  0
  184.5510  178.8020  145.7490 C   0  0  0  0  0  2  0  0  0  0  0  0
  185.7190  178.9810  144.7810 C   0  0  0  0  0  2  0  0  0  0  0  0
  186.5940  177.7320  144.7730 C   0  0  0  0  0  3  0  0  0  0  0  0
  185.0740  178.5170  147.1570 C   0  0  0  0  0  2  0  0  0  0  0  0
  1 22  1  1  0  0  0
  1  2  1  0  0  0  0
  2  3  1  0  0  0  0
  3  5  1  0  0  0  0
  4  5  2  0  0  0  0
  5  6  1  0  0  0  0
  7 13  1  1  0  0  0
  7  8  1  0  0  0  0
  8 12  1  0  0  0  0
  9 12  1  0  0  0  0
 10 11  1  0  0  0  0
 10  6  1  1  0  0  0
 10  7  1  0  0  0  0
 11  9  1  0  0  0  0
 14 17  1  1  0  0  0
 14 16  1  0  0  0  0
 15 19  1  0  0  0  0
 15 20  1  0  0  0  0
 16 18  2  1  0  0  0
 16 13  1  0  0  0  0
 19 14  1  0  0  0  0
 20 21  1  0  0  0  0
 21 16  1  0  0  0  0
 22 23  1  0  0  0  0
 24 23  1  0  0  0  0
 25 24  1  0  0  0  0
 26 25  1  0  0  0  0
 27 28  1  0  0  0  0
 28 26  1  0  0  0  0
 29  1  1  0  0  0  0
 30 34  1  0  0  0  0
 31 36  1  0  0  0  0
 33 37  1  6  0  0  0
 33 38  1  0  0  0  0
 33 32  1  0  0  0  0
 34 35  1  0  0  0  0
 35 32  1  0  0  0  0
 35 29  1  1  0  0  0
 36 30  2  0  0  0  0
 36 33  1  0  0  0  0
 39 41  1  6  0  0  0
 40 38  1  6  0  0  0
 40 39  1  0  0  0  0
 42 40  1  0  0  0  0
 42 39  1  0  0  0  0
 42 45  1  1  0  0  0
 43 44  2  0  0  0  0
 44 45  1  0  0  0  0
 44 46  1  0  0  0  0
 46 47  1  0  0  0  0
 47 52  1  0  0  0  0
 48 53  1  0  0  0  0
 49 48  1  0  0  0  0
 50 53  1  0  0  0  0
 51 50  1  0  0  0  0
 52 51  1  0  0  0  0
 52 49  1  0  0  0  0
M  END
>  <MODEL>
9

>  <REMARK>
 VINA RESULT:      -5.5      2.489      7.876
  Name = 
  20 active torsions:
  status: ('A' for Active; 'I' for Inactive)
    1  A    between atoms: C_1  and  C_49
    2  A    between atoms: C_1  and  C_51
    3  A    between atoms: O_2  and  C_27
    4  A    between atoms: O_2  and  C_50
    5  A    between atoms: C_5  and  P_12
    6  A    between atoms: C_5  and  C_28
    7  A    between atoms: O_8  and  C_29
    8  A    between atoms: O_8  and  C_35
    9  A    between atoms: C_14  and  N_39
   10  A    between atoms: C_14  and  C_44
   11  A    between atoms: N_21  and  C_41
   12  A    between atoms: C_23  and  C_48
   13  A    between atoms: O_24  and  C_30
   14  A    between atoms: O_24  and  C_45
   15  A    between atoms: C_27  and  C_43
   16  A    between atoms: C_30  and  C_35
   17  A    between atoms: C_34  and  C_35
   18  A    between atoms: C_34  and  C_43
   19  A    between atoms: C_38  and  C_48
   20  A    between atoms: C_45  and  C_51
                            x       y       z     vdW  Elec       q    Type
                         _______ _______ _______ _____ _____    ______ ____

>  <TORSDO>
F 20

$$$$
