=
 OpenBabel11062420413D

 60 64  0  0  1  0  0  0  0  0999 V2000
  191.6480  176.6800  142.9210 C   0  0  0  0  0  2  0  0  0  0  0  0
  193.1840  177.5030  144.7430 C   0  0  0  0  0  1  0  0  0  0  0  0
  193.1050  176.9560  143.3210 C   0  0  1  0  0  3  0  0  0  0  0  0
  194.1120  175.8070  143.0210 C   0  0  0  0  0  0  0  0  0  0  0  0
  195.3320  175.9370  143.9260 C   0  0  0  0  0  1  0  0  0  0  0  0
  194.6400  175.9230  141.5930 C   0  0  0  0  0  1  0  0  0  0  0  0
  193.3750  172.1260  140.1190 C   0  0  2  0  0  3  0  0  0  0  0  0
  195.6160  171.4930  143.2370 C   0  0  1  0  0  3  0  0  0  0  0  0
  195.3900  172.7960  142.4360 C   0  0  2  0  0  3  0  0  0  0  0  0
  193.3740  173.9460  144.7050 C   0  0  0  0  0  0  0  0  0  0  0  0
  194.3350  173.2090  145.1970 C   0  0  0  0  0  0  0  0  0  0  0  0
  195.3410  172.4600  145.5450 C   0  0  0  0  0  3  0  0  0  0  0  0
  193.3560  173.4300  140.8970 C   0  0  0  0  0  2  0  0  0  0  0  0
  195.8490  171.6740  140.2050 C   0  0  0  0  0  2  0  0  0  0  0  0
  193.9050  173.2420  142.3110 C   0  0  2  0  0  3  0  0  0  0  0  0
  193.4960  174.3940  143.2640 C   0  0  2  0  0  3  0  0  0  0  0  0
  196.0490  171.7200  144.5870 O   0  0  0  0  0  0  0  0  0  0  0  0
  196.2100  172.8200  141.1430 C   0  0  0  0  0  2  0  0  0  0  0  0
  194.6640  172.0260  139.3200 C   0  0  0  0  0  2  0  0  0  0  0  0
  192.1650  174.8570  146.7130 C   0  0  0  0  0  3  0  0  0  0  0  0
  190.8940  173.7620  144.9690 C   0  0  0  0  0  3  0  0  0  0  0  0
  189.7630  174.6470  146.9180 C   0  0  0  0  0  0  0  0  0  0  0  0
  188.5110  174.8780  147.6850 C   0  0  0  0  0  1  0  0  0  0  0  0
  192.1310  174.1940  145.4730 C   0  0  0  0  0  0  0  0  0  0  0  0
  190.9870  175.0810  147.4310 C   0  0  0  0  0  3  0  0  0  0  0  0
  189.7160  173.9890  145.6860 C   0  0  0  0  0  3  0  0  0  0  0  0
  194.9360  169.1370  142.7620 C   0  0  0  0  0  1  0  0  0  0  0  0
  194.4470  170.5110  143.1740 C   0  0  0  0  0  2  0  0  0  0  0  0
  191.0710  172.1390  139.6230 O   0  0  0  0  0  0  0  0  0  0  0  0
  192.2100  172.1010  139.1890 C   0  0  0  0  0  3  0  0  0  0  0  0
  190.6720  177.6890  143.5150 C   0  0  0  0  0  2  0  0  0  0  0  0
  186.2760  177.7540  142.0970 C   0  0  0  0  0  0  0  0  0  0  0  0
  189.3260  177.5960  142.8180 C   0  0  1  0  0  3  0  0  0  0  0  0
  186.6040  176.3030  141.8580 C   0  0  2  0  0  3  0  0  0  0  0  0
  186.3470  175.5250  142.9900 O   0  0  0  0  0  1  0  0  0  0  0  0
  189.0830  176.1560  142.3880 C   0  0  0  0  0  2  0  0  0  0  0  0
  188.2030  178.1520  143.7040 C   0  0  1  0  0  3  0  0  0  0  0  0
  186.9880  178.5460  142.9090 C   0  0  0  0  0  3  0  0  0  0  0  0
  188.0120  176.0750  141.3040 C   0  0  1  0  0  3  0  0  0  0  0  0
  185.1070  178.3540  141.4460 C   0  0  0  0  0  3  0  0  0  0  0  0
  183.8660  177.9470  141.6830 C   0  0  0  0  0  3  0  0  0  0  0  0
  182.7250  178.6220  141.0030 C   0  0  0  0  0  2  0  0  0  0  0  0
  181.4610  178.0270  141.4190 N   0  0  0  0  0  2  0  0  0  0  0  0
  180.3430  180.0040  140.5730 C   0  0  0  0  0  1  0  0  0  0  0  0
  180.4120  178.4920  140.5190 C   0  0  2  0  0  3  0  0  0  0  0  0
  177.9990  178.6300  140.3210 O   0  0  0  0  0  1  0  0  0  0  0  0
  179.0520  177.9070  140.8960 C   0  0  2  0  0  3  0  0  0  0  0  0
  178.2900  176.5540  142.7090 O   0  0  0  0  0  1  0  0  0  0  0  0
  178.8790  177.7840  142.4070 C   0  0  2  0  0  3  0  0  0  0  0  0
  178.5030  178.9750  144.2330 C   0  0  0  0  0  1  0  0  0  0  0  0
  178.0890  178.8190  142.9080 O   0  0  0  0  0  0  0  0  0  0  0  0
  188.0710  174.8210  140.6860 O   0  0  0  0  0  0  0  0  0  0  0  0
  189.0550  174.1190  141.3870 C   0  0  0  0  0  2  0  0  0  0  0  0
  188.4730  172.8650  141.9560 C   0  0  0  0  0  0  0  0  0  0  0  0
  187.1130  172.5940  141.8290 O   0  0  0  0  0  0  0  0  0  0  0  0
  189.2270  172.0380  142.5300 O   0  0  0  0  0  1  0  0  0  0  0  0
  187.8740  177.2650  144.9050 C   0  0  0  0  0  2  0  0  0  0  0  0
  186.0810  178.9700  146.1050 O   0  0  0  0  0  0  0  0  0  0  0  0
  185.9620  177.7940  146.7700 N   0  0  0  0  0  0  0  0  0  0  0  0
  186.8270  177.8880  145.7630 C   0  0  0  0  0  0  0  0  0  0  0  0
  1  3  1  0  0  0  0
  1 31  1  0  0  0  0
  3  2  1  1  0  0  0
  4  3  1  0  0  0  0
  4  5  1  0  0  0  0
  6  4  1  0  0  0  0
  7 30  1  6  0  0  0
  7 13  1  0  0  0  0
  8 28  1  1  0  0  0
  8 17  1  0  0  0  0
  9 18  1  6  0  0  0
  9  8  1  0  0  0  0
 10 11  2  0  0  0  0
 10 24  1  0  0  0  0
 11 12  2  0  0  0  0
 14 18  1  0  0  0  0
 15 13  1  6  0  0  0
 15  9  1  0  0  0  0
 15 16  1  0  0  0  0
 16  4  1  1  0  0  0
 16 10  1  0  0  0  0
 17 12  1  0  0  0  0
 19  7  1  0  0  0  0
 19 14  1  0  0  0  0
 20 25  1  0  0  0  0
 21 24  1  0  0  0  0
 21 26  2  0  0  0  0
 22 25  2  0  0  0  0
 22 23  1  0  0  0  0
 24 20  2  0  0  0  0
 26 22  1  0  0  0  0
 27 28  1  0  0  0  0
 30 29  2  0  0  0  0
 32 38  2  0  0  0  0
 33 31  1  1  0  0  0
 33 37  1  0  0  0  0
 34 32  1  0  0  0  0
 34 35  1  1  0  0  0
 36 33  1  0  0  0  0
 37 57  1  1  0  0  0
 38 37  1  0  0  0  0
 39 52  1  1  0  0  0
 39 34  1  0  0  0  0
 39 36  1  0  0  0  0
 40 41  2  0  0  0  0
 40 32  1  0  0  0  0
 42 43  1  0  0  0  0
 42 41  1  0  0  0  0
 45 44  1  1  0  0  0
 45 47  1  0  0  0  0
 45 43  1  0  0  0  0
 47 46  1  1  0  0  0
 47 49  1  0  0  0  0
 49 48  1  6  0  0  0
 49 51  1  0  0  0  0
 51 50  1  0  0  0  0
 52 53  1  0  0  0  0
 53 54  1  0  0  0  0
 54 56  1  0  0  0  0
 55 54  2  0  0  0  0
 57 60  1  0  0  0  0
 58 59  1  0  0  0  0
 60 58  1  0  0  0  0
 60 59  2  0  0  0  0
M  END
>  <MODEL>
1

>  <REMARK>
 VINA RESULT:      -7.0      0.000      0.000
  Name = 
  20 active torsions:
  status: ('A' for Active; 'I' for Inactive)
    1  A    between atoms: C_2  and  C_54
    2  A    between atoms: C_3  and  C_11
    3  A    between atoms: C_4  and  C_17
    4  A    between atoms: C_7  and  C_32
    5  A    between atoms: N_12  and  C_39
    6  A    between atoms: N_12  and  C_56
    7  A    between atoms: C_14  and  C_43
    8  A    between atoms: C_16  and  C_19
    9  A    between atoms: C_16  and  C_44
   10  A    between atoms: C_19  and  C_20
   11  A    between atoms: C_20  and  C_43
   12  A    between atoms: O_22  and  C_40
   13  A    between atoms: O_22  and  C_59
   14  A    between atoms: C_34  and  C_51
   15  A    between atoms: C_34  and  C_53
   16  A    between atoms: O_36  and  C_45
   17  A    between atoms: C_39  and  C_47
   18  A    between atoms: C_40  and  C_42
   19  A    between atoms: C_45  and  C_46
   20  A    between atoms: C_46  and  C_56
                            x       y       z     vdW  Elec       q    Type
                         _______ _______ _______ _____ _____    ______ ____

>  <TORSDO>
F 20

$$$$
=
 OpenBabel11062420413D

 60 64  0  0  1  0  0  0  0  0999 V2000
  192.3960  174.8450  142.4260 C   0  0  0  0  0  2  0  0  0  0  0  0
  194.2820  176.5180  142.4060 C   0  0  0  0  0  1  0  0  0  0  0  0
  193.8410  175.1200  141.9820 C   0  0  1  0  0  3  0  0  0  0  0  0
  194.8680  173.9980  142.3120 C   0  0  0  0  0  0  0  0  0  0  0  0
  196.2260  174.6140  142.6260 C   0  0  0  0  0  1  0  0  0  0  0  0
  195.0890  173.1050  141.0920 C   0  0  0  0  0  1  0  0  0  0  0  0
  193.3040  169.5340  142.6920 C   0  0  2  0  0  3  0  0  0  0  0  0
  196.5390  170.4420  144.6530 C   0  0  1  0  0  3  0  0  0  0  0  0
  195.9840  171.0420  143.3410 C   0  0  2  0  0  3  0  0  0  0  0  0
  194.8660  173.6570  144.9050 C   0  0  0  0  0  0  0  0  0  0  0  0
  195.9710  173.1850  145.4190 C   0  0  0  0  0  0  0  0  0  0  0  0
  197.0670  172.6100  145.8210 C   0  0  0  0  0  3  0  0  0  0  0  0
  193.5070  171.0210  142.4620 C   0  0  0  0  0  2  0  0  0  0  0  0
  195.6620  168.7630  142.2690 C   0  0  0  0  0  2  0  0  0  0  0  0
  194.5340  171.5990  143.4350 C   0  0  2  0  0  3  0  0  0  0  0  0
  194.4430  173.1430  143.5460 C   0  0  2  0  0  3  0  0  0  0  0  0
  197.4180  171.3320  145.3610 O   0  0  0  0  0  0  0  0  0  0  0  0
  196.2840  170.1480  142.1350 C   0  0  0  0  0  2  0  0  0  0  0  0
  194.2240  168.7440  141.7750 C   0  0  0  0  0  2  0  0  0  0  0  0
  192.6810  174.1140  146.0630 C   0  0  0  0  0  3  0  0  0  0  0  0
  194.4020  175.8150  146.0820 C   0  0  0  0  0  3  0  0  0  0  0  0
  192.2850  176.2220  147.1830 C   0  0  0  0  0  0  0  0  0  0  0  0
  191.3910  177.1180  147.9620 C   0  0  0  0  0  1  0  0  0  0  0  0
  193.9710  174.5370  145.6940 C   0  0  0  0  0  0  0  0  0  0  0  0
  191.8430  174.9530  146.8020 C   0  0  0  0  0  3  0  0  0  0  0  0
  193.5650  176.6530  146.8240 C   0  0  0  0  0  3  0  0  0  0  0  0
  196.1180  169.1590  146.7550 C   0  0  0  0  0  1  0  0  0  0  0  0
  195.4710  169.8510  145.5720 C   0  0  0  0  0  2  0  0  0  0  0  0
  191.0320  170.0570  142.3500 O   0  0  0  0  0  0  0  0  0  0  0  0
  191.8850  169.1870  142.3910 C   0  0  0  0  0  3  0  0  0  0  0  0
  191.7550  176.0400  143.1230 C   0  0  0  0  0  2  0  0  0  0  0  0
  187.2640  176.8820  142.4430 C   0  0  0  0  0  0  0  0  0  0  0  0
  190.3270  176.2300  142.6420 C   0  0  1  0  0  3  0  0  0  0  0  0
  187.3380  175.4580  141.9540 C   0  0  2  0  0  3  0  0  0  0  0  0
  187.1280  174.5470  142.9920 O   0  0  0  0  0  1  0  0  0  0  0  0
  189.8170  174.9190  142.0590 C   0  0  0  0  0  2  0  0  0  0  0  0
  189.4320  176.7720  143.7640 C   0  0  1  0  0  3  0  0  0  0  0  0
  188.1910  177.4370  143.2350 C   0  0  0  0  0  3  0  0  0  0  0  0
  188.6070  175.1480  141.1570 C   0  0  1  0  0  3  0  0  0  0  0  0
  186.1180  177.7200  142.0760 C   0  0  0  0  0  3  0  0  0  0  0  0
  185.5170  177.6360  140.8960 C   0  0  0  0  0  3  0  0  0  0  0  0
  184.3400  178.5020  140.6030 C   0  0  0  0  0  2  0  0  0  0  0  0
  183.4330  178.5320  141.7420 N   0  0  0  0  0  2  0  0  0  0  0  0
  182.2070  177.6300  139.8550 C   0  0  0  0  0  1  0  0  0  0  0  0
  182.1560  177.9600  141.3330 C   0  0  2  0  0  3  0  0  0  0  0  0
  181.1000  179.5150  142.8640 O   0  0  0  0  0  1  0  0  0  0  0  0
  181.0000  178.9230  141.5990 C   0  0  2  0  0  3  0  0  0  0  0  0
  178.9510  178.8970  140.3740 O   0  0  0  0  0  1  0  0  0  0  0  0
  179.6420  178.2560  141.4050 C   0  0  2  0  0  3  0  0  0  0  0  0
  178.4590  176.9890  142.7800 C   0  0  0  0  0  1  0  0  0  0  0  0
  178.8860  178.3030  142.5780 O   0  0  0  0  0  0  0  0  0  0  0  0
  188.3950  174.0120  140.3690 O   0  0  0  0  0  0  0  0  0  0  0  0
  189.6450  173.7160  139.8180 C   0  0  0  0  0  2  0  0  0  0  0  0
  189.5570  173.7310  138.3270 C   0  0  0  0  0  0  0  0  0  0  0  0
  190.6790  174.0140  137.5530 O   0  0  0  0  0  0  0  0  0  0  0  0
  188.4630  173.4580  137.7690 O   0  0  0  0  0  1  0  0  0  0  0  0
  189.1440  175.7510  144.8660 C   0  0  0  0  0  2  0  0  0  0  0  0
  187.2640  176.2400  146.8130 O   0  0  0  0  0  0  0  0  0  0  0  0
  188.0030  177.3750  146.7310 N   0  0  0  0  0  0  0  0  0  0  0  0
  188.3020  176.3450  145.9420 C   0  0  0  0  0  0  0  0  0  0  0  0
  1 31  1  0  0  0  0
  3  4  1  0  0  0  0
  3  2  1  1  0  0  0
  3  1  1  0  0  0  0
  4  5  1  0  0  0  0
  6  4  1  0  0  0  0
  7 30  1  6  0  0  0
  8 17  1  0  0  0  0
  8 28  1  1  0  0  0
  9 18  1  6  0  0  0
  9 15  1  0  0  0  0
  9  8  1  0  0  0  0
 10 11  2  0  0  0  0
 10 24  1  0  0  0  0
 11 12  2  0  0  0  0
 13  7  1  0  0  0  0
 15 13  1  6  0  0  0
 15 16  1  0  0  0  0
 16  4  1  6  0  0  0
 16 10  1  0  0  0  0
 17 12  1  0  0  0  0
 18 14  1  0  0  0  0
 19 14  1  0  0  0  0
 19  7  1  0  0  0  0
 20 25  1  0  0  0  0
 21 26  2  0  0  0  0
 22 23  1  0  0  0  0
 24 20  2  0  0  0  0
 24 21  1  0  0  0  0
 25 22  2  0  0  0  0
 26 22  1  0  0  0  0
 28 27  1  0  0  0  0
 29 30  2  0  0  0  0
 32 38  2  0  0  0  0
 33 31  1  1  0  0  0
 33 37  1  0  0  0  0
 34 32  1  0  0  0  0
 34 35  1  1  0  0  0
 36 33  1  0  0  0  0
 37 57  1  1  0  0  0
 38 37  1  0  0  0  0
 39 52  1  1  0  0  0
 39 34  1  0  0  0  0
 39 36  1  0  0  0  0
 40 32  1  0  0  0  0
 41 40  2  0  0  0  0
 42 41  1  0  0  0  0
 42 43  1  0  0  0  0
 45 44  1  6  0  0  0
 45 47  1  0  0  0  0
 45 43  1  0  0  0  0
 47 46  1  1  0  0  0
 49 48  1  6  0  0  0
 49 47  1  0  0  0  0
 49 51  1  0  0  0  0
 51 50  1  0  0  0  0
 53 52  1  0  0  0  0
 54 53  1  0  0  0  0
 55 54  2  0  0  0  0
 56 54  1  0  0  0  0
 57 60  1  0  0  0  0
 59 58  1  0  0  0  0
 60 59  2  0  0  0  0
 60 58  1  0  0  0  0
M  END
>  <MODEL>
2

>  <REMARK>
 VINA RESULT:      -6.6      1.730      2.687
  Name = 
  20 active torsions:
  status: ('A' for Active; 'I' for Inactive)
    1  A    between atoms: C_2  and  C_54
    2  A    between atoms: C_3  and  C_11
    3  A    between atoms: C_4  and  C_17
    4  A    between atoms: C_7  and  C_32
    5  A    between atoms: N_12  and  C_39
    6  A    between atoms: N_12  and  C_56
    7  A    between atoms: C_14  and  C_43
    8  A    between atoms: C_16  and  C_19
    9  A    between atoms: C_16  and  C_44
   10  A    between atoms: C_19  and  C_20
   11  A    between atoms: C_20  and  C_43
   12  A    between atoms: O_22  and  C_40
   13  A    between atoms: O_22  and  C_59
   14  A    between atoms: C_34  and  C_51
   15  A    between atoms: C_34  and  C_53
   16  A    between atoms: O_36  and  C_45
   17  A    between atoms: C_39  and  C_47
   18  A    between atoms: C_40  and  C_42
   19  A    between atoms: C_45  and  C_46
   20  A    between atoms: C_46  and  C_56
                            x       y       z     vdW  Elec       q    Type
                         _______ _______ _______ _____ _____    ______ ____

>  <TORSDO>
F 20

$$$$
=
 OpenBabel11062420413D

 60 64  0  0  1  0  0  0  0  0999 V2000
  193.8770  175.2620  140.5330 C   0  0  0  0  0  2  0  0  0  0  0  0
  196.3870  175.4400  140.3810 C   0  0  0  0  0  1  0  0  0  0  0  0
  195.0920  175.2610  139.5940 C   0  0  1  0  0  3  0  0  0  0  0  0
  195.1310  174.1060  138.5510 C   0  0  0  0  0  0  0  0  0  0  0  0
  196.4900  173.4160  138.5920 C   0  0  0  0  0  1  0  0  0  0  0  0
  194.9900  174.6620  137.1360 C   0  0  0  0  0  1  0  0  0  0  0  0
  190.8500  173.3510  136.6470 C   0  0  2  0  0  3  0  0  0  0  0  0
  193.4350  170.4550  136.3790 C   0  0  1  0  0  3  0  0  0  0  0  0
  193.6720  171.9820  136.4530 C   0  0  2  0  0  3  0  0  0  0  0  0
  194.4920  171.7910  139.5880 C   0  0  0  0  0  0  0  0  0  0  0  0
  194.8490  170.7390  138.8990 C   0  0  0  0  0  0  0  0  0  0  0  0
  195.1450  169.7620  138.0920 C   0  0  0  0  0  3  0  0  0  0  0  0
  192.0720  173.8330  137.4110 C   0  0  0  0  0  2  0  0  0  0  0  0
  192.0130  172.4740  134.5950 C   0  0  0  0  0  2  0  0  0  0  0  0
  193.0410  172.6850  137.6890 C   0  0  2  0  0  3  0  0  0  0  0  0
  194.0460  173.0180  138.8230 C   0  0  2  0  0  3  0  0  0  0  0  0
  194.5610  169.6800  136.8190 O   0  0  0  0  0  0  0  0  0  0  0  0
  193.4390  172.6610  135.1010 C   0  0  0  0  0  2  0  0  0  0  0  0
  191.0760  173.5330  135.1550 C   0  0  0  0  0  2  0  0  0  0  0  0
  195.4310  172.1160  141.8980 C   0  0  0  0  0  3  0  0  0  0  0  0
  193.1730  171.2820  141.6510 C   0  0  0  0  0  3  0  0  0  0  0  0
  194.1110  171.6030  143.8600 C   0  0  0  0  0  0  0  0  0  0  0  0
  193.9770  171.5260  145.3380 C   0  0  0  0  0  1  0  0  0  0  0  0
  194.3660  171.7320  141.0640 C   0  0  0  0  0  0  0  0  0  0  0  0
  195.3030  172.0510  143.2880 C   0  0  0  0  0  3  0  0  0  0  0  0
  193.0440  171.2190  143.0410 C   0  0  0  0  0  3  0  0  0  0  0  0
  191.3800  169.0630  136.1090 C   0  0  0  0  0  1  0  0  0  0  0  0
  192.1360  169.9920  137.0360 C   0  0  0  0  0  2  0  0  0  0  0  0
  188.5430  173.6900  136.9860 O   0  0  0  0  0  0  0  0  0  0  0  0
  189.6680  174.1540  137.0720 C   0  0  0  0  0  3  0  0  0  0  0  0
  194.1570  175.9600  141.8600 C   0  0  0  0  0  2  0  0  0  0  0  0
  190.8690  176.2350  145.0920 C   0  0  0  0  0  0  0  0  0  0  0  0
  192.9030  175.9940  142.7150 C   0  0  1  0  0  3  0  0  0  0  0  0
  190.5460  174.8830  144.5100 C   0  0  2  0  0  3  0  0  0  0  0  0
  191.2550  173.8640  145.1530 O   0  0  0  0  0  1  0  0  0  0  0  0
  192.1480  174.6810  142.5490 C   0  0  0  0  0  2  0  0  0  0  0  0
  193.2390  176.3070  144.1790 C   0  0  1  0  0  3  0  0  0  0  0  0
  192.0540  176.8400  144.9370 C   0  0  0  0  0  3  0  0  0  0  0  0
  190.6930  174.8200  142.9880 C   0  0  1  0  0  3  0  0  0  0  0  0
  189.8680  176.9370  145.9020 C   0  0  0  0  0  3  0  0  0  0  0  0
  188.5800  176.6150  145.8870 C   0  0  0  0  0  3  0  0  0  0  0  0
  187.6240  177.3570  146.7560 C   0  0  0  0  0  2  0  0  0  0  0  0
  186.2600  177.1920  146.2690 N   0  0  0  0  0  2  0  0  0  0  0  0
  184.7130  178.9910  145.7730 C   0  0  0  0  0  1  0  0  0  0  0  0
  185.9700  178.2700  145.3310 C   0  0  2  0  0  3  0  0  0  0  0  0
  185.8050  176.3390  143.8720 O   0  0  0  0  0  1  0  0  0  0  0  0
  185.7790  177.7390  143.9110 C   0  0  2  0  0  3  0  0  0  0  0  0
  186.1610  178.5850  141.7110 O   0  0  0  0  0  1  0  0  0  0  0  0
  186.7870  178.3390  142.9350 C   0  0  2  0  0  3  0  0  0  0  0  0
  188.6870  178.1390  141.8170 C   0  0  0  0  0  1  0  0  0  0  0  0
  187.8730  177.4830  142.7440 O   0  0  0  0  0  0  0  0  0  0  0  0
  189.9550  173.7400  142.4930 O   0  0  0  0  0  0  0  0  0  0  0  0
  190.0740  173.8250  141.1040 C   0  0  0  0  0  2  0  0  0  0  0  0
  188.7170  173.8940  140.4830 C   0  0  0  0  0  0  0  0  0  0  0  0
  188.0260  172.7300  140.1580 O   0  0  0  0  0  0  0  0  0  0  0  0
  188.1870  175.0160  140.2790 O   0  0  0  0  0  1  0  0  0  0  0  0
  193.9510  175.1650  144.9030 C   0  0  0  0  0  2  0  0  0  0  0  0
  196.5180  175.9500  144.3010 O   0  0  0  0  0  0  0  0  0  0  0  0
  196.6490  174.8110  145.0270 N   0  0  0  0  0  0  0  0  0  0  0  0
  195.4310  175.2870  144.7770 C   0  0  0  0  0  0  0  0  0  0  0  0
  1 31  1  0  0  0  0
  3  2  1  1  0  0  0
  3  1  1  0  0  0  0
  4  5  1  0  0  0  0
  4  3  1  0  0  0  0
  6  4  1  0  0  0  0
  7 30  1  1  0  0  0
  7 13  1  0  0  0  0
  8  9  1  0  0  0  0
  8 17  1  0  0  0  0
  8 28  1  1  0  0  0
  9 18  1  6  0  0  0
  9 15  1  0  0  0  0
 10 24  1  0  0  0  0
 11 10  2  0  0  0  0
 12 11  2  0  0  0  0
 14 18  1  0  0  0  0
 14 19  1  0  0  0  0
 15 13  1  6  0  0  0
 15 16  1  0  0  0  0
 16  4  1  6  0  0  0
 16 10  1  0  0  0  0
 17 12  1  0  0  0  0
 19  7  1  0  0  0  0
 20 25  1  0  0  0  0
 21 26  2  0  0  0  0
 22 23  1  0  0  0  0
 24 21  1  0  0  0  0
 24 20  2  0  0  0  0
 25 22  2  0  0  0  0
 26 22  1  0  0  0  0
 27 28  1  0  0  0  0
 29 30  2  0  0  0  0
 32 40  1  0  0  0  0
 33 31  1  6  0  0  0
 33 37  1  0  0  0  0
 34 32  1  0  0  0  0
 34 35  1  1  0  0  0
 36 33  1  0  0  0  0
 36 39  1  0  0  0  0
 37 57  1  1  0  0  0
 37 38  1  0  0  0  0
 38 32  2  0  0  0  0
 39 52  1  1  0  0  0
 39 34  1  0  0  0  0
 41 40  2  0  0  0  0
 41 42  1  0  0  0  0
 43 42  1  0  0  0  0
 45 44  1  1  0  0  0
 45 43  1  0  0  0  0
 47 46  1  1  0  0  0
 47 45  1  0  0  0  0
 49 48  1  6  0  0  0
 49 47  1  0  0  0  0
 50 51  1  0  0  0  0
 51 49  1  0  0  0  0
 53 52  1  0  0  0  0
 54 53  1  0  0  0  0
 55 54  2  0  0  0  0
 56 54  1  0  0  0  0
 58 60  1  0  0  0  0
 58 59  1  0  0  0  0
 60 57  1  0  0  0  0
 60 59  2  0  0  0  0
M  END
>  <MODEL>
3

>  <REMARK>
 VINA RESULT:      -6.1      3.324      6.329
  Name = 
  20 active torsions:
  status: ('A' for Active; 'I' for Inactive)
    1  A    between atoms: C_2  and  C_54
    2  A    between atoms: C_3  and  C_11
    3  A    between atoms: C_4  and  C_17
    4  A    between atoms: C_7  and  C_32
    5  A    between atoms: N_12  and  C_39
    6  A    between atoms: N_12  and  C_56
    7  A    between atoms: C_14  and  C_43
    8  A    between atoms: C_16  and  C_19
    9  A    between atoms: C_16  and  C_44
   10  A    between atoms: C_19  and  C_20
   11  A    between atoms: C_20  and  C_43
   12  A    between atoms: O_22  and  C_40
   13  A    between atoms: O_22  and  C_59
   14  A    between atoms: C_34  and  C_51
   15  A    between atoms: C_34  and  C_53
   16  A    between atoms: O_36  and  C_45
   17  A    between atoms: C_39  and  C_47
   18  A    between atoms: C_40  and  C_42
   19  A    between atoms: C_45  and  C_46
   20  A    between atoms: C_46  and  C_56
                            x       y       z     vdW  Elec       q    Type
                         _______ _______ _______ _____ _____    ______ ____

>  <TORSDO>
F 20

$$$$
=
 OpenBabel11062420413D

 60 64  0  0  1  0  0  0  0  0999 V2000
  188.8240  174.6930  143.1210 C   0  0  0  0  0  2  0  0  0  0  0  0
  190.5130  174.4790  144.9800 C   0  0  0  0  0  1  0  0  0  0  0  0
  190.1340  174.0300  143.5720 C   0  0  1  0  0  3  0  0  0  0  0  0
  190.2180  172.4920  143.3480 C   0  0  0  0  0  0  0  0  0  0  0  0
  189.0500  172.0290  142.4840 C   0  0  0  0  0  1  0  0  0  0  0  0
  190.0710  171.7520  144.6760 C   0  0  0  0  0  1  0  0  0  0  0  0
  191.0750  171.0440  138.9110 C   0  0  2  0  0  3  0  0  0  0  0  0
  192.9810  174.2090  140.1330 C   0  0  1  0  0  3  0  0  0  0  0  0
  191.5990  173.6660  140.5630 C   0  0  2  0  0  3  0  0  0  0  0  0
  192.8320  172.4420  143.3040 C   0  0  0  0  0  0  0  0  0  0  0  0
  193.4180  173.5480  142.9270 C   0  0  0  0  0  0  0  0  0  0  0  0
  193.9030  174.6500  142.4340 C   0  0  0  0  0  3  0  0  0  0  0  0
  190.6810  171.2110  140.3670 C   0  0  0  0  0  2  0  0  0  0  0  0
  190.7870  173.4320  138.1680 C   0  0  0  0  0  2  0  0  0  0  0  0
  191.6010  172.2000  141.0830 C   0  0  2  0  0  3  0  0  0  0  0  0
  191.5330  172.0640  142.6260 C   0  0  2  0  0  3  0  0  0  0  0  0
  193.6000  175.0460  141.1230 O   0  0  0  0  0  0  0  0  0  0  0  0
  190.5080  174.0180  139.5470 C   0  0  0  0  0  2  0  0  0  0  0  0
  190.2720  172.0060  138.0500 C   0  0  0  0  0  2  0  0  0  0  0  0
  194.3890  171.9740  145.2230 C   0  0  0  0  0  3  0  0  0  0  0  0
  193.2510  170.1270  144.1510 C   0  0  0  0  0  3  0  0  0  0  0  0
  194.7590  169.7130  145.9990 C   0  0  0  0  0  0  0  0  0  0  0  0
  195.4320  168.7620  146.9230 C   0  0  0  0  0  1  0  0  0  0  0  0
  193.4990  171.5050  144.2400 C   0  0  0  0  0  0  0  0  0  0  0  0
  195.0160  171.0810  146.0970 C   0  0  0  0  0  3  0  0  0  0  0  0
  193.8760  169.2350  145.0270 C   0  0  0  0  0  3  0  0  0  0  0  0
  194.5690  173.5770  138.3110 C   0  0  0  0  0  1  0  0  0  0  0  0
  193.9410  173.1370  139.6180 C   0  0  0  0  0  2  0  0  0  0  0  0
  189.6520  169.3020  138.2090 O   0  0  0  0  0  0  0  0  0  0  0  0
  190.7890  169.6430  138.4900 C   0  0  0  0  0  3  0  0  0  0  0  0
  188.3170  175.7340  144.1140 C   0  0  0  0  0  2  0  0  0  0  0  0
  184.9850  178.0070  141.8630 C   0  0  0  0  0  0  0  0  0  0  0  0
  187.0600  176.4020  143.5840 C   0  0  1  0  0  3  0  0  0  0  0  0
  184.8640  178.6500  143.2220 C   0  0  2  0  0  3  0  0  0  0  0  0
  185.7020  179.7620  143.3390 O   0  0  0  0  0  1  0  0  0  0  0  0
  186.5020  177.3350  144.6500 C   0  0  0  0  0  2  0  0  0  0  0  0
  187.3300  177.1120  142.2510 C   0  0  1  0  0  3  0  0  0  0  0  0
  186.0730  177.3390  141.4580 C   0  0  0  0  0  3  0  0  0  0  0  0
  185.0370  177.6670  144.3820 C   0  0  1  0  0  3  0  0  0  0  0  0
  183.8840  178.1250  140.9020 C   0  0  0  0  0  3  0  0  0  0  0  0
  182.6150  178.2340  141.2740 C   0  0  0  0  0  3  0  0  0  0  0  0
  181.5510  178.3760  140.2400 C   0  0  0  0  0  2  0  0  0  0  0  0
  180.2490  178.0370  140.7990 N   0  0  0  0  0  2  0  0  0  0  0  0
  178.9190  178.9700  142.5980 C   0  0  0  0  0  1  0  0  0  0  0  0
  179.6210  179.2590  141.2870 C   0  0  2  0  0  3  0  0  0  0  0  0
  178.2450  178.8480  139.3330 O   0  0  0  0  0  1  0  0  0  0  0  0
  178.6130  179.8110  140.2810 C   0  0  2  0  0  3  0  0  0  0  0  0
  178.6930  182.1970  140.3440 O   0  0  0  0  0  1  0  0  0  0  0  0
  179.1140  181.0860  139.6090 C   0  0  2  0  0  3  0  0  0  0  0  0
  179.2690  182.3170  137.7760 C   0  0  0  0  0  1  0  0  0  0  0  0
  178.6410  181.1840  138.2990 O   0  0  0  0  0  0  0  0  0  0  0  0
  184.4650  178.2090  145.5380 O   0  0  0  0  0  0  0  0  0  0  0  0
  184.8330  177.3370  146.5660 C   0  0  0  0  0  2  0  0  0  0  0  0
  185.6100  178.0790  147.6060 C   0  0  0  0  0  0  0  0  0  0  0  0
  185.7330  179.4640  147.5440 O   0  0  0  0  0  0  0  0  0  0  0  0
  186.1310  177.4440  148.5580 O   0  0  0  0  0  1  0  0  0  0  0  0
  188.1900  178.3700  142.3890 C   0  0  0  0  0  2  0  0  0  0  0  0
  190.7350  177.3280  142.3890 O   0  0  0  0  0  0  0  0  0  0  0  0
  190.6800  178.1490  143.4680 N   0  0  0  0  0  0  0  0  0  0  0  0
  189.6070  178.0230  142.6910 C   0  0  0  0  0  0  0  0  0  0  0  0
  1  3  1  0  0  0  0
  1 31  1  0  0  0  0
  3  2  1  1  0  0  0
  4  3  1  0  0  0  0
  4  6  1  0  0  0  0
  5  4  1  0  0  0  0
  7 30  1  6  0  0  0
  7 13  1  0  0  0  0
  8 28  1  1  0  0  0
  8  9  1  0  0  0  0
  8 17  1  0  0  0  0
  9 18  1  6  0  0  0
  9 15  1  0  0  0  0
 10 24  1  0  0  0  0
 11 10  2  0  0  0  0
 12 11  2  0  0  0  0
 14 18  1  0  0  0  0
 15 13  1  6  0  0  0
 15 16  1  0  0  0  0
 16 10  1  0  0  0  0
 16  4  1  1  0  0  0
 17 12  1  0  0  0  0
 19 14  1  0  0  0  0
 19  7  1  0  0  0  0
 20 25  1  0  0  0  0
 21 24  1  0  0  0  0
 21 26  2  0  0  0  0
 22 25  2  0  0  0  0
 22 23  1  0  0  0  0
 24 20  2  0  0  0  0
 26 22  1  0  0  0  0
 27 28  1  0  0  0  0
 29 30  2  0  0  0  0
 32 34  1  0  0  0  0
 33 31  1  1  0  0  0
 33 36  1  0  0  0  0
 34 35  1  1  0  0  0
 34 39  1  0  0  0  0
 37 57  1  1  0  0  0
 37 33  1  0  0  0  0
 38 32  2  0  0  0  0
 38 37  1  0  0  0  0
 39 36  1  0  0  0  0
 39 52  1  1  0  0  0
 40 41  2  0  0  0  0
 40 32  1  0  0  0  0
 42 43  1  0  0  0  0
 42 41  1  0  0  0  0
 43 45  1  0  0  0  0
 45 44  1  1  0  0  0
 47 46  1  6  0  0  0
 47 45  1  0  0  0  0
 49 47  1  0  0  0  0
 49 48  1  1  0  0  0
 50 51  1  0  0  0  0
 51 49  1  0  0  0  0
 52 53  1  0  0  0  0
 53 54  1  0  0  0  0
 54 56  1  0  0  0  0
 55 54  2  0  0  0  0
 57 60  1  0  0  0  0
 58 60  1  0  0  0  0
 58 59  1  0  0  0  0
 60 59  2  0  0  0  0
M  END
>  <MODEL>
4

>  <REMARK>
 VINA RESULT:      -5.9      2.412      4.851
  Name = 
  20 active torsions:
  status: ('A' for Active; 'I' for Inactive)
    1  A    between atoms: C_2  and  C_54
    2  A    between atoms: C_3  and  C_11
    3  A    between atoms: C_4  and  C_17
    4  A    between atoms: C_7  and  C_32
    5  A    between atoms: N_12  and  C_39
    6  A    between atoms: N_12  and  C_56
    7  A    between atoms: C_14  and  C_43
    8  A    between atoms: C_16  and  C_19
    9  A    between atoms: C_16  and  C_44
   10  A    between atoms: C_19  and  C_20
   11  A    between atoms: C_20  and  C_43
   12  A    between atoms: O_22  and  C_40
   13  A    between atoms: O_22  and  C_59
   14  A    between atoms: C_34  and  C_51
   15  A    between atoms: C_34  and  C_53
   16  A    between atoms: O_36  and  C_45
   17  A    between atoms: C_39  and  C_47
   18  A    between atoms: C_40  and  C_42
   19  A    between atoms: C_45  and  C_46
   20  A    between atoms: C_46  and  C_56
                            x       y       z     vdW  Elec       q    Type
                         _______ _______ _______ _____ _____    ______ ____

>  <TORSDO>
F 20

$$$$
=
 OpenBabel11062420413D

 60 64  0  0  1  0  0  0  0  0999 V2000
  195.6330  170.3280  141.0050 C   0  0  0  0  0  2  0  0  0  0  0  0
  196.2040  168.9940  138.9440 C   0  0  0  0  0  1  0  0  0  0  0  0
  195.4950  170.2350  139.4780 C   0  0  1  0  0  3  0  0  0  0  0  0
  194.0560  170.4390  138.9220 C   0  0  0  0  0  0  0  0  0  0  0  0
  193.0800  169.5320  139.6630 C   0  0  0  0  0  1  0  0  0  0  0  0
  193.9880  170.0130  137.4570 C   0  0  0  0  0  1  0  0  0  0  0  0
  196.0810  174.6180  137.9470 C   0  0  2  0  0  3  0  0  0  0  0  0
  192.6990  173.8440  136.1860 C   0  0  1  0  0  3  0  0  0  0  0  0
  193.7990  172.8720  136.6740 C   0  0  2  0  0  3  0  0  0  0  0  0
  192.0660  172.0930  139.3060 C   0  0  0  0  0  0  0  0  0  0  0  0
  191.3250  172.3460  138.2600 C   0  0  0  0  0  0  0  0  0  0  0  0
  190.7170  172.6210  137.1420 C   0  0  0  0  0  3  0  0  0  0  0  0
  195.6330  173.2810  138.5110 C   0  0  0  0  0  2  0  0  0  0  0  0
  195.6520  174.1600  135.5100 C   0  0  0  0  0  2  0  0  0  0  0  0
  194.1680  173.0010  138.1800 C   0  0  2  0  0  3  0  0  0  0  0  0
  193.5530  171.9060  139.0890 C   0  0  2  0  0  3  0  0  0  0  0  0
  191.4030  173.2340  136.0840 O   0  0  0  0  0  0  0  0  0  0  0  0
  194.9750  172.8070  135.6960 C   0  0  0  0  0  2  0  0  0  0  0  0
  196.7060  174.4120  136.5770 C   0  0  0  0  0  2  0  0  0  0  0  0
  192.3290  172.3780  141.7900 C   0  0  0  0  0  3  0  0  0  0  0  0
  190.1250  171.9790  140.8780 C   0  0  0  0  0  3  0  0  0  0  0  0
  190.4150  172.2550  143.2650 C   0  0  0  0  0  0  0  0  0  0  0  0
  189.8390  172.3000  144.6350 C   0  0  0  0  0  1  0  0  0  0  0  0
  191.5020  172.1530  140.6750 C   0  0  0  0  0  0  0  0  0  0  0  0
  191.7880  172.4280  143.0780 C   0  0  0  0  0  3  0  0  0  0  0  0
  189.5820  172.0320  142.1650 C   0  0  0  0  0  3  0  0  0  0  0  0
  192.7950  176.3330  136.0010 C   0  0  0  0  0  1  0  0  0  0  0  0
  192.6450  175.1640  136.9540 C   0  0  0  0  0  2  0  0  0  0  0  0
  197.9000  174.5110  139.4410 O   0  0  0  0  0  0  0  0  0  0  0  0
  197.0890  175.2180  138.8680 C   0  0  0  0  0  3  0  0  0  0  0  0
  196.4480  171.5370  141.4520 C   0  0  0  0  0  2  0  0  0  0  0  0
  194.9760  173.8500  145.1690 C   0  0  0  0  0  0  0  0  0  0  0  0
  195.9460  172.0480  142.7910 C   0  0  1  0  0  3  0  0  0  0  0  0
  196.0880  173.0440  145.7900 C   0  0  2  0  0  3  0  0  0  0  0  0
  197.3120  173.7140  145.7150 O   0  0  0  0  0  1  0  0  0  0  0  0
  196.8610  171.5380  143.8960 C   0  0  0  0  0  2  0  0  0  0  0  0
  195.8110  173.5760  142.7850 C   0  0  1  0  0  3  0  0  0  0  0  0
  194.8740  174.0720  143.8520 C   0  0  0  0  0  3  0  0  0  0  0  0
  196.1780  171.6120  145.2590 C   0  0  1  0  0  3  0  0  0  0  0  0
  193.9550  174.4630  146.0250 C   0  0  0  0  0  3  0  0  0  0  0  0
  192.7980  174.9090  145.5530 C   0  0  0  0  0  3  0  0  0  0  0  0
  191.7960  175.4970  146.4880 C   0  0  0  0  0  2  0  0  0  0  0  0
  190.6850  176.0760  145.7450 N   0  0  0  0  0  2  0  0  0  0  0  0
  189.1350  174.8800  147.1730 C   0  0  0  0  0  1  0  0  0  0  0  0
  189.5560  176.2380  146.6520 C   0  0  2  0  0  3  0  0  0  0  0  0
  187.1530  176.3270  146.3370 O   0  0  0  0  0  1  0  0  0  0  0  0
  188.3700  176.9060  145.9570 C   0  0  2  0  0  3  0  0  0  0  0  0
  187.8070  177.9880  143.9040 O   0  0  0  0  0  1  0  0  0  0  0  0
  188.5280  176.9170  144.4400 C   0  0  2  0  0  3  0  0  0  0  0  0
  187.5510  176.0850  142.6370 C   0  0  0  0  0  1  0  0  0  0  0  0
  188.0790  175.7210  143.8780 O   0  0  0  0  0  0  0  0  0  0  0  0
  196.8790  170.8200  146.1730 O   0  0  0  0  0  0  0  0  0  0  0  0
  196.6000  169.5020  145.8000 C   0  0  0  0  0  2  0  0  0  0  0  0
  195.3260  169.0550  146.4380 C   0  0  0  0  0  0  0  0  0  0  0  0
  194.1890  168.8260  145.6680 O   0  0  0  0  0  0  0  0  0  0  0  0
  195.2920  168.8590  147.6800 O   0  0  0  0  0  1  0  0  0  0  0  0
  197.1520  174.3100  142.7740 C   0  0  0  0  0  2  0  0  0  0  0  0
  196.5050  176.8750  142.0220 O   0  0  0  0  0  0  0  0  0  0  0  0
  197.1250  176.9960  143.2230 N   0  0  0  0  0  0  0  0  0  0  0  0
  196.9580  175.7860  142.6950 C   0  0  0  0  0  0  0  0  0  0  0  0
  1 31  1  0  0  0  0
  3  2  1  1  0  0  0
  3  1  1  0  0  0  0
  4  3  1  0  0  0  0
  4  5  1  0  0  0  0
  6  4  1  0  0  0  0
  7 13  1  0  0  0  0
  7 30  1  1  0  0  0
  8  9  1  0  0  0  0
  8 28  1  1  0  0  0
  9 18  1  6  0  0  0
  9 15  1  0  0  0  0
 10 24  1  0  0  0  0
 11 10  2  0  0  0  0
 12 11  2  0  0  0  0
 14 18  1  0  0  0  0
 14 19  1  0  0  0  0
 15 13  1  6  0  0  0
 15 16  1  0  0  0  0
 16  4  1  6  0  0  0
 16 10  1  0  0  0  0
 17  8  1  0  0  0  0
 17 12  1  0  0  0  0
 19  7  1  0  0  0  0
 20 25  1  0  0  0  0
 21 26  2  0  0  0  0
 22 23  1  0  0  0  0
 24 21  1  0  0  0  0
 24 20  2  0  0  0  0
 25 22  2  0  0  0  0
 26 22  1  0  0  0  0
 27 28  1  0  0  0  0
 30 29  2  0  0  0  0
 32 34  1  0  0  0  0
 32 40  1  0  0  0  0
 33 31  1  6  0  0  0
 33 36  1  0  0  0  0
 34 35  1  6  0  0  0
 36 39  1  0  0  0  0
 37 57  1  1  0  0  0
 37 33  1  0  0  0  0
 37 38  1  0  0  0  0
 38 32  2  0  0  0  0
 39 34  1  0  0  0  0
 39 52  1  1  0  0  0
 41 40  2  0  0  0  0
 41 42  1  0  0  0  0
 43 42  1  0  0  0  0
 43 45  1  0  0  0  0
 45 44  1  6  0  0  0
 47 46  1  6  0  0  0
 47 45  1  0  0  0  0
 49 48  1  6  0  0  0
 49 47  1  0  0  0  0
 50 51  1  0  0  0  0
 51 49  1  0  0  0  0
 53 52  1  0  0  0  0
 53 54  1  0  0  0  0
 54 56  1  0  0  0  0
 55 54  2  0  0  0  0
 58 60  1  0  0  0  0
 58 59  1  0  0  0  0
 60 57  1  0  0  0  0
 60 59  2  0  0  0  0
M  END
>  <MODEL>
5

>  <REMARK>
 VINA RESULT:      -5.9      4.230      8.642
  Name = 
  20 active torsions:
  status: ('A' for Active; 'I' for Inactive)
    1  A    between atoms: C_2  and  C_54
    2  A    between atoms: C_3  and  C_11
    3  A    between atoms: C_4  and  C_17
    4  A    between atoms: C_7  and  C_32
    5  A    between atoms: N_12  and  C_39
    6  A    between atoms: N_12  and  C_56
    7  A    between atoms: C_14  and  C_43
    8  A    between atoms: C_16  and  C_19
    9  A    between atoms: C_16  and  C_44
   10  A    between atoms: C_19  and  C_20
   11  A    between atoms: C_20  and  C_43
   12  A    between atoms: O_22  and  C_40
   13  A    between atoms: O_22  and  C_59
   14  A    between atoms: C_34  and  C_51
   15  A    between atoms: C_34  and  C_53
   16  A    between atoms: O_36  and  C_45
   17  A    between atoms: C_39  and  C_47
   18  A    between atoms: C_40  and  C_42
   19  A    between atoms: C_45  and  C_46
   20  A    between atoms: C_46  and  C_56
                            x       y       z     vdW  Elec       q    Type
                         _______ _______ _______ _____ _____    ______ ____

>  <TORSDO>
F 20

$$$$
=
 OpenBabel11062420413D

 60 64  0  0  1  0  0  0  0  0999 V2000
  188.9000  174.3510  142.5050 C   0  0  0  0  0  2  0  0  0  0  0  0
  189.8630  172.8180  144.2590 C   0  0  0  0  0  1  0  0  0  0  0  0
  190.0850  173.4540  142.8900 C   0  0  1  0  0  3  0  0  0  0  0  0
  190.5560  172.4570  141.7910 C   0  0  0  0  0  0  0  0  0  0  0  0
  189.6680  172.5860  140.5590 C   0  0  0  0  0  1  0  0  0  0  0  0
  190.3900  171.0170  142.2730 C   0  0  0  0  0  1  0  0  0  0  0  0
  194.3210  174.2090  144.0870 C   0  0  2  0  0  3  0  0  0  0  0  0
  194.6740  170.6350  142.5900 C   0  0  1  0  0  3  0  0  0  0  0  0
  193.4110  171.3680  143.0970 C   0  0  2  0  0  3  0  0  0  0  0  0
  192.4730  172.0350  140.0620 C   0  0  0  0  0  0  0  0  0  0  0  0
  193.0940  170.8910  140.1670 C   0  0  0  0  0  0  0  0  0  0  0  0
  193.7240  169.7800  140.4210 C   0  0  0  0  0  3  0  0  0  0  0  0
  193.0200  173.9550  143.3450 C   0  0  0  0  0  2  0  0  0  0  0  0
  194.4940  172.0110  145.3020 C   0  0  0  0  0  2  0  0  0  0  0  0
  193.1340  172.7430  142.4230 C   0  0  2  0  0  3  0  0  0  0  0  0
  192.0260  172.7160  141.3380 C   0  0  2  0  0  3  0  0  0  0  0  0
  194.3890  169.5940  141.6420 O   0  0  0  0  0  0  0  0  0  0  0  0
  193.3070  171.3350  144.6240 C   0  0  0  0  0  2  0  0  0  0  0  0
  194.2830  173.5110  145.4380 C   0  0  0  0  0  2  0  0  0  0  0  0
  192.8390  174.0360  138.5830 C   0  0  0  0  0  3  0  0  0  0  0  0
  191.7570  172.0760  137.6660 C   0  0  0  0  0  3  0  0  0  0  0  0
  192.1230  174.0210  136.2720 C   0  0  0  0  0  0  0  0  0  0  0  0
  191.9900  174.7080  134.9600 C   0  0  0  0  0  1  0  0  0  0  0  0
  192.3580  172.7260  138.7550 C   0  0  0  0  0  0  0  0  0  0  0  0
  192.7210  174.6790  137.3480 C   0  0  0  0  0  3  0  0  0  0  0  0
  191.6420  172.7180  136.4300 C   0  0  0  0  0  3  0  0  0  0  0  0
  196.9770  171.4990  143.0240 C   0  0  0  0  0  1  0  0  0  0  0  0
  195.7810  171.5650  142.0950 C   0  0  0  0  0  2  0  0  0  0  0  0
  193.5100  176.4120  144.2890 O   0  0  0  0  0  0  0  0  0  0  0  0
  194.4830  175.6770  144.2910 C   0  0  0  0  0  3  0  0  0  0  0  0
  188.5940  175.4090  143.5600 C   0  0  0  0  0  2  0  0  0  0  0  0
  185.1480  178.0110  141.9190 C   0  0  0  0  0  0  0  0  0  0  0  0
  187.3090  176.1420  143.2160 C   0  0  1  0  0  3  0  0  0  0  0  0
  185.0700  178.3710  143.3810 C   0  0  2  0  0  3  0  0  0  0  0  0
  185.8970  179.4550  143.6870 O   0  0  0  0  0  1  0  0  0  0  0  0
  186.7790  176.8350  144.4640 C   0  0  0  0  0  2  0  0  0  0  0  0
  187.5180  177.1060  142.0410 C   0  0  1  0  0  3  0  0  0  0  0  0
  186.2280  177.4590  141.3520 C   0  0  0  0  0  3  0  0  0  0  0  0
  185.3000  177.1830  144.3180 C   0  0  1  0  0  3  0  0  0  0  0  0
  184.0100  178.2930  141.0380 C   0  0  0  0  0  3  0  0  0  0  0  0
  182.7500  178.2180  141.4480 C   0  0  0  0  0  3  0  0  0  0  0  0
  181.6450  178.5440  140.5030 C   0  0  0  0  0  2  0  0  0  0  0  0
  180.3740  178.0460  141.0130 N   0  0  0  0  0  2  0  0  0  0  0  0
  179.0940  179.0140  142.8300 C   0  0  0  0  0  1  0  0  0  0  0  0
  179.5500  179.1870  141.3960 C   0  0  2  0  0  3  0  0  0  0  0  0
  178.1810  178.2150  139.6460 O   0  0  0  0  0  1  0  0  0  0  0  0
  178.3290  179.3250  140.4870 C   0  0  2  0  0  3  0  0  0  0  0  0
  178.1560  180.3450  138.3350 O   0  0  0  0  0  1  0  0  0  0  0  0
  178.3540  180.6250  139.6890 C   0  0  2  0  0  3  0  0  0  0  0  0
  179.4680  182.4230  139.0370 C   0  0  0  0  0  1  0  0  0  0  0  0
  179.5660  181.2960  139.8580 O   0  0  0  0  0  0  0  0  0  0  0  0
  184.7660  177.4740  145.5770 O   0  0  0  0  0  0  0  0  0  0  0  0
  185.7530  177.0870  146.4870 C   0  0  0  0  0  2  0  0  0  0  0  0
  186.0490  178.2150  147.4220 C   0  0  0  0  0  0  0  0  0  0  0  0
  187.3150  178.3580  147.9820 O   0  0  0  0  0  1  0  0  0  0  0  0
  185.1490  179.0550  147.6810 O   0  0  0  0  0  0  0  0  0  0  0  0
  188.3650  178.3290  142.3950 C   0  0  0  0  0  2  0  0  0  0  0  0
  190.5560  177.7310  143.9460 O   0  0  0  0  0  0  0  0  0  0  0  0
  190.9520  177.5220  142.6650 N   0  0  0  0  0  0  0  0  0  0  0  0
  189.7060  177.9270  142.9040 C   0  0  0  0  0  0  0  0  0  0  0  0
  1  3  1  0  0  0  0
  1 31  1  0  0  0  0
  3  2  1  1  0  0  0
  4  6  1  0  0  0  0
  4  3  1  0  0  0  0
  5  4  1  0  0  0  0
  7 30  1  1  0  0  0
  7 19  1  0  0  0  0
  8 28  1  6  0  0  0
  8  9  1  0  0  0  0
  9 18  1  1  0  0  0
 10 11  2  0  0  0  0
 10 16  1  0  0  0  0
 11 12  2  0  0  0  0
 12 17  1  0  0  0  0
 13  7  1  0  0  0  0
 14 19  1  0  0  0  0
 15  9  1  0  0  0  0
 15 13  1  1  0  0  0
 16  4  1  1  0  0  0
 16 15  1  0  0  0  0
 17  8  1  0  0  0  0
 18 14  1  0  0  0  0
 20 24  1  0  0  0  0
 21 24  2  0  0  0  0
 22 26  2  0  0  0  0
 22 25  1  0  0  0  0
 23 22  1  0  0  0  0
 24 10  1  0  0  0  0
 25 20  2  0  0  0  0
 26 21  1  0  0  0  0
 28 27  1  0  0  0  0
 29 30  2  0  0  0  0
 32 34  1  0  0  0  0
 33 31  1  1  0  0  0
 33 36  1  0  0  0  0
 34 35  1  1  0  0  0
 34 39  1  0  0  0  0
 37 57  1  1  0  0  0
 37 33  1  0  0  0  0
 38 32  2  0  0  0  0
 38 37  1  0  0  0  0
 39 36  1  0  0  0  0
 39 52  1  1  0  0  0
 40 41  2  0  0  0  0
 40 32  1  0  0  0  0
 42 43  1  0  0  0  0
 42 41  1  0  0  0  0
 43 45  1  0  0  0  0
 45 44  1  1  0  0  0
 47 46  1  6  0  0  0
 47 45  1  0  0  0  0
 49 48  1  6  0  0  0
 49 51  1  0  0  0  0
 49 47  1  0  0  0  0
 50 51  1  0  0  0  0
 52 53  1  0  0  0  0
 53 54  1  0  0  0  0
 54 56  2  0  0  0  0
 54 55  1  0  0  0  0
 57 60  1  0  0  0  0
 59 60  2  0  0  0  0
 59 58  1  0  0  0  0
 60 58  1  0  0  0  0
M  END
>  <MODEL>
6

>  <REMARK>
 VINA RESULT:      -5.5      2.456      5.496
  Name = 
  20 active torsions:
  status: ('A' for Active; 'I' for Inactive)
    1  A    between atoms: C_2  and  C_54
    2  A    between atoms: C_3  and  C_11
    3  A    between atoms: C_4  and  C_17
    4  A    between atoms: C_7  and  C_32
    5  A    between atoms: N_12  and  C_39
    6  A    between atoms: N_12  and  C_56
    7  A    between atoms: C_14  and  C_43
    8  A    between atoms: C_16  and  C_19
    9  A    between atoms: C_16  and  C_44
   10  A    between atoms: C_19  and  C_20
   11  A    between atoms: C_20  and  C_43
   12  A    between atoms: O_22  and  C_40
   13  A    between atoms: O_22  and  C_59
   14  A    between atoms: C_34  and  C_51
   15  A    between atoms: C_34  and  C_53
   16  A    between atoms: O_36  and  C_45
   17  A    between atoms: C_39  and  C_47
   18  A    between atoms: C_40  and  C_42
   19  A    between atoms: C_45  and  C_46
   20  A    between atoms: C_46  and  C_56
                            x       y       z     vdW  Elec       q    Type
                         _______ _______ _______ _____ _____    ______ ____

>  <TORSDO>
F 20

$$$$
=
 OpenBabel11062420413D

 60 64  0  0  1  0  0  0  0  0999 V2000
  188.6580  174.7810  140.3050 C   0  0  0  0  0  2  0  0  0  0  0  0
  188.7260  172.2900  140.6830 C   0  0  0  0  0  1  0  0  0  0  0  0
  189.2870  173.4510  139.8670 C   0  0  1  0  0  3  0  0  0  0  0  0
  189.3170  173.1970  138.3310 C   0  0  0  0  0  0  0  0  0  0  0  0
  188.7640  174.4110  137.5940 C   0  0  0  0  0  1  0  0  0  0  0  0
  188.3970  172.0340  137.9660 C   0  0  0  0  0  1  0  0  0  0  0  0
  192.9220  170.6220  140.0320 C   0  0  2  0  0  3  0  0  0  0  0  0
  191.6300  169.7140  136.4760 C   0  0  1  0  0  3  0  0  0  0  0  0
  190.8680  170.3330  137.6710 C   0  0  2  0  0  3  0  0  0  0  0  0
  191.0180  173.2930  136.3470 C   0  0  0  0  0  0  0  0  0  0  0  0
  190.9150  172.3390  135.4600 C   0  0  0  0  0  0  0  0  0  0  0  0
  190.8070  171.2920  134.6950 C   0  0  0  0  0  3  0  0  0  0  0  0
  191.8510  171.6530  139.7200 C   0  0  0  0  0  2  0  0  0  0  0  0
  191.6830  168.5590  139.2940 C   0  0  0  0  0  2  0  0  0  0  0  0
  191.4870  171.6440  138.2370 C   0  0  2  0  0  3  0  0  0  0  0  0
  190.7610  172.9410  137.7960 C   0  0  2  0  0  3  0  0  0  0  0  0
  191.0290  170.0040  135.2040 O   0  0  0  0  0  0  0  0  0  0  0  0
  190.4740  169.2760  138.7050 C   0  0  0  0  0  2  0  0  0  0  0  0
  192.2680  169.3220  140.4730 C   0  0  0  0  0  2  0  0  0  0  0  0
  190.8910  175.4080  134.9910 C   0  0  0  0  0  3  0  0  0  0  0  0
  192.6840  175.1420  136.5940 C   0  0  0  0  0  3  0  0  0  0  0  0
  192.5320  177.1630  135.2700 C   0  0  0  0  0  0  0  0  0  0  0  0
  193.0670  178.4980  134.8930 C   0  0  0  0  0  1  0  0  0  0  0  0
  191.5340  174.6320  135.9720 C   0  0  0  0  0  0  0  0  0  0  0  0
  191.3890  176.6660  134.6420 C   0  0  0  0  0  3  0  0  0  0  0  0
  193.1800  176.4020  136.2470 C   0  0  0  0  0  3  0  0  0  0  0  0
  193.8350  169.1180  135.4650 C   0  0  0  0  0  1  0  0  0  0  0  0
  193.1300  170.0030  136.4740 C   0  0  0  0  0  2  0  0  0  0  0  0
  194.9690  171.3630  140.9350 O   0  0  0  0  0  0  0  0  0  0  0  0
  193.7860  171.1400  141.1310 C   0  0  0  0  0  3  0  0  0  0  0  0
  187.9930  174.6970  141.6740 C   0  0  0  0  0  2  0  0  0  0  0  0
  190.9370  176.4030  144.7980 C   0  0  0  0  0  0  0  0  0  0  0  0
  188.7940  175.4790  142.7000 C   0  0  1  0  0  3  0  0  0  0  0  0
  189.6390  176.5780  145.5440 C   0  0  2  0  0  3  0  0  0  0  0  0
  189.3210  175.4420  146.2940 O   0  0  0  0  0  1  0  0  0  0  0  0
  187.8800  175.8810  143.8500 C   0  0  0  0  0  2  0  0  0  0  0  0
  190.0230  174.6850  143.1650 C   0  0  1  0  0  3  0  0  0  0  0  0
  191.0840  175.5700  143.7600 C   0  0  0  0  0  3  0  0  0  0  0  0
  188.4770  177.0300  144.6570 C   0  0  1  0  0  3  0  0  0  0  0  0
  192.1270  177.1480  145.2230 C   0  0  0  0  0  3  0  0  0  0  0  0
  193.3570  176.6680  145.0930 C   0  0  0  0  0  3  0  0  0  0  0  0
  194.5210  177.4930  145.5250 C   0  0  0  0  0  2  0  0  0  0  0  0
  195.7300  177.0710  144.8300 N   0  0  0  0  0  2  0  0  0  0  0  0
  196.1040  174.7170  145.2710 C   0  0  0  0  0  1  0  0  0  0  0  0
  195.5180  175.7270  144.3060 C   0  0  2  0  0  3  0  0  0  0  0  0
  196.2970  176.7750  142.2630 O   0  0  0  0  0  1  0  0  0  0  0  0
  196.1650  175.5520  142.9330 C   0  0  2  0  0  3  0  0  0  0  0  0
  195.7260  174.7430  140.7300 O   0  0  0  0  0  1  0  0  0  0  0  0
  195.4250  174.5280  142.0770 C   0  0  2  0  0  3  0  0  0  0  0  0
  193.5240  174.8850  141.0010 C   0  0  0  0  0  1  0  0  0  0  0  0
  194.0450  174.6150  142.2690 O   0  0  0  0  0  0  0  0  0  0  0  0
  187.4810  177.6050  145.4520 O   0  0  0  0  0  0  0  0  0  0  0  0
  186.3170  177.5340  144.6820 C   0  0  0  0  0  2  0  0  0  0  0  0
  186.0490  178.8600  144.0470 C   0  0  0  0  0  0  0  0  0  0  0  0
  186.3010  179.0620  142.6930 O   0  0  0  0  0  0  0  0  0  0  0  0
  185.5650  179.7910  144.7410 O   0  0  0  0  0  1  0  0  0  0  0  0
  189.6800  173.4830  144.0450 C   0  0  0  0  0  2  0  0  0  0  0  0
  191.1260  171.2480  143.3540 O   0  0  0  0  0  0  0  0  0  0  0  0
  191.8720  171.8860  144.2910 N   0  0  0  0  0  0  0  0  0  0  0  0
  190.7070  172.4110  143.9170 C   0  0  0  0  0  0  0  0  0  0  0  0
  1 31  1  0  0  0  0
  3  1  1  0  0  0  0
  3  2  1  1  0  0  0
  4  3  1  0  0  0  0
  5  4  1  0  0  0  0
  6  4  1  0  0  0  0
  7 19  1  0  0  0  0
  7 30  1  1  0  0  0
  8 28  1  6  0  0  0
  8  9  1  0  0  0  0
  9 15  1  0  0  0  0
  9 18  1  1  0  0  0
 10 16  1  0  0  0  0
 11 10  2  0  0  0  0
 12 17  1  0  0  0  0
 12 11  2  0  0  0  0
 13  7  1  0  0  0  0
 14 19  1  0  0  0  0
 15 13  1  1  0  0  0
 16 15  1  0  0  0  0
 16  4  1  6  0  0  0
 17  8  1  0  0  0  0
 18 14  1  0  0  0  0
 20 24  1  0  0  0  0
 22 26  2  0  0  0  0
 23 22  1  0  0  0  0
 24 10  1  0  0  0  0
 24 21  2  0  0  0  0
 25 20  2  0  0  0  0
 25 22  1  0  0  0  0
 26 21  1  0  0  0  0
 27 28  1  0  0  0  0
 29 30  2  0  0  0  0
 32 40  1  0  0  0  0
 32 34  1  0  0  0  0
 33 31  1  6  0  0  0
 33 37  1  0  0  0  0
 33 36  1  0  0  0  0
 34 35  1  6  0  0  0
 36 39  1  0  0  0  0
 37 38  1  0  0  0  0
 37 57  1  1  0  0  0
 38 32  2  0  0  0  0
 39 52  1  1  0  0  0
 39 34  1  0  0  0  0
 41 40  2  0  0  0  0
 41 42  1  0  0  0  0
 43 42  1  0  0  0  0
 45 43  1  0  0  0  0
 45 44  1  1  0  0  0
 47 46  1  6  0  0  0
 47 45  1  0  0  0  0
 49 48  1  6  0  0  0
 49 51  1  0  0  0  0
 49 47  1  0  0  0  0
 50 51  1  0  0  0  0
 53 52  1  0  0  0  0
 54 53  1  0  0  0  0
 54 56  1  0  0  0  0
 55 54  2  0  0  0  0
 58 60  1  0  0  0  0
 58 59  1  0  0  0  0
 60 57  1  0  0  0  0
 60 59  2  0  0  0  0
M  END
>  <MODEL>
7

>  <REMARK>
 VINA RESULT:      -5.4      4.049      9.642
  Name = 
  20 active torsions:
  status: ('A' for Active; 'I' for Inactive)
    1  A    between atoms: C_2  and  C_54
    2  A    between atoms: C_3  and  C_11
    3  A    between atoms: C_4  and  C_17
    4  A    between atoms: C_7  and  C_32
    5  A    between atoms: N_12  and  C_39
    6  A    between atoms: N_12  and  C_56
    7  A    between atoms: C_14  and  C_43
    8  A    between atoms: C_16  and  C_19
    9  A    between atoms: C_16  and  C_44
   10  A    between atoms: C_19  and  C_20
   11  A    between atoms: C_20  and  C_43
   12  A    between atoms: O_22  and  C_40
   13  A    between atoms: O_22  and  C_59
   14  A    between atoms: C_34  and  C_51
   15  A    between atoms: C_34  and  C_53
   16  A    between atoms: O_36  and  C_45
   17  A    between atoms: C_39  and  C_47
   18  A    between atoms: C_40  and  C_42
   19  A    between atoms: C_45  and  C_46
   20  A    between atoms: C_46  and  C_56
                            x       y       z     vdW  Elec       q    Type
                         _______ _______ _______ _____ _____    ______ ____

>  <TORSDO>
F 20

$$$$
=
 OpenBabel11062420413D

 60 64  0  0  1  0  0  0  0  0999 V2000
  188.9830  174.1240  140.9930 C   0  0  0  0  0  2  0  0  0  0  0  0
  188.8900  172.1410  142.5470 C   0  0  0  0  0  1  0  0  0  0  0  0
  189.5870  173.4640  142.2420 C   0  0  1  0  0  3  0  0  0  0  0  0
  191.1410  173.3910  142.2750 C   0  0  0  0  0  0  0  0  0  0  0  0
  191.7310  174.4700  141.3760 C   0  0  0  0  0  1  0  0  0  0  0  0
  191.6230  172.0610  141.6990 C   0  0  0  0  0  1  0  0  0  0  0  0
  194.1200  170.8100  144.9190 C   0  0  2  0  0  3  0  0  0  0  0  0
  195.1830  174.4680  144.1260 C   0  0  1  0  0  3  0  0  0  0  0  0
  194.2990  173.5010  143.3050 C   0  0  2  0  0  3  0  0  0  0  0  0
  191.5930  175.0000  144.2870 C   0  0  0  0  0  0  0  0  0  0  0  0
  192.6080  175.8110  144.1520 C   0  0  0  0  0  0  0  0  0  0  0  0
  193.7000  176.4970  143.9730 C   0  0  0  0  0  3  0  0  0  0  0  0
  192.9530  171.4090  144.1530 C   0  0  0  0  0  2  0  0  0  0  0  0
  195.9910  171.6130  143.4390 C   0  0  0  0  0  2  0  0  0  0  0  0
  193.0680  172.9300  144.0660 C   0  0  2  0  0  3  0  0  0  0  0  0
  191.7190  173.6070  143.7080 C   0  0  2  0  0  3  0  0  0  0  0  0
  194.9380  175.8530  143.8340 O   0  0  0  0  0  0  0  0  0  0  0  0
  195.1380  172.4850  142.5250 C   0  0  0  0  0  2  0  0  0  0  0  0
  195.2170  170.4060  143.9460 C   0  0  0  0  0  2  0  0  0  0  0  0
  190.0090  174.5520  146.1890 C   0  0  0  0  0  3  0  0  0  0  0  0
  189.7110  176.5470  144.8530 C   0  0  0  0  0  3  0  0  0  0  0  0
  188.2030  176.0820  146.6880 C   0  0  0  0  0  0  0  0  0  0  0  0
  187.0220  176.4570  147.5100 C   0  0  0  0  0  1  0  0  0  0  0  0
  190.4250  175.3700  145.1220 C   0  0  0  0  0  0  0  0  0  0  0  0
  188.9030  174.9070  146.9670 C   0  0  0  0  0  3  0  0  0  0  0  0
  188.6070  176.9040  145.6320 C   0  0  0  0  0  3  0  0  0  0  0  0
  196.5850  173.9210  146.1200 C   0  0  0  0  0  1  0  0  0  0  0  0
  195.1770  174.1960  145.6300 C   0  0  0  0  0  2  0  0  0  0  0  0
  193.9720  168.4890  145.2970 O   0  0  0  0  0  0  0  0  0  0  0  0
  193.6450  169.6060  145.6590 C   0  0  0  0  0  3  0  0  0  0  0  0
  188.4490  173.1090  139.9890 C   0  0  0  0  0  2  0  0  0  0  0  0
  191.3680  172.9960  136.4100 C   0  0  0  0  0  0  0  0  0  0  0  0
  189.4880  172.8290  138.9170 C   0  0  1  0  0  3  0  0  0  0  0  0
  190.6950  171.6570  136.2380 C   0  0  2  0  0  3  0  0  0  0  0  0
  189.5480  171.7570  135.4470 O   0  0  0  0  0  1  0  0  0  0  0  0
  189.2010  171.4740  138.2830 C   0  0  0  0  0  2  0  0  0  0  0  0
  189.5460  173.9670  137.8900 C   0  0  1  0  0  3  0  0  0  0  0  0
  190.8480  173.9930  137.1370 C   0  0  0  0  0  3  0  0  0  0  0  0
  190.4290  170.9310  137.5580 C   0  0  1  0  0  3  0  0  0  0  0  0
  192.6430  173.2620  135.7370 C   0  0  0  0  0  3  0  0  0  0  0  0
  193.3430  174.3720  135.9380 C   0  0  0  0  0  3  0  0  0  0  0  0
  194.6440  174.5620  135.2380 C   0  0  0  0  0  2  0  0  0  0  0  0
  195.3960  175.6500  135.8480 N   0  0  0  0  0  2  0  0  0  0  0  0
  196.7370  173.6400  136.0430 C   0  0  0  0  0  1  0  0  0  0  0  0
  196.6230  175.1040  136.4160 C   0  0  2  0  0  3  0  0  0  0  0  0
  197.8970  175.6760  138.3990 O   0  0  0  0  0  1  0  0  0  0  0  0
  196.6460  175.2450  137.9380 C   0  0  2  0  0  3  0  0  0  0  0  0
  194.8490  174.0410  138.9480 O   0  0  0  0  0  1  0  0  0  0  0  0
  196.2090  173.9620  138.6380 C   0  0  2  0  0  3  0  0  0  0  0  0
  197.7860  172.6760  139.5080 C   0  0  0  0  0  1  0  0  0  0  0  0
  196.9450  173.7510  139.8060 O   0  0  0  0  0  0  0  0  0  0  0  0
  190.2550  169.5650  137.3100 O   0  0  0  0  0  0  0  0  0  0  0  0
  191.5330  169.0120  137.4180 C   0  0  0  0  0  2  0  0  0  0  0  0
  191.9670  169.0170  138.8480 C   0  0  0  0  0  0  0  0  0  0  0  0
  191.2160  168.3610  139.8200 O   0  0  0  0  0  1  0  0  0  0  0  0
  193.0370  169.5970  139.1670 O   0  0  0  0  0  0  0  0  0  0  0  0
  188.3210  174.0330  136.9770 C   0  0  0  0  0  2  0  0  0  0  0  0
  186.8490  176.3480  136.7800 O   0  0  0  0  0  0  0  0  0  0  0  0
  186.9540  176.0990  138.1100 N   0  0  0  0  0  0  0  0  0  0  0  0
  187.5170  175.2590  137.2430 C   0  0  0  0  0  0  0  0  0  0  0  0
  1  3  1  0  0  0  0
  3  4  1  0  0  0  0
  3  2  1  6  0  0  0
  5  4  1  0  0  0  0
  6  4  1  0  0  0  0
  7 30  1  6  0  0  0
  8 28  1  1  0  0  0
  9 18  1  1  0  0  0
  9 15  1  0  0  0  0
  9  8  1  0  0  0  0
 10 24  1  0  0  0  0
 11 10  2  0  0  0  0
 12 11  2  0  0  0  0
 13  7  1  0  0  0  0
 14 19  1  0  0  0  0
 15 13  1  6  0  0  0
 16  4  1  6  0  0  0
 16 15  1  0  0  0  0
 16 10  1  0  0  0  0
 17 12  1  0  0  0  0
 17  8  1  0  0  0  0
 18 14  1  0  0  0  0
 19  7  1  0  0  0  0
 20 25  1  0  0  0  0
 21 24  1  0  0  0  0
 21 26  2  0  0  0  0
 22 25  2  0  0  0  0
 22 23  1  0  0  0  0
 24 20  2  0  0  0  0
 26 22  1  0  0  0  0
 28 27  1  0  0  0  0
 29 30  2  0  0  0  0
 31  1  1  0  0  0  0
 32 38  2  0  0  0  0
 33 31  1  1  0  0  0
 34 35  1  1  0  0  0
 34 32  1  0  0  0  0
 34 39  1  0  0  0  0
 36 33  1  0  0  0  0
 37 57  1  6  0  0  0
 37 33  1  0  0  0  0
 38 37  1  0  0  0  0
 39 52  1  6  0  0  0
 39 36  1  0  0  0  0
 40 41  2  0  0  0  0
 40 32  1  0  0  0  0
 42 43  1  0  0  0  0
 42 41  1  0  0  0  0
 43 45  1  0  0  0  0
 45 44  1  1  0  0  0
 45 47  1  0  0  0  0
 47 46  1  1  0  0  0
 47 49  1  0  0  0  0
 49 48  1  1  0  0  0
 49 51  1  0  0  0  0
 50 51  1  0  0  0  0
 52 53  1  0  0  0  0
 53 54  1  0  0  0  0
 54 56  2  0  0  0  0
 54 55  1  0  0  0  0
 57 60  1  0  0  0  0
 58 60  1  0  0  0  0
 58 59  1  0  0  0  0
 60 59  2  0  0  0  0
M  END
>  <MODEL>
8

>  <REMARK>
 VINA RESULT:      -5.3      4.818      9.157
  Name = 
  20 active torsions:
  status: ('A' for Active; 'I' for Inactive)
    1  A    between atoms: C_2  and  C_54
    2  A    between atoms: C_3  and  C_11
    3  A    between atoms: C_4  and  C_17
    4  A    between atoms: C_7  and  C_32
    5  A    between atoms: N_12  and  C_39
    6  A    between atoms: N_12  and  C_56
    7  A    between atoms: C_14  and  C_43
    8  A    between atoms: C_16  and  C_19
    9  A    between atoms: C_16  and  C_44
   10  A    between atoms: C_19  and  C_20
   11  A    between atoms: C_20  and  C_43
   12  A    between atoms: O_22  and  C_40
   13  A    between atoms: O_22  and  C_59
   14  A    between atoms: C_34  and  C_51
   15  A    between atoms: C_34  and  C_53
   16  A    between atoms: O_36  and  C_45
   17  A    between atoms: C_39  and  C_47
   18  A    between atoms: C_40  and  C_42
   19  A    between atoms: C_45  and  C_46
   20  A    between atoms: C_46  and  C_56
                            x       y       z     vdW  Elec       q    Type
                         _______ _______ _______ _____ _____    ______ ____

>  <TORSDO>
F 20

$$$$
=
 OpenBabel11062420413D

 60 64  0  0  1  0  0  0  0  0999 V2000
  190.7110  173.6360  140.8850 C   0  0  0  0  0  2  0  0  0  0  0  0
  189.0150  171.8360  141.3750 C   0  0  0  0  0  1  0  0  0  0  0  0
  190.3370  172.4650  141.8060 C   0  0  1  0  0  3  0  0  0  0  0  0
  191.4740  171.4390  142.0790 C   0  0  0  0  0  0  0  0  0  0  0  0
  190.8910  170.0350  142.1930 C   0  0  0  0  0  1  0  0  0  0  0  0
  192.1350  171.7240  143.4270 C   0  0  0  0  0  1  0  0  0  0  0  0
  195.8570  173.2360  141.7980 C   0  0  2  0  0  3  0  0  0  0  0  0
  195.4920  169.3930  141.3080 C   0  0  1  0  0  3  0  0  0  0  0  0
  194.6190  170.3670  142.1340 C   0  0  2  0  0  3  0  0  0  0  0  0
  192.3280  170.4010  139.8350 C   0  0  0  0  0  0  0  0  0  0  0  0
  192.9380  169.2500  139.9340 C   0  0  0  0  0  0  0  0  0  0  0  0
  193.6260  168.1660  140.1460 C   0  0  0  0  0  3  0  0  0  0  0  0
  194.3640  172.9670  141.8460 C   0  0  0  0  0  2  0  0  0  0  0  0
  196.6220  171.3830  143.3190 C   0  0  0  0  0  2  0  0  0  0  0  0
  194.0350  171.5660  141.3330 C   0  0  2  0  0  3  0  0  0  0  0  0
  192.5420  171.4120  140.9420 C   0  0  2  0  0  3  0  0  0  0  0  0
  194.7990  168.1980  140.9150 O   0  0  0  0  0  0  0  0  0  0  0  0
  195.2640  170.7080  143.4800 C   0  0  0  0  0  2  0  0  0  0  0  0
  196.4830  172.8860  143.1380 C   0  0  0  0  0  2  0  0  0  0  0  0
  192.0530  171.7990  137.7620 C   0  0  0  0  0  3  0  0  0  0  0  0
  190.4060  170.0990  138.2640 C   0  0  0  0  0  3  0  0  0  0  0  0
  190.1710  171.4650  136.2800 C   0  0  0  0  0  0  0  0  0  0  0  0
  189.4140  171.8370  135.0550 C   0  0  0  0  0  1  0  0  0  0  0  0
  191.5900  170.7720  138.6040 C   0  0  0  0  0  0  0  0  0  0  0  0
  191.3460  172.1440  136.6070 C   0  0  0  0  0  3  0  0  0  0  0  0
  189.7000  170.4410  137.1070 C   0  0  0  0  0  3  0  0  0  0  0  0
  197.6680  169.6270  140.1040 C   0  0  0  0  0  1  0  0  0  0  0  0
  196.2120  170.0460  140.1290 C   0  0  0  0  0  2  0  0  0  0  0  0
  195.1390  175.4080  141.2310 O   0  0  0  0  0  0  0  0  0  0  0  0
  196.0780  174.6820  141.5080 C   0  0  0  0  0  3  0  0  0  0  0  0
  191.6260  174.6500  141.5620 C   0  0  0  0  0  2  0  0  0  0  0  0
  189.3920  175.9310  145.3970 C   0  0  0  0  0  0  0  0  0  0  0  0
  191.1150  174.9760  142.9550 C   0  0  1  0  0  3  0  0  0  0  0  0
  190.7030  176.6440  145.6110 C   0  0  2  0  0  3  0  0  0  0  0  0
  190.6930  177.9190  145.0410 O   0  0  0  0  0  1  0  0  0  0  0  0
  192.1360  175.8500  143.6710 C   0  0  0  0  0  2  0  0  0  0  0  0
  189.7210  175.6140  142.8980 C   0  0  1  0  0  3  0  0  0  0  0  0
  188.9800  175.4890  144.2020 C   0  0  0  0  0  3  0  0  0  0  0  0
  191.9230  175.8260  145.1820 C   0  0  1  0  0  3  0  0  0  0  0  0
  188.4830  175.7210  146.5290 C   0  0  0  0  0  3  0  0  0  0  0  0
  187.5700  176.6130  146.8900 C   0  0  0  0  0  3  0  0  0  0  0  0
  186.6630  176.3200  148.0360 C   0  0  0  0  0  2  0  0  0  0  0  0
  185.6640  177.3700  148.1770 N   0  0  0  0  0  2  0  0  0  0  0  0
  186.3960  179.6730  147.9810 C   0  0  0  0  0  1  0  0  0  0  0  0
  185.9700  178.4320  147.2250 C   0  0  2  0  0  3  0  0  0  0  0  0
  183.5720  178.2790  146.9000 O   0  0  0  0  0  1  0  0  0  0  0  0
  184.7650  178.7600  146.3460 C   0  0  2  0  0  3  0  0  0  0  0  0
  186.2040  178.6620  144.4430 O   0  0  0  0  0  1  0  0  0  0  0  0
  184.9490  178.2680  144.9140 C   0  0  2  0  0  3  0  0  0  0  0  0
  184.5860  178.9680  142.8460 C   0  0  0  0  0  1  0  0  0  0  0  0
  183.9530  178.7730  144.0760 O   0  0  0  0  0  0  0  0  0  0  0  0
  193.0640  176.3230  145.8200 O   0  0  0  0  0  0  0  0  0  0  0  0
  194.1170  176.0490  144.9430 C   0  0  0  0  0  2  0  0  0  0  0  0
  195.1240  177.1510  145.0020 C   0  0  0  0  0  0  0  0  0  0  0  0
  196.2380  177.1390  144.1680 O   0  0  0  0  0  0  0  0  0  0  0  0
  194.9440  178.1110  145.7950 O   0  0  0  0  0  1  0  0  0  0  0  0
  189.7190  177.0380  142.3390 C   0  0  0  0  0  2  0  0  0  0  0  0
  187.7780  177.9420  140.6140 O   0  0  0  0  0  0  0  0  0  0  0  0
  187.1170  177.2290  141.5600 N   0  0  0  0  0  0  0  0  0  0  0  0
  188.4410  177.3370  141.6340 C   0  0  0  0  0  0  0  0  0  0  0  0
  1 31  1  0  0  0  0
  1  3  1  0  0  0  0
  3  2  1  6  0  0  0
  3  4  1  0  0  0  0
  4  5  1  0  0  0  0
  4  6  1  0  0  0  0
  7 30  1  1  0  0  0
  7 13  1  0  0  0  0
  7 19  1  0  0  0  0
  8 28  1  6  0  0  0
  8  9  1  0  0  0  0
  9 18  1  1  0  0  0
 10 11  2  0  0  0  0
 10 16  1  0  0  0  0
 11 12  2  0  0  0  0
 12 17  1  0  0  0  0
 14 18  1  0  0  0  0
 15 13  1  1  0  0  0
 15  9  1  0  0  0  0
 16 15  1  0  0  0  0
 16  4  1  1  0  0  0
 17  8  1  0  0  0  0
 19 14  1  0  0  0  0
 20 24  1  0  0  0  0
 21 24  2  0  0  0  0
 22 25  1  0  0  0  0
 22 26  2  0  0  0  0
 23 22  1  0  0  0  0
 24 10  1  0  0  0  0
 25 20  2  0  0  0  0
 26 21  1  0  0  0  0
 27 28  1  0  0  0  0
 29 30  2  0  0  0  0
 32 34  1  0  0  0  0
 32 40  1  0  0  0  0
 33 31  1  6  0  0  0
 33 36  1  0  0  0  0
 34 35  1  6  0  0  0
 36 39  1  0  0  0  0
 37 57  1  1  0  0  0
 37 33  1  0  0  0  0
 37 38  1  0  0  0  0
 38 32  2  0  0  0  0
 39 34  1  0  0  0  0
 39 52  1  1  0  0  0
 40 41  2  0  0  0  0
 41 42  1  0  0  0  0
 42 43  1  0  0  0  0
 45 44  1  1  0  0  0
 45 43  1  0  0  0  0
 47 46  1  1  0  0  0
 47 45  1  0  0  0  0
 49 48  1  6  0  0  0
 49 47  1  0  0  0  0
 50 51  1  0  0  0  0
 51 49  1  0  0  0  0
 53 54  1  0  0  0  0
 53 52  1  0  0  0  0
 54 56  1  0  0  0  0
 55 54  2  0  0  0  0
 58 59  1  0  0  0  0
 58 60  1  0  0  0  0
 59 60  2  0  0  0  0
 60 57  1  0  0  0  0
M  END
>  <MODEL>
9

>  <REMARK>
 VINA RESULT:      -5.2      3.173      6.580
  Name = 
  20 active torsions:
  status: ('A' for Active; 'I' for Inactive)
    1  A    between atoms: C_2  and  C_54
    2  A    between atoms: C_3  and  C_11
    3  A    between atoms: C_4  and  C_17
    4  A    between atoms: C_7  and  C_32
    5  A    between atoms: N_12  and  C_39
    6  A    between atoms: N_12  and  C_56
    7  A    between atoms: C_14  and  C_43
    8  A    between atoms: C_16  and  C_19
    9  A    between atoms: C_16  and  C_44
   10  A    between atoms: C_19  and  C_20
   11  A    between atoms: C_20  and  C_43
   12  A    between atoms: O_22  and  C_40
   13  A    between atoms: O_22  and  C_59
   14  A    between atoms: C_34  and  C_51
   15  A    between atoms: C_34  and  C_53
   16  A    between atoms: O_36  and  C_45
   17  A    between atoms: C_39  and  C_47
   18  A    between atoms: C_40  and  C_42
   19  A    between atoms: C_45  and  C_46
   20  A    between atoms: C_46  and  C_56
                            x       y       z     vdW  Elec       q    Type
                         _______ _______ _______ _____ _____    ______ ____

>  <TORSDO>
F 20

$$$$
