=
 OpenBabel11072409233D

 39 44  0  0  1  0  0  0  0  0999 V2000
  186.9080  177.2280  141.4560 N   0  0  0  0  0  0  0  0  0  0  0  0
  185.7970  177.7590  141.8800 C   0  0  0  0  0  0  0  0  0  0  0  0
  185.6420  178.6600  143.0730 C   0  0  2  0  0  3  0  0  0  0  0  0
  186.1660  177.9460  144.2760 C   0  0  0  0  0  3  0  0  0  0  0  0
  188.5080  178.6560  142.3920 O   0  0  0  0  0  0  0  0  0  0  0  0
  187.0560  177.7450  146.5660 C   0  0  2  0  0  0  0  0  0  0  0  0
  186.3180  178.4920  145.4840 C   0  0  0  0  0  0  0  0  0  0  0  0
  188.4420  175.7320  147.0290 C   0  0  0  0  0  2  0  0  0  0  0  0
  184.1490  178.7530  143.0890 C   0  0  0  0  0  0  0  0  0  0  0  0
  190.1210  174.2710  142.0570 C   0  0  2  0  0  3  0  0  0  0  0  0
  189.1580  176.4280  142.1340 N   0  0  0  0  0  0  0  0  0  0  0  0
  188.9040  175.0850  141.6550 C   0  0  0  0  0  2  0  0  0  0  0  0
  191.2020  175.2790  142.4390 C   0  0  0  0  0  2  0  0  0  0  0  0
  183.5450  178.0340  142.0220 N   0  0  0  0  0  2  0  0  0  0  0  0
  189.7390  176.2580  146.4090 C   0  0  2  0  0  3  0  0  0  0  0  0
  185.9070  179.8000  145.7200 O   0  0  0  0  0  1  0  0  0  0  0  0
  184.5670  177.4530  141.3170 O   0  0  0  0  0  0  0  0  0  0  0  0
  190.3930  176.8250  144.2020 C   0  0  0  0  0  3  0  0  0  0  0  0
  189.7840  176.0080  144.9860 N   0  0  0  0  0  0  0  0  0  0  0  0
  188.2060  177.4930  142.0060 C   0  0  0  0  0  0  0  0  0  0  0  0
  187.2240  176.2630  146.2870 C   0  0  1  0  0  3  0  0  0  0  0  0
  183.4840  179.4160  143.9270 O   0  0  0  0  0  0  0  0  0  0  0  0
  190.4790  176.5850  142.7200 C   0  0  2  0  0  3  0  0  0  0  0  0
  186.1450  176.7570  147.2260 C   0  0  1  0  0  3  0  0  0  0  0  0
  186.4980  177.9750  147.8350 O   0  0  0  0  0  0  0  0  0  0  0  0
  190.1190  172.2600  140.8100 C   0  0  0  0  0  3  0  0  0  0  0  0
  190.5540  173.4590  140.9520 N   0  0  0  0  0  0  0  0  0  0  0  0
  190.5700  171.4180  139.6620 C   0  0  0  0  0  2  0  0  0  0  0  0
  189.4840  171.3100  138.6020 C   0  0  2  0  0  3  0  0  0  0  0  0
  189.6910  170.0420  137.8010 C   0  0  0  0  0  1  0  0  0  0  0  0
  189.5410  172.4090  137.7450 O   0  0  0  0  0  1  0  0  0  0  0  0
  191.1910  176.3340  148.3390 O   0  0  0  0  0  1  0  0  0  0  0  0
  190.9580  175.6700  147.1310 C   0  0  2  0  0  3  0  0  0  0  0  0
  193.3260  176.5140  146.7760 C   0  0  0  0  0  3  0  0  0  0  0  0
  194.0560  174.1180  145.4460 C   0  0  0  0  0  3  0  0  0  0  0  0
  192.2250  175.6110  146.2680 C   0  0  1  0  0  3  0  0  0  0  0  0
  194.9460  175.1010  145.6240 C   0  0  0  0  0  3  0  0  0  0  0  0
  194.5970  176.2860  146.4320 C   0  0  0  0  0  3  0  0  0  0  0  0
  192.7190  174.1660  146.1380 C   0  0  0  0  0  2  0  0  0  0  0  0
  1  2  2  0  0  0  0
  1 20  1  0  0  0  0
  2  3  1  0  0  0  0
  3  9  1  0  0  0  0
  3  4  1  1  0  0  0
  4  7  2  0  0  0  0
  6  7  1  6  0  0  0
  6 24  1  0  0  0  0
  6 25  1  0  0  0  0
  7 16  1  0  0  0  0
  9 22  2  0  0  0  0
 10 27  1  6  0  0  0
 10 13  1  0  0  0  0
 11 23  1  0  0  0  0
 12 10  1  0  0  0  0
 12 11  1  0  0  0  0
 14  9  1  0  0  0  0
 15  8  1  0  0  0  0
 15 33  1  1  0  0  0
 17  2  1  0  0  0  0
 17 14  1  0  0  0  0
 18 19  2  0  0  0  0
 19 15  1  0  0  0  0
 20 11  1  0  0  0  0
 20  5  2  0  0  0  0
 21  6  1  0  0  0  0
 21  8  1  1  0  0  0
 21 24  1  0  0  0  0
 23 13  1  1  0  0  0
 23 18  1  0  0  0  0
 24 25  1  1  0  0  0
 26 27  2  0  0  0  0
 28 26  1  0  0  0  0
 29 30  1  6  0  0  0
 29 28  1  0  0  0  0
 31 29  1  0  0  0  0
 33 32  1  1  0  0  0
 35 37  2  0  0  0  0
 35 39  1  0  0  0  0
 36 34  1  0  0  0  0
 36 33  1  1  0  0  0
 37 38  1  0  0  0  0
 38 34  2  0  0  0  0
 39 36  1  0  0  0  0
M  END
>  <MODEL>
1

>  <REMARK>
 VINA RESULT:      -9.1      0.000      0.000
  Name = 
  5 active torsions:
  status: ('A' for Active; 'I' for Inactive)
    1  A    between atoms: C_7  and  C_23
    2  A    between atoms: C_12  and  N_22
    3  A    between atoms: C_15  and  C_23
    4  A    between atoms: C_20  and  C_29
    5  A    between atoms: C_21  and  C_29
                            x       y       z     vdW  Elec       q    Type
                         _______ _______ _______ _____ _____    ______ ____

>  <TORSDO>
F 5

$$$$
=
 OpenBabel11072409233D

 39 44  0  0  1  0  0  0  0  0999 V2000
  192.4720  172.9750  142.0020 N   0  0  0  0  0  0  0  0  0  0  0  0
  193.2960  173.5090  142.8570 C   0  0  0  0  0  0  0  0  0  0  0  0
  192.9230  174.2030  144.1360 C   0  0  2  0  0  3  0  0  0  0  0  0
  191.9880  175.3220  143.8120 C   0  0  0  0  0  3  0  0  0  0  0  0
  190.5750  172.6190  143.3250 O   0  0  0  0  0  0  0  0  0  0  0  0
  190.2610  177.0190  144.2720 C   0  0  2  0  0  0  0  0  0  0  0  0
  191.3410  176.0650  144.7120 C   0  0  0  0  0  0  0  0  0  0  0  0
  188.8860  177.7390  142.3270 C   0  0  0  0  0  2  0  0  0  0  0  0
  194.2780  174.7060  144.5210 C   0  0  0  0  0  0  0  0  0  0  0  0
  189.4080  173.5490  138.8850 C   0  0  2  0  0  3  0  0  0  0  0  0
  190.1730  173.0770  141.0710 N   0  0  0  0  0  0  0  0  0  0  0  0
  190.6510  173.3090  139.7230 C   0  0  0  0  0  2  0  0  0  0  0  0
  188.2250  173.0800  139.7290 C   0  0  0  0  0  2  0  0  0  0  0  0
  195.2880  174.3120  143.6020 N   0  0  0  0  0  2  0  0  0  0  0  0
  187.9290  176.5440  142.3300 C   0  0  2  0  0  3  0  0  0  0  0  0
  191.5700  175.8770  146.0710 O   0  0  0  0  0  1  0  0  0  0  0  0
  194.6600  173.5930  142.6190 O   0  0  0  0  0  0  0  0  0  0  0  0
  188.1950  174.2230  141.9300 C   0  0  0  0  0  3  0  0  0  0  0  0
  188.4690  175.4310  141.5840 N   0  0  0  0  0  0  0  0  0  0  0  0
  191.0520  172.8730  142.1850 C   0  0  0  0  0  0  0  0  0  0  0  0
  190.2780  177.3270  142.7860 C   0  0  1  0  0  3  0  0  0  0  0  0
  194.5230  175.3780  145.5570 O   0  0  0  0  0  0  0  0  0  0  0  0
  188.7220  173.0410  141.1640 C   0  0  2  0  0  3  0  0  0  0  0  0
  190.8670  178.2990  143.7860 C   0  0  1  0  0  3  0  0  0  0  0  0
  190.2510  178.1930  145.0460 O   0  0  0  0  0  0  0  0  0  0  0  0
  189.8970  171.5770  137.6720 C   0  0  0  0  0  3  0  0  0  0  0  0
  189.4890  172.7940  137.6630 N   0  0  0  0  0  0  0  0  0  0  0  0
  189.9800  170.7940  136.4020 C   0  0  0  0  0  2  0  0  0  0  0  0
  190.8350  169.5490  136.5810 C   0  0  2  0  0  3  0  0  0  0  0  0
  190.3530  168.7800  137.7930 C   0  0  0  0  0  1  0  0  0  0  0  0
  192.1700  169.9090  136.7680 O   0  0  0  0  0  1  0  0  0  0  0  0
  186.6580  177.9460  140.8260 O   0  0  0  0  0  1  0  0  0  0  0  0
  186.5460  176.9610  141.8120 C   0  0  2  0  0  3  0  0  0  0  0  0
  185.8790  176.7460  144.2520 C   0  0  0  0  0  3  0  0  0  0  0  0
  184.6900  179.3190  144.2270 C   0  0  0  0  0  3  0  0  0  0  0  0
  185.5660  177.3790  142.9150 C   0  0  1  0  0  3  0  0  0  0  0  0
  184.6900  178.5770  145.3390 C   0  0  0  0  0  3  0  0  0  0  0  0
  185.4260  177.2970  145.3810 C   0  0  0  0  0  3  0  0  0  0  0  0
  185.5090  178.9060  143.0330 C   0  0  0  0  0  2  0  0  0  0  0  0
  1 20  1  0  0  0  0
  1  2  2  0  0  0  0
  2  3  1  0  0  0  0
  3  4  1  6  0  0  0
  3  9  1  0  0  0  0
  4  7  2  0  0  0  0
  6  7  1  1  0  0  0
  6 25  1  0  0  0  0
  7 16  1  0  0  0  0
  8 15  1  0  0  0  0
  9 22  2  0  0  0  0
 10 27  1  6  0  0  0
 10 12  1  0  0  0  0
 10 13  1  0  0  0  0
 11 23  1  0  0  0  0
 11 20  1  0  0  0  0
 12 11  1  0  0  0  0
 14  9  1  0  0  0  0
 15 33  1  6  0  0  0
 17  2  1  0  0  0  0
 17 14  1  0  0  0  0
 19 18  2  0  0  0  0
 19 15  1  0  0  0  0
 20  5  2  0  0  0  0
 21  8  1  1  0  0  0
 21 24  1  0  0  0  0
 21  6  1  0  0  0  0
 23 13  1  6  0  0  0
 23 18  1  0  0  0  0
 24  6  1  0  0  0  0
 24 25  1  1  0  0  0
 27 26  2  0  0  0  0
 28 29  1  0  0  0  0
 28 26  1  0  0  0  0
 29 31  1  0  0  0  0
 29 30  1  1  0  0  0
 33 32  1  6  0  0  0
 34 38  2  0  0  0  0
 35 37  2  0  0  0  0
 36 33  1  6  0  0  0
 36 39  1  0  0  0  0
 36 34  1  0  0  0  0
 37 38  1  0  0  0  0
 39 35  1  0  0  0  0
M  END
>  <MODEL>
2

>  <REMARK>
 VINA RESULT:      -8.7      2.524      6.952
  Name = 
  5 active torsions:
  status: ('A' for Active; 'I' for Inactive)
    1  A    between atoms: C_7  and  C_23
    2  A    between atoms: C_12  and  N_22
    3  A    between atoms: C_15  and  C_23
    4  A    between atoms: C_20  and  C_29
    5  A    between atoms: C_21  and  C_29
                            x       y       z     vdW  Elec       q    Type
                         _______ _______ _______ _____ _____    ______ ____

>  <TORSDO>
F 5

$$$$
=
 OpenBabel11072409233D

 39 44  0  0  1  0  0  0  0  0999 V2000
  188.2500  174.4000  141.1290 N   0  0  0  0  0  0  0  0  0  0  0  0
  188.6460  173.9990  139.9550 C   0  0  0  0  0  0  0  0  0  0  0  0
  189.8040  173.0840  139.6730 C   0  0  2  0  0  3  0  0  0  0  0  0
  191.0370  173.6840  140.2680 C   0  0  0  0  0  3  0  0  0  0  0  0
  189.1470  172.7510  142.5250 O   0  0  0  0  0  0  0  0  0  0  0  0
  193.3390  173.6920  141.1470 C   0  0  2  0  0  0  0  0  0  0  0  0
  192.2260  173.0820  140.3350 C   0  0  0  0  0  0  0  0  0  0  0  0
  193.8860  175.4980  142.7690 C   0  0  0  0  0  2  0  0  0  0  0  0
  189.8050  173.1800  138.1810 C   0  0  0  0  0  0  0  0  0  0  0  0
  188.9830  176.9070  144.6810 C   0  0  2  0  0  3  0  0  0  0  0  0
  188.9740  174.8860  143.4540 N   0  0  0  0  0  0  0  0  0  0  0  0
  188.5420  176.2670  143.3760 C   0  0  0  0  0  2  0  0  0  0  0  0
  189.3370  175.7580  145.6220 C   0  0  0  0  0  2  0  0  0  0  0  0
  188.7600  174.0050  137.6850 N   0  0  0  0  0  2  0  0  0  0  0  0
  193.2570  174.8350  143.9980 C   0  0  2  0  0  3  0  0  0  0  0  0
  192.4110  171.8290  139.7600 O   0  0  0  0  0  1  0  0  0  0  0  0
  188.0850  174.4770  138.7800 O   0  0  0  0  0  0  0  0  0  0  0  0
  191.0370  174.2660  144.6030 C   0  0  0  0  0  3  0  0  0  0  0  0
  191.8450  175.1260  144.0920 N   0  0  0  0  0  0  0  0  0  0  0  0
  188.8010  173.9550  142.3770 C   0  0  0  0  0  0  0  0  0  0  0  0
  193.1150  175.1500  141.5040 C   0  0  1  0  0  3  0  0  0  0  0  0
  190.6140  172.5770  137.4270 O   0  0  0  0  0  0  0  0  0  0  0  0
  189.5650  174.5440  144.7370 C   0  0  2  0  0  3  0  0  0  0  0  0
  194.0270  174.7640  140.3600 C   0  0  1  0  0  3  0  0  0  0  0  0
  194.5950  173.4910  140.5490 O   0  0  0  0  0  0  0  0  0  0  0  0
  187.0180  178.2060  144.4580 C   0  0  0  0  0  3  0  0  0  0  0  0
  187.9100  177.6950  145.2260 N   0  0  0  0  0  0  0  0  0  0  0  0
  185.9040  179.0240  145.0260 C   0  0  0  0  0  2  0  0  0  0  0  0
  185.5180  178.5360  146.4130 C   0  0  2  0  0  3  0  0  0  0  0  0
  184.0230  178.2970  146.4610 C   0  0  0  0  0  1  0  0  0  0  0  0
  185.8610  179.4920  147.3700 O   0  0  0  0  0  1  0  0  0  0  0  0
  194.7710  176.3910  145.0590 O   0  0  0  0  0  1  0  0  0  0  0  0
  194.0100  175.2380  145.2720 C   0  0  2  0  0  3  0  0  0  0  0  0
  194.4050  172.7360  145.4440 C   0  0  0  0  0  3  0  0  0  0  0  0
  197.1530  173.1380  146.0130 C   0  0  0  0  0  3  0  0  0  0  0  0
  194.8540  174.1120  145.8820 C   0  0  1  0  0  3  0  0  0  0  0  0
  196.6420  171.9040  145.9440 C   0  0  0  0  0  3  0  0  0  0  0  0
  195.2440  171.6990  145.5170 C   0  0  0  0  0  3  0  0  0  0  0  0
  196.3400  174.3270  145.5740 C   0  0  0  0  0  2  0  0  0  0  0  0
  1 20  1  0  0  0  0
  2  1  2  0  0  0  0
  3  2  1  0  0  0  0
  3  4  1  1  0  0  0
  4  7  2  0  0  0  0
  6  7  1  6  0  0  0
  6 21  1  0  0  0  0
  8 15  1  0  0  0  0
  9  3  1  0  0  0  0
 10 27  1  1  0  0  0
 10 13  1  0  0  0  0
 11 23  1  0  0  0  0
 12 11  1  0  0  0  0
 12 10  1  0  0  0  0
 14  9  1  0  0  0  0
 14 17  1  0  0  0  0
 15 19  1  0  0  0  0
 15 33  1  1  0  0  0
 16  7  1  0  0  0  0
 17  2  1  0  0  0  0
 19 18  2  0  0  0  0
 20  5  2  0  0  0  0
 20 11  1  0  0  0  0
 21  8  1  1  0  0  0
 22  9  2  0  0  0  0
 23 18  1  6  0  0  0
 23 13  1  0  0  0  0
 24 25  1  1  0  0  0
 24  6  1  0  0  0  0
 24 21  1  0  0  0  0
 25  6  1  0  0  0  0
 26 28  1  0  0  0  0
 26 27  2  0  0  0  0
 28 29  1  0  0  0  0
 29 30  1  6  0  0  0
 29 31  1  0  0  0  0
 33 32  1  6  0  0  0
 34 38  2  0  0  0  0
 34 36  1  0  0  0  0
 36 33  1  6  0  0  0
 37 35  2  0  0  0  0
 38 37  1  0  0  0  0
 39 36  1  0  0  0  0
 39 35  1  0  0  0  0
M  END
>  <MODEL>
3

>  <REMARK>
 VINA RESULT:      -8.7      2.583      7.282
  Name = 
  5 active torsions:
  status: ('A' for Active; 'I' for Inactive)
    1  A    between atoms: C_7  and  C_23
    2  A    between atoms: C_12  and  N_22
    3  A    between atoms: C_15  and  C_23
    4  A    between atoms: C_20  and  C_29
    5  A    between atoms: C_21  and  C_29
                            x       y       z     vdW  Elec       q    Type
                         _______ _______ _______ _____ _____    ______ ____

>  <TORSDO>
F 5

$$$$
=
 OpenBabel11072409233D

 39 44  0  0  1  0  0  0  0  0999 V2000
  188.1840  174.5760  139.6130 N   0  0  0  0  0  0  0  0  0  0  0  0
  188.5420  174.1950  138.4200 C   0  0  0  0  0  0  0  0  0  0  0  0
  189.4790  173.0680  138.0920 C   0  0  2  0  0  3  0  0  0  0  0  0
  190.7810  173.3210  138.7790 C   0  0  0  0  0  3  0  0  0  0  0  0
  188.6150  172.6560  140.8780 O   0  0  0  0  0  0  0  0  0  0  0  0
  192.9780  172.7320  139.7300 C   0  0  2  0  0  0  0  0  0  0  0  0
  191.8010  172.4610  138.8290 C   0  0  0  0  0  0  0  0  0  0  0  0
  193.8280  174.2240  141.5300 C   0  0  0  0  0  2  0  0  0  0  0  0
  189.5800  173.2850  136.6160 C   0  0  0  0  0  0  0  0  0  0  0  0
  189.2700  176.5450  143.4050 C   0  0  2  0  0  3  0  0  0  0  0  0
  188.8750  174.6900  141.9950 N   0  0  0  0  0  0  0  0  0  0  0  0
  188.7670  176.1340  142.0330 C   0  0  0  0  0  2  0  0  0  0  0  0
  189.3090  175.2720  144.2460 C   0  0  0  0  0  2  0  0  0  0  0  0
  188.7730  174.3650  136.1650 N   0  0  0  0  0  2  0  0  0  0  0  0
  193.0040  173.6210  142.6700 C   0  0  2  0  0  3  0  0  0  0  0  0
  191.7310  171.2510  138.1460 O   0  0  0  0  0  1  0  0  0  0  0  0
  188.1630  174.8840  137.2780 O   0  0  0  0  0  0  0  0  0  0  0  0
  190.6840  173.5230  143.1480 C   0  0  0  0  0  3  0  0  0  0  0  0
  191.6890  174.2170  142.7460 N   0  0  0  0  0  0  0  0  0  0  0  0
  188.5550  173.9150  140.8310 C   0  0  0  0  0  0  0  0  0  0  0  0
  193.0670  174.1670  140.2130 C   0  0  1  0  0  3  0  0  0  0  0  0
  190.2720  172.5800  135.8360 O   0  0  0  0  0  0  0  0  0  0  0  0
  189.3060  174.1160  143.2590 C   0  0  2  0  0  3  0  0  0  0  0  0
  193.9290  173.6810  139.0680 C   0  0  1  0  0  3  0  0  0  0  0  0
  194.1870  172.3010  139.1570 O   0  0  0  0  0  0  0  0  0  0  0  0
  187.1120  177.4460  143.7630 C   0  0  0  0  0  3  0  0  0  0  0  0
  188.3740  177.5080  143.9860 N   0  0  0  0  0  0  0  0  0  0  0  0
  186.1820  178.4460  144.3680 C   0  0  0  0  0  2  0  0  0  0  0  0
  186.0290  178.2180  145.8630 C   0  0  2  0  0  3  0  0  0  0  0  0
  185.5880  176.7910  146.1090 C   0  0  0  0  0  1  0  0  0  0  0  0
  185.0720  179.0900  146.3850 O   0  0  0  0  0  1  0  0  0  0  0  0
  193.5250  172.6170  144.8060 O   0  0  0  0  0  1  0  0  0  0  0  0
  193.7590  173.7350  144.0000 C   0  0  2  0  0  3  0  0  0  0  0  0
  192.6570  174.8380  146.0040 C   0  0  0  0  0  3  0  0  0  0  0  0
  194.5670  176.9330  145.9910 C   0  0  0  0  0  3  0  0  0  0  0  0
  193.4920  175.0410  144.7600 C   0  0  1  0  0  3  0  0  0  0  0  0
  193.5910  176.9040  146.9040 C   0  0  0  0  0  3  0  0  0  0  0  0
  192.6830  175.7430  146.9870 C   0  0  0  0  0  3  0  0  0  0  0  0
  194.8100  175.7480  145.0940 C   0  0  0  0  0  2  0  0  0  0  0  0
  1 20  1  0  0  0  0
  2  1  2  0  0  0  0
  3  2  1  0  0  0  0
  3  4  1  1  0  0  0
  4  7  2  0  0  0  0
  6  7  1  6  0  0  0
  6 21  1  0  0  0  0
  8 15  1  0  0  0  0
  9  3  1  0  0  0  0
 10 27  1  1  0  0  0
 10 13  1  0  0  0  0
 11 12  1  0  0  0  0
 11 23  1  0  0  0  0
 12 10  1  0  0  0  0
 14  9  1  0  0  0  0
 14 17  1  0  0  0  0
 15 19  1  0  0  0  0
 15 33  1  1  0  0  0
 16  7  1  0  0  0  0
 17  2  1  0  0  0  0
 19 18  2  0  0  0  0
 20  5  2  0  0  0  0
 20 11  1  0  0  0  0
 21  8  1  1  0  0  0
 22  9  2  0  0  0  0
 23 18  1  6  0  0  0
 23 13  1  0  0  0  0
 24 25  1  1  0  0  0
 24  6  1  0  0  0  0
 24 21  1  0  0  0  0
 25  6  1  0  0  0  0
 26 27  2  0  0  0  0
 26 28  1  0  0  0  0
 28 29  1  0  0  0  0
 29 30  1  6  0  0  0
 29 31  1  0  0  0  0
 33 32  1  1  0  0  0
 34 38  2  0  0  0  0
 35 37  2  0  0  0  0
 36 33  1  1  0  0  0
 36 39  1  0  0  0  0
 36 34  1  0  0  0  0
 37 38  1  0  0  0  0
 39 35  1  0  0  0  0
M  END
>  <MODEL>
4

>  <REMARK>
 VINA RESULT:      -7.9      2.459      7.430
  Name = 
  5 active torsions:
  status: ('A' for Active; 'I' for Inactive)
    1  A    between atoms: C_7  and  C_23
    2  A    between atoms: C_12  and  N_22
    3  A    between atoms: C_15  and  C_23
    4  A    between atoms: C_20  and  C_29
    5  A    between atoms: C_21  and  C_29
                            x       y       z     vdW  Elec       q    Type
                         _______ _______ _______ _____ _____    ______ ____

>  <TORSDO>
F 5

$$$$
=
 OpenBabel11072409233D

 39 44  0  0  1  0  0  0  0  0999 V2000
  192.7050  172.0100  141.5380 N   0  0  0  0  0  0  0  0  0  0  0  0
  193.7670  172.2420  142.2550 C   0  0  0  0  0  0  0  0  0  0  0  0
  193.7920  172.7060  143.6840 C   0  0  2  0  0  3  0  0  0  0  0  0
  193.0250  173.9850  143.7780 C   0  0  0  0  0  3  0  0  0  0  0  0
  191.0840  171.6560  143.1880 O   0  0  0  0  0  0  0  0  0  0  0  0
  191.7580  175.7730  144.9060 C   0  0  2  0  0  0  0  0  0  0  0  0
  192.7180  174.6110  144.9160 C   0  0  0  0  0  0  0  0  0  0  0  0
  190.1680  177.0530  143.4840 C   0  0  0  0  0  2  0  0  0  0  0  0
  195.2640  172.9310  143.8200 C   0  0  0  0  0  0  0  0  0  0  0  0
  189.2240  173.6180  139.3630 C   0  0  2  0  0  3  0  0  0  0  0  0
  190.3200  172.6120  141.2000 N   0  0  0  0  0  0  0  0  0  0  0  0
  190.5480  173.0450  139.8360 C   0  0  0  0  0  2  0  0  0  0  0  0
  188.1730  173.1540  140.3690 C   0  0  0  0  0  2  0  0  0  0  0  0
  195.9800  172.5970  142.6380 N   0  0  0  0  0  2  0  0  0  0  0  0
  189.0340  176.0260  143.5100 C   0  0  2  0  0  3  0  0  0  0  0  0
  193.1810  174.1220  146.1330 O   0  0  0  0  0  1  0  0  0  0  0  0
  195.0470  172.1850  141.7220 O   0  0  0  0  0  0  0  0  0  0  0  0
  188.7950  173.8200  142.6760 C   0  0  0  0  0  3  0  0  0  0  0  0
  189.2040  175.0230  142.4830 N   0  0  0  0  0  0  0  0  0  0  0  0
  191.3570  172.0680  142.0270 C   0  0  0  0  0  0  0  0  0  0  0  0
  191.5270  176.3710  143.5310 C   0  0  1  0  0  3  0  0  0  0  0  0
  195.8300  173.3390  144.8680 O   0  0  0  0  0  0  0  0  0  0  0  0
  188.9360  172.7570  141.6210 C   0  0  2  0  0  3  0  0  0  0  0  0
  192.4710  177.0300  144.5130 C   0  0  1  0  0  3  0  0  0  0  0  0
  192.1150  176.7560  145.8460 O   0  0  0  0  0  0  0  0  0  0  0  0
  189.8120  172.5140  137.3540 C   0  0  0  0  0  3  0  0  0  0  0  0
  188.9190  173.1230  138.0480 N   0  0  0  0  0  0  0  0  0  0  0  0
  189.4930  172.0000  135.9880 C   0  0  0  0  0  2  0  0  0  0  0  0
  190.3120  170.7600  135.6650 C   0  0  2  0  0  3  0  0  0  0  0  0
  190.3830  169.8740  136.8900 C   0  0  0  0  0  1  0  0  0  0  0  0
  191.6040  171.1250  135.2860 O   0  0  0  0  0  1  0  0  0  0  0  0
  187.5700  177.4450  142.2130 O   0  0  0  0  0  1  0  0  0  0  0  0
  187.6720  176.7240  143.4060 C   0  0  2  0  0  3  0  0  0  0  0  0
  186.2810  178.6460  144.3110 C   0  0  0  0  0  3  0  0  0  0  0  0
  186.3670  177.5680  146.9320 C   0  0  0  0  0  3  0  0  0  0  0  0
  187.3220  177.5940  144.6200 C   0  0  1  0  0  3  0  0  0  0  0  0
  185.7120  178.7060  146.6820 C   0  0  0  0  0  3  0  0  0  0  0  0
  185.5590  179.1890  145.2950 C   0  0  0  0  0  3  0  0  0  0  0  0
  186.8820  176.7190  145.7990 C   0  0  0  0  0  2  0  0  0  0  0  0
  1 20  1  0  0  0  0
  1  2  2  0  0  0  0
  2  3  1  0  0  0  0
  3  4  1  6  0  0  0
  3  9  1  0  0  0  0
  4  7  2  0  0  0  0
  6  7  1  1  0  0  0
  6 25  1  0  0  0  0
  7 16  1  0  0  0  0
  8 15  1  0  0  0  0
  9 22  2  0  0  0  0
 10 27  1  6  0  0  0
 10 12  1  0  0  0  0
 10 13  1  0  0  0  0
 11 23  1  0  0  0  0
 11 20  1  0  0  0  0
 12 11  1  0  0  0  0
 14  9  1  0  0  0  0
 15 33  1  6  0  0  0
 17  2  1  0  0  0  0
 17 14  1  0  0  0  0
 19 18  2  0  0  0  0
 19 15  1  0  0  0  0
 20  5  2  0  0  0  0
 21  8  1  1  0  0  0
 21 24  1  0  0  0  0
 21  6  1  0  0  0  0
 23 13  1  6  0  0  0
 23 18  1  0  0  0  0
 24  6  1  0  0  0  0
 24 25  1  1  0  0  0
 26 27  2  0  0  0  0
 28 26  1  0  0  0  0
 29 28  1  0  0  0  0
 29 30  1  1  0  0  0
 31 29  1  0  0  0  0
 33 32  1  6  0  0  0
 34 36  1  0  0  0  0
 34 38  2  0  0  0  0
 36 33  1  6  0  0  0
 36 39  1  0  0  0  0
 37 35  2  0  0  0  0
 38 37  1  0  0  0  0
 39 35  1  0  0  0  0
M  END
>  <MODEL>
5

>  <REMARK>
 VINA RESULT:      -7.9      2.764      7.199
  Name = 
  5 active torsions:
  status: ('A' for Active; 'I' for Inactive)
    1  A    between atoms: C_7  and  C_23
    2  A    between atoms: C_12  and  N_22
    3  A    between atoms: C_15  and  C_23
    4  A    between atoms: C_20  and  C_29
    5  A    between atoms: C_21  and  C_29
                            x       y       z     vdW  Elec       q    Type
                         _______ _______ _______ _____ _____    ______ ____

>  <TORSDO>
F 5

$$$$
=
 OpenBabel11072409233D

 39 44  0  0  1  0  0  0  0  0999 V2000
  189.1450  177.6600  145.3690 N   0  0  0  0  0  0  0  0  0  0  0  0
  190.1250  177.1540  146.0620 C   0  0  0  0  0  0  0  0  0  0  0  0
  191.3550  176.4920  145.5090 C   0  0  2  0  0  3  0  0  0  0  0  0
  190.9290  175.3580  144.6340 C   0  0  0  0  0  3  0  0  0  0  0  0
  190.1690  178.0380  143.2990 O   0  0  0  0  0  0  0  0  0  0  0  0
  191.1800  173.6620  142.8630 C   0  0  2  0  0  0  0  0  0  0  0  0
  191.7450  174.6350  143.8650 C   0  0  0  0  0  0  0  0  0  0  0  0
  189.0760  172.8830  141.7870 C   0  0  0  0  0  2  0  0  0  0  0  0
  191.9450  176.0080  146.7950 C   0  0  0  0  0  0  0  0  0  0  0  0
  185.6330  176.9830  142.7910 C   0  0  2  0  0  3  0  0  0  0  0  0
  187.8940  177.5180  143.2290 N   0  0  0  0  0  0  0  0  0  0  0  0
  186.6360  177.2530  143.8980 C   0  0  0  0  0  2  0  0  0  0  0  0
  186.2840  177.4670  141.4970 C   0  0  0  0  0  2  0  0  0  0  0  0
  191.1720  176.3840  147.9270 N   0  0  0  0  0  2  0  0  0  0  0  0
  188.9080  174.0700  140.8360 C   0  0  2  0  0  3  0  0  0  0  0  0
  193.1180  174.8600  143.8940 O   0  0  0  0  0  1  0  0  0  0  0  0
  190.0890  177.0730  147.4460 O   0  0  0  0  0  0  0  0  0  0  0  0
  188.4880  176.3820  141.1510 C   0  0  0  0  0  3  0  0  0  0  0  0
  188.2180  175.1670  141.4760 N   0  0  0  0  0  0  0  0  0  0  0  0
  189.1170  177.7570  143.9370 C   0  0  0  0  0  0  0  0  0  0  0  0
  189.7210  173.3150  143.0960 C   0  0  1  0  0  3  0  0  0  0  0  0
  193.0230  175.3650  146.8890 O   0  0  0  0  0  0  0  0  0  0  0  0
  187.7740  177.5470  141.7810 C   0  0  2  0  0  3  0  0  0  0  0  0
  190.8210  172.3740  143.5370 C   0  0  1  0  0  3  0  0  0  0  0  0
  191.9750  172.5100  142.7440 O   0  0  0  0  0  0  0  0  0  0  0  0
  183.6990  178.1420  142.0750 C   0  0  0  0  0  3  0  0  0  0  0  0
  184.4160  177.7060  143.0460 N   0  0  0  0  0  0  0  0  0  0  0  0
  182.4350  178.8930  142.3400 C   0  0  0  0  0  2  0  0  0  0  0  0
  181.4780  178.7880  141.1640 C   0  0  2  0  0  3  0  0  0  0  0  0
  180.1440  178.2610  141.6500 C   0  0  0  0  0  1  0  0  0  0  0  0
  181.9930  177.9160  140.2040 O   0  0  0  0  0  1  0  0  0  0  0  0
  187.8160  172.2900  139.6180 O   0  0  0  0  0  1  0  0  0  0  0  0
  188.2060  173.6310  139.5440 C   0  0  2  0  0  3  0  0  0  0  0  0
  189.5170  172.6530  137.6020 C   0  0  0  0  0  3  0  0  0  0  0  0
  188.9030  174.8890  135.9700 C   0  0  0  0  0  3  0  0  0  0  0  0
  189.0120  173.9120  138.2690 C   0  0  1  0  0  3  0  0  0  0  0  0
  189.6470  173.8820  135.4990 C   0  0  0  0  0  3  0  0  0  0  0  0
  189.8500  172.6640  136.3080 C   0  0  0  0  0  3  0  0  0  0  0  0
  188.1910  174.7590  137.2910 C   0  0  0  0  0  2  0  0  0  0  0  0
  1  2  2  0  0  0  0
  2 17  1  0  0  0  0
  3  4  1  6  0  0  0
  3  2  1  0  0  0  0
  3  9  1  0  0  0  0
  5 20  2  0  0  0  0
  6 25  1  6  0  0  0
  6 21  1  0  0  0  0
  6 24  1  0  0  0  0
  6  7  1  0  0  0  0
  7 16  1  0  0  0  0
  7  4  2  0  0  0  0
  9 22  2  0  0  0  0
  9 14  1  0  0  0  0
 10 27  1  1  0  0  0
 10 12  1  0  0  0  0
 11 12  1  0  0  0  0
 11 20  1  0  0  0  0
 13 23  1  0  0  0  0
 13 10  1  0  0  0  0
 15 33  1  6  0  0  0
 15 19  1  0  0  0  0
 15  8  1  0  0  0  0
 17 14  1  0  0  0  0
 18 19  2  0  0  0  0
 20  1  1  0  0  0  0
 21  8  1  6  0  0  0
 21 24  1  0  0  0  0
 23 18  1  6  0  0  0
 23 11  1  0  0  0  0
 24 25  1  6  0  0  0
 26 28  1  0  0  0  0
 26 27  2  0  0  0  0
 29 30  1  1  0  0  0
 29 28  1  0  0  0  0
 31 29  1  0  0  0  0
 33 32  1  1  0  0  0
 34 36  1  0  0  0  0
 35 39  1  0  0  0  0
 36 33  1  1  0  0  0
 37 35  2  0  0  0  0
 37 38  1  0  0  0  0
 38 34  2  0  0  0  0
 39 36  1  0  0  0  0
M  END
>  <MODEL>
6

>  <REMARK>
 VINA RESULT:      -7.8      2.524      8.067
  Name = 
  5 active torsions:
  status: ('A' for Active; 'I' for Inactive)
    1  A    between atoms: C_7  and  C_23
    2  A    between atoms: C_12  and  N_22
    3  A    between atoms: C_15  and  C_23
    4  A    between atoms: C_20  and  C_29
    5  A    between atoms: C_21  and  C_29
                            x       y       z     vdW  Elec       q    Type
                         _______ _______ _______ _____ _____    ______ ____

>  <TORSDO>
F 5

$$$$
=
 OpenBabel11072409233D

 39 44  0  0  1  0  0  0  0  0999 V2000
  192.2090  176.7680  145.4400 N   0  0  0  0  0  0  0  0  0  0  0  0
  193.4230  176.3000  145.3800 C   0  0  0  0  0  0  0  0  0  0  0  0
  194.1790  175.9490  144.1310 C   0  0  2  0  0  3  0  0  0  0  0  0
  193.3830  174.9450  143.3620 C   0  0  0  0  0  3  0  0  0  0  0  0
  191.9410  177.6760  143.3000 O   0  0  0  0  0  0  0  0  0  0  0  0
  192.6900  173.6650  141.3740 C   0  0  2  0  0  0  0  0  0  0  0  0
  193.6770  174.5100  142.1360 C   0  0  0  0  0  0  0  0  0  0  0  0
  190.3640  172.7830  141.3950 C   0  0  0  0  0  2  0  0  0  0  0  0
  195.3850  175.3320  144.7660 C   0  0  0  0  0  0  0  0  0  0  0  0
  187.8840  176.0470  144.9830 C   0  0  2  0  0  3  0  0  0  0  0  0
  190.0060  176.8330  144.2980 N   0  0  0  0  0  0  0  0  0  0  0  0
  189.3170  176.2590  145.4360 C   0  0  0  0  0  2  0  0  0  0  0  0
  187.7180  176.8560  143.6980 C   0  0  0  0  0  2  0  0  0  0  0  0
  195.3340  175.3690  146.1860 N   0  0  0  0  0  2  0  0  0  0  0  0
  189.6720  174.0850  140.9840 C   0  0  2  0  0  3  0  0  0  0  0  0
  194.8410  174.9350  141.5010 O   0  0  0  0  0  1  0  0  0  0  0  0
  194.1420  175.9600  146.5160 O   0  0  0  0  0  0  0  0  0  0  0  0
  189.4180  176.2060  142.0130 C   0  0  0  0  0  3  0  0  0  0  0  0
  189.4030  174.9260  142.1290 N   0  0  0  0  0  0  0  0  0  0  0  0
  191.4100  177.1230  144.3020 C   0  0  0  0  0  0  0  0  0  0  0  0
  191.5990  173.0600  142.2380 C   0  0  1  0  0  3  0  0  0  0  0  0
  196.3620  174.8570  144.1300 O   0  0  0  0  0  0  0  0  0  0  0  0
  189.1220  177.1110  143.1770 C   0  0  2  0  0  3  0  0  0  0  0  0
  192.7920  172.2340  141.8060 C   0  0  1  0  0  3  0  0  0  0  0  0
  193.3300  172.6900  140.5890 O   0  0  0  0  0  0  0  0  0  0  0  0
  185.7380  176.7140  145.7220 C   0  0  0  0  0  3  0  0  0  0  0  0
  186.9760  176.5140  145.9950 N   0  0  0  0  0  0  0  0  0  0  0  0
  184.7950  177.1990  146.7740 C   0  0  0  0  0  2  0  0  0  0  0  0
  184.5340  178.6900  146.6310 C   0  0  2  0  0  3  0  0  0  0  0  0
  184.4240  179.0400  145.1620 C   0  0  0  0  0  1  0  0  0  0  0  0
  185.5820  179.4160  147.1980 O   0  0  0  0  0  1  0  0  0  0  0  0
  187.7380  172.6660  140.6890 O   0  0  0  0  0  1  0  0  0  0  0  0
  188.3980  173.7890  140.1820 C   0  0  2  0  0  3  0  0  0  0  0  0
  187.8160  174.6720  137.8740 C   0  0  0  0  0  3  0  0  0  0  0  0
  190.3320  173.8570  136.8510 C   0  0  0  0  0  3  0  0  0  0  0  0
  188.6250  173.6730  138.6700 C   0  0  1  0  0  3  0  0  0  0  0  0
  189.4380  174.4660  136.0640 C   0  0  0  0  0  3  0  0  0  0  0  0
  188.1880  175.0050  136.6350 C   0  0  0  0  0  3  0  0  0  0  0  0
  190.1170  173.7910  138.3400 C   0  0  0  0  0  2  0  0  0  0  0  0
  2  1  2  0  0  0  0
  2 17  1  0  0  0  0
  3  4  1  6  0  0  0
  3  9  1  0  0  0  0
  3  2  1  0  0  0  0
  5 20  2  0  0  0  0
  6 25  1  6  0  0  0
  6 24  1  0  0  0  0
  6  7  1  0  0  0  0
  6 21  1  0  0  0  0
  7  4  2  0  0  0  0
  9 14  1  0  0  0  0
 10 12  1  0  0  0  0
 10 27  1  1  0  0  0
 11 20  1  0  0  0  0
 11 12  1  0  0  0  0
 13 10  1  0  0  0  0
 14 17  1  0  0  0  0
 15 33  1  1  0  0  0
 15  8  1  0  0  0  0
 15 19  1  0  0  0  0
 16  7  1  0  0  0  0
 18 19  2  0  0  0  0
 20  1  1  0  0  0  0
 21  8  1  6  0  0  0
 22  9  2  0  0  0  0
 23 18  1  6  0  0  0
 23 13  1  0  0  0  0
 23 11  1  0  0  0  0
 24 25  1  6  0  0  0
 24 21  1  0  0  0  0
 26 27  2  0  0  0  0
 26 28  1  0  0  0  0
 29 30  1  6  0  0  0
 29 28  1  0  0  0  0
 29 31  1  0  0  0  0
 33 32  1  1  0  0  0
 34 36  1  0  0  0  0
 35 39  1  0  0  0  0
 36 33  1  1  0  0  0
 37 38  1  0  0  0  0
 37 35  2  0  0  0  0
 38 34  2  0  0  0  0
 39 36  1  0  0  0  0
M  END
>  <MODEL>
7

>  <REMARK>
 VINA RESULT:      -7.8      3.001      8.816
  Name = 
  5 active torsions:
  status: ('A' for Active; 'I' for Inactive)
    1  A    between atoms: C_7  and  C_23
    2  A    between atoms: C_12  and  N_22
    3  A    between atoms: C_15  and  C_23
    4  A    between atoms: C_20  and  C_29
    5  A    between atoms: C_21  and  C_29
                            x       y       z     vdW  Elec       q    Type
                         _______ _______ _______ _____ _____    ______ ____

>  <TORSDO>
F 5

$$$$
=
 OpenBabel11072409233D

 39 44  0  0  1  0  0  0  0  0999 V2000
  186.9700  177.7830  147.3790 N   0  0  0  0  0  0  0  0  0  0  0  0
  186.0430  178.0720  146.5120 C   0  0  0  0  0  0  0  0  0  0  0  0
  185.8230  177.3980  145.1880 C   0  0  2  0  0  3  0  0  0  0  0  0
  187.0840  177.4980  144.3910 C   0  0  0  0  0  3  0  0  0  0  0  0
  187.5170  175.5880  146.7800 O   0  0  0  0  0  0  0  0  0  0  0  0
  188.6820  176.8850  142.6190 C   0  0  2  0  0  0  0  0  0  0  0  0
  187.3020  176.8900  143.2240 C   0  0  0  0  0  0  0  0  0  0  0  0
  191.0640  177.4630  143.0440 C   0  0  0  0  0  2  0  0  0  0  0  0
  184.7560  178.2990  144.6530 C   0  0  0  0  0  0  0  0  0  0  0  0
  191.2400  177.8720  148.4730 C   0  0  2  0  0  3  0  0  0  0  0  0
  189.2600  176.8660  147.6650 N   0  0  0  0  0  0  0  0  0  0  0  0
  189.7490  178.0830  148.2790 C   0  0  0  0  0  2  0  0  0  0  0  0
  191.4870  176.3760  148.2910 C   0  0  0  0  0  2  0  0  0  0  0  0
  184.3930  179.3210  145.5710 N   0  0  0  0  0  2  0  0  0  0  0  0
  191.3810  176.2710  143.9510 C   0  0  2  0  0  3  0  0  0  0  0  0
  186.2910  176.1510  142.6180 O   0  0  0  0  0  1  0  0  0  0  0  0
  185.1850  179.1500  146.6760 O   0  0  0  0  0  0  0  0  0  0  0  0
  190.6340  175.5950  146.0970 C   0  0  0  0  0  3  0  0  0  0  0  0
  191.0300  176.5450  145.3260 N   0  0  0  0  0  0  0  0  0  0  0  0
  187.8960  176.6930  147.2580 C   0  0  0  0  0  0  0  0  0  0  0  0
  189.6220  177.9150  143.2170 C   0  0  1  0  0  3  0  0  0  0  0  0
  184.2050  178.1650  143.5290 O   0  0  0  0  0  0  0  0  0  0  0  0
  190.2810  175.8390  147.5380 C   0  0  2  0  0  3  0  0  0  0  0  0
  188.9340  178.1700  141.8930 C   0  0  1  0  0  3  0  0  0  0  0  0
  188.6400  176.9730  141.2160 O   0  0  0  0  0  0  0  0  0  0  0  0
  191.5400  177.4820  150.7880 C   0  0  0  0  0  3  0  0  0  0  0  0
  191.6250  178.2910  149.7940 N   0  0  0  0  0  0  0  0  0  0  0  0
  191.9400  177.9190  152.1590 C   0  0  0  0  0  2  0  0  0  0  0  0
  191.1910  177.1340  153.2250 C   0  0  2  0  0  3  0  0  0  0  0  0
  191.2060  177.9130  154.5230 C   0  0  0  0  0  1  0  0  0  0  0  0
  191.8030  175.8960  153.4250 O   0  0  0  0  0  1  0  0  0  0  0  0
  193.4630  176.5480  142.7540 O   0  0  0  0  0  1  0  0  0  0  0  0
  192.8530  175.8610  143.8080 C   0  0  2  0  0  3  0  0  0  0  0  0
  193.5910  173.7290  144.9710 C   0  0  0  0  0  3  0  0  0  0  0  0
  191.9360  172.1550  143.2910 C   0  0  0  0  0  3  0  0  0  0  0  0
  193.0710  174.3470  143.6940 C   0  0  1  0  0  3  0  0  0  0  0  0
  192.6830  171.5860  144.2430 C   0  0  0  0  0  3  0  0  0  0  0  0
  193.4380  172.4210  145.1980 C   0  0  0  0  0  3  0  0  0  0  0  0
  191.7840  173.6520  143.2340 C   0  0  0  0  0  2  0  0  0  0  0  0
  2 17  1  0  0  0  0
  2  1  2  0  0  0  0
  3  4  1  6  0  0  0
  3  2  1  0  0  0  0
  5 20  2  0  0  0  0
  6 25  1  6  0  0  0
  6 21  1  0  0  0  0
  6  7  1  0  0  0  0
  7  4  2  0  0  0  0
  8 15  1  0  0  0  0
  9  3  1  0  0  0  0
  9 14  1  0  0  0  0
 10 27  1  1  0  0  0
 11 12  1  0  0  0  0
 12 10  1  0  0  0  0
 13 10  1  0  0  0  0
 14 17  1  0  0  0  0
 15 33  1  1  0  0  0
 15 19  1  0  0  0  0
 16  7  1  0  0  0  0
 19 18  2  0  0  0  0
 20  1  1  0  0  0  0
 20 11  1  0  0  0  0
 21  8  1  6  0  0  0
 22  9  2  0  0  0  0
 23 18  1  6  0  0  0
 23 11  1  0  0  0  0
 23 13  1  0  0  0  0
 24 25  1  6  0  0  0
 24  6  1  0  0  0  0
 24 21  1  0  0  0  0
 26 28  1  0  0  0  0
 27 26  2  0  0  0  0
 28 29  1  0  0  0  0
 29 31  1  0  0  0  0
 29 30  1  1  0  0  0
 33 32  1  6  0  0  0
 34 38  2  0  0  0  0
 35 37  2  0  0  0  0
 36 33  1  1  0  0  0
 36 34  1  0  0  0  0
 37 38  1  0  0  0  0
 39 35  1  0  0  0  0
 39 36  1  0  0  0  0
M  END
>  <MODEL>
8

>  <REMARK>
 VINA RESULT:      -7.6      3.076      7.146
  Name = 
  5 active torsions:
  status: ('A' for Active; 'I' for Inactive)
    1  A    between atoms: C_7  and  C_23
    2  A    between atoms: C_12  and  N_22
    3  A    between atoms: C_15  and  C_23
    4  A    between atoms: C_20  and  C_29
    5  A    between atoms: C_21  and  C_29
                            x       y       z     vdW  Elec       q    Type
                         _______ _______ _______ _____ _____    ______ ____

>  <TORSDO>
F 5

$$$$
=
 OpenBabel11072409233D

 39 44  0  0  1  0  0  0  0  0999 V2000
  188.5650  174.0740  139.0730 N   0  0  0  0  0  0  0  0  0  0  0  0
  189.1520  173.7980  137.9440 C   0  0  0  0  0  0  0  0  0  0  0  0
  190.3450  172.9040  137.7580 C   0  0  2  0  0  3  0  0  0  0  0  0
  191.4590  173.4190  138.6100 C   0  0  0  0  0  3  0  0  0  0  0  0
  189.2260  172.2710  140.4090 O   0  0  0  0  0  0  0  0  0  0  0  0
  193.5840  173.2990  139.8530 C   0  0  2  0  0  0  0  0  0  0  0  0
  192.6230  172.7970  138.8060 C   0  0  0  0  0  0  0  0  0  0  0  0
  193.8460  174.9100  141.7310 C   0  0  0  0  0  2  0  0  0  0  0  0
  190.5920  173.1610  136.3060 C   0  0  0  0  0  0  0  0  0  0  0  0
  188.6880  176.1690  142.9490 C   0  0  2  0  0  3  0  0  0  0  0  0
  188.8920  174.2950  141.5240 N   0  0  0  0  0  0  0  0  0  0  0  0
  188.4720  175.6820  141.5280 C   0  0  0  0  0  2  0  0  0  0  0  0
  188.8870  174.9200  143.8050 C   0  0  0  0  0  2  0  0  0  0  0  0
  189.6400  174.0500  135.7370 N   0  0  0  0  0  2  0  0  0  0  0  0
  193.0260  174.1260  142.7580 C   0  0  2  0  0  3  0  0  0  0  0  0
  192.9070  171.6110  138.1360 O   0  0  0  0  0  1  0  0  0  0  0  0
  188.7900  174.4080  136.7520 O   0  0  0  0  0  0  0  0  0  0  0  0
  190.7390  173.5250  142.9230 C   0  0  0  0  0  3  0  0  0  0  0  0
  191.6160  174.4240  142.6500 N   0  0  0  0  0  0  0  0  0  0  0  0
  188.9040  173.4890  140.3380 C   0  0  0  0  0  0  0  0  0  0  0  0
  193.2970  174.7130  140.3250 C   0  0  1  0  0  3  0  0  0  0  0  0
  191.5170  172.6330  135.6350 O   0  0  0  0  0  0  0  0  0  0  0  0
  189.2640  173.8070  142.8420 C   0  0  2  0  0  3  0  0  0  0  0  0
  194.3880  174.4410  139.3120 C   0  0  1  0  0  3  0  0  0  0  0  0
  194.9220  173.1470  139.4520 O   0  0  0  0  0  0  0  0  0  0  0  0
  187.5970  177.6430  144.4450 C   0  0  0  0  0  3  0  0  0  0  0  0
  187.5370  176.9080  143.3940 N   0  0  0  0  0  0  0  0  0  0  0  0
  186.4000  178.4100  144.9050 C   0  0  0  0  0  2  0  0  0  0  0  0
  185.4570  177.5260  145.7050 C   0  0  2  0  0  3  0  0  0  0  0  0
  184.4390  178.3930  146.4150 C   0  0  0  0  0  1  0  0  0  0  0  0
  186.1750  176.7930  146.6510 O   0  0  0  0  0  1  0  0  0  0  0  0
  193.7030  175.7470  144.4180 O   0  0  0  0  0  1  0  0  0  0  0  0
  193.5550  174.3780  144.1760 C   0  0  2  0  0  3  0  0  0  0  0  0
  195.8190  174.4180  145.3260 C   0  0  0  0  0  3  0  0  0  0  0  0
  195.7570  171.6090  145.7020 C   0  0  0  0  0  3  0  0  0  0  0  0
  194.8380  173.6070  144.5100 C   0  0  1  0  0  3  0  0  0  0  0  0
  196.7950  172.3340  146.1320 C   0  0  0  0  0  3  0  0  0  0  0  0
  196.7590  173.8080  146.0520 C   0  0  0  0  0  3  0  0  0  0  0  0
  194.5040  172.2860  145.2120 C   0  0  0  0  0  2  0  0  0  0  0  0
  1 20  1  0  0  0  0
  2  1  2  0  0  0  0
  3  2  1  0  0  0  0
  3  4  1  1  0  0  0
  4  7  2  0  0  0  0
  6  7  1  6  0  0  0
  6 21  1  0  0  0  0
  8 15  1  0  0  0  0
  9  3  1  0  0  0  0
 10 27  1  1  0  0  0
 10 13  1  0  0  0  0
 11 12  1  0  0  0  0
 11 23  1  0  0  0  0
 12 10  1  0  0  0  0
 14  9  1  0  0  0  0
 14 17  1  0  0  0  0
 15 33  1  1  0  0  0
 16  7  1  0  0  0  0
 17  2  1  0  0  0  0
 19 15  1  0  0  0  0
 19 18  2  0  0  0  0
 20  5  2  0  0  0  0
 20 11  1  0  0  0  0
 21  8  1  1  0  0  0
 22  9  2  0  0  0  0
 23 18  1  6  0  0  0
 23 13  1  0  0  0  0
 24 25  1  1  0  0  0
 24  6  1  0  0  0  0
 24 21  1  0  0  0  0
 25  6  1  0  0  0  0
 26 28  1  0  0  0  0
 27 26  2  0  0  0  0
 28 29  1  0  0  0  0
 29 30  1  1  0  0  0
 29 31  1  0  0  0  0
 33 32  1  6  0  0  0
 34 38  2  0  0  0  0
 35 37  2  0  0  0  0
 36 33  1  1  0  0  0
 36 39  1  0  0  0  0
 36 34  1  0  0  0  0
 38 37  1  0  0  0  0
 39 35  1  0  0  0  0
M  END
>  <MODEL>
9

>  <REMARK>
 VINA RESULT:      -7.5      2.789      7.682
  Name = 
  5 active torsions:
  status: ('A' for Active; 'I' for Inactive)
    1  A    between atoms: C_7  and  C_23
    2  A    between atoms: C_12  and  N_22
    3  A    between atoms: C_15  and  C_23
    4  A    between atoms: C_20  and  C_29
    5  A    between atoms: C_21  and  C_29
                            x       y       z     vdW  Elec       q    Type
                         _______ _______ _______ _____ _____    ______ ____

>  <TORSDO>
F 5

$$$$
