=
 OpenBabel11062420163D

 25 28  0  0  1  0  0  0  0  0999 V2000
  187.4560  178.0290  145.6890 O   0  0  0  0  0  0  0  0  0  0  0  0
  188.8040  177.8670  142.2710 C   0  0  0  0  0  2  0  0  0  0  0  0
  185.7620  177.4890  142.4960 C   0  0  0  0  0  0  0  0  0  0  0  0
  188.8290  177.4050  143.7190 C   0  0  2  0  0  3  0  0  0  0  0  0
  186.6320  177.2100  141.3930 N   0  0  0  0  0  2  0  0  0  0  0  0
  186.2330  177.7240  143.8830 C   0  0  0  0  0  0  0  0  0  0  0  0
  186.2020  178.2170  146.0170 C   0  0  0  0  0  0  0  0  0  0  0  0
  187.5260  177.7350  144.4110 C   0  0  0  0  0  0  0  0  0  0  0  0
  188.0340  176.8440  141.4720 C   0  0  0  0  0  2  0  0  0  0  0  0
  184.5270  177.5770  142.2630 O   0  0  0  0  0  0  0  0  0  0  0  0
  185.3760  178.0420  144.9250 C   0  0  0  0  0  3  0  0  0  0  0  0
  193.0680  174.1720  145.9930 C   0  0  0  0  0  2  0  0  0  0  0  0
  191.4400  175.1500  147.4190 O   0  0  0  0  0  0  0  0  0  0  0  0
  192.0260  175.1910  146.3040 C   0  0  0  0  0  0  0  0  0  0  0  0
  191.9290  177.1820  142.9740 C   0  0  0  0  0  2  0  0  0  0  0  0
  192.9280  173.6860  144.2460 S   0  0  0  0  0  0  0  0  0  0  0  0
  190.0600  177.9630  144.4660 C   0  0  1  0  0  3  0  0  0  0  0  0
  190.5700  176.9540  145.4730 C   0  0  0  0  0  3  0  0  0  0  0  0
  191.1760  178.3970  143.5010 C   0  0  0  0  0  2  0  0  0  0  0  0
  191.6830  176.2240  145.3070 C   0  0  0  0  0  0  0  0  0  0  0  0
  192.6210  176.5000  144.1450 C   0  0  1  0  0  3  0  0  0  0  0  0
  193.4900  175.3260  143.6710 C   0  0  0  0  0  2  0  0  0  0  0  0
  185.7620  178.5640  147.3710 C   0  0  0  0  0  0  0  0  0  0  0  0
  186.6960  178.9400  148.3270 O   0  0  0  0  0  1  0  0  0  0  0  0
  184.5400  178.5240  147.6740 O   0  0  0  0  0  0  0  0  0  0  0  0
  1  7  1  0  0  0  0
  3  6  1  0  0  0  0
  4  2  1  6  0  0  0
  4  8  1  0  0  0  0
  4 17  1  0  0  0  0
  5  9  1  0  0  0  0
  5  3  1  0  0  0  0
  6  8  2  0  0  0  0
  6 11  1  0  0  0  0
  7 23  1  0  0  0  0
  8  1  1  0  0  0  0
  9  2  1  0  0  0  0
 10  3  2  0  0  0  0
 11  7  2  0  0  0  0
 12 14  1  0  0  0  0
 14 13  2  0  0  0  0
 15 19  1  0  0  0  0
 16 12  1  0  0  0  0
 17 19  1  6  0  0  0
 17 18  1  0  0  0  0
 20 18  2  0  0  0  0
 20 14  1  0  0  0  0
 21 15  1  6  0  0  0
 21 20  1  0  0  0  0
 22 21  1  0  0  0  0
 22 16  1  0  0  0  0
 23 25  2  0  0  0  0
 23 24  1  0  0  0  0
M  END
>  <MODEL>
1

>  <REMARK>
 VINA RESULT:      -7.8      0.000      0.000
  Name = 
  2 active torsions:
  status: ('A' for Active; 'I' for Inactive)
    1  A    between atoms: C_2  and  C_16
    2  A    between atoms: C_9  and  C_11
                            x       y       z     vdW  Elec       q    Type
                         _______ _______ _______ _____ _____    ______ ____

>  <TORSDO>
F 2

$$$$
=
 OpenBabel11062420163D

 25 28  0  0  1  0  0  0  0  0999 V2000
  187.8100  176.5520  143.4320 O   0  0  0  0  0  0  0  0  0  0  0  0
  187.0890  176.7050  147.0350 C   0  0  0  0  0  2  0  0  0  0  0  0
  185.7400  178.8840  145.3380 C   0  0  0  0  0  0  0  0  0  0  0  0
  188.0930  176.6330  145.8960 C   0  0  2  0  0  3  0  0  0  0  0  0
  185.9070  178.8140  146.7590 N   0  0  0  0  0  2  0  0  0  0  0  0
  186.4900  178.0420  144.3740 C   0  0  0  0  0  0  0  0  0  0  0  0
  187.1280  177.1420  142.4820 C   0  0  0  0  0  0  0  0  0  0  0  0
  187.4560  177.0570  144.5920 C   0  0  0  0  0  0  0  0  0  0  0  0
  186.9840  178.1470  147.4690 C   0  0  0  0  0  2  0  0  0  0  0  0
  184.8770  179.6830  144.8870 O   0  0  0  0  0  0  0  0  0  0  0  0
  186.2750  178.0920  143.0060 C   0  0  0  0  0  3  0  0  0  0  0  0
  193.5240  175.6370  144.1370 C   0  0  0  0  0  2  0  0  0  0  0  0
  191.7090  175.1460  142.6860 O   0  0  0  0  0  0  0  0  0  0  0  0
  192.0910  175.3210  143.8740 C   0  0  0  0  0  0  0  0  0  0  0  0
  190.6320  175.4930  147.4660 C   0  0  0  0  0  2  0  0  0  0  0  0
  193.6310  176.8630  145.4760 S   0  0  0  0  0  0  0  0  0  0  0  0
  188.7520  175.2390  145.8140 C   0  0  1  0  0  3  0  0  0  0  0  0
  189.8220  175.2220  144.7440 C   0  0  0  0  0  3  0  0  0  0  0  0
  189.3160  174.7840  147.1710 C   0  0  0  0  0  2  0  0  0  0  0  0
  191.1380  175.2280  144.9980 C   0  0  0  0  0  0  0  0  0  0  0  0
  191.6510  175.0710  146.4180 C   0  0  1  0  0  3  0  0  0  0  0  0
  193.0360  175.6640  146.7170 C   0  0  0  0  0  2  0  0  0  0  0  0
  187.2720  176.8180  141.0600 C   0  0  0  0  0  0  0  0  0  0  0  0
  186.6890  177.6370  140.1020 O   0  0  0  0  0  0  0  0  0  0  0  0
  187.9210  175.8010  140.7000 O   0  0  0  0  0  1  0  0  0  0  0  0
  1  8  1  0  0  0  0
  2  9  1  0  0  0  0
  3  5  1  0  0  0  0
  4  2  1  1  0  0  0
  5  9  1  0  0  0  0
  6  8  2  0  0  0  0
  6  3  1  0  0  0  0
  7 11  2  0  0  0  0
  7  1  1  0  0  0  0
  8  4  1  0  0  0  0
 10  3  2  0  0  0  0
 11  6  1  0  0  0  0
 12 16  1  0  0  0  0
 13 14  2  0  0  0  0
 14 12  1  0  0  0  0
 14 20  1  0  0  0  0
 16 22  1  0  0  0  0
 17 18  1  6  0  0  0
 17  4  1  0  0  0  0
 17 19  1  0  0  0  0
 18 20  2  0  0  0  0
 19 15  1  0  0  0  0
 20 21  1  0  0  0  0
 21 22  1  6  0  0  0
 21 15  1  0  0  0  0
 23  7  1  0  0  0  0
 24 23  2  0  0  0  0
 25 23  1  0  0  0  0
M  END
>  <MODEL>
2

>  <REMARK>
 VINA RESULT:      -7.7      2.471      4.333
  Name = 
  2 active torsions:
  status: ('A' for Active; 'I' for Inactive)
    1  A    between atoms: C_2  and  C_16
    2  A    between atoms: C_9  and  C_11
                            x       y       z     vdW  Elec       q    Type
                         _______ _______ _______ _____ _____    ______ ____

>  <TORSDO>
F 2

$$$$
=
 OpenBabel11062420163D

 25 28  0  0  1  0  0  0  0  0999 V2000
  188.0080  176.6810  145.2690 O   0  0  0  0  0  0  0  0  0  0  0  0
  185.8800  179.1260  143.5330 C   0  0  0  0  0  2  0  0  0  0  0  0
  184.8690  178.2430  146.2980 C   0  0  0  0  0  0  0  0  0  0  0  0
  186.6310  177.8050  143.5380 C   0  0  2  0  0  3  0  0  0  0  0  0
  184.1730  178.9370  145.2560 N   0  0  0  0  0  2  0  0  0  0  0  0
  186.1520  177.5240  146.0990 C   0  0  0  0  0  0  0  0  0  0  0  0
  187.9760  176.3980  146.5470 C   0  0  0  0  0  0  0  0  0  0  0  0
  186.9330  177.3640  144.9530 C   0  0  0  0  0  0  0  0  0  0  0  0
  184.4290  178.8360  143.8310 C   0  0  0  0  0  2  0  0  0  0  0  0
  184.3780  178.2790  147.4570 O   0  0  0  0  0  0  0  0  0  0  0  0
  186.8320  176.9020  147.1340 C   0  0  0  0  0  3  0  0  0  0  0  0
  190.1680  173.3390  142.4720 C   0  0  0  0  0  2  0  0  0  0  0  0
  190.8380  175.0330  143.9960 O   0  0  0  0  0  0  0  0  0  0  0  0
  190.1000  174.7220  143.0230 C   0  0  0  0  0  0  0  0  0  0  0  0
  187.2900  176.2500  140.8250 C   0  0  0  0  0  2  0  0  0  0  0  0
  188.4930  172.7920  142.0190 S   0  0  0  0  0  0  0  0  0  0  0  0
  187.8930  177.8710  142.6510 C   0  0  1  0  0  3  0  0  0  0  0  0
  188.9090  176.8420  143.0980 C   0  0  0  0  0  3  0  0  0  0  0  0
  187.5610  177.7110  141.1580 C   0  0  0  0  0  2  0  0  0  0  0  0
  189.1680  175.7050  142.4360 C   0  0  0  0  0  0  0  0  0  0  0  0
  188.5660  175.4570  141.0640 C   0  0  1  0  0  3  0  0  0  0  0  0
  188.3970  173.9890  140.6440 C   0  0  0  0  0  2  0  0  0  0  0  0
  189.0260  175.6450  147.2380 C   0  0  0  0  0  0  0  0  0  0  0  0
  190.2710  176.2260  147.4460 O   0  0  0  0  0  0  0  0  0  0  0  0
  188.8090  174.4730  147.6440 O   0  0  0  0  0  1  0  0  0  0  0  0
  1  7  1  0  0  0  0
  2  9  1  0  0  0  0
  3 10  2  0  0  0  0
  4  2  1  1  0  0  0
  4  8  1  0  0  0  0
  5  3  1  0  0  0  0
  6  3  1  0  0  0  0
  6 11  1  0  0  0  0
  7 11  2  0  0  0  0
  7 23  1  0  0  0  0
  8  1  1  0  0  0  0
  8  6  2  0  0  0  0
  9  5  1  0  0  0  0
 12 14  1  0  0  0  0
 14 13  2  0  0  0  0
 15 21  1  0  0  0  0
 15 19  1  0  0  0  0
 16 12  1  0  0  0  0
 17 19  1  6  0  0  0
 17 18  1  0  0  0  0
 17  4  1  0  0  0  0
 20 14  1  0  0  0  0
 20 18  2  0  0  0  0
 21 22  1  1  0  0  0
 21 20  1  0  0  0  0
 22 16  1  0  0  0  0
 23 24  2  0  0  0  0
 23 25  1  0  0  0  0
M  END
>  <MODEL>
3

>  <REMARK>
 VINA RESULT:      -7.0      2.706      4.095
  Name = 
  2 active torsions:
  status: ('A' for Active; 'I' for Inactive)
    1  A    between atoms: C_2  and  C_16
    2  A    between atoms: C_9  and  C_11
                            x       y       z     vdW  Elec       q    Type
                         _______ _______ _______ _____ _____    ______ ____

>  <TORSDO>
F 2

$$$$
=
 OpenBabel11062420163D

 25 28  0  0  1  0  0  0  0  0999 V2000
  188.5270  175.2750  143.4410 O   0  0  0  0  0  0  0  0  0  0  0  0
  187.4400  176.3430  146.7870 C   0  0  0  0  0  2  0  0  0  0  0  0
  185.9870  177.7030  144.4440 C   0  0  0  0  0  0  0  0  0  0  0  0
  188.5520  176.1050  145.7790 C   0  0  2  0  0  3  0  0  0  0  0  0
  186.0210  178.0710  145.8280 N   0  0  0  0  0  2  0  0  0  0  0  0
  186.9340  176.7470  143.8190 C   0  0  0  0  0  0  0  0  0  0  0  0
  187.8710  175.4520  142.3220 C   0  0  0  0  0  0  0  0  0  0  0  0
  187.9960  176.0300  144.3740 C   0  0  0  0  0  0  0  0  0  0  0  0
  187.1010  177.8140  146.7640 C   0  0  0  0  0  2  0  0  0  0  0  0
  185.0740  178.1930  143.7280 O   0  0  0  0  0  0  0  0  0  0  0  0
  186.8510  176.3670  142.4890 C   0  0  0  0  0  3  0  0  0  0  0  0
  194.1220  175.3440  144.3700 C   0  0  0  0  0  2  0  0  0  0  0  0
  192.4370  174.1550  143.1920 O   0  0  0  0  0  0  0  0  0  0  0  0
  192.7540  174.7640  144.2490 C   0  0  0  0  0  0  0  0  0  0  0  0
  191.1700  175.9100  147.6010 C   0  0  0  0  0  2  0  0  0  0  0  0
  194.0190  176.9460  145.2250 S   0  0  0  0  0  0  0  0  0  0  0  0
  189.3960  174.8670  146.1540 C   0  0  1  0  0  3  0  0  0  0  0  0
  190.4920  174.6450  145.1350 C   0  0  0  0  0  3  0  0  0  0  0  0
  189.9720  174.9690  147.5770 C   0  0  0  0  0  2  0  0  0  0  0  0
  191.7870  174.9160  145.3530 C   0  0  0  0  0  0  0  0  0  0  0  0
  192.2700  175.3100  146.7380 C   0  0  1  0  0  3  0  0  0  0  0  0
  193.5510  176.1540  146.8030 C   0  0  0  0  0  2  0  0  0  0  0  0
  188.1970  174.7590  141.0720 C   0  0  0  0  0  0  0  0  0  0  0  0
  187.8800  175.3460  139.8530 O   0  0  0  0  0  0  0  0  0  0  0  0
  188.7620  173.6340  141.0940 O   0  0  0  0  0  1  0  0  0  0  0  0
  1  8  1  0  0  0  0
  3  5  1  0  0  0  0
  4 17  1  0  0  0  0
  4  2  1  1  0  0  0
  5  9  1  0  0  0  0
  6  8  2  0  0  0  0
  6  3  1  0  0  0  0
  7 11  2  0  0  0  0
  7  1  1  0  0  0  0
  8  4  1  0  0  0  0
  9  2  1  0  0  0  0
 10  3  2  0  0  0  0
 11  6  1  0  0  0  0
 12 16  1  0  0  0  0
 13 14  2  0  0  0  0
 14 12  1  0  0  0  0
 14 20  1  0  0  0  0
 16 22  1  0  0  0  0
 17 18  1  6  0  0  0
 17 19  1  0  0  0  0
 18 20  2  0  0  0  0
 19 15  1  0  0  0  0
 20 21  1  0  0  0  0
 21 22  1  6  0  0  0
 21 15  1  0  0  0  0
 23 25  1  0  0  0  0
 23  7  1  0  0  0  0
 24 23  2  0  0  0  0
M  END
>  <MODEL>
4

>  <REMARK>
 VINA RESULT:      -7.0      2.678      4.505
  Name = 
  2 active torsions:
  status: ('A' for Active; 'I' for Inactive)
    1  A    between atoms: C_2  and  C_16
    2  A    between atoms: C_9  and  C_11
                            x       y       z     vdW  Elec       q    Type
                         _______ _______ _______ _____ _____    ______ ____

>  <TORSDO>
F 2

$$$$
=
 OpenBabel11062420163D

 25 28  0  0  1  0  0  0  0  0999 V2000
  187.2750  176.5590  146.1630 O   0  0  0  0  0  0  0  0  0  0  0  0
  189.9930  175.9430  143.7640 C   0  0  0  0  0  2  0  0  0  0  0  0
  187.7160  177.7310  142.7300 C   0  0  0  0  0  0  0  0  0  0  0  0
  188.9510  175.4150  144.7360 C   0  0  2  0  0  3  0  0  0  0  0  0
  188.7550  177.0710  141.9980 N   0  0  0  0  0  2  0  0  0  0  0  0
  187.3540  177.4030  144.1310 C   0  0  0  0  0  0  0  0  0  0  0  0
  186.3810  177.5130  146.0900 C   0  0  0  0  0  0  0  0  0  0  0  0
  187.8910  176.4590  145.0080 C   0  0  0  0  0  0  0  0  0  0  0  0
  189.4230  175.8360  142.3700 C   0  0  0  0  0  2  0  0  0  0  0  0
  187.0990  178.6690  142.1580 O   0  0  0  0  0  0  0  0  0  0  0  0
  186.3780  178.0890  144.8350 C   0  0  0  0  0  3  0  0  0  0  0  0
  194.6170  174.3900  145.3920 C   0  0  0  0  0  2  0  0  0  0  0  0
  193.1190  172.5710  145.0920 O   0  0  0  0  0  0  0  0  0  0  0  0
  193.2620  173.7710  145.4500 C   0  0  0  0  0  0  0  0  0  0  0  0
  191.1270  176.7890  146.6300 C   0  0  0  0  0  2  0  0  0  0  0  0
  194.4650  176.1130  144.8320 S   0  0  0  0  0  0  0  0  0  0  0  0
  189.6060  174.8780  146.0260 C   0  0  1  0  0  3  0  0  0  0  0  0
  190.8660  174.1050  145.6990 C   0  0  0  0  0  3  0  0  0  0  0  0
  189.8910  175.9980  147.0410 C   0  0  0  0  0  2  0  0  0  0  0  0
  192.1070  174.5660  145.9100 C   0  0  0  0  0  0  0  0  0  0  0  0
  192.3300  175.8590  146.6750 C   0  0  1  0  0  3  0  0  0  0  0  0
  193.6320  176.6170  146.3760 C   0  0  0  0  0  2  0  0  0  0  0  0
  185.5100  177.8960  147.2050 C   0  0  0  0  0  0  0  0  0  0  0  0
  184.2010  178.2900  146.9570 O   0  0  0  0  0  0  0  0  0  0  0  0
  185.9410  177.8720  148.3880 O   0  0  0  0  0  1  0  0  0  0  0  0
  3  6  1  0  0  0  0
  4  2  1  6  0  0  0
  4  8  1  0  0  0  0
  4 17  1  0  0  0  0
  5  9  1  0  0  0  0
  5  3  1  0  0  0  0
  6 11  1  0  0  0  0
  6  8  2  0  0  0  0
  7  1  1  0  0  0  0
  7 23  1  0  0  0  0
  8  1  1  0  0  0  0
  9  2  1  0  0  0  0
 10  3  2  0  0  0  0
 11  7  2  0  0  0  0
 12 14  1  0  0  0  0
 13 14  2  0  0  0  0
 14 20  1  0  0  0  0
 15 21  1  0  0  0  0
 15 19  1  0  0  0  0
 16 12  1  0  0  0  0
 16 22  1  0  0  0  0
 17 18  1  6  0  0  0
 17 19  1  0  0  0  0
 18 20  2  0  0  0  0
 20 21  1  0  0  0  0
 21 22  1  6  0  0  0
 23 25  1  0  0  0  0
 24 23  2  0  0  0  0
M  END
>  <MODEL>
5

>  <REMARK>
 VINA RESULT:      -7.0      1.884      2.502
  Name = 
  2 active torsions:
  status: ('A' for Active; 'I' for Inactive)
    1  A    between atoms: C_2  and  C_16
    2  A    between atoms: C_9  and  C_11
                            x       y       z     vdW  Elec       q    Type
                         _______ _______ _______ _____ _____    ______ ____

>  <TORSDO>
F 2

$$$$
=
 OpenBabel11062420163D

 25 28  0  0  1  0  0  0  0  0999 V2000
  187.8090  176.6750  142.0750 O   0  0  0  0  0  0  0  0  0  0  0  0
  190.3120  174.8840  144.0880 C   0  0  0  0  0  2  0  0  0  0  0  0
  189.2230  173.3300  141.6700 C   0  0  0  0  0  0  0  0  0  0  0  0
  189.0110  175.6660  143.9970 C   0  0  2  0  0  3  0  0  0  0  0  0
  189.9680  172.8510  142.7960 N   0  0  0  0  0  2  0  0  0  0  0  0
  188.5500  174.6520  141.6240 C   0  0  0  0  0  0  0  0  0  0  0  0
  187.4410  176.3760  140.8550 C   0  0  0  0  0  0  0  0  0  0  0  0
  188.4850  175.6690  142.5790 C   0  0  0  0  0  0  0  0  0  0  0  0
  189.9680  173.4150  144.1340 C   0  0  0  0  0  2  0  0  0  0  0  0
  189.1700  172.5970  140.6470 O   0  0  0  0  0  0  0  0  0  0  0  0
  187.8770  175.1140  140.5050 C   0  0  0  0  0  3  0  0  0  0  0  0
  184.6220  179.0410  145.7100 C   0  0  0  0  0  2  0  0  0  0  0  0
  185.7170  179.4880  143.6500 O   0  0  0  0  0  0  0  0  0  0  0  0
  185.7900  178.9520  144.7880 C   0  0  0  0  0  0  0  0  0  0  0  0
  188.2190  176.7720  146.8880 C   0  0  0  0  0  2  0  0  0  0  0  0
  184.4410  177.4650  146.6000 S   0  0  0  0  0  0  0  0  0  0  0  0
  189.1670  177.0870  144.5790 C   0  0  1  0  0  3  0  0  0  0  0  0
  187.9340  177.9160  144.2900 C   0  0  0  0  0  3  0  0  0  0  0  0
  189.4800  177.0650  146.0850 C   0  0  0  0  0  2  0  0  0  0  0  0
  187.0080  178.2310  145.2070 C   0  0  0  0  0  0  0  0  0  0  0  0
  187.2370  177.9140  146.6750 C   0  0  1  0  0  3  0  0  0  0  0  0
  185.9820  177.7390  147.5420 C   0  0  0  0  0  2  0  0  0  0  0  0
  186.6690  177.2790  139.9960 C   0  0  0  0  0  0  0  0  0  0  0  0
  185.9060  178.2910  140.5650 O   0  0  0  0  0  1  0  0  0  0  0  0
  186.6920  177.1440  138.7450 O   0  0  0  0  0  0  0  0  0  0  0  0
  1  8  1  0  0  0  0
  2  9  1  0  0  0  0
  3  5  1  0  0  0  0
  4  2  1  6  0  0  0
  4 17  1  0  0  0  0
  5  9  1  0  0  0  0
  6  3  1  0  0  0  0
  6  8  2  0  0  0  0
  7  1  1  0  0  0  0
  8  4  1  0  0  0  0
 10  3  2  0  0  0  0
 11  7  2  0  0  0  0
 11  6  1  0  0  0  0
 12 16  1  0  0  0  0
 13 14  2  0  0  0  0
 14 20  1  0  0  0  0
 14 12  1  0  0  0  0
 16 22  1  0  0  0  0
 17 18  1  1  0  0  0
 17 19  1  0  0  0  0
 18 20  2  0  0  0  0
 19 15  1  0  0  0  0
 20 21  1  0  0  0  0
 21 15  1  6  0  0  0
 21 22  1  0  0  0  0
 23 24  1  0  0  0  0
 23  7  1  0  0  0  0
 25 23  2  0  0  0  0
M  END
>  <MODEL>
6

>  <REMARK>
 VINA RESULT:      -7.0      3.499      6.213
  Name = 
  2 active torsions:
  status: ('A' for Active; 'I' for Inactive)
    1  A    between atoms: C_2  and  C_16
    2  A    between atoms: C_9  and  C_11
                            x       y       z     vdW  Elec       q    Type
                         _______ _______ _______ _____ _____    ______ ____

>  <TORSDO>
F 2

$$$$
=
 OpenBabel11062420163D

 25 28  0  0  1  0  0  0  0  0999 V2000
  187.0710  178.0210  142.7810 O   0  0  0  0  0  0  0  0  0  0  0  0
  189.0760  176.7110  145.5720 C   0  0  0  0  0  2  0  0  0  0  0  0
  186.0530  176.8870  146.1020 C   0  0  0  0  0  0  0  0  0  0  0  0
  188.8160  177.7870  144.5300 C   0  0  2  0  0  3  0  0  0  0  0  0
  187.1280  176.7020  147.0310 N   0  0  0  0  0  2  0  0  0  0  0  0
  186.2360  177.3570  144.7070 C   0  0  0  0  0  0  0  0  0  0  0  0
  185.7760  177.8980  142.6350 C   0  0  0  0  0  0  0  0  0  0  0  0
  187.3970  177.7010  144.0120 C   0  0  0  0  0  0  0  0  0  0  0  0
  188.4900  177.1830  146.8810 C   0  0  0  0  0  2  0  0  0  0  0  0
  184.8890  176.5960  146.4860 O   0  0  0  0  0  0  0  0  0  0  0  0
  185.1860  177.4800  143.8110 C   0  0  0  0  0  3  0  0  0  0  0  0
  193.8670  174.9590  144.8190 C   0  0  0  0  0  2  0  0  0  0  0  0
  193.8270  177.3240  145.0380 O   0  0  0  0  0  0  0  0  0  0  0  0
  193.2390  176.2950  144.6090 C   0  0  0  0  0  0  0  0  0  0  0  0
  189.9170  175.2820  142.8780 C   0  0  0  0  0  2  0  0  0  0  0  0
  192.5700  173.7440  145.2070 S   0  0  0  0  0  0  0  0  0  0  0  0
  189.8680  177.7430  143.4010 C   0  0  1  0  0  3  0  0  0  0  0  0
  191.2540  177.5510  143.9760 C   0  0  0  0  0  3  0  0  0  0  0  0
  189.5480  176.6640  142.3520 C   0  0  0  0  0  2  0  0  0  0  0  0
  191.9390  176.4000  143.9170 C   0  0  0  0  0  0  0  0  0  0  0  0
  191.4220  175.2350  143.0910 C   0  0  1  0  0  3  0  0  0  0  0  0
  191.8810  173.8330  143.5190 C   0  0  0  0  0  2  0  0  0  0  0  0
  185.0710  178.1740  141.3800 C   0  0  0  0  0  0  0  0  0  0  0  0
  183.6870  178.2920  141.3760 O   0  0  0  0  0  1  0  0  0  0  0  0
  185.7110  178.3040  140.3040 O   0  0  0  0  0  0  0  0  0  0  0  0
  1  8  1  0  0  0  0
  2  9  1  0  0  0  0
  3 10  2  0  0  0  0
  3  5  1  0  0  0  0
  4  2  1  1  0  0  0
  6  3  1  0  0  0  0
  7  1  1  0  0  0  0
  7 11  2  0  0  0  0
  8  4  1  0  0  0  0
  8  6  2  0  0  0  0
  9  5  1  0  0  0  0
 11  6  1  0  0  0  0
 12 16  1  0  0  0  0
 14 12  1  0  0  0  0
 14 13  2  0  0  0  0
 17 19  1  6  0  0  0
 17 18  1  0  0  0  0
 17  4  1  0  0  0  0
 19 15  1  0  0  0  0
 20 18  2  0  0  0  0
 20 14  1  0  0  0  0
 21 15  1  1  0  0  0
 21 22  1  0  0  0  0
 21 20  1  0  0  0  0
 22 16  1  0  0  0  0
 23  7  1  0  0  0  0
 24 23  1  0  0  0  0
 25 23  2  0  0  0  0
M  END
>  <MODEL>
7

>  <REMARK>
 VINA RESULT:      -7.0      2.102      3.664
  Name = 
  2 active torsions:
  status: ('A' for Active; 'I' for Inactive)
    1  A    between atoms: C_2  and  C_16
    2  A    between atoms: C_9  and  C_11
                            x       y       z     vdW  Elec       q    Type
                         _______ _______ _______ _____ _____    ______ ____

>  <TORSDO>
F 2

$$$$
=
 OpenBabel11062420163D

 25 28  0  0  1  0  0  0  0  0999 V2000
  186.6540  178.1290  145.0050 O   0  0  0  0  0  0  0  0  0  0  0  0
  188.2330  178.1270  141.6840 C   0  0  0  0  0  2  0  0  0  0  0  0
  185.1610  178.0040  141.6710 C   0  0  0  0  0  0  0  0  0  0  0  0
  188.1130  177.5480  143.0840 C   0  0  2  0  0  3  0  0  0  0  0  0
  186.0850  177.7400  140.6080 N   0  0  0  0  0  2  0  0  0  0  0  0
  185.5470  178.0820  143.1020 C   0  0  0  0  0  0  0  0  0  0  0  0
  185.3990  178.4000  145.2640 C   0  0  0  0  0  0  0  0  0  0  0  0
  186.7930  177.9350  143.7140 C   0  0  0  0  0  0  0  0  0  0  0  0
  187.4420  177.2450  140.7480 C   0  0  0  0  0  2  0  0  0  0  0  0
  183.9590  178.2200  141.3640 O   0  0  0  0  0  0  0  0  0  0  0  0
  184.6440  178.3890  144.1080 C   0  0  0  0  0  3  0  0  0  0  0  0
  191.3770  173.7870  146.0490 C   0  0  0  0  0  2  0  0  0  0  0  0
  189.7990  175.1390  147.2000 O   0  0  0  0  0  0  0  0  0  0  0  0
  190.5120  174.9950  146.1710 C   0  0  0  0  0  0  0  0  0  0  0  0
  191.1840  176.7260  142.7630 C   0  0  0  0  0  2  0  0  0  0  0  0
  191.3600  173.2100  144.3250 S   0  0  0  0  0  0  0  0  0  0  0  0
  189.3270  177.9310  143.9570 C   0  0  1  0  0  3  0  0  0  0  0  0
  189.5180  176.9240  145.0700 C   0  0  0  0  0  3  0  0  0  0  0  0
  190.6120  178.0900  143.1260 C   0  0  0  0  0  2  0  0  0  0  0  0
  190.4880  175.9980  145.0880 C   0  0  0  0  0  0  0  0  0  0  0  0
  191.5930  176.0180  144.0460 C   0  0  1  0  0  3  0  0  0  0  0  0
  192.2800  174.6780  143.7490 C   0  0  0  0  0  2  0  0  0  0  0  0
  184.8900  178.6740  146.6100 C   0  0  0  0  0  0  0  0  0  0  0  0
  183.6040  178.2800  146.9570 O   0  0  0  0  0  0  0  0  0  0  0  0
  185.6100  179.2660  147.4570 O   0  0  0  0  0  1  0  0  0  0  0  0
  1  7  1  0  0  0  0
  3  6  1  0  0  0  0
  4  2  1  6  0  0  0
  4  8  1  0  0  0  0
  4 17  1  0  0  0  0
  5  9  1  0  0  0  0
  5  3  1  0  0  0  0
  6  8  2  0  0  0  0
  6 11  1  0  0  0  0
  7 23  1  0  0  0  0
  8  1  1  0  0  0  0
  9  2  1  0  0  0  0
 10  3  2  0  0  0  0
 11  7  2  0  0  0  0
 12 14  1  0  0  0  0
 14 13  2  0  0  0  0
 15 19  1  0  0  0  0
 16 12  1  0  0  0  0
 17 19  1  6  0  0  0
 17 18  1  0  0  0  0
 18 20  2  0  0  0  0
 20 14  1  0  0  0  0
 21 15  1  6  0  0  0
 21 20  1  0  0  0  0
 22 21  1  0  0  0  0
 22 16  1  0  0  0  0
 23 24  2  0  0  0  0
 23 25  1  0  0  0  0
M  END
>  <MODEL>
8

>  <REMARK>
 VINA RESULT:      -6.9      1.158      1.366
  Name = 
  2 active torsions:
  status: ('A' for Active; 'I' for Inactive)
    1  A    between atoms: C_2  and  C_16
    2  A    between atoms: C_9  and  C_11
                            x       y       z     vdW  Elec       q    Type
                         _______ _______ _______ _____ _____    ______ ____

>  <TORSDO>
F 2

$$$$
=
 OpenBabel11062420163D

 25 28  0  0  1  0  0  0  0  0999 V2000
  192.2500  176.0600  144.9230 O   0  0  0  0  0  0  0  0  0  0  0  0
  188.8920  175.1010  143.7710 C   0  0  0  0  0  2  0  0  0  0  0  0
  190.8560  172.7690  144.1570 C   0  0  0  0  0  0  0  0  0  0  0  0
  190.1430  175.9500  143.6170 C   0  0  2  0  0  3  0  0  0  0  0  0
  189.6000  172.7940  143.4690 N   0  0  0  0  0  2  0  0  0  0  0  0
  191.6070  173.9870  144.5510 C   0  0  0  0  0  0  0  0  0  0  0  0
  193.1400  175.2620  145.4570 C   0  0  0  0  0  0  0  0  0  0  0  0
  191.3030  175.3380  144.3700 C   0  0  0  0  0  0  0  0  0  0  0  0
  188.9970  173.9400  142.8130 C   0  0  0  0  0  2  0  0  0  0  0  0
  191.3290  171.6470  144.4770 O   0  0  0  0  0  0  0  0  0  0  0  0
  192.7970  173.9390  145.2600 C   0  0  0  0  0  3  0  0  0  0  0  0
  184.9530  178.1310  144.9930 C   0  0  0  0  0  2  0  0  0  0  0  0
  185.9050  178.6090  142.8700 O   0  0  0  0  0  0  0  0  0  0  0  0
  186.1110  178.2610  144.0640 C   0  0  0  0  0  0  0  0  0  0  0  0
  189.0280  177.1390  146.3650 C   0  0  0  0  0  2  0  0  0  0  0  0
  185.2130  176.6930  146.0760 S   0  0  0  0  0  0  0  0  0  0  0  0
  189.8810  177.4180  144.0150 C   0  0  1  0  0  3  0  0  0  0  0  0
  188.4680  177.8210  143.6520 C   0  0  0  0  0  3  0  0  0  0  0  0
  190.1650  177.6740  145.5050 C   0  0  0  0  0  2  0  0  0  0  0  0
  187.4780  177.9730  144.5430 C   0  0  0  0  0  0  0  0  0  0  0  0
  187.7650  177.9200  146.0330 C   0  0  1  0  0  3  0  0  0  0  0  0
  186.5990  177.5070  146.9420 C   0  0  0  0  0  2  0  0  0  0  0  0
  194.3350  175.7360  146.1620 C   0  0  0  0  0  0  0  0  0  0  0  0
  194.3070  176.9550  146.8270 O   0  0  0  0  0  1  0  0  0  0  0  0
  195.3870  175.0450  146.1690 O   0  0  0  0  0  0  0  0  0  0  0  0
  1  7  1  0  0  0  0
  3 10  2  0  0  0  0
  3  6  1  0  0  0  0
  4  2  1  1  0  0  0
  4 17  1  0  0  0  0
  4  8  1  0  0  0  0
  5  3  1  0  0  0  0
  6 11  1  0  0  0  0
  7 23  1  0  0  0  0
  8  6  2  0  0  0  0
  8  1  1  0  0  0  0
  9  5  1  0  0  0  0
  9  2  1  0  0  0  0
 11  7  2  0  0  0  0
 12 16  1  0  0  0  0
 13 14  2  0  0  0  0
 14 20  1  0  0  0  0
 14 12  1  0  0  0  0
 16 22  1  0  0  0  0
 17 18  1  1  0  0  0
 17 19  1  0  0  0  0
 18 20  2  0  0  0  0
 19 15  1  0  0  0  0
 20 21  1  0  0  0  0
 21 15  1  6  0  0  0
 21 22  1  0  0  0  0
 23 25  2  0  0  0  0
 23 24  1  0  0  0  0
M  END
>  <MODEL>
9

>  <REMARK>
 VINA RESULT:      -6.4      2.951      6.660
  Name = 
  2 active torsions:
  status: ('A' for Active; 'I' for Inactive)
    1  A    between atoms: C_2  and  C_16
    2  A    between atoms: C_9  and  C_11
                            x       y       z     vdW  Elec       q    Type
                         _______ _______ _______ _____ _____    ______ ____

>  <TORSDO>
F 2

$$$$
