=
 OpenBabel11062419473D

 46 49  0  0  1  0  0  0  0  0999 V2000
  190.6040  177.7850  144.0810 C   0  0  0  0  0  2  0  0  0  0  0  0
  190.1770  176.8100  145.1820 C   0  0  2  0  0  3  0  0  0  0  0  0
  189.0110  176.2660  142.7030 C   0  0  2  0  0  3  0  0  0  0  0  0
  190.0080  177.4400  142.6970 C   0  0  0  0  0  2  0  0  0  0  0  0
  188.6970  176.5830  145.1230 C   0  0  0  0  0  3  0  0  0  0  0  0
  188.1360  176.3280  143.9400 C   0  0  0  0  0  0  0  0  0  0  0  0
  190.5590  177.3290  146.4840 N   0  0  0  0  0  2  0  0  0  0  0  0
  190.0280  174.9770  147.5590 O   0  0  0  0  0  0  0  0  0  0  0  0
  191.1310  175.9900  147.4210 S   0  0  0  0  0  0  0  0  0  0  0  0
  191.5270  176.4650  148.7900 O   0  0  0  0  0  0  0  0  0  0  0  0
  192.5250  175.2480  146.6310 C   0  0  0  0  0  0  0  0  0  0  0  0
  193.7340  175.9500  146.4490 C   0  0  0  0  0  0  0  0  0  0  0  0
  193.3370  172.0780  144.9850 F   0  0  0  0  0  0  0  0  0  0  0  0
  195.7100  173.4580  144.6390 F   0  0  0  0  0  0  0  0  0  0  0  0
  194.6700  174.0360  145.2880 C   0  0  0  0  0  0  0  0  0  0  0  0
  193.4710  173.3390  145.4640 C   0  0  0  0  0  0  0  0  0  0  0  0
  192.4040  173.9450  146.1290 C   0  0  0  0  0  3  0  0  0  0  0  0
  193.9160  177.3430  146.9440 C   0  0  0  0  0  1  0  0  0  0  0  0
  194.7980  175.3370  145.7790 C   0  0  0  0  0  3  0  0  0  0  0  0
  189.7750  174.9330  142.5590 C   0  0  1  0  0  3  0  0  0  0  0  0
  188.9230  173.6990  142.2490 C   0  0  0  0  0  2  0  0  0  0  0  0
  190.1200  171.3990  141.0810 O   0  0  0  0  0  0  0  0  0  0  0  0
  188.9320  173.3900  140.8290 N   0  0  0  0  0  2  0  0  0  0  0  0
  189.5970  172.2440  140.3040 C   0  0  0  0  0  0  0  0  0  0  0  0
  190.7940  172.7960  138.3420 O   0  0  0  0  0  1  0  0  0  0  0  0
  189.6990  172.0760  138.8240 C   0  0  1  0  0  3  0  0  0  0  0  0
  189.8310  170.6090  138.4450 C   0  0  0  0  0  2  0  0  0  0  0  0
  191.0120  170.4140  137.7310 O   0  0  0  0  0  1  0  0  0  0  0  0
  191.0460  175.0140  141.6980 C   0  0  0  0  0  2  0  0  0  0  0  0
  192.7790  173.3790  141.8490 O   0  0  0  0  0  1  0  0  0  0  0  0
  192.3190  174.5670  142.4140 C   0  0  1  0  0  3  0  0  0  0  0  0
  193.3980  175.6300  142.3220 C   0  0  0  0  0  2  0  0  0  0  0  0
  194.2930  175.3730  141.1230 C   0  0  0  0  0  2  0  0  0  0  0  0
  197.5140  176.0310  143.1060 N   0  0  0  0  0  0  0  0  0  0  0  0
  196.5340  176.9660  143.1240 O   0  0  0  0  0  0  0  0  0  0  0  0
  195.6220  174.9800  141.5640 N   0  0  0  0  0  2  0  0  0  0  0  0
  196.3970  175.8150  142.4160 C   0  0  0  0  0  0  0  0  0  0  0  0
  186.7540  176.1410  143.8630 O   0  0  0  0  0  0  0  0  0  0  0  0
  184.5750  178.4180  145.8760 C   0  0  1  0  0  3  0  0  0  0  0  0
  185.3820  179.5500  145.6690 O   0  0  0  0  0  0  0  0  0  0  0  0
  185.3660  177.1500  145.5520 C   0  0  0  0  0  2  0  0  0  0  0  0
  186.4680  178.5470  143.7780 C   0  0  1  0  0  3  0  0  0  0  0  0
  184.1750  178.3800  147.1940 F   0  0  0  0  0  0  0  0  0  0  0  0
  186.6520  178.6830  142.4150 F   0  0  0  0  0  0  0  0  0  0  0  0
  185.5600  179.6690  144.2810 C   0  0  0  0  0  2  0  0  0  0  0  0
  185.8250  177.1940  144.0960 C   0  0  1  0  0  3  0  0  0  0  0  0
  1  2  1  0  0  0  0
  2  7  1  1  0  0  0
  3 20  1  1  0  0  0
  3  6  1  0  0  0  0
  4  3  1  0  0  0  0
  4  1  1  0  0  0  0
  5  2  1  0  0  0  0
  6  5  2  0  0  0  0
  7  9  1  0  0  0  0
  9  8  2  0  0  0  0
  9 10  2  0  0  0  0
 11  9  1  0  0  0  0
 12 11  1  0  0  0  0
 12 18  1  0  0  0  0
 13 16  1  0  0  0  0
 14 15  1  0  0  0  0
 15 16  2  0  0  0  0
 15 19  1  0  0  0  0
 16 17  1  0  0  0  0
 17 11  2  0  0  0  0
 19 12  2  0  0  0  0
 20 29  1  6  0  0  0
 21 20  1  0  0  0  0
 23 21  1  0  0  0  0
 24 23  1  0  0  0  0
 24 22  2  0  0  0  0
 26 25  1  1  0  0  0
 26 24  1  0  0  0  0
 27 26  1  0  0  0  0
 28 27  1  0  0  0  0
 29 31  1  0  0  0  0
 31 30  1  6  0  0  0
 32 31  1  0  0  0  0
 33 36  1  0  0  0  0
 33 32  1  0  0  0  0
 34 35  1  0  0  0  0
 36 37  1  0  0  0  0
 37 34  2  0  0  0  0
 37 35  1  0  0  0  0
 38  6  1  0  0  0  0
 39 43  1  1  0  0  0
 40 39  1  0  0  0  0
 41 39  1  0  0  0  0
 42 44  1  6  0  0  0
 42 46  1  0  0  0  0
 42 45  1  0  0  0  0
 45 40  1  0  0  0  0
 46 38  1  1  0  0  0
 46 41  1  0  0  0  0
M  END
>  <MODEL>
1

>  <REMARK>
 VINA RESULT:      -6.9      0.000      0.000
  Name = 
  15 active torsions:
  status: ('A' for Active; 'I' for Inactive)
    1  A    between atoms: C_2  and  N_3
    2  A    between atoms: N_3  and  S_24
    3  A    between atoms: C_4  and  C_10
    4  A    between atoms: C_7  and  C_20
    5  A    between atoms: C_8  and  S_24
    6  A    between atoms: C_10  and  C_12
    7  A    between atoms: C_10  and  C_34
    8  A    between atoms: C_12  and  N_30
    9  A    between atoms: N_15  and  C_28
   10  A    between atoms: C_20  and  C_43
   11  A    between atoms: O_25  and  C_37
   12  A    between atoms: O_25  and  C_45
   13  A    between atoms: C_28  and  C_36
   14  A    between atoms: C_34  and  C_39
   15  A    between atoms: C_36  and  C_39
                            x       y       z     vdW  Elec       q    Type
                         _______ _______ _______ _____ _____    ______ ____

>  <TORSDO>
F 15

$$$$
=
 OpenBabel11062419473D

 46 49  0  0  1  0  0  0  0  0999 V2000
  191.4540  172.0610  144.3390 C   0  0  0  0  0  2  0  0  0  0  0  0
  192.1650  172.5890  143.0900 C   0  0  2  0  0  3  0  0  0  0  0  0
  189.4240  173.1240  143.1170 C   0  0  2  0  0  3  0  0  0  0  0  0
  189.9510  172.4160  144.3800 C   0  0  0  0  0  2  0  0  0  0  0  0
  191.3630  172.2690  141.8660 C   0  0  0  0  0  3  0  0  0  0  0  0
  190.0520  172.5190  141.8770 C   0  0  0  0  0  0  0  0  0  0  0  0
  193.4950  172.0120  142.9910 N   0  0  0  0  0  2  0  0  0  0  0  0
  194.2540  173.9960  141.4230 O   0  0  0  0  0  0  0  0  0  0  0  0
  194.6000  173.3170  142.7190 S   0  0  0  0  0  0  0  0  0  0  0  0
  196.0010  172.7790  142.6250 O   0  0  0  0  0  0  0  0  0  0  0  0
  194.5040  174.4790  144.0440 C   0  0  0  0  0  0  0  0  0  0  0  0
  195.0900  174.2220  145.3000 C   0  0  0  0  0  0  0  0  0  0  0  0
  192.9480  177.7320  144.6860 F   0  0  0  0  0  0  0  0  0  0  0  0
  194.1090  177.2250  147.1460 F   0  0  0  0  0  0  0  0  0  0  0  0
  194.2360  176.3340  146.1320 C   0  0  0  0  0  0  0  0  0  0  0  0
  193.6500  176.5910  144.8880 C   0  0  0  0  0  0  0  0  0  0  0  0
  193.7820  175.6650  143.8520 C   0  0  0  0  0  3  0  0  0  0  0  0
  195.8550  172.9720  145.5680 C   0  0  0  0  0  1  0  0  0  0  0  0
  194.9520  175.1530  146.3340 C   0  0  0  0  0  3  0  0  0  0  0  0
  189.6520  174.6460  143.2390 C   0  0  1  0  0  3  0  0  0  0  0  0
  189.4440  175.4620  141.9610 C   0  0  0  0  0  2  0  0  0  0  0  0
  188.6850  178.1820  141.6230 O   0  0  0  0  0  0  0  0  0  0  0  0
  188.0760  175.9430  141.8540 N   0  0  0  0  0  2  0  0  0  0  0  0
  187.7640  177.3280  141.7380 C   0  0  0  0  0  0  0  0  0  0  0  0
  186.2190  178.9110  142.5700 O   0  0  0  0  0  1  0  0  0  0  0  0
  186.3350  177.7580  141.7910 C   0  0  1  0  0  3  0  0  0  0  0  0
  185.7850  178.0120  140.3970 C   0  0  0  0  0  2  0  0  0  0  0  0
  184.4810  178.4950  140.4870 O   0  0  0  0  0  1  0  0  0  0  0  0
  189.0040  175.2930  144.4750 C   0  0  0  0  0  2  0  0  0  0  0  0
  189.8070  177.5250  144.7390 O   0  0  0  0  0  1  0  0  0  0  0  0
  189.9270  176.2330  145.2480 C   0  0  1  0  0  3  0  0  0  0  0  0
  189.5910  176.2320  146.7270 C   0  0  0  0  0  2  0  0  0  0  0  0
  188.1450  175.8220  146.9430 C   0  0  0  0  0  2  0  0  0  0  0  0
  185.1800  177.9430  145.7390 N   0  0  0  0  0  0  0  0  0  0  0  0
  185.4590  176.7860  145.0930 O   0  0  0  0  0  0  0  0  0  0  0  0
  187.2990  177.0010  147.0370 N   0  0  0  0  0  2  0  0  0  0  0  0
  186.2100  177.2050  146.1450 C   0  0  0  0  0  0  0  0  0  0  0  0
  189.2840  172.2010  140.7540 O   0  0  0  0  0  0  0  0  0  0  0  0
  190.2630  171.1630  137.2980 C   0  0  1  0  0  3  0  0  0  0  0  0
  189.1660  171.7910  136.6810 O   0  0  0  0  0  0  0  0  0  0  0  0
  189.9940  170.9970  138.7930 C   0  0  0  0  0  2  0  0  0  0  0  0
  188.7660  173.1800  138.5980 C   0  0  1  0  0  3  0  0  0  0  0  0
  190.4530  169.9220  136.7290 F   0  0  0  0  0  0  0  0  0  0  0  0
  188.7500  174.4970  139.0180 F   0  0  0  0  0  0  0  0  0  0  0  0
  189.1660  173.1240  137.1230 C   0  0  0  0  0  2  0  0  0  0  0  0
  189.7660  172.3680  139.4260 C   0  0  1  0  0  3  0  0  0  0  0  0
  1  4  1  0  0  0  0
  2  7  1  6  0  0  0
  2  1  1  0  0  0  0
  3 20  1  1  0  0  0
  3  4  1  0  0  0  0
  5  6  2  0  0  0  0
  5  2  1  0  0  0  0
  6  3  1  0  0  0  0
  8  9  2  0  0  0  0
  9  7  1  0  0  0  0
  9 11  1  0  0  0  0
 10  9  2  0  0  0  0
 11 12  1  0  0  0  0
 12 18  1  0  0  0  0
 12 19  2  0  0  0  0
 13 16  1  0  0  0  0
 15 19  1  0  0  0  0
 15 14  1  0  0  0  0
 16 15  2  0  0  0  0
 17 11  2  0  0  0  0
 17 16  1  0  0  0  0
 20 21  1  6  0  0  0
 20 29  1  0  0  0  0
 22 24  2  0  0  0  0
 23 21  1  0  0  0  0
 24 26  1  0  0  0  0
 24 23  1  0  0  0  0
 26 25  1  1  0  0  0
 27 28  1  0  0  0  0
 27 26  1  0  0  0  0
 29 31  1  0  0  0  0
 31 30  1  6  0  0  0
 31 32  1  0  0  0  0
 32 33  1  0  0  0  0
 33 36  1  0  0  0  0
 34 37  2  0  0  0  0
 35 34  1  0  0  0  0
 35 37  1  0  0  0  0
 37 36  1  0  0  0  0
 38  6  1  0  0  0  0
 39 43  1  6  0  0  0
 39 41  1  0  0  0  0
 40 45  1  0  0  0  0
 40 39  1  0  0  0  0
 41 46  1  0  0  0  0
 42 44  1  1  0  0  0
 42 46  1  0  0  0  0
 45 42  1  0  0  0  0
 46 38  1  1  0  0  0
M  END
>  <MODEL>
2

>  <REMARK>
 VINA RESULT:      -6.8      3.117      7.409
  Name = 
  15 active torsions:
  status: ('A' for Active; 'I' for Inactive)
    1  A    between atoms: C_2  and  N_3
    2  A    between atoms: N_3  and  S_24
    3  A    between atoms: C_4  and  C_10
    4  A    between atoms: C_7  and  C_20
    5  A    between atoms: C_8  and  S_24
    6  A    between atoms: C_10  and  C_12
    7  A    between atoms: C_10  and  C_34
    8  A    between atoms: C_12  and  N_30
    9  A    between atoms: N_15  and  C_28
   10  A    between atoms: C_20  and  C_43
   11  A    between atoms: O_25  and  C_37
   12  A    between atoms: O_25  and  C_45
   13  A    between atoms: C_28  and  C_36
   14  A    between atoms: C_34  and  C_39
   15  A    between atoms: C_36  and  C_39
                            x       y       z     vdW  Elec       q    Type
                         _______ _______ _______ _____ _____    ______ ____

>  <TORSDO>
F 15

$$$$
=
 OpenBabel11062419473D

 46 49  0  0  1  0  0  0  0  0999 V2000
  191.1110  175.4070  147.6280 C   0  0  0  0  0  2  0  0  0  0  0  0
  191.8970  175.5180  146.3180 C   0  0  2  0  0  3  0  0  0  0  0  0
  189.3030  174.5400  145.9770 C   0  0  2  0  0  3  0  0  0  0  0  0
  189.6550  174.9290  147.4260 C   0  0  0  0  0  2  0  0  0  0  0  0
  191.7010  174.2820  145.4940 C   0  0  0  0  0  3  0  0  0  0  0  0
  190.4640  173.8090  145.3330 C   0  0  0  0  0  0  0  0  0  0  0  0
  193.3070  175.7240  146.5980 N   0  0  0  0  0  2  0  0  0  0  0  0
  194.8880  177.7300  145.9300 O   0  0  0  0  0  0  0  0  0  0  0  0
  193.9390  176.7260  145.3350 S   0  0  0  0  0  0  0  0  0  0  0  0
  192.8140  177.4610  144.6640 O   0  0  0  0  0  0  0  0  0  0  0  0
  194.7890  175.7370  144.1450 C   0  0  0  0  0  0  0  0  0  0  0  0
  195.6950  174.7290  144.5290 C   0  0  0  0  0  0  0  0  0  0  0  0
  195.0710  175.5330  140.4980 F   0  0  0  0  0  0  0  0  0  0  0  0
  196.8420  173.5490  141.2610 F   0  0  0  0  0  0  0  0  0  0  0  0
  196.1700  174.2640  142.1960 C   0  0  0  0  0  0  0  0  0  0  0  0
  195.2740  175.2660  141.8110 C   0  0  0  0  0  0  0  0  0  0  0  0
  194.5900  176.0000  142.7830 C   0  0  0  0  0  3  0  0  0  0  0  0
  195.9600  174.4160  145.9620 C   0  0  0  0  0  1  0  0  0  0  0  0
  196.3780  173.9990  143.5520 C   0  0  0  0  0  3  0  0  0  0  0  0
  188.8580  175.7940  145.1950 C   0  0  1  0  0  3  0  0  0  0  0  0
  188.6430  177.0630  146.0230 C   0  0  0  0  0  2  0  0  0  0  0  0
  186.3440  176.5150  147.6040 O   0  0  0  0  0  0  0  0  0  0  0  0
  187.3210  177.6250  145.8020 N   0  0  0  0  0  2  0  0  0  0  0  0
  186.1980  177.2660  146.6020 C   0  0  0  0  0  0  0  0  0  0  0  0
  184.3100  178.5300  147.2540 O   0  0  0  0  0  1  0  0  0  0  0  0
  184.8420  177.7610  146.2170 C   0  0  1  0  0  3  0  0  0  0  0  0
  184.8990  178.5780  144.9370 C   0  0  0  0  0  2  0  0  0  0  0  0
  183.6270  179.0570  144.6290 O   0  0  0  0  0  1  0  0  0  0  0  0
  189.6450  176.0520  143.8990 C   0  0  0  0  0  2  0  0  0  0  0  0
  190.0640  177.8810  142.4240 O   0  0  0  0  0  1  0  0  0  0  0  0
  189.0410  177.1320  143.0030 C   0  0  1  0  0  3  0  0  0  0  0  0
  188.1780  176.5190  141.9160 C   0  0  0  0  0  2  0  0  0  0  0  0
  186.7140  176.8400  142.1570 C   0  0  0  0  0  2  0  0  0  0  0  0
  183.8440  178.7010  140.4110 N   0  0  0  0  0  0  0  0  0  0  0  0
  183.5660  177.9490  141.5040 O   0  0  0  0  0  0  0  0  0  0  0  0
  186.2100  177.7050  141.1020 N   0  0  0  0  0  2  0  0  0  0  0  0
  184.8310  178.0470  141.0190 C   0  0  0  0  0  0  0  0  0  0  0  0
  190.2670  172.6420  144.5910 O   0  0  0  0  0  0  0  0  0  0  0  0
  191.8010  171.2010  141.5000 C   0  0  1  0  0  3  0  0  0  0  0  0
  190.5770  170.7660  140.9640 O   0  0  0  0  0  0  0  0  0  0  0  0
  191.6450  171.4780  142.9950 C   0  0  0  0  0  2  0  0  0  0  0  0
  189.3230  172.2290  142.3960 C   0  0  1  0  0  3  0  0  0  0  0  0
  192.7510  170.2190  141.3160 F   0  0  0  0  0  0  0  0  0  0  0  0
  188.4660  173.3130  142.3820 F   0  0  0  0  0  0  0  0  0  0  0  0
  189.7210  171.8800  140.9620 C   0  0  0  0  0  2  0  0  0  0  0  0
  190.5820  172.5550  143.2060 C   0  0  1  0  0  3  0  0  0  0  0  0
  2  7  1  1  0  0  0
  2  1  1  0  0  0  0
  3 20  1  6  0  0  0
  3  4  1  0  0  0  0
  4  1  1  0  0  0  0
  5  2  1  0  0  0  0
  6  5  2  0  0  0  0
  6  3  1  0  0  0  0
  9  8  2  0  0  0  0
  9  7  1  0  0  0  0
 10  9  2  0  0  0  0
 11 12  1  0  0  0  0
 11  9  1  0  0  0  0
 12 18  1  0  0  0  0
 13 16  1  0  0  0  0
 14 15  1  0  0  0  0
 15 19  1  0  0  0  0
 16 15  2  0  0  0  0
 16 17  1  0  0  0  0
 17 11  2  0  0  0  0
 19 12  2  0  0  0  0
 20 29  1  6  0  0  0
 20 21  1  0  0  0  0
 23 21  1  0  0  0  0
 23 24  1  0  0  0  0
 24 22  2  0  0  0  0
 26 24  1  0  0  0  0
 26 25  1  1  0  0  0
 27 26  1  0  0  0  0
 28 27  1  0  0  0  0
 31 30  1  6  0  0  0
 31 29  1  0  0  0  0
 32 33  1  0  0  0  0
 32 31  1  0  0  0  0
 34 37  2  0  0  0  0
 34 35  1  0  0  0  0
 36 33  1  0  0  0  0
 37 36  1  0  0  0  0
 37 35  1  0  0  0  0
 38  6  1  0  0  0  0
 39 43  1  1  0  0  0
 39 41  1  0  0  0  0
 40 39  1  0  0  0  0
 41 46  1  0  0  0  0
 42 44  1  6  0  0  0
 42 46  1  0  0  0  0
 45 40  1  0  0  0  0
 45 42  1  0  0  0  0
 46 38  1  1  0  0  0
M  END
>  <MODEL>
3

>  <REMARK>
 VINA RESULT:      -6.8      3.026      7.550
  Name = 
  15 active torsions:
  status: ('A' for Active; 'I' for Inactive)
    1  A    between atoms: C_2  and  N_3
    2  A    between atoms: N_3  and  S_24
    3  A    between atoms: C_4  and  C_10
    4  A    between atoms: C_7  and  C_20
    5  A    between atoms: C_8  and  S_24
    6  A    between atoms: C_10  and  C_12
    7  A    between atoms: C_10  and  C_34
    8  A    between atoms: C_12  and  N_30
    9  A    between atoms: N_15  and  C_28
   10  A    between atoms: C_20  and  C_43
   11  A    between atoms: O_25  and  C_37
   12  A    between atoms: O_25  and  C_45
   13  A    between atoms: C_28  and  C_36
   14  A    between atoms: C_34  and  C_39
   15  A    between atoms: C_36  and  C_39
                            x       y       z     vdW  Elec       q    Type
                         _______ _______ _______ _____ _____    ______ ____

>  <TORSDO>
F 15

$$$$
=
 OpenBabel11062419473D

 46 49  0  0  1  0  0  0  0  0999 V2000
  192.2460  176.5110  145.7100 C   0  0  0  0  0  2  0  0  0  0  0  0
  191.3050  176.6130  144.5060 C   0  0  2  0  0  3  0  0  0  0  0  0
  193.6270  175.1540  143.9790 C   0  0  2  0  0  3  0  0  0  0  0  0
  193.4970  175.6480  145.4320 C   0  0  0  0  0  2  0  0  0  0  0  0
  192.0840  176.9340  143.2680 C   0  0  0  0  0  3  0  0  0  0  0  0
  193.1960  176.2430  143.0160 C   0  0  0  0  0  0  0  0  0  0  0  0
  190.2940  177.6290  144.7480 N   0  0  0  0  0  2  0  0  0  0  0  0
  188.8880  175.5490  143.9300 O   0  0  0  0  0  0  0  0  0  0  0  0
  188.8090  177.0440  144.0760 S   0  0  0  0  0  0  0  0  0  0  0  0
  188.5960  177.6520  142.7180 O   0  0  0  0  0  0  0  0  0  0  0  0
  187.4580  177.4680  145.1290 C   0  0  0  0  0  0  0  0  0  0  0  0
  187.2620  176.8370  146.3740 C   0  0  0  0  0  0  0  0  0  0  0  0
  184.5390  179.6790  145.0340 F   0  0  0  0  0  0  0  0  0  0  0  0
  184.1670  178.4440  147.4820 F   0  0  0  0  0  0  0  0  0  0  0  0
  185.2370  178.1300  146.7120 C   0  0  0  0  0  0  0  0  0  0  0  0
  185.4270  178.7550  145.4760 C   0  0  0  0  0  0  0  0  0  0  0  0
  186.5300  178.4210  144.6880 C   0  0  0  0  0  3  0  0  0  0  0  0
  188.2050  175.8040  146.8880 C   0  0  0  0  0  1  0  0  0  0  0  0
  186.1540  177.1740  147.1570 C   0  0  0  0  0  3  0  0  0  0  0  0
  192.8430  173.8360  143.8050 C   0  0  1  0  0  3  0  0  0  0  0  0
  192.9030  173.1950  142.4160 C   0  0  0  0  0  2  0  0  0  0  0  0
  190.5530  174.3910  141.3500 O   0  0  0  0  0  0  0  0  0  0  0  0
  191.6720  172.4880  142.1030 N   0  0  0  0  0  2  0  0  0  0  0  0
  190.5110  173.1590  141.6190 C   0  0  0  0  0  0  0  0  0  0  0  0
  188.4240  172.6120  142.5830 O   0  0  0  0  0  1  0  0  0  0  0  0
  189.2380  172.3940  141.4700 C   0  0  1  0  0  3  0  0  0  0  0  0
  188.5040  172.7920  140.2000 C   0  0  0  0  0  2  0  0  0  0  0  0
  189.0590  172.1260  139.1090 O   0  0  0  0  0  1  0  0  0  0  0  0
  193.0390  172.8200  144.9420 C   0  0  0  0  0  2  0  0  0  0  0  0
  195.3130  172.7200  145.6610 O   0  0  0  0  0  1  0  0  0  0  0  0
  194.3620  172.0600  144.8830 C   0  0  1  0  0  3  0  0  0  0  0  0
  194.1960  170.6360  145.3780 C   0  0  0  0  0  2  0  0  0  0  0  0
  195.1860  169.7150  144.6880 C   0  0  0  0  0  2  0  0  0  0  0  0
  196.9910  168.6530  147.9060 N   0  0  0  0  0  0  0  0  0  0  0  0
  195.6510  168.4730  147.8190 O   0  0  0  0  0  0  0  0  0  0  0  0
  196.3920  169.5850  145.4890 N   0  0  0  0  0  2  0  0  0  0  0  0
  196.3560  169.0240  146.7970 C   0  0  0  0  0  0  0  0  0  0  0  0
  193.9500  176.5480  141.8790 O   0  0  0  0  0  0  0  0  0  0  0  0
  196.2350  174.8160  139.4780 C   0  0  1  0  0  3  0  0  0  0  0  0
  197.2940  175.7210  139.6630 O   0  0  0  0  0  0  0  0  0  0  0  0
  194.9300  175.4310  139.9840 C   0  0  0  0  0  2  0  0  0  0  0  0
  196.3700  176.5220  141.7300 C   0  0  1  0  0  3  0  0  0  0  0  0
  196.1120  174.5310  138.1350 F   0  0  0  0  0  0  0  0  0  0  0  0
  196.6160  176.6010  143.0880 F   0  0  0  0  0  0  0  0  0  0  0  0
  197.5250  175.7900  141.0480 C   0  0  0  0  0  2  0  0  0  0  0  0
  195.0650  175.7650  141.4680 C   0  0  1  0  0  3  0  0  0  0  0  0
  2  7  1  1  0  0  0
  2  1  1  0  0  0  0
  3 20  1  1  0  0  0
  3  4  1  0  0  0  0
  4  1  1  0  0  0  0
  5  2  1  0  0  0  0
  6  5  2  0  0  0  0
  6  3  1  0  0  0  0
  8  9  2  0  0  0  0
  9  7  1  0  0  0  0
  9 11  1  0  0  0  0
 10  9  2  0  0  0  0
 11 12  1  0  0  0  0
 12 18  1  0  0  0  0
 12 19  2  0  0  0  0
 13 16  1  0  0  0  0
 15 19  1  0  0  0  0
 15 14  1  0  0  0  0
 16 15  2  0  0  0  0
 17 11  2  0  0  0  0
 17 16  1  0  0  0  0
 20 21  1  6  0  0  0
 20 29  1  0  0  0  0
 22 24  2  0  0  0  0
 23 21  1  0  0  0  0
 24 23  1  0  0  0  0
 26 24  1  0  0  0  0
 26 25  1  1  0  0  0
 27 26  1  0  0  0  0
 28 27  1  0  0  0  0
 31 29  1  0  0  0  0
 31 32  1  0  0  0  0
 31 30  1  1  0  0  0
 33 32  1  0  0  0  0
 33 36  1  0  0  0  0
 35 34  1  0  0  0  0
 36 37  1  0  0  0  0
 37 35  1  0  0  0  0
 37 34  2  0  0  0  0
 38  6  1  0  0  0  0
 39 43  1  6  0  0  0
 39 40  1  0  0  0  0
 39 41  1  0  0  0  0
 40 45  1  0  0  0  0
 41 46  1  0  0  0  0
 42 44  1  1  0  0  0
 45 42  1  0  0  0  0
 46 42  1  0  0  0  0
 46 38  1  6  0  0  0
M  END
>  <MODEL>
4

>  <REMARK>
 VINA RESULT:      -6.7      3.190      7.700
  Name = 
  15 active torsions:
  status: ('A' for Active; 'I' for Inactive)
    1  A    between atoms: C_2  and  N_3
    2  A    between atoms: N_3  and  S_24
    3  A    between atoms: C_4  and  C_10
    4  A    between atoms: C_7  and  C_20
    5  A    between atoms: C_8  and  S_24
    6  A    between atoms: C_10  and  C_12
    7  A    between atoms: C_10  and  C_34
    8  A    between atoms: C_12  and  N_30
    9  A    between atoms: N_15  and  C_28
   10  A    between atoms: C_20  and  C_43
   11  A    between atoms: O_25  and  C_37
   12  A    between atoms: O_25  and  C_45
   13  A    between atoms: C_28  and  C_36
   14  A    between atoms: C_34  and  C_39
   15  A    between atoms: C_36  and  C_39
                            x       y       z     vdW  Elec       q    Type
                         _______ _______ _______ _____ _____    ______ ____

>  <TORSDO>
F 15

$$$$
=
 OpenBabel11062419473D

 46 49  0  0  1  0  0  0  0  0999 V2000
  191.8040  176.1970  145.7440 C   0  0  0  0  0  2  0  0  0  0  0  0
  191.0400  176.5490  144.4640 C   0  0  2  0  0  3  0  0  0  0  0  0
  193.2230  174.8630  144.0260 C   0  0  2  0  0  3  0  0  0  0  0  0
  192.9700  175.2120  145.5060 C   0  0  0  0  0  2  0  0  0  0  0  0
  192.0020  176.8950  143.3690 C   0  0  0  0  0  3  0  0  0  0  0  0
  193.0480  176.0950  143.1600 C   0  0  0  0  0  0  0  0  0  0  0  0
  190.1330  177.6560  144.7130 N   0  0  0  0  0  2  0  0  0  0  0  0
  188.5980  175.7640  143.6950 O   0  0  0  0  0  0  0  0  0  0  0  0
  188.6050  177.2330  144.0150 S   0  0  0  0  0  0  0  0  0  0  0  0
  188.4000  178.0070  142.7440 O   0  0  0  0  0  0  0  0  0  0  0  0
  187.3000  177.6020  145.1450 C   0  0  0  0  0  0  0  0  0  0  0  0
  187.1880  176.9460  146.3870 C   0  0  0  0  0  0  0  0  0  0  0  0
  184.3200  179.7300  145.2410 F   0  0  0  0  0  0  0  0  0  0  0  0
  184.1120  178.4460  147.6830 F   0  0  0  0  0  0  0  0  0  0  0  0
  185.1480  178.1750  146.8530 C   0  0  0  0  0  0  0  0  0  0  0  0
  185.2550  178.8250  145.6200 C   0  0  0  0  0  0  0  0  0  0  0  0
  186.3240  178.5350  144.7700 C   0  0  0  0  0  3  0  0  0  0  0  0
  188.1840  175.9320  146.8330 C   0  0  0  0  0  1  0  0  0  0  0  0
  186.1130  177.2390  147.2330 C   0  0  0  0  0  3  0  0  0  0  0  0
  192.3180  173.6850  143.6070 C   0  0  1  0  0  3  0  0  0  0  0  0
  192.4310  173.2360  142.1480 C   0  0  0  0  0  2  0  0  0  0  0  0
  191.9140  173.6980  139.3900 O   0  0  0  0  0  0  0  0  0  0  0  0
  191.1250  173.1520  141.5150 N   0  0  0  0  0  2  0  0  0  0  0  0
  190.9280  173.4470  140.1350 C   0  0  0  0  0  0  0  0  0  0  0  0
  189.1830  172.2370  139.0970 O   0  0  0  0  0  1  0  0  0  0  0  0
  189.5370  173.4930  139.5920 C   0  0  1  0  0  3  0  0  0  0  0  0
  188.5460  173.9320  140.6580 C   0  0  0  0  0  2  0  0  0  0  0  0
  188.1740  175.2570  140.4350 O   0  0  0  0  0  1  0  0  0  0  0  0
  192.3010  172.5080  144.5960 C   0  0  0  0  0  2  0  0  0  0  0  0
  194.2680  171.5740  145.5730 O   0  0  0  0  0  1  0  0  0  0  0  0
  193.4660  171.5340  144.4330 C   0  0  1  0  0  3  0  0  0  0  0  0
  192.9680  170.1190  144.2080 C   0  0  0  0  0  2  0  0  0  0  0  0
  193.8520  169.3990  143.2050 C   0  0  0  0  0  2  0  0  0  0  0  0
  191.0390  169.7430  140.6140 N   0  0  0  0  0  0  0  0  0  0  0  0
  190.7160  169.4150  141.8890 O   0  0  0  0  0  0  0  0  0  0  0  0
  193.3900  169.6610  141.8510 N   0  0  0  0  0  2  0  0  0  0  0  0
  192.0080  169.6150  141.5170 C   0  0  0  0  0  0  0  0  0  0  0  0
  193.9700  176.4180  142.1610 O   0  0  0  0  0  0  0  0  0  0  0  0
  196.6670  174.8070  140.1340 C   0  0  1  0  0  3  0  0  0  0  0  0
  197.6750  175.6800  140.5790 O   0  0  0  0  0  0  0  0  0  0  0  0
  195.2920  175.4100  140.4190 C   0  0  0  0  0  2  0  0  0  0  0  0
  196.3730  176.3610  142.4780 C   0  0  1  0  0  3  0  0  0  0  0  0
  196.8050  174.6110  138.7760 F   0  0  0  0  0  0  0  0  0  0  0  0
  196.3530  176.3480  143.8600 F   0  0  0  0  0  0  0  0  0  0  0  0
  197.6350  175.6550  141.9830 C   0  0  0  0  0  2  0  0  0  0  0  0
  195.1400  175.6440  141.9210 C   0  0  1  0  0  3  0  0  0  0  0  0
  2  7  1  1  0  0  0
  2  1  1  0  0  0  0
  3 20  1  6  0  0  0
  3  4  1  0  0  0  0
  4  1  1  0  0  0  0
  5  2  1  0  0  0  0
  6  5  2  0  0  0  0
  6  3  1  0  0  0  0
  8  9  2  0  0  0  0
  9  7  1  0  0  0  0
  9 11  1  0  0  0  0
 10  9  2  0  0  0  0
 11 12  1  0  0  0  0
 12 18  1  0  0  0  0
 12 19  2  0  0  0  0
 13 16  1  0  0  0  0
 15 19  1  0  0  0  0
 15 14  1  0  0  0  0
 16 15  2  0  0  0  0
 17 11  2  0  0  0  0
 17 16  1  0  0  0  0
 20 21  1  6  0  0  0
 20 29  1  0  0  0  0
 22 24  2  0  0  0  0
 23 21  1  0  0  0  0
 24 23  1  0  0  0  0
 26 25  1  1  0  0  0
 26 24  1  0  0  0  0
 26 27  1  0  0  0  0
 28 27  1  0  0  0  0
 31 29  1  0  0  0  0
 31 30  1  1  0  0  0
 32 31  1  0  0  0  0
 33 32  1  0  0  0  0
 34 37  2  0  0  0  0
 34 35  1  0  0  0  0
 36 33  1  0  0  0  0
 37 36  1  0  0  0  0
 37 35  1  0  0  0  0
 38  6  1  0  0  0  0
 39 43  1  6  0  0  0
 39 41  1  0  0  0  0
 39 40  1  0  0  0  0
 40 45  1  0  0  0  0
 41 46  1  0  0  0  0
 42 44  1  1  0  0  0
 45 42  1  0  0  0  0
 46 38  1  6  0  0  0
 46 42  1  0  0  0  0
M  END
>  <MODEL>
5

>  <REMARK>
 VINA RESULT:      -6.7      2.763      7.704
  Name = 
  15 active torsions:
  status: ('A' for Active; 'I' for Inactive)
    1  A    between atoms: C_2  and  N_3
    2  A    between atoms: N_3  and  S_24
    3  A    between atoms: C_4  and  C_10
    4  A    between atoms: C_7  and  C_20
    5  A    between atoms: C_8  and  S_24
    6  A    between atoms: C_10  and  C_12
    7  A    between atoms: C_10  and  C_34
    8  A    between atoms: C_12  and  N_30
    9  A    between atoms: N_15  and  C_28
   10  A    between atoms: C_20  and  C_43
   11  A    between atoms: O_25  and  C_37
   12  A    between atoms: O_25  and  C_45
   13  A    between atoms: C_28  and  C_36
   14  A    between atoms: C_34  and  C_39
   15  A    between atoms: C_36  and  C_39
                            x       y       z     vdW  Elec       q    Type
                         _______ _______ _______ _____ _____    ______ ____

>  <TORSDO>
F 15

$$$$
=
 OpenBabel11062419473D

 46 49  0  0  1  0  0  0  0  0999 V2000
  190.6180  178.0850  144.3060 C   0  0  0  0  0  2  0  0  0  0  0  0
  190.1830  176.9410  145.2270 C   0  0  2  0  0  3  0  0  0  0  0  0
  189.3120  176.6360  142.5910 C   0  0  2  0  0  3  0  0  0  0  0  0
  190.1890  177.8780  142.8360 C   0  0  0  0  0  2  0  0  0  0  0  0
  188.7440  176.6030  144.9850 C   0  0  0  0  0  3  0  0  0  0  0  0
  188.3230  176.4620  143.7270 C   0  0  0  0  0  0  0  0  0  0  0  0
  190.3910  177.3130  146.6160 N   0  0  0  0  0  2  0  0  0  0  0  0
  189.9190  174.9230  147.6350 O   0  0  0  0  0  0  0  0  0  0  0  0
  191.0250  175.9210  147.4290 S   0  0  0  0  0  0  0  0  0  0  0  0
  191.5690  176.3250  148.7700 O   0  0  0  0  0  0  0  0  0  0  0  0
  192.3140  175.1920  146.4680 C   0  0  0  0  0  0  0  0  0  0  0  0
  193.5490  175.8410  146.2700 C   0  0  0  0  0  0  0  0  0  0  0  0
  192.8140  172.1750  144.4530 F   0  0  0  0  0  0  0  0  0  0  0  0
  195.2400  173.4500  144.0760 F   0  0  0  0  0  0  0  0  0  0  0  0
  194.2840  174.0130  144.8550 C   0  0  0  0  0  0  0  0  0  0  0  0
  193.0580  173.3680  145.0460 C   0  0  0  0  0  0  0  0  0  0  0  0
  192.0780  173.9580  145.8460 C   0  0  0  0  0  3  0  0  0  0  0  0
  193.8500  177.1620  146.8900 C   0  0  0  0  0  1  0  0  0  0  0  0
  194.5250  175.2460  145.4660 C   0  0  0  0  0  3  0  0  0  0  0  0
  190.2090  175.4010  142.3640 C   0  0  1  0  0  3  0  0  0  0  0  0
  191.7120  175.6170  142.5520 C   0  0  0  0  0  2  0  0  0  0  0  0
  194.4670  176.0470  141.9910 O   0  0  0  0  0  0  0  0  0  0  0  0
  192.4810  174.9100  141.5410 N   0  0  0  0  0  2  0  0  0  0  0  0
  193.8490  175.2130  141.2760 C   0  0  0  0  0  0  0  0  0  0  0  0
  194.1730  175.2070  138.9350 O   0  0  0  0  0  1  0  0  0  0  0  0
  194.5270  174.5570  140.1190 C   0  0  1  0  0  3  0  0  0  0  0  0
  196.0380  174.5700  140.2890 C   0  0  0  0  0  2  0  0  0  0  0  0
  196.6140  175.3730  139.3060 O   0  0  0  0  0  1  0  0  0  0  0  0
  189.7020  174.1110  143.0300 C   0  0  0  0  0  2  0  0  0  0  0  0
  189.3500  171.7680  142.7430 O   0  0  0  0  0  1  0  0  0  0  0  0
  189.3960  172.9780  142.0520 C   0  0  1  0  0  3  0  0  0  0  0  0
  188.0770  173.2120  141.3410 C   0  0  0  0  0  2  0  0  0  0  0  0
  188.1650  172.7540  139.8960 C   0  0  0  0  0  2  0  0  0  0  0  0
  191.3120  173.7700  137.9460 N   0  0  0  0  0  0  0  0  0  0  0  0
  191.2710  172.5470  138.5280 O   0  0  0  0  0  0  0  0  0  0  0  0
  188.9230  173.7140  139.1110 N   0  0  0  0  0  2  0  0  0  0  0  0
  190.2280  173.4120  138.6300 C   0  0  0  0  0  0  0  0  0  0  0  0
  186.9780  176.1730  143.4830 O   0  0  0  0  0  0  0  0  0  0  0  0
  184.5530  178.2100  145.4720 C   0  0  1  0  0  3  0  0  0  0  0  0
  185.2350  179.4220  145.2660 O   0  0  0  0  0  0  0  0  0  0  0  0
  185.4770  177.0330  145.1590 C   0  0  0  0  0  2  0  0  0  0  0  0
  186.4360  178.5340  143.3860 C   0  0  1  0  0  3  0  0  0  0  0  0
  184.1500  178.1340  146.7880 F   0  0  0  0  0  0  0  0  0  0  0  0
  186.6140  178.6860  142.0240 F   0  0  0  0  0  0  0  0  0  0  0  0
  185.4090  179.5540  143.8780 C   0  0  0  0  0  2  0  0  0  0  0  0
  185.9400  177.1210  143.7060 C   0  0  1  0  0  3  0  0  0  0  0  0
  1  2  1  0  0  0  0
  2  7  1  1  0  0  0
  3 20  1  1  0  0  0
  3  4  1  0  0  0  0
  3  6  1  0  0  0  0
  4  1  1  0  0  0  0
  5  2  1  0  0  0  0
  6  5  2  0  0  0  0
  7  9  1  0  0  0  0
  9  8  2  0  0  0  0
  9 10  2  0  0  0  0
 11  9  1  0  0  0  0
 12 11  1  0  0  0  0
 12 18  1  0  0  0  0
 13 16  1  0  0  0  0
 14 15  1  0  0  0  0
 15 16  2  0  0  0  0
 15 19  1  0  0  0  0
 16 17  1  0  0  0  0
 17 11  2  0  0  0  0
 19 12  2  0  0  0  0
 20 21  1  1  0  0  0
 20 29  1  0  0  0  0
 23 21  1  0  0  0  0
 24 23  1  0  0  0  0
 24 22  2  0  0  0  0
 26 25  1  6  0  0  0
 26 27  1  0  0  0  0
 26 24  1  0  0  0  0
 28 27  1  0  0  0  0
 31 30  1  1  0  0  0
 31 29  1  0  0  0  0
 32 31  1  0  0  0  0
 33 32  1  0  0  0  0
 34 35  1  0  0  0  0
 34 37  2  0  0  0  0
 35 37  1  0  0  0  0
 36 33  1  0  0  0  0
 37 36  1  0  0  0  0
 38  6  1  0  0  0  0
 39 43  1  1  0  0  0
 40 39  1  0  0  0  0
 41 39  1  0  0  0  0
 42 44  1  6  0  0  0
 42 46  1  0  0  0  0
 42 45  1  0  0  0  0
 45 40  1  0  0  0  0
 46 38  1  1  0  0  0
 46 41  1  0  0  0  0
M  END
>  <MODEL>
6

>  <REMARK>
 VINA RESULT:      -6.7      1.451      3.693
  Name = 
  15 active torsions:
  status: ('A' for Active; 'I' for Inactive)
    1  A    between atoms: C_2  and  N_3
    2  A    between atoms: N_3  and  S_24
    3  A    between atoms: C_4  and  C_10
    4  A    between atoms: C_7  and  C_20
    5  A    between atoms: C_8  and  S_24
    6  A    between atoms: C_10  and  C_12
    7  A    between atoms: C_10  and  C_34
    8  A    between atoms: C_12  and  N_30
    9  A    between atoms: N_15  and  C_28
   10  A    between atoms: C_20  and  C_43
   11  A    between atoms: O_25  and  C_37
   12  A    between atoms: O_25  and  C_45
   13  A    between atoms: C_28  and  C_36
   14  A    between atoms: C_34  and  C_39
   15  A    between atoms: C_36  and  C_39
                            x       y       z     vdW  Elec       q    Type
                         _______ _______ _______ _____ _____    ______ ____

>  <TORSDO>
F 15

$$$$
=
 OpenBabel11062419473D

 46 49  0  0  1  0  0  0  0  0999 V2000
  194.1490  172.4470  143.1620 C   0  0  0  0  0  2  0  0  0  0  0  0
  194.2280  173.6300  142.1920 C   0  0  2  0  0  3  0  0  0  0  0  0
  191.7240  172.3930  142.2330 C   0  0  2  0  0  3  0  0  0  0  0  0
  192.7440  171.8070  143.2290 C   0  0  0  0  0  2  0  0  0  0  0  0
  193.5870  173.2700  140.8870 C   0  0  0  0  0  3  0  0  0  0  0  0
  192.3940  172.6750  140.9030 C   0  0  0  0  0  0  0  0  0  0  0  0
  195.6130  174.0170  141.9890 N   0  0  0  0  0  2  0  0  0  0  0  0
  195.3380  176.5900  141.4620 O   0  0  0  0  0  0  0  0  0  0  0  0
  195.7760  175.6480  142.5490 S   0  0  0  0  0  0  0  0  0  0  0  0
  197.2160  175.9250  142.8800 O   0  0  0  0  0  0  0  0  0  0  0  0
  194.7840  175.8970  143.9880 C   0  0  0  0  0  0  0  0  0  0  0  0
  195.1310  175.3390  145.2340 C   0  0  0  0  0  0  0  0  0  0  0  0
  191.6150  177.5240  144.8440 F   0  0  0  0  0  0  0  0  0  0  0  0
  192.3090  176.4320  147.2910 F   0  0  0  0  0  0  0  0  0  0  0  0
  193.1120  176.2610  146.2120 C   0  0  0  0  0  0  0  0  0  0  0  0
  192.7620  176.8140  144.9760 C   0  0  0  0  0  0  0  0  0  0  0  0
  193.5940  176.6280  143.8700 C   0  0  0  0  0  3  0  0  0  0  0  0
  196.3740  174.5380  145.4160 C   0  0  0  0  0  1  0  0  0  0  0  0
  194.2930  175.5270  146.3370 C   0  0  0  0  0  3  0  0  0  0  0  0
  191.0440  173.6320  142.8520 C   0  0  1  0  0  3  0  0  0  0  0  0
  189.6950  174.0320  142.2490 C   0  0  0  0  0  2  0  0  0  0  0  0
  187.1270  175.2350  142.4590 O   0  0  0  0  0  0  0  0  0  0  0  0
  189.4480  175.4560  142.3960 N   0  0  0  0  0  2  0  0  0  0  0  0
  188.1310  175.9990  142.4440 C   0  0  0  0  0  0  0  0  0  0  0  0
  189.1390  178.0950  142.0290 O   0  0  0  0  0  1  0  0  0  0  0  0
  187.9540  177.4810  142.4370 C   0  0  1  0  0  3  0  0  0  0  0  0
  186.8110  177.8940  141.5240 C   0  0  0  0  0  2  0  0  0  0  0  0
  185.7720  178.4280  142.2840 O   0  0  0  0  0  1  0  0  0  0  0  0
  191.0440  173.6610  144.3900 C   0  0  0  0  0  2  0  0  0  0  0  0
  189.4890  172.0940  145.2950 O   0  0  0  0  0  1  0  0  0  0  0  0
  189.6700  173.4490  145.0220 C   0  0  1  0  0  3  0  0  0  0  0  0
  189.5280  174.2520  146.3000 C   0  0  0  0  0  2  0  0  0  0  0  0
  189.1190  175.6800  145.9860 C   0  0  0  0  0  2  0  0  0  0  0  0
  185.5780  177.0070  146.6510 N   0  0  0  0  0  0  0  0  0  0  0  0
  185.9720  176.8130  145.3690 O   0  0  0  0  0  0  0  0  0  0  0  0
  188.0690  176.1130  146.8950 N   0  0  0  0  0  2  0  0  0  0  0  0
  186.8050  176.5540  146.4110 C   0  0  0  0  0  0  0  0  0  0  0  0
  191.7950  172.3070  139.6950 O   0  0  0  0  0  0  0  0  0  0  0  0
  190.7180  174.3890  136.7810 C   0  0  1  0  0  3  0  0  0  0  0  0
  189.6620  173.5340  136.4220 O   0  0  0  0  0  0  0  0  0  0  0  0
  191.6930  173.6530  137.7010 C   0  0  0  0  0  2  0  0  0  0  0  0
  189.6480  172.4900  138.5840 C   0  0  1  0  0  3  0  0  0  0  0  0
  191.3830  174.7920  135.6430 F   0  0  0  0  0  0  0  0  0  0  0  0
  188.8670  172.2980  139.7080 F   0  0  0  0  0  0  0  0  0  0  0  0
  188.8830  173.3490  137.5770 C   0  0  0  0  0  2  0  0  0  0  0  0
  190.9580  173.1900  138.9570 C   0  0  1  0  0  3  0  0  0  0  0  0
  1  4  1  0  0  0  0
  2  7  1  6  0  0  0
  2  1  1  0  0  0  0
  3 20  1  1  0  0  0
  3  4  1  0  0  0  0
  5  6  2  0  0  0  0
  5  2  1  0  0  0  0
  6  3  1  0  0  0  0
  7  9  1  0  0  0  0
  8  9  2  0  0  0  0
  9 10  2  0  0  0  0
  9 11  1  0  0  0  0
 11 12  1  0  0  0  0
 12 18  1  0  0  0  0
 12 19  2  0  0  0  0
 13 16  1  0  0  0  0
 15 19  1  0  0  0  0
 15 14  1  0  0  0  0
 16 15  2  0  0  0  0
 17 11  2  0  0  0  0
 17 16  1  0  0  0  0
 20 21  1  1  0  0  0
 20 29  1  0  0  0  0
 21 23  1  0  0  0  0
 23 24  1  0  0  0  0
 24 22  2  0  0  0  0
 26 25  1  6  0  0  0
 26 24  1  0  0  0  0
 27 28  1  0  0  0  0
 27 26  1  0  0  0  0
 29 31  1  0  0  0  0
 31 30  1  1  0  0  0
 31 32  1  0  0  0  0
 33 32  1  0  0  0  0
 33 36  1  0  0  0  0
 35 37  1  0  0  0  0
 35 34  1  0  0  0  0
 37 34  2  0  0  0  0
 37 36  1  0  0  0  0
 38  6  1  0  0  0  0
 39 43  1  6  0  0  0
 39 41  1  0  0  0  0
 40 39  1  0  0  0  0
 40 45  1  0  0  0  0
 41 46  1  0  0  0  0
 42 46  1  0  0  0  0
 42 44  1  1  0  0  0
 45 42  1  0  0  0  0
 46 38  1  6  0  0  0
M  END
>  <MODEL>
7

>  <REMARK>
 VINA RESULT:      -6.6      3.108      7.324
  Name = 
  15 active torsions:
  status: ('A' for Active; 'I' for Inactive)
    1  A    between atoms: C_2  and  N_3
    2  A    between atoms: N_3  and  S_24
    3  A    between atoms: C_4  and  C_10
    4  A    between atoms: C_7  and  C_20
    5  A    between atoms: C_8  and  S_24
    6  A    between atoms: C_10  and  C_12
    7  A    between atoms: C_10  and  C_34
    8  A    between atoms: C_12  and  N_30
    9  A    between atoms: N_15  and  C_28
   10  A    between atoms: C_20  and  C_43
   11  A    between atoms: O_25  and  C_37
   12  A    between atoms: O_25  and  C_45
   13  A    between atoms: C_28  and  C_36
   14  A    between atoms: C_34  and  C_39
   15  A    between atoms: C_36  and  C_39
                            x       y       z     vdW  Elec       q    Type
                         _______ _______ _______ _____ _____    ______ ____

>  <TORSDO>
F 15

$$$$
=
 OpenBabel11062419473D

 46 49  0  0  1  0  0  0  0  0999 V2000
  191.3030  177.5010  143.9980 C   0  0  0  0  0  2  0  0  0  0  0  0
  190.5620  176.4410  143.1770 C   0  0  2  0  0  3  0  0  0  0  0  0
  192.9010  175.4870  144.3680 C   0  0  2  0  0  3  0  0  0  0  0  0
  192.5600  176.9510  144.7080 C   0  0  0  0  0  2  0  0  0  0  0  0
  191.5310  175.6720  142.3330 C   0  0  0  0  0  3  0  0  0  0  0  0
  192.6520  175.2200  142.8970 C   0  0  0  0  0  0  0  0  0  0  0  0
  189.5510  177.0710  142.3450 N   0  0  0  0  0  2  0  0  0  0  0  0
  188.3700  174.9080  143.2930 O   0  0  0  0  0  0  0  0  0  0  0  0
  188.2140  175.9750  142.2440 S   0  0  0  0  0  0  0  0  0  0  0  0
  188.1970  175.3230  140.8900 O   0  0  0  0  0  0  0  0  0  0  0  0
  186.6980  176.8420  142.4990 C   0  0  0  0  0  0  0  0  0  0  0  0
  186.0580  177.5390  141.4540 C   0  0  0  0  0  0  0  0  0  0  0  0
  184.4520  177.6100  145.2880 F   0  0  0  0  0  0  0  0  0  0  0  0
  183.1950  178.9670  143.2300 F   0  0  0  0  0  0  0  0  0  0  0  0
  184.3360  178.2730  142.9970 C   0  0  0  0  0  0  0  0  0  0  0  0
  184.9700  177.5850  144.0370 C   0  0  0  0  0  0  0  0  0  0  0  0
  186.1480  176.8770  143.7870 C   0  0  0  0  0  3  0  0  0  0  0  0
  186.6060  177.5520  140.0690 C   0  0  0  0  0  1  0  0  0  0  0  0
  184.8810  178.2480  141.7110 C   0  0  0  0  0  3  0  0  0  0  0  0
  192.1210  174.5400  145.3040 C   0  0  1  0  0  3  0  0  0  0  0  0
  192.3060  173.0420  145.0520 C   0  0  0  0  0  2  0  0  0  0  0  0
  192.6500  171.3230  142.8130 O   0  0  0  0  0  0  0  0  0  0  0  0
  191.2300  172.5030  144.2360 N   0  0  0  0  0  2  0  0  0  0  0  0
  191.4760  171.6880  143.0940 C   0  0  0  0  0  0  0  0  0  0  0  0
  189.8690  172.4250  141.5260 O   0  0  0  0  0  1  0  0  0  0  0  0
  190.3330  171.3030  142.2140 C   0  0  1  0  0  3  0  0  0  0  0  0
  190.7380  170.2180  141.2300 C   0  0  0  0  0  2  0  0  0  0  0  0
  190.8010  168.9890  141.8860 O   0  0  0  0  0  1  0  0  0  0  0  0
  192.1960  174.9100  146.7950 C   0  0  0  0  0  2  0  0  0  0  0  0
  190.9460  176.6840  147.7880 O   0  0  0  0  0  1  0  0  0  0  0  0
  190.8640  175.3470  147.4010 C   0  0  1  0  0  3  0  0  0  0  0  0
  189.7290  175.1700  146.4090 C   0  0  0  0  0  2  0  0  0  0  0  0
  188.4160  175.6250  147.0190 C   0  0  0  0  0  2  0  0  0  0  0  0
  186.3830  178.8570  147.4260 N   0  0  0  0  0  0  0  0  0  0  0  0
  185.9240  177.7200  148.0030 O   0  0  0  0  0  0  0  0  0  0  0  0
  188.2080  177.0420  146.7640 N   0  0  0  0  0  2  0  0  0  0  0  0
  187.0770  177.7300  147.2840 C   0  0  0  0  0  0  0  0  0  0  0  0
  193.5800  174.5240  142.1170 O   0  0  0  0  0  0  0  0  0  0  0  0
  196.7560  176.2260  143.1180 C   0  0  1  0  0  3  0  0  0  0  0  0
  197.0070  175.3610  144.1970 O   0  0  0  0  0  0  0  0  0  0  0  0
  195.2910  176.1170  142.6940 C   0  0  0  0  0  2  0  0  0  0  0  0
  195.5070  173.6960  143.3320 C   0  0  1  0  0  3  0  0  0  0  0  0
  197.0230  177.5210  143.5040 F   0  0  0  0  0  0  0  0  0  0  0  0
  195.4610  172.4030  142.8480 F   0  0  0  0  0  0  0  0  0  0  0  0
  196.9520  174.0530  143.6850 C   0  0  0  0  0  2  0  0  0  0  0  0
  194.9850  174.6790  142.2800 C   0  0  1  0  0  3  0  0  0  0  0  0
  1  4  1  0  0  0  0
  2  7  1  6  0  0  0
  2  1  1  0  0  0  0
  3  4  1  0  0  0  0
  3 20  1  1  0  0  0
  5  6  2  0  0  0  0
  5  2  1  0  0  0  0
  6  3  1  0  0  0  0
  9  7  1  0  0  0  0
  9 11  1  0  0  0  0
  9  8  2  0  0  0  0
 10  9  2  0  0  0  0
 11 17  1  0  0  0  0
 12 19  1  0  0  0  0
 12 11  2  0  0  0  0
 15 14  1  0  0  0  0
 15 16  1  0  0  0  0
 16 13  1  0  0  0  0
 17 16  2  0  0  0  0
 18 12  1  0  0  0  0
 19 15  2  0  0  0  0
 20 21  1  1  0  0  0
 20 29  1  0  0  0  0
 22 24  2  0  0  0  0
 23 21  1  0  0  0  0
 24 23  1  0  0  0  0
 26 25  1  6  0  0  0
 26 24  1  0  0  0  0
 27 28  1  0  0  0  0
 27 26  1  0  0  0  0
 29 31  1  0  0  0  0
 31 30  1  6  0  0  0
 32 33  1  0  0  0  0
 32 31  1  0  0  0  0
 34 35  1  0  0  0  0
 36 33  1  0  0  0  0
 36 37  1  0  0  0  0
 37 34  2  0  0  0  0
 37 35  1  0  0  0  0
 38  6  1  0  0  0  0
 39 43  1  1  0  0  0
 39 40  1  0  0  0  0
 41 39  1  0  0  0  0
 42 44  1  6  0  0  0
 42 45  1  0  0  0  0
 45 40  1  0  0  0  0
 46 38  1  1  0  0  0
 46 41  1  0  0  0  0
 46 42  1  0  0  0  0
M  END
>  <MODEL>
8

>  <REMARK>
 VINA RESULT:      -6.6      2.665      8.222
  Name = 
  15 active torsions:
  status: ('A' for Active; 'I' for Inactive)
    1  A    between atoms: C_2  and  N_3
    2  A    between atoms: N_3  and  S_24
    3  A    between atoms: C_4  and  C_10
    4  A    between atoms: C_7  and  C_20
    5  A    between atoms: C_8  and  S_24
    6  A    between atoms: C_10  and  C_12
    7  A    between atoms: C_10  and  C_34
    8  A    between atoms: C_12  and  N_30
    9  A    between atoms: N_15  and  C_28
   10  A    between atoms: C_20  and  C_43
   11  A    between atoms: O_25  and  C_37
   12  A    between atoms: O_25  and  C_45
   13  A    between atoms: C_28  and  C_36
   14  A    between atoms: C_34  and  C_39
   15  A    between atoms: C_36  and  C_39
                            x       y       z     vdW  Elec       q    Type
                         _______ _______ _______ _____ _____    ______ ____

>  <TORSDO>
F 15

$$$$
=
 OpenBabel11062419473D

 46 49  0  0  1  0  0  0  0  0999 V2000
  191.3040  177.6650  143.9270 C   0  0  0  0  0  2  0  0  0  0  0  0
  190.6450  176.5130  143.1630 C   0  0  2  0  0  3  0  0  0  0  0  0
  193.0050  175.7760  144.4620 C   0  0  2  0  0  3  0  0  0  0  0  0
  192.5740  177.2360  144.6970 C   0  0  0  0  0  2  0  0  0  0  0  0
  191.6770  175.7490  142.3910 C   0  0  0  0  0  3  0  0  0  0  0  0
  192.8070  175.4000  143.0070 C   0  0  0  0  0  0  0  0  0  0  0  0
  189.6210  177.0280  142.2700 N   0  0  0  0  0  2  0  0  0  0  0  0
  188.4890  174.9650  143.4680 O   0  0  0  0  0  0  0  0  0  0  0  0
  188.2920  175.9190  142.3220 S   0  0  0  0  0  0  0  0  0  0  0  0
  188.2390  175.1350  141.0410 O   0  0  0  0  0  0  0  0  0  0  0  0
  186.7760  176.7990  142.5350 C   0  0  0  0  0  0  0  0  0  0  0  0
  186.1790  177.5140  141.4770 C   0  0  0  0  0  0  0  0  0  0  0  0
  184.4420  177.5570  145.2550 F   0  0  0  0  0  0  0  0  0  0  0  0
  183.2710  178.9500  143.1710 F   0  0  0  0  0  0  0  0  0  0  0  0
  184.4120  178.2470  142.9690 C   0  0  0  0  0  0  0  0  0  0  0  0
  185.0030  177.5420  144.0210 C   0  0  0  0  0  0  0  0  0  0  0  0
  186.1820  176.8250  143.8040 C   0  0  0  0  0  3  0  0  0  0  0  0
  186.7740  177.5370  140.1110 C   0  0  0  0  0  1  0  0  0  0  0  0
  185.0000  178.2310  141.7020 C   0  0  0  0  0  3  0  0  0  0  0  0
  192.2570  174.8480  145.4420 C   0  0  1  0  0  3  0  0  0  0  0  0
  192.4700  173.3450  145.2420 C   0  0  0  0  0  2  0  0  0  0  0  0
  194.1340  171.7270  143.5990 O   0  0  0  0  0  0  0  0  0  0  0  0
  193.8340  172.9540  145.5590 N   0  0  0  0  0  2  0  0  0  0  0  0
  194.5960  172.0960  144.7130 C   0  0  0  0  0  0  0  0  0  0  0  0
  196.4390  172.4880  146.1390 O   0  0  0  0  0  1  0  0  0  0  0  0
  195.9280  171.6120  145.1800 C   0  0  1  0  0  3  0  0  0  0  0  0
  195.8320  170.2070  145.7530 C   0  0  0  0  0  2  0  0  0  0  0  0
  196.7810  170.0460  146.7610 O   0  0  0  0  0  1  0  0  0  0  0  0
  192.3430  175.2730  146.9180 C   0  0  0  0  0  2  0  0  0  0  0  0
  190.9510  176.6770  148.2540 O   0  0  0  0  0  1  0  0  0  0  0  0
  190.9880  175.4460  147.6010 C   0  0  1  0  0  3  0  0  0  0  0  0
  189.8560  175.3670  146.5940 C   0  0  0  0  0  2  0  0  0  0  0  0
  189.0700  176.6660  146.5770 C   0  0  0  0  0  2  0  0  0  0  0  0
  185.7040  177.8260  148.0120 N   0  0  0  0  0  0  0  0  0  0  0  0
  186.7390  178.7000  147.9890 O   0  0  0  0  0  0  0  0  0  0  0  0
  187.6830  176.4170  146.9340 N   0  0  0  0  0  2  0  0  0  0  0  0
  186.8760  177.4310  147.5230 C   0  0  0  0  0  0  0  0  0  0  0  0
  193.7920  174.7110  142.2940 O   0  0  0  0  0  0  0  0  0  0  0  0
  196.9310  176.7300  142.5160 C   0  0  1  0  0  3  0  0  0  0  0  0
  197.7830  175.6260  142.3420 O   0  0  0  0  0  0  0  0  0  0  0  0
  195.5340  176.2520  142.9140 C   0  0  0  0  0  2  0  0  0  0  0  0
  196.0140  174.2880  141.4220 C   0  0  1  0  0  3  0  0  0  0  0  0
  197.4350  177.5400  143.5110 F   0  0  0  0  0  0  0  0  0  0  0  0
  195.6150  173.6310  140.2730 F   0  0  0  0  0  0  0  0  0  0  0  0
  197.3590  174.9710  141.1740 C   0  0  0  0  0  2  0  0  0  0  0  0
  194.9770  175.3410  141.8220 C   0  0  1  0  0  3  0  0  0  0  0  0
  1  4  1  0  0  0  0
  2  7  1  6  0  0  0
  2  1  1  0  0  0  0
  3  4  1  0  0  0  0
  3 20  1  1  0  0  0
  5  6  2  0  0  0  0
  5  2  1  0  0  0  0
  6  3  1  0  0  0  0
  7  9  1  0  0  0  0
  9 11  1  0  0  0  0
  9  8  2  0  0  0  0
 10  9  2  0  0  0  0
 11 17  1  0  0  0  0
 12 19  1  0  0  0  0
 12 11  2  0  0  0  0
 15 14  1  0  0  0  0
 15 16  1  0  0  0  0
 16 13  1  0  0  0  0
 17 16  2  0  0  0  0
 18 12  1  0  0  0  0
 19 15  2  0  0  0  0
 20 21  1  1  0  0  0
 20 29  1  0  0  0  0
 21 23  1  0  0  0  0
 22 24  2  0  0  0  0
 24 26  1  0  0  0  0
 24 23  1  0  0  0  0
 26 27  1  0  0  0  0
 26 25  1  1  0  0  0
 27 28  1  0  0  0  0
 29 31  1  0  0  0  0
 31 30  1  6  0  0  0
 32 31  1  0  0  0  0
 33 32  1  0  0  0  0
 33 36  1  0  0  0  0
 35 34  1  0  0  0  0
 36 37  1  0  0  0  0
 37 35  1  0  0  0  0
 37 34  2  0  0  0  0
 38  6  1  0  0  0  0
 39 41  1  0  0  0  0
 39 43  1  1  0  0  0
 40 39  1  0  0  0  0
 42 44  1  6  0  0  0
 42 46  1  0  0  0  0
 45 42  1  0  0  0  0
 45 40  1  0  0  0  0
 46 38  1  1  0  0  0
 46 41  1  0  0  0  0
M  END
>  <MODEL>
9

>  <REMARK>
 VINA RESULT:      -6.6      3.118      8.806
  Name = 
  15 active torsions:
  status: ('A' for Active; 'I' for Inactive)
    1  A    between atoms: C_2  and  N_3
    2  A    between atoms: N_3  and  S_24
    3  A    between atoms: C_4  and  C_10
    4  A    between atoms: C_7  and  C_20
    5  A    between atoms: C_8  and  S_24
    6  A    between atoms: C_10  and  C_12
    7  A    between atoms: C_10  and  C_34
    8  A    between atoms: C_12  and  N_30
    9  A    between atoms: N_15  and  C_28
   10  A    between atoms: C_20  and  C_43
   11  A    between atoms: O_25  and  C_37
   12  A    between atoms: O_25  and  C_45
   13  A    between atoms: C_28  and  C_36
   14  A    between atoms: C_34  and  C_39
   15  A    between atoms: C_36  and  C_39
                            x       y       z     vdW  Elec       q    Type
                         _______ _______ _______ _____ _____    ______ ____

>  <TORSDO>
F 15

$$$$
