=
 OpenBabel11062423073D

 57 64  0  0  1  0  0  0  0  0999 V2000
  193.5900  172.3380  143.0440 O   0  0  0  0  0  0  0  0  0  0  0  0
  194.4350  175.5650  145.2090 C   0  0  0  0  0  0  0  0  0  0  0  0
  189.4590  176.6910  144.6040 C   0  0  2  0  0  3  0  0  0  0  0  0
  196.6010  175.2760  142.6690 C   0  0  0  0  0  3  0  0  0  0  0  0
  193.1830  172.8090  140.7940 N   0  0  0  0  0  2  0  0  0  0  0  0
  193.7990  175.3830  146.4430 C   0  0  0  0  0  3  0  0  0  0  0  0
  189.2350  175.8490  145.8090 N   0  0  1  0  0  0  0  0  0  0  0  0
  189.0870  173.5480  142.0200 C   0  0  0  0  0  0  0  0  0  0  0  0
  196.5880  175.7350  143.9260 C   0  0  0  0  0  3  0  0  0  0  0  0
  195.8940  173.8270  140.7540 C   0  0  1  0  0  3  0  0  0  0  0  0
  195.8380  175.0530  145.0380 C   0  0  0  0  0  2  0  0  0  0  0  0
  189.9060  173.9610  144.2630 C   0  0  0  0  0  0  0  0  0  0  0  0
  190.1150  177.9500  146.5920 O   0  0  0  0  0  1  0  0  0  0  0  0
  195.2700  171.1870  140.8870 O   0  0  0  0  0  0  0  0  0  0  0  0
  191.7710  176.3920  145.5730 C   0  0  0  0  0  0  0  0  0  0  0  0
  192.7760  172.7310  142.1630 C   0  0  0  0  0  0  0  0  0  0  0  0
  194.8170  172.3470  138.7830 O   0  0  0  0  0  0  0  0  0  0  0  0
  191.1760  173.5380  143.8720 C   0  0  0  0  0  3  0  0  0  0  0  0
  194.8060  172.4810  140.2800 S   0  0  0  0  0  0  0  0  0  0  0  0
  189.7190  174.4570  145.6690 C   0  0  0  0  0  2  0  0  0  0  0  0
  192.4100  176.5830  144.3400 C   0  0  0  0  0  3  0  0  0  0  0  0
  191.4200  173.1360  142.5560 C   0  0  0  0  0  0  0  0  0  0  0  0
  190.3720  173.1530  141.6260 C   0  0  0  0  0  3  0  0  0  0  0  0
  188.8530  173.9460  143.3410 C   0  0  0  0  0  3  0  0  0  0  0  0
  195.9020  174.0120  142.2690 C   0  0  0  0  0  2  0  0  0  0  0  0
  190.3420  176.8440  145.7660 C   0  0  2  0  0  0  0  0  0  0  0  0
  192.4760  175.8000  146.6290 C   0  0  0  0  0  3  0  0  0  0  0  0
  193.7270  176.1600  144.1550 C   0  0  0  0  0  3  0  0  0  0  0  0
  188.3550  177.7370  144.5190 C   0  0  0  0  0  2  0  0  0  0  0  0
  186.4740  177.6190  140.3780 C   0  0  0  0  0  2  0  0  0  0  0  0
  187.4330  177.3050  141.5390 C   0  0  0  0  0  2  0  0  0  0  0  0
  186.5220  177.1160  142.7140 C   0  0  2  0  0  3  0  0  0  0  0  0
  184.8090  178.0750  141.0410 S   0  0  0  0  0  0  0  0  0  0  0  0
  186.1670  176.3280  145.1360 C   0  0  0  0  0  2  0  0  0  0  0  0
  185.8900  177.8050  144.9380 C   0  0  2  0  0  3  0  0  0  0  0  0
  185.5920  178.2520  142.6470 C   0  0  1  0  0  3  0  0  0  0  0  0
  184.7900  178.0810  143.9050 C   0  0  0  0  0  2  0  0  0  0  0  0
  187.0120  177.1120  144.1450 C   0  0  1  0  0  0  0  0  0  0  0  0
  197.2990  173.6620  140.1570 C   0  0  0  0  0  2  0  0  0  0  0  0
  197.5150  174.4520  138.9020 C   0  0  0  0  0  3  0  0  0  0  0  0
  197.7120  173.8570  137.7840 N   0  0  0  0  0  0  0  0  0  0  0  0
  197.9040  174.6230  136.5860 C   0  0  0  0  0  2  0  0  0  0  0  0
  196.8630  175.7220  136.5210 C   0  0  0  0  0  2  0  0  0  0  0  0
  195.7040  175.2980  135.6350 C   0  0  2  0  0  3  0  0  0  0  0  0
  195.4270  176.3420  134.6600 N   0  0  0  0  0  2  0  0  0  0  0  0
  196.0310  178.6770  134.5140 C   0  0  0  0  0  2  0  0  0  0  0  0
  194.5260  178.5850  134.6300 C   0  0  0  0  0  2  0  0  0  0  0  0
  195.4050  177.6040  135.3780 C   0  0  0  0  0  3  0  0  0  0  0  0
  194.4760  175.0670  136.5040 C   0  0  0  0  0  2  0  0  0  0  0  0
  192.1380  175.5770  135.8900 C   0  0  0  0  0  1  0  0  0  0  0  0
  193.2890  174.6140  135.6700 C   0  0  2  0  0  3  0  0  0  0  0  0
  192.8720  173.2060  136.0750 C   0  0  0  0  0  2  0  0  0  0  0  0
  191.9770  172.5720  135.0230 C   0  0  0  0  0  2  0  0  0  0  0  0
  191.5690  171.1740  135.4470 C   0  0  0  0  0  1  0  0  0  0  0  0
  187.9690  173.5380  141.0370 C   0  0  0  0  0  2  0  0  0  0  0  0
  188.3510  174.3410  139.8070 C   0  0  0  0  0  2  0  0  0  0  0  0
  188.4200  173.4200  138.6090 C   0  0  0  0  0  1  0  0  0  0  0  0
  2  6  1  0  0  0  0
  3 29  1  1  0  0  0
  3 26  1  0  0  0  0
  3  7  1  0  0  0  0
  4  9  2  0  0  0  0
  5 16  1  0  0  0  0
  6 27  2  0  0  0  0
  7 20  1  6  0  0  0
  8 24  1  0  0  0  0
  9 11  1  0  0  0  0
 10 39  1  1  0  0  0
 10 25  1  0  0  0  0
 11  2  1  0  0  0  0
 12 20  1  0  0  0  0
 15 26  1  0  0  0  0
 15 27  1  0  0  0  0
 16 22  1  0  0  0  0
 16  1  2  0  0  0  0
 17 19  2  0  0  0  0
 18 12  1  0  0  0  0
 19 10  1  0  0  0  0
 19  5  1  0  0  0  0
 19 14  2  0  0  0  0
 21 15  2  0  0  0  0
 22 18  2  0  0  0  0
 23  8  2  0  0  0  0
 23 22  1  0  0  0  0
 24 12  2  0  0  0  0
 25  4  1  0  0  0  0
 26  7  1  0  0  0  0
 26 13  1  1  0  0  0
 28 21  1  0  0  0  0
 28  2  2  0  0  0  0
 30 33  1  0  0  0  0
 30 31  1  0  0  0  0
 32 31  1  6  0  0  0
 32 38  1  0  0  0  0
 33 36  1  0  0  0  0
 35 37  1  6  0  0  0
 35 34  1  0  0  0  0
 36 32  1  0  0  0  0
 36 37  1  1  0  0  0
 38 29  1  1  0  0  0
 38 35  1  0  0  0  0
 38 34  1  0  0  0  0
 40 39  1  0  0  0  0
 41 40  2  0  0  0  0
 42 41  1  0  0  0  0
 43 42  1  0  0  0  0
 44 49  1  1  0  0  0
 44 43  1  0  0  0  0
 45 48  1  0  0  0  0
 45 44  1  0  0  0  0
 46 47  1  0  0  0  0
 46 48  1  0  0  0  0
 47 48  1  0  0  0  0
 51 50  1  1  0  0  0
 51 52  1  0  0  0  0
 51 49  1  0  0  0  0
 53 54  1  0  0  0  0
 53 52  1  0  0  0  0
 55  8  1  0  0  0  0
 56 55  1  0  0  0  0
 57 56  1  0  0  0  0
M  END
>  <MODEL>
1

>  <REMARK>
 VINA RESULT:      -7.0      0.000      0.000
  Name = 
  15 active torsions:
  status: ('A' for Active; 'I' for Inactive)
    1  A    between atoms: C_3  and  C_49
    2  A    between atoms: C_4  and  C_24
    3  A    between atoms: C_5  and  C_11
    4  A    between atoms: N_7  and  C_21
    5  A    between atoms: N_7  and  C_26
    6  A    between atoms: C_11  and  C_55
    7  A    between atoms: C_12  and  C_49
    8  A    between atoms: C_14  and  C_24
    9  A    between atoms: C_15  and  C_19
   10  A    between atoms: C_19  and  C_51
   11  A    between atoms: C_21  and  C_41
   12  A    between atoms: C_21  and  C_44
   13  A    between atoms: C_22  and  N_32
   14  A    between atoms: C_22  and  C_44
   15  A    between atoms: C_41  and  C_51
                            x       y       z     vdW  Elec       q    Type
                         _______ _______ _______ _____ _____    ______ ____

>  <TORSDO>
F 15

$$$$
=
 OpenBabel11062423073D

 57 64  0  0  1  0  0  0  0  0999 V2000
  192.6530  174.2740  140.9690 O   0  0  0  0  0  0  0  0  0  0  0  0
  192.7910  174.6090  144.9290 C   0  0  0  0  0  0  0  0  0  0  0  0
  196.9160  171.5670  144.5660 C   0  0  2  0  0  3  0  0  0  0  0  0
  189.7170  173.7010  143.9510 C   0  0  0  0  0  3  0  0  0  0  0  0
  191.9800  172.1620  140.2380 N   0  0  0  0  0  2  0  0  0  0  0  0
  193.9230  175.3810  145.2150 C   0  0  0  0  0  3  0  0  0  0  0  0
  197.6870  172.8220  144.3580 N   0  0  1  0  0  0  0  0  0  0  0  0
  196.1630  171.0630  140.5810 C   0  0  0  0  0  0  0  0  0  0  0  0
  190.2870  174.4160  144.9300 C   0  0  0  0  0  3  0  0  0  0  0  0
  189.5190  172.7040  141.6640 C   0  0  1  0  0  3  0  0  0  0  0  0
  191.4790  175.3050  144.7040 C   0  0  0  0  0  2  0  0  0  0  0  0
  196.4410  172.8840  142.1550 C   0  0  0  0  0  0  0  0  0  0  0  0
  197.1990  172.6960  146.7130 O   0  0  0  0  0  1  0  0  0  0  0  0
  190.2100  173.9030  139.3270 O   0  0  0  0  0  0  0  0  0  0  0  0
  195.3060  173.3870  145.2480 C   0  0  0  0  0  0  0  0  0  0  0  0
  192.9660  173.0760  140.7230 C   0  0  0  0  0  0  0  0  0  0  0  0
  189.6260  171.5310  139.2460 O   0  0  0  0  0  0  0  0  0  0  0  0
  195.1440  173.3150  141.8770 C   0  0  0  0  0  3  0  0  0  0  0  0
  190.3100  172.5930  140.0580 S   0  0  0  0  0  0  0  0  0  0  0  0
  197.2310  173.6220  143.1990 C   0  0  0  0  0  2  0  0  0  0  0  0
  194.1710  172.6110  144.9710 C   0  0  0  0  0  3  0  0  0  0  0  0
  194.3410  172.6210  140.9700 C   0  0  0  0  0  0  0  0  0  0  0  0
  194.8520  171.4840  140.3290 C   0  0  0  0  0  3  0  0  0  0  0  0
  196.9610  171.7680  141.4910 C   0  0  0  0  0  3  0  0  0  0  0  0
  190.1940  173.7620  142.5320 C   0  0  0  0  0  2  0  0  0  0  0  0
  196.6540  172.7260  145.4260 C   0  0  2  0  0  0  0  0  0  0  0  0
  195.1740  174.7750  145.3810 C   0  0  0  0  0  3  0  0  0  0  0  0
  192.9270  173.2180  144.7990 C   0  0  0  0  0  3  0  0  0  0  0  0
  197.8310  170.5220  145.1920 C   0  0  0  0  0  2  0  0  0  0  0  0
  194.0590  168.8690  143.2590 C   0  0  0  0  0  2  0  0  0  0  0  0
  195.5380  169.2410  143.4540 C   0  0  0  0  0  2  0  0  0  0  0  0
  195.8310  168.8220  144.8630 C   0  0  2  0  0  3  0  0  0  0  0  0
  193.2650  168.5610  144.9010 S   0  0  0  0  0  0  0  0  0  0  0  0
  197.5430  168.3480  146.7220 C   0  0  0  0  0  2  0  0  0  0  0  0
  196.5700  169.4560  147.0700 C   0  0  2  0  0  3  0  0  0  0  0  0
  194.7010  169.3410  145.6450 C   0  0  1  0  0  3  0  0  0  0  0  0
  195.1040  169.0020  147.0520 C   0  0  0  0  0  2  0  0  0  0  0  0
  197.0570  169.2770  145.6210 C   0  0  1  0  0  0  0  0  0  0  0  0
  188.0010  172.9010  141.5390 C   0  0  0  0  0  2  0  0  0  0  0  0
  187.5550  174.3090  141.7960 C   0  0  0  0  0  3  0  0  0  0  0  0
  187.8230  175.2400  140.9570 N   0  0  0  0  0  0  0  0  0  0  0  0
  187.3790  176.5810  141.2060 C   0  0  0  0  0  2  0  0  0  0  0  0
  188.0060  177.0870  142.4890 C   0  0  0  0  0  2  0  0  0  0  0  0
  186.9490  177.2380  143.5690 C   0  0  2  0  0  3  0  0  0  0  0  0
  186.7870  178.6450  143.9040 N   0  0  0  0  0  2  0  0  0  0  0  0
  184.4640  178.1750  143.4340 C   0  0  0  0  0  2  0  0  0  0  0  0
  184.5390  179.4860  144.1850 C   0  0  0  0  0  2  0  0  0  0  0  0
  185.6190  179.1220  143.1860 C   0  0  0  0  0  3  0  0  0  0  0  0
  187.3900  176.4640  144.8030 C   0  0  0  0  0  2  0  0  0  0  0  0
  188.7440  177.3050  146.6900 C   0  0  0  0  0  1  0  0  0  0  0  0
  187.3740  177.3450  146.0400 C   0  0  2  0  0  3  0  0  0  0  0  0
  186.3200  176.8500  147.0220 C   0  0  0  0  0  2  0  0  0  0  0  0
  186.0170  177.8980  148.0820 C   0  0  0  0  0  2  0  0  0  0  0  0
  185.8150  179.2570  147.4410 C   0  0  0  0  0  1  0  0  0  0  0  0
  196.7130  169.8710  139.8790 C   0  0  0  0  0  2  0  0  0  0  0  0
  195.5910  169.0950  139.2140 C   0  0  0  0  0  2  0  0  0  0  0  0
  196.1480  168.3100  138.0470 C   0  0  0  0  0  1  0  0  0  0  0  0
  2  6  1  0  0  0  0
  3 29  1  1  0  0  0
  3 26  1  0  0  0  0
  4  9  2  0  0  0  0
  5 16  1  0  0  0  0
  6 27  2  0  0  0  0
  7 20  1  6  0  0  0
  7  3  1  0  0  0  0
  7 26  1  0  0  0  0
  8 24  1  0  0  0  0
 10 39  1  6  0  0  0
 10 25  1  0  0  0  0
 11  2  1  0  0  0  0
 11  9  1  0  0  0  0
 12 20  1  0  0  0  0
 14 19  2  0  0  0  0
 15 27  1  0  0  0  0
 15 26  1  0  0  0  0
 16  1  2  0  0  0  0
 16 22  1  0  0  0  0
 17 19  2  0  0  0  0
 18 12  1  0  0  0  0
 19  5  1  0  0  0  0
 19 10  1  0  0  0  0
 21 15  2  0  0  0  0
 22 18  2  0  0  0  0
 23  8  2  0  0  0  0
 23 22  1  0  0  0  0
 24 12  2  0  0  0  0
 25  4  1  0  0  0  0
 26 13  1  1  0  0  0
 28  2  2  0  0  0  0
 28 21  1  0  0  0  0
 30 31  1  0  0  0  0
 30 33  1  0  0  0  0
 32 31  1  6  0  0  0
 32 38  1  0  0  0  0
 32 36  1  0  0  0  0
 33 36  1  0  0  0  0
 35 34  1  1  0  0  0
 36 37  1  1  0  0  0
 37 35  1  0  0  0  0
 38 29  1  6  0  0  0
 38 34  1  0  0  0  0
 38 35  1  0  0  0  0
 39 40  1  0  0  0  0
 41 42  1  0  0  0  0
 41 40  2  0  0  0  0
 42 43  1  0  0  0  0
 44 43  1  6  0  0  0
 44 45  1  0  0  0  0
 44 49  1  0  0  0  0
 46 47  1  0  0  0  0
 48 46  1  0  0  0  0
 48 45  1  0  0  0  0
 48 47  1  0  0  0  0
 49 51  1  0  0  0  0
 51 50  1  1  0  0  0
 51 52  1  0  0  0  0
 52 53  1  0  0  0  0
 54 53  1  0  0  0  0
 55  8  1  0  0  0  0
 56 55  1  0  0  0  0
 57 56  1  0  0  0  0
M  END
>  <MODEL>
2

>  <REMARK>
 VINA RESULT:      -7.0      3.894      9.705
  Name = 
  15 active torsions:
  status: ('A' for Active; 'I' for Inactive)
    1  A    between atoms: C_3  and  C_49
    2  A    between atoms: C_4  and  C_24
    3  A    between atoms: C_5  and  C_11
    4  A    between atoms: N_7  and  C_21
    5  A    between atoms: N_7  and  C_26
    6  A    between atoms: C_11  and  C_55
    7  A    between atoms: C_12  and  C_49
    8  A    between atoms: C_14  and  C_24
    9  A    between atoms: C_15  and  C_19
   10  A    between atoms: C_19  and  C_51
   11  A    between atoms: C_21  and  C_41
   12  A    between atoms: C_21  and  C_44
   13  A    between atoms: C_22  and  N_32
   14  A    between atoms: C_22  and  C_44
   15  A    between atoms: C_41  and  C_51
                            x       y       z     vdW  Elec       q    Type
                         _______ _______ _______ _____ _____    ______ ____

>  <TORSDO>
F 15

$$$$
=
 OpenBabel11062423073D

 57 64  0  0  1  0  0  0  0  0999 V2000
  194.0590  172.6480  143.1260 O   0  0  0  0  0  0  0  0  0  0  0  0
  194.5990  176.0290  145.1490 C   0  0  0  0  0  0  0  0  0  0  0  0
  189.4680  176.2970  145.1390 C   0  0  2  0  0  3  0  0  0  0  0  0
  196.4700  176.0330  142.3680 C   0  0  0  0  0  3  0  0  0  0  0  0
  193.3180  172.9830  140.9380 N   0  0  0  0  0  2  0  0  0  0  0  0
  194.1520  175.7790  146.4510 C   0  0  0  0  0  3  0  0  0  0  0  0
  189.5320  175.4640  146.3680 N   0  0  1  0  0  0  0  0  0  0  0  0
  189.3290  173.0650  142.6430 C   0  0  0  0  0  0  0  0  0  0  0  0
  196.5270  176.5190  143.6150 C   0  0  0  0  0  3  0  0  0  0  0  0
  195.7960  174.4340  140.5640 C   0  0  1  0  0  3  0  0  0  0  0  0
  196.0370  175.7530  144.8140 C   0  0  0  0  0  2  0  0  0  0  0  0
  190.3240  173.6710  144.7670 C   0  0  0  0  0  0  0  0  0  0  0  0
  190.1320  177.7030  147.0230 O   0  0  0  0  0  1  0  0  0  0  0  0
  195.6440  171.7320  140.7910 O   0  0  0  0  0  0  0  0  0  0  0  0
  191.8950  176.4130  145.8240 C   0  0  0  0  0  0  0  0  0  0  0  0
  193.0930  172.8760  142.3460 C   0  0  0  0  0  0  0  0  0  0  0  0
  194.7580  172.7420  138.7490 O   0  0  0  0  0  0  0  0  0  0  0  0
  191.5920  173.4540  144.2290 C   0  0  0  0  0  3  0  0  0  0  0  0
  194.9010  172.9150  140.2340 S   0  0  0  0  0  0  0  0  0  0  0  0
  190.2230  174.1680  146.1810 C   0  0  0  0  0  2  0  0  0  0  0  0
  192.3440  176.6730  144.5220 C   0  0  0  0  0  3  0  0  0  0  0  0
  191.7440  173.0620  142.8970 C   0  0  0  0  0  0  0  0  0  0  0  0
  190.6070  172.8780  142.1000 C   0  0  0  0  0  3  0  0  0  0  0  0
  189.1880  173.4560  143.9790 C   0  0  0  0  0  3  0  0  0  0  0  0
  195.9510  174.6610  142.0650 C   0  0  0  0  0  2  0  0  0  0  0  0
  190.4420  176.6270  146.1840 C   0  0  2  0  0  0  0  0  0  0  0  0
  192.8080  175.9760  146.7920 C   0  0  0  0  0  3  0  0  0  0  0  0
  193.6820  176.4690  144.1830 C   0  0  0  0  0  3  0  0  0  0  0  0
  188.2020  177.1430  145.1790 C   0  0  0  0  0  2  0  0  0  0  0  0
  184.3630  179.3060  144.0460 C   0  0  0  0  0  2  0  0  0  0  0  0
  185.7470  179.0480  144.6650 C   0  0  0  0  0  2  0  0  0  0  0  0
  186.5140  178.3840  143.5620 C   0  0  2  0  0  3  0  0  0  0  0  0
  184.1610  178.2970  142.5090 S   0  0  0  0  0  0  0  0  0  0  0  0
  188.7590  177.5800  142.6000 C   0  0  0  0  0  2  0  0  0  0  0  0
  187.7610  176.4600  142.8130 C   0  0  2  0  0  3  0  0  0  0  0  0
  185.6000  177.3610  143.0380 C   0  0  1  0  0  3  0  0  0  0  0  0
  186.4570  176.6530  142.0290 C   0  0  0  0  0  2  0  0  0  0  0  0
  187.8150  177.6480  143.7900 C   0  0  1  0  0  0  0  0  0  0  0  0
  197.1290  174.4880  139.8030 C   0  0  0  0  0  2  0  0  0  0  0  0
  197.1260  175.4490  138.6540 C   0  0  0  0  0  3  0  0  0  0  0  0
  196.9940  175.0260  137.4510 N   0  0  0  0  0  0  0  0  0  0  0  0
  196.9780  175.9560  136.3590 C   0  0  0  0  0  2  0  0  0  0  0  0
  196.8640  175.1960  135.0540 C   0  0  0  0  0  2  0  0  0  0  0  0
  196.0860  173.9080  135.2590 C   0  0  2  0  0  3  0  0  0  0  0  0
  196.7190  172.8290  134.5140 N   0  0  0  0  0  2  0  0  0  0  0  0
  196.8610  171.0230  136.1130 C   0  0  0  0  0  2  0  0  0  0  0  0
  197.7970  170.7140  134.9670 C   0  0  0  0  0  2  0  0  0  0  0  0
  197.6140  172.1450  135.4300 C   0  0  0  0  0  3  0  0  0  0  0  0
  194.6610  174.1070  134.7650 C   0  0  0  0  0  2  0  0  0  0  0  0
  193.1170  172.1860  134.5990 C   0  0  0  0  0  1  0  0  0  0  0  0
  193.6840  173.2350  135.5350 C   0  0  2  0  0  3  0  0  0  0  0  0
  192.5560  174.0870  136.1020 C   0  0  0  0  0  2  0  0  0  0  0  0
  191.2530  173.3070  136.1660 C   0  0  0  0  0  2  0  0  0  0  0  0
  190.0910  174.2380  136.4560 C   0  0  0  0  0  1  0  0  0  0  0  0
  188.1210  172.8440  141.8010 C   0  0  0  0  0  2  0  0  0  0  0  0
  188.4900  172.9130  140.3310 C   0  0  0  0  0  2  0  0  0  0  0  0
  188.3890  174.3460  139.8560 C   0  0  0  0  0  1  0  0  0  0  0  0
  2  6  1  0  0  0  0
  3 29  1  1  0  0  0
  3 26  1  0  0  0  0
  3  7  1  0  0  0  0
  4  9  2  0  0  0  0
  5 16  1  0  0  0  0
  6 27  2  0  0  0  0
  7 20  1  6  0  0  0
  8 24  1  0  0  0  0
  9 11  1  0  0  0  0
 10 39  1  6  0  0  0
 10 25  1  0  0  0  0
 11  2  1  0  0  0  0
 12 20  1  0  0  0  0
 15 26  1  0  0  0  0
 15 27  1  0  0  0  0
 16 22  1  0  0  0  0
 16  1  2  0  0  0  0
 17 19  2  0  0  0  0
 18 12  1  0  0  0  0
 19 10  1  0  0  0  0
 19 14  2  0  0  0  0
 19  5  1  0  0  0  0
 21 15  2  0  0  0  0
 22 18  2  0  0  0  0
 23  8  2  0  0  0  0
 23 22  1  0  0  0  0
 24 12  2  0  0  0  0
 25  4  1  0  0  0  0
 26  7  1  0  0  0  0
 26 13  1  1  0  0  0
 28 21  1  0  0  0  0
 28  2  2  0  0  0  0
 30 31  1  0  0  0  0
 32 38  1  0  0  0  0
 32 31  1  1  0  0  0
 33 36  1  0  0  0  0
 33 30  1  0  0  0  0
 34 35  1  0  0  0  0
 34 38  1  0  0  0  0
 35 37  1  6  0  0  0
 35 38  1  0  0  0  0
 36 37  1  6  0  0  0
 36 32  1  0  0  0  0
 38 29  1  1  0  0  0
 40 39  1  0  0  0  0
 41 40  2  0  0  0  0
 42 41  1  0  0  0  0
 43 44  1  0  0  0  0
 43 42  1  0  0  0  0
 44 49  1  6  0  0  0
 45 44  1  0  0  0  0
 45 48  1  0  0  0  0
 47 48  1  0  0  0  0
 47 46  1  0  0  0  0
 48 46  1  0  0  0  0
 49 51  1  0  0  0  0
 51 50  1  6  0  0  0
 51 52  1  0  0  0  0
 52 53  1  0  0  0  0
 53 54  1  0  0  0  0
 55  8  1  0  0  0  0
 56 55  1  0  0  0  0
 57 56  1  0  0  0  0
M  END
>  <MODEL>
3

>  <REMARK>
 VINA RESULT:      -6.9      1.350      2.383
  Name = 
  15 active torsions:
  status: ('A' for Active; 'I' for Inactive)
    1  A    between atoms: C_3  and  C_49
    2  A    between atoms: C_4  and  C_24
    3  A    between atoms: C_5  and  C_11
    4  A    between atoms: N_7  and  C_21
    5  A    between atoms: N_7  and  C_26
    6  A    between atoms: C_11  and  C_55
    7  A    between atoms: C_12  and  C_49
    8  A    between atoms: C_14  and  C_24
    9  A    between atoms: C_15  and  C_19
   10  A    between atoms: C_19  and  C_51
   11  A    between atoms: C_21  and  C_41
   12  A    between atoms: C_21  and  C_44
   13  A    between atoms: C_22  and  N_32
   14  A    between atoms: C_22  and  C_44
   15  A    between atoms: C_41  and  C_51
                            x       y       z     vdW  Elec       q    Type
                         _______ _______ _______ _____ _____    ______ ____

>  <TORSDO>
F 15

$$$$
=
 OpenBabel11062423073D

 57 64  0  0  1  0  0  0  0  0999 V2000
  195.9480  174.4890  142.6050 O   0  0  0  0  0  0  0  0  0  0  0  0
  195.2280  170.6180  143.1690 C   0  0  0  0  0  0  0  0  0  0  0  0
  193.6920  170.6780  138.2660 C   0  0  2  0  0  3  0  0  0  0  0  0
  193.7880  172.4280  145.5940 C   0  0  0  0  0  3  0  0  0  0  0  0
  194.0100  175.7780  142.4300 N   0  0  0  0  0  2  0  0  0  0  0  0
  196.1820  169.9310  142.4100 C   0  0  0  0  0  3  0  0  0  0  0  0
  195.1210  170.4400  137.9310 N   0  0  1  0  0  0  0  0  0  0  0  0
  194.0880  174.7440  138.2170 C   0  0  0  0  0  0  0  0  0  0  0  0
  194.3430  171.2190  145.4410 C   0  0  0  0  0  3  0  0  0  0  0  0
  193.4300  174.8590  145.1140 C   0  0  1  0  0  3  0  0  0  0  0  0
  195.5600  170.9800  144.5890 C   0  0  0  0  0  2  0  0  0  0  0  0
  195.4190  172.8020  138.7890 C   0  0  0  0  0  0  0  0  0  0  0  0
  194.2320  168.3340  138.6900 O   0  0  0  0  0  1  0  0  0  0  0  0
  195.3590  176.6770  144.5210 O   0  0  0  0  0  0  0  0  0  0  0  0
  194.7280  170.0070  140.4680 C   0  0  0  0  0  0  0  0  0  0  0  0
  195.0000  174.9030  141.8830 C   0  0  0  0  0  0  0  0  0  0  0  0
  193.0310  177.3820  144.2720 O   0  0  0  0  0  0  0  0  0  0  0  0
  195.5250  173.2670  140.1000 C   0  0  0  0  0  3  0  0  0  0  0  0
  193.9840  176.2330  144.1030 S   0  0  0  0  0  0  0  0  0  0  0  0
  196.0410  171.4770  138.4480 C   0  0  0  0  0  2  0  0  0  0  0  0
  193.7680  170.6880  141.2300 C   0  0  0  0  0  3  0  0  0  0  0  0
  194.9030  174.4560  140.4870 C   0  0  0  0  0  0  0  0  0  0  0  0
  194.1730  175.1900  139.5420 C   0  0  0  0  0  3  0  0  0  0  0  0
  194.7170  173.5520  137.8390 C   0  0  0  0  0  3  0  0  0  0  0  0
  194.3610  173.6590  144.9600 C   0  0  0  0  0  2  0  0  0  0  0  0
  194.4530  169.6750  139.0190 C   0  0  2  0  0  0  0  0  0  0  0  0
  195.9330  169.6190  141.0680 C   0  0  0  0  0  3  0  0  0  0  0  0
  194.0220  171.0040  142.5650 C   0  0  0  0  0  3  0  0  0  0  0  0
  192.8200  170.0960  137.1610 C   0  0  0  0  0  2  0  0  0  0  0  0
  190.1090  173.1670  139.1410 C   0  0  0  0  0  2  0  0  0  0  0  0
  191.3930  172.4430  138.7020 C   0  0  0  0  0  2  0  0  0  0  0  0
  191.1640  172.1580  137.2490 C   0  0  2  0  0  3  0  0  0  0  0  0
  188.7800  172.9160  137.8800 S   0  0  0  0  0  0  0  0  0  0  0  0
  192.0900  171.4310  134.9620 C   0  0  0  0  0  2  0  0  0  0  0  0
  191.0050  170.5140  135.4900 C   0  0  2  0  0  3  0  0  0  0  0  0
  189.8020  171.6110  137.1890 C   0  0  1  0  0  3  0  0  0  0  0  0
  189.6730  171.2320  135.7410 C   0  0  0  0  0  2  0  0  0  0  0  0
  192.0010  171.1770  136.4590 C   0  0  1  0  0  0  0  0  0  0  0  0
  193.2160  175.2760  146.5760 C   0  0  0  0  0  2  0  0  0  0  0  0
  191.7800  175.2590  147.0020 C   0  0  0  0  0  3  0  0  0  0  0  0
  190.9610  176.1430  146.5650 N   0  0  0  0  0  0  0  0  0  0  0  0
  189.5850  176.1090  146.9680 C   0  0  0  0  0  2  0  0  0  0  0  0
  188.9120  177.4050  146.5660 C   0  0  0  0  0  2  0  0  0  0  0  0
  187.8590  177.1450  145.5020 C   0  0  2  0  0  3  0  0  0  0  0  0
  186.5720  176.9010  146.1360 N   0  0  0  0  0  2  0  0  0  0  0  0
  185.5290  179.0690  145.9010 C   0  0  0  0  0  2  0  0  0  0  0  0
  184.7050  178.2500  146.8690 C   0  0  0  0  0  2  0  0  0  0  0  0
  186.2140  178.1120  146.8540 C   0  0  0  0  0  3  0  0  0  0  0  0
  188.2690  175.9270  144.6880 C   0  0  0  0  0  2  0  0  0  0  0  0
  187.7840  175.9020  142.2660 C   0  0  0  0  0  1  0  0  0  0  0  0
  188.7890  176.3300  143.3180 C   0  0  2  0  0  3  0  0  0  0  0  0
  190.1330  175.6660  143.0510 C   0  0  0  0  0  2  0  0  0  0  0  0
  190.1470  174.2280  143.5480 C   0  0  0  0  0  2  0  0  0  0  0  0
  191.1140  173.3940  142.7300 C   0  0  0  0  0  1  0  0  0  0  0  0
  193.3350  175.5390  137.2090 C   0  0  0  0  0  2  0  0  0  0  0  0
  193.3030  174.8020  135.8830 C   0  0  0  0  0  2  0  0  0  0  0  0
  192.0170  175.1300  135.1570 C   0  0  0  0  0  1  0  0  0  0  0  0
  2 11  1  0  0  0  0
  3 29  1  6  0  0  0
  3 26  1  0  0  0  0
  5 19  1  0  0  0  0
  6  2  2  0  0  0  0
  7  3  1  0  0  0  0
  7 20  1  1  0  0  0
  7 26  1  0  0  0  0
  8 23  1  0  0  0  0
  9  4  2  0  0  0  0
 10 39  1  1  0  0  0
 11  9  1  0  0  0  0
 12 18  2  0  0  0  0
 15 27  2  0  0  0  0
 15 21  1  0  0  0  0
 16  5  1  0  0  0  0
 16  1  2  0  0  0  0
 18 22  1  0  0  0  0
 19 17  2  0  0  0  0
 19 14  2  0  0  0  0
 19 10  1  0  0  0  0
 20 12  1  0  0  0  0
 21 28  2  0  0  0  0
 22 16  1  0  0  0  0
 23 22  2  0  0  0  0
 24  8  2  0  0  0  0
 24 12  1  0  0  0  0
 25 10  1  0  0  0  0
 25  4  1  0  0  0  0
 26 13  1  6  0  0  0
 26 15  1  0  0  0  0
 27  6  1  0  0  0  0
 28  2  1  0  0  0  0
 31 30  1  0  0  0  0
 32 31  1  1  0  0  0
 33 30  1  0  0  0  0
 34 38  1  0  0  0  0
 35 34  1  6  0  0  0
 35 37  1  0  0  0  0
 35 38  1  0  0  0  0
 36 37  1  6  0  0  0
 36 32  1  0  0  0  0
 36 33  1  0  0  0  0
 38 29  1  1  0  0  0
 38 32  1  0  0  0  0
 39 40  1  0  0  0  0
 41 42  1  0  0  0  0
 41 40  2  0  0  0  0
 43 42  1  0  0  0  0
 44 49  1  1  0  0  0
 44 45  1  0  0  0  0
 44 43  1  0  0  0  0
 45 48  1  0  0  0  0
 46 48  1  0  0  0  0
 46 47  1  0  0  0  0
 48 47  1  0  0  0  0
 51 50  1  6  0  0  0
 51 49  1  0  0  0  0
 52 51  1  0  0  0  0
 52 53  1  0  0  0  0
 54 53  1  0  0  0  0
 55  8  1  0  0  0  0
 56 55  1  0  0  0  0
 57 56  1  0  0  0  0
M  END
>  <MODEL>
4

>  <REMARK>
 VINA RESULT:      -6.7      2.740      9.104
  Name = 
  15 active torsions:
  status: ('A' for Active; 'I' for Inactive)
    1  A    between atoms: C_3  and  C_49
    2  A    between atoms: C_4  and  C_24
    3  A    between atoms: C_5  and  C_11
    4  A    between atoms: N_7  and  C_21
    5  A    between atoms: N_7  and  C_26
    6  A    between atoms: C_11  and  C_55
    7  A    between atoms: C_12  and  C_49
    8  A    between atoms: C_14  and  C_24
    9  A    between atoms: C_15  and  C_19
   10  A    between atoms: C_19  and  C_51
   11  A    between atoms: C_21  and  C_41
   12  A    between atoms: C_21  and  C_44
   13  A    between atoms: C_22  and  N_32
   14  A    between atoms: C_22  and  C_44
   15  A    between atoms: C_41  and  C_51
                            x       y       z     vdW  Elec       q    Type
                         _______ _______ _______ _____ _____    ______ ____

>  <TORSDO>
F 15

$$$$
=
 OpenBabel11062423073D

 57 64  0  0  1  0  0  0  0  0999 V2000
  195.1860  171.0010  142.7020 O   0  0  0  0  0  0  0  0  0  0  0  0
  196.7660  174.6420  142.9490 C   0  0  0  0  0  0  0  0  0  0  0  0
  192.1130  176.0300  144.6290 C   0  0  2  0  0  3  0  0  0  0  0  0
  197.3370  173.3360  139.9160 C   0  0  0  0  0  3  0  0  0  0  0  0
  193.6480  170.7720  140.9620 N   0  0  0  0  0  2  0  0  0  0  0  0
  196.8690  174.9300  144.3150 C   0  0  0  0  0  3  0  0  0  0  0  0
  192.6060  175.6430  145.9780 N   0  0  1  0  0  0  0  0  0  0  0  0
  190.7180  172.2850  143.7810 C   0  0  0  0  0  0  0  0  0  0  0  0
  197.9350  174.1700  140.7760 C   0  0  0  0  0  3  0  0  0  0  0  0
  195.8650  171.4350  139.2210 C   0  0  1  0  0  3  0  0  0  0  0  0
  197.9170  173.9590  142.2660 C   0  0  0  0  0  2  0  0  0  0  0  0
  192.5350  173.3020  145.0190 C   0  0  0  0  0  0  0  0  0  0  0  0
  193.5940  177.7810  145.4700 O   0  0  0  0  0  1  0  0  0  0  0  0
  195.6070  169.0540  140.5040 O   0  0  0  0  0  0  0  0  0  0  0  0
  194.6100  175.8160  144.3230 C   0  0  0  0  0  0  0  0  0  0  0  0
  194.0080  171.1760  142.2860 C   0  0  0  0  0  0  0  0  0  0  0  0
  194.0490  169.5260  138.6790 O   0  0  0  0  0  0  0  0  0  0  0  0
  193.4530  172.6470  144.1990 C   0  0  0  0  0  3  0  0  0  0  0  0
  194.7970  170.1300  139.8340 S   0  0  0  0  0  0  0  0  0  0  0  0
  193.0570  174.2370  146.0730 C   0  0  0  0  0  2  0  0  0  0  0  0
  194.5090  175.5370  142.9530 C   0  0  0  0  0  3  0  0  0  0  0  0
  193.0190  171.8240  143.1560 C   0  0  0  0  0  0  0  0  0  0  0  0
  191.6450  171.6530  142.9430 C   0  0  0  0  0  3  0  0  0  0  0  0
  191.1630  173.1050  144.8240 C   0  0  0  0  0  3  0  0  0  0  0  0
  196.6340  172.0910  140.3640 C   0  0  0  0  0  2  0  0  0  0  0  0
  193.4520  176.4520  145.0570 C   0  0  2  0  0  0  0  0  0  0  0  0
  195.8010  175.5200  144.9990 C   0  0  0  0  0  3  0  0  0  0  0  0
  195.5730  174.9410  142.2750 C   0  0  0  0  0  3  0  0  0  0  0  0
  191.0440  177.1040  144.7820 C   0  0  0  0  0  2  0  0  0  0  0  0
  187.8350  177.8140  141.6350 C   0  0  0  0  0  2  0  0  0  0  0  0
  189.1290  177.3000  142.2890 C   0  0  0  0  0  2  0  0  0  0  0  0
  188.6800  176.8050  143.6300 C   0  0  2  0  0  3  0  0  0  0  0  0
  186.5190  178.0200  142.9180 S   0  0  0  0  0  0  0  0  0  0  0  0
  189.1690  175.4770  145.7770 C   0  0  0  0  0  2  0  0  0  0  0  0
  188.8820  176.9430  146.0300 C   0  0  2  0  0  3  0  0  0  0  0  0
  187.8180  177.8750  144.1500 C   0  0  1  0  0  3  0  0  0  0  0  0
  187.4990  177.3840  145.5330 C   0  0  0  0  0  2  0  0  0  0  0  0
  189.6370  176.5070  144.7620 C   0  0  1  0  0  0  0  0  0  0  0  0
  196.7720  170.9420  138.0840 C   0  0  0  0  0  2  0  0  0  0  0  0
  196.4630  171.5650  136.7560 C   0  0  0  0  0  3  0  0  0  0  0  0
  195.3850  171.2650  136.1330 N   0  0  0  0  0  0  0  0  0  0  0  0
  195.0920  171.8770  134.8690 C   0  0  0  0  0  2  0  0  0  0  0  0
  194.5320  173.2660  135.1010 C   0  0  0  0  0  2  0  0  0  0  0  0
  193.2470  173.1890  135.9060 C   0  0  2  0  0  3  0  0  0  0  0  0
  192.1570  172.7460  135.0490 N   0  0  0  0  0  2  0  0  0  0  0  0
  190.4660  171.6980  136.4210 C   0  0  0  0  0  2  0  0  0  0  0  0
  190.3180  171.1780  135.0090 C   0  0  0  0  0  2  0  0  0  0  0  0
  191.6960  171.4710  135.5670 C   0  0  0  0  0  3  0  0  0  0  0  0
  192.9320  174.5670  136.4670 C   0  0  0  0  0  2  0  0  0  0  0  0
  194.8220  174.9210  138.0170 C   0  0  0  0  0  1  0  0  0  0  0  0
  193.3290  174.6700  137.9300 C   0  0  2  0  0  3  0  0  0  0  0  0
  192.9770  173.3810  138.6600 C   0  0  0  0  0  2  0  0  0  0  0  0
  191.6590  173.5120  139.4080 C   0  0  0  0  0  2  0  0  0  0  0  0
  191.8790  174.1700  140.7570 C   0  0  0  0  0  1  0  0  0  0  0  0
  189.2580  172.0800  143.5690 C   0  0  0  0  0  2  0  0  0  0  0  0
  188.9050  172.3180  142.1130 C   0  0  0  0  0  2  0  0  0  0  0  0
  188.0900  173.5870  141.9950 C   0  0  0  0  0  1  0  0  0  0  0  0
  2  6  1  0  0  0  0
  3 29  1  1  0  0  0
  3 26  1  0  0  0  0
  3  7  1  0  0  0  0
  4 25  1  0  0  0  0
  4  9  2  0  0  0  0
  5 16  1  0  0  0  0
  6 27  2  0  0  0  0
  7 20  1  6  0  0  0
  8 24  1  0  0  0  0
  9 11  1  0  0  0  0
 10 39  1  6  0  0  0
 10 19  1  0  0  0  0
 10 25  1  0  0  0  0
 11  2  1  0  0  0  0
 12 20  1  0  0  0  0
 15 27  1  0  0  0  0
 15 26  1  0  0  0  0
 16  1  2  0  0  0  0
 16 22  1  0  0  0  0
 17 19  2  0  0  0  0
 18 12  1  0  0  0  0
 19 14  2  0  0  0  0
 19  5  1  0  0  0  0
 21 15  2  0  0  0  0
 22 18  2  0  0  0  0
 23 22  1  0  0  0  0
 23  8  2  0  0  0  0
 24 12  2  0  0  0  0
 26 13  1  1  0  0  0
 26  7  1  0  0  0  0
 28  2  2  0  0  0  0
 28 21  1  0  0  0  0
 30 31  1  0  0  0  0
 30 33  1  0  0  0  0
 32 31  1  6  0  0  0
 32 36  1  0  0  0  0
 32 38  1  0  0  0  0
 33 36  1  0  0  0  0
 34 35  1  0  0  0  0
 35 37  1  6  0  0  0
 36 37  1  1  0  0  0
 38 29  1  6  0  0  0
 38 34  1  0  0  0  0
 38 35  1  0  0  0  0
 40 39  1  0  0  0  0
 41 40  2  0  0  0  0
 42 43  1  0  0  0  0
 42 41  1  0  0  0  0
 44 43  1  6  0  0  0
 44 49  1  0  0  0  0
 45 48  1  0  0  0  0
 45 44  1  0  0  0  0
 47 48  1  0  0  0  0
 47 46  1  0  0  0  0
 48 46  1  0  0  0  0
 49 51  1  0  0  0  0
 51 50  1  6  0  0  0
 51 52  1  0  0  0  0
 52 53  1  0  0  0  0
 53 54  1  0  0  0  0
 55  8  1  0  0  0  0
 56 55  1  0  0  0  0
 57 56  1  0  0  0  0
M  END
>  <MODEL>
5

>  <REMARK>
 VINA RESULT:      -6.6      2.194      3.626
  Name = 
  15 active torsions:
  status: ('A' for Active; 'I' for Inactive)
    1  A    between atoms: C_3  and  C_49
    2  A    between atoms: C_4  and  C_24
    3  A    between atoms: C_5  and  C_11
    4  A    between atoms: N_7  and  C_21
    5  A    between atoms: N_7  and  C_26
    6  A    between atoms: C_11  and  C_55
    7  A    between atoms: C_12  and  C_49
    8  A    between atoms: C_14  and  C_24
    9  A    between atoms: C_15  and  C_19
   10  A    between atoms: C_19  and  C_51
   11  A    between atoms: C_21  and  C_41
   12  A    between atoms: C_21  and  C_44
   13  A    between atoms: C_22  and  N_32
   14  A    between atoms: C_22  and  C_44
   15  A    between atoms: C_41  and  C_51
                            x       y       z     vdW  Elec       q    Type
                         _______ _______ _______ _____ _____    ______ ____

>  <TORSDO>
F 15

$$$$
=
 OpenBabel11062423073D

 57 64  0  0  1  0  0  0  0  0999 V2000
  195.9920  174.5600  142.7350 O   0  0  0  0  0  0  0  0  0  0  0  0
  195.2540  170.7060  143.3800 C   0  0  0  0  0  0  0  0  0  0  0  0
  193.7240  170.6680  138.4750 C   0  0  2  0  0  3  0  0  0  0  0  0
  193.8190  172.5740  145.7630 C   0  0  0  0  0  3  0  0  0  0  0  0
  194.0610  175.8550  142.5290 N   0  0  0  0  0  2  0  0  0  0  0  0
  196.2060  169.9980  142.6370 C   0  0  0  0  0  3  0  0  0  0  0  0
  195.1530  170.4160  138.1470 N   0  0  1  0  0  0  0  0  0  0  0  0
  194.1410  174.7300  138.3400 C   0  0  0  0  0  0  0  0  0  0  0  0
  194.3680  171.3600  145.6380 C   0  0  0  0  0  3  0  0  0  0  0  0
  193.4730  174.9960  145.2310 C   0  0  1  0  0  3  0  0  0  0  0  0
  195.5850  171.0970  144.7930 C   0  0  0  0  0  2  0  0  0  0  0  0
  195.4610  172.7950  138.9550 C   0  0  0  0  0  0  0  0  0  0  0  0
  194.2530  168.3310  138.9500 O   0  0  0  0  0  1  0  0  0  0  0  0
  195.4110  176.7920  144.6020 O   0  0  0  0  0  0  0  0  0  0  0  0
  194.7540  170.0400  140.6920 C   0  0  0  0  0  0  0  0  0  0  0  0
  195.0480  174.9640  142.0020 C   0  0  0  0  0  0  0  0  0  0  0  0
  193.0870  177.5020  144.3350 O   0  0  0  0  0  0  0  0  0  0  0  0
  195.5670  173.2870  140.2550 C   0  0  0  0  0  3  0  0  0  0  0  0
  194.0350  176.3460  144.1920 S   0  0  0  0  0  0  0  0  0  0  0  0
  196.0770  171.4600  138.6440 C   0  0  0  0  0  2  0  0  0  0  0  0
  193.7970  170.7410  141.4380 C   0  0  0  0  0  3  0  0  0  0  0  0
  194.9500  174.4870  140.6160 C   0  0  0  0  0  0  0  0  0  0  0  0
  194.2260  175.2040  139.6550 C   0  0  0  0  0  3  0  0  0  0  0  0
  194.7640  173.5270  137.9880 C   0  0  0  0  0  3  0  0  0  0  0  0
  194.3980  173.7890  145.1050 C   0  0  0  0  0  2  0  0  0  0  0  0
  194.4800  169.6780  139.2510 C   0  0  2  0  0  0  0  0  0  0  0  0
  195.9570  169.6590  141.3020 C   0  0  0  0  0  3  0  0  0  0  0  0
  194.0500  171.0840  142.7670 C   0  0  0  0  0  3  0  0  0  0  0  0
  192.8510  170.0660  137.3810 C   0  0  0  0  0  2  0  0  0  0  0  0
  190.1050  173.1220  139.3360 C   0  0  0  0  0  2  0  0  0  0  0  0
  191.3970  172.4090  138.9030 C   0  0  0  0  0  2  0  0  0  0  0  0
  191.1720  172.1110  137.4520 C   0  0  2  0  0  3  0  0  0  0  0  0
  188.7800  172.8470  138.0750 S   0  0  0  0  0  0  0  0  0  0  0  0
  192.1090  171.3770  135.1720 C   0  0  0  0  0  2  0  0  0  0  0  0
  191.0340  170.4520  135.7060 C   0  0  2  0  0  3  0  0  0  0  0  0
  189.8170  171.5480  137.3950 C   0  0  1  0  0  3  0  0  0  0  0  0
  189.6940  171.1570  135.9500 C   0  0  0  0  0  2  0  0  0  0  0  0
  192.0210  171.1340  136.6700 C   0  0  1  0  0  0  0  0  0  0  0  0
  193.2590  175.4450  146.6840 C   0  0  0  0  0  2  0  0  0  0  0  0
  191.8170  175.5180  147.0850 C   0  0  0  0  0  3  0  0  0  0  0  0
  190.8940  175.1980  146.2550 N   0  0  0  0  0  0  0  0  0  0  0  0
  189.5180  175.2570  146.6530 C   0  0  0  0  0  2  0  0  0  0  0  0
  188.9590  176.6270  146.3240 C   0  0  0  0  0  2  0  0  0  0  0  0
  187.9290  176.5240  145.2130 C   0  0  2  0  0  3  0  0  0  0  0  0
  188.4110  175.6180  144.1810 N   0  0  0  0  0  2  0  0  0  0  0  0
  190.1980  175.7330  142.5590 C   0  0  0  0  0  2  0  0  0  0  0  0
  188.8850  175.6930  141.8120 C   0  0  0  0  0  2  0  0  0  0  0  0
  188.9840  176.4370  143.1280 C   0  0  0  0  0  3  0  0  0  0  0  0
  187.7020  177.9060  144.6190 C   0  0  0  0  0  2  0  0  0  0  0  0
  185.9100  179.2060  143.5230 C   0  0  0  0  0  1  0  0  0  0  0  0
  186.2390  178.3070  144.6990 C   0  0  2  0  0  3  0  0  0  0  0  0
  185.9680  179.0430  146.0050 C   0  0  0  0  0  2  0  0  0  0  0  0
  184.8490  178.3790  146.7910 C   0  0  0  0  0  2  0  0  0  0  0  0
  184.8160  176.8890  146.5130 C   0  0  0  0  0  1  0  0  0  0  0  0
  193.3930  175.5070  137.3130 C   0  0  0  0  0  2  0  0  0  0  0  0
  193.4010  174.7650  135.9900 C   0  0  0  0  0  2  0  0  0  0  0  0
  194.2850  175.5000  135.0070 C   0  0  0  0  0  1  0  0  0  0  0  0
  2 11  1  0  0  0  0
  3 29  1  6  0  0  0
  3 26  1  0  0  0  0
  5 19  1  0  0  0  0
  6  2  2  0  0  0  0
  7  3  1  0  0  0  0
  7 20  1  1  0  0  0
  7 26  1  0  0  0  0
  8 23  1  0  0  0  0
  9  4  2  0  0  0  0
 10 39  1  1  0  0  0
 11  9  1  0  0  0  0
 12 18  2  0  0  0  0
 15 27  2  0  0  0  0
 15 21  1  0  0  0  0
 16  5  1  0  0  0  0
 16  1  2  0  0  0  0
 18 22  1  0  0  0  0
 19 17  2  0  0  0  0
 19 14  2  0  0  0  0
 19 10  1  0  0  0  0
 20 12  1  0  0  0  0
 21 28  2  0  0  0  0
 22 16  1  0  0  0  0
 23 22  2  0  0  0  0
 24  8  2  0  0  0  0
 24 12  1  0  0  0  0
 25 10  1  0  0  0  0
 25  4  1  0  0  0  0
 26 13  1  6  0  0  0
 26 15  1  0  0  0  0
 27  6  1  0  0  0  0
 28  2  1  0  0  0  0
 31 30  1  0  0  0  0
 32 31  1  1  0  0  0
 33 30  1  0  0  0  0
 34 38  1  0  0  0  0
 35 34  1  6  0  0  0
 35 37  1  0  0  0  0
 35 38  1  0  0  0  0
 36 37  1  6  0  0  0
 36 32  1  0  0  0  0
 36 33  1  0  0  0  0
 38 29  1  1  0  0  0
 38 32  1  0  0  0  0
 39 40  1  0  0  0  0
 41 42  1  0  0  0  0
 41 40  2  0  0  0  0
 43 42  1  0  0  0  0
 44 49  1  6  0  0  0
 44 43  1  0  0  0  0
 45 44  1  0  0  0  0
 46 48  1  0  0  0  0
 47 46  1  0  0  0  0
 47 48  1  0  0  0  0
 48 45  1  0  0  0  0
 49 51  1  0  0  0  0
 51 50  1  6  0  0  0
 51 52  1  0  0  0  0
 52 53  1  0  0  0  0
 54 53  1  0  0  0  0
 55  8  1  0  0  0  0
 56 55  1  0  0  0  0
 57 56  1  0  0  0  0
M  END
>  <MODEL>
6

>  <REMARK>
 VINA RESULT:      -6.5      2.734      9.119
  Name = 
  15 active torsions:
  status: ('A' for Active; 'I' for Inactive)
    1  A    between atoms: C_3  and  C_49
    2  A    between atoms: C_4  and  C_24
    3  A    between atoms: C_5  and  C_11
    4  A    between atoms: N_7  and  C_21
    5  A    between atoms: N_7  and  C_26
    6  A    between atoms: C_11  and  C_55
    7  A    between atoms: C_12  and  C_49
    8  A    between atoms: C_14  and  C_24
    9  A    between atoms: C_15  and  C_19
   10  A    between atoms: C_19  and  C_51
   11  A    between atoms: C_21  and  C_41
   12  A    between atoms: C_21  and  C_44
   13  A    between atoms: C_22  and  N_32
   14  A    between atoms: C_22  and  C_44
   15  A    between atoms: C_41  and  C_51
                            x       y       z     vdW  Elec       q    Type
                         _______ _______ _______ _____ _____    ______ ____

>  <TORSDO>
F 15

$$$$
=
 OpenBabel11062423073D

 57 64  0  0  1  0  0  0  0  0999 V2000
  192.5160  174.5150  141.1240 O   0  0  0  0  0  0  0  0  0  0  0  0
  192.8230  174.8860  145.0710 C   0  0  0  0  0  0  0  0  0  0  0  0
  196.8140  171.6880  144.5840 C   0  0  2  0  0  3  0  0  0  0  0  0
  189.6810  174.0850  144.2250 C   0  0  0  0  0  3  0  0  0  0  0  0
  191.7360  172.4220  140.4450 N   0  0  0  0  0  2  0  0  0  0  0  0
  193.9930  175.6180  145.3030 C   0  0  0  0  0  3  0  0  0  0  0  0
  197.6220  172.9100  144.3300 N   0  0  1  0  0  0  0  0  0  0  0  0
  195.8860  171.1700  140.6380 C   0  0  0  0  0  0  0  0  0  0  0  0
  190.3150  174.7880  145.1720 C   0  0  0  0  0  3  0  0  0  0  0  0
  189.3550  173.0720  141.9600 C   0  0  1  0  0  3  0  0  0  0  0  0
  191.5300  175.6300  144.8900 C   0  0  0  0  0  2  0  0  0  0  0  0
  196.2930  172.9960  142.1780 C   0  0  0  0  0  0  0  0  0  0  0  0
  197.2240  172.8280  146.7050 O   0  0  0  0  0  1  0  0  0  0  0  0
  189.9970  174.2190  139.5830 O   0  0  0  0  0  0  0  0  0  0  0  0
  195.3010  173.5740  145.3070 C   0  0  0  0  0  0  0  0  0  0  0  0
  192.7740  173.3040  140.8810 C   0  0  0  0  0  0  0  0  0  0  0  0
  189.3230  171.8700  139.5540 O   0  0  0  0  0  0  0  0  0  0  0  0
  195.0040  173.4730  141.9460 C   0  0  0  0  0  3  0  0  0  0  0  0
  190.0780  172.9140  140.3260 S   0  0  0  0  0  0  0  0  0  0  0  0
  197.1510  173.7140  143.1800 C   0  0  0  0  0  2  0  0  0  0  0  0
  194.1280  172.8390  145.0840 C   0  0  0  0  0  3  0  0  0  0  0  0
  194.1390  172.7990  141.0790 C   0  0  0  0  0  0  0  0  0  0  0  0
  194.5820  171.6370  140.4320 C   0  0  0  0  0  3  0  0  0  0  0  0
  196.7450  171.8530  141.5070 C   0  0  0  0  0  3  0  0  0  0  0  0
  190.1030  174.1130  142.7880 C   0  0  0  0  0  2  0  0  0  0  0  0
  196.6290  172.8650  145.4390 C   0  0  2  0  0  0  0  0  0  0  0  0
  195.2260  174.9680  145.4280 C   0  0  0  0  0  3  0  0  0  0  0  0
  192.9010  173.4910  144.9520 C   0  0  0  0  0  3  0  0  0  0  0  0
  197.7140  170.6160  145.1860 C   0  0  0  0  0  2  0  0  0  0  0  0
  193.9530  168.9460  143.2440 C   0  0  0  0  0  2  0  0  0  0  0  0
  195.4340  169.3050  143.4530 C   0  0  0  0  0  2  0  0  0  0  0  0
  195.6940  168.9330  144.8820 C   0  0  2  0  0  3  0  0  0  0  0  0
  193.1240  168.7120  144.8800 S   0  0  0  0  0  0  0  0  0  0  0  0
  197.3640  168.5040  146.7890 C   0  0  0  0  0  2  0  0  0  0  0  0
  196.4010  169.6370  147.0780 C   0  0  2  0  0  3  0  0  0  0  0  0
  194.5580  169.4970  145.6230 C   0  0  1  0  0  3  0  0  0  0  0  0
  194.9300  169.2050  147.0480 C   0  0  0  0  0  2  0  0  0  0  0  0
  196.9130  169.3990  145.6460 C   0  0  1  0  0  0  0  0  0  0  0  0
  187.8420  173.3250  141.8920 C   0  0  0  0  0  2  0  0  0  0  0  0
  187.4660  174.7660  142.0590 C   0  0  0  0  0  3  0  0  0  0  0  0
  187.8180  175.6360  141.1860 N   0  0  0  0  0  0  0  0  0  0  0  0
  187.4410  177.0110  141.3490 C   0  0  0  0  0  2  0  0  0  0  0  0
  186.1780  177.2820  140.5580 C   0  0  0  0  0  2  0  0  0  0  0  0
  185.0830  177.8000  141.4730 C   0  0  2  0  0  3  0  0  0  0  0  0
  184.1840  178.6640  140.7210 N   0  0  0  0  0  2  0  0  0  0  0  0
  182.1300  178.2510  141.9260 C   0  0  0  0  0  2  0  0  0  0  0  0
  181.7940  179.0200  140.6680 C   0  0  0  0  0  2  0  0  0  0  0  0
  182.9020  177.9870  140.6500 C   0  0  0  0  0  3  0  0  0  0  0  0
  185.7200  178.5870  142.6090 C   0  0  0  0  0  2  0  0  0  0  0  0
  185.1520  179.4470  144.8540 C   0  0  0  0  0  1  0  0  0  0  0  0
  185.0860  178.2350  143.9450 C   0  0  2  0  0  3  0  0  0  0  0  0
  185.8270  177.0670  144.5840 C   0  0  0  0  0  2  0  0  0  0  0  0
  187.2380  177.4630  144.9870 C   0  0  0  0  0  2  0  0  0  0  0  0
  187.5890  176.8720  146.3400 C   0  0  0  0  0  1  0  0  0  0  0  0
  196.3630  169.9510  139.9300 C   0  0  0  0  0  2  0  0  0  0  0  0
  196.3050  170.1650  138.4290 C   0  0  0  0  0  2  0  0  0  0  0  0
  197.6120  170.7650  137.9570 C   0  0  0  0  0  1  0  0  0  0  0  0
  2  6  1  0  0  0  0
  3 29  1  1  0  0  0
  3 26  1  0  0  0  0
  4  9  2  0  0  0  0
  5 16  1  0  0  0  0
  6 27  2  0  0  0  0
  7 20  1  6  0  0  0
  7  3  1  0  0  0  0
  7 26  1  0  0  0  0
  8 24  1  0  0  0  0
 10 39  1  6  0  0  0
 10 25  1  0  0  0  0
 11  2  1  0  0  0  0
 11  9  1  0  0  0  0
 12 20  1  0  0  0  0
 14 19  2  0  0  0  0
 15 27  1  0  0  0  0
 15 26  1  0  0  0  0
 16 22  1  0  0  0  0
 16  1  2  0  0  0  0
 17 19  2  0  0  0  0
 18 12  1  0  0  0  0
 19  5  1  0  0  0  0
 19 10  1  0  0  0  0
 21 15  2  0  0  0  0
 22 18  2  0  0  0  0
 23  8  2  0  0  0  0
 23 22  1  0  0  0  0
 24 12  2  0  0  0  0
 25  4  1  0  0  0  0
 26 13  1  1  0  0  0
 28  2  2  0  0  0  0
 28 21  1  0  0  0  0
 30 31  1  0  0  0  0
 30 33  1  0  0  0  0
 32 31  1  6  0  0  0
 32 36  1  0  0  0  0
 32 38  1  0  0  0  0
 33 36  1  0  0  0  0
 35 34  1  1  0  0  0
 36 37  1  1  0  0  0
 37 35  1  0  0  0  0
 38 29  1  6  0  0  0
 38 34  1  0  0  0  0
 38 35  1  0  0  0  0
 39 40  1  0  0  0  0
 41 42  1  0  0  0  0
 41 40  2  0  0  0  0
 43 42  1  0  0  0  0
 44 43  1  6  0  0  0
 44 49  1  0  0  0  0
 45 44  1  0  0  0  0
 47 46  1  0  0  0  0
 48 47  1  0  0  0  0
 48 45  1  0  0  0  0
 48 46  1  0  0  0  0
 49 51  1  0  0  0  0
 51 52  1  0  0  0  0
 51 50  1  1  0  0  0
 52 53  1  0  0  0  0
 53 54  1  0  0  0  0
 55  8  1  0  0  0  0
 56 55  1  0  0  0  0
 57 56  1  0  0  0  0
M  END
>  <MODEL>
7

>  <REMARK>
 VINA RESULT:      -6.4      3.835      9.575
  Name = 
  15 active torsions:
  status: ('A' for Active; 'I' for Inactive)
    1  A    between atoms: C_3  and  C_49
    2  A    between atoms: C_4  and  C_24
    3  A    between atoms: C_5  and  C_11
    4  A    between atoms: N_7  and  C_21
    5  A    between atoms: N_7  and  C_26
    6  A    between atoms: C_11  and  C_55
    7  A    between atoms: C_12  and  C_49
    8  A    between atoms: C_14  and  C_24
    9  A    between atoms: C_15  and  C_19
   10  A    between atoms: C_19  and  C_51
   11  A    between atoms: C_21  and  C_41
   12  A    between atoms: C_21  and  C_44
   13  A    between atoms: C_22  and  N_32
   14  A    between atoms: C_22  and  C_44
   15  A    between atoms: C_41  and  C_51
                            x       y       z     vdW  Elec       q    Type
                         _______ _______ _______ _____ _____    ______ ____

>  <TORSDO>
F 15

$$$$
=
 OpenBabel11062423073D

 57 64  0  0  1  0  0  0  0  0999 V2000
  192.6130  172.8370  145.1940 O   0  0  0  0  0  0  0  0  0  0  0  0
  190.3350  172.1130  142.0160 C   0  0  0  0  0  0  0  0  0  0  0  0
  194.6930  172.6860  139.3560 C   0  0  2  0  0  3  0  0  0  0  0  0
  188.9670  174.5280  143.8920 C   0  0  0  0  0  3  0  0  0  0  0  0
  193.3120  175.0580  145.3490 N   0  0  0  0  0  2  0  0  0  0  0  0
  190.7190  170.8530  141.5410 C   0  0  0  0  0  3  0  0  0  0  0  0
  194.9160  171.2400  139.6200 N   0  0  1  0  0  0  0  0  0  0  0  0
  196.5950  173.8670  142.7740 C   0  0  0  0  0  0  0  0  0  0  0  0
  188.5650  173.5380  143.0870 C   0  0  0  0  0  3  0  0  0  0  0  0
  190.4920  175.6970  145.4970 C   0  0  1  0  0  3  0  0  0  0  0  0
  189.2420  172.1940  143.0430 C   0  0  0  0  0  2  0  0  0  0  0  0
  195.2320  172.0170  142.0080 C   0  0  0  0  0  0  0  0  0  0  0  0
  193.2620  171.3750  137.8730 O   0  0  0  0  0  1  0  0  0  0  0  0
  191.8890  174.5360  147.5160 O   0  0  0  0  0  0  0  0  0  0  0  0
  192.4510  171.8690  140.1770 C   0  0  0  0  0  0  0  0  0  0  0  0
  193.4240  173.7320  144.8280 C   0  0  0  0  0  0  0  0  0  0  0  0
  192.3800  176.8760  147.0070 O   0  0  0  0  0  0  0  0  0  0  0  0
  194.2790  172.3240  142.9780 C   0  0  0  0  0  3  0  0  0  0  0  0
  192.0290  175.5440  146.4090 S   0  0  0  0  0  0  0  0  0  0  0  0
  194.9460  170.8890  141.0570 C   0  0  0  0  0  2  0  0  0  0  0  0
  192.0610  173.1310  140.6450 C   0  0  0  0  0  3  0  0  0  0  0  0
  194.4610  173.4090  143.8390 C   0  0  0  0  0  0  0  0  0  0  0  0
  195.6200  174.1880  143.7270 C   0  0  0  0  0  3  0  0  0  0  0  0
  196.4040  172.7770  141.9180 C   0  0  0  0  0  3  0  0  0  0  0  0
  190.1040  174.3680  144.8560 C   0  0  0  0  0  2  0  0  0  0  0  0
  193.5840  171.7430  139.1840 C   0  0  2  0  0  0  0  0  0  0  0  0
  191.7670  170.7300  140.6200 C   0  0  0  0  0  3  0  0  0  0  0  0
  191.0210  173.2510  141.5680 C   0  0  0  0  0  3  0  0  0  0  0  0
  195.3940  173.0660  138.0570 C   0  0  0  0  0  2  0  0  0  0  0  0
  192.7640  176.1100  135.9320 C   0  0  0  0  0  2  0  0  0  0  0  0
  193.2320  175.0870  136.9810 C   0  0  0  0  0  2  0  0  0  0  0  0
  194.6540  175.4750  137.2500 C   0  0  2  0  0  3  0  0  0  0  0  0
  194.2260  176.9620  135.1860 S   0  0  0  0  0  0  0  0  0  0  0  0
  196.7690  175.2680  138.6970 C   0  0  0  0  0  2  0  0  0  0  0  0
  196.9790  174.8310  137.2620 C   0  0  2  0  0  3  0  0  0  0  0  0
  195.2410  175.6740  135.9180 C   0  0  1  0  0  3  0  0  0  0  0  0
  196.6840  175.9380  136.2410 C   0  0  0  0  0  2  0  0  0  0  0  0
  195.6340  174.5720  137.9640 C   0  0  1  0  0  0  0  0  0  0  0  0
  189.3750  176.3020  146.3600 C   0  0  0  0  0  2  0  0  0  0  0  0
  188.2340  176.8580  145.5630 C   0  0  0  0  0  3  0  0  0  0  0  0
  187.0240  176.6650  145.9370 N   0  0  0  0  0  0  0  0  0  0  0  0
  185.9400  177.2140  145.1740 C   0  0  0  0  0  2  0  0  0  0  0  0
  186.3480  178.5640  144.6210 C   0  0  0  0  0  2  0  0  0  0  0  0
  186.0780  178.6250  143.1280 C   0  0  2  0  0  3  0  0  0  0  0  0
  184.6680  178.9000  142.8960 N   0  0  0  0  0  2  0  0  0  0  0  0
  182.7740  178.2640  141.5360 C   0  0  0  0  0  2  0  0  0  0  0  0
  183.9170  178.6260  140.6140 C   0  0  0  0  0  2  0  0  0  0  0  0
  184.1970  177.9250  141.9280 C   0  0  0  0  0  3  0  0  0  0  0  0
  186.4520  177.2900  142.5020 C   0  0  0  0  0  2  0  0  0  0  0  0
  187.7980  176.1170  140.7950 C   0  0  0  0  0  1  0  0  0  0  0  0
  187.3720  177.4790  141.3090 C   0  0  2  0  0  3  0  0  0  0  0  0
  188.5990  178.2850  141.7160 C   0  0  0  0  0  2  0  0  0  0  0  0
  189.6180  177.4150  142.4350 C   0  0  0  0  0  2  0  0  0  0  0  0
  190.7350  178.2680  143.0040 C   0  0  0  0  0  1  0  0  0  0  0  0
  197.8380  174.6810  142.6740 C   0  0  0  0  0  2  0  0  0  0  0  0
  197.5300  176.0270  142.0470 C   0  0  0  0  0  2  0  0  0  0  0  0
  197.2090  177.0270  143.1370 C   0  0  0  0  0  1  0  0  0  0  0  0
  2 11  1  0  0  0  0
  3 29  1  6  0  0  0
  3  7  1  0  0  0  0
  4 25  1  0  0  0  0
  5 19  1  0  0  0  0
  6  2  2  0  0  0  0
  7 20  1  1  0  0  0
  8 23  1  0  0  0  0
  9  4  2  0  0  0  0
 10 39  1  1  0  0  0
 10 19  1  0  0  0  0
 11  9  1  0  0  0  0
 12 18  2  0  0  0  0
 15 27  2  0  0  0  0
 15 21  1  0  0  0  0
 16  1  2  0  0  0  0
 16  5  1  0  0  0  0
 18 22  1  0  0  0  0
 19 17  2  0  0  0  0
 19 14  2  0  0  0  0
 20 12  1  0  0  0  0
 21 28  2  0  0  0  0
 22 16  1  0  0  0  0
 23 22  2  0  0  0  0
 24 12  1  0  0  0  0
 24  8  2  0  0  0  0
 25 10  1  0  0  0  0
 26 13  1  6  0  0  0
 26  3  1  0  0  0  0
 26  7  1  0  0  0  0
 26 15  1  0  0  0  0
 27  6  1  0  0  0  0
 28  2  1  0  0  0  0
 30 31  1  0  0  0  0
 32 31  1  6  0  0  0
 32 38  1  0  0  0  0
 33 36  1  0  0  0  0
 33 30  1  0  0  0  0
 35 37  1  6  0  0  0
 35 38  1  0  0  0  0
 35 34  1  0  0  0  0
 36 37  1  1  0  0  0
 36 32  1  0  0  0  0
 38 29  1  1  0  0  0
 38 34  1  0  0  0  0
 40 41  2  0  0  0  0
 40 39  1  0  0  0  0
 42 41  1  0  0  0  0
 43 42  1  0  0  0  0
 44 49  1  6  0  0  0
 44 43  1  0  0  0  0
 45 44  1  0  0  0  0
 46 48  1  0  0  0  0
 47 46  1  0  0  0  0
 47 48  1  0  0  0  0
 48 45  1  0  0  0  0
 51 50  1  1  0  0  0
 51 52  1  0  0  0  0
 51 49  1  0  0  0  0
 52 53  1  0  0  0  0
 53 54  1  0  0  0  0
 55  8  1  0  0  0  0
 56 55  1  0  0  0  0
 56 57  1  0  0  0  0
M  END
>  <MODEL>
8

>  <REMARK>
 VINA RESULT:      -6.2      2.657      9.583
  Name = 
  15 active torsions:
  status: ('A' for Active; 'I' for Inactive)
    1  A    between atoms: C_3  and  C_49
    2  A    between atoms: C_4  and  C_24
    3  A    between atoms: C_5  and  C_11
    4  A    between atoms: N_7  and  C_21
    5  A    between atoms: N_7  and  C_26
    6  A    between atoms: C_11  and  C_55
    7  A    between atoms: C_12  and  C_49
    8  A    between atoms: C_14  and  C_24
    9  A    between atoms: C_15  and  C_19
   10  A    between atoms: C_19  and  C_51
   11  A    between atoms: C_21  and  C_41
   12  A    between atoms: C_21  and  C_44
   13  A    between atoms: C_22  and  N_32
   14  A    between atoms: C_22  and  C_44
   15  A    between atoms: C_41  and  C_51
                            x       y       z     vdW  Elec       q    Type
                         _______ _______ _______ _____ _____    ______ ____

>  <TORSDO>
F 15

$$$$
=
 OpenBabel11062423073D

 57 64  0  0  1  0  0  0  0  0999 V2000
  194.3030  172.8630  144.0170 O   0  0  0  0  0  0  0  0  0  0  0  0
  190.5240  171.8630  143.2880 C   0  0  0  0  0  0  0  0  0  0  0  0
  191.8680  172.2730  138.3460 C   0  0  2  0  0  3  0  0  0  0  0  0
  190.6480  174.4040  145.4690 C   0  0  0  0  0  3  0  0  0  0  0  0
  194.7820  175.0970  143.5410 N   0  0  0  0  0  2  0  0  0  0  0  0
  190.5600  170.5740  142.7430 C   0  0  0  0  0  3  0  0  0  0  0  0
  192.3000  170.8550  138.4600 N   0  0  1  0  0  0  0  0  0  0  0  0
  195.5070  173.7430  139.4840 C   0  0  0  0  0  0  0  0  0  0  0  0
  189.8690  173.3480  145.2050 C   0  0  0  0  0  3  0  0  0  0  0  0
  192.7800  175.7140  145.5410 C   0  0  1  0  0  3  0  0  0  0  0  0
  190.4180  172.0130  144.7790 C   0  0  0  0  0  2  0  0  0  0  0  0
  194.1050  171.8220  139.9470 C   0  0  0  0  0  0  0  0  0  0  0  0
  189.8960  170.8320  138.3060 O   0  0  0  0  0  1  0  0  0  0  0  0
  195.2460  174.7320  146.1200 O   0  0  0  0  0  0  0  0  0  0  0  0
  190.8370  171.4980  140.5150 C   0  0  0  0  0  0  0  0  0  0  0  0
  194.5910  173.7340  143.1520 C   0  0  0  0  0  0  0  0  0  0  0  0
  195.1130  177.0300  145.2960 O   0  0  0  0  0  0  0  0  0  0  0  0
  194.0480  172.1940  141.2900 C   0  0  0  0  0  3  0  0  0  0  0  0
  194.5330  175.6500  145.1650 S   0  0  0  0  0  0  0  0  0  0  0  0
  193.3210  170.6190  139.5050 C   0  0  0  0  0  2  0  0  0  0  0  0
  190.7910  172.7890  141.0600 C   0  0  0  0  0  3  0  0  0  0  0  0
  194.6990  173.3460  141.7390 C   0  0  0  0  0  0  0  0  0  0  0  0
  195.4210  174.1270  140.8270 C   0  0  0  0  0  3  0  0  0  0  0  0
  194.8530  172.5850  139.0440 C   0  0  0  0  0  3  0  0  0  0  0  0
  192.1430  174.3340  145.4050 C   0  0  0  0  0  2  0  0  0  0  0  0
  190.9990  171.3060  139.0250 C   0  0  2  0  0  0  0  0  0  0  0  0
  190.7090  170.3900  141.3630 C   0  0  0  0  0  3  0  0  0  0  0  0
  190.6500  172.9700  142.4360 C   0  0  0  0  0  3  0  0  0  0  0  0
  191.4750  172.5570  136.9020 C   0  0  0  0  0  2  0  0  0  0  0  0
  187.8100  175.2190  136.4730 C   0  0  0  0  0  2  0  0  0  0  0  0
  188.8870  174.3380  137.1280 C   0  0  0  0  0  2  0  0  0  0  0  0
  190.1670  174.8250  136.5190 C   0  0  2  0  0  3  0  0  0  0  0  0
  188.5060  176.0620  134.9810 S   0  0  0  0  0  0  0  0  0  0  0  0
  192.7380  174.8830  136.5200 C   0  0  0  0  0  2  0  0  0  0  0  0
  192.1500  174.3080  135.2470 C   0  0  2  0  0  3  0  0  0  0  0  0
  189.8830  174.9130  135.0810 C   0  0  1  0  0  3  0  0  0  0  0  0
  191.2230  175.2840  134.5130 C   0  0  0  0  0  2  0  0  0  0  0  0
  191.4650  174.0550  136.6020 C   0  0  1  0  0  0  0  0  0  0  0  0
  192.5120  176.3730  146.9020 C   0  0  0  0  0  2  0  0  0  0  0  0
  191.0550  176.5220  147.2200 C   0  0  0  0  0  3  0  0  0  0  0  0
  190.5570  177.6780  147.4600 N   0  0  0  0  0  0  0  0  0  0  0  0
  189.1580  177.8110  147.7500 C   0  0  0  0  0  2  0  0  0  0  0  0
  188.3750  176.8240  146.9090 C   0  0  0  0  0  2  0  0  0  0  0  0
  187.7680  177.5220  145.7040 C   0  0  2  0  0  3  0  0  0  0  0  0
  186.3180  177.4080  145.7510 N   0  0  0  0  0  2  0  0  0  0  0  0
  184.7830  179.1040  144.9710 C   0  0  0  0  0  2  0  0  0  0  0  0
  184.3110  178.6270  146.3260 C   0  0  0  0  0  2  0  0  0  0  0  0
  185.7950  178.7320  146.0350 C   0  0  0  0  0  3  0  0  0  0  0  0
  188.2950  176.8660  144.4360 C   0  0  0  0  0  2  0  0  0  0  0  0
  187.5250  175.1680  142.8160 C   0  0  0  0  0  1  0  0  0  0  0  0
  187.1580  176.4640  143.5120 C   0  0  2  0  0  3  0  0  0  0  0  0
  186.9130  177.5560  142.4780 C   0  0  0  0  0  2  0  0  0  0  0  0
  185.4770  177.5320  141.9800 C   0  0  0  0  0  2  0  0  0  0  0  0
  185.3390  178.3640  140.7190 C   0  0  0  0  0  1  0  0  0  0  0  0
  196.2980  174.5590  138.5220 C   0  0  0  0  0  2  0  0  0  0  0  0
  196.1990  173.9650  137.1300 C   0  0  0  0  0  2  0  0  0  0  0  0
  196.8960  174.8770  136.1440 C   0  0  0  0  0  1  0  0  0  0  0  0
  2 11  1  0  0  0  0
  3 29  1  6  0  0  0
  3  7  1  0  0  0  0
  3 26  1  0  0  0  0
  5 19  1  0  0  0  0
  6  2  1  0  0  0  0
  7 26  1  0  0  0  0
  7 20  1  1  0  0  0
  8 23  1  0  0  0  0
  9  4  2  0  0  0  0
 10 39  1  1  0  0  0
 11  9  1  0  0  0  0
 12 18  2  0  0  0  0
 15 21  2  0  0  0  0
 15 27  1  0  0  0  0
 16  5  1  0  0  0  0
 16  1  2  0  0  0  0
 18 22  1  0  0  0  0
 19 17  2  0  0  0  0
 19 10  1  0  0  0  0
 19 14  2  0  0  0  0
 20 12  1  0  0  0  0
 21 28  1  0  0  0  0
 22 16  1  0  0  0  0
 23 22  2  0  0  0  0
 24  8  2  0  0  0  0
 24 12  1  0  0  0  0
 25  4  1  0  0  0  0
 25 10  1  0  0  0  0
 26 13  1  6  0  0  0
 26 15  1  0  0  0  0
 27  6  2  0  0  0  0
 28  2  2  0  0  0  0
 30 31  1  0  0  0  0
 32 38  1  0  0  0  0
 32 31  1  1  0  0  0
 33 36  1  0  0  0  0
 33 30  1  0  0  0  0
 34 38  1  0  0  0  0
 35 37  1  6  0  0  0
 35 34  1  0  0  0  0
 35 38  1  0  0  0  0
 36 37  1  6  0  0  0
 36 32  1  0  0  0  0
 38 29  1  1  0  0  0
 39 40  1  0  0  0  0
 40 41  2  0  0  0  0
 41 42  1  0  0  0  0
 43 42  1  0  0  0  0
 44 49  1  6  0  0  0
 44 45  1  0  0  0  0
 44 43  1  0  0  0  0
 45 48  1  0  0  0  0
 46 48  1  0  0  0  0
 46 47  1  0  0  0  0
 48 47  1  0  0  0  0
 51 50  1  6  0  0  0
 51 49  1  0  0  0  0
 52 51  1  0  0  0  0
 53 52  1  0  0  0  0
 54 53  1  0  0  0  0
 55  8  1  0  0  0  0
 56 55  1  0  0  0  0
 57 56  1  0  0  0  0
M  END
>  <MODEL>
9

>  <REMARK>
 VINA RESULT:      -6.1      2.740      9.062
  Name = 
  15 active torsions:
  status: ('A' for Active; 'I' for Inactive)
    1  A    between atoms: C_3  and  C_49
    2  A    between atoms: C_4  and  C_24
    3  A    between atoms: C_5  and  C_11
    4  A    between atoms: N_7  and  C_21
    5  A    between atoms: N_7  and  C_26
    6  A    between atoms: C_11  and  C_55
    7  A    between atoms: C_12  and  C_49
    8  A    between atoms: C_14  and  C_24
    9  A    between atoms: C_15  and  C_19
   10  A    between atoms: C_19  and  C_51
   11  A    between atoms: C_21  and  C_41
   12  A    between atoms: C_21  and  C_44
   13  A    between atoms: C_22  and  N_32
   14  A    between atoms: C_22  and  C_44
   15  A    between atoms: C_41  and  C_51
                            x       y       z     vdW  Elec       q    Type
                         _______ _______ _______ _____ _____    ______ ____

>  <TORSDO>
F 15

$$$$
