=
 OpenBabel11062421093D

 27 28  0  0  1  0  0  0  0  0999 V2000
  186.3780  177.8130  147.3840 N   0  0  0  0  0  2  0  0  0  0  0  0
  184.2110  178.6470  147.0240 N   0  0  0  0  0  2  0  0  0  0  0  0
  185.4130  178.4930  146.5790 C   0  0  0  0  0  0  0  0  0  0  0  0
  185.7520  178.9760  145.2070 C   0  0  0  0  0  2  0  0  0  0  0  0
  184.5420  178.8610  144.2960 C   0  0  0  0  0  2  0  0  0  0  0  0
  184.3600  178.1030  141.9750 C   0  0  0  0  0  2  0  0  0  0  0  0
  184.7990  177.8690  143.2120 C   0  0  0  0  0  0  0  0  0  0  0  0
  185.7440  176.7370  143.4690 C   0  0  0  0  0  2  0  0  0  0  0  0
  187.5040  175.3350  142.4120 C   0  0  0  0  0  3  0  0  0  0  0  0
  186.8300  176.6740  142.4010 C   0  0  2  0  0  3  0  0  0  0  0  0
  188.7830  175.4900  142.7220 C   0  0  0  0  0  3  0  0  0  0  0  0
  187.9050  177.5940  142.7450 N   0  0  0  0  0  0  0  0  0  0  0  0
  188.9820  176.9110  142.9290 C   0  0  0  0  0  0  0  0  0  0  0  0
  190.2890  177.5400  143.2520 C   0  0  0  0  0  2  0  0  0  0  0  0
  190.2260  178.1320  144.5130 O   0  0  0  0  0  1  0  0  0  0  0  0
  187.7260  177.5470  146.9090 C   0  0  0  0  0  2  0  0  0  0  0  0
  187.8240  176.1480  146.4130 C   0  0  0  0  0  3  0  0  0  0  0  0
  188.8570  175.3310  146.6500 C   0  0  0  0  0  3  0  0  0  0  0  0
  190.0300  175.6580  147.3500 O   0  0  0  0  0  0  0  0  0  0  0  0
  192.3580  176.2820  147.1500 C   0  0  0  0  0  2  0  0  0  0  0  0
  192.6670  175.1630  145.0280 C   0  0  0  0  0  2  0  0  0  0  0  0
  191.3620  174.6700  145.6090 C   0  0  0  0  0  2  0  0  0  0  0  0
  192.9570  176.4500  145.7680 C   0  0  2  0  0  3  0  0  0  0  0  0
  191.3300  175.1640  147.0430 C   0  0  2  0  0  3  0  0  0  0  0  0
  194.4240  176.7210  145.8390 C   0  0  0  0  0  0  0  0  0  0  0  0
  194.8630  177.9030  145.7950 O   0  0  0  0  0  0  0  0  0  0  0  0
  195.3120  175.6620  145.9540 O   0  0  0  0  0  1  0  0  0  0  0  0
  3  2  2  0  0  0  0
  3  1  1  0  0  0  0
  4  3  1  0  0  0  0
  5  4  1  0  0  0  0
  6  7  2  0  0  0  0
  7  8  1  0  0  0  0
  7  5  1  0  0  0  0
  9 11  2  0  0  0  0
 10  9  1  0  0  0  0
 10 12  1  0  0  0  0
 10  8  1  1  0  0  0
 11 13  1  0  0  0  0
 12 13  2  0  0  0  0
 13 14  1  0  0  0  0
 14 15  1  0  0  0  0
 16  1  1  0  0  0  0
 17 18  2  0  0  0  0
 17 16  1  0  0  0  0
 18 19  1  0  0  0  0
 21 22  1  0  0  0  0
 21 23  1  0  0  0  0
 22 24  1  0  0  0  0
 23 25  1  1  0  0  0
 23 20  1  0  0  0  0
 24 20  1  0  0  0  0
 24 19  1  6  0  0  0
 25 27  1  0  0  0  0
 26 25  2  0  0  0  0
M  END
>  <MODEL>
1

>  <REMARK>
 VINA RESULT:      -6.2      0.000      0.000
  Name = 
  11 active torsions:
  status: ('A' for Active; 'I' for Inactive)
    1  A    between atoms: C_3  and  C_18
    2  A    between atoms: C_3  and  C_22
    3  A    between atoms: C_6  and  C_27
    4  A    between atoms: C_7  and  C_19
    5  A    between atoms: C_8  and  CA_12
    6  A    between atoms: N_11  and  C_19
    7  A    between atoms: C_14  and  C_15
    8  A    between atoms: C_16  and  O_24
    9  A    between atoms: C_18  and  C_25
   10  A    between atoms: C_23  and  O_24
   11  A    between atoms: C_25  and  C_27
                            x       y       z     vdW  Elec       q    Type
                         _______ _______ _______ _____ _____    ______ ____

>  <TORSDO>
F 11

$$$$
=
 OpenBabel11062421093D

 27 28  0  0  1  0  0  0  0  0999 V2000
  187.4250  176.4970  140.7480 N   0  0  0  0  0  2  0  0  0  0  0  0
  188.7480  174.7170  141.5240 N   0  0  0  0  0  2  0  0  0  0  0  0
  188.2950  175.9100  141.7180 C   0  0  0  0  0  0  0  0  0  0  0  0
  188.6410  176.6290  142.9810 C   0  0  0  0  0  2  0  0  0  0  0  0
  189.9790  177.3340  142.8330 C   0  0  0  0  0  2  0  0  0  0  0  0
  189.8900  177.3910  145.2790 C   0  0  0  0  0  2  0  0  0  0  0  0
  190.6150  177.5260  144.1680 C   0  0  0  0  0  0  0  0  0  0  0  0
  192.1050  177.6380  144.2580 C   0  0  0  0  0  2  0  0  0  0  0  0
  193.3120  176.2620  145.9410 C   0  0  0  0  0  3  0  0  0  0  0  0
  192.7420  176.2850  144.5540 C   0  0  2  0  0  3  0  0  0  0  0  0
  194.6230  176.0900  145.8730 C   0  0  0  0  0  3  0  0  0  0  0  0
  193.9110  176.1010  143.7070 N   0  0  0  0  0  0  0  0  0  0  0  0
  194.9500  176.0040  144.4630 C   0  0  0  0  0  0  0  0  0  0  0  0
  196.3160  175.7640  143.9270 C   0  0  0  0  0  2  0  0  0  0  0  0
  196.7870  176.9200  143.3080 O   0  0  0  0  0  1  0  0  0  0  0  0
  186.8270  177.8080  140.9440 C   0  0  0  0  0  2  0  0  0  0  0  0
  185.4070  177.6610  141.3660 C   0  0  0  0  0  3  0  0  0  0  0  0
  184.8150  178.4070  142.3070 C   0  0  0  0  0  3  0  0  0  0  0  0
  185.4300  179.4040  143.0830 O   0  0  0  0  0  0  0  0  0  0  0  0
  186.4110  178.4860  145.0930 C   0  0  0  0  0  2  0  0  0  0  0  0
  184.2860  178.1440  146.1970 C   0  0  0  0  0  2  0  0  0  0  0  0
  184.0340  179.0420  145.0070 C   0  0  0  0  0  2  0  0  0  0  0  0
  185.6160  177.4850  145.9080 C   0  0  2  0  0  3  0  0  0  0  0  0
  185.4030  179.4640  144.5050 C   0  0  2  0  0  3  0  0  0  0  0  0
  186.3300  177.1180  147.1670 C   0  0  0  0  0  0  0  0  0  0  0  0
  187.2590  176.2650  147.1560 O   0  0  0  0  0  0  0  0  0  0  0  0
  185.9660  177.7210  148.3620 O   0  0  0  0  0  1  0  0  0  0  0  0
  1 16  1  0  0  0  0
  1  3  1  0  0  0  0
  2  3  2  0  0  0  0
  3  4  1  0  0  0  0
  5  4  1  0  0  0  0
  5  7  1  0  0  0  0
  7  8  1  0  0  0  0
  7  6  2  0  0  0  0
 10  8  1  6  0  0  0
 10  9  1  0  0  0  0
 11  9  2  0  0  0  0
 12 13  2  0  0  0  0
 12 10  1  0  0  0  0
 13 11  1  0  0  0  0
 14 13  1  0  0  0  0
 15 14  1  0  0  0  0
 16 17  1  0  0  0  0
 17 18  2  0  0  0  0
 18 19  1  0  0  0  0
 20 23  1  0  0  0  0
 22 21  1  0  0  0  0
 23 21  1  0  0  0  0
 23 25  1  1  0  0  0
 24 19  1  6  0  0  0
 24 22  1  0  0  0  0
 24 20  1  0  0  0  0
 25 27  1  0  0  0  0
 26 25  2  0  0  0  0
M  END
>  <MODEL>
2

>  <REMARK>
 VINA RESULT:      -6.1      2.730      7.010
  Name = 
  11 active torsions:
  status: ('A' for Active; 'I' for Inactive)
    1  A    between atoms: C_3  and  C_18
    2  A    between atoms: C_3  and  C_22
    3  A    between atoms: C_6  and  C_27
    4  A    between atoms: C_7  and  C_19
    5  A    between atoms: C_8  and  CA_12
    6  A    between atoms: N_11  and  C_19
    7  A    between atoms: C_14  and  C_15
    8  A    between atoms: C_16  and  O_24
    9  A    between atoms: C_18  and  C_25
   10  A    between atoms: C_23  and  O_24
   11  A    between atoms: C_25  and  C_27
                            x       y       z     vdW  Elec       q    Type
                         _______ _______ _______ _____ _____    ______ ____

>  <TORSDO>
F 11

$$$$
=
 OpenBabel11062421093D

 27 28  0  0  1  0  0  0  0  0999 V2000
  189.5710  172.4870  142.9260 N   0  0  0  0  0  2  0  0  0  0  0  0
  188.6660  172.8430  140.7870 N   0  0  0  0  0  2  0  0  0  0  0  0
  188.7550  173.2280  142.0160 C   0  0  0  0  0  0  0  0  0  0  0  0
  188.0530  174.4740  142.4450 C   0  0  0  0  0  2  0  0  0  0  0  0
  188.8940  175.6940  142.1050 C   0  0  0  0  0  2  0  0  0  0  0  0
  188.5830  178.1030  141.8030 C   0  0  0  0  0  2  0  0  0  0  0  0
  188.0650  176.9320  142.1730 C   0  0  0  0  0  0  0  0  0  0  0  0
  186.5960  176.8120  142.4330 C   0  0  0  0  0  2  0  0  0  0  0  0
  185.3060  178.6400  143.5180 C   0  0  0  0  0  3  0  0  0  0  0  0
  185.8900  178.1480  142.2280 C   0  0  2  0  0  3  0  0  0  0  0  0
  183.9880  178.7120  143.4030 C   0  0  0  0  0  3  0  0  0  0  0  0
  184.7220  177.9580  141.3800 N   0  0  0  0  0  0  0  0  0  0  0  0
  183.6720  178.2690  142.0590 C   0  0  0  0  0  0  0  0  0  0  0  0
  182.3020  178.2330  141.4840 C   0  0  0  0  0  2  0  0  0  0  0  0
  182.3580  177.7890  140.1640 O   0  0  0  0  0  1  0  0  0  0  0  0
  189.7670  172.9120  144.3030 C   0  0  0  0  0  2  0  0  0  0  0  0
  191.0240  173.7010  144.4170 C   0  0  0  0  0  3  0  0  0  0  0  0
  191.3530  174.4510  145.4760 C   0  0  0  0  0  3  0  0  0  0  0  0
  190.5650  174.6630  146.6200 O   0  0  0  0  0  0  0  0  0  0  0  0
  188.4030  175.6490  147.0670 C   0  0  0  0  0  2  0  0  0  0  0  0
  188.7590  177.5450  145.6070 C   0  0  0  0  0  2  0  0  0  0  0  0
  190.1010  176.8810  145.8170 C   0  0  0  0  0  2  0  0  0  0  0  0
  187.7440  176.4930  145.9930 C   0  0  2  0  0  3  0  0  0  0  0  0
  189.9020  175.8820  146.9410 C   0  0  2  0  0  3  0  0  0  0  0  0
  186.4760  177.1090  146.4860 C   0  0  0  0  0  0  0  0  0  0  0  0
  186.4930  178.2040  147.1100 O   0  0  0  0  0  1  0  0  0  0  0  0
  185.2680  176.4670  146.2550 O   0  0  0  0  0  0  0  0  0  0  0  0
  1 16  1  0  0  0  0
  2  3  2  0  0  0  0
  3  4  1  0  0  0  0
  3  1  1  0  0  0  0
  5  7  1  0  0  0  0
  5  4  1  0  0  0  0
  6  7  2  0  0  0  0
  7  8  1  0  0  0  0
 10  8  1  1  0  0  0
 10  9  1  0  0  0  0
 11  9  2  0  0  0  0
 12 13  2  0  0  0  0
 12 10  1  0  0  0  0
 13 11  1  0  0  0  0
 14 13  1  0  0  0  0
 15 14  1  0  0  0  0
 16 17  1  0  0  0  0
 17 18  2  0  0  0  0
 18 19  1  0  0  0  0
 21 22  1  0  0  0  0
 21 23  1  0  0  0  0
 22 24  1  0  0  0  0
 23 25  1  1  0  0  0
 23 20  1  0  0  0  0
 24 19  1  6  0  0  0
 24 20  1  0  0  0  0
 25 26  1  0  0  0  0
 27 25  2  0  0  0  0
M  END
>  <MODEL>
3

>  <REMARK>
 VINA RESULT:      -5.9      2.960      5.865
  Name = 
  11 active torsions:
  status: ('A' for Active; 'I' for Inactive)
    1  A    between atoms: C_3  and  C_18
    2  A    between atoms: C_3  and  C_22
    3  A    between atoms: C_6  and  C_27
    4  A    between atoms: C_7  and  C_19
    5  A    between atoms: C_8  and  CA_12
    6  A    between atoms: N_11  and  C_19
    7  A    between atoms: C_14  and  C_15
    8  A    between atoms: C_16  and  O_24
    9  A    between atoms: C_18  and  C_25
   10  A    between atoms: C_23  and  O_24
   11  A    between atoms: C_25  and  C_27
                            x       y       z     vdW  Elec       q    Type
                         _______ _______ _______ _____ _____    ______ ____

>  <TORSDO>
F 11

$$$$
=
 OpenBabel11062421093D

 27 28  0  0  1  0  0  0  0  0999 V2000
  186.0450  177.5850  140.7380 N   0  0  0  0  0  2  0  0  0  0  0  0
  187.5220  175.9670  139.8870 N   0  0  0  0  0  2  0  0  0  0  0  0
  187.2590  176.8330  140.8070 C   0  0  0  0  0  0  0  0  0  0  0  0
  188.2000  176.9880  141.9570 C   0  0  0  0  0  2  0  0  0  0  0  0
  188.1150  175.7760  142.8700 C   0  0  0  0  0  2  0  0  0  0  0  0
  189.3870  173.7440  142.3750 C   0  0  0  0  0  2  0  0  0  0  0  0
  189.3880  175.0000  142.8220 C   0  0  0  0  0  0  0  0  0  0  0  0
  190.6850  175.7090  143.0540 C   0  0  0  0  0  2  0  0  0  0  0  0
  191.1020  174.9750  145.3930 C   0  0  0  0  0  3  0  0  0  0  0  0
  191.5940  174.9060  143.9780 C   0  0  2  0  0  3  0  0  0  0  0  0
  192.0150  175.5690  146.1460 C   0  0  0  0  0  3  0  0  0  0  0  0
  192.9020  175.5410  144.0460 N   0  0  0  0  0  0  0  0  0  0  0  0
  193.1120  175.9100  145.2620 C   0  0  0  0  0  0  0  0  0  0  0  0
  194.3780  176.5560  145.7000 C   0  0  0  0  0  2  0  0  0  0  0  0
  194.1910  177.1580  146.9440 O   0  0  0  0  0  1  0  0  0  0  0  0
  185.6610  178.5220  141.7810 C   0  0  0  0  0  2  0  0  0  0  0  0
  184.3770  178.0960  142.4000 C   0  0  0  0  0  3  0  0  0  0  0  0
  183.9130  178.5510  143.5710 C   0  0  0  0  0  3  0  0  0  0  0  0
  184.5660  179.4520  144.4280 O   0  0  0  0  0  0  0  0  0  0  0  0
  186.6070  178.5270  145.3370 C   0  0  0  0  0  2  0  0  0  0  0  0
  185.4700  177.0100  146.8390 C   0  0  0  0  0  2  0  0  0  0  0  0
  184.4440  178.0040  146.3440 C   0  0  0  0  0  2  0  0  0  0  0  0
  186.6040  177.0980  145.8430 C   0  0  2  0  0  3  0  0  0  0  0  0
  185.2270  179.0960  145.6380 C   0  0  2  0  0  3  0  0  0  0  0  0
  187.9120  176.7400  146.4690 C   0  0  0  0  0  0  0  0  0  0  0  0
  188.8920  177.5300  146.4100 O   0  0  0  0  0  0  0  0  0  0  0  0
  188.0480  175.5230  147.1210 O   0  0  0  0  0  1  0  0  0  0  0  0
  1  3  1  0  0  0  0
  1 16  1  0  0  0  0
  2  3  2  0  0  0  0
  3  4  1  0  0  0  0
  4  5  1  0  0  0  0
  6  7  2  0  0  0  0
  7  5  1  0  0  0  0
  7  8  1  0  0  0  0
  9 11  2  0  0  0  0
 10  8  1  6  0  0  0
 10 12  1  0  0  0  0
 10  9  1  0  0  0  0
 12 13  2  0  0  0  0
 13 14  1  0  0  0  0
 13 11  1  0  0  0  0
 14 15  1  0  0  0  0
 16 17  1  0  0  0  0
 17 18  2  0  0  0  0
 18 19  1  0  0  0  0
 20 24  1  0  0  0  0
 20 23  1  0  0  0  0
 22 21  1  0  0  0  0
 23 25  1  1  0  0  0
 23 21  1  0  0  0  0
 24 19  1  6  0  0  0
 24 22  1  0  0  0  0
 25 27  1  0  0  0  0
 26 25  2  0  0  0  0
M  END
>  <MODEL>
4

>  <REMARK>
 VINA RESULT:      -5.9      2.265      6.142
  Name = 
  11 active torsions:
  status: ('A' for Active; 'I' for Inactive)
    1  A    between atoms: C_3  and  C_18
    2  A    between atoms: C_3  and  C_22
    3  A    between atoms: C_6  and  C_27
    4  A    between atoms: C_7  and  C_19
    5  A    between atoms: C_8  and  CA_12
    6  A    between atoms: N_11  and  C_19
    7  A    between atoms: C_14  and  C_15
    8  A    between atoms: C_16  and  O_24
    9  A    between atoms: C_18  and  C_25
   10  A    between atoms: C_23  and  O_24
   11  A    between atoms: C_25  and  C_27
                            x       y       z     vdW  Elec       q    Type
                         _______ _______ _______ _____ _____    ______ ____

>  <TORSDO>
F 11

$$$$
=
 OpenBabel11062421093D

 27 28  0  0  1  0  0  0  0  0999 V2000
  190.8350  175.4630  147.6780 N   0  0  0  0  0  2  0  0  0  0  0  0
  188.7520  174.3740  147.7020 N   0  0  0  0  0  2  0  0  0  0  0  0
  189.5210  175.2550  147.1550 C   0  0  0  0  0  0  0  0  0  0  0  0
  189.0430  175.9960  145.9490 C   0  0  0  0  0  2  0  0  0  0  0  0
  188.2980  177.2530  146.3670 C   0  0  0  0  0  2  0  0  0  0  0  0
  186.2700  177.1560  147.7360 C   0  0  0  0  0  2  0  0  0  0  0  0
  186.8470  176.9590  146.5490 C   0  0  0  0  0  0  0  0  0  0  0  0
  186.0040  176.6710  145.3470 C   0  0  0  0  0  2  0  0  0  0  0  0
  185.4320  179.0200  144.7640 C   0  0  0  0  0  3  0  0  0  0  0  0
  186.1340  177.7770  144.3060 C   0  0  2  0  0  3  0  0  0  0  0  0
  184.4420  179.2980  143.9280 C   0  0  0  0  0  3  0  0  0  0  0  0
  185.4050  177.4020  143.1030 N   0  0  0  0  0  0  0  0  0  0  0  0
  184.4600  178.2590  142.9170 C   0  0  0  0  0  0  0  0  0  0  0  0
  183.5420  178.2040  141.7490 C   0  0  0  0  0  2  0  0  0  0  0  0
  184.2850  178.1510  140.5700 O   0  0  0  0  0  1  0  0  0  0  0  0
  191.7700  176.3890  147.0610 C   0  0  0  0  0  2  0  0  0  0  0  0
  192.9510  175.6470  146.5410 C   0  0  0  0  0  3  0  0  0  0  0  0
  193.0210  175.0900  145.3260 C   0  0  0  0  0  3  0  0  0  0  0  0
  191.9950  175.0610  144.3670 O   0  0  0  0  0  0  0  0  0  0  0  0
  190.5000  174.2640  142.6420 C   0  0  0  0  0  2  0  0  0  0  0  0
  189.6610  172.4190  143.9610 C   0  0  0  0  0  2  0  0  0  0  0  0
  190.8990  172.9400  144.6550 C   0  0  0  0  0  2  0  0  0  0  0  0
  189.2290  173.5420  143.0470 C   0  0  2  0  0  3  0  0  0  0  0  0
  191.5550  173.8960  143.6760 C   0  0  2  0  0  3  0  0  0  0  0  0
  188.4930  173.0250  141.8540 C   0  0  0  0  0  0  0  0  0  0  0  0
  187.3060  172.6140  141.9590 O   0  0  0  0  0  1  0  0  0  0  0  0
  189.1240  172.9970  140.6190 O   0  0  0  0  0  0  0  0  0  0  0  0
  3  1  1  0  0  0  0
  3  2  2  0  0  0  0
  4  5  1  0  0  0  0
  4  3  1  0  0  0  0
  5  7  1  0  0  0  0
  7  6  2  0  0  0  0
  8  7  1  0  0  0  0
 10  9  1  0  0  0  0
 10  8  1  1  0  0  0
 11  9  2  0  0  0  0
 12 10  1  0  0  0  0
 13 12  2  0  0  0  0
 13 11  1  0  0  0  0
 14 13  1  0  0  0  0
 15 14  1  0  0  0  0
 16  1  1  0  0  0  0
 17 16  1  0  0  0  0
 18 17  2  0  0  0  0
 19 18  1  0  0  0  0
 20 23  1  0  0  0  0
 20 24  1  0  0  0  0
 21 22  1  0  0  0  0
 23 25  1  6  0  0  0
 23 21  1  0  0  0  0
 24 19  1  1  0  0  0
 24 22  1  0  0  0  0
 25 26  1  0  0  0  0
 27 25  2  0  0  0  0
M  END
>  <MODEL>
5

>  <REMARK>
 VINA RESULT:      -5.8      3.049      5.409
  Name = 
  11 active torsions:
  status: ('A' for Active; 'I' for Inactive)
    1  A    between atoms: C_3  and  C_18
    2  A    between atoms: C_3  and  C_22
    3  A    between atoms: C_6  and  C_27
    4  A    between atoms: C_7  and  C_19
    5  A    between atoms: C_8  and  CA_12
    6  A    between atoms: N_11  and  C_19
    7  A    between atoms: C_14  and  C_15
    8  A    between atoms: C_16  and  O_24
    9  A    between atoms: C_18  and  C_25
   10  A    between atoms: C_23  and  O_24
   11  A    between atoms: C_25  and  C_27
                            x       y       z     vdW  Elec       q    Type
                         _______ _______ _______ _____ _____    ______ ____

>  <TORSDO>
F 11

$$$$
=
 OpenBabel11062421093D

 27 28  0  0  1  0  0  0  0  0999 V2000
  192.4520  176.4460  143.9830 N   0  0  0  0  0  2  0  0  0  0  0  0
  190.7730  177.9420  143.3000 N   0  0  0  0  0  2  0  0  0  0  0  0
  191.1140  176.7250  143.5640 C   0  0  0  0  0  0  0  0  0  0  0  0
  190.0880  175.6430  143.4820 C   0  0  0  0  0  2  0  0  0  0  0  0
  190.0970  175.0160  142.0990 C   0  0  0  0  0  2  0  0  0  0  0  0
  188.4880  174.4000  140.3590 C   0  0  0  0  0  2  0  0  0  0  0  0
  188.7180  174.9970  141.5280 C   0  0  0  0  0  0  0  0  0  0  0  0
  187.5710  175.4430  142.3790 C   0  0  0  0  0  2  0  0  0  0  0  0
  187.6290  177.8010  141.5930 C   0  0  0  0  0  3  0  0  0  0  0  0
  186.7890  176.5640  141.7050 C   0  0  2  0  0  3  0  0  0  0  0  0
  187.0730  178.7740  142.3000 C   0  0  0  0  0  3  0  0  0  0  0  0
  185.6920  176.9800  142.5660 N   0  0  0  0  0  0  0  0  0  0  0  0
  185.8760  178.2120  142.8940 C   0  0  0  0  0  0  0  0  0  0  0  0
  184.9160  178.9740  143.7360 C   0  0  0  0  0  2  0  0  0  0  0  0
  185.6120  179.8690  144.5480 O   0  0  0  0  0  1  0  0  0  0  0  0
  192.8760  175.1080  144.3610 C   0  0  0  0  0  2  0  0  0  0  0  0
  193.2500  175.0810  145.8020 C   0  0  0  0  0  3  0  0  0  0  0  0
  192.3790  174.9440  146.8080 C   0  0  0  0  0  3  0  0  0  0  0  0
  190.9820  174.8560  146.6900 O   0  0  0  0  0  0  0  0  0  0  0  0
  188.6300  175.3520  146.9500 C   0  0  0  0  0  2  0  0  0  0  0  0
  188.9460  177.7500  146.9560 C   0  0  0  0  0  2  0  0  0  0  0  0
  190.3060  177.1180  147.1470 C   0  0  0  0  0  2  0  0  0  0  0  0
  188.0850  176.6480  146.3820 C   0  0  2  0  0  3  0  0  0  0  0  0
  190.0480  175.6470  147.4180 C   0  0  2  0  0  3  0  0  0  0  0  0
  186.6470  176.8360  146.7370 C   0  0  0  0  0  0  0  0  0  0  0  0
  186.3170  177.4310  147.7980 O   0  0  0  0  0  1  0  0  0  0  0  0
  185.6630  176.3490  145.8880 O   0  0  0  0  0  0  0  0  0  0  0  0
  1 16  1  0  0  0  0
  2  3  2  0  0  0  0
  3  1  1  0  0  0  0
  4  3  1  0  0  0  0
  5  4  1  0  0  0  0
  6  7  2  0  0  0  0
  7  5  1  0  0  0  0
  7  8  1  0  0  0  0
  9 10  1  0  0  0  0
  9 11  2  0  0  0  0
 10  8  1  1  0  0  0
 10 12  1  0  0  0  0
 11 13  1  0  0  0  0
 12 13  2  0  0  0  0
 13 14  1  0  0  0  0
 14 15  1  0  0  0  0
 16 17  1  0  0  0  0
 17 18  2  0  0  0  0
 19 18  1  0  0  0  0
 20 24  1  0  0  0  0
 21 22  1  0  0  0  0
 22 24  1  0  0  0  0
 23 25  1  1  0  0  0
 23 20  1  0  0  0  0
 23 21  1  0  0  0  0
 24 19  1  6  0  0  0
 25 26  1  0  0  0  0
 27 25  2  0  0  0  0
M  END
>  <MODEL>
6

>  <REMARK>
 VINA RESULT:      -5.8      2.379      5.397
  Name = 
  11 active torsions:
  status: ('A' for Active; 'I' for Inactive)
    1  A    between atoms: C_3  and  C_18
    2  A    between atoms: C_3  and  C_22
    3  A    between atoms: C_6  and  C_27
    4  A    between atoms: C_7  and  C_19
    5  A    between atoms: C_8  and  CA_12
    6  A    between atoms: N_11  and  C_19
    7  A    between atoms: C_14  and  C_15
    8  A    between atoms: C_16  and  O_24
    9  A    between atoms: C_18  and  C_25
   10  A    between atoms: C_23  and  O_24
   11  A    between atoms: C_25  and  C_27
                            x       y       z     vdW  Elec       q    Type
                         _______ _______ _______ _____ _____    ______ ____

>  <TORSDO>
F 11

$$$$
=
 OpenBabel11062421093D

 27 28  0  0  1  0  0  0  0  0999 V2000
  184.9090  179.3740  145.5400 N   0  0  0  0  0  2  0  0  0  0  0  0
  184.8520  178.3110  147.6360 N   0  0  0  0  0  2  0  0  0  0  0  0
  185.3670  178.3730  146.4530 C   0  0  0  0  0  0  0  0  0  0  0  0
  186.4700  177.4370  146.0840 C   0  0  0  0  0  2  0  0  0  0  0  0
  187.7790  177.9000  146.7020 C   0  0  0  0  0  2  0  0  0  0  0  0
  188.3560  175.5210  146.7080 C   0  0  0  0  0  2  0  0  0  0  0  0
  188.7720  176.7880  146.7080 C   0  0  0  0  0  0  0  0  0  0  0  0
  190.2180  177.0990  146.4800 C   0  0  0  0  0  2  0  0  0  0  0  0
  191.9300  175.3790  147.0190 C   0  0  0  0  0  3  0  0  0  0  0  0
  190.9720  175.8740  145.9770 C   0  0  2  0  0  3  0  0  0  0  0  0
  193.1680  175.4740  146.5570 C   0  0  0  0  0  3  0  0  0  0  0  0
  191.8420  176.2560  144.8750 N   0  0  0  0  0  0  0  0  0  0  0  0
  193.0630  176.0330  145.2240 C   0  0  0  0  0  0  0  0  0  0  0  0
  194.2160  176.2700  144.3160 C   0  0  0  0  0  2  0  0  0  0  0  0
  195.1870  177.0210  144.9770 O   0  0  0  0  0  1  0  0  0  0  0  0
  185.4990  179.5400  144.2220 C   0  0  0  0  0  2  0  0  0  0  0  0
  184.5810  178.9980  143.1830 C   0  0  0  0  0  3  0  0  0  0  0  0
  184.6730  177.7700  142.6570 C   0  0  0  0  0  3  0  0  0  0  0  0
  185.6620  176.8150  142.9470 O   0  0  0  0  0  0  0  0  0  0  0  0
  187.3360  175.1580  142.4030 C   0  0  0  0  0  2  0  0  0  0  0  0
  189.1900  176.6980  142.5940 C   0  0  0  0  0  2  0  0  0  0  0  0
  187.9250  177.5230  142.5490 C   0  0  0  0  0  2  0  0  0  0  0  0
  188.7320  175.3090  142.9740 C   0  0  2  0  0  3  0  0  0  0  0  0
  186.8160  176.5670  142.1510 C   0  0  2  0  0  3  0  0  0  0  0  0
  189.6540  174.2620  142.4410 C   0  0  0  0  0  0  0  0  0  0  0  0
  189.2540  173.0800  142.2640 O   0  0  0  0  0  1  0  0  0  0  0  0
  190.9670  174.5950  142.1380 O   0  0  0  0  0  0  0  0  0  0  0  0
  1  3  1  0  0  0  0
  3  2  2  0  0  0  0
  4  3  1  0  0  0  0
  4  5  1  0  0  0  0
  5  7  1  0  0  0  0
  7  6  2  0  0  0  0
  8  7  1  0  0  0  0
 10  8  1  1  0  0  0
 10  9  1  0  0  0  0
 11  9  2  0  0  0  0
 12 13  2  0  0  0  0
 12 10  1  0  0  0  0
 13 11  1  0  0  0  0
 14 15  1  0  0  0  0
 14 13  1  0  0  0  0
 16  1  1  0  0  0  0
 17 16  1  0  0  0  0
 18 19  1  0  0  0  0
 18 17  2  0  0  0  0
 20 23  1  0  0  0  0
 21 23  1  0  0  0  0
 22 21  1  0  0  0  0
 23 25  1  6  0  0  0
 24 20  1  0  0  0  0
 24 22  1  0  0  0  0
 24 19  1  1  0  0  0
 26 25  1  0  0  0  0
 27 25  2  0  0  0  0
M  END
>  <MODEL>
7

>  <REMARK>
 VINA RESULT:      -5.8      2.161      5.326
  Name = 
  11 active torsions:
  status: ('A' for Active; 'I' for Inactive)
    1  A    between atoms: C_3  and  C_18
    2  A    between atoms: C_3  and  C_22
    3  A    between atoms: C_6  and  C_27
    4  A    between atoms: C_7  and  C_19
    5  A    between atoms: C_8  and  CA_12
    6  A    between atoms: N_11  and  C_19
    7  A    between atoms: C_14  and  C_15
    8  A    between atoms: C_16  and  O_24
    9  A    between atoms: C_18  and  C_25
   10  A    between atoms: C_23  and  O_24
   11  A    between atoms: C_25  and  C_27
                            x       y       z     vdW  Elec       q    Type
                         _______ _______ _______ _____ _____    ______ ____

>  <TORSDO>
F 11

$$$$
=
 OpenBabel11062421093D

 27 28  0  0  1  0  0  0  0  0999 V2000
  188.7060  174.1140  142.0110 N   0  0  0  0  0  2  0  0  0  0  0  0
  189.1940  171.9920  142.8960 N   0  0  0  0  0  2  0  0  0  0  0  0
  189.3870  173.2680  142.9410 C   0  0  0  0  0  0  0  0  0  0  0  0
  190.2700  173.8380  144.0010 C   0  0  0  0  0  2  0  0  0  0  0  0
  189.6910  173.5520  145.3760 C   0  0  0  0  0  2  0  0  0  0  0  0
  189.3910  174.9090  147.3920 C   0  0  0  0  0  2  0  0  0  0  0  0
  189.3300  174.8270  146.0630 C   0  0  0  0  0  0  0  0  0  0  0  0
  189.1300  176.0640  145.2460 C   0  0  0  0  0  2  0  0  0  0  0  0
  190.3670  178.0400  144.3790 C   0  0  0  0  0  3  0  0  0  0  0  0
  190.2150  177.0960  145.5340 C   0  0  2  0  0  3  0  0  0  0  0  0
  191.5840  177.9190  143.8710 C   0  0  0  0  0  3  0  0  0  0  0  0
  191.5100  176.4350  145.6010 N   0  0  0  0  0  0  0  0  0  0  0  0
  192.2540  176.9030  144.6590 C   0  0  0  0  0  0  0  0  0  0  0  0
  193.6660  176.4790  144.4620 C   0  0  0  0  0  2  0  0  0  0  0  0
  193.9310  176.3480  143.1000 O   0  0  0  0  0  1  0  0  0  0  0  0
  188.8270  175.5620  142.0580 C   0  0  0  0  0  2  0  0  0  0  0  0
  187.8360  176.1860  141.1400 C   0  0  0  0  0  3  0  0  0  0  0  0
  187.0820  177.2480  141.4470 C   0  0  0  0  0  3  0  0  0  0  0  0
  187.0550  177.9160  142.6830 O   0  0  0  0  0  0  0  0  0  0  0  0
  186.2000  178.9070  144.7160 C   0  0  0  0  0  2  0  0  0  0  0  0
  185.5700  176.7900  145.7020 C   0  0  0  0  0  2  0  0  0  0  0  0
  185.8430  176.5390  144.2370 C   0  0  0  0  0  2  0  0  0  0  0  0
  186.2520  178.1050  146.0020 C   0  0  2  0  0  3  0  0  0  0  0  0
  185.9600  177.9080  143.5930 C   0  0  2  0  0  3  0  0  0  0  0  0
  185.5800  178.8280  147.1220 C   0  0  0  0  0  0  0  0  0  0  0  0
  184.3500  178.6640  147.3480 O   0  0  0  0  0  0  0  0  0  0  0  0
  186.3170  179.6910  147.9210 O   0  0  0  0  0  1  0  0  0  0  0  0
  1 16  1  0  0  0  0
  1  3  1  0  0  0  0
  2  3  2  0  0  0  0
  3  4  1  0  0  0  0
  4  5  1  0  0  0  0
  5  7  1  0  0  0  0
  7  6  2  0  0  0  0
  8  7  1  0  0  0  0
  9 10  1  0  0  0  0
 10  8  1  6  0  0  0
 10 12  1  0  0  0  0
 11  9  2  0  0  0  0
 11 13  1  0  0  0  0
 13 12  2  0  0  0  0
 14 13  1  0  0  0  0
 15 14  1  0  0  0  0
 17 18  2  0  0  0  0
 17 16  1  0  0  0  0
 18 19  1  0  0  0  0
 20 23  1  0  0  0  0
 21 23  1  0  0  0  0
 22 21  1  0  0  0  0
 23 25  1  1  0  0  0
 24 19  1  6  0  0  0
 24 22  1  0  0  0  0
 24 20  1  0  0  0  0
 25 26  2  0  0  0  0
 25 27  1  0  0  0  0
M  END
>  <MODEL>
8

>  <REMARK>
 VINA RESULT:      -5.7      2.842      6.662
  Name = 
  11 active torsions:
  status: ('A' for Active; 'I' for Inactive)
    1  A    between atoms: C_3  and  C_18
    2  A    between atoms: C_3  and  C_22
    3  A    between atoms: C_6  and  C_27
    4  A    between atoms: C_7  and  C_19
    5  A    between atoms: C_8  and  CA_12
    6  A    between atoms: N_11  and  C_19
    7  A    between atoms: C_14  and  C_15
    8  A    between atoms: C_16  and  O_24
    9  A    between atoms: C_18  and  C_25
   10  A    between atoms: C_23  and  O_24
   11  A    between atoms: C_25  and  C_27
                            x       y       z     vdW  Elec       q    Type
                         _______ _______ _______ _____ _____    ______ ____

>  <TORSDO>
F 11

$$$$
=
 OpenBabel11062421093D

 27 28  0  0  1  0  0  0  0  0999 V2000
  189.3120  177.1280  142.0500 N   0  0  0  0  0  2  0  0  0  0  0  0
  190.8090  178.2950  143.4350 N   0  0  0  0  0  2  0  0  0  0  0  0
  189.7570  177.5530  143.3400 C   0  0  0  0  0  0  0  0  0  0  0  0
  189.0620  177.1060  144.5840 C   0  0  0  0  0  2  0  0  0  0  0  0
  190.0220  177.1360  145.7610 C   0  0  0  0  0  2  0  0  0  0  0  0
  189.5060  175.1010  147.0210 C   0  0  0  0  0  2  0  0  0  0  0  0
  190.3400  175.7480  146.2070 C   0  0  0  0  0  0  0  0  0  0  0  0
  191.4690  175.0130  145.5550 C   0  0  0  0  0  2  0  0  0  0  0  0
  193.1810  176.3220  146.7950 C   0  0  0  0  0  3  0  0  0  0  0  0
  192.6840  174.9440  146.4740 C   0  0  2  0  0  3  0  0  0  0  0  0
  194.4090  176.4670  146.3220 C   0  0  0  0  0  3  0  0  0  0  0  0
  193.8000  174.3420  145.7600 N   0  0  0  0  0  0  0  0  0  0  0  0
  194.7480  175.2120  145.6790 C   0  0  0  0  0  0  0  0  0  0  0  0
  196.0610  174.9160  145.0480 C   0  0  0  0  0  2  0  0  0  0  0  0
  196.2290  173.5360  144.9400 O   0  0  0  0  0  1  0  0  0  0  0  0
  188.1770  176.2350  141.8840 C   0  0  0  0  0  2  0  0  0  0  0  0
  187.1590  176.8650  141.0000 C   0  0  0  0  0  3  0  0  0  0  0  0
  186.4190  177.9290  141.3340 C   0  0  0  0  0  3  0  0  0  0  0  0
  186.4350  178.5940  142.5720 O   0  0  0  0  0  0  0  0  0  0  0  0
  185.8120  179.3020  144.7980 C   0  0  0  0  0  2  0  0  0  0  0  0
  185.4920  177.0520  145.6250 C   0  0  0  0  0  2  0  0  0  0  0  0
  185.5690  176.9690  144.1180 C   0  0  0  0  0  2  0  0  0  0  0  0
  186.1100  178.3880  145.9700 C   0  0  2  0  0  3  0  0  0  0  0  0
  185.4870  178.3990  143.6160 C   0  0  2  0  0  3  0  0  0  0  0  0
  185.5550  178.9360  147.2440 C   0  0  0  0  0  0  0  0  0  0  0  0
  184.3800  178.6560  147.6070 O   0  0  0  0  0  0  0  0  0  0  0  0
  186.3400  179.7620  148.0340 O   0  0  0  0  0  1  0  0  0  0  0  0
  1  3  1  0  0  0  0
  3  2  2  0  0  0  0
  3  4  1  0  0  0  0
  4  5  1  0  0  0  0
  5  7  1  0  0  0  0
  7  6  2  0  0  0  0
  8  7  1  0  0  0  0
 10  8  1  6  0  0  0
 10  9  1  0  0  0  0
 11  9  2  0  0  0  0
 12 10  1  0  0  0  0
 13 12  2  0  0  0  0
 13 11  1  0  0  0  0
 14 13  1  0  0  0  0
 15 14  1  0  0  0  0
 16  1  1  0  0  0  0
 17 18  2  0  0  0  0
 17 16  1  0  0  0  0
 18 19  1  0  0  0  0
 20 23  1  0  0  0  0
 21 23  1  0  0  0  0
 22 21  1  0  0  0  0
 23 25  1  1  0  0  0
 24 19  1  6  0  0  0
 24 22  1  0  0  0  0
 24 20  1  0  0  0  0
 25 26  2  0  0  0  0
 25 27  1  0  0  0  0
M  END
>  <MODEL>
9

>  <REMARK>
 VINA RESULT:      -5.7      2.712      7.136
  Name = 
  11 active torsions:
  status: ('A' for Active; 'I' for Inactive)
    1  A    between atoms: C_3  and  C_18
    2  A    between atoms: C_3  and  C_22
    3  A    between atoms: C_6  and  C_27
    4  A    between atoms: C_7  and  C_19
    5  A    between atoms: C_8  and  CA_12
    6  A    between atoms: N_11  and  C_19
    7  A    between atoms: C_14  and  C_15
    8  A    between atoms: C_16  and  O_24
    9  A    between atoms: C_18  and  C_25
   10  A    between atoms: C_23  and  O_24
   11  A    between atoms: C_25  and  C_27
                            x       y       z     vdW  Elec       q    Type
                         _______ _______ _______ _____ _____    ______ ____

>  <TORSDO>
F 11

$$$$
