=
 OpenBabel11062421083D

 27 29  0  0  1  0  0  0  0  0999 V2000
  191.6320  174.3740  143.9540 C   0  0  0  0  0  0  0  0  0  0  0  0
  187.4210  175.2670  142.3900 C   0  0  0  0  0  2  0  0  0  0  0  0
  190.2120  174.1500  141.4160 O   0  0  0  0  0  1  0  0  0  0  0  0
  188.7830  175.1260  143.1100 C   0  0  2  0  0  3  0  0  0  0  0  0
  194.2160  177.0650  146.4060 N   0  0  0  0  0  1  0  0  0  0  0  0
  190.5920  173.3510  143.6500 C   0  0  2  0  0  3  0  0  0  0  0  0
  194.0010  176.2450  144.1170 N   0  0  0  0  0  0  0  0  0  0  0  0
  193.4150  176.4250  145.4140 C   0  0  0  0  0  0  0  0  0  0  0  0
  191.1720  175.5660  144.7130 C   0  0  2  0  0  3  0  0  0  0  0  0
  189.6100  176.4230  143.0700 C   0  0  0  0  0  0  0  0  0  0  0  0
  193.7360  175.3790  143.1820 C   0  0  0  0  0  3  0  0  0  0  0  0
  190.6670  176.5880  143.8110 N   0  0  0  0  0  0  0  0  0  0  0  0
  188.0090  177.4710  141.5010 C   0  0  0  0  0  2  0  0  0  0  0  0
  192.7200  174.3710  143.2470 N   0  0  0  0  0  0  0  0  0  0  0  0
  189.5590  173.8580  142.6180 C   0  0  2  0  0  0  0  0  0  0  0  0
  189.9680  172.9360  144.8310 O   0  0  0  0  0  1  0  0  0  0  0  0
  186.9390  176.7020  142.2490 C   0  0  0  0  0  2  0  0  0  0  0  0
  189.1990  177.5030  142.2800 O   0  0  0  0  0  0  0  0  0  0  0  0
  192.1460  176.0950  145.7100 C   0  0  0  0  0  0  0  0  0  0  0  0
  188.6080  172.6940  142.3500 C   0  0  0  0  0  1  0  0  0  0  0  0
  191.5910  176.3590  147.0780 C   0  0  0  0  0  2  0  0  0  0  0  0
  190.2410  175.6810  147.2580 C   0  0  0  0  0  2  0  0  0  0  0  0
  189.1740  176.6640  147.1620 N   0  0  0  0  0  2  0  0  0  0  0  0
  187.9860  175.9550  146.7140 C   0  0  0  0  0  2  0  0  0  0  0  0
  185.5750  176.6870  146.1760 C   0  0  0  0  0  1  0  0  0  0  0  0
  187.0440  176.9030  146.0520 C   0  0  0  0  0  0  0  0  0  0  0  0
  187.4990  178.0240  145.4990 C   0  0  0  0  0  2  0  0  0  0  0  0
  1  9  1  0  0  0  0
  3 15  1  0  0  0  0
  4  2  1  6  0  0  0
  6  1  1  0  0  0  0
  6 16  1  1  0  0  0
  7  8  1  0  0  0  0
  8 19  2  0  0  0  0
  8  5  1  0  0  0  0
  9 12  1  6  0  0  0
  9 19  1  0  0  0  0
 10  4  1  0  0  0  0
 10 12  2  0  0  0  0
 11 14  1  0  0  0  0
 11  7  2  0  0  0  0
 13 17  1  0  0  0  0
 13 18  1  0  0  0  0
 14  1  2  0  0  0  0
 15 20  1  6  0  0  0
 15  4  1  0  0  0  0
 15  6  1  0  0  0  0
 17  2  1  0  0  0  0
 18 10  1  0  0  0  0
 19 21  1  0  0  0  0
 21 22  1  0  0  0  0
 23 22  1  0  0  0  0
 24 23  1  0  0  0  0
 26 25  1  0  0  0  0
 26 24  1  0  0  0  0
 27 26  2  0  0  0  0
M  END
>  <MODEL>
1

>  <REMARK>
 VINA RESULT:      -6.4      0.000      0.000
  Name = 
  5 active torsions:
  status: ('A' for Active; 'I' for Inactive)
    1  A    between atoms: C_11  and  C_15
    2  A    between atoms: C_11  and  N_23
    3  A    between atoms: C_14  and  C_16
    4  A    between atoms: C_15  and  C_26
    5  A    between atoms: C_16  and  N_23
                            x       y       z     vdW  Elec       q    Type
                         _______ _______ _______ _____ _____    ______ ____

>  <TORSDO>
F 5

$$$$
=
 OpenBabel11062421083D

 27 29  0  0  1  0  0  0  0  0999 V2000
  189.5640  175.9500  144.1640 C   0  0  0  0  0  0  0  0  0  0  0  0
  187.1790  178.2190  147.3480 C   0  0  0  0  0  2  0  0  0  0  0  0
  188.9920  175.6540  147.0080 O   0  0  0  0  0  1  0  0  0  0  0  0
  187.8390  177.5810  146.1030 C   0  0  2  0  0  3  0  0  0  0  0  0
  188.1800  174.8040  140.0770 N   0  0  0  0  0  1  0  0  0  0  0  0
  190.1530  176.7940  145.2410 C   0  0  2  0  0  3  0  0  0  0  0  0
  188.5840  173.8080  142.2680 N   0  0  0  0  0  0  0  0  0  0  0  0
  188.3960  174.9890  141.4750 C   0  0  0  0  0  0  0  0  0  0  0  0
  188.3960  176.5270  143.4480 C   0  0  2  0  0  3  0  0  0  0  0  0
  186.8800  176.6550  145.3350 C   0  0  0  0  0  0  0  0  0  0  0  0
  189.1910  173.6440  143.4070 C   0  0  0  0  0  3  0  0  0  0  0  0
  187.1590  176.2130  144.1430 N   0  0  0  0  0  0  0  0  0  0  0  0
  185.1820  176.8200  147.1270 C   0  0  0  0  0  2  0  0  0  0  0  0
  189.8220  174.6790  144.1710 N   0  0  0  0  0  0  0  0  0  0  0  0
  189.2140  176.9220  146.4620 C   0  0  2  0  0  0  0  0  0  0  0  0
  190.4970  178.0510  144.7320 O   0  0  0  0  0  1  0  0  0  0  0  0
  185.6600  178.2480  147.3000 C   0  0  0  0  0  2  0  0  0  0  0  0
  185.6330  176.3200  145.8740 O   0  0  0  0  0  0  0  0  0  0  0  0
  188.3390  176.2300  141.9880 C   0  0  0  0  0  0  0  0  0  0  0  0
  189.9680  177.7440  147.5040 C   0  0  0  0  0  1  0  0  0  0  0  0
  188.0920  177.4100  141.0970 C   0  0  0  0  0  2  0  0  0  0  0  0
  186.6000  177.6570  140.9210 C   0  0  0  0  0  2  0  0  0  0  0  0
  186.1790  178.7730  141.7520 N   0  0  0  0  0  2  0  0  0  0  0  0
  184.9520  178.3640  142.4170 C   0  0  0  0  0  2  0  0  0  0  0  0
  183.5260  178.9560  144.4790 C   0  0  0  0  0  1  0  0  0  0  0  0
  184.7390  179.1830  143.6450 C   0  0  0  0  0  0  0  0  0  0  0  0
  185.6990  179.9900  144.0870 C   0  0  0  0  0  2  0  0  0  0  0  0
  1 14  2  0  0  0  0
  1  6  1  0  0  0  0
  4 15  1  0  0  0  0
  4  2  1  1  0  0  0
  5  8  1  0  0  0  0
  6 16  1  6  0  0  0
  6 15  1  0  0  0  0
  7 11  2  0  0  0  0
  8 19  2  0  0  0  0
  8  7  1  0  0  0  0
  9 19  1  6  0  0  0
  9 12  1  0  0  0  0
  9  1  1  0  0  0  0
 10 18  1  0  0  0  0
 10  4  1  0  0  0  0
 11 14  1  0  0  0  0
 12 10  2  0  0  0  0
 13 17  1  0  0  0  0
 15  3  1  0  0  0  0
 15 20  1  1  0  0  0
 17  2  1  0  0  0  0
 18 13  1  0  0  0  0
 21 19  1  0  0  0  0
 22 21  1  0  0  0  0
 22 23  1  0  0  0  0
 23 24  1  0  0  0  0
 24 26  1  0  0  0  0
 26 27  2  0  0  0  0
 26 25  1  0  0  0  0
M  END
>  <MODEL>
2

>  <REMARK>
 VINA RESULT:      -6.4      2.735      5.399
  Name = 
  5 active torsions:
  status: ('A' for Active; 'I' for Inactive)
    1  A    between atoms: C_11  and  C_15
    2  A    between atoms: C_11  and  N_23
    3  A    between atoms: C_14  and  C_16
    4  A    between atoms: C_15  and  C_26
    5  A    between atoms: C_16  and  N_23
                            x       y       z     vdW  Elec       q    Type
                         _______ _______ _______ _____ _____    ______ ____

>  <TORSDO>
F 5

$$$$
=
 OpenBabel11062421083D

 27 29  0  0  1  0  0  0  0  0999 V2000
  189.0720  176.0300  143.0880 C   0  0  0  0  0  0  0  0  0  0  0  0
  185.4260  177.1200  145.6370 C   0  0  0  0  0  2  0  0  0  0  0  0
  187.3860  178.3740  143.4990 O   0  0  0  0  0  1  0  0  0  0  0  0
  186.6910  176.5600  144.9450 C   0  0  2  0  0  3  0  0  0  0  0  0
  192.8000  173.9940  144.4620 N   0  0  0  0  0  1  0  0  0  0  0  0
  187.6780  176.1730  142.5800 C   0  0  2  0  0  3  0  0  0  0  0  0
  191.9960  176.2120  143.8350 N   0  0  0  0  0  0  0  0  0  0  0  0
  191.6940  174.8620  144.2170 C   0  0  0  0  0  0  0  0  0  0  0  0
  189.2290  175.2650  144.3530 C   0  0  2  0  0  3  0  0  0  0  0  0
  187.9600  176.7420  145.7950 C   0  0  0  0  0  0  0  0  0  0  0  0
  191.2910  177.0780  143.1650 C   0  0  0  0  0  3  0  0  0  0  0  0
  189.0750  176.1370  145.5050 N   0  0  0  0  0  0  0  0  0  0  0  0
  186.7420  178.1490  147.4260 C   0  0  0  0  0  2  0  0  0  0  0  0
  189.9710  176.8590  142.6560 N   0  0  0  0  0  0  0  0  0  0  0  0
  186.8210  177.0950  143.4780 C   0  0  2  0  0  0  0  0  0  0  0  0
  187.0880  174.9140  142.4350 O   0  0  0  0  0  1  0  0  0  0  0  0
  185.5520  177.2540  147.1460 C   0  0  0  0  0  2  0  0  0  0  0  0
  187.9280  177.5170  146.9610 O   0  0  0  0  0  0  0  0  0  0  0  0
  190.4460  174.4080  144.4260 C   0  0  0  0  0  0  0  0  0  0  0  0
  185.4560  177.2070  142.8050 C   0  0  0  0  0  1  0  0  0  0  0  0
  190.2170  172.9950  144.8710 C   0  0  0  0  0  2  0  0  0  0  0  0
  189.3940  172.2280  143.8460 C   0  0  0  0  0  2  0  0  0  0  0  0
  190.1590  172.0590  142.6200 N   0  0  0  0  0  2  0  0  0  0  0  0
  189.2480  172.3170  141.5170 C   0  0  0  0  0  2  0  0  0  0  0  0
  188.9630  174.0040  139.5910 C   0  0  0  0  0  1  0  0  0  0  0  0
  189.8330  173.3350  140.5970 C   0  0  0  0  0  0  0  0  0  0  0  0
  191.0780  173.7680  140.7820 C   0  0  0  0  0  2  0  0  0  0  0  0
  2 17  1  0  0  0  0
  4  2  1  1  0  0  0
  4 10  1  0  0  0  0
  6 16  1  1  0  0  0
  6  1  1  0  0  0  0
  6 15  1  0  0  0  0
  7  8  1  0  0  0  0
  8 19  2  0  0  0  0
  8  5  1  0  0  0  0
  9  1  1  6  0  0  0
  9 19  1  0  0  0  0
  9 12  1  0  0  0  0
 10 18  1  0  0  0  0
 11  7  2  0  0  0  0
 12 10  2  0  0  0  0
 14  1  2  0  0  0  0
 14 11  1  0  0  0  0
 15 20  1  6  0  0  0
 15  3  1  0  0  0  0
 15  4  1  0  0  0  0
 17 13  1  0  0  0  0
 18 13  1  0  0  0  0
 19 21  1  0  0  0  0
 22 21  1  0  0  0  0
 23 22  1  0  0  0  0
 24 23  1  0  0  0  0
 25 26  1  0  0  0  0
 26 27  2  0  0  0  0
 26 24  1  0  0  0  0
M  END
>  <MODEL>
3

>  <REMARK>
 VINA RESULT:      -6.3      2.036      4.747
  Name = 
  5 active torsions:
  status: ('A' for Active; 'I' for Inactive)
    1  A    between atoms: C_11  and  C_15
    2  A    between atoms: C_11  and  N_23
    3  A    between atoms: C_14  and  C_16
    4  A    between atoms: C_15  and  C_26
    5  A    between atoms: C_16  and  N_23
                            x       y       z     vdW  Elec       q    Type
                         _______ _______ _______ _____ _____    ______ ____

>  <TORSDO>
F 5

$$$$
=
 OpenBabel11062421083D

 27 29  0  0  1  0  0  0  0  0999 V2000
  191.4260  174.3810  143.0110 C   0  0  0  0  0  0  0  0  0  0  0  0
  187.0710  175.7400  142.6020 C   0  0  0  0  0  2  0  0  0  0  0  0
  189.4320  174.5280  140.8870 O   0  0  0  0  0  1  0  0  0  0  0  0
  188.5440  175.4240  142.9540 C   0  0  2  0  0  3  0  0  0  0  0  0
  194.7620  176.6050  144.9740 N   0  0  0  0  0  1  0  0  0  0  0  0
  190.2490  173.4740  142.8860 C   0  0  2  0  0  3  0  0  0  0  0  0
  193.9350  176.0460  142.7470 N   0  0  0  0  0  0  0  0  0  0  0  0
  193.6910  176.1320  144.1580 C   0  0  0  0  0  0  0  0  0  0  0  0
  191.2740  175.5180  143.9560 C   0  0  2  0  0  3  0  0  0  0  0  0
  189.4590  176.6540  142.8210 C   0  0  0  0  0  0  0  0  0  0  0  0
  193.3750  175.3030  141.8360 C   0  0  0  0  0  3  0  0  0  0  0  0
  190.6720  176.6630  143.2930 N   0  0  0  0  0  0  0  0  0  0  0  0
  187.6420  177.9740  141.7830 C   0  0  0  0  0  2  0  0  0  0  0  0
  192.3100  174.3720  142.0620 N   0  0  0  0  0  0  0  0  0  0  0  0
  189.0550  174.1600  142.1830 C   0  0  2  0  0  0  0  0  0  0  0  0
  189.8850  172.9850  144.1440 O   0  0  0  0  0  1  0  0  0  0  0  0
  186.7090  177.2120  142.7020 C   0  0  0  0  0  2  0  0  0  0  0  0
  188.9790  177.8380  142.2480 O   0  0  0  0  0  0  0  0  0  0  0  0
  192.5020  175.8680  144.7260 C   0  0  0  0  0  0  0  0  0  0  0  0
  187.9600  173.1040  142.0600 C   0  0  0  0  0  1  0  0  0  0  0  0
  192.3140  176.0270  146.2050 C   0  0  0  0  0  2  0  0  0  0  0  0
  191.4380  174.9160  146.7660 C   0  0  0  0  0  2  0  0  0  0  0  0
  190.3700  175.4840  147.5730 N   0  0  0  0  0  2  0  0  0  0  0  0
  189.1220  175.1850  146.8900 C   0  0  0  0  0  2  0  0  0  0  0  0
  189.1320  177.7140  146.3940 C   0  0  0  0  0  1  0  0  0  0  0  0
  188.3780  176.4470  146.6080 C   0  0  0  0  0  0  0  0  0  0  0  0
  187.0680  176.4160  146.3800 C   0  0  0  0  0  2  0  0  0  0  0  0
  2 17  1  0  0  0  0
  3 15  1  0  0  0  0
  4  2  1  6  0  0  0
  6  1  1  0  0  0  0
  6 16  1  1  0  0  0
  7  8  1  0  0  0  0
  8 19  2  0  0  0  0
  8  5  1  0  0  0  0
  9  1  1  6  0  0  0
  9 19  1  0  0  0  0
 10  4  1  0  0  0  0
 10 12  2  0  0  0  0
 11 14  1  0  0  0  0
 11  7  2  0  0  0  0
 12  9  1  0  0  0  0
 13 18  1  0  0  0  0
 13 17  1  0  0  0  0
 14  1  2  0  0  0  0
 15 20  1  6  0  0  0
 15  6  1  0  0  0  0
 15  4  1  0  0  0  0
 18 10  1  0  0  0  0
 19 21  1  0  0  0  0
 21 22  1  0  0  0  0
 22 23  1  0  0  0  0
 24 23  1  0  0  0  0
 25 26  1  0  0  0  0
 26 24  1  0  0  0  0
 27 26  2  0  0  0  0
M  END
>  <MODEL>
4

>  <REMARK>
 VINA RESULT:      -6.2      1.031      1.307
  Name = 
  5 active torsions:
  status: ('A' for Active; 'I' for Inactive)
    1  A    between atoms: C_11  and  C_15
    2  A    between atoms: C_11  and  N_23
    3  A    between atoms: C_14  and  C_16
    4  A    between atoms: C_15  and  C_26
    5  A    between atoms: C_16  and  N_23
                            x       y       z     vdW  Elec       q    Type
                         _______ _______ _______ _____ _____    ______ ____

>  <TORSDO>
F 5

$$$$
=
 OpenBabel11062421083D

 27 29  0  0  1  0  0  0  0  0999 V2000
  189.8240  174.3860  144.7560 C   0  0  0  0  0  0  0  0  0  0  0  0
  193.9310  174.8810  142.7910 C   0  0  0  0  0  2  0  0  0  0  0  0
  192.4120  173.0470  144.8670 O   0  0  0  0  0  1  0  0  0  0  0  0
  192.5040  174.9590  143.3840 C   0  0  2  0  0  3  0  0  0  0  0  0
  187.3430  177.5840  146.6400 N   0  0  0  0  0  1  0  0  0  0  0  0
  190.3750  173.5120  143.6820 C   0  0  2  0  0  3  0  0  0  0  0  0
  188.7800  175.7130  147.2640 N   0  0  0  0  0  0  0  0  0  0  0  0
  188.3340  176.6320  146.2570 C   0  0  0  0  0  0  0  0  0  0  0  0
  189.9950  175.8500  144.5580 C   0  0  2  0  0  3  0  0  0  0  0  0
  192.4170  175.9080  144.5910 C   0  0  0  0  0  0  0  0  0  0  0  0
  189.3090  174.5290  147.1530 C   0  0  0  0  0  3  0  0  0  0  0  0
  191.2750  176.2950  145.0820 N   0  0  0  0  0  0  0  0  0  0  0  0
  194.8770  176.1710  144.6430 C   0  0  0  0  0  2  0  0  0  0  0  0
  189.5980  173.8600  145.9190 N   0  0  0  0  0  0  0  0  0  0  0  0
  191.9200  173.5300  143.6510 C   0  0  2  0  0  0  0  0  0  0  0  0
  189.8380  173.8780  142.4430 O   0  0  0  0  0  1  0  0  0  0  0  0
  194.8120  176.0720  143.1330 C   0  0  0  0  0  2  0  0  0  0  0  0
  193.5800  176.4480  145.1550 O   0  0  0  0  0  0  0  0  0  0  0  0
  188.8510  176.6880  145.0170 C   0  0  0  0  0  0  0  0  0  0  0  0
  192.3430  172.5460  142.5630 C   0  0  0  0  0  1  0  0  0  0  0  0
  188.3630  177.7110  144.0360 C   0  0  0  0  0  2  0  0  0  0  0  0
  187.4030  177.0880  143.0330 C   0  0  0  0  0  2  0  0  0  0  0  0
  186.3110  178.0070  142.7540 N   0  0  0  0  0  2  0  0  0  0  0  0
  185.2350  177.6760  143.6740 C   0  0  0  0  0  2  0  0  0  0  0  0
  184.0230  178.7220  145.6920 C   0  0  0  0  0  1  0  0  0  0  0  0
  184.8440  178.8810  144.4600 C   0  0  0  0  0  0  0  0  0  0  0  0
  185.3600  180.0710  144.1630 C   0  0  0  0  0  2  0  0  0  0  0  0
  1 14  2  0  0  0  0
  2 17  1  0  0  0  0
  4  2  1  1  0  0  0
  4 15  1  0  0  0  0
  4 10  1  0  0  0  0
  6 16  1  6  0  0  0
  6  1  1  0  0  0  0
  8  5  1  0  0  0  0
  8  7  1  0  0  0  0
  9  1  1  1  0  0  0
  9 19  1  0  0  0  0
  9 12  1  0  0  0  0
 10 12  2  0  0  0  0
 10 18  1  0  0  0  0
 11  7  2  0  0  0  0
 13 18  1  0  0  0  0
 14 11  1  0  0  0  0
 15 20  1  6  0  0  0
 15  6  1  0  0  0  0
 15  3  1  0  0  0  0
 17 13  1  0  0  0  0
 19  8  2  0  0  0  0
 21 19  1  0  0  0  0
 22 21  1  0  0  0  0
 23 22  1  0  0  0  0
 23 24  1  0  0  0  0
 24 26  1  0  0  0  0
 26 25  1  0  0  0  0
 27 26  2  0  0  0  0
M  END
>  <MODEL>
5

>  <REMARK>
 VINA RESULT:      -6.1      2.213      4.612
  Name = 
  5 active torsions:
  status: ('A' for Active; 'I' for Inactive)
    1  A    between atoms: C_11  and  C_15
    2  A    between atoms: C_11  and  N_23
    3  A    between atoms: C_14  and  C_16
    4  A    between atoms: C_15  and  C_26
    5  A    between atoms: C_16  and  N_23
                            x       y       z     vdW  Elec       q    Type
                         _______ _______ _______ _____ _____    ______ ____

>  <TORSDO>
F 5

$$$$
=
 OpenBabel11062421083D

 27 29  0  0  1  0  0  0  0  0999 V2000
  188.8160  177.4800  142.8220 C   0  0  0  0  0  0  0  0  0  0  0  0
  191.2950  173.9360  144.3290 C   0  0  0  0  0  2  0  0  0  0  0  0
  191.0310  175.8600  141.8360 O   0  0  0  0  0  1  0  0  0  0  0  0
  190.2850  175.0590  143.9960 C   0  0  2  0  0  3  0  0  0  0  0  0
  184.3680  177.8560  142.8540 N   0  0  0  0  0  1  0  0  0  0  0  0
  190.2170  177.5610  143.3240 C   0  0  2  0  0  3  0  0  0  0  0  0
  186.2020  177.4220  141.3040 N   0  0  0  0  0  0  0  0  0  0  0  0
  185.7360  177.5010  142.6580 C   0  0  0  0  0  0  0  0  0  0  0  0
  187.8800  176.6570  143.6320 C   0  0  2  0  0  3  0  0  0  0  0  0
  188.9920  174.5220  143.3580 C   0  0  0  0  0  0  0  0  0  0  0  0
  187.4020  177.5440  140.8150 C   0  0  0  0  0  3  0  0  0  0  0  0
  187.9320  175.2640  143.2230 N   0  0  0  0  0  0  0  0  0  0  0  0
  189.9610  172.2540  143.1540 C   0  0  0  0  0  2  0  0  0  0  0  0
  188.5920  177.7760  141.5790 N   0  0  0  0  0  0  0  0  0  0  0  0
  190.9650  176.2150  143.1870 C   0  0  2  0  0  0  0  0  0  0  0  0
  190.2270  178.0150  144.6470 O   0  0  0  0  0  1  0  0  0  0  0  0
  190.6700  172.5570  144.4580 C   0  0  0  0  0  2  0  0  0  0  0  0
  188.8980  173.1800  142.9690 O   0  0  0  0  0  0  0  0  0  0  0  0
  186.4900  177.1880  143.7260 C   0  0  0  0  0  0  0  0  0  0  0  0
  192.3930  176.4630  143.6660 C   0  0  0  0  0  1  0  0  0  0  0  0
  185.9140  177.2510  145.1090 C   0  0  0  0  0  2  0  0  0  0  0  0
  186.9430  177.7680  146.1050 C   0  0  0  0  0  2  0  0  0  0  0  0
  187.4310  176.6740  146.9280 N   0  0  0  0  0  2  0  0  0  0  0  0
  188.8050  176.9910  147.2800 C   0  0  0  0  0  2  0  0  0  0  0  0
  191.0930  175.8360  147.5410 C   0  0  0  0  0  1  0  0  0  0  0  0
  189.6210  175.7440  147.3330 C   0  0  0  0  0  0  0  0  0  0  0  0
  189.0260  174.5550  147.3650 C   0  0  0  0  0  2  0  0  0  0  0  0
  1  6  1  0  0  0  0
  2 17  1  0  0  0  0
  3 15  1  0  0  0  0
  4  2  1  6  0  0  0
  6 16  1  1  0  0  0
  7  8  1  0  0  0  0
  8  5  1  0  0  0  0
  8 19  2  0  0  0  0
  9  1  1  6  0  0  0
  9 19  1  0  0  0  0
 10  4  1  0  0  0  0
 11  7  2  0  0  0  0
 11 14  1  0  0  0  0
 12 10  2  0  0  0  0
 12  9  1  0  0  0  0
 13 17  1  0  0  0  0
 14  1  2  0  0  0  0
 15  6  1  0  0  0  0
 15 20  1  1  0  0  0
 15  4  1  0  0  0  0
 18 13  1  0  0  0  0
 18 10  1  0  0  0  0
 19 21  1  0  0  0  0
 21 22  1  0  0  0  0
 22 23  1  0  0  0  0
 23 24  1  0  0  0  0
 24 26  1  0  0  0  0
 26 27  2  0  0  0  0
 26 25  1  0  0  0  0
M  END
>  <MODEL>
6

>  <REMARK>
 VINA RESULT:      -6.1      2.508      5.200
  Name = 
  5 active torsions:
  status: ('A' for Active; 'I' for Inactive)
    1  A    between atoms: C_11  and  C_15
    2  A    between atoms: C_11  and  N_23
    3  A    between atoms: C_14  and  C_16
    4  A    between atoms: C_15  and  C_26
    5  A    between atoms: C_16  and  N_23
                            x       y       z     vdW  Elec       q    Type
                         _______ _______ _______ _____ _____    ______ ____

>  <TORSDO>
F 5

$$$$
=
 OpenBabel11062421083D

 27 29  0  0  1  0  0  0  0  0999 V2000
  188.8070  176.8060  143.3120 C   0  0  0  0  0  0  0  0  0  0  0  0
  184.8080  177.5170  145.4260 C   0  0  0  0  0  2  0  0  0  0  0  0
  186.7990  178.9190  143.4130 O   0  0  0  0  0  1  0  0  0  0  0  0
  186.1990  177.1000  144.8940 C   0  0  2  0  0  3  0  0  0  0  0  0
  192.6050  175.3590  145.1600 N   0  0  0  0  0  1  0  0  0  0  0  0
  187.4670  176.7360  142.6640 C   0  0  2  0  0  3  0  0  0  0  0  0
  191.5900  177.4150  144.3240 N   0  0  0  0  0  0  0  0  0  0  0  0
  191.4280  176.0580  144.7570 C   0  0  0  0  0  0  0  0  0  0  0  0
  188.9300  176.1310  144.6300 C   0  0  2  0  0  3  0  0  0  0  0  0
  187.3390  177.4920  145.8500 C   0  0  0  0  0  0  0  0  0  0  0  0
  190.8530  178.1450  143.5370 C   0  0  0  0  0  3  0  0  0  0  0  0
  188.5470  177.0290  145.7070 N   0  0  0  0  0  0  0  0  0  0  0  0
  185.7870  178.7990  147.2660 C   0  0  0  0  0  2  0  0  0  0  0  0
  189.6310  177.7270  142.9170 N   0  0  0  0  0  0  0  0  0  0  0  0
  186.4100  177.5760  143.4170 C   0  0  2  0  0  0  0  0  0  0  0  0
  187.0630  175.4030  142.5410 O   0  0  0  0  0  1  0  0  0  0  0  0
  184.7580  177.7400  146.9280 C   0  0  0  0  0  2  0  0  0  0  0  0
  187.0860  178.3110  146.9570 O   0  0  0  0  0  0  0  0  0  0  0  0
  190.2340  175.4500  144.8730 C   0  0  0  0  0  0  0  0  0  0  0  0
  185.1190  177.4710  142.6100 C   0  0  0  0  0  1  0  0  0  0  0  0
  190.1440  174.0420  145.3800 C   0  0  0  0  0  2  0  0  0  0  0  0
  189.6860  173.0960  144.2790 C   0  0  0  0  0  2  0  0  0  0  0  0
  190.8220  172.6870  143.4700 N   0  0  0  0  0  2  0  0  0  0  0  0
  191.5870  171.7400  144.2640 C   0  0  0  0  0  2  0  0  0  0  0  0
  193.5650  172.6640  142.8960 C   0  0  0  0  0  1  0  0  0  0  0  0
  193.0460  172.0260  144.1370 C   0  0  0  0  0  0  0  0  0  0  0  0
  193.8520  171.8710  145.1840 C   0  0  0  0  0  2  0  0  0  0  0  0
  2 17  1  0  0  0  0
  3 15  1  0  0  0  0
  4  2  1  1  0  0  0
  4 10  1  0  0  0  0
  6 16  1  1  0  0  0
  6  1  1  0  0  0  0
  6 15  1  0  0  0  0
  7  8  1  0  0  0  0
  8 19  2  0  0  0  0
  8  5  1  0  0  0  0
  9  1  1  6  0  0  0
  9 19  1  0  0  0  0
  9 12  1  0  0  0  0
 10 18  1  0  0  0  0
 11  7  2  0  0  0  0
 12 10  2  0  0  0  0
 14  1  2  0  0  0  0
 14 11  1  0  0  0  0
 15 20  1  6  0  0  0
 15  4  1  0  0  0  0
 17 13  1  0  0  0  0
 18 13  1  0  0  0  0
 19 21  1  0  0  0  0
 22 21  1  0  0  0  0
 23 24  1  0  0  0  0
 23 22  1  0  0  0  0
 25 26  1  0  0  0  0
 26 24  1  0  0  0  0
 26 27  2  0  0  0  0
M  END
>  <MODEL>
7

>  <REMARK>
 VINA RESULT:      -6.0      2.184      5.090
  Name = 
  5 active torsions:
  status: ('A' for Active; 'I' for Inactive)
    1  A    between atoms: C_11  and  C_15
    2  A    between atoms: C_11  and  N_23
    3  A    between atoms: C_14  and  C_16
    4  A    between atoms: C_15  and  C_26
    5  A    between atoms: C_16  and  N_23
                            x       y       z     vdW  Elec       q    Type
                         _______ _______ _______ _____ _____    ______ ____

>  <TORSDO>
F 5

$$$$
=
 OpenBabel11062421083D

 27 29  0  0  1  0  0  0  0  0999 V2000
  189.5190  175.7480  146.1340 C   0  0  0  0  0  0  0  0  0  0  0  0
  186.3460  178.6880  144.6310 C   0  0  0  0  0  2  0  0  0  0  0  0
  186.6260  176.0460  146.3410 O   0  0  0  0  0  1  0  0  0  0  0  0
  187.5650  177.7920  144.9510 C   0  0  2  0  0  3  0  0  0  0  0  0
  192.7790  173.8560  143.7400 N   0  0  0  0  0  1  0  0  0  0  0  0
  188.8290  176.7700  146.9700 C   0  0  2  0  0  3  0  0  0  0  0  0
  190.6170  173.3050  144.7300 N   0  0  0  0  0  0  0  0  0  0  0  0
  191.5540  174.3090  144.3150 C   0  0  0  0  0  0  0  0  0  0  0  0
  190.0040  176.2100  144.8060 C   0  0  2  0  0  3  0  0  0  0  0  0
  187.8510  176.7650  143.8420 C   0  0  0  0  0  0  0  0  0  0  0  0
  189.6690  173.3510  145.6210 C   0  0  0  0  0  3  0  0  0  0  0  0
  188.9590  176.0840  143.8040 N   0  0  0  0  0  0  0  0  0  0  0  0
  185.7460  177.3440  142.6770 C   0  0  0  0  0  2  0  0  0  0  0  0
  189.3240  174.4960  146.4100 N   0  0  0  0  0  0  0  0  0  0  0  0
  187.4550  177.1710  146.3850 C   0  0  2  0  0  0  0  0  0  0  0  0
  189.6540  177.8860  147.1410 O   0  0  0  0  0  1  0  0  0  0  0  0
  185.9970  178.7590  143.1540 C   0  0  0  0  0  2  0  0  0  0  0  0
  186.9450  176.5870  142.7890 O   0  0  0  0  0  0  0  0  0  0  0  0
  191.3060  175.6290  144.3710 C   0  0  0  0  0  0  0  0  0  0  0  0
  186.8370  178.1580  147.3710 C   0  0  0  0  0  1  0  0  0  0  0  0
  192.3190  176.6150  143.8730 C   0  0  0  0  0  2  0  0  0  0  0  0
  193.1460  177.1740  145.0220 C   0  0  0  0  0  2  0  0  0  0  0  0
  194.5440  176.8150  144.8480 N   0  0  0  0  0  2  0  0  0  0  0  0
  194.8470  175.8020  145.8460 C   0  0  0  0  0  2  0  0  0  0  0  0
  196.4070  175.0410  143.9420 C   0  0  0  0  0  1  0  0  0  0  0  0
  195.8790  174.8610  145.3230 C   0  0  0  0  0  0  0  0  0  0  0  0
  196.4480  173.9720  146.1330 C   0  0  0  0  0  2  0  0  0  0  0  0
  1 14  2  0  0  0  0
  1  6  1  0  0  0  0
  3 15  1  0  0  0  0
  4  2  1  6  0  0  0
  4 15  1  0  0  0  0
  5  8  1  0  0  0  0
  6 16  1  6  0  0  0
  7 11  2  0  0  0  0
  8 19  2  0  0  0  0
  8  7  1  0  0  0  0
  9 12  1  6  0  0  0
  9  1  1  0  0  0  0
 10  4  1  0  0  0  0
 11 14  1  0  0  0  0
 12 10  2  0  0  0  0
 13 18  1  0  0  0  0
 13 17  1  0  0  0  0
 15  6  1  0  0  0  0
 15 20  1  1  0  0  0
 17  2  1  0  0  0  0
 18 10  1  0  0  0  0
 19  9  1  0  0  0  0
 21 19  1  0  0  0  0
 21 22  1  0  0  0  0
 23 22  1  0  0  0  0
 23 24  1  0  0  0  0
 25 26  1  0  0  0  0
 26 24  1  0  0  0  0
 26 27  2  0  0  0  0
M  END
>  <MODEL>
8

>  <REMARK>
 VINA RESULT:      -5.8      2.259      5.326
  Name = 
  5 active torsions:
  status: ('A' for Active; 'I' for Inactive)
    1  A    between atoms: C_11  and  C_15
    2  A    between atoms: C_11  and  N_23
    3  A    between atoms: C_14  and  C_16
    4  A    between atoms: C_15  and  C_26
    5  A    between atoms: C_16  and  N_23
                            x       y       z     vdW  Elec       q    Type
                         _______ _______ _______ _____ _____    ______ ____

>  <TORSDO>
F 5

$$$$
=
 OpenBabel11062421083D

 27 29  0  0  1  0  0  0  0  0999 V2000
  188.3880  177.3690  144.0660 C   0  0  0  0  0  0  0  0  0  0  0  0
  188.1920  174.7580  140.3080 C   0  0  0  0  0  2  0  0  0  0  0  0
  186.3060  176.1830  142.4040 O   0  0  0  0  0  1  0  0  0  0  0  0
  188.5010  175.5550  141.5970 C   0  0  2  0  0  3  0  0  0  0  0  0
  190.9290  176.6970  147.6750 N   0  0  0  0  0  1  0  0  0  0  0  0
  188.0130  177.8460  142.7050 C   0  0  2  0  0  3  0  0  0  0  0  0
  188.6090  176.4820  146.9480 N   0  0  0  0  0  0  0  0  0  0  0  0
  189.9920  176.6470  146.6010 C   0  0  0  0  0  0  0  0  0  0  0  0
  189.5760  176.4780  144.1390 C   0  0  2  0  0  3  0  0  0  0  0  0
  188.6970  174.6440  142.8210 C   0  0  0  0  0  0  0  0  0  0  0  0
  187.5300  176.8080  146.2970 C   0  0  0  0  0  3  0  0  0  0  0  0
  189.1920  175.0900  143.9390 N   0  0  0  0  0  0  0  0  0  0  0  0
  187.9560  172.6590  141.5420 C   0  0  0  0  0  2  0  0  0  0  0  0
  187.4920  177.4190  145.0020 N   0  0  0  0  0  0  0  0  0  0  0  0
  187.4620  176.7070  141.8170 C   0  0  2  0  0  0  0  0  0  0  0  0
  189.1050  178.4780  142.1000 O   0  0  0  0  0  1  0  0  0  0  0  0
  188.6360  173.3060  140.3530 C   0  0  0  0  0  2  0  0  0  0  0  0
  188.4140  173.2750  142.7400 O   0  0  0  0  0  0  0  0  0  0  0  0
  190.4440  176.6780  145.3350 C   0  0  0  0  0  0  0  0  0  0  0  0
  187.0550  177.3470  140.4930 C   0  0  0  0  0  1  0  0  0  0  0  0
  191.9110  176.8060  145.0550 C   0  0  0  0  0  2  0  0  0  0  0  0
  192.1540  177.3020  143.6370 C   0  0  0  0  0  2  0  0  0  0  0  0
  193.0670  176.4070  142.9460 N   0  0  0  0  0  2  0  0  0  0  0  0
  192.9860  175.1200  143.6180 C   0  0  0  0  0  2  0  0  0  0  0  0
  191.8940  172.8160  143.2500 C   0  0  0  0  0  1  0  0  0  0  0  0
  192.4180  174.0950  142.6960 C   0  0  0  0  0  0  0  0  0  0  0  0
  192.2230  174.3840  141.4120 C   0  0  0  0  0  2  0  0  0  0  0  0
  1  9  1  0  0  0  0
  1 14  2  0  0  0  0
  2 17  1  0  0  0  0
  4  2  1  6  0  0  0
  4 15  1  0  0  0  0
  4 10  1  0  0  0  0
  6 16  1  6  0  0  0
  6  1  1  0  0  0  0
  8  7  1  0  0  0  0
  8  5  1  0  0  0  0
  9 12  1  1  0  0  0
  9 19  1  0  0  0  0
 10 12  2  0  0  0  0
 11  7  2  0  0  0  0
 13 18  1  0  0  0  0
 14 11  1  0  0  0  0
 15 20  1  6  0  0  0
 15  3  1  0  0  0  0
 15  6  1  0  0  0  0
 17 13  1  0  0  0  0
 18 10  1  0  0  0  0
 19  8  2  0  0  0  0
 21 19  1  0  0  0  0
 22 21  1  0  0  0  0
 23 24  1  0  0  0  0
 23 22  1  0  0  0  0
 26 25  1  0  0  0  0
 26 24  1  0  0  0  0
 27 26  2  0  0  0  0
M  END
>  <MODEL>
9

>  <REMARK>
 VINA RESULT:      -5.8      1.703      4.865
  Name = 
  5 active torsions:
  status: ('A' for Active; 'I' for Inactive)
    1  A    between atoms: C_11  and  C_15
    2  A    between atoms: C_11  and  N_23
    3  A    between atoms: C_14  and  C_16
    4  A    between atoms: C_15  and  C_26
    5  A    between atoms: C_16  and  N_23
                            x       y       z     vdW  Elec       q    Type
                         _______ _______ _______ _____ _____    ______ ____

>  <TORSDO>
F 5

$$$$
