=
 OpenBabel11062419263D

 38 42  0  0  1  0  0  0  0  0999 V2000
  189.6280  177.0840  146.7520 C   0  0  0  0  0  0  0  0  0  0  0  0
  184.4620  178.4710  142.0150 O   0  0  0  0  0  0  0  0  0  0  0  0
  188.6860  177.4010  144.7250 C   0  0  0  0  0  0  0  0  0  0  0  0
  187.5790  177.6910  145.7030 C   0  0  1  0  0  3  0  0  0  0  0  0
  191.9130  176.5270  147.0440 N   0  0  0  0  0  0  0  0  0  0  0  0
  184.5430  177.6930  144.1700 O   0  0  0  0  0  0  0  0  0  0  0  0
  186.5470  178.8170  143.1010 C   0  0  0  0  0  2  0  0  0  0  0  0
  189.9360  177.2150  142.6720 C   0  0  0  0  0  3  0  0  0  0  0  0
  189.8220  177.0890  145.4100 C   0  0  0  0  0  0  0  0  0  0  0  0
  187.7300  178.0800  141.0520 C   0  0  0  0  0  1  0  0  0  0  0  0
  186.3800  176.7840  145.4840 C   0  0  0  0  0  2  0  0  0  0  0  0
  191.0540  176.8280  144.8100 C   0  0  0  0  0  0  0  0  0  0  0  0
  190.6930  176.7960  147.5990 C   0  0  0  0  0  3  0  0  0  0  0  0
  191.1050  176.8890  143.3930 C   0  0  0  0  0  0  0  0  0  0  0  0
  185.1260  177.6470  145.4680 C   0  0  0  0  0  2  0  0  0  0  0  0
  185.1290  178.3400  143.0740 C   0  0  0  0  0  0  0  0  0  0  0  0
  192.1290  176.5350  145.6890 C   0  0  0  0  0  0  0  0  0  0  0  0
  188.2150  177.4200  147.0900 C   0  0  0  0  0  2  0  0  0  0  0  0
  188.7090  177.4980  143.3180 C   0  0  0  0  0  0  0  0  0  0  0  0
  187.4500  177.7390  142.5090 C   0  0  1  0  0  3  0  0  0  0  0  0
  193.4350  176.2440  145.2020 N   0  0  0  0  0  1  0  0  0  0  0  0
  192.3650  176.6850  142.6210 C   0  0  0  0  0  2  0  0  0  0  0  0
  194.7170  175.3630  141.6990 O   0  0  0  0  0  0  0  0  0  0  0  0
  193.6450  174.7020  141.7300 C   0  0  0  0  0  0  0  0  0  0  0  0
  192.4300  175.3070  142.1660 N   0  0  0  0  0  2  0  0  0  0  0  0
  193.6460  173.2620  141.3480 C   0  0  0  0  0  2  0  0  0  0  0  0
  191.5060  172.0880  140.9290 C   0  0  0  0  0  3  0  0  0  0  0  0
  192.4400  172.9420  140.5060 C   0  0  0  0  0  0  0  0  0  0  0  0
  191.0500  173.4660  138.5280 C   0  0  0  0  0  1  0  0  0  0  0  0
  192.2760  173.5280  139.2460 O   0  0  0  0  0  0  0  0  0  0  0  0
  191.5640  171.3940  142.2660 C   0  0  0  0  0  2  0  0  0  0  0  0
  188.9160  173.2860  142.7120 C   0  0  0  0  0  0  0  0  0  0  0  0
  187.9550  174.1770  142.0150 C   0  0  0  0  0  1  0  0  0  0  0  0
  190.3640  172.4880  144.1700 C   0  0  1  0  0  3  0  0  0  0  0  0
  191.7550  172.9460  144.6090 C   0  0  0  0  0  1  0  0  0  0  0  0
  189.5220  173.6170  143.7930 N   0  0  0  0  0  0  0  0  0  0  0  0
  190.3170  171.5100  143.0490 N   0  0  0  0  0  0  0  0  0  0  0  0
  189.3090  172.0250  142.2170 N   0  0  0  0  0  2  0  0  0  0  0  0
  1 18  1  0  0  0  0
  1 13  1  0  0  0  0
  2 16  2  0  0  0  0
  3  9  1  0  0  0  0
  3  4  1  0  0  0  0
  4 11  1  6  0  0  0
  4 18  1  0  0  0  0
  5 13  2  0  0  0  0
  6 15  1  0  0  0  0
  8 19  1  0  0  0  0
  8 14  2  0  0  0  0
  9  1  2  0  0  0  0
 12  9  1  0  0  0  0
 12 17  2  0  0  0  0
 14 12  1  0  0  0  0
 15 11  1  0  0  0  0
 16  7  1  0  0  0  0
 16  6  1  0  0  0  0
 17  5  1  0  0  0  0
 19  3  2  0  0  0  0
 20 10  1  6  0  0  0
 20  7  1  0  0  0  0
 20 19  1  0  0  0  0
 21 17  1  0  0  0  0
 22 14  1  0  0  0  0
 23 24  2  0  0  0  0
 24 25  1  0  0  0  0
 25 22  1  0  0  0  0
 26 24  1  0  0  0  0
 27 31  1  0  0  0  0
 28 27  2  0  0  0  0
 28 26  1  0  0  0  0
 29 30  1  0  0  0  0
 30 28  1  0  0  0  0
 31 37  1  0  0  0  0
 32 36  2  0  0  0  0
 33 32  1  0  0  0  0
 34 35  1  6  0  0  0
 36 34  1  0  0  0  0
 37 34  1  0  0  0  0
 38 32  1  0  0  0  0
 38 37  1  0  0  0  0
M  END
>  <MODEL>
1

>  <REMARK>
 VINA RESULT:      -7.6      0.000      0.000
  Name = 
  7 active torsions:
  status: ('A' for Active; 'I' for Inactive)
    1  A    between atoms: C_1  and  N_25
    2  A    between atoms: C_1  and  C_28
    3  A    between atoms: C_8  and  C_11
    4  A    between atoms: C_8  and  N_32
    5  A    between atoms: C_16  and  C_22
    6  A    between atoms: C_16  and  O_29
    7  A    between atoms: C_20  and  C_22
                            x       y       z     vdW  Elec       q    Type
                         _______ _______ _______ _____ _____    ______ ____

>  <TORSDO>
F 7

$$$$
=
 OpenBabel11062419263D

 38 42  0  0  1  0  0  0  0  0999 V2000
  188.0810  175.2780  140.8920 C   0  0  0  0  0  0  0  0  0  0  0  0
  186.0270  178.9240  146.6840 O   0  0  0  0  0  0  0  0  0  0  0  0
  187.9970  175.8560  143.0730 C   0  0  0  0  0  0  0  0  0  0  0  0
  186.9720  176.7370  142.4120 C   0  0  1  0  0  3  0  0  0  0  0  0
  189.4770  173.5520  140.0640 N   0  0  0  0  0  0  0  0  0  0  0  0
  186.0810  179.3270  144.4280 O   0  0  0  0  0  0  0  0  0  0  0  0
  186.3350  176.9800  145.3510 C   0  0  0  0  0  2  0  0  0  0  0  0
  189.3180  174.7490  144.7590 C   0  0  0  0  0  3  0  0  0  0  0  0
  188.5620  175.0400  142.1380 C   0  0  0  0  0  0  0  0  0  0  0  0
  188.0910  176.1950  146.9120 C   0  0  0  0  0  1  0  0  0  0  0  0
  187.2730  178.2110  142.6220 C   0  0  0  0  0  2  0  0  0  0  0  0
  189.5060  174.0550  142.4240 C   0  0  0  0  0  0  0  0  0  0  0  0
  188.5450  174.5210  139.8220 C   0  0  0  0  0  3  0  0  0  0  0  0
  189.8970  173.9130  143.7800 C   0  0  0  0  0  0  0  0  0  0  0  0
  185.9930  178.9000  143.0720 C   0  0  0  0  0  2  0  0  0  0  0  0
  186.1180  178.4520  145.5210 C   0  0  0  0  0  0  0  0  0  0  0  0
  189.9690  173.2930  141.3190 C   0  0  0  0  0  0  0  0  0  0  0  0
  187.0710  176.3750  140.9080 C   0  0  0  0  0  2  0  0  0  0  0  0
  188.3430  175.7220  144.4340 C   0  0  0  0  0  0  0  0  0  0  0  0
  187.8220  176.6730  145.4930 C   0  0  1  0  0  3  0  0  0  0  0  0
  190.9380  172.2610  141.4760 N   0  0  0  0  0  1  0  0  0  0  0  0
  190.8570  172.8660  144.2380 C   0  0  0  0  0  2  0  0  0  0  0  0
  193.2130  171.2750  144.4610 O   0  0  0  0  0  0  0  0  0  0  0  0
  193.3510  172.4900  144.1600 C   0  0  0  0  0  0  0  0  0  0  0  0
  192.2150  173.3450  144.0460 N   0  0  0  0  0  2  0  0  0  0  0  0
  194.7070  173.0400  143.8770 C   0  0  0  0  0  2  0  0  0  0  0  0
  195.4410  174.7840  145.4730 C   0  0  0  0  0  3  0  0  0  0  0  0
  195.3660  173.4920  145.1530 C   0  0  0  0  0  0  0  0  0  0  0  0
  196.8600  171.5730  145.6040 C   0  0  0  0  0  1  0  0  0  0  0  0
  195.9290  172.5590  146.0310 O   0  0  0  0  0  0  0  0  0  0  0  0
  194.8720  175.8850  144.6150 C   0  0  0  0  0  2  0  0  0  0  0  0
  192.3100  176.1100  146.6570 C   0  0  0  0  0  0  0  0  0  0  0  0
  191.6110  175.4280  147.7760 C   0  0  0  0  0  1  0  0  0  0  0  0
  192.7160  177.1480  144.7560 C   0  0  1  0  0  3  0  0  0  0  0  0
  192.5370  176.7410  143.2930 C   0  0  0  0  0  1  0  0  0  0  0  0
  191.7040  176.5350  145.6090 N   0  0  0  0  0  0  0  0  0  0  0  0
  194.0430  176.8520  145.3630 N   0  0  0  0  0  0  0  0  0  0  0  0
  193.7070  176.2910  146.6060 N   0  0  0  0  0  2  0  0  0  0  0  0
  1 18  1  0  0  0  0
  1  9  1  0  0  0  0
  3 19  1  0  0  0  0
  4 18  1  6  0  0  0
  4 11  1  0  0  0  0
  4  3  1  0  0  0  0
  5 17  2  0  0  0  0
  6 16  1  0  0  0  0
  7 20  1  0  0  0  0
  7 16  1  0  0  0  0
  9 12  1  0  0  0  0
  9  3  2  0  0  0  0
 11 15  1  0  0  0  0
 12 14  2  0  0  0  0
 13  5  1  0  0  0  0
 13  1  2  0  0  0  0
 14 22  1  0  0  0  0
 14  8  1  0  0  0  0
 15  6  1  0  0  0  0
 16  2  2  0  0  0  0
 17 21  1  0  0  0  0
 17 12  1  0  0  0  0
 19  8  2  0  0  0  0
 19 20  1  0  0  0  0
 20 10  1  1  0  0  0
 24 23  2  0  0  0  0
 25 24  1  0  0  0  0
 25 22  1  0  0  0  0
 26 24  1  0  0  0  0
 26 28  1  0  0  0  0
 28 27  2  0  0  0  0
 28 30  1  0  0  0  0
 29 30  1  0  0  0  0
 31 37  1  0  0  0  0
 31 27  1  0  0  0  0
 32 33  1  0  0  0  0
 34 35  1  6  0  0  0
 34 37  1  0  0  0  0
 34 36  1  0  0  0  0
 36 32  2  0  0  0  0
 37 38  1  0  0  0  0
 38 32  1  0  0  0  0
M  END
>  <MODEL>
2

>  <REMARK>
 VINA RESULT:      -7.6      2.364      5.261
  Name = 
  7 active torsions:
  status: ('A' for Active; 'I' for Inactive)
    1  A    between atoms: C_1  and  N_25
    2  A    between atoms: C_1  and  C_28
    3  A    between atoms: C_8  and  C_11
    4  A    between atoms: C_8  and  N_32
    5  A    between atoms: C_16  and  C_22
    6  A    between atoms: C_16  and  O_29
    7  A    between atoms: C_20  and  C_22
                            x       y       z     vdW  Elec       q    Type
                         _______ _______ _______ _____ _____    ______ ____

>  <TORSDO>
F 7

$$$$
=
 OpenBabel11062419263D

 38 42  0  0  1  0  0  0  0  0999 V2000
  184.4840  178.7190  145.1220 C   0  0  0  0  0  0  0  0  0  0  0  0
  186.8340  176.8140  138.6480 O   0  0  0  0  0  0  0  0  0  0  0  0
  185.7860  177.6810  143.5960 C   0  0  0  0  0  0  0  0  0  0  0  0
  184.8540  178.5350  142.7770 C   0  0  1  0  0  3  0  0  0  0  0  0
  184.7720  178.4580  147.4590 N   0  0  0  0  0  0  0  0  0  0  0  0
  184.8540  177.5830  139.5120 O   0  0  0  0  0  0  0  0  0  0  0  0
  187.0170  177.7570  140.8220 C   0  0  0  0  0  2  0  0  0  0  0  0
  187.6010  176.2230  144.2190 C   0  0  0  0  0  3  0  0  0  0  0  0
  185.5200  177.8670  144.9200 C   0  0  0  0  0  0  0  0  0  0  0  0
  188.4770  175.8760  141.5090 C   0  0  0  0  0  1  0  0  0  0  0  0
  184.0370  177.7040  141.8020 C   0  0  0  0  0  2  0  0  0  0  0  0
  186.2430  177.2760  145.9560 C   0  0  0  0  0  0  0  0  0  0  0  0
  184.0920  179.0270  146.4200 C   0  0  0  0  0  3  0  0  0  0  0  0
  187.3140  176.4210  145.5870 C   0  0  0  0  0  0  0  0  0  0  0  0
  184.1070  178.3690  140.4350 C   0  0  0  0  0  2  0  0  0  0  0  0
  186.2380  177.3810  139.6000 C   0  0  0  0  0  0  0  0  0  0  0  0
  185.8280  177.6010  147.2740 C   0  0  0  0  0  0  0  0  0  0  0  0
  183.9290  179.2030  143.8250 C   0  0  0  0  0  2  0  0  0  0  0  0
  186.8610  176.8610  143.1960 C   0  0  0  0  0  0  0  0  0  0  0  0
  187.1290  176.5420  141.7390 C   0  0  1  0  0  3  0  0  0  0  0  0
  186.4780  177.0570  148.4180 N   0  0  0  0  0  1  0  0  0  0  0  0
  188.2040  175.7640  146.5870 C   0  0  0  0  0  2  0  0  0  0  0  0
  190.6430  174.3370  146.2020 O   0  0  0  0  0  0  0  0  0  0  0  0
  190.7060  175.5900  146.3090 C   0  0  0  0  0  0  0  0  0  0  0  0
  189.5260  176.3630  146.5180 N   0  0  0  0  0  2  0  0  0  0  0  0
  192.0180  176.2850  146.1770 C   0  0  0  0  0  2  0  0  0  0  0  0
  193.0010  176.0830  143.9140 C   0  0  0  0  0  3  0  0  0  0  0  0
  192.2220  176.7550  144.7620 C   0  0  0  0  0  0  0  0  0  0  0  0
  190.8360  177.9640  143.1080 C   0  0  0  0  0  1  0  0  0  0  0  0
  191.6030  177.9240  144.3050 O   0  0  0  0  0  0  0  0  0  0  0  0
  193.7200  174.8090  144.2810 C   0  0  0  0  0  2  0  0  0  0  0  0
  191.2950  172.8000  143.3480 C   0  0  0  0  0  0  0  0  0  0  0  0
  189.8320  172.7280  143.1040 C   0  0  0  0  0  1  0  0  0  0  0  0
  193.3310  172.3470  144.0610 C   0  0  1  0  0  3  0  0  0  0  0  0
  193.9450  172.2610  145.4590 C   0  0  0  0  0  1  0  0  0  0  0  0
  191.9280  171.9480  144.0690 N   0  0  0  0  0  0  0  0  0  0  0  0
  193.4080  173.6740  143.3900 N   0  0  0  0  0  0  0  0  0  0  0  0
  192.1130  173.8470  142.8750 N   0  0  0  0  0  2  0  0  0  0  0  0
  1 13  1  0  0  0  0
  2 16  2  0  0  0  0
  3  9  1  0  0  0  0
  4 11  1  6  0  0  0
  4  3  1  0  0  0  0
  4 18  1  0  0  0  0
  6 16  1  0  0  0  0
  6 15  1  0  0  0  0
  7 20  1  0  0  0  0
  8 14  2  0  0  0  0
  9  1  2  0  0  0  0
  9 12  1  0  0  0  0
 12 17  2  0  0  0  0
 13  5  2  0  0  0  0
 14 12  1  0  0  0  0
 14 22  1  0  0  0  0
 15 11  1  0  0  0  0
 16  7  1  0  0  0  0
 17  5  1  0  0  0  0
 17 21  1  0  0  0  0
 18  1  1  0  0  0  0
 19  3  2  0  0  0  0
 19  8  1  0  0  0  0
 20 10  1  1  0  0  0
 20 19  1  0  0  0  0
 23 24  2  0  0  0  0
 24 25  1  0  0  0  0
 25 22  1  0  0  0  0
 26 24  1  0  0  0  0
 27 31  1  0  0  0  0
 27 28  2  0  0  0  0
 28 26  1  0  0  0  0
 29 30  1  0  0  0  0
 30 28  1  0  0  0  0
 32 36  2  0  0  0  0
 33 32  1  0  0  0  0
 34 36  1  0  0  0  0
 34 35  1  1  0  0  0
 37 34  1  0  0  0  0
 37 31  1  0  0  0  0
 38 32  1  0  0  0  0
 38 37  1  0  0  0  0
M  END
>  <MODEL>
3

>  <REMARK>
 VINA RESULT:      -7.3      2.636      4.829
  Name = 
  7 active torsions:
  status: ('A' for Active; 'I' for Inactive)
    1  A    between atoms: C_1  and  N_25
    2  A    between atoms: C_1  and  C_28
    3  A    between atoms: C_8  and  C_11
    4  A    between atoms: C_8  and  N_32
    5  A    between atoms: C_16  and  C_22
    6  A    between atoms: C_16  and  O_29
    7  A    between atoms: C_20  and  C_22
                            x       y       z     vdW  Elec       q    Type
                         _______ _______ _______ _____ _____    ______ ____

>  <TORSDO>
F 7

$$$$
=
 OpenBabel11062419263D

 38 42  0  0  1  0  0  0  0  0999 V2000
  193.2050  176.3910  146.5240 C   0  0  0  0  0  0  0  0  0  0  0  0
  197.2510  173.9500  141.1650 O   0  0  0  0  0  0  0  0  0  0  0  0
  193.7840  175.0890  144.7720 C   0  0  0  0  0  0  0  0  0  0  0  0
  194.9850  175.9680  145.0010 C   0  0  1  0  0  3  0  0  0  0  0  0
  191.1430  176.1700  147.6720 N   0  0  0  0  0  0  0  0  0  0  0  0
  197.0800  175.9210  142.3230 O   0  0  0  0  0  0  0  0  0  0  0  0
  196.0280  173.7870  143.1960 C   0  0  0  0  0  2  0  0  0  0  0  0
  192.3530  173.3450  143.9240 C   0  0  0  0  0  3  0  0  0  0  0  0
  192.8280  175.3810  145.7000 C   0  0  0  0  0  0  0  0  0  0  0  0
  194.3150  172.4140  142.0480 C   0  0  0  0  0  1  0  0  0  0  0  0
  195.3270  176.7900  143.7700 C   0  0  0  0  0  2  0  0  0  0  0  0
  191.6130  174.7070  145.8130 C   0  0  0  0  0  0  0  0  0  0  0  0
  192.3460  176.8030  147.5380 C   0  0  0  0  0  3  0  0  0  0  0  0
  191.3700  173.6590  144.8880 C   0  0  0  0  0  0  0  0  0  0  0  0
  196.8200  176.6620  143.5100 C   0  0  0  0  0  2  0  0  0  0  0  0
  196.8340  174.5480  142.1900 C   0  0  0  0  0  0  0  0  0  0  0  0
  190.7500  175.1430  146.8520 C   0  0  0  0  0  0  0  0  0  0  0  0
  194.5620  176.8950  146.1690 C   0  0  0  0  0  2  0  0  0  0  0  0
  193.5860  174.0350  143.8560 C   0  0  0  0  0  0  0  0  0  0  0  0
  194.5720  173.7430  142.7430 C   0  0  1  0  0  3  0  0  0  0  0  0
  189.4780  174.5410  147.0690 N   0  0  0  0  0  1  0  0  0  0  0  0
  190.1380  172.8180  144.9250 C   0  0  0  0  0  2  0  0  0  0  0  0
  189.4400  171.5670  142.4590 O   0  0  0  0  0  0  0  0  0  0  0  0
  188.8650  172.6480  142.7530 C   0  0  0  0  0  0  0  0  0  0  0  0
  189.1790  173.3330  143.9640 N   0  0  0  0  0  2  0  0  0  0  0  0
  187.8160  173.2040  141.8520 C   0  0  0  0  0  2  0  0  0  0  0  0
  188.2550  175.5560  141.2150 C   0  0  0  0  0  3  0  0  0  0  0  0
  188.4030  174.2570  140.9500 C   0  0  0  0  0  0  0  0  0  0  0  0
  188.6790  172.8500  138.9350 C   0  0  0  0  0  1  0  0  0  0  0  0
  189.1110  173.8930  139.8000 O   0  0  0  0  0  0  0  0  0  0  0  0
  187.5180  176.0770  142.4220 C   0  0  0  0  0  2  0  0  0  0  0  0
  190.0710  177.8000  143.5620 C   0  0  0  0  0  0  0  0  0  0  0  0
  191.5500  177.9190  143.5090 C   0  0  0  0  0  1  0  0  0  0  0  0
  188.0000  177.6550  144.3030 C   0  0  1  0  0  3  0  0  0  0  0  0
  187.2800  176.6260  145.1750 C   0  0  0  0  0  1  0  0  0  0  0  0
  189.4100  177.7660  144.6610 N   0  0  0  0  0  0  0  0  0  0  0  0
  187.9350  177.4330  142.8330 N   0  0  0  0  0  0  0  0  0  0  0  0
  189.2610  177.6410  142.4180 N   0  0  0  0  0  2  0  0  0  0  0  0
  1 13  1  0  0  0  0
  2 16  2  0  0  0  0
  3  4  1  0  0  0  0
  3  9  1  0  0  0  0
  4 11  1  6  0  0  0
  4 18  1  0  0  0  0
  6 15  1  0  0  0  0
  8 14  2  0  0  0  0
  9 12  1  0  0  0  0
  9  1  2  0  0  0  0
 12 17  2  0  0  0  0
 13  5  2  0  0  0  0
 14 22  1  0  0  0  0
 14 12  1  0  0  0  0
 15 11  1  0  0  0  0
 16  6  1  0  0  0  0
 16  7  1  0  0  0  0
 17 21  1  0  0  0  0
 17  5  1  0  0  0  0
 18  1  1  0  0  0  0
 19  8  1  0  0  0  0
 19  3  2  0  0  0  0
 20 10  1  1  0  0  0
 20  7  1  0  0  0  0
 20 19  1  0  0  0  0
 23 24  2  0  0  0  0
 24 25  1  0  0  0  0
 25 22  1  0  0  0  0
 26 24  1  0  0  0  0
 27 31  1  0  0  0  0
 28 27  2  0  0  0  0
 28 26  1  0  0  0  0
 29 30  1  0  0  0  0
 30 28  1  0  0  0  0
 31 37  1  0  0  0  0
 32 36  2  0  0  0  0
 33 32  1  0  0  0  0
 34 36  1  0  0  0  0
 34 35  1  1  0  0  0
 37 34  1  0  0  0  0
 38 37  1  0  0  0  0
 38 32  1  0  0  0  0
M  END
>  <MODEL>
4

>  <REMARK>
 VINA RESULT:      -7.2      2.589      6.689
  Name = 
  7 active torsions:
  status: ('A' for Active; 'I' for Inactive)
    1  A    between atoms: C_1  and  N_25
    2  A    between atoms: C_1  and  C_28
    3  A    between atoms: C_8  and  C_11
    4  A    between atoms: C_8  and  N_32
    5  A    between atoms: C_16  and  C_22
    6  A    between atoms: C_16  and  O_29
    7  A    between atoms: C_20  and  C_22
                            x       y       z     vdW  Elec       q    Type
                         _______ _______ _______ _____ _____    ______ ____

>  <TORSDO>
F 7

$$$$
=
 OpenBabel11062419263D

 38 42  0  0  1  0  0  0  0  0999 V2000
  188.8350  176.1900  146.3750 C   0  0  0  0  0  0  0  0  0  0  0  0
  184.2960  178.6130  141.4170 O   0  0  0  0  0  0  0  0  0  0  0  0
  187.9450  176.4690  144.3180 C   0  0  0  0  0  0  0  0  0  0  0  0
  187.1190  177.3590  145.2090 C   0  0  1  0  0  3  0  0  0  0  0  0
  190.7290  174.8270  146.7900 N   0  0  0  0  0  0  0  0  0  0  0  0
  184.2250  178.2900  143.6850 O   0  0  0  0  0  0  0  0  0  0  0  0
  186.4240  178.2900  142.4240 C   0  0  0  0  0  2  0  0  0  0  0  0
  188.8610  175.4120  142.3550 C   0  0  0  0  0  3  0  0  0  0  0  0
  188.9140  175.8620  145.0610 C   0  0  0  0  0  0  0  0  0  0  0  0
  187.0620  176.7670  140.5780 C   0  0  0  0  0  1  0  0  0  0  0  0
  185.6470  176.9870  145.1700 C   0  0  0  0  0  2  0  0  0  0  0  0
  189.8930  175.0200  144.5350 C   0  0  0  0  0  0  0  0  0  0  0  0
  189.7600  175.6640  147.2690 C   0  0  0  0  0  3  0  0  0  0  0  0
  189.8570  174.7860  143.1360 C   0  0  0  0  0  0  0  0  0  0  0  0
  184.8380  178.2600  144.9700 C   0  0  0  0  0  2  0  0  0  0  0  0
  184.9340  178.4280  142.4850 C   0  0  0  0  0  0  0  0  0  0  0  0
  190.8280  174.4910  145.4630 C   0  0  0  0  0  0  0  0  0  0  0  0
  187.6990  177.1220  146.6270 C   0  0  0  0  0  2  0  0  0  0  0  0
  187.8990  176.2810  142.9210 C   0  0  0  0  0  0  0  0  0  0  0  0
  186.7810  176.8500  142.0700 C   0  0  1  0  0  3  0  0  0  0  0  0
  191.8730  173.6140  145.0550 N   0  0  0  0  0  1  0  0  0  0  0  0
  190.8730  173.9520  142.4300 C   0  0  0  0  0  2  0  0  0  0  0  0
  192.9550  173.1160  140.6690 O   0  0  0  0  0  0  0  0  0  0  0  0
  192.9050  174.3350  140.9840 C   0  0  0  0  0  0  0  0  0  0  0  0
  191.8980  174.8160  141.8720 N   0  0  0  0  0  2  0  0  0  0  0  0
  193.8780  175.2970  140.3950 C   0  0  0  0  0  2  0  0  0  0  0  0
  195.8590  175.3830  141.8780 C   0  0  0  0  0  3  0  0  0  0  0  0
  195.2850  174.9150  140.7690 C   0  0  0  0  0  0  0  0  0  0  0  0
  195.7440  173.8860  138.5670 C   0  0  0  0  0  1  0  0  0  0  0  0
  196.0320  174.0620  139.9480 O   0  0  0  0  0  0  0  0  0  0  0  0
  195.1610  176.3040  142.8460 C   0  0  0  0  0  2  0  0  0  0  0  0
  196.0740  174.5980  145.5000 C   0  0  0  0  0  0  0  0  0  0  0  0
  196.5440  173.2660  145.9600 C   0  0  0  0  0  1  0  0  0  0  0  0
  194.9500  176.4860  145.3330 C   0  0  1  0  0  3  0  0  0  0  0  0
  193.4790  176.7970  145.0510 C   0  0  0  0  0  1  0  0  0  0  0  0
  195.1010  175.2270  146.0520 N   0  0  0  0  0  0  0  0  0  0  0  0
  195.8480  176.4280  144.1480 N   0  0  0  0  0  0  0  0  0  0  0  0
  196.6000  175.2630  144.3730 N   0  0  0  0  0  2  0  0  0  0  0  0
  1 18  1  0  0  0  0
  1 13  1  0  0  0  0
  2 16  2  0  0  0  0
  3  9  1  0  0  0  0
  3  4  1  0  0  0  0
  4 11  1  1  0  0  0
  4 18  1  0  0  0  0
  5 13  2  0  0  0  0
  6 15  1  0  0  0  0
  7 16  1  0  0  0  0
  8 19  1  0  0  0  0
  8 14  2  0  0  0  0
  9  1  2  0  0  0  0
 12  9  1  0  0  0  0
 12 17  2  0  0  0  0
 14 12  1  0  0  0  0
 15 11  1  0  0  0  0
 16  6  1  0  0  0  0
 17  5  1  0  0  0  0
 19  3  2  0  0  0  0
 20 10  1  6  0  0  0
 20  7  1  0  0  0  0
 20 19  1  0  0  0  0
 21 17  1  0  0  0  0
 22 14  1  0  0  0  0
 23 24  2  0  0  0  0
 24 25  1  0  0  0  0
 25 22  1  0  0  0  0
 26 28  1  0  0  0  0
 26 24  1  0  0  0  0
 27 31  1  0  0  0  0
 28 27  2  0  0  0  0
 29 30  1  0  0  0  0
 30 28  1  0  0  0  0
 31 37  1  0  0  0  0
 32 33  1  0  0  0  0
 32 36  2  0  0  0  0
 34 35  1  6  0  0  0
 34 36  1  0  0  0  0
 37 38  1  0  0  0  0
 37 34  1  0  0  0  0
 38 32  1  0  0  0  0
M  END
>  <MODEL>
5

>  <REMARK>
 VINA RESULT:      -7.2      2.100      3.863
  Name = 
  7 active torsions:
  status: ('A' for Active; 'I' for Inactive)
    1  A    between atoms: C_1  and  N_25
    2  A    between atoms: C_1  and  C_28
    3  A    between atoms: C_8  and  C_11
    4  A    between atoms: C_8  and  N_32
    5  A    between atoms: C_16  and  C_22
    6  A    between atoms: C_16  and  O_29
    7  A    between atoms: C_20  and  C_22
                            x       y       z     vdW  Elec       q    Type
                         _______ _______ _______ _____ _____    ______ ____

>  <TORSDO>
F 7

$$$$
=
 OpenBabel11062419263D

 38 42  0  0  1  0  0  0  0  0999 V2000
  192.0380  172.1310  141.6110 C   0  0  0  0  0  0  0  0  0  0  0  0
  194.5390  177.3230  145.8350 O   0  0  0  0  0  0  0  0  0  0  0  0
  192.0590  174.1130  142.6920 C   0  0  0  0  0  0  0  0  0  0  0  0
  193.4010  173.5040  142.9990 C   0  0  1  0  0  3  0  0  0  0  0  0
  190.2320  171.4180  140.2520 N   0  0  0  0  0  0  0  0  0  0  0  0
  194.9000  175.0700  145.6190 O   0  0  0  0  0  0  0  0  0  0  0  0
  193.7270  176.3930  143.8040 C   0  0  0  0  0  2  0  0  0  0  0  0
  190.2410  175.6900  142.5430 C   0  0  0  0  0  3  0  0  0  0  0  0
  191.3590  173.2750  141.8760 C   0  0  0  0  0  0  0  0  0  0  0  0
  191.6330  177.6960  144.0510 C   0  0  0  0  0  1  0  0  0  0  0  0
  193.6160  173.3350  144.4930 C   0  0  0  0  0  2  0  0  0  0  0  0
  190.1010  173.5640  141.3470 C   0  0  0  0  0  0  0  0  0  0  0  0
  191.4680  171.1720  140.7800 C   0  0  0  0  0  3  0  0  0  0  0  0
  189.5260  174.8110  141.7010 C   0  0  0  0  0  0  0  0  0  0  0  0
  194.9930  173.8810  144.8420 C   0  0  0  0  0  2  0  0  0  0  0  0
  194.4260  176.2910  145.1240 C   0  0  0  0  0  0  0  0  0  0  0  0
  189.5350  172.5730  140.5030 C   0  0  0  0  0  0  0  0  0  0  0  0
  193.3600  172.1210  142.3000 C   0  0  0  0  0  2  0  0  0  0  0  0
  191.5280  175.3730  143.0400 C   0  0  0  0  0  0  0  0  0  0  0  0
  192.2200  176.2920  144.0260 C   0  0  1  0  0  3  0  0  0  0  0  0
  188.2530  172.7430  139.9060 N   0  0  0  0  0  1  0  0  0  0  0  0
  188.2110  175.2750  141.1680 C   0  0  0  0  0  2  0  0  0  0  0  0
  187.4590  177.8630  142.0990 O   0  0  0  0  0  0  0  0  0  0  0  0
  186.9660  176.8620  142.6830 C   0  0  0  0  0  0  0  0  0  0  0  0
  187.3120  175.5400  142.2770 N   0  0  0  0  0  2  0  0  0  0  0  0
  185.9800  177.0530  143.7840 C   0  0  0  0  0  2  0  0  0  0  0  0
  187.5070  177.5400  145.6700 C   0  0  0  0  0  3  0  0  0  0  0  0
  186.5460  177.9580  144.8450 C   0  0  0  0  0  0  0  0  0  0  0  0
  185.2400  179.8910  144.0250 C   0  0  0  0  0  1  0  0  0  0  0  0
  186.0640  179.2620  144.9980 O   0  0  0  0  0  0  0  0  0  0  0  0
  188.1130  176.1610  145.6070 C   0  0  0  0  0  2  0  0  0  0  0  0
  190.7440  176.2330  147.5710 C   0  0  0  0  0  0  0  0  0  0  0  0
  191.8760  177.0830  148.0210 C   0  0  0  0  0  1  0  0  0  0  0  0
  189.5670  174.5270  146.8210 C   0  0  1  0  0  3  0  0  0  0  0  0
  189.5790  173.7590  145.4990 C   0  0  0  0  0  1  0  0  0  0  0  0
  190.8940  175.0260  147.1620 N   0  0  0  0  0  0  0  0  0  0  0  0
  188.6280  175.6790  146.9040 N   0  0  0  0  0  0  0  0  0  0  0  0
  189.4130  176.6900  147.4820 N   0  0  0  0  0  2  0  0  0  0  0  0
  1  9  1  0  0  0  0
  1 18  1  0  0  0  0
  3  4  1  0  0  0  0
  3 19  1  0  0  0  0
  4 18  1  6  0  0  0
  4 11  1  0  0  0  0
  5 17  2  0  0  0  0
  5 13  1  0  0  0  0
  7 20  1  0  0  0  0
  7 16  1  0  0  0  0
  8 19  2  0  0  0  0
  9  3  2  0  0  0  0
 11 15  1  0  0  0  0
 12 14  2  0  0  0  0
 12  9  1  0  0  0  0
 13  1  2  0  0  0  0
 14  8  1  0  0  0  0
 15  6  1  0  0  0  0
 16  6  1  0  0  0  0
 16  2  2  0  0  0  0
 17 12  1  0  0  0  0
 19 20  1  0  0  0  0
 20 10  1  6  0  0  0
 21 17  1  0  0  0  0
 22 14  1  0  0  0  0
 22 25  1  0  0  0  0
 23 24  2  0  0  0  0
 24 26  1  0  0  0  0
 25 24  1  0  0  0  0
 26 28  1  0  0  0  0
 28 30  1  0  0  0  0
 28 27  2  0  0  0  0
 29 30  1  0  0  0  0
 31 27  1  0  0  0  0
 31 37  1  0  0  0  0
 32 33  1  0  0  0  0
 34 35  1  6  0  0  0
 34 37  1  0  0  0  0
 34 36  1  0  0  0  0
 36 32  2  0  0  0  0
 37 38  1  0  0  0  0
 38 32  1  0  0  0  0
M  END
>  <MODEL>
6

>  <REMARK>
 VINA RESULT:      -7.1      2.377      7.316
  Name = 
  7 active torsions:
  status: ('A' for Active; 'I' for Inactive)
    1  A    between atoms: C_1  and  N_25
    2  A    between atoms: C_1  and  C_28
    3  A    between atoms: C_8  and  C_11
    4  A    between atoms: C_8  and  N_32
    5  A    between atoms: C_16  and  C_22
    6  A    between atoms: C_16  and  O_29
    7  A    between atoms: C_20  and  C_22
                            x       y       z     vdW  Elec       q    Type
                         _______ _______ _______ _____ _____    ______ ____

>  <TORSDO>
F 7

$$$$
=
 OpenBabel11062419263D

 38 42  0  0  1  0  0  0  0  0999 V2000
  184.5050  178.6690  145.1740 C   0  0  0  0  0  0  0  0  0  0  0  0
  186.7990  176.9030  138.6420 O   0  0  0  0  0  0  0  0  0  0  0  0
  185.7980  177.6690  143.6150 C   0  0  0  0  0  0  0  0  0  0  0  0
  184.8520  178.5310  142.8220 C   0  0  1  0  0  3  0  0  0  0  0  0
  184.8210  178.3650  147.5030 N   0  0  0  0  0  0  0  0  0  0  0  0
  184.8240  177.6410  139.5400 O   0  0  0  0  0  0  0  0  0  0  0  0
  186.9990  177.8060  140.8310 C   0  0  0  0  0  2  0  0  0  0  0  0
  187.6300  176.2120  144.1920 C   0  0  0  0  0  3  0  0  0  0  0  0
  185.5460  177.8280  144.9460 C   0  0  0  0  0  0  0  0  0  0  0  0
  188.4800  175.9230  141.4660 C   0  0  0  0  0  1  0  0  0  0  0  0
  184.0310  177.7140  141.8400 C   0  0  0  0  0  2  0  0  0  0  0  0
  186.2830  177.2220  145.9620 C   0  0  0  0  0  0  0  0  0  0  0  0
  184.1250  178.9490  146.4820 C   0  0  0  0  0  3  0  0  0  0  0  0
  187.3560  176.3830  145.5660 C   0  0  0  0  0  0  0  0  0  0  0  0
  184.0810  178.4040  140.4860 C   0  0  0  0  0  2  0  0  0  0  0  0
  186.2100  177.4480  139.6100 C   0  0  0  0  0  0  0  0  0  0  0  0
  185.8800  177.5200  147.2910 C   0  0  0  0  0  0  0  0  0  0  0  0
  183.9330  179.1730  143.8930 C   0  0  0  0  0  2  0  0  0  0  0  0
  186.8750  176.8640  143.1880 C   0  0  0  0  0  0  0  0  0  0  0  0
  187.1290  176.5750  141.7230 C   0  0  1  0  0  3  0  0  0  0  0  0
  186.5460  176.9590  148.4170 N   0  0  0  0  0  1  0  0  0  0  0  0
  188.2620  175.7130  146.5440 C   0  0  0  0  0  2  0  0  0  0  0  0
  190.4760  174.1360  145.6820 O   0  0  0  0  0  0  0  0  0  0  0  0
  190.6770  175.3590  145.9070 C   0  0  0  0  0  0  0  0  0  0  0  0
  189.6170  176.2010  146.3540 N   0  0  0  0  0  2  0  0  0  0  0  0
  192.0240  175.9500  145.6650 C   0  0  0  0  0  2  0  0  0  0  0  0
  193.7130  174.6850  144.3700 C   0  0  0  0  0  3  0  0  0  0  0  0
  192.6040  175.4250  144.3790 C   0  0  0  0  0  0  0  0  0  0  0  0
  191.8470  174.7450  142.1250 C   0  0  0  0  0  1  0  0  0  0  0  0
  191.9930  175.7150  143.1540 O   0  0  0  0  0  0  0  0  0  0  0  0
  194.4620  174.3000  145.6200 C   0  0  0  0  0  2  0  0  0  0  0  0
  197.0970  175.0940  143.8270 C   0  0  0  0  0  0  0  0  0  0  0  0
  197.5300  175.5820  142.4930 C   0  0  0  0  0  1  0  0  0  0  0  0
  196.9330  173.9110  145.6800 C   0  0  1  0  0  3  0  0  0  0  0  0
  196.5620  172.4530  145.9510 C   0  0  0  0  0  1  0  0  0  0  0  0
  197.6060  174.0620  144.3950 N   0  0  0  0  0  0  0  0  0  0  0  0
  195.8130  174.8910  145.7090 N   0  0  0  0  0  0  0  0  0  0  0  0
  196.0400  175.6700  144.5620 N   0  0  0  0  0  2  0  0  0  0  0  0
  1 13  1  0  0  0  0
  2 16  2  0  0  0  0
  3  9  1  0  0  0  0
  4 11  1  6  0  0  0
  4  3  1  0  0  0  0
  4 18  1  0  0  0  0
  6 16  1  0  0  0  0
  6 15  1  0  0  0  0
  7 20  1  0  0  0  0
  8 14  2  0  0  0  0
  9  1  2  0  0  0  0
  9 12  1  0  0  0  0
 12 17  2  0  0  0  0
 13  5  2  0  0  0  0
 14 12  1  0  0  0  0
 14 22  1  0  0  0  0
 15 11  1  0  0  0  0
 16  7  1  0  0  0  0
 17  5  1  0  0  0  0
 17 21  1  0  0  0  0
 18  1  1  0  0  0  0
 19  3  2  0  0  0  0
 19  8  1  0  0  0  0
 20 10  1  1  0  0  0
 20 19  1  0  0  0  0
 23 24  2  0  0  0  0
 24 25  1  0  0  0  0
 25 22  1  0  0  0  0
 26 24  1  0  0  0  0
 27 28  2  0  0  0  0
 27 31  1  0  0  0  0
 28 26  1  0  0  0  0
 29 30  1  0  0  0  0
 30 28  1  0  0  0  0
 31 37  1  0  0  0  0
 32 36  2  0  0  0  0
 32 38  1  0  0  0  0
 33 32  1  0  0  0  0
 34 37  1  0  0  0  0
 34 35  1  6  0  0  0
 36 34  1  0  0  0  0
 38 37  1  0  0  0  0
M  END
>  <MODEL>
7

>  <REMARK>
 VINA RESULT:      -7.1      3.068      5.518
  Name = 
  7 active torsions:
  status: ('A' for Active; 'I' for Inactive)
    1  A    between atoms: C_1  and  N_25
    2  A    between atoms: C_1  and  C_28
    3  A    between atoms: C_8  and  C_11
    4  A    between atoms: C_8  and  N_32
    5  A    between atoms: C_16  and  C_22
    6  A    between atoms: C_16  and  O_29
    7  A    between atoms: C_20  and  C_22
                            x       y       z     vdW  Elec       q    Type
                         _______ _______ _______ _____ _____    ______ ____

>  <TORSDO>
F 7

$$$$
=
 OpenBabel11062419263D

 38 42  0  0  1  0  0  0  0  0999 V2000
  189.4310  177.1780  146.8420 C   0  0  0  0  0  0  0  0  0  0  0  0
  184.4400  178.3230  141.8590 O   0  0  0  0  0  0  0  0  0  0  0  0
  188.5660  177.4050  144.7690 C   0  0  0  0  0  0  0  0  0  0  0  0
  187.4190  177.7220  145.6910 C   0  0  1  0  0  3  0  0  0  0  0  0
  191.7080  176.6550  147.2420 N   0  0  0  0  0  0  0  0  0  0  0  0
  184.4450  177.6330  144.0450 O   0  0  0  0  0  0  0  0  0  0  0  0
  186.4790  178.7330  143.0090 C   0  0  0  0  0  2  0  0  0  0  0  0
  189.8950  177.1480  142.7740 C   0  0  0  0  0  3  0  0  0  0  0  0
  189.6770  177.1310  145.5080 C   0  0  0  0  0  0  0  0  0  0  0  0
  187.7460  177.9260  141.0380 C   0  0  0  0  0  1  0  0  0  0  0  0
  186.2370  176.7960  145.4640 C   0  0  0  0  0  2  0  0  0  0  0  0
  190.9330  176.8580  144.9660 C   0  0  0  0  0  0  0  0  0  0  0  0
  190.4660  176.9350  147.7380 C   0  0  0  0  0  3  0  0  0  0  0  0
  191.0380  176.8630  143.5510 C   0  0  0  0  0  0  0  0  0  0  0  0
  184.9780  177.6450  145.3660 C   0  0  0  0  0  2  0  0  0  0  0  0
  185.0660  178.2420  142.9470 C   0  0  0  0  0  0  0  0  0  0  0  0
  191.9760  176.6110  145.8970 C   0  0  0  0  0  0  0  0  0  0  0  0
  188.0040  177.5130  147.1110 C   0  0  0  0  0  2  0  0  0  0  0  0
  188.6420  177.4450  143.3610 C   0  0  0  0  0  0  0  0  0  0  0  0
  187.4130  177.6420  142.4950 C   0  0  1  0  0  3  0  0  0  0  0  0
  193.3020  176.3140  145.4720 N   0  0  0  0  0  1  0  0  0  0  0  0
  192.3280  176.6410  142.8360 C   0  0  0  0  0  2  0  0  0  0  0  0
  194.5540  174.8660  142.6620 O   0  0  0  0  0  0  0  0  0  0  0  0
  193.4580  174.4850  142.1710 C   0  0  0  0  0  0  0  0  0  0  0  0
  192.3100  175.3290  142.2120 N   0  0  0  0  0  2  0  0  0  0  0  0
  193.3410  173.1230  141.5770 C   0  0  0  0  0  2  0  0  0  0  0  0
  191.8950  172.9870  139.5710 C   0  0  0  0  0  3  0  0  0  0  0  0
  193.1010  173.2170  140.0940 C   0  0  0  0  0  0  0  0  0  0  0  0
  194.1790  174.7520  138.4820 C   0  0  0  0  0  1  0  0  0  0  0  0
  194.1480  173.5390  139.2230 O   0  0  0  0  0  0  0  0  0  0  0  0
  190.6860  172.6360  140.4010 C   0  0  0  0  0  2  0  0  0  0  0  0
  188.9740  173.7960  137.8490 C   0  0  0  0  0  0  0  0  0  0  0  0
  189.1050  174.4450  136.5190 C   0  0  0  0  0  1  0  0  0  0  0  0
  188.3340  173.3330  139.9060 C   0  0  1  0  0  3  0  0  0  0  0  0
  188.4290  174.1070  141.2220 C   0  0  0  0  0  1  0  0  0  0  0  0
  188.1900  174.2310  138.7670 N   0  0  0  0  0  0  0  0  0  0  0  0
  189.4640  172.4120  139.6030 N   0  0  0  0  0  0  0  0  0  0  0  0
  189.7480  172.6890  138.2550 N   0  0  0  0  0  2  0  0  0  0  0  0
  1 18  1  0  0  0  0
  1 13  1  0  0  0  0
  2 16  2  0  0  0  0
  3  9  1  0  0  0  0
  3  4  1  0  0  0  0
  4 11  1  6  0  0  0
  4 18  1  0  0  0  0
  5 13  2  0  0  0  0
  6 15  1  0  0  0  0
  8 19  1  0  0  0  0
  8 14  2  0  0  0  0
  9  1  2  0  0  0  0
 12  9  1  0  0  0  0
 12 17  2  0  0  0  0
 14 12  1  0  0  0  0
 15 11  1  0  0  0  0
 16  7  1  0  0  0  0
 16  6  1  0  0  0  0
 17  5  1  0  0  0  0
 19  3  2  0  0  0  0
 20 10  1  6  0  0  0
 20  7  1  0  0  0  0
 20 19  1  0  0  0  0
 21 17  1  0  0  0  0
 22 14  1  0  0  0  0
 24 25  1  0  0  0  0
 24 23  2  0  0  0  0
 25 22  1  0  0  0  0
 26 24  1  0  0  0  0
 27 28  2  0  0  0  0
 27 31  1  0  0  0  0
 28 26  1  0  0  0  0
 29 30  1  0  0  0  0
 30 28  1  0  0  0  0
 32 38  1  0  0  0  0
 32 36  2  0  0  0  0
 33 32  1  0  0  0  0
 34 35  1  1  0  0  0
 36 34  1  0  0  0  0
 37 34  1  0  0  0  0
 37 31  1  0  0  0  0
 38 37  1  0  0  0  0
M  END
>  <MODEL>
8

>  <REMARK>
 VINA RESULT:      -7.0      1.458      2.215
  Name = 
  7 active torsions:
  status: ('A' for Active; 'I' for Inactive)
    1  A    between atoms: C_1  and  N_25
    2  A    between atoms: C_1  and  C_28
    3  A    between atoms: C_8  and  C_11
    4  A    between atoms: C_8  and  N_32
    5  A    between atoms: C_16  and  C_22
    6  A    between atoms: C_16  and  O_29
    7  A    between atoms: C_20  and  C_22
                            x       y       z     vdW  Elec       q    Type
                         _______ _______ _______ _____ _____    ______ ____

>  <TORSDO>
F 7

$$$$
=
 OpenBabel11062419263D

 38 42  0  0  1  0  0  0  0  0999 V2000
  189.4640  176.0090  146.5590 C   0  0  0  0  0  0  0  0  0  0  0  0
  183.8640  179.4650  143.7760 O   0  0  0  0  0  0  0  0  0  0  0  0
  187.8940  176.5450  145.0280 C   0  0  0  0  0  0  0  0  0  0  0  0
  187.6800  177.5300  146.1460 C   0  0  1  0  0  3  0  0  0  0  0  0
  191.0700  174.2990  146.2190 N   0  0  0  0  0  0  0  0  0  0  0  0
  184.6510  179.0550  145.8900 O   0  0  0  0  0  0  0  0  0  0  0  0
  186.1140  178.7040  143.8500 C   0  0  0  0  0  2  0  0  0  0  0  0
  187.7250  175.4280  142.8980 C   0  0  0  0  0  3  0  0  0  0  0  0
  188.9450  175.7340  145.3360 C   0  0  0  0  0  0  0  0  0  0  0  0
  185.6550  177.1770  141.9540 C   0  0  0  0  0  1  0  0  0  0  0  0
  186.2750  177.4410  146.7170 C   0  0  0  0  0  2  0  0  0  0  0  0
  189.4520  174.7500  144.4880 C   0  0  0  0  0  0  0  0  0  0  0  0
  190.5540  175.2780  147.0210 C   0  0  0  0  0  3  0  0  0  0  0  0
  188.8130  174.5920  143.2310 C   0  0  0  0  0  0  0  0  0  0  0  0
  185.7110  178.8510  146.8180 C   0  0  0  0  0  2  0  0  0  0  0  0
  184.8300  179.1140  144.5010 C   0  0  0  0  0  0  0  0  0  0  0  0
  190.5620  174.0130  144.9770 C   0  0  0  0  0  0  0  0  0  0  0  0
  188.7250  177.1240  147.2170 C   0  0  0  0  0  2  0  0  0  0  0  0
  187.2540  176.4340  143.7750 C   0  0  0  0  0  0  0  0  0  0  0  0
  186.0190  177.2410  143.4300 C   0  0  1  0  0  3  0  0  0  0  0  0
  191.1680  172.9770  144.2110 N   0  0  0  0  0  1  0  0  0  0  0  0
  189.2810  173.6170  142.2040 C   0  0  0  0  0  2  0  0  0  0  0  0
  191.4430  172.2280  140.9670 O   0  0  0  0  0  0  0  0  0  0  0  0
  191.3730  173.4740  140.7990 C   0  0  0  0  0  0  0  0  0  0  0  0
  190.3250  174.2310  141.4020 N   0  0  0  0  0  2  0  0  0  0  0  0
  192.3660  174.1670  139.9310 C   0  0  0  0  0  2  0  0  0  0  0  0
  194.5100  174.4970  141.1240 C   0  0  0  0  0  3  0  0  0  0  0  0
  193.7650  173.7550  140.3030 C   0  0  0  0  0  0  0  0  0  0  0  0
  194.9160  171.5870  140.6080 C   0  0  0  0  0  1  0  0  0  0  0  0
  194.3240  172.5830  139.7830 O   0  0  0  0  0  0  0  0  0  0  0  0
  194.0240  175.7780  141.7540 C   0  0  0  0  0  2  0  0  0  0  0  0
  192.0180  177.3400  143.8330 C   0  0  0  0  0  0  0  0  0  0  0  0
  191.0430  178.4560  143.9410 C   0  0  0  0  0  1  0  0  0  0  0  0
  193.7080  175.9820  144.2270 C   0  0  1  0  0  3  0  0  0  0  0  0
  195.2220  176.1940  144.2690 C   0  0  0  0  0  1  0  0  0  0  0  0
  192.9890  177.1760  144.6550 N   0  0  0  0  0  0  0  0  0  0  0  0
  193.1370  175.5690  142.9160 N   0  0  0  0  0  0  0  0  0  0  0  0
  192.0130  176.4010  142.7810 N   0  0  0  0  0  2  0  0  0  0  0  0
  1 13  1  0  0  0  0
  1 18  1  0  0  0  0
  2 16  2  0  0  0  0
  3  9  1  0  0  0  0
  3  4  1  0  0  0  0
  4 11  1  1  0  0  0
  4 18  1  0  0  0  0
  5 13  2  0  0  0  0
  6 15  1  0  0  0  0
  7 16  1  0  0  0  0
  8 14  2  0  0  0  0
  8 19  1  0  0  0  0
  9  1  2  0  0  0  0
 11 15  1  0  0  0  0
 12 17  2  0  0  0  0
 12  9  1  0  0  0  0
 14 12  1  0  0  0  0
 16  6  1  0  0  0  0
 17  5  1  0  0  0  0
 19  3  2  0  0  0  0
 20 10  1  6  0  0  0
 20 19  1  0  0  0  0
 20  7  1  0  0  0  0
 21 17  1  0  0  0  0
 22 14  1  0  0  0  0
 24 23  2  0  0  0  0
 24 25  1  0  0  0  0
 25 22  1  0  0  0  0
 26 28  1  0  0  0  0
 26 24  1  0  0  0  0
 27 31  1  0  0  0  0
 28 27  2  0  0  0  0
 30 28  1  0  0  0  0
 30 29  1  0  0  0  0
 31 37  1  0  0  0  0
 32 33  1  0  0  0  0
 32 36  2  0  0  0  0
 34 35  1  6  0  0  0
 34 36  1  0  0  0  0
 37 34  1  0  0  0  0
 38 37  1  0  0  0  0
 38 32  1  0  0  0  0
M  END
>  <MODEL>
9

>  <REMARK>
 VINA RESULT:      -7.0      1.741      3.279
  Name = 
  7 active torsions:
  status: ('A' for Active; 'I' for Inactive)
    1  A    between atoms: C_1  and  N_25
    2  A    between atoms: C_1  and  C_28
    3  A    between atoms: C_8  and  C_11
    4  A    between atoms: C_8  and  N_32
    5  A    between atoms: C_16  and  C_22
    6  A    between atoms: C_16  and  O_29
    7  A    between atoms: C_20  and  C_22
                            x       y       z     vdW  Elec       q    Type
                         _______ _______ _______ _____ _____    ______ ____

>  <TORSDO>
F 7

$$$$
