=
 OpenBabel11062422503D

 46 51  0  0  1  0  0  0  0  0999 V2000
  192.2620  171.3850  144.0620 C   0  0  2  0  0  3  0  0  0  0  0  0
  192.3010  171.4700  141.6960 C   0  0  2  0  0  3  0  0  0  0  0  0
  190.2470  172.3280  142.9610 C   0  0  2  0  0  3  0  0  0  0  0  0
  191.7870  172.2440  142.9020 C   0  0  1  0  0  3  0  0  0  0  0  0
  193.5590  171.9380  144.6210 C   0  0  0  0  0  1  0  0  0  0  0  0
  189.6340  172.7240  141.6240 C   0  0  0  0  0  2  0  0  0  0  0  0
  190.0430  171.7160  140.5630 C   0  0  2  0  0  3  0  0  0  0  0  0
  191.5680  171.7300  140.3740 C   0  0  1  0  0  3  0  0  0  0  0  0
  192.2740  170.0290  142.1340 C   0  0  0  0  0  2  0  0  0  0  0  0
  192.4740  170.0180  143.5800 N   0  0  0  0  0  2  0  0  0  0  0  0
  189.7950  173.2920  144.0100 C   0  0  0  0  0  0  0  0  0  0  0  0
  189.6550  174.6700  143.6710 N   0  0  0  0  0  2  0  0  0  0  0  0
  189.6130  172.9040  145.1950 O   0  0  0  0  0  0  0  0  0  0  0  0
  189.3050  175.6730  144.6640 C   0  0  1  0  0  3  0  0  0  0  0  0
  190.3640  175.3940  147.3260 C   0  0  0  0  0  1  0  0  0  0  0  0
  190.5560  176.4780  145.0470 C   0  0  1  0  0  0  0  0  0  0  0  0
  190.3880  177.4290  146.0730 O   0  0  0  0  0  0  0  0  0  0  0  0
  191.1650  176.2900  146.3940 C   0  0  1  0  0  3  0  0  0  0  0  0
  191.2200  178.1670  143.6850 C   0  0  0  0  0  1  0  0  0  0  0  0
  191.4900  176.8410  144.0570 O   0  0  0  0  0  0  0  0  0  0  0  0
  188.1890  176.5600  144.1300 C   0  0  0  0  0  2  0  0  0  0  0  0
  185.6010  176.8240  146.0650 C   0  0  2  0  0  3  0  0  0  0  0  0
  185.6380  177.3530  143.7370 O   0  0  0  0  0  1  0  0  0  0  0  0
  186.5990  178.4050  147.6180 O   0  0  0  0  0  1  0  0  0  0  0  0
  186.2240  177.0670  147.4360 C   0  0  2  0  0  3  0  0  0  0  0  0
  187.0370  176.3850  146.3400 C   0  0  2  0  0  3  0  0  0  0  0  0
  186.1000  177.7780  144.9880 C   0  0  2  0  0  3  0  0  0  0  0  0
  187.5350  177.3430  145.2660 C   0  0  2  0  0  3  0  0  0  0  0  0
  189.2860  171.9850  139.2650 C   0  0  0  0  0  2  0  0  0  0  0  0
  188.2050  173.0350  139.4620 C   0  0  0  0  0  2  0  0  0  0  0  0
  188.2740  174.0840  138.3700 C   0  0  0  0  0  1  0  0  0  0  0  0
  192.0590  173.0380  139.7500 C   0  0  0  0  0  2  0  0  0  0  0  0
  193.5120  172.9300  139.3020 C   0  0  0  0  0  2  0  0  0  0  0  0
  195.5100  172.1270  141.1530 O   0  0  0  0  0  0  0  0  0  0  0  0
  195.1630  173.3410  141.1560 C   0  0  0  0  0  0  0  0  0  0  0  0
  194.3580  173.8400  140.0680 N   0  0  0  0  0  0  0  0  0  0  0  0
  197.2030  173.6530  144.0810 C   0  0  0  0  0  3  0  0  0  0  0  0
  194.8870  175.6670  144.2210 C   0  0  0  0  0  3  0  0  0  0  0  0
  196.9940  174.2250  142.7180 C   0  0  0  0  0  2  0  0  0  0  0  0
  194.6410  174.8980  142.9830 C   0  0  0  0  0  3  0  0  0  0  0  0
  195.5520  174.1820  142.3150 C   0  0  0  0  0  0  0  0  0  0  0  0
  197.0440  173.5890  146.4960 C   0  0  0  0  0  1  0  0  0  0  0  0
  196.6660  174.1770  145.1840 C   0  0  0  0  0  0  0  0  0  0  0  0
  195.7670  175.3490  145.1800 C   0  0  0  0  0  3  0  0  0  0  0  0
  194.3520  175.2830  138.2290 O   0  0  0  0  0  1  0  0  0  0  0  0
  194.4160  175.2250  139.6230 C   0  0  0  0  0  2  0  0  0  0  0  0
  1  5  1  6  0  0  0
  2  9  1  1  0  0  0
  2  4  1  0  0  0  0
  3 11  1  1  0  0  0
  4  3  1  0  0  0  0
  4  1  1  0  0  0  0
  6  3  1  0  0  0  0
  7  6  1  0  0  0  0
  8  7  1  0  0  0  0
  8  2  1  0  0  0  0
  9 10  1  0  0  0  0
 10  1  1  0  0  0  0
 11 13  2  0  0  0  0
 12 11  1  0  0  0  0
 12 14  1  0  0  0  0
 14 16  1  0  0  0  0
 16 17  1  0  0  0  0
 16 18  1  0  0  0  0
 17 18  1  0  0  0  0
 18 15  1  0  0  0  0
 19 20  1  0  0  0  0
 20 16  1  0  0  0  0
 21 14  1  0  0  0  0
 21 28  1  0  0  0  0
 22 26  1  0  0  0  0
 22 25  1  0  0  0  0
 23 27  1  0  0  0  0
 25 24  1  0  0  0  0
 26 25  1  0  0  0  0
 27 28  1  0  0  0  0
 27 22  1  0  0  0  0
 28 26  1  0  0  0  0
 29 30  1  0  0  0  0
 29  7  1  0  0  0  0
 31 30  1  0  0  0  0
 32  8  1  0  0  0  0
 33 32  1  0  0  0  0
 33 36  1  0  0  0  0
 34 35  2  0  0  0  0
 35 41  1  0  0  0  0
 36 35  1  0  0  0  0
 37 43  2  0  0  0  0
 38 44  2  0  0  0  0
 39 37  1  0  0  0  0
 40 38  1  0  0  0  0
 41 39  1  0  0  0  0
 41 40  2  0  0  0  0
 43 42  1  0  0  0  0
 44 43  1  0  0  0  0
 45 46  1  0  0  0  0
 46 36  1  0  0  0  0
M  END
>  <MODEL>
1

>  <REMARK>
 VINA RESULT:      -6.6      0.000      0.000
  Name = 
  13 active torsions:
  status: ('A' for Active; 'I' for Inactive)
    1  A    between atoms: C_5  and  C_20
    2  A    between atoms: C_7  and  C_10
    3  A    between atoms: C_13  and  N_29
    4  A    between atoms: N_15  and  C_46
    5  A    between atoms: C_16  and  O_44
    6  A    between atoms: C_16  and  C_46
    7  A    between atoms: C_17  and  C_23
    8  A    between atoms: C_20  and  C_41
    9  A    between atoms: C_24  and  C_34
   10  A    between atoms: C_24  and  C_46
   11  A    between atoms: C_25  and  N_29
   12  A    between atoms: C_25  and  C_36
   13  A    between atoms: C_36  and  C_42
                            x       y       z     vdW  Elec       q    Type
                         _______ _______ _______ _____ _____    ______ ____

>  <TORSDO>
F 13

$$$$
=
 OpenBabel11062422503D

 46 51  0  0  1  0  0  0  0  0999 V2000
  189.5060  172.8690  142.2210 C   0  0  2  0  0  3  0  0  0  0  0  0
  190.1590  173.6770  144.3490 C   0  0  2  0  0  3  0  0  0  0  0  0
  191.9320  173.2840  142.5450 C   0  0  2  0  0  3  0  0  0  0  0  0
  190.5150  173.8000  142.8740 C   0  0  1  0  0  3  0  0  0  0  0  0
  188.3230  173.6670  141.7060 C   0  0  0  0  0  1  0  0  0  0  0  0
  192.9830  173.8110  143.5140 C   0  0  0  0  0  2  0  0  0  0  0  0
  192.6130  173.4000  144.9310 C   0  0  2  0  0  3  0  0  0  0  0  0
  191.2740  174.0350  145.3380 C   0  0  1  0  0  3  0  0  0  0  0  0
  189.6430  172.2690  144.4970 C   0  0  0  0  0  2  0  0  0  0  0  0
  189.0510  171.8950  143.2150 N   0  0  0  0  0  2  0  0  0  0  0  0
  192.3310  173.6440  141.1510 C   0  0  0  0  0  0  0  0  0  0  0  0
  192.3380  172.6320  140.1470 N   0  0  0  0  0  2  0  0  0  0  0  0
  192.7300  174.8100  140.8840 O   0  0  0  0  0  0  0  0  0  0  0  0
  192.8000  172.8940  138.7940 C   0  0  1  0  0  3  0  0  0  0  0  0
  194.6300  174.8980  137.8310 C   0  0  0  0  0  1  0  0  0  0  0  0
  194.2900  172.5380  138.6790 C   0  0  1  0  0  0  0  0  0  0  0  0
  194.8320  172.5600  137.3790 O   0  0  0  0  0  0  0  0  0  0  0  0
  195.2650  173.5820  138.2570 C   0  0  1  0  0  3  0  0  0  0  0  0
  194.9150  170.3600  138.8150 C   0  0  0  0  0  1  0  0  0  0  0  0
  194.8480  171.5650  139.5320 O   0  0  0  0  0  0  0  0  0  0  0  0
  191.9440  172.1260  137.7970 C   0  0  0  0  0  2  0  0  0  0  0  0
  189.6960  169.8080  137.5170 C   0  0  2  0  0  3  0  0  0  0  0  0
  189.2440  172.1370  137.7730 O   0  0  0  0  0  1  0  0  0  0  0  0
  190.3780  168.5470  139.4810 O   0  0  0  0  0  1  0  0  0  0  0  0
  190.4020  168.5780  138.0800 C   0  0  2  0  0  3  0  0  0  0  0  0
  191.2210  169.7480  137.5440 C   0  0  2  0  0  3  0  0  0  0  0  0
  189.7270  171.0120  138.4490 C   0  0  2  0  0  3  0  0  0  0  0  0
  191.2510  170.9490  138.4790 C   0  0  2  0  0  3  0  0  0  0  0  0
  193.7480  173.7500  145.8900 C   0  0  0  0  0  2  0  0  0  0  0  0
  194.8440  174.5350  145.1880 C   0  0  0  0  0  2  0  0  0  0  0  0
  195.0050  175.9050  145.8180 C   0  0  0  0  0  1  0  0  0  0  0  0
  191.3790  175.5540  145.4840 C   0  0  0  0  0  2  0  0  0  0  0  0
  191.0130  176.0050  146.8930 C   0  0  0  0  0  2  0  0  0  0  0  0
  188.5380  174.7180  147.4230 O   0  0  0  0  0  0  0  0  0  0  0  0
  188.5010  175.8830  146.9370 C   0  0  0  0  0  0  0  0  0  0  0  0
  189.7120  176.6650  146.9050 N   0  0  0  0  0  0  0  0  0  0  0  0
  186.9000  177.8830  144.4370 C   0  0  0  0  0  3  0  0  0  0  0  0
  184.9220  177.3060  146.7160 C   0  0  0  0  0  3  0  0  0  0  0  0
  187.0900  176.4690  144.8780 C   0  0  0  0  0  2  0  0  0  0  0  0
  186.1930  176.6960  147.1590 C   0  0  0  0  0  3  0  0  0  0  0  0
  187.2190  176.3670  146.3670 C   0  0  0  0  0  0  0  0  0  0  0  0
  185.7080  179.9760  144.1860 C   0  0  0  0  0  1  0  0  0  0  0  0
  185.8460  178.6220  144.7850 C   0  0  0  0  0  0  0  0  0  0  0  0
  184.7740  178.1470  145.6840 C   0  0  0  0  0  3  0  0  0  0  0  0
  189.8540  178.5350  148.3000 O   0  0  0  0  0  1  0  0  0  0  0  0
  189.7060  178.1190  146.9750 C   0  0  0  0  0  2  0  0  0  0  0  0
  1  5  1  1  0  0  0
  1  4  1  0  0  0  0
  1 10  1  0  0  0  0
  2  9  1  6  0  0  0
  2  8  1  0  0  0  0
  3 11  1  6  0  0  0
  3  4  1  0  0  0  0
  3  6  1  0  0  0  0
  4  2  1  0  0  0  0
  6  7  1  0  0  0  0
  7  8  1  0  0  0  0
  7 29  1  0  0  0  0
  8 32  1  0  0  0  0
 10  9  1  0  0  0  0
 12 11  1  0  0  0  0
 13 11  2  0  0  0  0
 14 12  1  0  0  0  0
 15 18  1  0  0  0  0
 16 14  1  0  0  0  0
 16 20  1  0  0  0  0
 17 18  1  0  0  0  0
 17 16  1  0  0  0  0
 18 16  1  0  0  0  0
 19 20  1  0  0  0  0
 21 28  1  0  0  0  0
 21 14  1  0  0  0  0
 22 26  1  0  0  0  0
 22 25  1  0  0  0  0
 22 27  1  0  0  0  0
 23 27  1  0  0  0  0
 25 24  1  0  0  0  0
 26 25  1  0  0  0  0
 26 28  1  0  0  0  0
 27 28  1  0  0  0  0
 30 31  1  0  0  0  0
 30 29  1  0  0  0  0
 32 33  1  0  0  0  0
 33 36  1  0  0  0  0
 35 34  2  0  0  0  0
 36 35  1  0  0  0  0
 36 46  1  0  0  0  0
 37 43  2  0  0  0  0
 37 39  1  0  0  0  0
 38 40  1  0  0  0  0
 39 41  1  0  0  0  0
 41 35  1  0  0  0  0
 41 40  2  0  0  0  0
 42 43  1  0  0  0  0
 43 44  1  0  0  0  0
 44 38  2  0  0  0  0
 46 45  1  0  0  0  0
M  END
>  <MODEL>
2

>  <REMARK>
 VINA RESULT:      -6.5      2.377      8.893
  Name = 
  13 active torsions:
  status: ('A' for Active; 'I' for Inactive)
    1  A    between atoms: C_5  and  C_20
    2  A    between atoms: C_7  and  C_10
    3  A    between atoms: C_13  and  N_29
    4  A    between atoms: N_15  and  C_46
    5  A    between atoms: C_16  and  O_44
    6  A    between atoms: C_16  and  C_46
    7  A    between atoms: C_17  and  C_23
    8  A    between atoms: C_20  and  C_41
    9  A    between atoms: C_24  and  C_34
   10  A    between atoms: C_24  and  C_46
   11  A    between atoms: C_25  and  N_29
   12  A    between atoms: C_25  and  C_36
   13  A    between atoms: C_36  and  C_42
                            x       y       z     vdW  Elec       q    Type
                         _______ _______ _______ _____ _____    ______ ____

>  <TORSDO>
F 13

$$$$
=
 OpenBabel11062422503D

 46 51  0  0  1  0  0  0  0  0999 V2000
  189.5880  172.8230  142.3690 C   0  0  2  0  0  3  0  0  0  0  0  0
  190.1240  173.7530  144.4790 C   0  0  2  0  0  3  0  0  0  0  0  0
  191.9600  173.4630  142.7200 C   0  0  2  0  0  3  0  0  0  0  0  0
  190.4970  173.8600  143.0070 C   0  0  1  0  0  3  0  0  0  0  0  0
  188.3490  173.4940  141.8070 C   0  0  0  0  0  1  0  0  0  0  0  0
  192.9410  174.1130  143.6890 C   0  0  0  0  0  2  0  0  0  0  0  0
  192.5810  173.7160  145.1120 C   0  0  2  0  0  3  0  0  0  0  0  0
  191.1830  174.2410  145.4750 C   0  0  1  0  0  3  0  0  0  0  0  0
  189.7320  172.3100  144.6660 C   0  0  0  0  0  2  0  0  0  0  0  0
  189.2020  171.8430  143.3870 N   0  0  0  0  0  2  0  0  0  0  0  0
  192.3540  173.8130  141.3220 C   0  0  0  0  0  0  0  0  0  0  0  0
  192.2790  172.8130  140.3090 N   0  0  0  0  0  2  0  0  0  0  0  0
  192.8200  174.9540  141.0580 O   0  0  0  0  0  0  0  0  0  0  0  0
  192.7290  173.0610  138.9490 C   0  0  1  0  0  3  0  0  0  0  0  0
  194.6070  174.9990  137.9460 C   0  0  0  0  0  1  0  0  0  0  0  0
  194.2050  172.6560  138.8130 C   0  0  1  0  0  0  0  0  0  0  0  0
  194.7270  172.6540  137.5050 O   0  0  0  0  0  0  0  0  0  0  0  0
  195.2060  173.6670  138.3690 C   0  0  1  0  0  3  0  0  0  0  0  0
  194.8080  170.4720  138.9350 C   0  0  0  0  0  1  0  0  0  0  0  0
  194.7450  171.6700  139.6620 O   0  0  0  0  0  0  0  0  0  0  0  0
  191.8350  172.3210  137.9650 C   0  0  0  0  0  2  0  0  0  0  0  0
  189.6970  169.9050  137.6460 C   0  0  2  0  0  3  0  0  0  0  0  0
  189.1370  172.2100  137.9160 O   0  0  0  0  0  1  0  0  0  0  0  0
  190.4170  168.6610  139.6060 O   0  0  0  0  0  1  0  0  0  0  0  0
  190.4530  168.7040  138.2070 C   0  0  2  0  0  3  0  0  0  0  0  0
  191.2230  169.9150  137.6860 C   0  0  2  0  0  3  0  0  0  0  0  0
  189.6650  171.1020  138.5880 C   0  0  2  0  0  3  0  0  0  0  0  0
  191.1900  171.1090  138.6310 C   0  0  2  0  0  3  0  0  0  0  0  0
  193.6600  174.1960  146.0790 C   0  0  0  0  0  2  0  0  0  0  0  0
  194.8250  174.8310  145.3360 C   0  0  0  0  0  2  0  0  0  0  0  0
  196.1420  174.2540  145.8160 C   0  0  0  0  0  1  0  0  0  0  0  0
  191.1490  175.7680  145.5710 C   0  0  0  0  0  2  0  0  0  0  0  0
  189.9500  176.2470  146.3810 C   0  0  0  0  0  2  0  0  0  0  0  0
  187.3060  177.0190  147.0720 O   0  0  0  0  0  0  0  0  0  0  0  0
  187.6880  177.2330  145.8880 C   0  0  0  0  0  0  0  0  0  0  0  0
  189.0900  177.1050  145.5720 N   0  0  0  0  0  0  0  0  0  0  0  0
  186.4210  176.5530  142.6090 C   0  0  0  0  0  3  0  0  0  0  0  0
  185.3310  179.2520  143.5960 C   0  0  0  0  0  3  0  0  0  0  0  0
  186.0840  176.4240  144.0590 C   0  0  0  0  0  2  0  0  0  0  0  0
  186.2480  178.8040  144.6650 C   0  0  0  0  0  3  0  0  0  0  0  0
  186.6620  177.5470  144.8630 C   0  0  0  0  0  0  0  0  0  0  0  0
  186.3140  177.5330  140.3980 C   0  0  0  0  0  1  0  0  0  0  0  0
  186.0170  177.5750  141.8540 C   0  0  0  0  0  0  0  0  0  0  0  0
  185.2350  178.7180  142.3710 C   0  0  0  0  0  3  0  0  0  0  0  0
  189.5630  177.2330  143.2870 O   0  0  0  0  0  1  0  0  0  0  0  0
  189.7260  177.8780  144.5160 C   0  0  0  0  0  2  0  0  0  0  0  0
  1  5  1  1  0  0  0
  1  4  1  0  0  0  0
  1 10  1  0  0  0  0
  2  9  1  1  0  0  0
  2  8  1  0  0  0  0
  3 11  1  6  0  0  0
  3  4  1  0  0  0  0
  3  6  1  0  0  0  0
  4  2  1  0  0  0  0
  6  7  1  0  0  0  0
  7  8  1  0  0  0  0
  7 29  1  0  0  0  0
  8 32  1  0  0  0  0
 10  9  1  0  0  0  0
 12 11  1  0  0  0  0
 13 11  2  0  0  0  0
 14 12  1  0  0  0  0
 15 18  1  0  0  0  0
 16 14  1  0  0  0  0
 16 20  1  0  0  0  0
 17 18  1  0  0  0  0
 17 16  1  0  0  0  0
 18 16  1  0  0  0  0
 19 20  1  0  0  0  0
 21 28  1  0  0  0  0
 21 14  1  0  0  0  0
 22 26  1  0  0  0  0
 22 25  1  0  0  0  0
 22 27  1  0  0  0  0
 23 27  1  0  0  0  0
 25 24  1  0  0  0  0
 26 25  1  0  0  0  0
 26 28  1  0  0  0  0
 27 28  1  0  0  0  0
 30 31  1  0  0  0  0
 30 29  1  0  0  0  0
 32 33  1  0  0  0  0
 35 34  2  0  0  0  0
 36 35  1  0  0  0  0
 36 33  1  0  0  0  0
 37 39  1  0  0  0  0
 38 40  1  0  0  0  0
 39 41  1  0  0  0  0
 40 41  2  0  0  0  0
 41 35  1  0  0  0  0
 42 43  1  0  0  0  0
 43 44  1  0  0  0  0
 43 37  2  0  0  0  0
 44 38  2  0  0  0  0
 45 46  1  0  0  0  0
 46 36  1  0  0  0  0
M  END
>  <MODEL>
3

>  <REMARK>
 VINA RESULT:      -6.4      2.445      8.776
  Name = 
  13 active torsions:
  status: ('A' for Active; 'I' for Inactive)
    1  A    between atoms: C_5  and  C_20
    2  A    between atoms: C_7  and  C_10
    3  A    between atoms: C_13  and  N_29
    4  A    between atoms: N_15  and  C_46
    5  A    between atoms: C_16  and  O_44
    6  A    between atoms: C_16  and  C_46
    7  A    between atoms: C_17  and  C_23
    8  A    between atoms: C_20  and  C_41
    9  A    between atoms: C_24  and  C_34
   10  A    between atoms: C_24  and  C_46
   11  A    between atoms: C_25  and  N_29
   12  A    between atoms: C_25  and  C_36
   13  A    between atoms: C_36  and  C_42
                            x       y       z     vdW  Elec       q    Type
                         _______ _______ _______ _____ _____    ______ ____

>  <TORSDO>
F 13

$$$$
=
 OpenBabel11062422503D

 46 51  0  0  1  0  0  0  0  0999 V2000
  191.9750  170.7570  142.1060 C   0  0  2  0  0  3  0  0  0  0  0  0
  190.5240  172.6050  142.3950 C   0  0  2  0  0  3  0  0  0  0  0  0
  192.2010  172.0120  144.2350 C   0  0  2  0  0  3  0  0  0  0  0  0
  191.9380  172.1460  142.7200 C   0  0  1  0  0  3  0  0  0  0  0  0
  192.6180  170.8130  140.7330 C   0  0  0  0  0  1  0  0  0  0  0  0
  191.7130  173.2230  145.0200 C   0  0  0  0  0  2  0  0  0  0  0  0
  190.2230  173.4110  144.7830 C   0  0  2  0  0  3  0  0  0  0  0  0
  189.9530  173.7050  143.2990 C   0  0  1  0  0  3  0  0  0  0  0  0
  189.7080  171.3390  142.3890 C   0  0  0  0  0  2  0  0  0  0  0  0
  190.6030  170.2560  141.9900 N   0  0  0  0  0  2  0  0  0  0  0  0
  193.6530  171.8020  144.5180 C   0  0  0  0  0  0  0  0  0  0  0  0
  194.6220  172.4650  143.7090 N   0  0  0  0  0  2  0  0  0  0  0  0
  194.0160  170.9890  145.4110 O   0  0  0  0  0  0  0  0  0  0  0  0
  196.0480  172.2350  143.8740 C   0  0  1  0  0  3  0  0  0  0  0  0
  197.4080  169.9390  144.9530 C   0  0  0  0  0  1  0  0  0  0  0  0
  196.5070  171.1300  142.9110 C   0  0  1  0  0  0  0  0  0  0  0  0
  197.8980  170.9190  142.8300 O   0  0  0  0  0  0  0  0  0  0  0  0
  197.1440  169.8990  143.4560 C   0  0  1  0  0  3  0  0  0  0  0  0
  196.4700  171.6290  140.6970 C   0  0  0  0  0  1  0  0  0  0  0  0
  195.8090  170.9120  141.7060 O   0  0  0  0  0  0  0  0  0  0  0  0
  196.8090  173.5370  143.6640 C   0  0  0  0  0  2  0  0  0  0  0  0
  196.2870  176.6810  143.0750 C   0  0  2  0  0  3  0  0  0  0  0  0
  195.8590  175.5820  145.1500 O   0  0  0  0  0  1  0  0  0  0  0  0
  194.7140  176.3460  141.2520 O   0  0  0  0  0  1  0  0  0  0  0  0
  196.0290  176.7090  141.5710 C   0  0  2  0  0  3  0  0  0  0  0  0
  196.8120  175.5540  142.1900 C   0  0  2  0  0  3  0  0  0  0  0  0
  195.4150  175.6850  143.8270 C   0  0  2  0  0  3  0  0  0  0  0  0
  195.9360  174.5590  142.9400 C   0  0  2  0  0  3  0  0  0  0  0  0
  189.6780  174.4970  145.7070 C   0  0  0  0  0  2  0  0  0  0  0  0
  190.7810  175.1000  146.5630 C   0  0  0  0  0  2  0  0  0  0  0  0
  190.3950  176.4900  147.0290 C   0  0  0  0  0  1  0  0  0  0  0  0
  190.4990  175.0690  142.8730 C   0  0  0  0  0  2  0  0  0  0  0  0
  189.7640  175.6070  141.6520 C   0  0  0  0  0  2  0  0  0  0  0  0
  189.8540  178.3100  142.5160 O   0  0  0  0  0  0  0  0  0  0  0  0
  188.7830  177.6700  142.7080 C   0  0  0  0  0  0  0  0  0  0  0  0
  188.6040  176.3970  142.0530 N   0  0  0  0  0  0  0  0  0  0  0  0
  186.9340  177.2160  145.7400 C   0  0  0  0  0  3  0  0  0  0  0  0
  185.5950  179.3920  144.0320 C   0  0  0  0  0  3  0  0  0  0  0  0
  188.0050  178.0530  145.1200 C   0  0  0  0  0  2  0  0  0  0  0  0
  186.7140  178.8990  143.2020 C   0  0  0  0  0  3  0  0  0  0  0  0
  187.7840  178.2330  143.6500 C   0  0  0  0  0  0  0  0  0  0  0  0
  184.6970  176.7150  146.5170 C   0  0  0  0  0  1  0  0  0  0  0  0
  185.6500  177.5740  145.7670 C   0  0  0  0  0  0  0  0  0  0  0  0
  185.1310  178.8110  145.1470 C   0  0  0  0  0  3  0  0  0  0  0  0
  186.7390  175.1690  142.7440 O   0  0  0  0  0  1  0  0  0  0  0  0
  187.2920  175.8870  141.6810 C   0  0  0  0  0  2  0  0  0  0  0  0
  1  5  1  6  0  0  0
  1  4  1  0  0  0  0
  2  9  1  1  0  0  0
  2  4  1  0  0  0  0
  2  8  1  0  0  0  0
  3 11  1  6  0  0  0
  3  6  1  0  0  0  0
  4  3  1  0  0  0  0
  7  6  1  0  0  0  0
  7 29  1  0  0  0  0
  8  7  1  0  0  0  0
 10  1  1  0  0  0  0
 10  9  1  0  0  0  0
 11 13  2  0  0  0  0
 12 14  1  0  0  0  0
 12 11  1  0  0  0  0
 16 18  1  0  0  0  0
 16 14  1  0  0  0  0
 17 16  1  0  0  0  0
 17 18  1  0  0  0  0
 18 15  1  0  0  0  0
 19 20  1  0  0  0  0
 20 16  1  0  0  0  0
 21 14  1  0  0  0  0
 22 27  1  0  0  0  0
 24 25  1  0  0  0  0
 25 26  1  0  0  0  0
 25 22  1  0  0  0  0
 26 28  1  0  0  0  0
 26 22  1  0  0  0  0
 27 23  1  0  0  0  0
 28 21  1  0  0  0  0
 28 27  1  0  0  0  0
 29 30  1  0  0  0  0
 30 31  1  0  0  0  0
 32  8  1  0  0  0  0
 33 36  1  0  0  0  0
 33 32  1  0  0  0  0
 34 35  2  0  0  0  0
 35 41  1  0  0  0  0
 36 35  1  0  0  0  0
 37 43  2  0  0  0  0
 38 44  2  0  0  0  0
 39 37  1  0  0  0  0
 40 41  2  0  0  0  0
 40 38  1  0  0  0  0
 41 39  1  0  0  0  0
 43 42  1  0  0  0  0
 44 43  1  0  0  0  0
 46 36  1  0  0  0  0
 46 45  1  0  0  0  0
M  END
>  <MODEL>
4

>  <REMARK>
 VINA RESULT:      -6.3      2.288      8.089
  Name = 
  13 active torsions:
  status: ('A' for Active; 'I' for Inactive)
    1  A    between atoms: C_5  and  C_20
    2  A    between atoms: C_7  and  C_10
    3  A    between atoms: C_13  and  N_29
    4  A    between atoms: N_15  and  C_46
    5  A    between atoms: C_16  and  O_44
    6  A    between atoms: C_16  and  C_46
    7  A    between atoms: C_17  and  C_23
    8  A    between atoms: C_20  and  C_41
    9  A    between atoms: C_24  and  C_34
   10  A    between atoms: C_24  and  C_46
   11  A    between atoms: C_25  and  N_29
   12  A    between atoms: C_25  and  C_36
   13  A    between atoms: C_36  and  C_42
                            x       y       z     vdW  Elec       q    Type
                         _______ _______ _______ _____ _____    ______ ____

>  <TORSDO>
F 13

$$$$
=
 OpenBabel11062422503D

 46 51  0  0  1  0  0  0  0  0999 V2000
  190.3490  171.6180  142.7520 C   0  0  2  0  0  3  0  0  0  0  0  0
  191.6480  171.9920  140.8090 C   0  0  2  0  0  3  0  0  0  0  0  0
  189.5130  173.3520  141.1850 C   0  0  2  0  0  3  0  0  0  0  0  0
  190.7790  172.7340  141.8150 C   0  0  1  0  0  3  0  0  0  0  0  0
  191.2440  171.5950  143.9760 C   0  0  0  0  0  1  0  0  0  0  0  0
  189.8130  174.1120  139.9000 C   0  0  0  0  0  2  0  0  0  0  0  0
  190.4640  173.1710  138.8990 C   0  0  2  0  0  3  0  0  0  0  0  0
  191.8110  172.6650  139.4400 C   0  0  1  0  0  3  0  0  0  0  0  0
  191.0500  170.6110  140.7390 C   0  0  0  0  0  2  0  0  0  0  0  0
  190.4480  170.3400  142.0420 N   0  0  0  0  0  2  0  0  0  0  0  0
  188.8220  174.2680  142.1430 C   0  0  0  0  0  0  0  0  0  0  0  0
  189.5910  175.2330  142.8580 N   0  0  0  0  0  2  0  0  0  0  0  0
  187.5890  174.1390  142.3710 O   0  0  0  0  0  0  0  0  0  0  0  0
  188.9970  176.0940  143.8670 C   0  0  1  0  0  3  0  0  0  0  0  0
  189.0330  175.1920  146.6010 C   0  0  0  0  0  1  0  0  0  0  0  0
  190.0940  176.6240  144.8030 C   0  0  1  0  0  0  0  0  0  0  0  0
  189.6530  177.3910  145.9000 O   0  0  0  0  0  0  0  0  0  0  0  0
  190.1760  176.1110  146.2000 C   0  0  1  0  0  3  0  0  0  0  0  0
  191.2200  178.3450  143.8460 C   0  0  0  0  0  1  0  0  0  0  0  0
  191.3400  177.0150  144.2760 O   0  0  0  0  0  0  0  0  0  0  0  0
  188.2200  177.2170  143.1950 C   0  0  0  0  0  2  0  0  0  0  0  0
  185.1470  177.7350  144.0880 C   0  0  2  0  0  3  0  0  0  0  0  0
  186.1960  178.6770  142.1630 O   0  0  0  0  0  1  0  0  0  0  0  0
  185.6660  178.6890  146.2630 O   0  0  0  0  0  1  0  0  0  0  0  0
  185.1950  177.5470  145.6020 C   0  0  2  0  0  3  0  0  0  0  0  0
  186.2650  176.9100  144.7200 C   0  0  2  0  0  3  0  0  0  0  0  0
  186.1770  178.7250  143.5610 C   0  0  2  0  0  3  0  0  0  0  0  0
  187.2930  177.9030  144.1960 C   0  0  2  0  0  3  0  0  0  0  0  0
  190.5970  173.8600  137.5420 C   0  0  0  0  0  2  0  0  0  0  0  0
  189.3880  173.5850  136.6620 C   0  0  0  0  0  2  0  0  0  0  0  0
  188.5680  174.8460  136.4720 C   0  0  0  0  0  1  0  0  0  0  0  0
  192.8530  173.7820  139.5260 C   0  0  0  0  0  2  0  0  0  0  0  0
  194.2450  173.2240  139.7980 C   0  0  0  0  0  2  0  0  0  0  0  0
  196.1860  171.9510  141.4320 O   0  0  0  0  0  0  0  0  0  0  0  0
  195.5800  172.9480  141.9130 C   0  0  0  0  0  0  0  0  0  0  0  0
  194.7910  173.7760  141.0330 N   0  0  0  0  0  0  0  0  0  0  0  0
  193.9600  174.2360  144.8340 C   0  0  0  0  0  3  0  0  0  0  0  0
  196.9720  173.9520  145.3670 C   0  0  0  0  0  3  0  0  0  0  0  0
  194.4310  172.9660  144.2050 C   0  0  0  0  0  2  0  0  0  0  0  0
  196.8050  173.5690  143.9500 C   0  0  0  0  0  3  0  0  0  0  0  0
  195.6600  173.1830  143.3760 C   0  0  0  0  0  0  0  0  0  0  0  0
  194.0580  176.1120  146.3620 C   0  0  0  0  0  1  0  0  0  0  0  0
  194.6830  174.9280  145.7150 C   0  0  0  0  0  0  0  0  0  0  0  0
  196.0480  174.5480  146.1330 C   0  0  0  0  0  3  0  0  0  0  0  0
  195.7590  175.9040  141.0190 O   0  0  0  0  0  1  0  0  0  0  0  0
  194.5820  175.1960  141.2760 C   0  0  0  0  0  2  0  0  0  0  0  0
  1  5  1  1  0  0  0
  2  9  1  6  0  0  0
  2  4  1  0  0  0  0
  3  4  1  0  0  0  0
  3 11  1  1  0  0  0
  4  1  1  0  0  0  0
  6  3  1  0  0  0  0
  7  8  1  0  0  0  0
  7  6  1  0  0  0  0
  8 32  1  0  0  0  0
  8  2  1  0  0  0  0
  9 10  1  0  0  0  0
 10  1  1  0  0  0  0
 11 13  2  0  0  0  0
 11 12  1  0  0  0  0
 12 14  1  0  0  0  0
 14 16  1  0  0  0  0
 16 17  1  0  0  0  0
 16 18  1  0  0  0  0
 17 18  1  0  0  0  0
 18 15  1  0  0  0  0
 19 20  1  0  0  0  0
 20 16  1  0  0  0  0
 21 14  1  0  0  0  0
 21 28  1  0  0  0  0
 22 26  1  0  0  0  0
 22 25  1  0  0  0  0
 23 27  1  0  0  0  0
 25 24  1  0  0  0  0
 26 25  1  0  0  0  0
 27 22  1  0  0  0  0
 27 28  1  0  0  0  0
 28 26  1  0  0  0  0
 29  7  1  0  0  0  0
 30 29  1  0  0  0  0
 31 30  1  0  0  0  0
 32 33  1  0  0  0  0
 33 36  1  0  0  0  0
 34 35  2  0  0  0  0
 35 41  1  0  0  0  0
 36 46  1  0  0  0  0
 36 35  1  0  0  0  0
 37 43  2  0  0  0  0
 38 44  2  0  0  0  0
 39 37  1  0  0  0  0
 40 38  1  0  0  0  0
 41 40  2  0  0  0  0
 41 39  1  0  0  0  0
 43 44  1  0  0  0  0
 43 42  1  0  0  0  0
 45 46  1  0  0  0  0
M  END
>  <MODEL>
5

>  <REMARK>
 VINA RESULT:      -6.3      1.526      2.058
  Name = 
  13 active torsions:
  status: ('A' for Active; 'I' for Inactive)
    1  A    between atoms: C_5  and  C_20
    2  A    between atoms: C_7  and  C_10
    3  A    between atoms: C_13  and  N_29
    4  A    between atoms: N_15  and  C_46
    5  A    between atoms: C_16  and  O_44
    6  A    between atoms: C_16  and  C_46
    7  A    between atoms: C_17  and  C_23
    8  A    between atoms: C_20  and  C_41
    9  A    between atoms: C_24  and  C_34
   10  A    between atoms: C_24  and  C_46
   11  A    between atoms: C_25  and  N_29
   12  A    between atoms: C_25  and  C_36
   13  A    between atoms: C_36  and  C_42
                            x       y       z     vdW  Elec       q    Type
                         _______ _______ _______ _____ _____    ______ ____

>  <TORSDO>
F 13

$$$$
=
 OpenBabel11062422503D

 46 51  0  0  1  0  0  0  0  0999 V2000
  189.2330  172.3250  142.3990 C   0  0  2  0  0  3  0  0  0  0  0  0
  190.5860  173.7910  143.6720 C   0  0  2  0  0  3  0  0  0  0  0  0
  191.6380  172.4080  141.7930 C   0  0  2  0  0  3  0  0  0  0  0  0
  190.4310  173.2490  142.2580 C   0  0  1  0  0  3  0  0  0  0  0  0
  187.9710  173.0400  141.9550 C   0  0  0  0  0  1  0  0  0  0  0  0
  192.9700  173.0890  142.0860 C   0  0  0  0  0  2  0  0  0  0  0  0
  193.0840  173.3500  143.5790 C   0  0  2  0  0  3  0  0  0  0  0  0
  191.9800  174.3160  144.0380 C   0  0  1  0  0  3  0  0  0  0  0  0
  190.1060  172.6720  144.5600 C   0  0  0  0  0  2  0  0  0  0  0  0
  189.1070  171.9240  143.8020 N   0  0  0  0  0  2  0  0  0  0  0  0
  191.5580  172.1050  140.3320 C   0  0  0  0  0  0  0  0  0  0  0  0
  191.3770  173.1770  139.4090 N   0  0  0  0  0  2  0  0  0  0  0  0
  191.5740  170.9110  139.9280 O   0  0  0  0  0  0  0  0  0  0  0  0
  191.2040  172.9430  137.9840 C   0  0  1  0  0  3  0  0  0  0  0  0
  190.6520  170.6050  136.3980 C   0  0  0  0  0  1  0  0  0  0  0  0
  189.7400  172.5760  137.6980 C   0  0  1  0  0  0  0  0  0  0  0  0
  189.3490  172.6080  136.3440 O   0  0  0  0  0  0  0  0  0  0  0  0
  189.4310  171.3280  136.9440 C   0  0  1  0  0  3  0  0  0  0  0  0
  188.1840  174.1590  138.1690 C   0  0  0  0  0  1  0  0  0  0  0  0
  188.7310  172.9430  138.6090 O   0  0  0  0  0  0  0  0  0  0  0  0
  191.6560  174.1670  137.2010 C   0  0  0  0  0  2  0  0  0  0  0  0
  194.1790  175.0470  135.3660 C   0  0  2  0  0  3  0  0  0  0  0  0
  192.6850  173.2500  134.8790 O   0  0  0  0  0  1  0  0  0  0  0  0
  195.8740  174.7000  137.0730 O   0  0  0  0  0  1  0  0  0  0  0  0
  195.1370  175.6680  136.3780 C   0  0  2  0  0  3  0  0  0  0  0  0
  193.6450  175.5890  136.6890 C   0  0  2  0  0  3  0  0  0  0  0  0
  193.7060  173.6500  135.7480 C   0  0  2  0  0  3  0  0  0  0  0  0
  193.1770  174.1910  137.0720 C   0  0  2  0  0  3  0  0  0  0  0  0
  194.4850  173.8530  143.9170 C   0  0  0  0  0  2  0  0  0  0  0  0
  194.8170  173.6210  145.3830 C   0  0  0  0  0  2  0  0  0  0  0  0
  195.1600  174.9300  146.0660 C   0  0  0  0  0  1  0  0  0  0  0  0
  192.1750  175.7240  143.4710 C   0  0  0  0  0  2  0  0  0  0  0  0
  192.2920  176.7600  144.5820 C   0  0  0  0  0  2  0  0  0  0  0  0
  190.6560  176.1970  146.8340 O   0  0  0  0  0  0  0  0  0  0  0  0
  190.1390  176.8440  145.8820 C   0  0  0  0  0  0  0  0  0  0  0  0
  190.9970  177.3770  144.8520 N   0  0  0  0  0  0  0  0  0  0  0  0
  187.2580  177.6560  143.9180 C   0  0  0  0  0  3  0  0  0  0  0  0
  186.5340  177.7650  146.9020 C   0  0  0  0  0  3  0  0  0  0  0  0
  187.9380  176.5200  144.6080 C   0  0  0  0  0  2  0  0  0  0  0  0
  187.9830  177.4730  146.8780 C   0  0  0  0  0  3  0  0  0  0  0  0
  188.6610  176.9740  145.8390 C   0  0  0  0  0  0  0  0  0  0  0  0
  185.6030  179.4020  143.6460 C   0  0  0  0  0  1  0  0  0  0  0  0
  186.2830  178.3740  144.4760 C   0  0  0  0  0  0  0  0  0  0  0  0
  185.7970  178.1610  145.8550 C   0  0  0  0  0  3  0  0  0  0  0  0
  190.3820  178.2650  142.7800 O   0  0  0  0  0  1  0  0  0  0  0  0
  190.6700  178.5850  144.1090 C   0  0  0  0  0  2  0  0  0  0  0  0
  1  5  1  1  0  0  0
  1 10  1  0  0  0  0
  2  8  1  0  0  0  0
  2  9  1  1  0  0  0
  3 11  1  6  0  0  0
  3  6  1  0  0  0  0
  3  4  1  0  0  0  0
  4  1  1  0  0  0  0
  4  2  1  0  0  0  0
  6  7  1  0  0  0  0
  7 29  1  0  0  0  0
  7  8  1  0  0  0  0
 10  9  1  0  0  0  0
 12 11  1  0  0  0  0
 13 11  2  0  0  0  0
 14 12  1  0  0  0  0
 15 18  1  0  0  0  0
 16 14  1  0  0  0  0
 16 20  1  0  0  0  0
 17 18  1  0  0  0  0
 17 16  1  0  0  0  0
 18 16  1  0  0  0  0
 19 20  1  0  0  0  0
 21 14  1  0  0  0  0
 22 27  1  0  0  0  0
 22 25  1  0  0  0  0
 22 26  1  0  0  0  0
 23 27  1  0  0  0  0
 25 26  1  0  0  0  0
 25 24  1  0  0  0  0
 26 28  1  0  0  0  0
 27 28  1  0  0  0  0
 28 21  1  0  0  0  0
 29 30  1  0  0  0  0
 30 31  1  0  0  0  0
 32  8  1  0  0  0  0
 32 33  1  0  0  0  0
 33 36  1  0  0  0  0
 35 34  2  0  0  0  0
 36 35  1  0  0  0  0
 37 43  2  0  0  0  0
 37 39  1  0  0  0  0
 39 41  1  0  0  0  0
 40 38  1  0  0  0  0
 41 35  1  0  0  0  0
 41 40  2  0  0  0  0
 42 43  1  0  0  0  0
 43 44  1  0  0  0  0
 44 38  2  0  0  0  0
 45 46  1  0  0  0  0
 46 36  1  0  0  0  0
M  END
>  <MODEL>
6

>  <REMARK>
 VINA RESULT:      -6.2      2.518      8.685
  Name = 
  13 active torsions:
  status: ('A' for Active; 'I' for Inactive)
    1  A    between atoms: C_5  and  C_20
    2  A    between atoms: C_7  and  C_10
    3  A    between atoms: C_13  and  N_29
    4  A    between atoms: N_15  and  C_46
    5  A    between atoms: C_16  and  O_44
    6  A    between atoms: C_16  and  C_46
    7  A    between atoms: C_17  and  C_23
    8  A    between atoms: C_20  and  C_41
    9  A    between atoms: C_24  and  C_34
   10  A    between atoms: C_24  and  C_46
   11  A    between atoms: C_25  and  N_29
   12  A    between atoms: C_25  and  C_36
   13  A    between atoms: C_36  and  C_42
                            x       y       z     vdW  Elec       q    Type
                         _______ _______ _______ _____ _____    ______ ____

>  <TORSDO>
F 13

$$$$
=
 OpenBabel11062422503D

 46 51  0  0  1  0  0  0  0  0999 V2000
  195.3190  174.8820  143.8270 C   0  0  2  0  0  3  0  0  0  0  0  0
  193.5790  175.9600  145.0170 C   0  0  2  0  0  3  0  0  0  0  0  0
  193.3380  175.5690  142.4980 C   0  0  2  0  0  3  0  0  0  0  0  0
  193.8040  175.0010  143.8560 C   0  0  1  0  0  3  0  0  0  0  0  0
  195.7550  173.6320  144.5680 C   0  0  0  0  0  1  0  0  0  0  0  0
  191.9470  176.1860  142.5720 C   0  0  0  0  0  2  0  0  0  0  0  0
  191.9430  177.2970  143.6110 C   0  0  2  0  0  3  0  0  0  0  0  0
  192.2500  176.7250  145.0040 C   0  0  1  0  0  3  0  0  0  0  0  0
  194.7940  176.8510  145.0120 C   0  0  0  0  0  2  0  0  0  0  0  0
  195.8980  176.0650  144.4680 N   0  0  0  0  0  2  0  0  0  0  0  0
  193.3480  174.5170  141.4370 C   0  0  0  0  0  0  0  0  0  0  0  0
  192.5520  173.3470  141.6110 N   0  0  0  0  0  2  0  0  0  0  0  0
  194.1090  174.6290  140.4380 O   0  0  0  0  0  0  0  0  0  0  0  0
  192.5840  172.2480  140.6600 C   0  0  1  0  0  3  0  0  0  0  0  0
  195.0510  170.7710  140.5160 C   0  0  0  0  0  1  0  0  0  0  0  0
  192.6910  170.9150  141.4170 C   0  0  1  0  0  0  0  0  0  0  0  0
  192.8850  169.7680  140.6230 O   0  0  0  0  0  0  0  0  0  0  0  0
  193.9830  170.1730  141.4180 C   0  0  1  0  0  3  0  0  0  0  0  0
  192.7470  170.9540  143.6850 C   0  0  0  0  0  1  0  0  0  0  0  0
  191.9220  170.7020  142.5780 O   0  0  0  0  0  0  0  0  0  0  0  0
  191.3560  172.3060  139.7630 C   0  0  0  0  0  2  0  0  0  0  0  0
  188.1720  172.8720  139.9710 C   0  0  2  0  0  3  0  0  0  0  0  0
  189.5390  173.3890  138.0850 O   0  0  0  0  0  1  0  0  0  0  0  0
  188.2940  174.3290  141.9130 O   0  0  0  0  0  1  0  0  0  0  0  0
  187.9530  173.0440  141.4720 C   0  0  2  0  0  3  0  0  0  0  0  0
  189.1650  172.2690  140.9610 C   0  0  2  0  0  3  0  0  0  0  0  0
  189.2730  173.7600  139.4080 C   0  0  2  0  0  3  0  0  0  0  0  0
  190.2640  173.1610  140.4000 C   0  0  2  0  0  3  0  0  0  0  0  0
  190.6180  178.0530  143.5640 C   0  0  0  0  0  2  0  0  0  0  0  0
  189.5890  177.3150  142.7220 C   0  0  0  0  0  2  0  0  0  0  0  0
  188.7730  178.2920  141.8980 C   0  0  0  0  0  1  0  0  0  0  0  0
  191.1230  175.8280  145.5190 C   0  0  0  0  0  2  0  0  0  0  0  0
  190.8180  176.1040  146.9870 C   0  0  0  0  0  2  0  0  0  0  0  0
  188.3330  174.9160  147.6740 O   0  0  0  0  0  0  0  0  0  0  0  0
  188.3150  176.0980  147.2320 C   0  0  0  0  0  0  0  0  0  0  0  0
  189.5570  176.8240  147.1270 N   0  0  0  0  0  0  0  0  0  0  0  0
  186.4940  177.7120  144.6060 C   0  0  0  0  0  3  0  0  0  0  0  0
  184.9960  178.0660  147.2650 C   0  0  0  0  0  3  0  0  0  0  0  0
  186.5840  176.4320  145.3700 C   0  0  0  0  0  2  0  0  0  0  0  0
  186.2400  177.3540  147.6270 C   0  0  0  0  0  3  0  0  0  0  0  0
  187.0170  176.6630  146.7860 C   0  0  0  0  0  0  0  0  0  0  0  0
  185.5690  179.8700  144.0140 C   0  0  0  0  0  1  0  0  0  0  0  0
  185.6490  178.6950  144.9210 C   0  0  0  0  0  0  0  0  0  0  0  0
  184.7430  178.6520  146.0870 C   0  0  0  0  0  3  0  0  0  0  0  0
  189.6660  178.6410  148.5920 O   0  0  0  0  0  1  0  0  0  0  0  0
  189.6290  178.2730  147.2450 C   0  0  0  0  0  2  0  0  0  0  0  0
  1  4  1  0  0  0  0
  1 10  1  0  0  0  0
  1  5  1  1  0  0  0
  2  9  1  6  0  0  0
  3 11  1  6  0  0  0
  3  6  1  0  0  0  0
  3  4  1  0  0  0  0
  4  2  1  0  0  0  0
  6  7  1  0  0  0  0
  7  8  1  0  0  0  0
  8  2  1  0  0  0  0
  8 32  1  0  0  0  0
 10  9  1  0  0  0  0
 11 12  1  0  0  0  0
 13 11  2  0  0  0  0
 14 16  1  0  0  0  0
 14 12  1  0  0  0  0
 15 18  1  0  0  0  0
 16 18  1  0  0  0  0
 16 20  1  0  0  0  0
 17 16  1  0  0  0  0
 17 18  1  0  0  0  0
 20 19  1  0  0  0  0
 21 28  1  0  0  0  0
 21 14  1  0  0  0  0
 22 26  1  0  0  0  0
 22 25  1  0  0  0  0
 23 27  1  0  0  0  0
 25 24  1  0  0  0  0
 26 25  1  0  0  0  0
 27 22  1  0  0  0  0
 27 28  1  0  0  0  0
 28 26  1  0  0  0  0
 29  7  1  0  0  0  0
 30 29  1  0  0  0  0
 31 30  1  0  0  0  0
 32 33  1  0  0  0  0
 33 36  1  0  0  0  0
 35 34  2  0  0  0  0
 36 35  1  0  0  0  0
 36 46  1  0  0  0  0
 37 43  2  0  0  0  0
 37 39  1  0  0  0  0
 38 40  1  0  0  0  0
 39 41  1  0  0  0  0
 41 35  1  0  0  0  0
 41 40  2  0  0  0  0
 42 43  1  0  0  0  0
 43 44  1  0  0  0  0
 44 38  2  0  0  0  0
 46 45  1  0  0  0  0
M  END
>  <MODEL>
7

>  <REMARK>
 VINA RESULT:      -6.2      2.241      8.104
  Name = 
  13 active torsions:
  status: ('A' for Active; 'I' for Inactive)
    1  A    between atoms: C_5  and  C_20
    2  A    between atoms: C_7  and  C_10
    3  A    between atoms: C_13  and  N_29
    4  A    between atoms: N_15  and  C_46
    5  A    between atoms: C_16  and  O_44
    6  A    between atoms: C_16  and  C_46
    7  A    between atoms: C_17  and  C_23
    8  A    between atoms: C_20  and  C_41
    9  A    between atoms: C_24  and  C_34
   10  A    between atoms: C_24  and  C_46
   11  A    between atoms: C_25  and  N_29
   12  A    between atoms: C_25  and  C_36
   13  A    between atoms: C_36  and  C_42
                            x       y       z     vdW  Elec       q    Type
                         _______ _______ _______ _____ _____    ______ ____

>  <TORSDO>
F 13

$$$$
=
 OpenBabel11062422503D

 46 51  0  0  1  0  0  0  0  0999 V2000
  191.6350  172.4210  138.5260 C   0  0  2  0  0  3  0  0  0  0  0  0
  189.8140  173.1820  139.8340 C   0  0  2  0  0  3  0  0  0  0  0  0
  191.8260  172.0900  140.9790 C   0  0  2  0  0  3  0  0  0  0  0  0
  191.3300  173.0490  139.8760 C   0  0  1  0  0  3  0  0  0  0  0  0
  192.0440  173.4950  137.5360 C   0  0  0  0  0  1  0  0  0  0  0  0
  191.1590  172.3520  142.3230 C   0  0  0  0  0  2  0  0  0  0  0  0
  189.6520  172.2110  142.1740 C   0  0  2  0  0  3  0  0  0  0  0  0
  189.1120  173.2660  141.1950 C   0  0  1  0  0  3  0  0  0  0  0  0
  189.3570  172.0240  138.9850 C   0  0  0  0  0  2  0  0  0  0  0  0
  190.4350  171.7340  138.0430 N   0  0  0  0  0  2  0  0  0  0  0  0
  193.3090  172.1760  141.1470 C   0  0  0  0  0  0  0  0  0  0  0  0
  193.8760  173.3530  141.7180 N   0  0  0  0  0  2  0  0  0  0  0  0
  194.0520  171.2520  140.7180 O   0  0  0  0  0  0  0  0  0  0  0  0
  195.3140  173.5370  141.8290 C   0  0  1  0  0  3  0  0  0  0  0  0
  197.5750  173.1330  140.0940 C   0  0  0  0  0  1  0  0  0  0  0  0
  195.7570  174.6890  140.9150 C   0  0  1  0  0  0  0  0  0  0  0  0
  197.0450  175.2070  141.1550 O   0  0  0  0  0  0  0  0  0  0  0  0
  196.8760  174.4760  139.9550 C   0  0  1  0  0  3  0  0  0  0  0  0
  194.9720  176.7900  141.2620 C   0  0  0  0  0  1  0  0  0  0  0  0
  194.8150  175.6400  140.4740 O   0  0  0  0  0  0  0  0  0  0  0  0
  195.6940  173.7740  143.2830 C   0  0  0  0  0  2  0  0  0  0  0  0
  194.7270  175.0750  146.0900 C   0  0  2  0  0  3  0  0  0  0  0  0
  194.6500  172.7510  145.5540 O   0  0  0  0  0  1  0  0  0  0  0  0
  193.0340  176.5320  145.1300 O   0  0  0  0  0  1  0  0  0  0  0  0
  194.3190  176.4900  145.6880 C   0  0  2  0  0  3  0  0  0  0  0  0
  195.2970  175.7020  144.8210 C   0  0  2  0  0  3  0  0  0  0  0  0
  194.0660  173.9870  145.2550 C   0  0  2  0  0  3  0  0  0  0  0  0
  194.6320  174.6160  143.9860 C   0  0  2  0  0  3  0  0  0  0  0  0
  188.9810  172.2790  143.5430 C   0  0  0  0  0  2  0  0  0  0  0  0
  190.0100  172.3640  144.6590 C   0  0  0  0  0  2  0  0  0  0  0  0
  189.9320  173.7090  145.3550 C   0  0  0  0  0  1  0  0  0  0  0  0
  189.2260  174.6840  141.7570 C   0  0  0  0  0  2  0  0  0  0  0  0
  188.3650  175.6660  140.9710 C   0  0  0  0  0  2  0  0  0  0  0  0
  186.2780  177.3480  140.0360 O   0  0  0  0  0  0  0  0  0  0  0  0
  186.3620  177.1550  141.2810 C   0  0  0  0  0  0  0  0  0  0  0  0
  187.2270  176.1100  141.7690 N   0  0  0  0  0  0  0  0  0  0  0  0
  186.3170  178.9240  144.3930 C   0  0  0  0  0  3  0  0  0  0  0  0
  183.4540  178.6830  143.3050 C   0  0  0  0  0  3  0  0  0  0  0  0
  186.3570  179.1310  142.9150 C   0  0  0  0  0  2  0  0  0  0  0  0
  184.2860  177.9300  142.3420 C   0  0  0  0  0  3  0  0  0  0  0  0
  185.6080  178.0580  142.1860 C   0  0  0  0  0  0  0  0  0  0  0  0
  185.2890  178.8440  146.5840 C   0  0  0  0  0  1  0  0  0  0  0  0
  185.1880  178.9430  145.1040 C   0  0  0  0  0  0  0  0  0  0  0  0
  183.8480  179.1200  144.5080 C   0  0  0  0  0  3  0  0  0  0  0  0
  187.6010  176.0350  144.0750 O   0  0  0  0  0  1  0  0  0  0  0  0
  186.9650  175.3930  143.0090 C   0  0  0  0  0  2  0  0  0  0  0  0
  1  5  1  6  0  0  0
  1  4  1  0  0  0  0
  2  9  1  1  0  0  0
  2  4  1  0  0  0  0
  2  8  1  0  0  0  0
  3 11  1  1  0  0  0
  3  6  1  0  0  0  0
  4  3  1  0  0  0  0
  7  6  1  0  0  0  0
  7 29  1  0  0  0  0
  8 32  1  0  0  0  0
  8  7  1  0  0  0  0
 10  1  1  0  0  0  0
 10  9  1  0  0  0  0
 11 12  1  0  0  0  0
 12 14  1  0  0  0  0
 13 11  2  0  0  0  0
 14 21  1  0  0  0  0
 16 17  1  0  0  0  0
 16 14  1  0  0  0  0
 18 15  1  0  0  0  0
 18 16  1  0  0  0  0
 18 17  1  0  0  0  0
 20 16  1  0  0  0  0
 20 19  1  0  0  0  0
 21 28  1  0  0  0  0
 24 25  1  0  0  0  0
 25 22  1  0  0  0  0
 26 25  1  0  0  0  0
 26 22  1  0  0  0  0
 27 23  1  0  0  0  0
 27 22  1  0  0  0  0
 28 26  1  0  0  0  0
 28 27  1  0  0  0  0
 29 30  1  0  0  0  0
 30 31  1  0  0  0  0
 33 32  1  0  0  0  0
 33 36  1  0  0  0  0
 34 35  2  0  0  0  0
 35 36  1  0  0  0  0
 35 41  1  0  0  0  0
 36 46  1  0  0  0  0
 37 43  2  0  0  0  0
 38 44  2  0  0  0  0
 39 37  1  0  0  0  0
 40 38  1  0  0  0  0
 41 40  2  0  0  0  0
 41 39  1  0  0  0  0
 43 42  1  0  0  0  0
 44 43  1  0  0  0  0
 46 45  1  0  0  0  0
M  END
>  <MODEL>
8

>  <REMARK>
 VINA RESULT:      -6.2      2.263      8.027
  Name = 
  13 active torsions:
  status: ('A' for Active; 'I' for Inactive)
    1  A    between atoms: C_5  and  C_20
    2  A    between atoms: C_7  and  C_10
    3  A    between atoms: C_13  and  N_29
    4  A    between atoms: N_15  and  C_46
    5  A    between atoms: C_16  and  O_44
    6  A    between atoms: C_16  and  C_46
    7  A    between atoms: C_17  and  C_23
    8  A    between atoms: C_20  and  C_41
    9  A    between atoms: C_24  and  C_34
   10  A    between atoms: C_24  and  C_46
   11  A    between atoms: C_25  and  N_29
   12  A    between atoms: C_25  and  C_36
   13  A    between atoms: C_36  and  C_42
                            x       y       z     vdW  Elec       q    Type
                         _______ _______ _______ _____ _____    ______ ____

>  <TORSDO>
F 13

$$$$
=
 OpenBabel11062422503D

 46 51  0  0  1  0  0  0  0  0999 V2000
  195.6460  172.8420  144.8040 C   0  0  2  0  0  3  0  0  0  0  0  0
  194.1610  174.3500  145.8650 C   0  0  2  0  0  3  0  0  0  0  0  0
  193.9810  173.9600  143.3410 C   0  0  2  0  0  3  0  0  0  0  0  0
  194.2100  173.3330  144.7330 C   0  0  1  0  0  3  0  0  0  0  0  0
  195.7130  171.5450  145.5870 C   0  0  0  0  0  1  0  0  0  0  0  0
  192.7850  174.9040  143.3170 C   0  0  0  0  0  2  0  0  0  0  0  0
  192.9950  176.0100  144.3390 C   0  0  2  0  0  3  0  0  0  0  0  0
  193.0670  175.4200  145.7560 C   0  0  1  0  0  3  0  0  0  0  0  0
  195.5580  174.9130  145.9270 C   0  0  0  0  0  2  0  0  0  0  0  0
  196.4620  173.8630  145.4660 N   0  0  0  0  0  2  0  0  0  0  0  0
  193.7920  172.9090  142.2960 C   0  0  0  0  0  0  0  0  0  0  0  0
  192.7540  171.9450  142.4600 N   0  0  0  0  0  2  0  0  0  0  0  0
  194.5890  172.8290  141.3230 O   0  0  0  0  0  0  0  0  0  0  0  0
  192.5730  170.8450  141.5270 C   0  0  1  0  0  3  0  0  0  0  0  0
  193.9850  169.2880  139.5600 C   0  0  0  0  0  1  0  0  0  0  0  0
  193.3900  169.6320  141.9960 C   0  0  1  0  0  0  0  0  0  0  0  0
  192.9630  168.3770  141.5190 O   0  0  0  0  0  0  0  0  0  0  0  0
  194.1900  168.8590  141.0040 C   0  0  1  0  0  3  0  0  0  0  0  0
  193.0050  168.9880  144.1370 C   0  0  0  0  0  1  0  0  0  0  0  0
  193.9370  169.6110  143.2940 O   0  0  0  0  0  0  0  0  0  0  0  0
  191.0910  170.5240  141.3880 C   0  0  0  0  0  2  0  0  0  0  0  0
  190.5700  173.2520  139.7170 C   0  0  2  0  0  3  0  0  0  0  0  0
  189.3880  172.5980  141.6850 O   0  0  0  0  0  1  0  0  0  0  0  0
  189.9980  172.1650  137.6190 O   0  0  0  0  0  1  0  0  0  0  0  0
  190.9960  172.8720  138.3020 C   0  0  2  0  0  3  0  0  0  0  0  0
  191.5390  172.0930  139.4970 C   0  0  2  0  0  3  0  0  0  0  0  0
  189.5610  172.2900  140.3310 C   0  0  2  0  0  3  0  0  0  0  0  0
  190.5270  171.1320  140.1070 C   0  0  2  0  0  3  0  0  0  0  0  0
  191.9050  177.0690  144.1960 C   0  0  0  0  0  2  0  0  0  0  0  0
  190.9350  176.7170  143.0800 C   0  0  0  0  0  2  0  0  0  0  0  0
  190.0690  177.9110  142.7300 C   0  0  0  0  0  1  0  0  0  0  0  0
  191.7240  174.8440  146.2090 C   0  0  0  0  0  2  0  0  0  0  0  0
  191.3770  175.2880  147.6250 C   0  0  0  0  0  2  0  0  0  0  0  0
  188.5670  174.9830  147.3630 O   0  0  0  0  0  0  0  0  0  0  0  0
  189.0460  176.1420  147.2170 C   0  0  0  0  0  0  0  0  0  0  0  0
  190.4150  176.3850  147.6020 N   0  0  0  0  0  0  0  0  0  0  0  0
  186.0720  178.1180  147.4730 C   0  0  0  0  0  3  0  0  0  0  0  0
  187.0670  178.1270  144.5660 C   0  0  0  0  0  3  0  0  0  0  0  0
  187.5620  178.2150  147.4860 C   0  0  0  0  0  2  0  0  0  0  0  0
  187.9920  177.2180  145.2770 C   0  0  0  0  0  3  0  0  0  0  0  0
  188.1910  177.1850  146.5990 C   0  0  0  0  0  0  0  0  0  0  0  0
  183.8560  178.3080  146.5150 C   0  0  0  0  0  1  0  0  0  0  0  0
  185.3360  178.3140  146.3770 C   0  0  0  0  0  0  0  0  0  0  0  0
  185.9090  178.5990  145.0460 C   0  0  0  0  0  3  0  0  0  0  0  0
  191.5780  177.5400  149.2680 O   0  0  0  0  0  1  0  0  0  0  0  0
  190.8780  177.6840  148.0670 C   0  0  0  0  0  2  0  0  0  0  0  0
  1 10  1  0  0  0  0
  1  5  1  1  0  0  0
  2  9  1  6  0  0  0
  3 11  1  6  0  0  0
  3  4  1  0  0  0  0
  4  1  1  0  0  0  0
  4  2  1  0  0  0  0
  6  3  1  0  0  0  0
  6  7  1  0  0  0  0
  7  8  1  0  0  0  0
  8  2  1  0  0  0  0
  8 32  1  0  0  0  0
 10  9  1  0  0  0  0
 11 12  1  0  0  0  0
 13 11  2  0  0  0  0
 14 16  1  0  0  0  0
 14 12  1  0  0  0  0
 15 18  1  0  0  0  0
 16 20  1  0  0  0  0
 17 16  1  0  0  0  0
 18 17  1  0  0  0  0
 18 16  1  0  0  0  0
 20 19  1  0  0  0  0
 21 14  1  0  0  0  0
 22 27  1  0  0  0  0
 24 25  1  0  0  0  0
 25 26  1  0  0  0  0
 25 22  1  0  0  0  0
 26 22  1  0  0  0  0
 26 28  1  0  0  0  0
 27 23  1  0  0  0  0
 28 27  1  0  0  0  0
 28 21  1  0  0  0  0
 29  7  1  0  0  0  0
 30 29  1  0  0  0  0
 31 30  1  0  0  0  0
 32 33  1  0  0  0  0
 35 34  2  0  0  0  0
 35 36  1  0  0  0  0
 36 33  1  0  0  0  0
 36 46  1  0  0  0  0
 37 39  1  0  0  0  0
 38 44  2  0  0  0  0
 38 40  1  0  0  0  0
 40 41  2  0  0  0  0
 41 35  1  0  0  0  0
 41 39  1  0  0  0  0
 43 42  1  0  0  0  0
 43 37  2  0  0  0  0
 44 43  1  0  0  0  0
 46 45  1  0  0  0  0
M  END
>  <MODEL>
9

>  <REMARK>
 VINA RESULT:      -6.2      2.370      8.402
  Name = 
  13 active torsions:
  status: ('A' for Active; 'I' for Inactive)
    1  A    between atoms: C_5  and  C_20
    2  A    between atoms: C_7  and  C_10
    3  A    between atoms: C_13  and  N_29
    4  A    between atoms: N_15  and  C_46
    5  A    between atoms: C_16  and  O_44
    6  A    between atoms: C_16  and  C_46
    7  A    between atoms: C_17  and  C_23
    8  A    between atoms: C_20  and  C_41
    9  A    between atoms: C_24  and  C_34
   10  A    between atoms: C_24  and  C_46
   11  A    between atoms: C_25  and  N_29
   12  A    between atoms: C_25  and  C_36
   13  A    between atoms: C_36  and  C_42
                            x       y       z     vdW  Elec       q    Type
                         _______ _______ _______ _____ _____    ______ ____

>  <TORSDO>
F 13

$$$$
