=
 OpenBabel11062419443D

 30 32  0  0  1  0  0  0  0  0999 V2000
  184.2050  178.2710  141.9350 C   0  0  0  0  0  0  0  0  0  0  0  0
  185.3140  178.7500  144.1160 C   0  0  2  0  0  3  0  0  0  0  0  0
  185.5200  178.1020  141.2850 C   0  0  0  0  0  0  0  0  0  0  0  0
  187.2340  177.4990  145.8380 C   0  0  0  0  0  0  0  0  0  0  0  0
  187.4860  177.5690  144.3650 C   0  0  0  0  0  0  0  0  0  0  0  0
  184.1120  178.5370  143.2400 C   0  0  0  0  0  3  0  0  0  0  0  0
  186.5520  178.0960  143.5450 C   0  0  0  0  0  0  0  0  0  0  0  0
  186.7950  178.2290  142.0650 C   0  0  0  0  0  2  0  0  0  0  0  0
  183.0420  178.1240  141.1900 O   0  0  0  0  0  1  0  0  0  0  0  0
  185.5800  177.8700  140.0500 O   0  0  0  0  0  0  0  0  0  0  0  0
  185.0250  178.2920  145.4360 O   0  0  0  0  0  0  0  0  0  0  0  0
  186.0230  177.8290  146.2970 C   0  0  0  0  0  3  0  0  0  0  0  0
  188.9520  177.8810  147.4570 O   0  0  0  0  0  0  0  0  0  0  0  0
  188.2660  177.0460  146.8090 C   0  0  0  0  0  0  0  0  0  0  0  0
  188.4880  175.5890  147.0820 C   0  0  0  0  0  2  0  0  0  0  0  0
  190.8130  175.1490  147.8050 C   0  0  0  0  0  1  0  0  0  0  0  0
  189.8700  175.1590  146.6210 C   0  0  1  0  0  3  0  0  0  0  0  0
  189.8110  173.8790  146.0680 O   0  0  0  0  0  1  0  0  0  0  0  0
  188.7320  176.9690  143.7800 C   0  0  0  0  0  2  0  0  0  0  0  0
  189.9240  177.8560  144.0790 C   0  0  0  0  0  2  0  0  0  0  0  0
  190.9820  177.6530  143.0130 C   0  0  0  0  0  2  0  0  0  0  0  0
  192.9560  177.1350  144.4680 N   0  0  0  0  0  0  0  0  0  0  0  0
  194.4190  177.1510  146.2990 N   0  0  0  0  0  1  0  0  0  0  0  0
  192.0050  176.6750  143.4890 C   0  0  0  0  0  0  0  0  0  0  0  0
  191.1230  175.0750  141.9780 O   0  0  0  0  0  1  0  0  0  0  0  0
  193.5800  176.4510  145.3870 C   0  0  0  0  0  0  0  0  0  0  0  0
  192.0680  175.4580  142.9250 C   0  0  0  0  0  0  0  0  0  0  0  0
  193.3380  175.0550  145.6200 N   0  0  0  0  0  0  0  0  0  0  0  0
  193.1230  174.1620  144.7040 C   0  0  0  0  0  3  0  0  0  0  0  0
  193.1560  174.4960  143.2540 C   0  0  0  0  0  2  0  0  0  0  0  0
  1  6  2  0  0  0  0
  2  6  1  6  0  0  0
  2 11  1  0  0  0  0
  3  1  1  0  0  0  0
  3  8  1  0  0  0  0
  4 12  2  0  0  0  0
  4 14  1  0  0  0  0
  5  4  1  0  0  0  0
  7  2  1  0  0  0  0
  7  5  2  0  0  0  0
  8  7  1  0  0  0  0
  9  1  1  0  0  0  0
 10  3  2  0  0  0  0
 11 12  1  0  0  0  0
 14 15  1  0  0  0  0
 14 13  2  0  0  0  0
 17 15  1  0  0  0  0
 17 16  1  1  0  0  0
 18 17  1  0  0  0  0
 19 20  1  0  0  0  0
 19  5  1  0  0  0  0
 21 24  1  0  0  0  0
 21 20  1  0  0  0  0
 22 26  2  0  0  0  0
 24 22  1  0  0  0  0
 25 27  1  0  0  0  0
 26 28  1  0  0  0  0
 26 23  1  0  0  0  0
 27 30  1  0  0  0  0
 27 24  2  0  0  0  0
 29 28  2  0  0  0  0
 30 29  1  0  0  0  0
M  END
>  <MODEL>
1

>  <REMARK>
 VINA RESULT:      -7.4      0.000      0.000
  Name = 
  7 active torsions:
  status: ('A' for Active; 'I' for Inactive)
    1  A    between atoms: C_5  and  C_10
    2  A    between atoms: C_6  and  C_26
    3  A    between atoms: C_10  and  C_20
    4  A    between atoms: C_12  and  C_22
    5  A    between atoms: C_14  and  C_20
    6  A    between atoms: C_21  and  C_22
    7  A    between atoms: C_21  and  C_26
                            x       y       z     vdW  Elec       q    Type
                         _______ _______ _______ _____ _____    ______ ____

>  <TORSDO>
F 7

$$$$
=
 OpenBabel11062419443D

 30 32  0  0  1  0  0  0  0  0999 V2000
  184.0840  178.3550  142.5440 C   0  0  0  0  0  0  0  0  0  0  0  0
  185.4600  178.5650  144.6120 C   0  0  2  0  0  3  0  0  0  0  0  0
  185.3060  178.2590  141.7210 C   0  0  0  0  0  0  0  0  0  0  0  0
  187.5510  177.1070  145.9240 C   0  0  0  0  0  0  0  0  0  0  0  0
  187.6220  177.3520  144.4500 C   0  0  0  0  0  0  0  0  0  0  0  0
  184.1560  178.4650  143.8720 C   0  0  0  0  0  3  0  0  0  0  0  0
  186.6060  177.9770  143.8190 C   0  0  0  0  0  0  0  0  0  0  0  0
  186.6690  178.2850  142.3470 C   0  0  0  0  0  2  0  0  0  0  0  0
  182.8360  178.3040  141.9360 O   0  0  0  0  0  1  0  0  0  0  0  0
  185.2100  178.1750  140.4690 O   0  0  0  0  0  0  0  0  0  0  0  0
  185.3250  177.9540  145.8940 O   0  0  0  0  0  0  0  0  0  0  0  0
  186.4110  177.3870  146.5650 C   0  0  0  0  0  3  0  0  0  0  0  0
  188.6680  175.3320  147.0730 O   0  0  0  0  0  0  0  0  0  0  0  0
  188.6840  176.5360  146.7010 C   0  0  0  0  0  0  0  0  0  0  0  0
  189.8950  177.3570  147.0220 C   0  0  0  0  0  2  0  0  0  0  0  0
  192.0430  176.1870  146.6520 C   0  0  0  0  0  1  0  0  0  0  0  0
  190.9700  176.5010  147.6710 C   0  0  1  0  0  3  0  0  0  0  0  0
  191.5410  177.1870  148.7450 O   0  0  0  0  0  1  0  0  0  0  0  0
  188.7750  176.8190  143.6490 C   0  0  0  0  0  2  0  0  0  0  0  0
  188.4830  175.4020  143.1980 C   0  0  0  0  0  2  0  0  0  0  0  0
  189.6050  174.4880  143.6480 C   0  0  0  0  0  2  0  0  0  0  0  0
  188.8600  173.2940  141.5740 N   0  0  0  0  0  0  0  0  0  0  0  0
  188.1610  172.9170  139.3690 N   0  0  0  0  0  1  0  0  0  0  0  0
  189.6660  173.2840  142.7670 C   0  0  0  0  0  0  0  0  0  0  0  0
  191.1300  172.2640  144.3290 O   0  0  0  0  0  1  0  0  0  0  0  0
  189.0690  172.6850  140.4390 C   0  0  0  0  0  0  0  0  0  0  0  0
  190.3750  172.2130  143.1600 C   0  0  0  0  0  0  0  0  0  0  0  0
  190.2560  171.9210  140.1710 N   0  0  0  0  0  0  0  0  0  0  0  0
  190.8680  171.1530  141.0180 C   0  0  0  0  0  3  0  0  0  0  0  0
  190.3550  170.9350  142.3980 C   0  0  0  0  0  2  0  0  0  0  0  0
  1  6  2  0  0  0  0
  2  6  1  6  0  0  0
  2 11  1  0  0  0  0
  3  8  1  0  0  0  0
  3  1  1  0  0  0  0
  4 12  2  0  0  0  0
  4 14  1  0  0  0  0
  5  4  1  0  0  0  0
  7  5  2  0  0  0  0
  7  2  1  0  0  0  0
  8  7  1  0  0  0  0
  9  1  1  0  0  0  0
 10  3  2  0  0  0  0
 11 12  1  0  0  0  0
 14 15  1  0  0  0  0
 14 13  2  0  0  0  0
 15 17  1  0  0  0  0
 17 16  1  6  0  0  0
 17 18  1  0  0  0  0
 19  5  1  0  0  0  0
 20 21  1  0  0  0  0
 20 19  1  0  0  0  0
 22 24  1  0  0  0  0
 23 26  1  0  0  0  0
 24 27  2  0  0  0  0
 24 21  1  0  0  0  0
 26 22  2  0  0  0  0
 27 25  1  0  0  0  0
 28 26  1  0  0  0  0
 28 29  2  0  0  0  0
 29 30  1  0  0  0  0
 30 27  1  0  0  0  0
M  END
>  <MODEL>
2

>  <REMARK>
 VINA RESULT:      -7.3      3.096      3.709
  Name = 
  7 active torsions:
  status: ('A' for Active; 'I' for Inactive)
    1  A    between atoms: C_5  and  C_10
    2  A    between atoms: C_6  and  C_26
    3  A    between atoms: C_10  and  C_20
    4  A    between atoms: C_12  and  C_22
    5  A    between atoms: C_14  and  C_20
    6  A    between atoms: C_21  and  C_22
    7  A    between atoms: C_21  and  C_26
                            x       y       z     vdW  Elec       q    Type
                         _______ _______ _______ _____ _____    ______ ____

>  <TORSDO>
F 7

$$$$
=
 OpenBabel11062419443D

 30 32  0  0  1  0  0  0  0  0999 V2000
  184.4640  178.3350  144.4490 C   0  0  0  0  0  0  0  0  0  0  0  0
  185.8640  176.7000  143.1900 C   0  0  2  0  0  3  0  0  0  0  0  0
  185.1560  177.9850  145.7050 C   0  0  0  0  0  0  0  0  0  0  0  0
  188.6500  176.1610  142.7900 C   0  0  0  0  0  0  0  0  0  0  0  0
  188.1310  176.4300  144.1670 C   0  0  0  0  0  0  0  0  0  0  0  0
  184.8100  177.7670  143.2910 C   0  0  0  0  0  3  0  0  0  0  0  0
  186.8330  176.7520  144.3490 C   0  0  0  0  0  0  0  0  0  0  0  0
  186.2680  176.9770  145.7260 C   0  0  0  0  0  2  0  0  0  0  0  0
  183.4550  179.2890  144.4600 O   0  0  0  0  0  1  0  0  0  0  0  0
  184.7980  178.5210  146.7860 O   0  0  0  0  0  0  0  0  0  0  0  0
  186.5250  176.8060  141.9300 O   0  0  0  0  0  0  0  0  0  0  0  0
  187.8450  176.3870  141.7470 C   0  0  0  0  0  3  0  0  0  0  0  0
  191.0170  176.4640  142.6390 O   0  0  0  0  0  0  0  0  0  0  0  0
  190.0350  175.6820  142.5310 C   0  0  0  0  0  0  0  0  0  0  0  0
  190.3080  174.2510  142.1830 C   0  0  0  0  0  2  0  0  0  0  0  0
  188.4570  172.6150  142.0550 C   0  0  0  0  0  1  0  0  0  0  0  0
  189.4180  173.3190  142.9880 C   0  0  1  0  0  3  0  0  0  0  0  0
  190.1970  172.3700  143.6500 O   0  0  0  0  0  1  0  0  0  0  0  0
  189.0680  176.4380  145.3410 C   0  0  0  0  0  2  0  0  0  0  0  0
  189.2380  175.0320  145.8790 C   0  0  0  0  0  2  0  0  0  0  0  0
  190.1630  175.0590  147.0790 C   0  0  0  0  0  2  0  0  0  0  0  0
  192.1380  174.4140  145.6770 N   0  0  0  0  0  0  0  0  0  0  0  0
  193.4030  173.5940  143.8830 N   0  0  0  0  0  1  0  0  0  0  0  0
  191.5650  175.3220  146.6360 C   0  0  0  0  0  0  0  0  0  0  0  0
  191.6550  177.1550  148.1380 O   0  0  0  0  0  1  0  0  0  0  0  0
  193.0570  174.6430  144.7800 C   0  0  0  0  0  0  0  0  0  0  0  0
  192.2650  176.3140  147.2120 C   0  0  0  0  0  0  0  0  0  0  0  0
  193.6180  175.9460  144.5530 N   0  0  0  0  0  0  0  0  0  0  0  0
  193.8990  176.8180  145.4710 C   0  0  0  0  0  3  0  0  0  0  0  0
  193.7080  176.5290  146.9180 C   0  0  0  0  0  2  0  0  0  0  0  0
  1  9  1  0  0  0  0
  1  3  1  0  0  0  0
  2  6  1  1  0  0  0
  2  7  1  0  0  0  0
  3  8  1  0  0  0  0
  3 10  2  0  0  0  0
  4  5  1  0  0  0  0
  5  7  2  0  0  0  0
  5 19  1  0  0  0  0
  6  1  2  0  0  0  0
  7  8  1  0  0  0  0
 11  2  1  0  0  0  0
 12 11  1  0  0  0  0
 12  4  2  0  0  0  0
 14 13  2  0  0  0  0
 14  4  1  0  0  0  0
 15 14  1  0  0  0  0
 15 17  1  0  0  0  0
 17 16  1  6  0  0  0
 17 18  1  0  0  0  0
 19 20  1  0  0  0  0
 20 21  1  0  0  0  0
 22 24  1  0  0  0  0
 23 26  1  0  0  0  0
 24 21  1  0  0  0  0
 24 27  2  0  0  0  0
 26 22  2  0  0  0  0
 27 25  1  0  0  0  0
 28 26  1  0  0  0  0
 28 29  2  0  0  0  0
 29 30  1  0  0  0  0
 30 27  1  0  0  0  0
M  END
>  <MODEL>
3

>  <REMARK>
 VINA RESULT:      -7.2      1.918      4.049
  Name = 
  7 active torsions:
  status: ('A' for Active; 'I' for Inactive)
    1  A    between atoms: C_5  and  C_10
    2  A    between atoms: C_6  and  C_26
    3  A    between atoms: C_10  and  C_20
    4  A    between atoms: C_12  and  C_22
    5  A    between atoms: C_14  and  C_20
    6  A    between atoms: C_21  and  C_22
    7  A    between atoms: C_21  and  C_26
                            x       y       z     vdW  Elec       q    Type
                         _______ _______ _______ _____ _____    ______ ____

>  <TORSDO>
F 7

$$$$
=
 OpenBabel11062419443D

 30 32  0  0  1  0  0  0  0  0999 V2000
  184.1390  178.2990  142.1970 C   0  0  0  0  0  0  0  0  0  0  0  0
  185.3360  178.5290  144.3710 C   0  0  2  0  0  3  0  0  0  0  0  0
  185.4260  178.2260  141.4770 C   0  0  0  0  0  0  0  0  0  0  0  0
  187.3380  177.1070  145.8500 C   0  0  0  0  0  0  0  0  0  0  0  0
  187.5260  177.3560  144.3870 C   0  0  0  0  0  0  0  0  0  0  0  0
  184.0990  178.4070  143.5270 C   0  0  0  0  0  3  0  0  0  0  0  0
  186.5540  177.9640  143.6750 C   0  0  0  0  0  0  0  0  0  0  0  0
  186.7320  178.2760  142.2130 C   0  0  0  0  0  2  0  0  0  0  0  0
  182.9470  178.2260  141.4880 O   0  0  0  0  0  1  0  0  0  0  0  0
  185.4350  178.1420  140.2220 O   0  0  0  0  0  0  0  0  0  0  0  0
  185.1070  177.9150  145.6380 O   0  0  0  0  0  0  0  0  0  0  0  0
  186.1450  177.3650  146.3960 C   0  0  0  0  0  3  0  0  0  0  0  0
  188.3620  175.3660  147.1290 O   0  0  0  0  0  0  0  0  0  0  0  0
  188.4140  176.5560  146.7170 C   0  0  0  0  0  0  0  0  0  0  0  0
  189.6100  177.3780  147.0870 C   0  0  0  0  0  2  0  0  0  0  0  0
  191.6280  176.3580  146.0840 C   0  0  0  0  0  1  0  0  0  0  0  0
  190.8140  176.4900  147.3530 C   0  0  1  0  0  3  0  0  0  0  0  0
  191.6080  177.0520  148.3530 O   0  0  0  0  0  1  0  0  0  0  0  0
  188.7500  176.8460  143.6840 C   0  0  0  0  0  2  0  0  0  0  0  0
  188.6320  175.3530  143.4520 C   0  0  0  0  0  2  0  0  0  0  0  0
  188.9150  175.0440  141.9960 C   0  0  0  0  0  2  0  0  0  0  0  0
  190.9780  173.7790  142.6510 N   0  0  0  0  0  0  0  0  0  0  0  0
  192.7640  172.9760  143.9370 N   0  0  0  0  0  1  0  0  0  0  0  0
  189.7560  173.8150  141.8890 C   0  0  0  0  0  0  0  0  0  0  0  0
  188.2140  172.9440  140.3130 O   0  0  0  0  0  1  0  0  0  0  0  0
  191.6070  172.7480  143.1410 C   0  0  0  0  0  0  0  0  0  0  0  0
  189.4050  172.8470  141.0260 C   0  0  0  0  0  0  0  0  0  0  0  0
  191.0970  171.4070  143.0500 N   0  0  0  0  0  0  0  0  0  0  0  0
  190.4830  170.9000  142.0260 C   0  0  0  0  0  3  0  0  0  0  0  0
  190.2790  171.6700  140.7690 C   0  0  0  0  0  2  0  0  0  0  0  0
  1  6  2  0  0  0  0
  2  6  1  6  0  0  0
  2 11  1  0  0  0  0
  3  1  1  0  0  0  0
  3  8  1  0  0  0  0
  4 12  2  0  0  0  0
  4 14  1  0  0  0  0
  5  4  1  0  0  0  0
  7  2  1  0  0  0  0
  7  5  2  0  0  0  0
  8  7  1  0  0  0  0
  9  1  1  0  0  0  0
 10  3  2  0  0  0  0
 11 12  1  0  0  0  0
 14 15  1  0  0  0  0
 14 13  2  0  0  0  0
 15 17  1  0  0  0  0
 17 16  1  6  0  0  0
 17 18  1  0  0  0  0
 19  5  1  0  0  0  0
 20 19  1  0  0  0  0
 21 20  1  0  0  0  0
 22 26  2  0  0  0  0
 24 21  1  0  0  0  0
 24 22  1  0  0  0  0
 25 27  1  0  0  0  0
 26 23  1  0  0  0  0
 27 24  2  0  0  0  0
 28 26  1  0  0  0  0
 29 28  2  0  0  0  0
 30 27  1  0  0  0  0
 30 29  1  0  0  0  0
M  END
>  <MODEL>
4

>  <REMARK>
 VINA RESULT:      -7.1      2.406      2.876
  Name = 
  7 active torsions:
  status: ('A' for Active; 'I' for Inactive)
    1  A    between atoms: C_5  and  C_10
    2  A    between atoms: C_6  and  C_26
    3  A    between atoms: C_10  and  C_20
    4  A    between atoms: C_12  and  C_22
    5  A    between atoms: C_14  and  C_20
    6  A    between atoms: C_21  and  C_22
    7  A    between atoms: C_21  and  C_26
                            x       y       z     vdW  Elec       q    Type
                         _______ _______ _______ _____ _____    ______ ____

>  <TORSDO>
F 7

$$$$
=
 OpenBabel11062419443D

 30 32  0  0  1  0  0  0  0  0999 V2000
  188.3490  174.9470  140.5200 C   0  0  0  0  0  0  0  0  0  0  0  0
  187.2540  177.1490  140.9290 C   0  0  2  0  0  3  0  0  0  0  0  0
  189.1990  175.1300  141.7130 C   0  0  0  0  0  0  0  0  0  0  0  0
  185.8700  178.4640  143.0680 C   0  0  0  0  0  0  0  0  0  0  0  0
  187.1440  177.7300  143.3420 C   0  0  0  0  0  0  0  0  0  0  0  0
  187.4370  175.8600  140.1790 C   0  0  0  0  0  3  0  0  0  0  0  0
  187.7610  177.0530  142.3510 C   0  0  0  0  0  0  0  0  0  0  0  0
  189.0710  176.3470  142.5810 C   0  0  0  0  0  2  0  0  0  0  0  0
  188.4770  173.7980  139.7510 O   0  0  0  0  0  1  0  0  0  0  0  0
  190.0640  174.2630  142.0020 O   0  0  0  0  0  0  0  0  0  0  0  0
  185.8840  177.5400  140.8720 O   0  0  0  0  0  0  0  0  0  0  0  0
  185.2890  178.3130  141.8720 C   0  0  0  0  0  3  0  0  0  0  0  0
  185.5740  180.5220  144.2490 O   0  0  0  0  0  0  0  0  0  0  0  0
  185.2060  179.3280  144.0800 C   0  0  0  0  0  0  0  0  0  0  0  0
  184.0530  178.8250  144.8930 C   0  0  0  0  0  2  0  0  0  0  0  0
  184.5150  177.2600  146.7520 C   0  0  0  0  0  1  0  0  0  0  0  0
  184.4320  178.7190  146.3600 C   0  0  1  0  0  3  0  0  0  0  0  0
  185.6700  179.3260  146.5760 O   0  0  0  0  0  1  0  0  0  0  0  0
  187.6920  177.6610  144.7380 C   0  0  0  0  0  2  0  0  0  0  0  0
  187.5410  176.2550  145.2860 C   0  0  0  0  0  2  0  0  0  0  0  0
  188.1540  176.1850  146.6700 C   0  0  0  0  0  2  0  0  0  0  0  0
  189.9800  174.6150  145.9760 N   0  0  0  0  0  0  0  0  0  0  0  0
  191.1650  173.0030  144.7560 N   0  0  0  0  0  1  0  0  0  0  0  0
  189.6110  175.8740  146.5690 C   0  0  0  0  0  0  0  0  0  0  0  0
  190.0840  177.9140  147.6810 O   0  0  0  0  0  1  0  0  0  0  0  0
  191.0650  174.3040  145.3240 C   0  0  0  0  0  0  0  0  0  0  0  0
  190.5050  176.7140  147.1160 C   0  0  0  0  0  0  0  0  0  0  0  0
  192.0920  175.2610  145.0170 N   0  0  0  0  0  0  0  0  0  0  0  0
  192.4980  176.2110  145.8000 C   0  0  0  0  0  3  0  0  0  0  0  0
  191.9560  176.3850  147.1750 C   0  0  0  0  0  2  0  0  0  0  0  0
  1  3  1  0  0  0  0
  2  6  1  1  0  0  0
  2  7  1  0  0  0  0
  3 10  2  0  0  0  0
  3  8  1  0  0  0  0
  4  5  1  0  0  0  0
  4 14  1  0  0  0  0
  5 19  1  0  0  0  0
  6  1  2  0  0  0  0
  7  8  1  0  0  0  0
  7  5  2  0  0  0  0
  9  1  1  0  0  0  0
 11  2  1  0  0  0  0
 11 12  1  0  0  0  0
 12  4  2  0  0  0  0
 14 13  2  0  0  0  0
 14 15  1  0  0  0  0
 15 17  1  0  0  0  0
 17 18  1  0  0  0  0
 17 16  1  6  0  0  0
 19 20  1  0  0  0  0
 20 21  1  0  0  0  0
 22 24  1  0  0  0  0
 23 26  1  0  0  0  0
 24 21  1  0  0  0  0
 24 27  2  0  0  0  0
 26 22  2  0  0  0  0
 27 30  1  0  0  0  0
 27 25  1  0  0  0  0
 28 26  1  0  0  0  0
 28 29  2  0  0  0  0
 29 30  1  0  0  0  0
M  END
>  <MODEL>
5

>  <REMARK>
 VINA RESULT:      -7.0      1.957      4.736
  Name = 
  7 active torsions:
  status: ('A' for Active; 'I' for Inactive)
    1  A    between atoms: C_5  and  C_10
    2  A    between atoms: C_6  and  C_26
    3  A    between atoms: C_10  and  C_20
    4  A    between atoms: C_12  and  C_22
    5  A    between atoms: C_14  and  C_20
    6  A    between atoms: C_21  and  C_22
    7  A    between atoms: C_21  and  C_26
                            x       y       z     vdW  Elec       q    Type
                         _______ _______ _______ _____ _____    ______ ____

>  <TORSDO>
F 7

$$$$
=
 OpenBabel11062419443D

 30 32  0  0  1  0  0  0  0  0999 V2000
  185.5320  177.4070  146.1360 C   0  0  0  0  0  0  0  0  0  0  0  0
  187.8190  176.5640  146.6620 C   0  0  2  0  0  3  0  0  0  0  0  0
  185.9720  177.8060  144.7850 C   0  0  0  0  0  0  0  0  0  0  0  0
  189.7100  174.7260  145.5390 C   0  0  0  0  0  0  0  0  0  0  0  0
  189.0070  175.7070  144.6560 C   0  0  0  0  0  0  0  0  0  0  0  0
  186.3710  176.8090  146.9850 C   0  0  0  0  0  3  0  0  0  0  0  0
  188.0660  176.5260  145.1700 C   0  0  0  0  0  0  0  0  0  0  0  0
  187.3770  177.5590  144.3200 C   0  0  0  0  0  2  0  0  0  0  0  0
  184.2180  177.6270  146.5270 O   0  0  0  0  0  1  0  0  0  0  0  0
  185.1660  178.3840  144.0110 O   0  0  0  0  0  0  0  0  0  0  0  0
  188.2520  175.3690  147.3090 O   0  0  0  0  0  0  0  0  0  0  0  0
  189.2870  174.5810  146.7990 C   0  0  0  0  0  3  0  0  0  0  0  0
  190.6270  172.7690  144.5150 O   0  0  0  0  0  0  0  0  0  0  0  0
  190.8400  173.8820  145.0650 C   0  0  0  0  0  0  0  0  0  0  0  0
  192.2590  174.3480  145.1840 C   0  0  0  0  0  2  0  0  0  0  0  0
  192.9650  176.2280  146.6290 C   0  0  0  0  0  1  0  0  0  0  0  0
  192.3220  175.8610  145.3100 C   0  0  1  0  0  3  0  0  0  0  0  0
  193.0760  176.3950  144.2640 O   0  0  0  0  0  1  0  0  0  0  0  0
  189.2730  175.7200  143.1780 C   0  0  0  0  0  2  0  0  0  0  0  0
  188.4580  174.6410  142.4940 C   0  0  0  0  0  2  0  0  0  0  0  0
  188.2920  174.9870  141.0280 C   0  0  0  0  0  2  0  0  0  0  0  0
  190.1220  173.2860  140.8250 N   0  0  0  0  0  0  0  0  0  0  0  0
  191.5950  171.5470  141.3690 N   0  0  0  0  0  1  0  0  0  0  0  0
  189.0630  174.0240  140.1860 C   0  0  0  0  0  0  0  0  0  0  0  0
  187.7830  174.7000  138.3090 O   0  0  0  0  0  1  0  0  0  0  0  0
  190.5890  172.1050  140.5310 C   0  0  0  0  0  0  0  0  0  0  0  0
  188.8170  173.9560  138.8670 C   0  0  0  0  0  0  0  0  0  0  0  0
  190.0260  171.2770  139.5000 N   0  0  0  0  0  0  0  0  0  0  0  0
  189.5780  171.6940  138.3570 C   0  0  0  0  0  3  0  0  0  0  0  0
  189.6510  173.1250  137.9560 C   0  0  0  0  0  2  0  0  0  0  0  0
  1  9  1  0  0  0  0
  1  6  2  0  0  0  0
  2  6  1  6  0  0  0
  2 11  1  0  0  0  0
  3  1  1  0  0  0  0
  4 12  2  0  0  0  0
  5  7  2  0  0  0  0
  5  4  1  0  0  0  0
  7  2  1  0  0  0  0
  8  3  1  0  0  0  0
  8  7  1  0  0  0  0
 10  3  2  0  0  0  0
 12 11  1  0  0  0  0
 13 14  2  0  0  0  0
 14 15  1  0  0  0  0
 14  4  1  0  0  0  0
 15 17  1  0  0  0  0
 17 16  1  1  0  0  0
 18 17  1  0  0  0  0
 19  5  1  0  0  0  0
 20 19  1  0  0  0  0
 21 20  1  0  0  0  0
 24 22  1  0  0  0  0
 24 21  1  0  0  0  0
 25 27  1  0  0  0  0
 26 22  2  0  0  0  0
 26 23  1  0  0  0  0
 27 24  2  0  0  0  0
 28 26  1  0  0  0  0
 29 28  2  0  0  0  0
 30 29  1  0  0  0  0
 30 27  1  0  0  0  0
M  END
>  <MODEL>
6

>  <REMARK>
 VINA RESULT:      -6.7      3.473      4.963
  Name = 
  7 active torsions:
  status: ('A' for Active; 'I' for Inactive)
    1  A    between atoms: C_5  and  C_10
    2  A    between atoms: C_6  and  C_26
    3  A    between atoms: C_10  and  C_20
    4  A    between atoms: C_12  and  C_22
    5  A    between atoms: C_14  and  C_20
    6  A    between atoms: C_21  and  C_22
    7  A    between atoms: C_21  and  C_26
                            x       y       z     vdW  Elec       q    Type
                         _______ _______ _______ _____ _____    ______ ____

>  <TORSDO>
F 7

$$$$
=
 OpenBabel11062419443D

 30 32  0  0  1  0  0  0  0  0999 V2000
  184.1490  178.2070  141.8790 C   0  0  0  0  0  0  0  0  0  0  0  0
  185.0730  178.6230  144.1570 C   0  0  2  0  0  3  0  0  0  0  0  0
  185.5000  178.3140  141.2930 C   0  0  0  0  0  0  0  0  0  0  0  0
  187.0940  177.5140  145.8600 C   0  0  0  0  0  0  0  0  0  0  0  0
  187.3930  177.7760  144.4180 C   0  0  0  0  0  0  0  0  0  0  0  0
  183.9590  178.3180  143.1950 C   0  0  0  0  0  3  0  0  0  0  0  0
  186.4230  178.2330  143.5990 C   0  0  0  0  0  0  0  0  0  0  0  0
  186.7040  178.5570  142.1550 C   0  0  0  0  0  2  0  0  0  0  0  0
  183.0580  177.9590  141.0560 O   0  0  0  0  0  1  0  0  0  0  0  0
  185.6500  178.2240  140.0470 O   0  0  0  0  0  0  0  0  0  0  0  0
  184.8050  177.9910  145.4070 O   0  0  0  0  0  0  0  0  0  0  0  0
  185.8270  177.6020  146.2770 C   0  0  0  0  0  3  0  0  0  0  0  0
  188.7740  178.0070  147.4890 O   0  0  0  0  0  0  0  0  0  0  0  0
  188.1430  177.1290  146.8420 C   0  0  0  0  0  0  0  0  0  0  0  0
  188.4480  175.6900  147.1260 C   0  0  0  0  0  2  0  0  0  0  0  0
  190.8630  175.4260  147.5970 C   0  0  0  0  0  1  0  0  0  0  0  0
  189.7920  175.2960  146.5350 C   0  0  1  0  0  3  0  0  0  0  0  0
  189.7460  173.9760  146.0860 O   0  0  0  0  0  1  0  0  0  0  0  0
  188.7440  177.4420  143.8520 C   0  0  0  0  0  2  0  0  0  0  0  0
  188.8090  175.9690  143.5010 C   0  0  0  0  0  2  0  0  0  0  0  0
  189.6940  175.7790  142.2860 C   0  0  0  0  0  2  0  0  0  0  0  0
  190.5000  173.4330  142.6410 N   0  0  0  0  0  0  0  0  0  0  0  0
  190.7170  171.1110  142.4130 N   0  0  0  0  0  1  0  0  0  0  0  0
  190.8080  174.8390  142.6070 C   0  0  0  0  0  0  0  0  0  0  0  0
  192.2440  176.7020  142.9020 O   0  0  0  0  0  1  0  0  0  0  0  0
  191.2800  172.4170  142.3940 C   0  0  0  0  0  0  0  0  0  0  0  0
  192.0100  175.3310  142.9480 C   0  0  0  0  0  0  0  0  0  0  0  0
  192.6370  172.5670  141.9480 N   0  0  0  0  0  0  0  0  0  0  0  0
  193.4730  173.4680  142.3610 C   0  0  0  0  0  3  0  0  0  0  0  0
  193.1140  174.4500  143.4190 C   0  0  0  0  0  2  0  0  0  0  0  0
  1  6  2  0  0  0  0
  2  6  1  6  0  0  0
  2 11  1  0  0  0  0
  3  1  1  0  0  0  0
  3  8  1  0  0  0  0
  4 12  2  0  0  0  0
  4 14  1  0  0  0  0
  5  4  1  0  0  0  0
  7  2  1  0  0  0  0
  7  5  2  0  0  0  0
  8  7  1  0  0  0  0
  9  1  1  0  0  0  0
 10  3  2  0  0  0  0
 11 12  1  0  0  0  0
 14 15  1  0  0  0  0
 14 13  2  0  0  0  0
 17 15  1  0  0  0  0
 17 16  1  1  0  0  0
 18 17  1  0  0  0  0
 19  5  1  0  0  0  0
 20 19  1  0  0  0  0
 21 24  1  0  0  0  0
 21 20  1  0  0  0  0
 24 22  1  0  0  0  0
 24 27  2  0  0  0  0
 25 27  1  0  0  0  0
 26 23  1  0  0  0  0
 26 22  2  0  0  0  0
 27 30  1  0  0  0  0
 28 29  2  0  0  0  0
 28 26  1  0  0  0  0
 29 30  1  0  0  0  0
M  END
>  <MODEL>
7

>  <REMARK>
 VINA RESULT:      -6.7      1.920      2.364
  Name = 
  7 active torsions:
  status: ('A' for Active; 'I' for Inactive)
    1  A    between atoms: C_5  and  C_10
    2  A    between atoms: C_6  and  C_26
    3  A    between atoms: C_10  and  C_20
    4  A    between atoms: C_12  and  C_22
    5  A    between atoms: C_14  and  C_20
    6  A    between atoms: C_21  and  C_22
    7  A    between atoms: C_21  and  C_26
                            x       y       z     vdW  Elec       q    Type
                         _______ _______ _______ _____ _____    ______ ____

>  <TORSDO>
F 7

$$$$
=
 OpenBabel11062419443D

 30 32  0  0  1  0  0  0  0  0999 V2000
  186.2790  177.7080  146.1920 C   0  0  0  0  0  0  0  0  0  0  0  0
  188.3310  176.4050  146.7490 C   0  0  2  0  0  3  0  0  0  0  0  0
  186.8910  178.1620  144.9280 C   0  0  0  0  0  0  0  0  0  0  0  0
  189.9520  174.3800  145.5300 C   0  0  0  0  0  0  0  0  0  0  0  0
  189.5070  175.5630  144.7300 C   0  0  0  0  0  0  0  0  0  0  0  0
  186.9280  176.8790  147.0120 C   0  0  0  0  0  3  0  0  0  0  0  0
  188.6870  176.4830  145.2820 C   0  0  0  0  0  0  0  0  0  0  0  0
  188.2630  177.7110  144.5220 C   0  0  0  0  0  2  0  0  0  0  0  0
  184.9980  178.1250  146.5280 O   0  0  0  0  0  1  0  0  0  0  0  0
  186.2650  178.9590  144.1820 O   0  0  0  0  0  0  0  0  0  0  0  0
  188.4920  175.0880  147.2730 O   0  0  0  0  0  0  0  0  0  0  0  0
  189.4090  174.1820  146.7360 C   0  0  0  0  0  3  0  0  0  0  0  0
  190.5830  172.3880  144.3680 O   0  0  0  0  0  0  0  0  0  0  0  0
  190.9490  173.3980  145.0270 C   0  0  0  0  0  0  0  0  0  0  0  0
  192.4170  173.6020  145.2460 C   0  0  0  0  0  2  0  0  0  0  0  0
  193.9960  172.6520  143.5950 C   0  0  0  0  0  1  0  0  0  0  0  0
  193.2000  172.3610  144.8480 C   0  0  1  0  0  3  0  0  0  0  0  0
  194.0730  172.0000  145.8750 O   0  0  0  0  0  1  0  0  0  0  0  0
  189.8900  175.6860  143.2830 C   0  0  0  0  0  2  0  0  0  0  0  0
  191.1350  176.5390  143.1460 C   0  0  0  0  0  2  0  0  0  0  0  0
  192.1520  175.8130  142.2890 C   0  0  0  0  0  2  0  0  0  0  0  0
  193.6710  176.6300  144.1080 N   0  0  0  0  0  0  0  0  0  0  0  0
  194.5400  177.0430  146.2450 N   0  0  0  0  0  1  0  0  0  0  0  0
  193.5330  176.1150  142.7710 C   0  0  0  0  0  0  0  0  0  0  0  0
  194.3690  175.4970  140.6390 O   0  0  0  0  0  1  0  0  0  0  0  0
  194.6740  176.5080  144.9330 C   0  0  0  0  0  0  0  0  0  0  0  0
  194.5690  175.9960  141.9230 C   0  0  0  0  0  0  0  0  0  0  0  0
  195.8390  175.7230  144.6340 N   0  0  0  0  0  0  0  0  0  0  0  0
  196.4180  175.6400  143.4760 C   0  0  0  0  0  3  0  0  0  0  0  0
  195.9450  176.4210  142.3010 C   0  0  0  0  0  2  0  0  0  0  0  0
  1  9  1  0  0  0  0
  1  6  2  0  0  0  0
  2  6  1  6  0  0  0
  2 11  1  0  0  0  0
  3  1  1  0  0  0  0
  4 12  2  0  0  0  0
  5  7  2  0  0  0  0
  5  4  1  0  0  0  0
  7  2  1  0  0  0  0
  8  3  1  0  0  0  0
  8  7  1  0  0  0  0
 10  3  2  0  0  0  0
 12 11  1  0  0  0  0
 13 14  2  0  0  0  0
 14 15  1  0  0  0  0
 14  4  1  0  0  0  0
 17 16  1  6  0  0  0
 17 15  1  0  0  0  0
 17 18  1  0  0  0  0
 19  5  1  0  0  0  0
 20 19  1  0  0  0  0
 21 24  1  0  0  0  0
 21 20  1  0  0  0  0
 22 26  2  0  0  0  0
 24 22  1  0  0  0  0
 25 27  1  0  0  0  0
 26 23  1  0  0  0  0
 27 30  1  0  0  0  0
 27 24  2  0  0  0  0
 28 26  1  0  0  0  0
 29 28  2  0  0  0  0
 30 29  1  0  0  0  0
M  END
>  <MODEL>
8

>  <REMARK>
 VINA RESULT:      -6.7      2.218      3.956
  Name = 
  7 active torsions:
  status: ('A' for Active; 'I' for Inactive)
    1  A    between atoms: C_5  and  C_10
    2  A    between atoms: C_6  and  C_26
    3  A    between atoms: C_10  and  C_20
    4  A    between atoms: C_12  and  C_22
    5  A    between atoms: C_14  and  C_20
    6  A    between atoms: C_21  and  C_22
    7  A    between atoms: C_21  and  C_26
                            x       y       z     vdW  Elec       q    Type
                         _______ _______ _______ _____ _____    ______ ____

>  <TORSDO>
F 7

$$$$
=
 OpenBabel11062419443D

 30 32  0  0  1  0  0  0  0  0999 V2000
  185.9260  178.5580  145.7200 C   0  0  0  0  0  0  0  0  0  0  0  0
  186.7470  176.8220  144.1310 C   0  0  2  0  0  3  0  0  0  0  0  0
  186.5310  177.8300  146.8530 C   0  0  0  0  0  0  0  0  0  0  0  0
  189.2420  175.5940  143.4360 C   0  0  0  0  0  0  0  0  0  0  0  0
  188.8720  175.7720  144.8740 C   0  0  0  0  0  0  0  0  0  0  0  0
  186.0520  178.1110  144.4690 C   0  0  0  0  0  3  0  0  0  0  0  0
  187.7300  176.4120  145.2040 C   0  0  0  0  0  0  0  0  0  0  0  0
  187.3030  176.5620  146.6400 C   0  0  0  0  0  2  0  0  0  0  0  0
  185.2370  179.7420  145.9490 O   0  0  0  0  0  1  0  0  0  0  0  0
  186.3820  178.2640  148.0250 O   0  0  0  0  0  0  0  0  0  0  0  0
  187.3650  176.9390  142.8510 O   0  0  0  0  0  0  0  0  0  0  0  0
  188.5000  176.2030  142.5040 C   0  0  0  0  0  3  0  0  0  0  0  0
  191.5330  175.3470  142.7970 O   0  0  0  0  0  0  0  0  0  0  0  0
  190.4190  174.7950  143.0010 C   0  0  0  0  0  0  0  0  0  0  0  0
  190.3290  173.3080  142.8380 C   0  0  0  0  0  2  0  0  0  0  0  0
  191.1140  171.3580  141.5330 C   0  0  0  0  0  1  0  0  0  0  0  0
  190.9870  172.8660  141.5410 C   0  0  1  0  0  3  0  0  0  0  0  0
  190.2120  173.2700  140.4530 O   0  0  0  0  0  1  0  0  0  0  0  0
  189.8120  175.3290  145.9580 C   0  0  0  0  0  2  0  0  0  0  0  0
  190.9340  176.3350  146.1160 C   0  0  0  0  0  2  0  0  0  0  0  0
  191.9430  175.8130  147.1180 C   0  0  0  0  0  2  0  0  0  0  0  0
  192.9200  173.8260  145.9440 N   0  0  0  0  0  0  0  0  0  0  0  0
  193.0830  171.8970  144.6230 N   0  0  0  0  0  1  0  0  0  0  0  0
  193.0910  175.1790  146.4040 C   0  0  0  0  0  0  0  0  0  0  0  0
  194.3590  177.1480  146.7780 O   0  0  0  0  0  1  0  0  0  0  0  0
  193.4780  173.2300  144.9270 C   0  0  0  0  0  0  0  0  0  0  0  0
  194.2560  175.8420  146.3070 C   0  0  0  0  0  0  0  0  0  0  0  0
  194.3510  173.9070  144.0090 N   0  0  0  0  0  0  0  0  0  0  0  0
  195.2320  174.8050  144.3260 C   0  0  0  0  0  3  0  0  0  0  0  0
  195.4750  175.2060  145.7380 C   0  0  0  0  0  2  0  0  0  0  0  0
  1  9  1  0  0  0  0
  1  3  1  0  0  0  0
  2  6  1  1  0  0  0
  2  7  1  0  0  0  0
  3 10  2  0  0  0  0
  4  5  1  0  0  0  0
  5  7  2  0  0  0  0
  5 19  1  0  0  0  0
  6  1  2  0  0  0  0
  7  8  1  0  0  0  0
  8  3  1  0  0  0  0
 11  2  1  0  0  0  0
 12 11  1  0  0  0  0
 12  4  2  0  0  0  0
 13 14  2  0  0  0  0
 14  4  1  0  0  0  0
 15 14  1  0  0  0  0
 17 16  1  1  0  0  0
 17 15  1  0  0  0  0
 18 17  1  0  0  0  0
 19 20  1  0  0  0  0
 20 21  1  0  0  0  0
 22 24  1  0  0  0  0
 23 26  1  0  0  0  0
 24 21  1  0  0  0  0
 26 22  2  0  0  0  0
 27 24  2  0  0  0  0
 27 25  1  0  0  0  0
 28 29  2  0  0  0  0
 28 26  1  0  0  0  0
 29 30  1  0  0  0  0
 30 27  1  0  0  0  0
M  END
>  <MODEL>
9

>  <REMARK>
 VINA RESULT:      -6.6      2.345      4.572
  Name = 
  7 active torsions:
  status: ('A' for Active; 'I' for Inactive)
    1  A    between atoms: C_5  and  C_10
    2  A    between atoms: C_6  and  C_26
    3  A    between atoms: C_10  and  C_20
    4  A    between atoms: C_12  and  C_22
    5  A    between atoms: C_14  and  C_20
    6  A    between atoms: C_21  and  C_22
    7  A    between atoms: C_21  and  C_26
                            x       y       z     vdW  Elec       q    Type
                         _______ _______ _______ _____ _____    ______ ____

>  <TORSDO>
F 7

$$$$
