=
 OpenBabel11072408333D

 26 28  0  0  1  0  0  0  0  0999 V2000
  188.2920  176.4200  145.3980 C   0  0  2  0  0  3  0  0  0  0  0  0
  188.4250  175.9000  144.0210 N   0  0  0  0  0  0  0  0  0  0  0  0
  187.4000  175.2270  142.0230 O   0  0  0  0  0  0  0  0  0  0  0  0
  185.1270  177.8740  146.7960 N   0  0  0  0  0  0  0  0  0  0  0  0
  189.7230  175.3800  143.5790 C   0  0  0  0  0  2  0  0  0  0  0  0
  186.0650  176.6760  143.3650 C   0  0  1  0  0  3  0  0  0  0  0  0
  186.9350  176.9870  145.6730 C   0  0  0  0  0  0  0  0  0  0  0  0
  186.4700  177.4600  146.9230 N   0  0  0  0  0  2  0  0  0  0  0  0
  189.3840  177.4540  145.6940 C   0  0  0  0  0  2  0  0  0  0  0  0
  190.7480  177.0890  145.0870 C   0  0  0  0  0  2  0  0  0  0  0  0
  187.3170  175.8820  143.0960 C   0  0  0  0  0  0  0  0  0  0  0  0
  185.9670  177.0660  144.8050 C   0  0  0  0  0  0  0  0  0  0  0  0
  184.8280  177.6160  145.4410 N   0  0  0  0  0  0  0  0  0  0  0  0
  190.8150  175.6360  144.6200 C   0  0  2  0  0  3  0  0  0  0  0  0
  186.0070  177.8930  142.4880 C   0  0  0  0  0  0  0  0  0  0  0  0
  186.8860  178.7900  142.6030 O   0  0  0  0  0  0  0  0  0  0  0  0
  185.1870  177.9880  140.2320 N   0  0  0  0  0  2  0  0  0  0  0  0
  184.9260  178.0470  141.4980 C   0  0  0  0  0  0  0  0  0  0  0  0
  183.5090  178.1850  141.9410 C   0  0  0  0  0  2  0  0  0  0  0  0
  182.5830  178.1630  140.7400 C   0  0  0  0  0  1  0  0  0  0  0  0
  192.1210  175.3690  144.0410 N   0  0  0  0  0  2  0  0  0  0  0  0
  192.6360  174.1690  144.6810 C   0  0  0  0  0  2  0  0  0  0  0  0
  193.1040  174.4910  146.0910 C   0  0  0  0  0  2  0  0  0  0  0  0
  194.3980  175.2960  146.0720 C   0  0  0  0  0  2  0  0  0  0  0  0
  194.6220  177.6360  145.6390 O   0  0  0  0  0  1  0  0  0  0  0  0
  194.1720  176.7110  146.5810 C   0  0  0  0  0  2  0  0  0  0  0  0
  1  7  1  0  0  0  0
  1  9  1  6  0  0  0
  2  1  1  0  0  0  0
  3 11  2  0  0  0  0
  4  8  1  0  0  0  0
  5  2  1  0  0  0  0
  5 14  1  0  0  0  0
  6 15  1  6  0  0  0
  6 12  1  0  0  0  0
  7  8  1  0  0  0  0
 10  9  1  0  0  0  0
 11  6  1  0  0  0  0
 11  2  1  0  0  0  0
 12 13  1  0  0  0  0
 12  7  2  0  0  0  0
 13  4  2  0  0  0  0
 14 21  1  6  0  0  0
 14 10  1  0  0  0  0
 15 16  2  0  0  0  0
 17 18  2  0  0  0  0
 18 19  1  0  0  0  0
 18 15  1  0  0  0  0
 20 19  1  0  0  0  0
 21 22  1  0  0  0  0
 22 23  1  0  0  0  0
 24 23  1  0  0  0  0
 24 26  1  0  0  0  0
 25 26  1  0  0  0  0
M  END
>  <MODEL>
1

>  <REMARK>
 VINA RESULT:      -6.4      0.000      0.000
  Name = 
  8 active torsions:
  status: ('A' for Active; 'I' for Inactive)
    1  A    between atoms: N_1  and  C_24
    2  A    between atoms: N_1  and  C_26
    3  A    between atoms: C_2  and  C_15
    4  A    between atoms: C_2  and  C_17
    5  A    between atoms: C_3  and  C_13
    6  A    between atoms: C_3  and  C_14
    7  A    between atoms: C_6  and  C_14
    8  A    between atoms: C_17  and  C_24
                            x       y       z     vdW  Elec       q    Type
                         _______ _______ _______ _____ _____    ______ ____

>  <TORSDO>
F 8

$$$$
=
 OpenBabel11072408333D

 26 28  0  0  1  0  0  0  0  0999 V2000
  190.6790  176.7220  146.2610 C   0  0  2  0  0  3  0  0  0  0  0  0
  189.8810  177.0500  145.0630 N   0  0  0  0  0  0  0  0  0  0  0  0
  189.8130  177.7470  142.8250 O   0  0  0  0  0  0  0  0  0  0  0  0
  194.4010  176.2350  146.2340 N   0  0  0  0  0  0  0  0  0  0  0  0
  188.4260  177.1900  145.1930 C   0  0  0  0  0  2  0  0  0  0  0  0
  191.9020  176.8120  143.4940 C   0  0  1  0  0  3  0  0  0  0  0  0
  192.1310  176.5340  145.9540 C   0  0  0  0  0  0  0  0  0  0  0  0
  193.1610  176.3190  146.9010 N   0  0  0  0  0  2  0  0  0  0  0  0
  190.1100  175.4880  146.9700 C   0  0  0  0  0  2  0  0  0  0  0  0
  188.5740  175.4450  146.9750 C   0  0  0  0  0  2  0  0  0  0  0  0
  190.4840  177.2440  143.7650 C   0  0  0  0  0  0  0  0  0  0  0  0
  192.6610  176.6060  144.7660 C   0  0  0  0  0  0  0  0  0  0  0  0
  194.0590  176.4190  144.8770 N   0  0  0  0  0  0  0  0  0  0  0  0
  187.9460  176.7820  146.5880 C   0  0  2  0  0  3  0  0  0  0  0  0
  191.9270  175.5640  142.6610 C   0  0  0  0  0  0  0  0  0  0  0  0
  192.7830  175.4410  141.7420 O   0  0  0  0  0  0  0  0  0  0  0  0
  189.9400  174.3290  142.1170 N   0  0  0  0  0  2  0  0  0  0  0  0
  190.9540  174.4850  142.9060 C   0  0  0  0  0  0  0  0  0  0  0  0
  191.1700  173.5060  144.0110 C   0  0  0  0  0  2  0  0  0  0  0  0
  189.8580  172.8470  144.3880 C   0  0  0  0  0  1  0  0  0  0  0  0
  186.4980  176.6620  146.5940 N   0  0  0  0  0  2  0  0  0  0  0  0
  186.0020  177.5130  147.6640 C   0  0  0  0  0  2  0  0  0  0  0  0
  185.4720  178.8170  147.0880 C   0  0  0  0  0  2  0  0  0  0  0  0
  184.2530  178.5730  146.2050 C   0  0  0  0  0  2  0  0  0  0  0  0
  185.7130  179.7480  144.7220 O   0  0  0  0  0  1  0  0  0  0  0  0
  184.4850  179.0900  144.7940 C   0  0  0  0  0  2  0  0  0  0  0  0
  1  9  1  6  0  0  0
  2  5  1  0  0  0  0
  2  1  1  0  0  0  0
  3 11  2  0  0  0  0
  4  8  1  0  0  0  0
  5 14  1  0  0  0  0
  6 15  1  1  0  0  0
  6 11  1  0  0  0  0
  6 12  1  0  0  0  0
  7  1  1  0  0  0  0
  7  8  1  0  0  0  0
  9 10  1  0  0  0  0
 11  2  1  0  0  0  0
 12 13  1  0  0  0  0
 12  7  2  0  0  0  0
 13  4  2  0  0  0  0
 14 21  1  6  0  0  0
 14 10  1  0  0  0  0
 15 18  1  0  0  0  0
 16 15  2  0  0  0  0
 17 18  2  0  0  0  0
 18 19  1  0  0  0  0
 19 20  1  0  0  0  0
 21 22  1  0  0  0  0
 23 22  1  0  0  0  0
 24 23  1  0  0  0  0
 25 26  1  0  0  0  0
 26 24  1  0  0  0  0
M  END
>  <MODEL>
2

>  <REMARK>
 VINA RESULT:      -6.4      2.823      6.913
  Name = 
  8 active torsions:
  status: ('A' for Active; 'I' for Inactive)
    1  A    between atoms: N_1  and  C_24
    2  A    between atoms: N_1  and  C_26
    3  A    between atoms: C_2  and  C_15
    4  A    between atoms: C_2  and  C_17
    5  A    between atoms: C_3  and  C_13
    6  A    between atoms: C_3  and  C_14
    7  A    between atoms: C_6  and  C_14
    8  A    between atoms: C_17  and  C_24
                            x       y       z     vdW  Elec       q    Type
                         _______ _______ _______ _____ _____    ______ ____

>  <TORSDO>
F 8

$$$$
=
 OpenBabel11072408333D

 26 28  0  0  1  0  0  0  0  0999 V2000
  188.6490  176.1570  142.2350 C   0  0  2  0  0  3  0  0  0  0  0  0
  188.8870  176.5130  143.6490 N   0  0  0  0  0  0  0  0  0  0  0  0
  188.5120  177.9800  145.4390 O   0  0  0  0  0  0  0  0  0  0  0  0
  186.0170  177.7480  140.0830 N   0  0  0  0  0  0  0  0  0  0  0  0
  189.9280  175.8010  144.3970 C   0  0  0  0  0  2  0  0  0  0  0  0
  186.8570  178.0870  143.7250 C   0  0  1  0  0  3  0  0  0  0  0  0
  187.5060  176.9110  141.6330 C   0  0  0  0  0  0  0  0  0  0  0  0
  187.1040  176.8690  140.2770 N   0  0  0  0  0  0  0  0  0  0  0  0
  188.4420  174.6460  142.0850 C   0  0  0  0  0  2  0  0  0  0  0  0
  189.3600  173.8130  142.9940 C   0  0  0  0  0  2  0  0  0  0  0  0
  188.1310  177.5440  144.3200 C   0  0  0  0  0  0  0  0  0  0  0  0
  186.7560  177.7660  142.2680 C   0  0  0  0  0  0  0  0  0  0  0  0
  185.8120  178.3070  141.3630 N   0  0  0  0  0  2  0  0  0  0  0  0
  190.5020  174.6350  143.5890 C   0  0  2  0  0  3  0  0  0  0  0  0
  185.6600  177.5590  144.4620 C   0  0  0  0  0  0  0  0  0  0  0  0
  185.5400  176.3170  144.6530 O   0  0  0  0  0  0  0  0  0  0  0  0
  183.9420  179.2040  144.1260 N   0  0  0  0  0  2  0  0  0  0  0  0
  184.6220  178.4810  144.9560 C   0  0  0  0  0  0  0  0  0  0  0  0
  184.2820  178.5290  146.4070 C   0  0  0  0  0  2  0  0  0  0  0  0
  185.5200  178.8470  147.2230 C   0  0  0  0  0  1  0  0  0  0  0  0
  191.3130  173.7910  144.4500 N   0  0  0  0  0  2  0  0  0  0  0  0
  192.5580  174.5020  144.6960 C   0  0  0  0  0  2  0  0  0  0  0  0
  192.8180  174.5950  146.1910 C   0  0  0  0  0  2  0  0  0  0  0  0
  192.9110  176.0470  146.6450 C   0  0  0  0  0  2  0  0  0  0  0  0
  191.0530  175.2670  147.9300 O   0  0  0  0  0  1  0  0  0  0  0  0
  191.7420  176.4170  147.5430 C   0  0  0  0  0  2  0  0  0  0  0  0
  1  9  1  1  0  0  0
  1  2  1  0  0  0  0
  2 11  1  0  0  0  0
  2  5  1  0  0  0  0
  4  8  2  0  0  0  0
  4 13  1  0  0  0  0
  6 11  1  0  0  0  0
  6 15  1  1  0  0  0
  7  1  1  0  0  0  0
  7 12  2  0  0  0  0
  8  7  1  0  0  0  0
  9 10  1  0  0  0  0
 10 14  1  0  0  0  0
 11  3  2  0  0  0  0
 12  6  1  0  0  0  0
 13 12  1  0  0  0  0
 14  5  1  0  0  0  0
 14 21  1  1  0  0  0
 15 16  2  0  0  0  0
 15 18  1  0  0  0  0
 17 18  2  0  0  0  0
 18 19  1  0  0  0  0
 19 20  1  0  0  0  0
 21 22  1  0  0  0  0
 22 23  1  0  0  0  0
 23 24  1  0  0  0  0
 24 26  1  0  0  0  0
 26 25  1  0  0  0  0
M  END
>  <MODEL>
3

>  <REMARK>
 VINA RESULT:      -6.2      2.347      3.771
  Name = 
  8 active torsions:
  status: ('A' for Active; 'I' for Inactive)
    1  A    between atoms: N_1  and  C_24
    2  A    between atoms: N_1  and  C_26
    3  A    between atoms: C_2  and  C_15
    4  A    between atoms: C_2  and  C_17
    5  A    between atoms: C_3  and  C_13
    6  A    between atoms: C_3  and  C_14
    7  A    between atoms: C_6  and  C_14
    8  A    between atoms: C_17  and  C_24
                            x       y       z     vdW  Elec       q    Type
                         _______ _______ _______ _____ _____    ______ ____

>  <TORSDO>
F 8

$$$$
=
 OpenBabel11072408333D

 26 28  0  0  1  0  0  0  0  0999 V2000
  187.4870  175.6430  142.5550 C   0  0  2  0  0  3  0  0  0  0  0  0
  187.8840  176.3410  143.7940 N   0  0  0  0  0  0  0  0  0  0  0  0
  189.1220  176.3480  145.7860 O   0  0  0  0  0  0  0  0  0  0  0  0
  189.1990  172.5750  141.2330 N   0  0  0  0  0  0  0  0  0  0  0  0
  187.1550  177.5490  144.1960 C   0  0  0  0  0  2  0  0  0  0  0  0
  189.9460  174.8440  144.1280 C   0  0  1  0  0  3  0  0  0  0  0  0
  188.3730  174.4800  142.2380 C   0  0  0  0  0  0  0  0  0  0  0  0
  188.1860  173.5560  141.1820 N   0  0  0  0  0  0  0  0  0  0  0  0
  187.4330  176.6210  141.3770 C   0  0  0  0  0  2  0  0  0  0  0  0
  186.8660  177.9990  141.7550 C   0  0  0  0  0  2  0  0  0  0  0  0
  188.9640  175.8720  144.6300 C   0  0  0  0  0  0  0  0  0  0  0  0
  189.4110  174.1180  142.9350 C   0  0  0  0  0  0  0  0  0  0  0  0
  189.9680  172.9530  142.3550 N   0  0  0  0  0  2  0  0  0  0  0  0
  186.1690  177.9960  143.1140 C   0  0  2  0  0  3  0  0  0  0  0  0
  191.2650  175.4830  143.8040 C   0  0  0  0  0  0  0  0  0  0  0  0
  191.3480  176.2960  142.8430 O   0  0  0  0  0  0  0  0  0  0  0  0
  193.2900  174.2520  144.1940 N   0  0  0  0  0  2  0  0  0  0  0  0
  192.4640  175.1620  144.5980 C   0  0  0  0  0  0  0  0  0  0  0  0
  192.7870  175.9390  145.8300 C   0  0  0  0  0  2  0  0  0  0  0  0
  192.2440  175.2260  147.0530 C   0  0  0  0  0  1  0  0  0  0  0  0
  185.6780  179.3300  143.4140 N   0  0  0  0  0  2  0  0  0  0  0  0
  185.5720  179.4310  144.8610 C   0  0  0  0  0  2  0  0  0  0  0  0
  184.1790  179.0190  145.3100 C   0  0  0  0  0  2  0  0  0  0  0  0
  184.2350  178.1810  146.5820 C   0  0  0  0  0  2  0  0  0  0  0  0
  186.1630  177.3980  147.7580 O   0  0  0  0  0  1  0  0  0  0  0  0
  185.4450  178.5480  147.4280 C   0  0  0  0  0  2  0  0  0  0  0  0
  1  9  1  6  0  0  0
  1  2  1  0  0  0  0
  2  5  1  0  0  0  0
  2 11  1  0  0  0  0
  4 13  1  0  0  0  0
  6 15  1  6  0  0  0
  6 11  1  0  0  0  0
  7  1  1  0  0  0  0
  7 12  2  0  0  0  0
  8  4  2  0  0  0  0
  8  7  1  0  0  0  0
  9 10  1  0  0  0  0
 10 14  1  0  0  0  0
 11  3  2  0  0  0  0
 12  6  1  0  0  0  0
 13 12  1  0  0  0  0
 14 21  1  1  0  0  0
 14  5  1  0  0  0  0
 15 18  1  0  0  0  0
 16 15  2  0  0  0  0
 17 18  2  0  0  0  0
 18 19  1  0  0  0  0
 19 20  1  0  0  0  0
 21 22  1  0  0  0  0
 22 23  1  0  0  0  0
 23 24  1  0  0  0  0
 24 26  1  0  0  0  0
 26 25  1  0  0  0  0
M  END
>  <MODEL>
4

>  <REMARK>
 VINA RESULT:      -6.1      2.573      7.221
  Name = 
  8 active torsions:
  status: ('A' for Active; 'I' for Inactive)
    1  A    between atoms: N_1  and  C_24
    2  A    between atoms: N_1  and  C_26
    3  A    between atoms: C_2  and  C_15
    4  A    between atoms: C_2  and  C_17
    5  A    between atoms: C_3  and  C_13
    6  A    between atoms: C_3  and  C_14
    7  A    between atoms: C_6  and  C_14
    8  A    between atoms: C_17  and  C_24
                            x       y       z     vdW  Elec       q    Type
                         _______ _______ _______ _____ _____    ______ ____

>  <TORSDO>
F 8

$$$$
=
 OpenBabel11072408333D

 26 28  0  0  1  0  0  0  0  0999 V2000
  188.8750  177.2040  146.0720 C   0  0  2  0  0  3  0  0  0  0  0  0
  188.7740  177.7020  144.6860 N   0  0  0  0  0  0  0  0  0  0  0  0
  189.8390  178.2880  142.6810 O   0  0  0  0  0  0  0  0  0  0  0  0
  191.9610  175.6280  147.5160 N   0  0  0  0  0  0  0  0  0  0  0  0
  187.5040  178.2740  144.2260 C   0  0  0  0  0  2  0  0  0  0  0  0
  191.0980  176.8030  144.0580 C   0  0  1  0  0  3  0  0  0  0  0  0
  190.2020  176.5780  146.3660 C   0  0  0  0  0  0  0  0  0  0  0  0
  190.6390  176.1070  147.6270 N   0  0  0  0  0  2  0  0  0  0  0  0
  187.7350  176.2280  146.3820 C   0  0  0  0  0  2  0  0  0  0  0  0
  186.3920  176.6450  145.7600 C   0  0  0  0  0  2  0  0  0  0  0  0
  189.8860  177.6500  143.7660 C   0  0  0  0  0  0  0  0  0  0  0  0
  191.1700  176.4360  145.5050 C   0  0  0  0  0  0  0  0  0  0  0  0
  192.2780  175.8450  146.1580 N   0  0  0  0  0  0  0  0  0  0  0  0
  186.3960  178.0910  145.2660 C   0  0  2  0  0  3  0  0  0  0  0  0
  191.1020  175.5690  143.2040 C   0  0  0  0  0  0  0  0  0  0  0  0
  192.1570  175.2240  142.6050 O   0  0  0  0  0  0  0  0  0  0  0  0
  189.5540  173.8950  143.9610 N   0  0  0  0  0  2  0  0  0  0  0  0
  189.8780  174.7610  143.0560 C   0  0  0  0  0  0  0  0  0  0  0  0
  188.9530  174.9920  141.9090 C   0  0  0  0  0  2  0  0  0  0  0  0
  187.5170  175.0230  142.3950 C   0  0  0  0  0  1  0  0  0  0  0  0
  185.1080  178.4080  144.6750 N   0  0  0  0  0  2  0  0  0  0  0  0
  184.9870  177.6170  143.4600 C   0  0  0  0  0  2  0  0  0  0  0  0
  184.0270  178.2910  142.4930 C   0  0  0  0  0  2  0  0  0  0  0  0
  184.5280  178.1880  141.0580 C   0  0  0  0  0  2  0  0  0  0  0  0
  186.4150  177.5620  139.7310 O   0  0  0  0  0  1  0  0  0  0  0  0
  186.0280  177.9440  141.0160 C   0  0  0  0  0  2  0  0  0  0  0  0
  1  7  1  0  0  0  0
  1  9  1  6  0  0  0
  2  1  1  0  0  0  0
  3 11  2  0  0  0  0
  4  8  1  0  0  0  0
  5  2  1  0  0  0  0
  5 14  1  0  0  0  0
  6 15  1  6  0  0  0
  6 12  1  0  0  0  0
  7  8  1  0  0  0  0
 10  9  1  0  0  0  0
 11  6  1  0  0  0  0
 11  2  1  0  0  0  0
 12 13  1  0  0  0  0
 12  7  2  0  0  0  0
 13  4  2  0  0  0  0
 14 21  1  6  0  0  0
 14 10  1  0  0  0  0
 16 15  2  0  0  0  0
 18 15  1  0  0  0  0
 18 17  2  0  0  0  0
 19 20  1  0  0  0  0
 19 18  1  0  0  0  0
 22 21  1  0  0  0  0
 23 22  1  0  0  0  0
 24 23  1  0  0  0  0
 25 26  1  0  0  0  0
 26 24  1  0  0  0  0
M  END
>  <MODEL>
5

>  <REMARK>
 VINA RESULT:      -6.0      2.299      6.506
  Name = 
  8 active torsions:
  status: ('A' for Active; 'I' for Inactive)
    1  A    between atoms: N_1  and  C_24
    2  A    between atoms: N_1  and  C_26
    3  A    between atoms: C_2  and  C_15
    4  A    between atoms: C_2  and  C_17
    5  A    between atoms: C_3  and  C_13
    6  A    between atoms: C_3  and  C_14
    7  A    between atoms: C_6  and  C_14
    8  A    between atoms: C_17  and  C_24
                            x       y       z     vdW  Elec       q    Type
                         _______ _______ _______ _____ _____    ______ ____

>  <TORSDO>
F 8

$$$$
=
 OpenBabel11072408333D

 26 28  0  0  1  0  0  0  0  0999 V2000
  189.7550  174.8580  145.6890 C   0  0  2  0  0  3  0  0  0  0  0  0
  190.2080  175.9420  146.5850 N   0  0  0  0  0  0  0  0  0  0  0  0
  191.8730  176.8340  147.9730 O   0  0  0  0  0  0  0  0  0  0  0  0
  192.0130  172.1930  144.3130 N   0  0  0  0  0  0  0  0  0  0  0  0
  189.2360  176.9430  147.0370 C   0  0  0  0  0  2  0  0  0  0  0  0
  192.6760  175.2590  146.3740 C   0  0  1  0  0  3  0  0  0  0  0  0
  190.8740  173.9650  145.2520 C   0  0  0  0  0  0  0  0  0  0  0  0
  190.7430  172.7840  144.4830 N   0  0  0  0  0  0  0  0  0  0  0  0
  189.0130  175.4310  144.4770 C   0  0  0  0  0  2  0  0  0  0  0  0
  188.1170  176.6300  144.8250 C   0  0  0  0  0  2  0  0  0  0  0  0
  191.5750  176.0470  147.0360 C   0  0  0  0  0  0  0  0  0  0  0  0
  192.1260  174.1210  145.5750 C   0  0  0  0  0  0  0  0  0  0  0  0
  192.8780  173.0610  145.0140 N   0  0  0  0  0  2  0  0  0  0  0  0
  187.8900  176.7800  146.3280 C   0  0  2  0  0  3  0  0  0  0  0  0
  193.5180  176.1480  145.5070 C   0  0  0  0  0  0  0  0  0  0  0  0
  194.6500  176.5300  145.9130 O   0  0  0  0  0  0  0  0  0  0  0  0
  192.1150  177.4970  144.0980 N   0  0  0  0  0  2  0  0  0  0  0  0
  193.0280  176.5840  144.1870 C   0  0  0  0  0  0  0  0  0  0  0  0
  193.6370  176.0430  142.9370 C   0  0  0  0  0  2  0  0  0  0  0  0
  192.5860  175.3240  142.1140 C   0  0  0  0  0  1  0  0  0  0  0  0
  187.0540  177.9410  146.5820 N   0  0  0  0  0  2  0  0  0  0  0  0
  185.9000  177.4810  147.3380 C   0  0  0  0  0  2  0  0  0  0  0  0
  184.7100  177.2980  146.4090 C   0  0  0  0  0  2  0  0  0  0  0  0
  184.0860  178.6400  146.0450 C   0  0  0  0  0  2  0  0  0  0  0  0
  184.7840  177.8290  143.9080 O   0  0  0  0  0  1  0  0  0  0  0  0
  184.2620  178.9430  144.5650 C   0  0  0  0  0  2  0  0  0  0  0  0
  1  9  1  6  0  0  0
  1  2  1  0  0  0  0
  2 11  1  0  0  0  0
  2  5  1  0  0  0  0
  4  8  2  0  0  0  0
  4 13  1  0  0  0  0
  6 15  1  6  0  0  0
  6 11  1  0  0  0  0
  7 12  2  0  0  0  0
  7  1  1  0  0  0  0
  8  7  1  0  0  0  0
  9 10  1  0  0  0  0
 10 14  1  0  0  0  0
 11  3  2  0  0  0  0
 12  6  1  0  0  0  0
 13 12  1  0  0  0  0
 14 21  1  6  0  0  0
 14  5  1  0  0  0  0
 15 16  2  0  0  0  0
 17 18  2  0  0  0  0
 18 15  1  0  0  0  0
 19 18  1  0  0  0  0
 20 19  1  0  0  0  0
 21 22  1  0  0  0  0
 23 22  1  0  0  0  0
 24 23  1  0  0  0  0
 25 26  1  0  0  0  0
 26 24  1  0  0  0  0
M  END
>  <MODEL>
6

>  <REMARK>
 VINA RESULT:      -6.0      2.584      7.589
  Name = 
  8 active torsions:
  status: ('A' for Active; 'I' for Inactive)
    1  A    between atoms: N_1  and  C_24
    2  A    between atoms: N_1  and  C_26
    3  A    between atoms: C_2  and  C_15
    4  A    between atoms: C_2  and  C_17
    5  A    between atoms: C_3  and  C_13
    6  A    between atoms: C_3  and  C_14
    7  A    between atoms: C_6  and  C_14
    8  A    between atoms: C_17  and  C_24
                            x       y       z     vdW  Elec       q    Type
                         _______ _______ _______ _____ _____    ______ ____

>  <TORSDO>
F 8

$$$$
=
 OpenBabel11072408333D

 26 28  0  0  1  0  0  0  0  0999 V2000
  188.4460  176.4140  142.2180 C   0  0  2  0  0  3  0  0  0  0  0  0
  188.8730  176.6270  143.6150 N   0  0  0  0  0  0  0  0  0  0  0  0
  188.7680  177.9140  145.5730 O   0  0  0  0  0  0  0  0  0  0  0  0
  185.5920  178.2350  140.5960 N   0  0  0  0  0  0  0  0  0  0  0  0
  189.9870  175.8350  144.1480 C   0  0  0  0  0  2  0  0  0  0  0  0
  186.9060  178.2050  144.1110 C   0  0  1  0  0  3  0  0  0  0  0  0
  187.2510  177.2350  141.8480 C   0  0  0  0  0  0  0  0  0  0  0  0
  186.6740  177.3300  140.5590 N   0  0  0  0  0  0  0  0  0  0  0  0
  188.1870  174.9280  141.9520 C   0  0  0  0  0  2  0  0  0  0  0  0
  189.1970  174.0010  142.6470 C   0  0  0  0  0  2  0  0  0  0  0  0
  188.2350  177.5940  144.4770 C   0  0  0  0  0  0  0  0  0  0  0  0
  186.6100  178.0300  142.6560 C   0  0  0  0  0  0  0  0  0  0  0  0
  185.5680  178.6670  141.9390 N   0  0  0  0  0  2  0  0  0  0  0  0
  190.4250  174.7480  143.1620 C   0  0  2  0  0  3  0  0  0  0  0  0
  185.8040  177.6180  144.9440 C   0  0  0  0  0  0  0  0  0  0  0  0
  185.5710  176.3790  144.8910 O   0  0  0  0  0  0  0  0  0  0  0  0
  183.7460  178.7030  145.5410 N   0  0  0  0  0  2  0  0  0  0  0  0
  184.9900  178.4820  145.8180 C   0  0  0  0  0  0  0  0  0  0  0  0
  185.5630  179.0390  147.0770 C   0  0  0  0  0  2  0  0  0  0  0  0
  186.0860  177.9180  147.9540 C   0  0  0  0  0  1  0  0  0  0  0  0
  191.3220  173.8170  143.8230 N   0  0  0  0  0  2  0  0  0  0  0  0
  191.3460  174.1710  145.2330 C   0  0  0  0  0  2  0  0  0  0  0  0
  192.7810  174.2230  145.7330 C   0  0  0  0  0  2  0  0  0  0  0  0
  193.0490  175.5090  146.5060 C   0  0  0  0  0  2  0  0  0  0  0  0
  194.4870  176.0110  144.6650 O   0  0  0  0  0  1  0  0  0  0  0  0
  194.3370  176.1700  146.0430 C   0  0  0  0  0  2  0  0  0  0  0  0
  1  9  1  1  0  0  0
  1  2  1  0  0  0  0
  2  5  1  0  0  0  0
  2 11  1  0  0  0  0
  4 13  1  0  0  0  0
  6 11  1  0  0  0  0
  6 15  1  1  0  0  0
  7  1  1  0  0  0  0
  7 12  2  0  0  0  0
  8  4  2  0  0  0  0
  8  7  1  0  0  0  0
  9 10  1  0  0  0  0
 10 14  1  0  0  0  0
 11  3  2  0  0  0  0
 12  6  1  0  0  0  0
 13 12  1  0  0  0  0
 14 21  1  1  0  0  0
 14  5  1  0  0  0  0
 15 18  1  0  0  0  0
 16 15  2  0  0  0  0
 17 18  2  0  0  0  0
 18 19  1  0  0  0  0
 19 20  1  0  0  0  0
 21 22  1  0  0  0  0
 22 23  1  0  0  0  0
 23 24  1  0  0  0  0
 25 26  1  0  0  0  0
 26 24  1  0  0  0  0
M  END
>  <MODEL>
7

>  <REMARK>
 VINA RESULT:      -6.0      2.016      3.799
  Name = 
  8 active torsions:
  status: ('A' for Active; 'I' for Inactive)
    1  A    between atoms: N_1  and  C_24
    2  A    between atoms: N_1  and  C_26
    3  A    between atoms: C_2  and  C_15
    4  A    between atoms: C_2  and  C_17
    5  A    between atoms: C_3  and  C_13
    6  A    between atoms: C_3  and  C_14
    7  A    between atoms: C_6  and  C_14
    8  A    between atoms: C_17  and  C_24
                            x       y       z     vdW  Elec       q    Type
                         _______ _______ _______ _____ _____    ______ ____

>  <TORSDO>
F 8

$$$$
=
 OpenBabel11072408333D

 26 28  0  0  1  0  0  0  0  0999 V2000
  189.4930  174.8090  145.5660 C   0  0  2  0  0  3  0  0  0  0  0  0
  189.9610  175.9320  146.4030 N   0  0  0  0  0  0  0  0  0  0  0  0
  191.6770  176.9220  147.6570 O   0  0  0  0  0  0  0  0  0  0  0  0
  191.7560  172.1930  144.1090 N   0  0  0  0  0  0  0  0  0  0  0  0
  188.9840  176.9100  146.8940 C   0  0  0  0  0  2  0  0  0  0  0  0
  192.4340  175.3340  146.0460 C   0  0  1  0  0  3  0  0  0  0  0  0
  190.6130  173.9460  145.0780 C   0  0  0  0  0  0  0  0  0  0  0  0
  190.4780  172.7410  144.3490 N   0  0  0  0  0  0  0  0  0  0  0  0
  188.6520  175.3230  144.3920 C   0  0  0  0  0  2  0  0  0  0  0  0
  187.7360  176.4980  144.7690 C   0  0  0  0  0  2  0  0  0  0  0  0
  191.3500  176.0990  146.7600 C   0  0  0  0  0  0  0  0  0  0  0  0
  191.8770  174.1560  145.3140 C   0  0  0  0  0  0  0  0  0  0  0  0
  192.6300  173.1090  144.7300 N   0  0  0  0  0  2  0  0  0  0  0  0
  187.6010  176.6790  146.2790 C   0  0  2  0  0  3  0  0  0  0  0  0
  193.1840  176.2300  145.1040 C   0  0  0  0  0  0  0  0  0  0  0  0
  192.5990  176.7040  144.0920 O   0  0  0  0  0  0  0  0  0  0  0  0
  194.9200  177.5500  146.1130 N   0  0  0  0  0  2  0  0  0  0  0  0
  194.6010  176.5530  145.3520 C   0  0  0  0  0  0  0  0  0  0  0  0
  195.6820  175.6860  144.8010 C   0  0  0  0  0  2  0  0  0  0  0  0
  195.9700  174.5420  145.7540 C   0  0  0  0  0  1  0  0  0  0  0  0
  186.7410  177.8150  146.5600 N   0  0  0  0  0  2  0  0  0  0  0  0
  185.3670  177.3600  146.4110 C   0  0  0  0  0  2  0  0  0  0  0  0
  184.5130  178.4700  145.8190 C   0  0  0  0  0  2  0  0  0  0  0  0
  185.3380  179.3780  144.9150 C   0  0  0  0  0  2  0  0  0  0  0  0
  186.3240  179.0410  142.7640 O   0  0  0  0  0  1  0  0  0  0  0  0
  185.1080  179.0480  143.4480 C   0  0  0  0  0  2  0  0  0  0  0  0
  1  9  1  6  0  0  0
  1  2  1  0  0  0  0
  2 11  1  0  0  0  0
  2  5  1  0  0  0  0
  4  8  2  0  0  0  0
  4 13  1  0  0  0  0
  6 15  1  6  0  0  0
  6 11  1  0  0  0  0
  7 12  2  0  0  0  0
  7  1  1  0  0  0  0
  8  7  1  0  0  0  0
  9 10  1  0  0  0  0
 10 14  1  0  0  0  0
 11  3  2  0  0  0  0
 12  6  1  0  0  0  0
 13 12  1  0  0  0  0
 14 21  1  6  0  0  0
 14  5  1  0  0  0  0
 15 18  1  0  0  0  0
 16 15  2  0  0  0  0
 18 17  2  0  0  0  0
 19 18  1  0  0  0  0
 19 20  1  0  0  0  0
 22 21  1  0  0  0  0
 23 22  1  0  0  0  0
 24 23  1  0  0  0  0
 25 26  1  0  0  0  0
 26 24  1  0  0  0  0
M  END
>  <MODEL>
8

>  <REMARK>
 VINA RESULT:      -6.0      2.370      7.990
  Name = 
  8 active torsions:
  status: ('A' for Active; 'I' for Inactive)
    1  A    between atoms: N_1  and  C_24
    2  A    between atoms: N_1  and  C_26
    3  A    between atoms: C_2  and  C_15
    4  A    between atoms: C_2  and  C_17
    5  A    between atoms: C_3  and  C_13
    6  A    between atoms: C_3  and  C_14
    7  A    between atoms: C_6  and  C_14
    8  A    between atoms: C_17  and  C_24
                            x       y       z     vdW  Elec       q    Type
                         _______ _______ _______ _____ _____    ______ ____

>  <TORSDO>
F 8

$$$$
=
 OpenBabel11072408333D

 26 28  0  0  1  0  0  0  0  0999 V2000
  189.3480  177.2260  145.2700 C   0  0  2  0  0  3  0  0  0  0  0  0
  189.7130  176.8010  143.9030 N   0  0  0  0  0  0  0  0  0  0  0  0
  191.3570  176.0660  142.4020 O   0  0  0  0  0  0  0  0  0  0  0  0
  191.5660  176.7900  148.2660 N   0  0  0  0  0  0  0  0  0  0  0  0
  188.7500  177.0000  142.8150 C   0  0  0  0  0  2  0  0  0  0  0  0
  191.8860  175.6810  144.6950 C   0  0  1  0  0  3  0  0  0  0  0  0
  190.3970  176.8860  146.2800 C   0  0  0  0  0  0  0  0  0  0  0  0
  190.3870  177.2550  147.6470 N   0  0  0  0  0  2  0  0  0  0  0  0
  187.9920  176.6390  145.6750 C   0  0  0  0  0  2  0  0  0  0  0  0
  186.9710  176.6170  144.5270 C   0  0  0  0  0  2  0  0  0  0  0  0
  190.9900  176.2000  143.6000 C   0  0  0  0  0  0  0  0  0  0  0  0
  191.5040  176.2490  146.0240 C   0  0  0  0  0  0  0  0  0  0  0  0
  192.2610  176.1520  147.2160 N   0  0  0  0  0  0  0  0  0  0  0  0
  187.3970  177.4830  143.3430 C   0  0  2  0  0  3  0  0  0  0  0  0
  191.8590  174.1810  144.7380 C   0  0  0  0  0  0  0  0  0  0  0  0
  192.9270  173.5410  144.9380 O   0  0  0  0  0  0  0  0  0  0  0  0
  189.6910  173.4490  145.4710 N   0  0  0  0  0  2  0  0  0  0  0  0
  190.5920  173.4530  144.5430 C   0  0  0  0  0  0  0  0  0  0  0  0
  190.2970  172.7860  143.2420 C   0  0  0  0  0  2  0  0  0  0  0  0
  188.9410  173.2280  142.7250 C   0  0  0  0  0  1  0  0  0  0  0  0
  186.3980  177.3980  142.2920 N   0  0  0  0  0  2  0  0  0  0  0  0
  185.6270  178.6310  142.3330 C   0  0  0  0  0  2  0  0  0  0  0  0
  184.3530  178.4200  143.1350 C   0  0  0  0  0  2  0  0  0  0  0  0
  184.2680  179.3990  144.3010 C   0  0  0  0  0  2  0  0  0  0  0  0
  185.1620  178.9340  146.4680 O   0  0  0  0  0  1  0  0  0  0  0  0
  184.0860  178.6670  145.6210 C   0  0  0  0  0  2  0  0  0  0  0  0
  1  9  1  1  0  0  0
  1  7  1  0  0  0  0
  2  1  1  0  0  0  0
  3 11  2  0  0  0  0
  5 14  1  0  0  0  0
  5  2  1  0  0  0  0
  6 15  1  1  0  0  0
  6 12  1  0  0  0  0
  7  8  1  0  0  0  0
  8  4  1  0  0  0  0
 10  9  1  0  0  0  0
 11  2  1  0  0  0  0
 11  6  1  0  0  0  0
 12  7  2  0  0  0  0
 12 13  1  0  0  0  0
 13  4  2  0  0  0  0
 14 21  1  6  0  0  0
 14 10  1  0  0  0  0
 15 16  2  0  0  0  0
 18 15  1  0  0  0  0
 18 17  2  0  0  0  0
 19 18  1  0  0  0  0
 20 19  1  0  0  0  0
 21 22  1  0  0  0  0
 22 23  1  0  0  0  0
 23 24  1  0  0  0  0
 24 26  1  0  0  0  0
 26 25  1  0  0  0  0
M  END
>  <MODEL>
9

>  <REMARK>
 VINA RESULT:      -5.7      2.551      6.825
  Name = 
  8 active torsions:
  status: ('A' for Active; 'I' for Inactive)
    1  A    between atoms: N_1  and  C_24
    2  A    between atoms: N_1  and  C_26
    3  A    between atoms: C_2  and  C_15
    4  A    between atoms: C_2  and  C_17
    5  A    between atoms: C_3  and  C_13
    6  A    between atoms: C_3  and  C_14
    7  A    between atoms: C_6  and  C_14
    8  A    between atoms: C_17  and  C_24
                            x       y       z     vdW  Elec       q    Type
                         _______ _______ _______ _____ _____    ______ ____

>  <TORSDO>
F 8

$$$$
