=
 OpenBabel11062419023D

 68 75  0  0  1  0  0  0  0  0999 V2000
  188.9050  178.0370  142.9150 O   0  0  0  0  0  0  0  0  0  0  0  0
  192.4520  173.9670  140.4820 C   0  0  2  0  0  3  0  0  0  0  0  0
  186.8270  176.0660  139.8840 O   0  0  0  0  0  0  0  0  0  0  0  0
  192.1810  173.1280  141.7150 C   0  0  1  0  0  3  0  0  0  0  0  0
  186.7640  177.2120  141.9800 C   0  0  0  0  0  0  0  0  0  0  0  0
  191.1760  171.8200  139.6340 C   0  0  2  0  0  3  0  0  0  0  0  0
  187.4110  174.8410  140.2890 C   0  0  1  0  0  3  0  0  0  0  0  0
  188.4530  174.3350  139.2900 C   0  0  2  0  0  3  0  0  0  0  0  0
  189.4980  173.1240  141.3810 C   0  0  1  0  0  3  0  0  0  0  0  0
  187.9620  174.8610  141.7210 C   0  0  2  0  0  3  0  0  0  0  0  0
  190.2510  172.7350  139.0450 O   0  0  0  0  0  0  0  0  0  0  0  0
  189.6940  173.6870  139.9390 C   0  0  1  0  0  3  0  0  0  0  0  0
  188.9310  175.8790  141.9440 O   0  0  0  0  0  0  0  0  0  0  0  0
  186.0960  177.6990  142.9220 O   0  0  0  0  0  0  0  0  0  0  0  0
  188.2750  177.1270  142.0370 C   0  0  2  0  0  0  0  0  0  0  0  0
  190.7590  173.1610  142.2870 C   0  0  1  0  0  3  0  0  0  0  0  0
  189.0400  178.2820  141.5220 C   0  0  0  0  0  2  0  0  0  0  0  0
  188.8440  175.3340  138.3930 O   0  0  0  0  0  1  0  0  0  0  0  0
  192.4250  172.4400  140.3640 C   0  0  1  0  0  0  0  0  0  0  0  0
  188.3880  173.5930  142.1260 O   0  0  0  0  0  0  0  0  0  0  0  0
  186.1080  176.5900  140.9010 O   0  0  0  0  0  0  0  0  0  0  0  0
  194.4890  174.9240  141.5200 C   0  0  0  0  0  3  0  0  0  0  0  0
  195.8300  175.3460  141.4590 C   0  0  0  0  0  0  0  0  0  0  0  0
  196.5010  175.3220  140.2770 N   0  0  0  0  0  0  0  0  0  0  0  0
  195.9120  174.9070  139.1170 C   0  0  0  0  0  3  0  0  0  0  0  0
  196.4930  175.7740  142.6480 N   0  0  0  0  0  1  0  0  0  0  0  0
  194.5800  174.4830  139.1300 C   0  0  0  0  0  0  0  0  0  0  0  0
  193.9880  174.0880  137.9720 F   0  0  0  0  0  0  0  0  0  0  0  0
  193.8540  174.4990  140.3450 C   0  0  0  0  0  0  0  0  0  0  0  0
  191.6110  170.8630  138.6120 N   0  0  0  0  0  2  0  0  0  0  0  0
  190.6860  170.0580  137.8470 C   0  0  0  0  0  0  0  0  0  0  0  0
  189.5510  169.7550  138.3310 O   0  0  0  0  0  0  0  0  0  0  0  0
  190.9830  169.6930  136.4270 C   0  0  0  0  0  2  0  0  0  0  0  0
  191.7650  172.0690  135.5400 O   0  0  0  0  0  1  0  0  0  0  0  0
  190.6400  171.0690  135.2730 S   0  0  0  0  0  3  0  0  0  0  0  0
  189.2730  171.8430  135.9830 O   0  0  0  0  0  1  0  0  0  0  0  0
  190.6980  172.0340  143.2980 C   0  0  0  0  0  2  0  0  0  0  0  0
  190.3790  172.5350  144.6660 C   0  0  0  0  0  3  0  0  0  0  0  0
  190.2790  173.8400  144.9300 C   0  0  0  0  0  3  0  0  0  0  0  0
  189.9620  174.2880  146.3230 C   0  0  0  0  0  2  0  0  0  0  0  0
  191.1630  175.0280  146.9330 C   0  0  2  0  0  3  0  0  0  0  0  0
  190.9650  175.2070  148.3210 O   0  0  0  0  0  0  0  0  0  0  0  0
  191.7280  176.3470  148.6470 C   0  0  0  0  0  1  0  0  0  0  0  0
  191.4550  176.3620  146.2400 C   0  0  1  0  0  3  0  0  0  0  0  0
  192.6300  176.2130  145.4410 O   0  0  0  0  0  0  0  0  0  0  0  0
  194.4600  176.8650  146.6640 O   0  0  0  0  0  0  0  0  0  0  0  0
  193.9090  175.9740  145.9650 C   0  0  0  0  0  0  0  0  0  0  0  0
  195.9140  174.6530  146.0100 C   0  0  0  0  0  3  0  0  0  0  0  0
  195.6980  172.3720  143.9830 C   0  0  0  0  0  3  0  0  0  0  0  0
  193.8310  173.5690  145.1830 C   0  0  0  0  0  3  0  0  0  0  0  0
  194.6080  174.6970  145.7510 C   0  0  0  0  0  0  0  0  0  0  0  0
  196.7770  173.4450  145.9700 C   0  0  0  0  0  2  0  0  0  0  0  0
  196.7850  172.7960  144.6310 C   0  0  0  0  0  3  0  0  0  0  0  0
  194.3050  172.5680  144.4290 C   0  0  0  0  0  3  0  0  0  0  0  0
  190.2840  176.8830  145.4170 C   0  0  0  0  0  2  0  0  0  0  0  0
  189.4120  177.9410  147.3720 O   0  0  0  0  0  0  0  0  0  0  0  0
  189.1560  177.3220  146.2860 C   0  0  0  0  0  0  0  0  0  0  0  0
  187.8010  176.9630  145.9660 N   0  0  0  0  0  2  0  0  0  0  0  0
  183.6390  178.7290  145.9170 N   0  0  0  0  0  1  0  0  0  0  0  0
  185.5490  179.1520  147.2700 N   0  0  0  0  0  0  0  0  0  0  0  0
  186.7360  177.1300  146.9550 C   0  0  2  0  0  3  0  0  0  0  0  0
  185.4980  177.1540  146.2770 O   0  0  0  0  0  0  0  0  0  0  0  0
  186.8140  178.5080  147.6190 C   0  0  0  0  0  2  0  0  0  0  0  0
  184.8800  178.3570  146.5090 C   0  0  0  0  0  0  0  0  0  0  0  0
  193.6880  171.5630  140.5500 C   0  0  0  0  0  2  0  0  0  0  0  0
  193.3320  170.1900  141.0920 C   0  0  0  0  0  0  0  0  0  0  0  0
  193.0240  170.0370  142.3020 O   0  0  0  0  0  1  0  0  0  0  0  0
  193.4360  169.0660  140.2720 O   0  0  0  0  0  0  0  0  0  0  0  0
  2 29  1  1  0  0  0
  2  4  1  0  0  0  0
  3  7  1  0  0  0  0
  3 21  1  0  0  0  0
  4 16  1  0  0  0  0
  5 15  1  0  0  0  0
  5 14  2  0  0  0  0
  6 19  1  0  0  0  0
  7 10  1  0  0  0  0
  8 12  1  0  0  0  0
  8  7  1  0  0  0  0
  9 20  1  0  0  0  0
  9 16  1  0  0  0  0
 10 13  1  0  0  0  0
 10 20  1  0  0  0  0
 11  6  1  0  0  0  0
 11 12  1  0  0  0  0
 12  9  1  0  0  0  0
 13 15  1  0  0  0  0
 15  1  1  0  0  0  0
 16 37  1  0  0  0  0
 17 15  1  0  0  0  0
 17  1  1  0  0  0  0
 18  8  1  0  0  0  0
 19  2  1  0  0  0  0
 19 65  1  0  0  0  0
 19  4  1  0  0  0  0
 21  5  1  0  0  0  0
 23 22  1  0  0  0  0
 23 26  1  0  0  0  0
 24 23  2  0  0  0  0
 25 27  2  0  0  0  0
 25 24  1  0  0  0  0
 27 29  1  0  0  0  0
 28 27  1  0  0  0  0
 29 22  2  0  0  0  0
 30  6  1  0  0  0  0
 31 32  2  0  0  0  0
 31 30  1  0  0  0  0
 33 31  1  0  0  0  0
 35 34  1  0  0  0  0
 35 36  1  0  0  0  0
 35 33  1  0  0  0  0
 37 38  1  0  0  0  0
 38 39  2  0  0  0  0
 39 40  1  0  0  0  0
 40 41  1  0  0  0  0
 41 42  1  0  0  0  0
 42 43  1  0  0  0  0
 44 41  1  0  0  0  0
 45 47  1  0  0  0  0
 45 44  1  0  0  0  0
 47 46  2  0  0  0  0
 49 54  1  0  0  0  0
 49 53  2  0  0  0  0
 50 51  1  0  0  0  0
 51 47  1  0  0  0  0
 51 48  2  0  0  0  0
 52 48  1  0  0  0  0
 53 52  1  0  0  0  0
 54 50  2  0  0  0  0
 55 44  1  0  0  0  0
 55 57  1  0  0  0  0
 57 56  2  0  0  0  0
 58 57  1  0  0  0  0
 58 61  1  0  0  0  0
 59 64  1  0  0  0  0
 60 63  1  0  0  0  0
 61 63  1  0  0  0  0
 62 64  1  0  0  0  0
 62 61  1  0  0  0  0
 64 60  2  0  0  0  0
 65 66  1  0  0  0  0
 66 67  1  0  0  0  0
 68 66  2  0  0  0  0
M  END
>  <MODEL>
1

>  <REMARK>
 VINA RESULT:      -6.1      0.000      0.000
  Name = 
  18 active torsions:
  status: ('A' for Active; 'I' for Inactive)
    1  A    between atoms: C_6  and  C_29
    2  A    between atoms: C_7  and  C_40
    3  A    between atoms: C_7  and  O_43
    4  A    between atoms: C_7  and  C_51
    5  A    between atoms: C_9  and  C_40
    6  A    between atoms: C_12  and  C_68
    7  A    between atoms: C_14  and  C_36
    8  A    between atoms: S_17  and  C_47
    9  A    between atoms: C_20  and  N_33
   10  A    between atoms: C_25  and  C_61
   11  A    between atoms: C_29  and  C_53
   12  A    between atoms: C_31  and  N_58
   13  A    between atoms: C_36  and  C_64
   14  A    between atoms: C_46  and  C_48
   15  A    between atoms: C_46  and  O_59
   16  A    between atoms: C_47  and  C_60
   17  A    between atoms: C_51  and  O_59
   18  A    between atoms: C_51  and  C_61
                            x       y       z     vdW  Elec       q    Type
                         _______ _______ _______ _____ _____    ______ ____

>  <TORSDO>
F 18

$$$$
=
 OpenBabel11062419023D

 68 75  0  0  1  0  0  0  0  0999 V2000
  190.0910  177.6800  144.0420 O   0  0  0  0  0  0  0  0  0  0  0  0
  192.1100  173.8110  140.0390 C   0  0  2  0  0  3  0  0  0  0  0  0
  186.8490  175.9760  142.0470 O   0  0  0  0  0  0  0  0  0  0  0  0
  192.3540  172.8730  141.2050 C   0  0  1  0  0  3  0  0  0  0  0  0
  187.7250  176.9450  144.0490 C   0  0  0  0  0  0  0  0  0  0  0  0
  190.5120  171.7470  139.6600 C   0  0  2  0  0  3  0  0  0  0  0  0
  187.5010  174.7190  142.0750 C   0  0  1  0  0  3  0  0  0  0  0  0
  188.0010  174.2940  140.6930 C   0  0  2  0  0  3  0  0  0  0  0  0
  189.7850  172.9080  142.0450 C   0  0  1  0  0  3  0  0  0  0  0  0
  188.6070  174.6180  143.1340 C   0  0  2  0  0  3  0  0  0  0  0  0
  189.4620  172.7110  139.5900 O   0  0  0  0  0  0  0  0  0  0  0  0
  189.3740  173.5880  140.7030 C   0  0  1  0  0  3  0  0  0  0  0  0
  189.6180  175.6090  142.9960 O   0  0  0  0  0  0  0  0  0  0  0  0
  187.5390  177.3550  145.2180 O   0  0  0  0  0  0  0  0  0  0  0  0
  189.1130  176.8490  143.4510 C   0  0  2  0  0  0  0  0  0  0  0  0
  191.3110  172.8650  142.3290 C   0  0  1  0  0  3  0  0  0  0  0  0
  189.6330  178.0390  142.7460 C   0  0  0  0  0  2  0  0  0  0  0  0
  188.0130  175.3620  139.7910 O   0  0  0  0  0  1  0  0  0  0  0  0
  191.9760  172.2990  139.8330 C   0  0  1  0  0  0  0  0  0  0  0  0
  189.1150  173.3180  143.2240 O   0  0  0  0  0  0  0  0  0  0  0  0
  186.6510  176.4170  143.3090 O   0  0  0  0  0  0  0  0  0  0  0  0
  194.3980  174.7550  140.1850 C   0  0  0  0  0  3  0  0  0  0  0  0
  195.6030  175.1790  139.5960 C   0  0  0  0  0  0  0  0  0  0  0  0
  195.7420  175.1730  138.2440 N   0  0  0  0  0  0  0  0  0  0  0  0
  194.7350  174.7740  137.4130 C   0  0  0  0  0  3  0  0  0  0  0  0
  196.6900  175.5900  140.4250 N   0  0  0  0  0  1  0  0  0  0  0  0
  193.5190  174.3480  137.9540 C   0  0  0  0  0  0  0  0  0  0  0  0
  192.5100  173.9700  137.1260 F   0  0  0  0  0  0  0  0  0  0  0  0
  193.3420  174.3460  139.3590 C   0  0  0  0  0  0  0  0  0  0  0  0
  190.4350  170.8760  138.4830 N   0  0  0  0  0  2  0  0  0  0  0  0
  190.3380  171.3860  137.1350 C   0  0  0  0  0  0  0  0  0  0  0  0
  189.8190  172.5260  136.9190 O   0  0  0  0  0  0  0  0  0  0  0  0
  190.9730  170.6570  135.9930 C   0  0  0  0  0  2  0  0  0  0  0  0
  193.1160  171.4330  134.6340 O   0  0  0  0  0  1  0  0  0  0  0  0
  192.7930  170.8190  135.9960 S   0  0  0  0  0  3  0  0  0  0  0  0
  193.3310  169.1920  135.8110 O   0  0  0  0  0  1  0  0  0  0  0  0
  191.6410  171.6580  143.1840 C   0  0  0  0  0  2  0  0  0  0  0  0
  192.9900  171.7750  143.8090 C   0  0  0  0  0  3  0  0  0  0  0  0
  193.1510  172.2420  145.0500 C   0  0  0  0  0  3  0  0  0  0  0  0
  194.5290  172.3440  145.6260 C   0  0  0  0  0  2  0  0  0  0  0  0
  195.4580  171.3050  144.9780 C   0  0  2  0  0  3  0  0  0  0  0  0
  195.9600  170.4250  145.9640 O   0  0  0  0  0  0  0  0  0  0  0  0
  195.5350  169.1460  145.5490 C   0  0  0  0  0  1  0  0  0  0  0  0
  196.5960  171.9420  144.1740 C   0  0  1  0  0  3  0  0  0  0  0  0
  196.9510  173.1820  144.7900 O   0  0  0  0  0  0  0  0  0  0  0  0
  197.4880  174.8500  143.3070 O   0  0  0  0  0  0  0  0  0  0  0  0
  196.7150  174.4380  144.2130 C   0  0  0  0  0  0  0  0  0  0  0  0
  195.3040  175.3790  145.9120 C   0  0  0  0  0  3  0  0  0  0  0  0
  192.5320  175.9600  144.7530 C   0  0  0  0  0  3  0  0  0  0  0  0
  194.7390  175.8670  143.5370 C   0  0  0  0  0  3  0  0  0  0  0  0
  195.5700  175.2710  144.6110 C   0  0  0  0  0  0  0  0  0  0  0  0
  194.2720  176.2530  146.5270 C   0  0  0  0  0  2  0  0  0  0  0  0
  192.9020  175.9500  146.0350 C   0  0  0  0  0  3  0  0  0  0  0  0
  193.4350  176.1680  143.6050 C   0  0  0  0  0  3  0  0  0  0  0  0
  197.8070  171.0300  144.0200 C   0  0  0  0  0  2  0  0  0  0  0  0
  197.9370  169.0250  142.7290 O   0  0  0  0  0  0  0  0  0  0  0  0
  197.7750  170.2910  142.7260 C   0  0  0  0  0  0  0  0  0  0  0  0
  197.6700  171.0000  141.4800 N   0  0  0  0  0  2  0  0  0  0  0  0
  196.5970  171.7530  137.1520 N   0  0  0  0  0  1  0  0  0  0  0  0
  196.2730  169.8840  138.5870 N   0  0  0  0  0  0  0  0  0  0  0  0
  197.9360  170.3160  140.2140 C   0  0  2  0  0  3  0  0  0  0  0  0
  197.9150  171.2750  139.1770 O   0  0  0  0  0  0  0  0  0  0  0  0
  196.7900  169.3650  139.8510 C   0  0  0  0  0  2  0  0  0  0  0  0
  196.9250  170.9520  138.2840 C   0  0  0  0  0  0  0  0  0  0  0  0
  193.1630  171.4040  139.3980 C   0  0  0  0  0  2  0  0  0  0  0  0
  193.1080  170.0460  140.0760 C   0  0  0  0  0  0  0  0  0  0  0  0
  192.5150  169.0800  139.5320 O   0  0  0  0  0  0  0  0  0  0  0  0
  193.6370  169.8830  141.3570 O   0  0  0  0  0  1  0  0  0  0  0  0
  2 29  1  6  0  0  0
  2  4  1  0  0  0  0
  3  7  1  0  0  0  0
  3 21  1  0  0  0  0
  4 16  1  0  0  0  0
  5 14  2  0  0  0  0
  6 19  1  0  0  0  0
  7 10  1  0  0  0  0
  8 12  1  0  0  0  0
  8  7  1  0  0  0  0
  9 16  1  0  0  0  0
  9 20  1  0  0  0  0
 10 20  1  0  0  0  0
 11  6  1  0  0  0  0
 11 12  1  0  0  0  0
 12  9  1  0  0  0  0
 13 10  1  0  0  0  0
 13 15  1  0  0  0  0
 15  1  1  0  0  0  0
 15  5  1  0  0  0  0
 16 37  1  0  0  0  0
 17 15  1  0  0  0  0
 17  1  1  0  0  0  0
 18  8  1  0  0  0  0
 19  2  1  0  0  0  0
 19  4  1  0  0  0  0
 21  5  1  0  0  0  0
 23 22  1  0  0  0  0
 23 26  1  0  0  0  0
 24 23  2  0  0  0  0
 25 27  2  0  0  0  0
 25 24  1  0  0  0  0
 27 29  1  0  0  0  0
 28 27  1  0  0  0  0
 29 22  2  0  0  0  0
 30  6  1  0  0  0  0
 31 30  1  0  0  0  0
 32 31  2  0  0  0  0
 33 35  1  0  0  0  0
 33 31  1  0  0  0  0
 34 35  1  0  0  0  0
 36 35  1  0  0  0  0
 37 38  1  0  0  0  0
 38 39  2  0  0  0  0
 39 40  1  0  0  0  0
 41 40  1  0  0  0  0
 41 42  1  0  0  0  0
 43 42  1  0  0  0  0
 44 45  1  0  0  0  0
 44 41  1  0  0  0  0
 46 47  2  0  0  0  0
 47 51  1  0  0  0  0
 47 45  1  0  0  0  0
 48 52  1  0  0  0  0
 49 53  2  0  0  0  0
 50 54  2  0  0  0  0
 50 51  1  0  0  0  0
 51 48  2  0  0  0  0
 53 52  1  0  0  0  0
 54 49  1  0  0  0  0
 55 44  1  0  0  0  0
 57 56  2  0  0  0  0
 57 55  1  0  0  0  0
 58 57  1  0  0  0  0
 59 64  1  0  0  0  0
 60 63  1  0  0  0  0
 61 58  1  0  0  0  0
 62 61  1  0  0  0  0
 63 61  1  0  0  0  0
 64 60  2  0  0  0  0
 64 62  1  0  0  0  0
 65 19  1  0  0  0  0
 65 66  1  0  0  0  0
 66 68  1  0  0  0  0
 67 66  2  0  0  0  0
M  END
>  <MODEL>
2

>  <REMARK>
 VINA RESULT:      -6.0      3.183      6.239
  Name = 
  18 active torsions:
  status: ('A' for Active; 'I' for Inactive)
    1  A    between atoms: C_6  and  C_29
    2  A    between atoms: C_7  and  C_40
    3  A    between atoms: C_7  and  O_43
    4  A    between atoms: C_7  and  C_51
    5  A    between atoms: C_9  and  C_40
    6  A    between atoms: C_12  and  C_68
    7  A    between atoms: C_14  and  C_36
    8  A    between atoms: S_17  and  C_47
    9  A    between atoms: C_20  and  N_33
   10  A    between atoms: C_25  and  C_61
   11  A    between atoms: C_29  and  C_53
   12  A    between atoms: C_31  and  N_58
   13  A    between atoms: C_36  and  C_64
   14  A    between atoms: C_46  and  C_48
   15  A    between atoms: C_46  and  O_59
   16  A    between atoms: C_47  and  C_60
   17  A    between atoms: C_51  and  O_59
   18  A    between atoms: C_51  and  C_61
                            x       y       z     vdW  Elec       q    Type
                         _______ _______ _______ _____ _____    ______ ____

>  <TORSDO>
F 18

$$$$
=
 OpenBabel11062419023D

 68 75  0  0  1  0  0  0  0  0999 V2000
  189.7840  178.3530  142.8580 O   0  0  0  0  0  0  0  0  0  0  0  0
  192.0980  173.5480  140.2850 C   0  0  2  0  0  3  0  0  0  0  0  0
  186.6870  175.8170  141.6900 O   0  0  0  0  0  0  0  0  0  0  0  0
  192.4450  173.0790  141.6840 C   0  0  1  0  0  3  0  0  0  0  0  0
  187.4970  177.4690  143.2140 C   0  0  0  0  0  0  0  0  0  0  0  0
  190.6940  171.3510  140.6850 C   0  0  2  0  0  3  0  0  0  0  0  0
  187.4540  174.7000  142.1040 C   0  0  1  0  0  3  0  0  0  0  0  0
  187.9710  173.8790  140.9220 C   0  0  2  0  0  3  0  0  0  0  0  0
  189.8950  173.1800  142.5770 C   0  0  1  0  0  3  0  0  0  0  0  0
  188.5790  175.0520  143.0870 C   0  0  2  0  0  3  0  0  0  0  0  0
  189.5570  172.1460  140.3440 O   0  0  0  0  0  0  0  0  0  0  0  0
  189.4040  173.3340  141.1050 C   0  0  1  0  0  3  0  0  0  0  0  0
  189.4910  176.0200  142.5830 O   0  0  0  0  0  0  0  0  0  0  0  0
  187.2900  178.2300  144.1880 O   0  0  0  0  0  0  0  0  0  0  0  0
  188.8800  177.2940  142.6210 C   0  0  2  0  0  0  0  0  0  0  0  0
  191.4230  173.3610  142.7920 C   0  0  1  0  0  3  0  0  0  0  0  0
  189.2760  178.2180  141.5380 C   0  0  0  0  0  2  0  0  0  0  0  0
  187.8720  174.5810  139.7160 O   0  0  0  0  0  1  0  0  0  0  0  0
  192.1020  172.0480  140.5990 C   0  0  1  0  0  0  0  0  0  0  0  0
  189.2070  173.9050  143.5810 O   0  0  0  0  0  0  0  0  0  0  0  0
  186.4660  176.6370  142.7410 O   0  0  0  0  0  0  0  0  0  0  0  0
  194.5460  173.7610  139.9570 C   0  0  0  0  0  3  0  0  0  0  0  0
  195.6710  174.0140  139.1500 C   0  0  0  0  0  0  0  0  0  0  0  0
  195.5110  174.3940  137.8550 N   0  0  0  0  0  0  0  0  0  0  0  0
  194.2780  174.5550  137.2930 C   0  0  0  0  0  3  0  0  0  0  0  0
  196.9820  173.8430  139.6890 N   0  0  0  0  0  1  0  0  0  0  0  0
  193.1320  174.3180  138.0580 C   0  0  0  0  0  0  0  0  0  0  0  0
  191.9040  174.4980  137.5040 F   0  0  0  0  0  0  0  0  0  0  0  0
  193.2650  173.9240  139.4110 C   0  0  0  0  0  0  0  0  0  0  0  0
  190.6810  170.1330  139.8690 N   0  0  0  0  0  2  0  0  0  0  0  0
  190.7190  170.1560  138.4240 C   0  0  0  0  0  0  0  0  0  0  0  0
  190.2670  171.1590  137.7900 O   0  0  0  0  0  0  0  0  0  0  0  0
  191.4190  169.0760  137.6600 C   0  0  0  0  0  2  0  0  0  0  0  0
  191.5780  168.1930  135.1630 O   0  0  0  0  0  1  0  0  0  0  0  0
  191.6750  169.5250  135.9070 S   0  0  0  0  0  3  0  0  0  0  0  0
  193.3620  169.8730  135.8350 O   0  0  0  0  0  1  0  0  0  0  0  0
  191.8750  172.5420  143.9840 C   0  0  0  0  0  2  0  0  0  0  0  0
  192.6010  173.3770  144.9840 C   0  0  0  0  0  3  0  0  0  0  0  0
  191.9510  174.0840  145.9120 C   0  0  0  0  0  3  0  0  0  0  0  0
  192.7300  174.9100  146.8880 C   0  0  0  0  0  2  0  0  0  0  0  0
  191.9970  176.2300  147.1770 C   0  0  2  0  0  3  0  0  0  0  0  0
  191.4490  176.2030  148.4790 O   0  0  0  0  0  0  0  0  0  0  0  0
  191.6410  177.5090  148.9740 C   0  0  0  0  0  1  0  0  0  0  0  0
  190.9260  176.5560  146.1320 C   0  0  1  0  0  3  0  0  0  0  0  0
  191.4780  176.3460  144.8310 O   0  0  0  0  0  0  0  0  0  0  0  0
  192.2810  178.4170  144.2520 O   0  0  0  0  0  0  0  0  0  0  0  0
  192.4550  177.1690  144.2520 C   0  0  0  0  0  0  0  0  0  0  0  0
  194.7050  176.3700  144.5100 C   0  0  0  0  0  3  0  0  0  0  0  0
  196.2450  176.7500  141.8940 C   0  0  0  0  0  3  0  0  0  0  0  0
  193.7610  176.4520  142.2070 C   0  0  0  0  0  3  0  0  0  0  0  0
  193.6920  176.6180  143.6790 C   0  0  0  0  0  0  0  0  0  0  0  0
  195.9890  175.7130  144.1570 C   0  0  0  0  0  2  0  0  0  0  0  0
  196.7320  176.4480  143.0990 C   0  0  0  0  0  3  0  0  0  0  0  0
  194.8620  176.5030  141.4450 C   0  0  0  0  0  3  0  0  0  0  0  0
  189.6370  175.7660  146.3250 C   0  0  0  0  0  2  0  0  0  0  0  0
  188.7770  177.8220  147.1850 O   0  0  0  0  0  0  0  0  0  0  0  0
  188.5160  176.6450  146.7640 C   0  0  0  0  0  0  0  0  0  0  0  0
  187.1700  176.1450  146.8160 N   0  0  0  0  0  2  0  0  0  0  0  0
  183.7800  178.8600  145.5540 N   0  0  0  0  0  1  0  0  0  0  0  0
  185.6030  179.1540  147.0550 N   0  0  0  0  0  0  0  0  0  0  0  0
  186.1280  176.8940  147.5190 C   0  0  2  0  0  3  0  0  0  0  0  0
  185.0220  177.0370  146.6530 O   0  0  0  0  0  0  0  0  0  0  0  0
  186.5700  178.3360  147.7840 C   0  0  0  0  0  2  0  0  0  0  0  0
  184.7890  178.3710  146.4350 C   0  0  0  0  0  0  0  0  0  0  0  0
  193.3610  171.1610  140.4350 C   0  0  0  0  0  2  0  0  0  0  0  0
  193.7010  170.4400  141.7260 C   0  0  0  0  0  0  0  0  0  0  0  0
  192.9610  169.5220  142.1640 O   0  0  0  0  0  0  0  0  0  0  0  0
  194.7910  170.8560  142.4930 O   0  0  0  0  0  1  0  0  0  0  0  0
  2 29  1  6  0  0  0
  2 19  1  0  0  0  0
  2  4  1  0  0  0  0
  3  7  1  0  0  0  0
  3 21  1  0  0  0  0
  4 16  1  0  0  0  0
  5 14  2  0  0  0  0
  7 10  1  0  0  0  0
  8 12  1  0  0  0  0
  8  7  1  0  0  0  0
  9 16  1  0  0  0  0
  9 20  1  0  0  0  0
 10 20  1  0  0  0  0
 11  6  1  0  0  0  0
 11 12  1  0  0  0  0
 12  9  1  0  0  0  0
 13 15  1  0  0  0  0
 13 10  1  0  0  0  0
 15  1  1  0  0  0  0
 15  5  1  0  0  0  0
 16 37  1  0  0  0  0
 17 15  1  0  0  0  0
 17  1  1  0  0  0  0
 18  8  1  0  0  0  0
 19  6  1  0  0  0  0
 19  4  1  0  0  0  0
 21  5  1  0  0  0  0
 23 26  1  0  0  0  0
 23 22  2  0  0  0  0
 24 23  1  0  0  0  0
 25 24  2  0  0  0  0
 25 27  1  0  0  0  0
 27 29  2  0  0  0  0
 28 27  1  0  0  0  0
 29 22  1  0  0  0  0
 30  6  1  0  0  0  0
 31 30  1  0  0  0  0
 32 31  2  0  0  0  0
 33 31  1  0  0  0  0
 34 35  1  0  0  0  0
 35 33  1  0  0  0  0
 36 35  1  0  0  0  0
 37 38  1  0  0  0  0
 38 39  2  0  0  0  0
 39 40  1  0  0  0  0
 40 41  1  0  0  0  0
 41 42  1  0  0  0  0
 42 43  1  0  0  0  0
 44 55  1  0  0  0  0
 44 41  1  0  0  0  0
 45 44  1  0  0  0  0
 46 47  2  0  0  0  0
 47 45  1  0  0  0  0
 49 53  2  0  0  0  0
 50 51  1  0  0  0  0
 51 47  1  0  0  0  0
 51 48  2  0  0  0  0
 52 48  1  0  0  0  0
 53 52  1  0  0  0  0
 54 49  1  0  0  0  0
 54 50  2  0  0  0  0
 55 57  1  0  0  0  0
 57 58  1  0  0  0  0
 57 56  2  0  0  0  0
 58 61  1  0  0  0  0
 59 64  1  0  0  0  0
 60 63  1  0  0  0  0
 61 63  1  0  0  0  0
 62 61  1  0  0  0  0
 64 62  1  0  0  0  0
 64 60  2  0  0  0  0
 65 19  1  0  0  0  0
 65 66  1  0  0  0  0
 66 67  2  0  0  0  0
 66 68  1  0  0  0  0
M  END
>  <MODEL>
3

>  <REMARK>
 VINA RESULT:      -5.7      1.582      2.114
  Name = 
  18 active torsions:
  status: ('A' for Active; 'I' for Inactive)
    1  A    between atoms: C_6  and  C_29
    2  A    between atoms: C_7  and  C_40
    3  A    between atoms: C_7  and  O_43
    4  A    between atoms: C_7  and  C_51
    5  A    between atoms: C_9  and  C_40
    6  A    between atoms: C_12  and  C_68
    7  A    between atoms: C_14  and  C_36
    8  A    between atoms: S_17  and  C_47
    9  A    between atoms: C_20  and  N_33
   10  A    between atoms: C_25  and  C_61
   11  A    between atoms: C_29  and  C_53
   12  A    between atoms: C_31  and  N_58
   13  A    between atoms: C_36  and  C_64
   14  A    between atoms: C_46  and  C_48
   15  A    between atoms: C_46  and  O_59
   16  A    between atoms: C_47  and  C_60
   17  A    between atoms: C_51  and  O_59
   18  A    between atoms: C_51  and  C_61
                            x       y       z     vdW  Elec       q    Type
                         _______ _______ _______ _____ _____    ______ ____

>  <TORSDO>
F 18

$$$$
=
 OpenBabel11062419023D

 68 75  0  0  1  0  0  0  0  0999 V2000
  196.0000  175.5810  137.0280 O   0  0  0  0  0  0  0  0  0  0  0  0
  195.3000  172.5270  142.0530 C   0  0  2  0  0  3  0  0  0  0  0  0
  197.2900  171.6620  136.4240 O   0  0  0  0  0  0  0  0  0  0  0  0
  193.8240  172.4810  141.7110 C   0  0  1  0  0  3  0  0  0  0  0  0
  196.3300  173.6510  135.5100 C   0  0  0  0  0  0  0  0  0  0  0  0
  194.7190  169.9830  141.6740 C   0  0  2  0  0  3  0  0  0  0  0  0
  196.1990  171.1910  137.1940 C   0  0  1  0  0  3  0  0  0  0  0  0
  196.6380  170.6510  138.5550 C   0  0  2  0  0  3  0  0  0  0  0  0
  194.2000  171.2930  139.3130 C   0  0  1  0  0  3  0  0  0  0  0  0
  195.0530  172.2020  137.3280 C   0  0  2  0  0  3  0  0  0  0  0  0
  195.7820  169.9940  140.7210 O   0  0  0  0  0  0  0  0  0  0  0  0
  195.6770  170.9890  139.7140 C   0  0  1  0  0  3  0  0  0  0  0  0
  195.4550  173.4450  137.8910 O   0  0  0  0  0  0  0  0  0  0  0  0
  195.9090  174.2850  134.5150 O   0  0  0  0  0  0  0  0  0  0  0  0
  196.1690  174.1830  136.9190 C   0  0  2  0  0  0  0  0  0  0  0  0
  193.4510  172.2920  140.2360 C   0  0  1  0  0  3  0  0  0  0  0  0
  197.2470  175.0450  137.4480 C   0  0  0  0  0  2  0  0  0  0  0  0
  197.9410  171.0460  138.8780 O   0  0  0  0  0  1  0  0  0  0  0  0
  194.4650  171.3140  142.4740 C   0  0  1  0  0  0  0  0  0  0  0  0
  193.9420  171.6400  137.9630 O   0  0  0  0  0  0  0  0  0  0  0  0
  196.8340  172.3460  135.3520 O   0  0  0  0  0  0  0  0  0  0  0  0
  194.7890  174.4030  143.5910 C   0  0  0  0  0  3  0  0  0  0  0  0
  195.0460  175.1630  144.7470 C   0  0  0  0  0  0  0  0  0  0  0  0
  196.1270  174.8840  145.5220 N   0  0  0  0  0  0  0  0  0  0  0  0
  197.0010  173.8820  145.2130 C   0  0  0  0  0  3  0  0  0  0  0  0
  194.1510  176.2110  145.1190 N   0  0  0  0  0  1  0  0  0  0  0  0
  196.7880  173.1040  144.0720 C   0  0  0  0  0  0  0  0  0  0  0  0
  197.6690  172.1190  143.7540 F   0  0  0  0  0  0  0  0  0  0  0  0
  195.6720  173.3710  143.2430 C   0  0  0  0  0  0  0  0  0  0  0  0
  194.9280  168.8660  142.6030 N   0  0  0  0  0  2  0  0  0  0  0  0
  196.0480  168.8030  143.5130 C   0  0  0  0  0  0  0  0  0  0  0  0
  197.1340  169.3980  143.2320 O   0  0  0  0  0  0  0  0  0  0  0  0
  195.9040  168.1660  144.8590 C   0  0  0  0  0  2  0  0  0  0  0  0
  197.3890  169.1280  146.8370 O   0  0  0  0  0  1  0  0  0  0  0  0
  196.0160  169.3850  146.2170 S   0  0  0  0  0  3  0  0  0  0  0  0
  194.9410  168.7470  147.4040 O   0  0  0  0  0  1  0  0  0  0  0  0
  191.9660  171.9880  140.2250 C   0  0  0  0  0  2  0  0  0  0  0  0
  191.1470  173.2340  140.2310 C   0  0  0  0  0  3  0  0  0  0  0  0
  189.9920  173.3110  140.8960 C   0  0  0  0  0  3  0  0  0  0  0  0
  189.2060  174.5850  140.8630 C   0  0  0  0  0  2  0  0  0  0  0  0
  188.3640  174.7270  142.1410 C   0  0  2  0  0  3  0  0  0  0  0  0
  187.1640  173.9920  142.0120 O   0  0  0  0  0  0  0  0  0  0  0  0
  187.5770  172.6970  141.6340 C   0  0  0  0  0  1  0  0  0  0  0  0
  188.0810  176.1870  142.5090 C   0  0  1  0  0  3  0  0  0  0  0  0
  189.3280  176.8730  142.6430 O   0  0  0  0  0  0  0  0  0  0  0  0
  191.4710  176.1330  143.0040 O   0  0  0  0  0  0  0  0  0  0  0  0
  190.3600  176.4620  143.4990 C   0  0  0  0  0  0  0  0  0  0  0  0
  189.9000  177.5900  145.5680 C   0  0  0  0  0  3  0  0  0  0  0  0
  191.2140  176.0830  147.8840 C   0  0  0  0  0  3  0  0  0  0  0  0
  190.4420  175.1610  145.6680 C   0  0  0  0  0  3  0  0  0  0  0  0
  190.1930  176.4410  144.9600 C   0  0  0  0  0  0  0  0  0  0  0  0
  189.5800  177.7640  147.0080 C   0  0  0  0  0  2  0  0  0  0  0  0
  190.6840  177.3070  147.8950 C   0  0  0  0  0  3  0  0  0  0  0  0
  190.8740  175.0120  146.9270 C   0  0  0  0  0  3  0  0  0  0  0  0
  187.1620  176.8910  141.5190 C   0  0  0  0  0  2  0  0  0  0  0  0
  185.6850  178.7680  141.5170 O   0  0  0  0  0  0  0  0  0  0  0  0
  186.2550  177.8550  142.2040 C   0  0  0  0  0  0  0  0  0  0  0  0
  186.1050  177.8310  143.6330 N   0  0  0  0  0  2  0  0  0  0  0  0
  186.0290  179.3140  147.9040 N   0  0  0  0  0  1  0  0  0  0  0  0
  184.3040  178.7140  146.3790 N   0  0  0  0  0  0  0  0  0  0  0  0
  185.4630  178.9460  144.3300 C   0  0  2  0  0  3  0  0  0  0  0  0
  186.2520  179.2840  145.4510 O   0  0  0  0  0  0  0  0  0  0  0  0
  184.1270  178.5160  144.9420 C   0  0  0  0  0  2  0  0  0  0  0  0
  185.5080  179.1190  146.5920 C   0  0  0  0  0  0  0  0  0  0  0  0
  193.7300  171.2340  143.8350 C   0  0  0  0  0  2  0  0  0  0  0  0
  192.2580  171.5740  143.6890 C   0  0  0  0  0  0  0  0  0  0  0  0
  191.8020  172.6610  144.1290 O   0  0  0  0  0  1  0  0  0  0  0  0
  191.3750  170.6390  143.1470 O   0  0  0  0  0  0  0  0  0  0  0  0
  1 17  1  0  0  0  0
  2 19  1  0  0  0  0
  2 29  1  1  0  0  0
  3  7  1  0  0  0  0
  4  2  1  0  0  0  0
  4 19  1  0  0  0  0
  5 15  1  0  0  0  0
  6 19  1  0  0  0  0
  6 30  1  0  0  0  0
  7 10  1  0  0  0  0
  7  8  1  0  0  0  0
  8 18  1  0  0  0  0
  8 12  1  0  0  0  0
  9 12  1  0  0  0  0
  9 16  1  0  0  0  0
 10 13  1  0  0  0  0
 10 20  1  0  0  0  0
 11  6  1  0  0  0  0
 12 11  1  0  0  0  0
 14  5  2  0  0  0  0
 15  1  1  0  0  0  0
 15 17  1  0  0  0  0
 15 13  1  0  0  0  0
 16  4  1  0  0  0  0
 19 65  1  0  0  0  0
 20  9  1  0  0  0  0
 21  5  1  0  0  0  0
 21  3  1  0  0  0  0
 22 23  1  0  0  0  0
 23 26  1  0  0  0  0
 23 24  2  0  0  0  0
 25 24  1  0  0  0  0
 27 25  2  0  0  0  0
 28 27  1  0  0  0  0
 29 22  2  0  0  0  0
 29 27  1  0  0  0  0
 30 31  1  0  0  0  0
 31 33  1  0  0  0  0
 32 31  2  0  0  0  0
 33 35  1  0  0  0  0
 35 34  1  0  0  0  0
 35 36  1  0  0  0  0
 37 38  1  0  0  0  0
 37 16  1  0  0  0  0
 38 39  2  0  0  0  0
 40 39  1  0  0  0  0
 40 41  1  0  0  0  0
 41 44  1  0  0  0  0
 42 41  1  0  0  0  0
 43 42  1  0  0  0  0
 44 45  1  0  0  0  0
 45 47  1  0  0  0  0
 46 47  2  0  0  0  0
 47 51  1  0  0  0  0
 48 52  1  0  0  0  0
 49 53  2  0  0  0  0
 50 54  2  0  0  0  0
 51 48  2  0  0  0  0
 51 50  1  0  0  0  0
 52 53  1  0  0  0  0
 54 49  1  0  0  0  0
 55 57  1  0  0  0  0
 55 44  1  0  0  0  0
 56 57  2  0  0  0  0
 57 58  1  0  0  0  0
 58 61  1  0  0  0  0
 60 64  2  0  0  0  0
 61 63  1  0  0  0  0
 61 62  1  0  0  0  0
 62 64  1  0  0  0  0
 63 60  1  0  0  0  0
 64 59  1  0  0  0  0
 66 65  1  0  0  0  0
 66 67  1  0  0  0  0
 68 66  2  0  0  0  0
M  END
>  <MODEL>
4

>  <REMARK>
 VINA RESULT:      -5.5      3.274      7.011
  Name = 
  18 active torsions:
  status: ('A' for Active; 'I' for Inactive)
    1  A    between atoms: C_6  and  C_29
    2  A    between atoms: C_7  and  C_40
    3  A    between atoms: C_7  and  O_43
    4  A    between atoms: C_7  and  C_51
    5  A    between atoms: C_9  and  C_40
    6  A    between atoms: C_12  and  C_68
    7  A    between atoms: C_14  and  C_36
    8  A    between atoms: S_17  and  C_47
    9  A    between atoms: C_20  and  N_33
   10  A    between atoms: C_25  and  C_61
   11  A    between atoms: C_29  and  C_53
   12  A    between atoms: C_31  and  N_58
   13  A    between atoms: C_36  and  C_64
   14  A    between atoms: C_46  and  C_48
   15  A    between atoms: C_46  and  O_59
   16  A    between atoms: C_47  and  C_60
   17  A    between atoms: C_51  and  O_59
   18  A    between atoms: C_51  and  C_61
                            x       y       z     vdW  Elec       q    Type
                         _______ _______ _______ _____ _____    ______ ____

>  <TORSDO>
F 18

$$$$
=
 OpenBabel11062419023D

 68 75  0  0  1  0  0  0  0  0999 V2000
  184.7810  177.5380  144.8990 O   0  0  0  0  0  0  0  0  0  0  0  0
  190.3600  175.5710  144.6300 C   0  0  2  0  0  3  0  0  0  0  0  0
  186.4470  178.6810  141.2510 O   0  0  0  0  0  0  0  0  0  0  0  0
  189.7680  174.2050  144.3470 C   0  0  1  0  0  3  0  0  0  0  0  0
  184.5010  178.0690  142.4950 C   0  0  0  0  0  0  0  0  0  0  0  0
  191.1410  174.9290  142.1940 C   0  0  2  0  0  3  0  0  0  0  0  0
  187.0870  177.4210  141.1560 C   0  0  1  0  0  3  0  0  0  0  0  0
  188.5980  177.5190  141.3660 C   0  0  2  0  0  3  0  0  0  0  0  0
  188.3930  175.0190  142.1670 C   0  0  1  0  0  3  0  0  0  0  0  0
  186.4590  176.3390  142.0440 C   0  0  2  0  0  3  0  0  0  0  0  0
  190.5620  176.1720  141.7970 O   0  0  0  0  0  0  0  0  0  0  0  0
  189.2050  176.3510  142.1730 C   0  0  1  0  0  3  0  0  0  0  0  0
  186.4240  176.6850  143.4240 O   0  0  0  0  0  0  0  0  0  0  0  0
  183.2580  177.9140  142.5450 O   0  0  0  0  0  0  0  0  0  0  0  0
  185.4020  177.6390  143.6340 C   0  0  2  0  0  0  0  0  0  0  0  0
  188.5270  174.1510  143.4480 C   0  0  1  0  0  3  0  0  0  0  0  0
  185.6700  178.6280  144.6990 C   0  0  0  0  0  2  0  0  0  0  0  0
  188.9680  178.7420  141.9350 O   0  0  0  0  0  1  0  0  0  0  0  0
  191.1200  174.5910  143.7300 C   0  0  1  0  0  0  0  0  0  0  0  0
  187.0250  175.0830  141.8030 O   0  0  0  0  0  0  0  0  0  0  0  0
  185.1070  178.5120  141.3060 O   0  0  0  0  0  0  0  0  0  0  0  0
  192.2960  176.3570  145.9650 C   0  0  0  0  0  3  0  0  0  0  0  0
  192.9340  176.6060  147.1940 C   0  0  0  0  0  0  0  0  0  0  0  0
  192.3310  176.2560  148.3610 N   0  0  0  0  0  0  0  0  0  0  0  0
  191.1090  175.6480  148.3910 C   0  0  0  0  0  3  0  0  0  0  0  0
  194.2060  177.2530  147.2120 N   0  0  0  0  0  1  0  0  0  0  0  0
  190.4400  175.3770  147.1950 C   0  0  0  0  0  0  0  0  0  0  0  0
  189.2320  174.7550  147.2250 F   0  0  0  0  0  0  0  0  0  0  0  0
  191.0430  175.7280  145.9630 C   0  0  0  0  0  0  0  0  0  0  0  0
  192.5130  174.8610  141.6800 N   0  0  0  0  0  2  0  0  0  0  0  0
  193.5450  175.7920  142.0730 C   0  0  0  0  0  0  0  0  0  0  0  0
  193.2360  176.9650  142.4520 O   0  0  0  0  0  0  0  0  0  0  0  0
  194.9710  175.3530  142.1820 C   0  0  0  0  0  2  0  0  0  0  0  0
  197.2350  175.7180  143.5170 O   0  0  0  0  0  1  0  0  0  0  0  0
  195.7340  175.8650  143.7620 S   0  0  0  0  0  3  0  0  0  0  0  0
  195.3930  174.5380  144.8080 O   0  0  0  0  0  1  0  0  0  0  0  0
  188.3380  172.6880  143.1000 C   0  0  0  0  0  2  0  0  0  0  0  0
  188.3160  172.4690  141.6250 C   0  0  0  0  0  3  0  0  0  0  0  0
  189.4220  172.1580  140.9450 C   0  0  0  0  0  3  0  0  0  0  0  0
  189.3430  171.9550  139.4630 C   0  0  0  0  0  2  0  0  0  0  0  0
  190.6820  171.4260  138.9240 C   0  0  2  0  0  3  0  0  0  0  0  0
  191.6880  171.5720  139.9050 O   0  0  0  0  0  0  0  0  0  0  0  0
  192.3250  170.3150  139.9530 C   0  0  0  0  0  1  0  0  0  0  0  0
  191.0960  172.0860  137.6050 C   0  0  1  0  0  3  0  0  0  0  0  0
  189.9200  172.3400  136.8340 O   0  0  0  0  0  0  0  0  0  0  0  0
  190.4090  173.0430  134.7040 O   0  0  0  0  0  0  0  0  0  0  0  0
  189.8480  173.2910  135.8050 C   0  0  0  0  0  0  0  0  0  0  0  0
  188.1000  174.5720  136.8380 C   0  0  0  0  0  3  0  0  0  0  0  0
  187.2280  176.8320  134.9690 C   0  0  0  0  0  3  0  0  0  0  0  0
  189.4720  175.6860  135.0840 C   0  0  0  0  0  3  0  0  0  0  0  0
  189.1060  174.5500  135.9640 C   0  0  0  0  0  0  0  0  0  0  0  0
  187.3040  175.7630  137.2300 C   0  0  0  0  0  2  0  0  0  0  0  0
  186.6170  176.3950  136.0720 C   0  0  0  0  0  3  0  0  0  0  0  0
  188.6630  176.6690  134.6640 C   0  0  0  0  0  3  0  0  0  0  0  0
  191.9200  173.3530  137.7980 C   0  0  0  0  0  2  0  0  0  0  0  0
  193.6960  172.0210  136.9190 O   0  0  0  0  0  0  0  0  0  0  0  0
  193.3240  173.1700  137.3340 C   0  0  0  0  0  0  0  0  0  0  0  0
  194.2790  174.2370  137.4490 N   0  0  0  0  0  2  0  0  0  0  0  0
  197.7670  173.5790  140.2510 N   0  0  0  0  0  1  0  0  0  0  0  0
  197.4000  175.1170  138.4740 N   0  0  0  0  0  0  0  0  0  0  0  0
  195.7080  173.9740  137.2780 C   0  0  2  0  0  3  0  0  0  0  0  0
  196.1670  173.2580  138.4060 O   0  0  0  0  0  0  0  0  0  0  0  0
  196.5160  175.2750  137.3210 C   0  0  0  0  0  2  0  0  0  0  0  0
  197.1390  173.9900  139.0400 C   0  0  0  0  0  0  0  0  0  0  0  0
  192.1500  173.5740  144.2820 C   0  0  0  0  0  2  0  0  0  0  0  0
  192.2390  172.3430  143.3980 C   0  0  0  0  0  0  0  0  0  0  0  0
  191.3670  171.4390  143.4640 O   0  0  0  0  0  1  0  0  0  0  0  0
  193.3450  172.1580  142.5670 O   0  0  0  0  0  0  0  0  0  0  0  0
  2 29  1  1  0  0  0
  3 21  1  0  0  0  0
  4  2  1  0  0  0  0
  5 14  2  0  0  0  0
  5 15  1  0  0  0  0
  6 19  1  0  0  0  0
  7  3  1  0  0  0  0
  7  8  1  0  0  0  0
  7 10  1  0  0  0  0
  8 18  1  0  0  0  0
  8 12  1  0  0  0  0
  9 12  1  0  0  0  0
  9 16  1  0  0  0  0
 10 13  1  0  0  0  0
 11 12  1  0  0  0  0
 11  6  1  0  0  0  0
 13 15  1  0  0  0  0
 15 17  1  0  0  0  0
 15  1  1  0  0  0  0
 16  4  1  0  0  0  0
 17  1  1  0  0  0  0
 19 65  1  0  0  0  0
 19  4  1  0  0  0  0
 19  2  1  0  0  0  0
 20 10  1  0  0  0  0
 20  9  1  0  0  0  0
 21  5  1  0  0  0  0
 22 23  1  0  0  0  0
 23 26  1  0  0  0  0
 23 24  2  0  0  0  0
 24 25  1  0  0  0  0
 27 28  1  0  0  0  0
 27 25  2  0  0  0  0
 29 22  2  0  0  0  0
 29 27  1  0  0  0  0
 30 31  1  0  0  0  0
 30  6  1  0  0  0  0
 31 33  1  0  0  0  0
 31 32  2  0  0  0  0
 33 35  1  0  0  0  0
 34 35  1  0  0  0  0
 35 36  1  0  0  0  0
 37 16  1  0  0  0  0
 38 37  1  0  0  0  0
 39 38  2  0  0  0  0
 40 39  1  0  0  0  0
 41 40  1  0  0  0  0
 41 42  1  0  0  0  0
 42 43  1  0  0  0  0
 44 55  1  0  0  0  0
 44 41  1  0  0  0  0
 45 44  1  0  0  0  0
 46 47  2  0  0  0  0
 47 51  1  0  0  0  0
 47 45  1  0  0  0  0
 48 52  1  0  0  0  0
 49 53  2  0  0  0  0
 50 51  1  0  0  0  0
 51 48  2  0  0  0  0
 53 52  1  0  0  0  0
 54 49  1  0  0  0  0
 54 50  2  0  0  0  0
 56 57  2  0  0  0  0
 57 58  1  0  0  0  0
 57 55  1  0  0  0  0
 60 64  2  0  0  0  0
 61 63  1  0  0  0  0
 61 58  1  0  0  0  0
 61 62  1  0  0  0  0
 62 64  1  0  0  0  0
 63 60  1  0  0  0  0
 64 59  1  0  0  0  0
 66 67  1  0  0  0  0
 66 65  1  0  0  0  0
 68 66  2  0  0  0  0
M  END
>  <MODEL>
5

>  <REMARK>
 VINA RESULT:      -5.5      3.367      8.698
  Name = 
  18 active torsions:
  status: ('A' for Active; 'I' for Inactive)
    1  A    between atoms: C_6  and  C_29
    2  A    between atoms: C_7  and  C_40
    3  A    between atoms: C_7  and  O_43
    4  A    between atoms: C_7  and  C_51
    5  A    between atoms: C_9  and  C_40
    6  A    between atoms: C_12  and  C_68
    7  A    between atoms: C_14  and  C_36
    8  A    between atoms: S_17  and  C_47
    9  A    between atoms: C_20  and  N_33
   10  A    between atoms: C_25  and  C_61
   11  A    between atoms: C_29  and  C_53
   12  A    between atoms: C_31  and  N_58
   13  A    between atoms: C_36  and  C_64
   14  A    between atoms: C_46  and  C_48
   15  A    between atoms: C_46  and  O_59
   16  A    between atoms: C_47  and  C_60
   17  A    between atoms: C_51  and  O_59
   18  A    between atoms: C_51  and  C_61
                            x       y       z     vdW  Elec       q    Type
                         _______ _______ _______ _____ _____    ______ ____

>  <TORSDO>
F 18

$$$$
=
 OpenBabel11062419023D

 68 75  0  0  1  0  0  0  0  0999 V2000
  191.7010  173.6000  135.8240 O   0  0  0  0  0  0  0  0  0  0  0  0
  194.0760  172.0800  141.0310 C   0  0  2  0  0  3  0  0  0  0  0  0
  191.7220  169.4420  136.1420 O   0  0  0  0  0  0  0  0  0  0  0  0
  192.7530  172.4850  141.6480 C   0  0  1  0  0  3  0  0  0  0  0  0
  190.6810  171.4100  135.2720 C   0  0  0  0  0  0  0  0  0  0  0  0
  193.0500  169.8800  142.0620 C   0  0  2  0  0  3  0  0  0  0  0  0
  191.3570  169.5510  137.5060 C   0  0  1  0  0  3  0  0  0  0  0  0
  192.5060  169.1810  138.4460 C   0  0  2  0  0  3  0  0  0  0  0  0
  191.2890  170.7770  140.1490 C   0  0  1  0  0  3  0  0  0  0  0  0
  190.7360  170.9050  137.8750 C   0  0  2  0  0  3  0  0  0  0  0  0
  193.2090  169.3230  140.7560 O   0  0  0  0  0  0  0  0  0  0  0  0
  192.6040  170.0640  139.7080 C   0  0  1  0  0  3  0  0  0  0  0  0
  191.5740  172.0150  137.5770 O   0  0  0  0  0  0  0  0  0  0  0  0
  189.8000  171.9340  134.5520 O   0  0  0  0  0  0  0  0  0  0  0  0
  191.5630  172.2400  136.1820 C   0  0  2  0  0  0  0  0  0  0  0  0
  191.4790  172.1410  140.8670 C   0  0  1  0  0  3  0  0  0  0  0  0
  192.8270  172.7580  135.6160 C   0  0  0  0  0  2  0  0  0  0  0  0
  193.7360  169.1510  137.7800 O   0  0  0  0  0  1  0  0  0  0  0  0
  193.5700  171.3490  142.2780 C   0  0  1  0  0  0  0  0  0  0  0  0
  190.2560  170.9100  139.1880 O   0  0  0  0  0  0  0  0  0  0  0  0
  190.7710  170.0090  135.3670 O   0  0  0  0  0  0  0  0  0  0  0  0
  194.9990  174.3380  141.4720 C   0  0  0  0  0  3  0  0  0  0  0  0
  196.0450  175.1940  141.8620 C   0  0  0  0  0  0  0  0  0  0  0  0
  197.2760  174.6890  142.1390 N   0  0  0  0  0  0  0  0  0  0  0  0
  197.5500  173.3550  142.0410 C   0  0  0  0  0  3  0  0  0  0  0  0
  195.8010  176.5950  141.9930 N   0  0  0  0  0  1  0  0  0  0  0  0
  196.5430  172.4670  141.6540 C   0  0  0  0  0  0  0  0  0  0  0  0
  196.8220  171.1420  141.5380 F   0  0  0  0  0  0  0  0  0  0  0  0
  195.2510  172.9630  141.3560 C   0  0  0  0  0  0  0  0  0  0  0  0
  193.6630  168.9760  143.0400 N   0  0  0  0  0  2  0  0  0  0  0  0
  194.9910  168.4300  142.8780 C   0  0  0  0  0  0  0  0  0  0  0  0
  195.4820  168.2780  141.7160 O   0  0  0  0  0  0  0  0  0  0  0  0
  195.8620  168.1720  144.0670 C   0  0  0  0  0  2  0  0  0  0  0  0
  197.9100  169.2880  145.3340 O   0  0  0  0  0  1  0  0  0  0  0  0
  196.5580  169.7130  144.7610 S   0  0  0  0  0  3  0  0  0  0  0  0
  195.6110  169.9650  146.1800 O   0  0  0  0  0  1  0  0  0  0  0  0
  190.3320  172.3820  141.8270 C   0  0  0  0  0  2  0  0  0  0  0  0
  189.4260  173.4640  141.3460 C   0  0  0  0  0  3  0  0  0  0  0  0
  189.8160  174.7400  141.3050 C   0  0  0  0  0  3  0  0  0  0  0  0
  188.8620  175.7870  140.8190 C   0  0  0  0  0  2  0  0  0  0  0  0
  187.8110  176.0940  141.8970 C   0  0  2  0  0  3  0  0  0  0  0  0
  186.5480  176.2970  141.2960 O   0  0  0  0  0  0  0  0  0  0  0  0
  186.8160  176.3500  139.9120 C   0  0  0  0  0  1  0  0  0  0  0  0
  188.1970  177.2810  142.7840 C   0  0  1  0  0  3  0  0  0  0  0  0
  189.5990  177.5210  142.6400 O   0  0  0  0  0  0  0  0  0  0  0  0
  191.1830  178.6760  143.8350 O   0  0  0  0  0  0  0  0  0  0  0  0
  190.4900  177.6300  143.7180 C   0  0  0  0  0  0  0  0  0  0  0  0
  189.6420  175.6590  144.7950 C   0  0  0  0  0  3  0  0  0  0  0  0
  190.6920  175.5130  147.6650 C   0  0  0  0  0  3  0  0  0  0  0  0
  191.7520  176.6440  145.6770 C   0  0  0  0  0  3  0  0  0  0  0  0
  190.6090  176.5740  144.7340 C   0  0  0  0  0  0  0  0  0  0  0  0
  189.6280  174.4540  145.6640 C   0  0  0  0  0  2  0  0  0  0  0  0
  189.7160  174.7930  147.1090 C   0  0  0  0  0  3  0  0  0  0  0  0
  191.7860  176.1810  146.9330 C   0  0  0  0  0  3  0  0  0  0  0  0
  187.3850  178.5380  142.4960 C   0  0  0  0  0  2  0  0  0  0  0  0
  185.7610  179.9020  143.5960 O   0  0  0  0  0  0  0  0  0  0  0  0
  186.3430  178.7670  143.5370 C   0  0  0  0  0  0  0  0  0  0  0  0
  186.0690  177.7660  144.5320 N   0  0  0  0  0  2  0  0  0  0  0  0
  187.0090  179.2700  148.6910 N   0  0  0  0  0  1  0  0  0  0  0  0
  185.8220  177.3660  147.9000 N   0  0  0  0  0  0  0  0  0  0  0  0
  185.2760  178.0960  145.7160 C   0  0  2  0  0  3  0  0  0  0  0  0
  185.9760  179.0680  146.4640 O   0  0  0  0  0  0  0  0  0  0  0  0
  185.1870  176.9000  146.6690 C   0  0  0  0  0  2  0  0  0  0  0  0
  186.2550  178.5640  147.7090 C   0  0  0  0  0  0  0  0  0  0  0  0
  193.9130  171.8110  143.7160 C   0  0  0  0  0  2  0  0  0  0  0  0
  192.6570  172.1160  144.5120 C   0  0  0  0  0  0  0  0  0  0  0  0
  191.7120  171.2860  144.5650 O   0  0  0  0  0  0  0  0  0  0  0  0
  192.4980  173.3620  145.1190 O   0  0  0  0  0  1  0  0  0  0  0  0
  1 15  1  0  0  0  0
  2 29  1  1  0  0  0
  2  4  1  0  0  0  0
  2 19  1  0  0  0  0
  3  7  1  0  0  0  0
  4 19  1  0  0  0  0
  5 21  1  0  0  0  0
  5 15  1  0  0  0  0
  6 19  1  0  0  0  0
  6 30  1  0  0  0  0
  7 10  1  0  0  0  0
  7  8  1  0  0  0  0
  8 12  1  0  0  0  0
  9 16  1  0  0  0  0
 10 20  1  0  0  0  0
 11  6  1  0  0  0  0
 12  9  1  0  0  0  0
 12 11  1  0  0  0  0
 13 10  1  0  0  0  0
 14  5  2  0  0  0  0
 15 13  1  0  0  0  0
 16  4  1  0  0  0  0
 16 37  1  0  0  0  0
 17  1  1  0  0  0  0
 17 15  1  0  0  0  0
 18  8  1  0  0  0  0
 19 65  1  0  0  0  0
 20  9  1  0  0  0  0
 21  3  1  0  0  0  0
 22 23  1  0  0  0  0
 23 26  1  0  0  0  0
 23 24  2  0  0  0  0
 25 24  1  0  0  0  0
 27 25  2  0  0  0  0
 28 27  1  0  0  0  0
 29 22  2  0  0  0  0
 29 27  1  0  0  0  0
 31 30  1  0  0  0  0
 31 33  1  0  0  0  0
 32 31  2  0  0  0  0
 33 35  1  0  0  0  0
 35 34  1  0  0  0  0
 35 36  1  0  0  0  0
 38 37  1  0  0  0  0
 39 38  2  0  0  0  0
 40 39  1  0  0  0  0
 40 41  1  0  0  0  0
 41 44  1  0  0  0  0
 42 41  1  0  0  0  0
 43 42  1  0  0  0  0
 45 44  1  0  0  0  0
 45 47  1  0  0  0  0
 47 46  2  0  0  0  0
 47 51  1  0  0  0  0
 48 52  1  0  0  0  0
 50 54  2  0  0  0  0
 51 48  2  0  0  0  0
 51 50  1  0  0  0  0
 52 53  1  0  0  0  0
 53 49  2  0  0  0  0
 54 49  1  0  0  0  0
 55 44  1  0  0  0  0
 55 57  1  0  0  0  0
 57 56  2  0  0  0  0
 57 58  1  0  0  0  0
 58 61  1  0  0  0  0
 61 62  1  0  0  0  0
 61 63  1  0  0  0  0
 62 64  1  0  0  0  0
 63 60  1  0  0  0  0
 64 60  2  0  0  0  0
 64 59  1  0  0  0  0
 65 66  1  0  0  0  0
 66 67  2  0  0  0  0
 66 68  1  0  0  0  0
M  END
>  <MODEL>
6

>  <REMARK>
 VINA RESULT:      -5.4      2.587      6.014
  Name = 
  18 active torsions:
  status: ('A' for Active; 'I' for Inactive)
    1  A    between atoms: C_6  and  C_29
    2  A    between atoms: C_7  and  C_40
    3  A    between atoms: C_7  and  O_43
    4  A    between atoms: C_7  and  C_51
    5  A    between atoms: C_9  and  C_40
    6  A    between atoms: C_12  and  C_68
    7  A    between atoms: C_14  and  C_36
    8  A    between atoms: S_17  and  C_47
    9  A    between atoms: C_20  and  N_33
   10  A    between atoms: C_25  and  C_61
   11  A    between atoms: C_29  and  C_53
   12  A    between atoms: C_31  and  N_58
   13  A    between atoms: C_36  and  C_64
   14  A    between atoms: C_46  and  C_48
   15  A    between atoms: C_46  and  O_59
   16  A    between atoms: C_47  and  C_60
   17  A    between atoms: C_51  and  O_59
   18  A    between atoms: C_51  and  C_61
                            x       y       z     vdW  Elec       q    Type
                         _______ _______ _______ _____ _____    ______ ____

>  <TORSDO>
F 18

$$$$
=
 OpenBabel11062419023D

 68 75  0  0  1  0  0  0  0  0999 V2000
  189.0110  178.2810  142.6420 O   0  0  0  0  0  0  0  0  0  0  0  0
  191.8350  173.8810  139.8630 C   0  0  2  0  0  3  0  0  0  0  0  0
  186.5830  176.8350  139.5760 O   0  0  0  0  0  0  0  0  0  0  0  0
  191.4700  173.0180  141.0550 C   0  0  1  0  0  3  0  0  0  0  0  0
  186.7470  177.8470  141.7340 C   0  0  0  0  0  0  0  0  0  0  0  0
  190.2270  172.0060  138.9390 C   0  0  2  0  0  3  0  0  0  0  0  0
  186.9830  175.5130  139.8910 C   0  0  1  0  0  3  0  0  0  0  0  0
  187.9100  174.9190  138.8300 C   0  0  2  0  0  3  0  0  0  0  0  0
  188.8110  173.4380  140.8120 C   0  0  1  0  0  3  0  0  0  0  0  0
  187.5660  175.3620  141.3020 C   0  0  2  0  0  3  0  0  0  0  0  0
  189.4370  173.0840  138.4340 O   0  0  0  0  0  0  0  0  0  0  0  0
  189.0550  174.0520  139.3990 C   0  0  1  0  0  3  0  0  0  0  0  0
  188.6840  176.2070  141.5490 O   0  0  0  0  0  0  0  0  0  0  0  0
  186.1840  178.3700  142.7250 O   0  0  0  0  0  0  0  0  0  0  0  0
  188.2280  177.5320  141.7350 C   0  0  2  0  0  0  0  0  0  0  0  0
  190.0840  173.2290  141.6760 C   0  0  1  0  0  3  0  0  0  0  0  0
  189.1470  178.5880  141.2610 C   0  0  0  0  0  2  0  0  0  0  0  0
  188.4270  175.9010  137.9780 O   0  0  0  0  0  1  0  0  0  0  0  0
  191.5730  172.3850  139.6600 C   0  0  1  0  0  0  0  0  0  0  0  0
  187.8040  174.0220  141.6200 O   0  0  0  0  0  0  0  0  0  0  0  0
  185.9780  177.3970  140.6450 O   0  0  0  0  0  0  0  0  0  0  0  0
  193.7660  174.4250  138.4070 C   0  0  0  0  0  3  0  0  0  0  0  0
  195.1040  174.8150  138.2190 C   0  0  0  0  0  0  0  0  0  0  0  0
  195.9230  174.9910  139.2900 N   0  0  0  0  0  0  0  0  0  0  0  0
  195.4950  174.7890  140.5700 C   0  0  0  0  0  3  0  0  0  0  0  0
  195.5930  175.0540  136.8980 N   0  0  0  0  0  1  0  0  0  0  0  0
  194.1740  174.3960  140.8050 C   0  0  0  0  0  0  0  0  0  0  0  0
  193.7540  174.1760  142.0780 F   0  0  0  0  0  0  0  0  0  0  0  0
  193.2980  174.2020  139.7100 C   0  0  0  0  0  0  0  0  0  0  0  0
  190.4850  171.0580  137.8500 N   0  0  0  0  0  2  0  0  0  0  0  0
  189.9980  171.2580  136.5040 C   0  0  0  0  0  0  0  0  0  0  0  0
  188.9470  171.9430  136.3000 O   0  0  0  0  0  0  0  0  0  0  0  0
  190.7930  170.7920  135.3260 C   0  0  0  0  0  2  0  0  0  0  0  0
  193.2530  171.1550  136.2540 O   0  0  0  0  0  1  0  0  0  0  0  0
  192.3620  171.7120  135.1430 S   0  0  0  0  0  3  0  0  0  0  0  0
  191.9650  173.2830  135.7320 O   0  0  0  0  0  1  0  0  0  0  0  0
  189.8780  172.0650  142.6230 C   0  0  0  0  0  2  0  0  0  0  0  0
  190.5240  172.3060  143.9450 C   0  0  0  0  0  3  0  0  0  0  0  0
  190.6810  173.5380  144.4360 C   0  0  0  0  0  3  0  0  0  0  0  0
  191.3420  173.7240  145.7660 C   0  0  0  0  0  2  0  0  0  0  0  0
  191.2750  175.1970  146.1960 C   0  0  2  0  0  3  0  0  0  0  0  0
  190.4320  175.3330  147.3230 O   0  0  0  0  0  0  0  0  0  0  0  0
  191.3120  175.5530  148.4020 C   0  0  0  0  0  1  0  0  0  0  0  0
  190.8360  176.1290  145.0620 C   0  0  1  0  0  3  0  0  0  0  0  0
  189.6940  176.8700  145.4970 O   0  0  0  0  0  0  0  0  0  0  0  0
  188.1150  175.5350  144.4980 O   0  0  0  0  0  0  0  0  0  0  0  0
  188.3710  176.4260  145.3510 C   0  0  0  0  0  0  0  0  0  0  0  0
  186.0310  176.7620  145.7720 C   0  0  0  0  0  3  0  0  0  0  0  0
  185.6400  179.2280  147.5400 C   0  0  0  0  0  3  0  0  0  0  0  0
  187.6510  177.7120  147.4070 C   0  0  0  0  0  3  0  0  0  0  0  0
  187.2820  176.9460  146.1920 C   0  0  0  0  0  0  0  0  0  0  0  0
  184.7950  177.1050  146.5200 C   0  0  0  0  0  2  0  0  0  0  0  0
  184.7150  178.5520  146.8560 C   0  0  0  0  0  3  0  0  0  0  0  0
  186.9380  178.6870  147.9870 C   0  0  0  0  0  3  0  0  0  0  0  0
  191.9470  177.0530  144.5780 C   0  0  0  0  0  2  0  0  0  0  0  0
  193.5710  177.2660  146.3170 O   0  0  0  0  0  0  0  0  0  0  0  0
  193.2540  176.7150  145.2100 C   0  0  0  0  0  0  0  0  0  0  0  0
  194.1960  175.8640  144.5340 N   0  0  0  0  0  2  0  0  0  0  0  0
  197.9410  173.8090  143.0530 N   0  0  0  0  0  1  0  0  0  0  0  0
  196.7830  173.7390  145.1300 N   0  0  0  0  0  0  0  0  0  0  0  0
  195.5790  175.7720  145.0020 C   0  0  2  0  0  3  0  0  0  0  0  0
  196.4130  175.5530  143.8840 O   0  0  0  0  0  0  0  0  0  0  0  0
  195.7870  174.5200  145.8600 C   0  0  0  0  0  2  0  0  0  0  0  0
  197.0680  174.3570  144.0370 C   0  0  0  0  0  0  0  0  0  0  0  0
  192.6920  171.3180  139.7530 C   0  0  0  0  0  2  0  0  0  0  0  0
  192.1470  169.9860  140.2360 C   0  0  0  0  0  0  0  0  0  0  0  0
  192.0510  169.0080  139.4510 O   0  0  0  0  0  0  0  0  0  0  0  0
  191.6560  169.8620  141.5360 O   0  0  0  0  0  1  0  0  0  0  0  0
  2 29  1  1  0  0  0
  2  4  1  0  0  0  0
  3  7  1  0  0  0  0
  3 21  1  0  0  0  0
  4 16  1  0  0  0  0
  5 15  1  0  0  0  0
  5 14  2  0  0  0  0
  6 19  1  0  0  0  0
  7 10  1  0  0  0  0
  8 12  1  0  0  0  0
  8  7  1  0  0  0  0
  9 20  1  0  0  0  0
  9 16  1  0  0  0  0
 10 13  1  0  0  0  0
 10 20  1  0  0  0  0
 11  6  1  0  0  0  0
 11 12  1  0  0  0  0
 12  9  1  0  0  0  0
 13 15  1  0  0  0  0
 15  1  1  0  0  0  0
 16 37  1  0  0  0  0
 17 15  1  0  0  0  0
 17  1  1  0  0  0  0
 18  8  1  0  0  0  0
 19 65  1  0  0  0  0
 19  2  1  0  0  0  0
 19  4  1  0  0  0  0
 21  5  1  0  0  0  0
 22 29  1  0  0  0  0
 23 22  2  0  0  0  0
 23 24  1  0  0  0  0
 24 25  2  0  0  0  0
 25 27  1  0  0  0  0
 26 23  1  0  0  0  0
 27 28  1  0  0  0  0
 29 27  2  0  0  0  0
 30  6  1  0  0  0  0
 31 30  1  0  0  0  0
 32 31  2  0  0  0  0
 33 31  1  0  0  0  0
 35 33  1  0  0  0  0
 35 36  1  0  0  0  0
 35 34  1  0  0  0  0
 37 38  1  0  0  0  0
 38 39  2  0  0  0  0
 39 40  1  0  0  0  0
 40 41  1  0  0  0  0
 41 42  1  0  0  0  0
 42 43  1  0  0  0  0
 44 45  1  0  0  0  0
 44 41  1  0  0  0  0
 46 47  2  0  0  0  0
 47 45  1  0  0  0  0
 47 51  1  0  0  0  0
 48 51  2  0  0  0  0
 48 52  1  0  0  0  0
 49 54  1  0  0  0  0
 50 54  2  0  0  0  0
 51 50  1  0  0  0  0
 52 53  1  0  0  0  0
 53 49  2  0  0  0  0
 55 44  1  0  0  0  0
 55 57  1  0  0  0  0
 57 56  2  0  0  0  0
 58 61  1  0  0  0  0
 58 57  1  0  0  0  0
 59 64  1  0  0  0  0
 60 63  1  0  0  0  0
 61 63  1  0  0  0  0
 62 64  1  0  0  0  0
 62 61  1  0  0  0  0
 64 60  2  0  0  0  0
 65 66  1  0  0  0  0
 66 68  1  0  0  0  0
 67 66  2  0  0  0  0
M  END
>  <MODEL>
7

>  <REMARK>
 VINA RESULT:      -5.1      2.404      5.472
  Name = 
  18 active torsions:
  status: ('A' for Active; 'I' for Inactive)
    1  A    between atoms: C_6  and  C_29
    2  A    between atoms: C_7  and  C_40
    3  A    between atoms: C_7  and  O_43
    4  A    between atoms: C_7  and  C_51
    5  A    between atoms: C_9  and  C_40
    6  A    between atoms: C_12  and  C_68
    7  A    between atoms: C_14  and  C_36
    8  A    between atoms: S_17  and  C_47
    9  A    between atoms: C_20  and  N_33
   10  A    between atoms: C_25  and  C_61
   11  A    between atoms: C_29  and  C_53
   12  A    between atoms: C_31  and  N_58
   13  A    between atoms: C_36  and  C_64
   14  A    between atoms: C_46  and  C_48
   15  A    between atoms: C_46  and  O_59
   16  A    between atoms: C_47  and  C_60
   17  A    between atoms: C_51  and  O_59
   18  A    between atoms: C_51  and  C_61
                            x       y       z     vdW  Elec       q    Type
                         _______ _______ _______ _____ _____    ______ ____

>  <TORSDO>
F 18

$$$$
=
 OpenBabel11062419023D

 68 75  0  0  1  0  0  0  0  0999 V2000
  195.5030  173.4130  145.0690 O   0  0  0  0  0  0  0  0  0  0  0  0
  195.3230  171.9680  139.3290 C   0  0  2  0  0  3  0  0  0  0  0  0
  196.4400  176.7790  142.7930 O   0  0  0  0  0  0  0  0  0  0  0  0
  193.8130  172.0230  139.4570 C   0  0  1  0  0  3  0  0  0  0  0  0
  195.4910  175.8750  144.7910 C   0  0  0  0  0  0  0  0  0  0  0  0
  194.5310  173.9380  137.7640 C   0  0  2  0  0  3  0  0  0  0  0  0
  195.4400  176.4170  141.8580 C   0  0  1  0  0  3  0  0  0  0  0  0
  196.0300  175.9150  140.5400 C   0  0  2  0  0  3  0  0  0  0  0  0
  193.7700  174.5820  140.3270 C   0  0  1  0  0  3  0  0  0  0  0  0
  194.3920  175.4460  142.4160 C   0  0  2  0  0  3  0  0  0  0  0  0
  195.4470  174.7480  138.5020 O   0  0  0  0  0  0  0  0  0  0  0  0
  195.2660  174.7310  139.9100 C   0  0  1  0  0  3  0  0  0  0  0  0
  194.9480  174.2370  142.9200 O   0  0  0  0  0  0  0  0  0  0  0  0
  194.9750  176.0590  145.9180 O   0  0  0  0  0  0  0  0  0  0  0  0
  195.5650  174.4980  144.1660 C   0  0  2  0  0  0  0  0  0  0  0  0
  193.2250  173.1280  140.3430 C   0  0  1  0  0  3  0  0  0  0  0  0
  196.7600  173.6800  144.4610 C   0  0  0  0  0  2  0  0  0  0  0  0
  197.3880  175.6020  140.6620 O   0  0  0  0  0  1  0  0  0  0  0  0
  194.4790  172.4080  138.1290 C   0  0  1  0  0  0  0  0  0  0  0  0
  193.3470  175.2380  141.5100 O   0  0  0  0  0  0  0  0  0  0  0  0
  195.8810  176.9760  144.0080 O   0  0  0  0  0  0  0  0  0  0  0  0
  196.5040  170.3580  137.8590 C   0  0  0  0  0  3  0  0  0  0  0  0
  197.1460  169.1270  137.6340 C   0  0  0  0  0  0  0  0  0  0  0  0
  197.2060  168.1960  138.6230 N   0  0  0  0  0  0  0  0  0  0  0  0
  196.6460  168.4050  139.8500 C   0  0  0  0  0  3  0  0  0  0  0  0
  197.7600  168.8700  136.3710 N   0  0  0  0  0  1  0  0  0  0  0  0
  195.9940  169.6120  140.1170 C   0  0  0  0  0  0  0  0  0  0  0  0
  195.4200  169.8110  141.3330 F   0  0  0  0  0  0  0  0  0  0  0  0
  195.9120  170.6000  139.1070 C   0  0  0  0  0  0  0  0  0  0  0  0
  194.7960  174.1090  136.3320 N   0  0  0  0  0  2  0  0  0  0  0  0
  194.6360  175.3730  135.6500 C   0  0  0  0  0  0  0  0  0  0  0  0
  193.8120  176.2350  136.0880 O   0  0  0  0  0  0  0  0  0  0  0  0
  195.5330  175.7470  134.5130 C   0  0  0  0  0  2  0  0  0  0  0  0
  197.0720  176.3960  136.5760 O   0  0  0  0  0  1  0  0  0  0  0  0
  197.0110  176.6650  135.0720 S   0  0  0  0  0  3  0  0  0  0  0  0
  196.4990  178.3090  135.0050 O   0  0  0  0  0  1  0  0  0  0  0  0
  191.7370  173.1340  140.0550 C   0  0  0  0  0  2  0  0  0  0  0  0
  190.9400  172.7400  141.2530 C   0  0  0  0  0  3  0  0  0  0  0  0
  190.8970  173.5030  142.3480 C   0  0  0  0  0  3  0  0  0  0  0  0
  190.0860  173.0560  143.5250 C   0  0  0  0  0  2  0  0  0  0  0  0
  188.7570  173.8270  143.5820 C   0  0  2  0  0  3  0  0  0  0  0  0
  188.1280  173.7980  142.3170 O   0  0  0  0  0  0  0  0  0  0  0  0
  187.4350  172.5700  142.2900 C   0  0  0  0  0  1  0  0  0  0  0  0
  188.9230  175.2640  144.0860 C   0  0  1  0  0  3  0  0  0  0  0  0
  189.4340  175.2230  145.4190 O   0  0  0  0  0  0  0  0  0  0  0  0
  190.0000  176.4330  147.2870 O   0  0  0  0  0  0  0  0  0  0  0  0
  189.1410  176.1830  146.4000 C   0  0  0  0  0  0  0  0  0  0  0  0
  187.7260  177.9040  147.2960 C   0  0  0  0  0  3  0  0  0  0  0  0
  184.7920  177.2040  146.7850 C   0  0  0  0  0  3  0  0  0  0  0  0
  186.8150  176.4960  145.4560 C   0  0  0  0  0  3  0  0  0  0  0  0
  187.8740  176.9300  146.3990 C   0  0  0  0  0  0  0  0  0  0  0  0
  186.5810  178.8450  147.3890 C   0  0  0  0  0  2  0  0  0  0  0  0
  185.2840  178.1460  147.5920 C   0  0  0  0  0  3  0  0  0  0  0  0
  185.4910  176.6220  145.6230 C   0  0  0  0  0  3  0  0  0  0  0  0
  189.7980  176.1220  143.1800 C   0  0  0  0  0  2  0  0  0  0  0  0
  189.3180  178.4590  143.0800 O   0  0  0  0  0  0  0  0  0  0  0  0
  189.0470  177.2910  142.6420 C   0  0  0  0  0  0  0  0  0  0  0  0
  187.9590  177.1030  141.7220 N   0  0  0  0  0  2  0  0  0  0  0  0
  185.2820  179.7820  144.1930 N   0  0  0  0  0  1  0  0  0  0  0  0
  184.8590  178.3600  142.3330 N   0  0  0  0  0  0  0  0  0  0  0  0
  187.0390  178.2020  141.4270 C   0  0  2  0  0  3  0  0  0  0  0  0
  186.9720  179.0420  142.5600 O   0  0  0  0  0  0  0  0  0  0  0  0
  185.6030  177.6900  141.2690 C   0  0  0  0  0  2  0  0  0  0  0  0
  185.6800  179.0740  143.0220 C   0  0  0  0  0  0  0  0  0  0  0  0
  193.9390  171.4110  137.0730 C   0  0  0  0  0  2  0  0  0  0  0  0
  192.5080  171.7360  136.6870 C   0  0  0  0  0  0  0  0  0  0  0  0
  192.2590  172.4350  135.6700 O   0  0  0  0  0  0  0  0  0  0  0  0
  191.4540  171.3410  137.5120 O   0  0  0  0  0  1  0  0  0  0  0  0
  2 29  1  6  0  0  0
  2  4  1  0  0  0  0
  3 21  1  0  0  0  0
  4 16  1  0  0  0  0
  5 14  2  0  0  0  0
  6 19  1  0  0  0  0
  6 11  1  0  0  0  0
  7 10  1  0  0  0  0
  7  3  1  0  0  0  0
  8 18  1  0  0  0  0
  8  7  1  0  0  0  0
  9 16  1  0  0  0  0
  9 20  1  0  0  0  0
 10 13  1  0  0  0  0
 11 12  1  0  0  0  0
 12  9  1  0  0  0  0
 12  8  1  0  0  0  0
 13 15  1  0  0  0  0
 15 17  1  0  0  0  0
 15  5  1  0  0  0  0
 15  1  1  0  0  0  0
 17  1  1  0  0  0  0
 19  2  1  0  0  0  0
 19  4  1  0  0  0  0
 20 10  1  0  0  0  0
 21  5  1  0  0  0  0
 22 29  1  0  0  0  0
 23 22  2  0  0  0  0
 23 24  1  0  0  0  0
 24 25  2  0  0  0  0
 25 27  1  0  0  0  0
 26 23  1  0  0  0  0
 27 28  1  0  0  0  0
 29 27  2  0  0  0  0
 30  6  1  0  0  0  0
 31 32  2  0  0  0  0
 31 30  1  0  0  0  0
 33 35  1  0  0  0  0
 33 31  1  0  0  0  0
 35 34  1  0  0  0  0
 36 35  1  0  0  0  0
 37 16  1  0  0  0  0
 37 38  1  0  0  0  0
 38 39  2  0  0  0  0
 39 40  1  0  0  0  0
 40 41  1  0  0  0  0
 41 44  1  0  0  0  0
 42 41  1  0  0  0  0
 43 42  1  0  0  0  0
 44 45  1  0  0  0  0
 45 47  1  0  0  0  0
 47 46  2  0  0  0  0
 48 52  1  0  0  0  0
 49 53  2  0  0  0  0
 50 54  2  0  0  0  0
 50 51  1  0  0  0  0
 51 47  1  0  0  0  0
 51 48  2  0  0  0  0
 52 53  1  0  0  0  0
 54 49  1  0  0  0  0
 55 44  1  0  0  0  0
 57 56  2  0  0  0  0
 57 55  1  0  0  0  0
 58 57  1  0  0  0  0
 60 64  2  0  0  0  0
 61 58  1  0  0  0  0
 61 62  1  0  0  0  0
 62 64  1  0  0  0  0
 63 61  1  0  0  0  0
 63 60  1  0  0  0  0
 64 59  1  0  0  0  0
 65 19  1  0  0  0  0
 66 65  1  0  0  0  0
 66 68  1  0  0  0  0
 67 66  2  0  0  0  0
M  END
>  <MODEL>
8

>  <REMARK>
 VINA RESULT:      -5.0      3.333      6.781
  Name = 
  18 active torsions:
  status: ('A' for Active; 'I' for Inactive)
    1  A    between atoms: C_6  and  C_29
    2  A    between atoms: C_7  and  C_40
    3  A    between atoms: C_7  and  O_43
    4  A    between atoms: C_7  and  C_51
    5  A    between atoms: C_9  and  C_40
    6  A    between atoms: C_12  and  C_68
    7  A    between atoms: C_14  and  C_36
    8  A    between atoms: S_17  and  C_47
    9  A    between atoms: C_20  and  N_33
   10  A    between atoms: C_25  and  C_61
   11  A    between atoms: C_29  and  C_53
   12  A    between atoms: C_31  and  N_58
   13  A    between atoms: C_36  and  C_64
   14  A    between atoms: C_46  and  C_48
   15  A    between atoms: C_46  and  O_59
   16  A    between atoms: C_47  and  C_60
   17  A    between atoms: C_51  and  O_59
   18  A    between atoms: C_51  and  C_61
                            x       y       z     vdW  Elec       q    Type
                         _______ _______ _______ _____ _____    ______ ____

>  <TORSDO>
F 18

$$$$
=
 OpenBabel11062419023D

 68 75  0  0  1  0  0  0  0  0999 V2000
  184.8650  177.6030  144.8740 O   0  0  0  0  0  0  0  0  0  0  0  0
  190.4010  175.5090  144.7080 C   0  0  2  0  0  3  0  0  0  0  0  0
  186.5610  178.5470  141.1830 O   0  0  0  0  0  0  0  0  0  0  0  0
  189.7800  174.1440  144.4850 C   0  0  1  0  0  3  0  0  0  0  0  0
  184.6000  178.0320  142.4480 C   0  0  0  0  0  0  0  0  0  0  0  0
  191.1730  174.7420  142.3050 C   0  0  2  0  0  3  0  0  0  0  0  0
  187.1740  177.2710  141.1460 C   0  0  1  0  0  3  0  0  0  0  0  0
  188.6870  177.3460  141.3560 C   0  0  2  0  0  3  0  0  0  0  0  0
  188.4270  174.8890  142.2660 C   0  0  1  0  0  3  0  0  0  0  0  0
  186.5220  176.2430  142.0800 C   0  0  2  0  0  3  0  0  0  0  0  0
  190.6210  175.9780  141.8510 O   0  0  0  0  0  0  0  0  0  0  0  0
  189.2670  176.2020  142.2160 C   0  0  1  0  0  3  0  0  0  0  0  0
  186.4920  176.6510  143.4420 O   0  0  0  0  0  0  0  0  0  0  0  0
  183.3540  177.9060  142.5010 O   0  0  0  0  0  0  0  0  0  0  0  0
  185.4900  177.6340  143.6070 C   0  0  2  0  0  0  0  0  0  0  0  0
  188.5400  174.0760  143.5850 C   0  0  1  0  0  3  0  0  0  0  0  0
  185.7780  178.6640  144.6280 C   0  0  0  0  0  2  0  0  0  0  0  0
  189.0810  178.5850  141.8710 O   0  0  0  0  0  1  0  0  0  0  0  0
  191.1410  174.4730  143.8550 C   0  0  1  0  0  0  0  0  0  0  0  0
  187.0610  174.9660  141.8960 O   0  0  0  0  0  0  0  0  0  0  0  0
  185.2180  178.4090  141.2420 O   0  0  0  0  0  0  0  0  0  0  0  0
  192.2720  176.4560  146.0310 C   0  0  0  0  0  3  0  0  0  0  0  0
  192.9000  176.7470  147.2550 C   0  0  0  0  0  0  0  0  0  0  0  0
  192.3510  176.3230  148.4240 N   0  0  0  0  0  0  0  0  0  0  0  0
  191.1930  175.6000  148.4600 C   0  0  0  0  0  3  0  0  0  0  0  0
  194.1050  177.5140  147.2680 N   0  0  0  0  0  1  0  0  0  0  0  0
  190.5360  175.2840  147.2680 C   0  0  0  0  0  0  0  0  0  0  0  0
  189.3940  174.5480  147.3030 F   0  0  0  0  0  0  0  0  0  0  0  0
  191.0850  175.7100  146.0340 C   0  0  0  0  0  0  0  0  0  0  0  0
  192.5440  174.6220  141.7980 N   0  0  0  0  0  2  0  0  0  0  0  0
  192.8450  174.3220  140.4170 C   0  0  0  0  0  0  0  0  0  0  0  0
  192.0170  173.6680  139.7100 O   0  0  0  0  0  0  0  0  0  0  0  0
  194.0600  174.8950  139.7580 C   0  0  0  0  0  2  0  0  0  0  0  0
  196.2060  173.8430  140.9120 O   0  0  0  0  0  1  0  0  0  0  0  0
  195.4120  173.6720  139.6170 S   0  0  0  0  0  3  0  0  0  0  0  0
  196.4560  174.3780  138.4410 O   0  0  0  0  0  1  0  0  0  0  0  0
  188.3200  172.6040  143.3020 C   0  0  0  0  0  2  0  0  0  0  0  0
  189.5990  171.9040  142.9890 C   0  0  0  0  0  3  0  0  0  0  0  0
  189.8540  171.4180  141.7710 C   0  0  0  0  0  3  0  0  0  0  0  0
  191.1530  170.7180  141.5140 C   0  0  0  0  0  2  0  0  0  0  0  0
  190.9840  169.6720  140.4010 C   0  0  2  0  0  3  0  0  0  0  0  0
  190.6060  168.4300  140.9600 O   0  0  0  0  0  0  0  0  0  0  0  0
  191.4750  168.2530  142.0570 C   0  0  0  0  0  1  0  0  0  0  0  0
  192.2330  169.5270  139.5250 C   0  0  1  0  0  3  0  0  0  0  0  0
  191.8610  169.7410  138.1620 O   0  0  0  0  0  0  0  0  0  0  0  0
  189.6960  169.3730  137.4930 O   0  0  0  0  0  0  0  0  0  0  0  0
  190.6010  170.2080  137.7580 C   0  0  0  0  0  0  0  0  0  0  0  0
  189.2270  172.0950  138.3230 C   0  0  0  0  0  3  0  0  0  0  0  0
  189.4640  174.2360  136.1510 C   0  0  0  0  0  3  0  0  0  0  0  0
  191.1560  172.4820  136.7960 C   0  0  0  0  0  3  0  0  0  0  0  0
  190.2990  171.6450  137.6710 C   0  0  0  0  0  0  0  0  0  0  0  0
  188.8140  173.5150  138.4570 C   0  0  0  0  0  2  0  0  0  0  0  0
  188.5720  174.1640  137.1410 C   0  0  0  0  0  3  0  0  0  0  0  0
  190.7940  173.5990  136.1510 C   0  0  0  0  0  3  0  0  0  0  0  0
  193.3710  170.4500  139.9430 C   0  0  0  0  0  2  0  0  0  0  0  0
  195.0550  168.7600  140.0740 O   0  0  0  0  0  0  0  0  0  0  0  0
  194.4390  169.7060  140.6700 C   0  0  0  0  0  0  0  0  0  0  0  0
  194.7030  169.9730  142.0580 N   0  0  0  0  0  2  0  0  0  0  0  0
  194.8200  168.7030  146.3960 N   0  0  0  0  0  1  0  0  0  0  0  0
  196.4670  169.6170  144.9430 N   0  0  0  0  0  0  0  0  0  0  0  0
  195.5280  169.0570  142.8450 C   0  0  2  0  0  3  0  0  0  0  0  0
  194.7600  168.5930  143.9360 O   0  0  0  0  0  0  0  0  0  0  0  0
  196.6920  169.7970  143.5100 C   0  0  0  0  0  2  0  0  0  0  0  0
  195.3710  168.9620  145.1070 C   0  0  0  0  0  0  0  0  0  0  0  0
  192.1480  173.4600  144.4540 C   0  0  0  0  0  2  0  0  0  0  0  0
  193.5790  173.8330  144.1080 C   0  0  0  0  0  0  0  0  0  0  0  0
  193.9900  175.0130  144.2560 O   0  0  0  0  0  1  0  0  0  0  0  0
  194.4270  172.8880  143.5300 O   0  0  0  0  0  0  0  0  0  0  0  0
  2 29  1  1  0  0  0
  3 21  1  0  0  0  0
  4  2  1  0  0  0  0
  5 14  2  0  0  0  0
  5 15  1  0  0  0  0
  6 19  1  0  0  0  0
  7  3  1  0  0  0  0
  7  8  1  0  0  0  0
  7 10  1  0  0  0  0
  8 18  1  0  0  0  0
  8 12  1  0  0  0  0
  9 16  1  0  0  0  0
 10 13  1  0  0  0  0
 11 12  1  0  0  0  0
 11  6  1  0  0  0  0
 12  9  1  0  0  0  0
 13 15  1  0  0  0  0
 15 17  1  0  0  0  0
 15  1  1  0  0  0  0
 16  4  1  0  0  0  0
 17  1  1  0  0  0  0
 19 65  1  0  0  0  0
 19  4  1  0  0  0  0
 19  2  1  0  0  0  0
 20 10  1  0  0  0  0
 20  9  1  0  0  0  0
 21  5  1  0  0  0  0
 22 29  2  0  0  0  0
 22 23  1  0  0  0  0
 23 26  1  0  0  0  0
 23 24  2  0  0  0  0
 24 25  1  0  0  0  0
 27 28  1  0  0  0  0
 27 25  2  0  0  0  0
 29 27  1  0  0  0  0
 30  6  1  0  0  0  0
 31 30  1  0  0  0  0
 32 31  2  0  0  0  0
 33 31  1  0  0  0  0
 35 33  1  0  0  0  0
 35 34  1  0  0  0  0
 36 35  1  0  0  0  0
 37 16  1  0  0  0  0
 38 37  1  0  0  0  0
 39 38  2  0  0  0  0
 40 39  1  0  0  0  0
 41 42  1  0  0  0  0
 41 40  1  0  0  0  0
 42 43  1  0  0  0  0
 44 55  1  0  0  0  0
 44 41  1  0  0  0  0
 45 44  1  0  0  0  0
 46 47  2  0  0  0  0
 47 45  1  0  0  0  0
 48 52  1  0  0  0  0
 49 54  1  0  0  0  0
 49 53  2  0  0  0  0
 50 51  1  0  0  0  0
 51 47  1  0  0  0  0
 51 48  2  0  0  0  0
 53 52  1  0  0  0  0
 54 50  2  0  0  0  0
 55 57  1  0  0  0  0
 56 57  2  0  0  0  0
 57 58  1  0  0  0  0
 58 61  1  0  0  0  0
 60 64  2  0  0  0  0
 61 63  1  0  0  0  0
 61 62  1  0  0  0  0
 62 64  1  0  0  0  0
 63 60  1  0  0  0  0
 64 59  1  0  0  0  0
 66 67  1  0  0  0  0
 66 65  1  0  0  0  0
 68 66  2  0  0  0  0
M  END
>  <MODEL>
9

>  <REMARK>
 VINA RESULT:      -4.9      3.133      7.975
  Name = 
  18 active torsions:
  status: ('A' for Active; 'I' for Inactive)
    1  A    between atoms: C_6  and  C_29
    2  A    between atoms: C_7  and  C_40
    3  A    between atoms: C_7  and  O_43
    4  A    between atoms: C_7  and  C_51
    5  A    between atoms: C_9  and  C_40
    6  A    between atoms: C_12  and  C_68
    7  A    between atoms: C_14  and  C_36
    8  A    between atoms: S_17  and  C_47
    9  A    between atoms: C_20  and  N_33
   10  A    between atoms: C_25  and  C_61
   11  A    between atoms: C_29  and  C_53
   12  A    between atoms: C_31  and  N_58
   13  A    between atoms: C_36  and  C_64
   14  A    between atoms: C_46  and  C_48
   15  A    between atoms: C_46  and  O_59
   16  A    between atoms: C_47  and  C_60
   17  A    between atoms: C_51  and  O_59
   18  A    between atoms: C_51  and  C_61
                            x       y       z     vdW  Elec       q    Type
                         _______ _______ _______ _____ _____    ______ ____

>  <TORSDO>
F 18

$$$$
