=
 OpenBabel11062418283D

 48 53  0  0  1  0  0  0  0  0999 V2000
  193.1360  174.6810  146.2240 C   0  0  2  0  0  3  0  0  0  0  0  0
  190.7300  174.6160  146.3890 O   0  0  0  0  0  0  0  0  0  0  0  0
  190.7570  178.1320  144.0360 O   0  0  0  0  0  0  0  0  0  0  0  0
  191.7540  176.4260  145.2750 N   0  0  0  0  0  0  0  0  0  0  0  0
  191.7690  175.1920  145.9720 C   0  0  0  0  0  0  0  0  0  0  0  0
  190.6050  177.0830  144.7200 C   0  0  0  0  0  0  0  0  0  0  0  0
  193.1160  176.8820  145.0720 C   0  0  0  0  0  3  0  0  0  0  0  0
  194.0130  175.8700  145.7980 C   0  0  0  0  0  3  0  0  0  0  0  0
  188.1570  177.9710  146.6590 C   0  0  0  0  0  2  0  0  0  0  0  0
  187.2130  175.8880  143.7420 C   0  0  2  0  0  3  0  0  0  0  0  0
  186.8620  176.9670  144.7630 C   0  0  1  0  0  3  0  0  0  0  0  0
  185.7440  176.5210  148.1740 C   0  0  0  0  0  1  0  0  0  0  0  0
  189.2300  176.5180  144.9160 C   0  0  2  0  0  3  0  0  0  0  0  0
  186.2130  176.3530  145.8610 O   0  0  0  0  0  0  0  0  0  0  0  0
  186.8100  178.4380  146.9600 N   0  0  0  0  0  0  0  0  0  0  0  0
  185.8490  177.3010  146.8640 C   0  0  0  0  0  0  0  0  0  0  0  0
  184.4670  177.8490  146.5440 C   0  0  0  0  0  1  0  0  0  0  0  0
  188.7350  175.8290  143.6630 C   0  0  0  0  0  2  0  0  0  0  0  0
  188.1940  177.5830  145.1900 C   0  0  2  0  0  3  0  0  0  0  0  0
  186.8280  179.0820  148.2700 C   0  0  0  0  0  1  0  0  0  0  0  0
  185.9690  178.3170  141.2690 C   0  0  0  0  0  2  0  0  0  0  0  0
  187.0410  177.6150  142.1360 C   0  0  2  0  0  3  0  0  0  0  0  0
  187.7940  176.4810  141.5470 C   0  0  1  0  0  3  0  0  0  0  0  0
  186.4950  176.5350  137.6570 Cl  0  0  0  0  0  0  0  0  0  0  0  0
  186.6470  176.2300  142.4440 N   0  0  1  0  0  0  0  0  0  0  0  0
  186.8760  177.1480  139.2820 C   0  0  2  0  0  3  0  0  0  0  0  0
  187.4260  176.0220  140.1320 C   0  0  0  0  0  2  0  0  0  0  0  0
  185.6130  177.6330  139.9500 C   0  0  0  0  0  2  0  0  0  0  0  0
  193.4430  173.4150  145.3910 C   0  0  0  0  0  0  0  0  0  0  0  0
  193.7900  172.3780  146.2430 F   0  0  0  0  0  0  0  0  0  0  0  0
  192.3240  173.0240  144.6700 F   0  0  0  0  0  0  0  0  0  0  0  0
  195.8430  173.4130  145.1130 O   0  0  0  0  0  1  0  0  0  0  0  0
  194.6340  173.6410  144.4450 C   0  0  1  0  0  3  0  0  0  0  0  0
  194.5740  172.8430  143.1350 C   0  0  2  0  0  3  0  0  0  0  0  0
  195.8450  172.0390  142.8580 C   0  0  0  0  0  1  0  0  0  0  0  0
  193.3480  175.9550  141.7550 O   0  0  0  0  0  0  0  0  0  0  0  0
  194.4270  175.1980  142.2500 C   0  0  1  0  0  3  0  0  0  0  0  0
  194.1390  173.7370  141.9670 C   0  0  2  0  0  3  0  0  0  0  0  0
  192.6640  173.6890  141.6850 C   0  0  0  0  0  2  0  0  0  0  0  0
  192.2230  175.1240  141.8670 C   0  0  0  0  0  2  0  0  0  0  0  0
  195.7310  175.6180  141.5700 C   0  0  1  0  0  3  0  0  0  0  0  0
  196.0180  175.1430  137.9490 O   0  0  0  0  0  0  0  0  0  0  0  0
  195.5300  175.7680  140.1340 N   0  0  0  0  0  2  0  0  0  0  0  0
  197.2270  174.0410  139.5970 N   0  0  0  0  0  1  0  0  0  0  0  0
  196.2470  174.9870  139.1770 C   0  0  0  0  0  0  0  0  0  0  0  0
  196.1820  176.8300  142.1010 O   0  0  0  0  0  0  0  0  0  0  0  0
  196.7980  176.4810  143.3040 C   0  0  0  0  0  2  0  0  0  0  0  0
  197.9360  175.5180  143.0330 C   0  0  0  0  0  1  0  0  0  0  0  0
  1 29  1  6  0  0  0
  3  6  2  0  0  0  0
  4  5  1  0  0  0  0
  5  1  1  0  0  0  0
  5  2  2  0  0  0  0
  6  4  1  0  0  0  0
  7  4  1  0  0  0  0
  7  8  2  0  0  0  0
  8  1  1  0  0  0  0
  9 15  1  0  0  0  0
 10 18  1  6  0  0  0
 10 11  1  0  0  0  0
 11 19  1  0  0  0  0
 11 14  1  1  0  0  0
 13  6  1  6  0  0  0
 13 19  1  0  0  0  0
 14 16  1  0  0  0  0
 15 20  1  0  0  0  0
 16 15  1  0  0  0  0
 16 12  1  0  0  0  0
 17 16  1  0  0  0  0
 18 13  1  0  0  0  0
 19  9  1  1  0  0  0
 22 21  1  6  0  0  0
 22 25  1  0  0  0  0
 23 27  1  6  0  0  0
 23 22  1  0  0  0  0
 23 25  1  0  0  0  0
 25 10  1  1  0  0  0
 26 24  1  6  0  0  0
 26 28  1  0  0  0  0
 26 27  1  0  0  0  0
 28 21  1  0  0  0  0
 29 30  1  0  0  0  0
 31 29  1  0  0  0  0
 33 32  1  1  0  0  0
 33 29  1  0  0  0  0
 34 35  1  6  0  0  0
 34 33  1  0  0  0  0
 36 40  1  0  0  0  0
 36 37  1  0  0  0  0
 37 41  1  6  0  0  0
 38 37  1  0  0  0  0
 38 34  1  1  0  0  0
 39 40  1  0  0  0  0
 39 38  1  0  0  0  0
 41 43  1  6  0  0  0
 41 46  1  0  0  0  0
 42 45  2  0  0  0  0
 45 44  1  0  0  0  0
 45 43  1  0  0  0  0
 46 47  1  0  0  0  0
 48 47  1  0  0  0  0
M  END
>  <MODEL>
1

>  <REMARK>
 VINA RESULT:      -7.3      0.000      0.000
  Name = 
  10 active torsions:
  status: ('A' for Active; 'I' for Inactive)
    1  A    between atoms: C_1  and  C_7
    2  A    between atoms: C_4  and  C_27
    3  A    between atoms: C_4  and  C_33
    4  A    between atoms: C_5  and  N_30
    5  A    between atoms: C_7  and  C_33
    6  A    between atoms: C_10  and  C_34
    7  A    between atoms: C_16  and  C_41
    8  A    between atoms: O_20  and  C_22
    9  A    between atoms: O_20  and  C_41
   10  A    between atoms: N_24  and  C_41
                            x       y       z     vdW  Elec       q    Type
                         _______ _______ _______ _____ _____    ______ ____

>  <TORSDO>
F 10

$$$$
=
 OpenBabel11062418283D

 48 53  0  0  1  0  0  0  0  0999 V2000
  195.5950  174.6910  144.0540 C   0  0  2  0  0  3  0  0  0  0  0  0
  193.5000  174.8300  142.8650 O   0  0  0  0  0  0  0  0  0  0  0  0
  191.9360  176.5600  146.3940 O   0  0  0  0  0  0  0  0  0  0  0  0
  193.5820  175.5040  145.1240 N   0  0  0  0  0  0  0  0  0  0  0  0
  194.1570  175.0200  143.9220 C   0  0  0  0  0  0  0  0  0  0  0  0
  192.2760  176.0790  145.2790 C   0  0  0  0  0  0  0  0  0  0  0  0
  194.5730  175.4650  146.1830 C   0  0  0  0  0  3  0  0  0  0  0  0
  195.8190  174.8110  145.5710 C   0  0  0  0  0  3  0  0  0  0  0  0
  190.6590  173.7660  143.6740 C   0  0  0  0  0  2  0  0  0  0  0  0
  189.2910  177.1940  143.3470 C   0  0  2  0  0  3  0  0  0  0  0  0
  189.0740  175.6840  143.3760 C   0  0  1  0  0  3  0  0  0  0  0  0
  189.5910  173.3110  140.6950 C   0  0  0  0  0  1  0  0  0  0  0  0
  191.3250  176.1440  144.1210 C   0  0  2  0  0  3  0  0  0  0  0  0
  189.1280  175.1970  142.0490 O   0  0  0  0  0  0  0  0  0  0  0  0
  189.4710  173.0760  143.1880 N   0  0  0  0  0  0  0  0  0  0  0  0
  188.9320  173.7840  141.9910 C   0  0  0  0  0  0  0  0  0  0  0  0
  187.4430  173.4980  141.8790 C   0  0  0  0  0  1  0  0  0  0  0  0
  190.5990  177.4710  144.0810 C   0  0  0  0  0  2  0  0  0  0  0  0
  190.2210  175.1170  144.2140 C   0  0  2  0  0  3  0  0  0  0  0  0
  189.8190  171.6800  142.9380 C   0  0  0  0  0  1  0  0  0  0  0  0
  186.1000  179.0340  143.3010 C   0  0  0  0  0  2  0  0  0  0  0  0
  187.0180  177.8030  143.1100 C   0  0  2  0  0  3  0  0  0  0  0  0
  187.1440  176.8350  144.2270 C   0  0  1  0  0  3  0  0  0  0  0  0
  184.3550  178.2440  146.8830 Cl  0  0  0  0  0  0  0  0  0  0  0  0
  188.1810  177.8670  144.0100 N   0  0  1  0  0  0  0  0  0  0  0  0
  185.1530  177.9560  145.3210 C   0  0  2  0  0  3  0  0  0  0  0  0
  186.4090  177.1390  145.5370 C   0  0  0  0  0  2  0  0  0  0  0  0
  185.5770  179.2720  144.7170 C   0  0  0  0  0  2  0  0  0  0  0  0
  196.4880  175.6760  143.2640 C   0  0  0  0  0  0  0  0  0  0  0  0
  195.9440  176.9490  143.3390 F   0  0  0  0  0  0  0  0  0  0  0  0
  197.7640  175.7200  143.8070 F   0  0  0  0  0  0  0  0  0  0  0  0
  197.6480  175.9220  141.1590 O   0  0  0  0  0  1  0  0  0  0  0  0
  196.5550  175.3000  141.7740 C   0  0  1  0  0  3  0  0  0  0  0  0
  196.5540  173.7910  141.4930 C   0  0  2  0  0  3  0  0  0  0  0  0
  197.9360  173.2430  141.1360 C   0  0  0  0  0  1  0  0  0  0  0  0
  195.3620  172.1090  138.5200 O   0  0  0  0  0  0  0  0  0  0  0  0
  195.6980  172.0490  139.8860 C   0  0  1  0  0  3  0  0  0  0  0  0
  195.4600  173.4210  140.4840 C   0  0  2  0  0  3  0  0  0  0  0  0
  195.3920  174.3440  139.3000 C   0  0  0  0  0  2  0  0  0  0  0  0
  195.6350  173.4260  138.1230 C   0  0  0  0  0  2  0  0  0  0  0  0
  194.8380  171.0070  140.6030 C   0  0  1  0  0  3  0  0  0  0  0  0
  192.5610  168.9770  138.5760 O   0  0  0  0  0  0  0  0  0  0  0  0
  194.3360  170.0230  139.6540 N   0  0  0  0  0  2  0  0  0  0  0  0
  191.9710  170.5760  140.1530 N   0  0  0  0  0  1  0  0  0  0  0  0
  192.9400  169.8260  139.4240 C   0  0  0  0  0  0  0  0  0  0  0  0
  195.5910  170.3570  141.5860 O   0  0  0  0  0  0  0  0  0  0  0  0
  194.6660  170.0160  142.5730 C   0  0  0  0  0  2  0  0  0  0  0  0
  194.0450  171.2740  143.1470 C   0  0  0  0  0  1  0  0  0  0  0  0
  1 29  1  6  0  0  0
  1  8  1  0  0  0  0
  2  5  2  0  0  0  0
  4  6  1  0  0  0  0
  4  7  1  0  0  0  0
  5  1  1  0  0  0  0
  5  4  1  0  0  0  0
  6  3  2  0  0  0  0
  8  7  2  0  0  0  0
 10 11  1  0  0  0  0
 10 18  1  1  0  0  0
 11 14  1  6  0  0  0
 11 19  1  0  0  0  0
 12 16  1  0  0  0  0
 13 19  1  0  0  0  0
 13  6  1  1  0  0  0
 15  9  1  0  0  0  0
 16 14  1  0  0  0  0
 16 15  1  0  0  0  0
 17 16  1  0  0  0  0
 18 13  1  0  0  0  0
 19  9  1  6  0  0  0
 20 15  1  0  0  0  0
 21 28  1  0  0  0  0
 22 21  1  1  0  0  0
 22 25  1  0  0  0  0
 22 23  1  0  0  0  0
 23 27  1  1  0  0  0
 25 10  1  6  0  0  0
 25 23  1  0  0  0  0
 26 27  1  0  0  0  0
 26 24  1  1  0  0  0
 28 26  1  0  0  0  0
 29 30  1  0  0  0  0
 29 31  1  0  0  0  0
 33 32  1  1  0  0  0
 33 29  1  0  0  0  0
 34 35  1  6  0  0  0
 34 33  1  0  0  0  0
 36 37  1  0  0  0  0
 37 38  1  0  0  0  0
 37 41  1  1  0  0  0
 38 34  1  1  0  0  0
 39 38  1  0  0  0  0
 40 36  1  0  0  0  0
 40 39  1  0  0  0  0
 41 43  1  6  0  0  0
 41 46  1  0  0  0  0
 42 45  2  0  0  0  0
 45 43  1  0  0  0  0
 45 44  1  0  0  0  0
 46 47  1  0  0  0  0
 47 48  1  0  0  0  0
M  END
>  <MODEL>
2

>  <REMARK>
 VINA RESULT:      -7.0      3.255      5.079
  Name = 
  10 active torsions:
  status: ('A' for Active; 'I' for Inactive)
    1  A    between atoms: C_1  and  C_7
    2  A    between atoms: C_4  and  C_27
    3  A    between atoms: C_4  and  C_33
    4  A    between atoms: C_5  and  N_30
    5  A    between atoms: C_7  and  C_33
    6  A    between atoms: C_10  and  C_34
    7  A    between atoms: C_16  and  C_41
    8  A    between atoms: O_20  and  C_22
    9  A    between atoms: O_20  and  C_41
   10  A    between atoms: N_24  and  C_41
                            x       y       z     vdW  Elec       q    Type
                         _______ _______ _______ _____ _____    ______ ____

>  <TORSDO>
F 10

$$$$
=
 OpenBabel11062418283D

 48 53  0  0  1  0  0  0  0  0999 V2000
  193.0570  174.5780  146.2120 C   0  0  2  0  0  3  0  0  0  0  0  0
  190.6500  174.5700  146.3920 O   0  0  0  0  0  0  0  0  0  0  0  0
  190.7440  178.0830  144.0370 O   0  0  0  0  0  0  0  0  0  0  0  0
  191.7090  176.3550  145.2700 N   0  0  0  0  0  0  0  0  0  0  0  0
  191.7000  175.1210  145.9680 C   0  0  0  0  0  0  0  0  0  0  0  0
  190.5720  177.0390  144.7230 C   0  0  0  0  0  0  0  0  0  0  0  0
  193.0800  176.7790  145.0580 C   0  0  0  0  0  3  0  0  0  0  0  0
  193.9580  175.7460  145.7790 C   0  0  0  0  0  3  0  0  0  0  0  0
  188.1470  178.0050  146.6520 C   0  0  0  0  0  2  0  0  0  0  0  0
  187.1540  175.9030  143.7660 C   0  0  2  0  0  3  0  0  0  0  0  0
  186.8270  177.0030  144.7720 C   0  0  1  0  0  3  0  0  0  0  0  0
  185.7050  176.6280  148.1900 C   0  0  0  0  0  1  0  0  0  0  0  0
  189.1850  176.5060  144.9280 C   0  0  2  0  0  3  0  0  0  0  0  0
  186.1680  176.4180  145.8790 O   0  0  0  0  0  0  0  0  0  0  0  0
  186.8110  178.5050  146.9490 N   0  0  0  0  0  0  0  0  0  0  0  0
  185.8250  177.3870  146.8690 C   0  0  0  0  0  0  0  0  0  0  0  0
  184.4550  177.9610  146.5440 C   0  0  0  0  0  1  0  0  0  0  0  0
  188.6740  175.8100  143.6860 C   0  0  0  0  0  2  0  0  0  0  0  0
  188.1730  177.5960  145.1890 C   0  0  2  0  0  3  0  0  0  0  0  0
  186.8450  179.1660  148.2500 C   0  0  0  0  0  1  0  0  0  0  0  0
  185.8780  178.3170  141.2940 C   0  0  0  0  0  2  0  0  0  0  0  0
  186.9570  177.6350  142.1670 C   0  0  2  0  0  3  0  0  0  0  0  0
  187.7430  176.5240  141.5800 C   0  0  1  0  0  3  0  0  0  0  0  0
  186.4840  176.5700  137.6770 Cl  0  0  0  0  0  0  0  0  0  0  0  0
  186.5930  176.2400  142.4640 N   0  0  1  0  0  0  0  0  0  0  0  0
  186.8330  177.1820  139.3100 C   0  0  2  0  0  3  0  0  0  0  0  0
  187.4010  176.0640  140.1590 C   0  0  0  0  0  2  0  0  0  0  0  0
  185.5510  177.6330  139.9670 C   0  0  0  0  0  2  0  0  0  0  0  0
  193.3280  173.3050  145.3770 C   0  0  0  0  0  0  0  0  0  0  0  0
  194.0440  172.3980  146.1440 F   0  0  0  0  0  0  0  0  0  0  0  0
  192.1340  172.7050  145.0020 F   0  0  0  0  0  0  0  0  0  0  0  0
  195.5240  173.3060  144.3700 O   0  0  0  0  0  1  0  0  0  0  0  0
  194.1800  173.6190  144.1360 C   0  0  1  0  0  3  0  0  0  0  0  0
  193.6840  172.9690  142.8370 C   0  0  2  0  0  3  0  0  0  0  0  0
  194.7370  172.0900  142.1610 C   0  0  0  0  0  1  0  0  0  0  0  0
  193.1760  174.4840  139.5910 O   0  0  0  0  0  0  0  0  0  0  0  0
  192.8610  173.4620  140.5060 C   0  0  1  0  0  3  0  0  0  0  0  0
  193.0570  174.0130  141.9050 C   0  0  2  0  0  3  0  0  0  0  0  0
  193.9040  175.2400  141.7130 C   0  0  0  0  0  2  0  0  0  0  0  0
  194.1540  175.2670  140.2220 C   0  0  0  0  0  2  0  0  0  0  0  0
  191.4140  173.0040  140.3200 C   0  0  1  0  0  3  0  0  0  0  0  0
  189.4990  172.3940  143.3830 O   0  0  0  0  0  0  0  0  0  0  0  0
  190.6510  173.2240  141.5420 N   0  0  0  0  0  2  0  0  0  0  0  0
  190.3190  170.7950  141.9130 N   0  0  0  0  0  1  0  0  0  0  0  0
  190.1330  172.1470  142.3250 C   0  0  0  0  0  0  0  0  0  0  0  0
  190.8180  173.7090  139.2710 O   0  0  0  0  0  0  0  0  0  0  0  0
  189.8080  172.8650  138.8060 C   0  0  0  0  0  2  0  0  0  0  0  0
  188.9540  173.6030  137.7940 C   0  0  0  0  0  1  0  0  0  0  0  0
  1 29  1  6  0  0  0
  3  6  2  0  0  0  0
  4  5  1  0  0  0  0
  5  1  1  0  0  0  0
  5  2  2  0  0  0  0
  6  4  1  0  0  0  0
  7  4  1  0  0  0  0
  7  8  2  0  0  0  0
  8  1  1  0  0  0  0
  9 15  1  0  0  0  0
 10 18  1  6  0  0  0
 10 11  1  0  0  0  0
 11 19  1  0  0  0  0
 11 14  1  1  0  0  0
 13  6  1  6  0  0  0
 13 19  1  0  0  0  0
 14 16  1  0  0  0  0
 15 20  1  0  0  0  0
 16 15  1  0  0  0  0
 16 12  1  0  0  0  0
 17 16  1  0  0  0  0
 18 13  1  0  0  0  0
 19  9  1  1  0  0  0
 22 21  1  6  0  0  0
 22 25  1  0  0  0  0
 23 27  1  6  0  0  0
 23 22  1  0  0  0  0
 23 25  1  0  0  0  0
 25 10  1  1  0  0  0
 26 24  1  6  0  0  0
 26 28  1  0  0  0  0
 26 27  1  0  0  0  0
 28 21  1  0  0  0  0
 29 30  1  0  0  0  0
 31 29  1  0  0  0  0
 33 32  1  1  0  0  0
 33 29  1  0  0  0  0
 34 35  1  6  0  0  0
 34 33  1  0  0  0  0
 36 40  1  0  0  0  0
 36 37  1  0  0  0  0
 37 41  1  1  0  0  0
 37 38  1  0  0  0  0
 38 34  1  1  0  0  0
 39 38  1  0  0  0  0
 40 39  1  0  0  0  0
 41 46  1  6  0  0  0
 41 43  1  0  0  0  0
 43 45  1  0  0  0  0
 44 45  1  0  0  0  0
 45 42  2  0  0  0  0
 47 46  1  0  0  0  0
 48 47  1  0  0  0  0
M  END
>  <MODEL>
3

>  <REMARK>
 VINA RESULT:      -7.0      1.847      3.321
  Name = 
  10 active torsions:
  status: ('A' for Active; 'I' for Inactive)
    1  A    between atoms: C_1  and  C_7
    2  A    between atoms: C_4  and  C_27
    3  A    between atoms: C_4  and  C_33
    4  A    between atoms: C_5  and  N_30
    5  A    between atoms: C_7  and  C_33
    6  A    between atoms: C_10  and  C_34
    7  A    between atoms: C_16  and  C_41
    8  A    between atoms: O_20  and  C_22
    9  A    between atoms: O_20  and  C_41
   10  A    between atoms: N_24  and  C_41
                            x       y       z     vdW  Elec       q    Type
                         _______ _______ _______ _____ _____    ______ ____

>  <TORSDO>
F 10

$$$$
=
 OpenBabel11062418283D

 48 53  0  0  1  0  0  0  0  0999 V2000
  193.0730  174.5900  146.1900 C   0  0  2  0  0  3  0  0  0  0  0  0
  190.6670  174.5770  146.3720 O   0  0  0  0  0  0  0  0  0  0  0  0
  190.7520  178.0770  143.9970 O   0  0  0  0  0  0  0  0  0  0  0  0
  191.7210  176.3580  145.2390 N   0  0  0  0  0  0  0  0  0  0  0  0
  191.7150  175.1280  145.9440 C   0  0  0  0  0  0  0  0  0  0  0  0
  190.5820  177.0360  144.6890 C   0  0  0  0  0  0  0  0  0  0  0  0
  193.0900  176.7840  145.0240 C   0  0  0  0  0  3  0  0  0  0  0  0
  193.9710  175.7580  145.7500 C   0  0  0  0  0  3  0  0  0  0  0  0
  188.1670  177.9870  146.6390 C   0  0  0  0  0  2  0  0  0  0  0  0
  187.1590  175.9070  143.7420 C   0  0  2  0  0  3  0  0  0  0  0  0
  186.8370  176.9990  144.7580 C   0  0  1  0  0  3  0  0  0  0  0  0
  185.7350  176.5980  148.1800 C   0  0  0  0  0  1  0  0  0  0  0  0
  189.1960  176.5020  144.8980 C   0  0  2  0  0  3  0  0  0  0  0  0
  186.1840  176.4050  145.8640 O   0  0  0  0  0  0  0  0  0  0  0  0
  186.8320  178.4840  146.9460 N   0  0  0  0  0  0  0  0  0  0  0  0
  185.8470  177.3670  146.8640 C   0  0  0  0  0  0  0  0  0  0  0  0
  184.4750  177.9420  146.5500 C   0  0  0  0  0  1  0  0  0  0  0  0
  188.6790  175.8150  143.6530 C   0  0  0  0  0  2  0  0  0  0  0  0
  188.1860  177.5900  145.1720 C   0  0  2  0  0  3  0  0  0  0  0  0
  186.8740  179.1350  148.2530 C   0  0  0  0  0  1  0  0  0  0  0  0
  185.8630  178.3380  141.2980 C   0  0  0  0  0  2  0  0  0  0  0  0
  186.9490  177.6530  142.1600 C   0  0  2  0  0  3  0  0  0  0  0  0
  187.7360  176.5490  141.5590 C   0  0  1  0  0  3  0  0  0  0  0  0
  186.4580  176.6260  137.6630 Cl  0  0  0  0  0  0  0  0  0  0  0  0
  186.5910  176.2530  142.4460 N   0  0  1  0  0  0  0  0  0  0  0  0
  186.8120  177.2250  139.2990 C   0  0  2  0  0  3  0  0  0  0  0  0
  187.3890  176.1010  140.1350 C   0  0  0  0  0  2  0  0  0  0  0  0
  185.5320  177.6650  139.9670 C   0  0  0  0  0  2  0  0  0  0  0  0
  193.3470  173.3130  145.3630 C   0  0  0  0  0  0  0  0  0  0  0  0
  193.9770  172.3740  146.1640 F   0  0  0  0  0  0  0  0  0  0  0  0
  192.1570  172.7630  144.9080 F   0  0  0  0  0  0  0  0  0  0  0  0
  195.5780  173.1350  144.4530 O   0  0  0  0  0  1  0  0  0  0  0  0
  194.2860  173.6020  144.1800 C   0  0  1  0  0  3  0  0  0  0  0  0
  193.7910  173.0790  142.8240 C   0  0  2  0  0  3  0  0  0  0  0  0
  194.8050  172.1800  142.1160 C   0  0  0  0  0  1  0  0  0  0  0  0
  193.1360  174.6470  139.6300 O   0  0  0  0  0  0  0  0  0  0  0  0
  192.7550  173.7200  140.6180 C   0  0  1  0  0  3  0  0  0  0  0  0
  193.2640  174.2260  141.9530 C   0  0  2  0  0  3  0  0  0  0  0  0
  194.3090  175.2460  141.5980 C   0  0  0  0  0  2  0  0  0  0  0  0
  194.3380  175.2100  140.0870 C   0  0  0  0  0  2  0  0  0  0  0  0
  191.2330  173.5760  140.6570 C   0  0  1  0  0  3  0  0  0  0  0  0
  190.0280  171.4710  137.9120 O   0  0  0  0  0  0  0  0  0  0  0  0
  190.8130  172.4110  139.8880 N   0  0  0  0  0  2  0  0  0  0  0  0
  190.2640  173.7810  137.8950 N   0  0  0  0  0  1  0  0  0  0  0  0
  190.3580  172.5120  138.5380 C   0  0  0  0  0  0  0  0  0  0  0  0
  190.7970  173.4360  141.9790 O   0  0  0  0  0  0  0  0  0  0  0  0
  190.0050  172.2870  141.9710 C   0  0  0  0  0  2  0  0  0  0  0  0
  189.3180  172.1330  143.3130 C   0  0  0  0  0  1  0  0  0  0  0  0
  1 29  1  6  0  0  0
  3  6  2  0  0  0  0
  4  5  1  0  0  0  0
  5  1  1  0  0  0  0
  5  2  2  0  0  0  0
  6  4  1  0  0  0  0
  7  4  1  0  0  0  0
  7  8  2  0  0  0  0
  8  1  1  0  0  0  0
  9 15  1  0  0  0  0
 10 18  1  6  0  0  0
 10 11  1  0  0  0  0
 11 19  1  0  0  0  0
 11 14  1  1  0  0  0
 13  6  1  6  0  0  0
 13 19  1  0  0  0  0
 14 16  1  0  0  0  0
 15 20  1  0  0  0  0
 16 15  1  0  0  0  0
 16 12  1  0  0  0  0
 17 16  1  0  0  0  0
 18 13  1  0  0  0  0
 19  9  1  1  0  0  0
 22 21  1  6  0  0  0
 22 25  1  0  0  0  0
 23 27  1  6  0  0  0
 23 22  1  0  0  0  0
 23 25  1  0  0  0  0
 25 10  1  1  0  0  0
 26 24  1  6  0  0  0
 26 28  1  0  0  0  0
 26 27  1  0  0  0  0
 28 21  1  0  0  0  0
 29 30  1  0  0  0  0
 31 29  1  0  0  0  0
 33 32  1  1  0  0  0
 33 29  1  0  0  0  0
 34 35  1  6  0  0  0
 34 33  1  0  0  0  0
 36 40  1  0  0  0  0
 36 37  1  0  0  0  0
 37 41  1  1  0  0  0
 37 38  1  0  0  0  0
 38 34  1  1  0  0  0
 39 38  1  0  0  0  0
 40 39  1  0  0  0  0
 41 43  1  6  0  0  0
 41 46  1  0  0  0  0
 42 45  2  0  0  0  0
 44 45  1  0  0  0  0
 45 43  1  0  0  0  0
 47 46  1  0  0  0  0
 47 48  1  0  0  0  0
M  END
>  <MODEL>
4

>  <REMARK>
 VINA RESULT:      -7.0      1.981      2.972
  Name = 
  10 active torsions:
  status: ('A' for Active; 'I' for Inactive)
    1  A    between atoms: C_1  and  C_7
    2  A    between atoms: C_4  and  C_27
    3  A    between atoms: C_4  and  C_33
    4  A    between atoms: C_5  and  N_30
    5  A    between atoms: C_7  and  C_33
    6  A    between atoms: C_10  and  C_34
    7  A    between atoms: C_16  and  C_41
    8  A    between atoms: O_20  and  C_22
    9  A    between atoms: O_20  and  C_41
   10  A    between atoms: N_24  and  C_41
                            x       y       z     vdW  Elec       q    Type
                         _______ _______ _______ _____ _____    ______ ____

>  <TORSDO>
F 10

$$$$
=
 OpenBabel11062418283D

 48 53  0  0  1  0  0  0  0  0999 V2000
  193.2560  174.9600  146.1510 C   0  0  2  0  0  3  0  0  0  0  0  0
  190.8560  174.7800  146.3230 O   0  0  0  0  0  0  0  0  0  0  0  0
  190.7080  178.3070  143.9910 O   0  0  0  0  0  0  0  0  0  0  0  0
  191.7890  176.6430  145.2160 N   0  0  0  0  0  0  0  0  0  0  0  0
  191.8650  175.4070  145.9060 C   0  0  0  0  0  0  0  0  0  0  0  0
  190.6080  177.2480  144.6690 C   0  0  0  0  0  0  0  0  0  0  0  0
  193.1270  177.1650  145.0120 C   0  0  0  0  0  3  0  0  0  0  0  0
  194.0740  176.1920  145.7280 C   0  0  0  0  0  3  0  0  0  0  0  0
  188.1300  178.0040  146.6260 C   0  0  0  0  0  2  0  0  0  0  0  0
  187.2720  175.9030  143.6970 C   0  0  2  0  0  3  0  0  0  0  0  0
  186.8750  176.9550  144.7270 C   0  0  1  0  0  3  0  0  0  0  0  0
  185.7950  176.4310  148.1400 C   0  0  0  0  0  1  0  0  0  0  0  0
  189.2620  176.6180  144.8670 C   0  0  2  0  0  3  0  0  0  0  0  0
  186.2610  176.3030  145.8230 O   0  0  0  0  0  0  0  0  0  0  0  0
  186.7640  178.4050  146.9370 N   0  0  0  0  0  0  0  0  0  0  0  0
  185.8580  177.2240  146.8350 C   0  0  0  0  0  0  0  0  0  0  0  0
  184.4500  177.7100  146.5260 C   0  0  0  0  0  1  0  0  0  0  0  0
  188.7950  175.9160  143.6100 C   0  0  0  0  0  2  0  0  0  0  0  0
  188.1790  177.6300  145.1540 C   0  0  2  0  0  3  0  0  0  0  0  0
  186.7580  179.0380  148.2520 C   0  0  0  0  0  1  0  0  0  0  0  0
  185.9480  178.2960  141.2300 C   0  0  0  0  0  2  0  0  0  0  0  0
  187.0440  177.6200  142.0870 C   0  0  2  0  0  3  0  0  0  0  0  0
  187.8160  176.5010  141.4930 C   0  0  1  0  0  3  0  0  0  0  0  0
  186.4730  176.5140  137.6180 Cl  0  0  0  0  0  0  0  0  0  0  0  0
  186.6840  176.2280  142.4040 N   0  0  1  0  0  0  0  0  0  0  0  0
  186.8580  177.1400  139.2370 C   0  0  2  0  0  3  0  0  0  0  0  0
  187.4420  176.0300  140.0840 C   0  0  0  0  0  2  0  0  0  0  0  0
  185.5920  177.6000  139.9170 C   0  0  0  0  0  2  0  0  0  0  0  0
  193.6190  173.7150  145.3090 C   0  0  0  0  0  0  0  0  0  0  0  0
  193.6910  172.6060  146.1380 F   0  0  0  0  0  0  0  0  0  0  0  0
  192.6460  173.4740  144.3500 F   0  0  0  0  0  0  0  0  0  0  0  0
  195.9660  173.1420  145.3410 O   0  0  0  0  0  1  0  0  0  0  0  0
  194.9960  173.8710  144.6420 C   0  0  1  0  0  3  0  0  0  0  0  0
  195.0270  173.5300  143.1460 C   0  0  2  0  0  3  0  0  0  0  0  0
  196.1630  172.5780  142.7670 C   0  0  0  0  0  1  0  0  0  0  0  0
  196.0840  175.5690  140.3510 O   0  0  0  0  0  0  0  0  0  0  0  0
  195.2970  174.5090  140.8400 C   0  0  1  0  0  3  0  0  0  0  0  0
  194.9730  174.8020  142.2910 C   0  0  2  0  0  3  0  0  0  0  0  0
  195.9710  175.8490  142.6990 C   0  0  0  0  0  2  0  0  0  0  0  0
  196.8090  176.0400  141.4560 C   0  0  0  0  0  2  0  0  0  0  0  0
  194.0070  174.3820  140.0280 C   0  0  1  0  0  3  0  0  0  0  0  0
  190.7830  173.7910  141.6640 O   0  0  0  0  0  0  0  0  0  0  0  0
  192.8450  174.5390  140.8940 N   0  0  0  0  0  2  0  0  0  0  0  0
  191.7430  172.5160  139.9770 N   0  0  0  0  0  1  0  0  0  0  0  0
  191.7520  173.6200  140.8800 C   0  0  0  0  0  0  0  0  0  0  0  0
  193.9710  175.3570  139.0280 O   0  0  0  0  0  0  0  0  0  0  0  0
  193.6780  174.6540  137.8580 C   0  0  0  0  0  2  0  0  0  0  0  0
  193.6270  175.6140  136.6860 C   0  0  0  0  0  1  0  0  0  0  0  0
  1 29  1  6  0  0  0
  3  6  2  0  0  0  0
  4  5  1  0  0  0  0
  5  1  1  0  0  0  0
  5  2  2  0  0  0  0
  6  4  1  0  0  0  0
  7  4  1  0  0  0  0
  7  8  2  0  0  0  0
  8  1  1  0  0  0  0
  9 15  1  0  0  0  0
 10 18  1  6  0  0  0
 10 11  1  0  0  0  0
 11 19  1  0  0  0  0
 11 14  1  1  0  0  0
 13  6  1  6  0  0  0
 13 19  1  0  0  0  0
 14 16  1  0  0  0  0
 15 20  1  0  0  0  0
 16 15  1  0  0  0  0
 16 12  1  0  0  0  0
 17 16  1  0  0  0  0
 18 13  1  0  0  0  0
 19  9  1  1  0  0  0
 22 21  1  6  0  0  0
 22 25  1  0  0  0  0
 23 27  1  6  0  0  0
 23 22  1  0  0  0  0
 23 25  1  0  0  0  0
 25 10  1  1  0  0  0
 26 24  1  6  0  0  0
 26 28  1  0  0  0  0
 26 27  1  0  0  0  0
 28 21  1  0  0  0  0
 29 30  1  0  0  0  0
 31 29  1  0  0  0  0
 33 29  1  0  0  0  0
 33 32  1  1  0  0  0
 34 35  1  1  0  0  0
 34 33  1  0  0  0  0
 36 37  1  0  0  0  0
 36 40  1  0  0  0  0
 37 41  1  6  0  0  0
 37 38  1  0  0  0  0
 38 39  1  0  0  0  0
 38 34  1  1  0  0  0
 40 39  1  0  0  0  0
 41 46  1  6  0  0  0
 41 43  1  0  0  0  0
 44 45  1  0  0  0  0
 45 43  1  0  0  0  0
 45 42  2  0  0  0  0
 47 46  1  0  0  0  0
 48 47  1  0  0  0  0
M  END
>  <MODEL>
5

>  <REMARK>
 VINA RESULT:      -6.9      1.377      2.462
  Name = 
  10 active torsions:
  status: ('A' for Active; 'I' for Inactive)
    1  A    between atoms: C_1  and  C_7
    2  A    between atoms: C_4  and  C_27
    3  A    between atoms: C_4  and  C_33
    4  A    between atoms: C_5  and  N_30
    5  A    between atoms: C_7  and  C_33
    6  A    between atoms: C_10  and  C_34
    7  A    between atoms: C_16  and  C_41
    8  A    between atoms: O_20  and  C_22
    9  A    between atoms: O_20  and  C_41
   10  A    between atoms: N_24  and  C_41
                            x       y       z     vdW  Elec       q    Type
                         _______ _______ _______ _____ _____    ______ ____

>  <TORSDO>
F 10

$$$$
=
 OpenBabel11062418283D

 48 53  0  0  1  0  0  0  0  0999 V2000
  192.5380  170.7930  141.3770 C   0  0  2  0  0  3  0  0  0  0  0  0
  191.4920  171.7860  143.3120 O   0  0  0  0  0  0  0  0  0  0  0  0
  192.6530  175.5110  141.6760 O   0  0  0  0  0  0  0  0  0  0  0  0
  192.6020  173.1810  141.7670 N   0  0  0  0  0  0  0  0  0  0  0  0
  192.1340  171.9290  142.2390 C   0  0  0  0  0  0  0  0  0  0  0  0
  192.2310  174.4760  142.2620 C   0  0  0  0  0  0  0  0  0  0  0  0
  193.4250  172.9760  140.5910 C   0  0  0  0  0  3  0  0  0  0  0  0
  193.5280  171.4560  140.4070 C   0  0  0  0  0  3  0  0  0  0  0  0
  192.7190  175.6790  145.2370 C   0  0  0  0  0  2  0  0  0  0  0  0
  189.1820  175.4880  144.1500 C   0  0  2  0  0  3  0  0  0  0  0  0
  190.2750  176.1630  144.9730 C   0  0  1  0  0  3  0  0  0  0  0  0
  191.5960  175.1380  148.1810 C   0  0  0  0  0  1  0  0  0  0  0  0
  191.3220  174.6130  143.4460 C   0  0  2  0  0  3  0  0  0  0  0  0
  190.2780  175.5930  146.2690 O   0  0  0  0  0  0  0  0  0  0  0  0
  192.4920  176.5950  146.3480 N   0  0  0  0  0  0  0  0  0  0  0  0
  191.2770  176.1760  147.1050 C   0  0  0  0  0  0  0  0  0  0  0  0
  190.6880  177.3920  147.8020 C   0  0  0  0  0  1  0  0  0  0  0  0
  189.8760  174.7390  143.0170 C   0  0  0  0  0  2  0  0  0  0  0  0
  191.5850  175.8680  144.2440 C   0  0  2  0  0  3  0  0  0  0  0  0
  193.7040  176.6400  147.1620 C   0  0  0  0  0  1  0  0  0  0  0  0
  188.1420  177.8930  141.5620 C   0  0  0  0  0  2  0  0  0  0  0  0
  188.4120  176.4880  142.1490 C   0  0  2  0  0  3  0  0  0  0  0  0
  187.2890  175.7610  142.7880 C   0  0  1  0  0  3  0  0  0  0  0  0
  184.1120  178.2170  141.9560 Cl  0  0  0  0  0  0  0  0  0  0  0  0
  188.2720  176.4930  143.6150 N   0  0  1  0  0  0  0  0  0  0  0  0
  185.7110  177.4620  141.7730 C   0  0  2  0  0  3  0  0  0  0  0  0
  185.9320  176.4660  142.8910 C   0  0  0  0  0  2  0  0  0  0  0  0
  186.7860  178.5150  141.8940 C   0  0  0  0  0  2  0  0  0  0  0  0
  191.3320  170.1750  140.6330 C   0  0  0  0  0  0  0  0  0  0  0  0
  191.0710  168.9150  141.1490 F   0  0  0  0  0  0  0  0  0  0  0  0
  190.1980  170.9570  140.8090 F   0  0  0  0  0  0  0  0  0  0  0  0
  191.8240  168.6460  138.8280 O   0  0  0  0  0  1  0  0  0  0  0  0
  191.6290  169.9980  139.1340 C   0  0  1  0  0  3  0  0  0  0  0  0
  190.5910  170.6280  138.1950 C   0  0  2  0  0  3  0  0  0  0  0  0
  189.6190  169.6090  137.5980 C   0  0  0  0  0  1  0  0  0  0  0  0
  190.6540  172.4040  135.0440 O   0  0  0  0  0  0  0  0  0  0  0  0
  190.2510  172.3550  136.3920 C   0  0  1  0  0  3  0  0  0  0  0  0
  191.2670  171.5250  137.1520 C   0  0  2  0  0  3  0  0  0  0  0  0
  192.0070  170.7650  136.0880 C   0  0  0  0  0  2  0  0  0  0  0  0
  191.3260  171.1950  134.8080 C   0  0  0  0  0  2  0  0  0  0  0  0
  190.1780  173.7650  136.9800 C   0  0  1  0  0  3  0  0  0  0  0  0
  192.7780  175.9870  135.6680 O   0  0  0  0  0  0  0  0  0  0  0  0
  190.8920  174.7080  136.1290 N   0  0  0  0  0  2  0  0  0  0  0  0
  192.8470  174.7850  137.6530 N   0  0  0  0  0  1  0  0  0  0  0  0
  192.1980  175.1900  136.4490 C   0  0  0  0  0  0  0  0  0  0  0  0
  188.8450  174.1680  137.0980 O   0  0  0  0  0  0  0  0  0  0  0  0
  188.3300  173.3910  138.1370 C   0  0  0  0  0  2  0  0  0  0  0  0
  188.7610  173.9710  139.4690 C   0  0  0  0  0  1  0  0  0  0  0  0
  1 29  1  6  0  0  0
  1  5  1  0  0  0  0
  3  6  2  0  0  0  0
  4  5  1  0  0  0  0
  4  6  1  0  0  0  0
  5  2  2  0  0  0  0
  7  4  1  0  0  0  0
  8  7  2  0  0  0  0
  8  1  1  0  0  0  0
  9 15  1  0  0  0  0
 10 18  1  6  0  0  0
 10 11  1  0  0  0  0
 11 14  1  1  0  0  0
 13  6  1  6  0  0  0
 13 19  1  0  0  0  0
 14 16  1  0  0  0  0
 15 16  1  0  0  0  0
 15 20  1  0  0  0  0
 16 17  1  0  0  0  0
 16 12  1  0  0  0  0
 18 13  1  0  0  0  0
 19 11  1  0  0  0  0
 19  9  1  1  0  0  0
 21 28  1  0  0  0  0
 22 21  1  6  0  0  0
 22 23  1  0  0  0  0
 22 25  1  0  0  0  0
 23 27  1  6  0  0  0
 23 25  1  0  0  0  0
 25 10  1  1  0  0  0
 26 28  1  0  0  0  0
 26 24  1  1  0  0  0
 26 27  1  0  0  0  0
 29 31  1  0  0  0  0
 29 30  1  0  0  0  0
 33 32  1  6  0  0  0
 33 29  1  0  0  0  0
 34 35  1  6  0  0  0
 34 33  1  0  0  0  0
 36 37  1  0  0  0  0
 37 41  1  1  0  0  0
 37 38  1  0  0  0  0
 38 34  1  1  0  0  0
 39 38  1  0  0  0  0
 40 36  1  0  0  0  0
 40 39  1  0  0  0  0
 41 43  1  6  0  0  0
 41 46  1  0  0  0  0
 42 45  2  0  0  0  0
 43 45  1  0  0  0  0
 45 44  1  0  0  0  0
 46 47  1  0  0  0  0
 47 48  1  0  0  0  0
M  END
>  <MODEL>
6

>  <REMARK>
 VINA RESULT:      -6.5      3.909      5.856
  Name = 
  10 active torsions:
  status: ('A' for Active; 'I' for Inactive)
    1  A    between atoms: C_1  and  C_7
    2  A    between atoms: C_4  and  C_27
    3  A    between atoms: C_4  and  C_33
    4  A    between atoms: C_5  and  N_30
    5  A    between atoms: C_7  and  C_33
    6  A    between atoms: C_10  and  C_34
    7  A    between atoms: C_16  and  C_41
    8  A    between atoms: O_20  and  C_22
    9  A    between atoms: O_20  and  C_41
   10  A    between atoms: N_24  and  C_41
                            x       y       z     vdW  Elec       q    Type
                         _______ _______ _______ _____ _____    ______ ____

>  <TORSDO>
F 10

$$$$
=
 OpenBabel11062418283D

 48 53  0  0  1  0  0  0  0  0999 V2000
  195.7020  174.2280  144.5690 C   0  0  2  0  0  3  0  0  0  0  0  0
  193.3340  174.1480  145.0270 O   0  0  0  0  0  0  0  0  0  0  0  0
  192.9910  177.3940  142.3360 O   0  0  0  0  0  0  0  0  0  0  0  0
  194.1710  175.8430  143.6160 N   0  0  0  0  0  0  0  0  0  0  0  0
  194.3010  174.6900  144.4310 C   0  0  0  0  0  0  0  0  0  0  0  0
  192.9480  176.4220  143.1390 C   0  0  0  0  0  0  0  0  0  0  0  0
  195.4870  176.2940  143.2060 C   0  0  0  0  0  3  0  0  0  0  0  0
  196.4900  175.3770  143.9200 C   0  0  0  0  0  3  0  0  0  0  0  0
  191.2810  176.6460  145.9150 C   0  0  0  0  0  2  0  0  0  0  0  0
  189.2920  175.7350  142.9240 C   0  0  2  0  0  3  0  0  0  0  0  0
  189.3850  176.4010  144.2940 C   0  0  1  0  0  3  0  0  0  0  0  0
  189.2200  174.8270  147.5470 C   0  0  0  0  0  1  0  0  0  0  0  0
  191.6210  175.8620  143.5560 C   0  0  2  0  0  3  0  0  0  0  0  0
  188.9960  175.4610  145.2780 O   0  0  0  0  0  0  0  0  0  0  0  0
  190.1460  177.0170  146.7510 N   0  0  0  0  0  0  0  0  0  0  0  0
  189.0550  176.0110  146.5940 C   0  0  0  0  0  0  0  0  0  0  0  0
  187.7250  176.6740  146.9110 C   0  0  0  0  0  1  0  0  0  0  0  0
  190.7090  175.6650  142.3650 C   0  0  0  0  0  2  0  0  0  0  0  0
  190.8530  176.7930  144.4640 C   0  0  2  0  0  3  0  0  0  0  0  0
  190.6150  177.1640  148.1250 C   0  0  0  0  0  1  0  0  0  0  0  0
  187.4420  176.2520  139.7820 C   0  0  0  0  0  2  0  0  0  0  0  0
  187.7370  175.5890  141.1480 C   0  0  2  0  0  3  0  0  0  0  0  0
  187.0470  176.1120  142.3510 C   0  0  1  0  0  3  0  0  0  0  0  0
  184.4370  178.8200  140.7170 Cl  0  0  0  0  0  0  0  0  0  0  0  0
  188.4340  176.5230  142.0480 N   0  0  1  0  0  0  0  0  0  0  0  0
  185.5030  177.4010  140.8110 C   0  0  2  0  0  3  0  0  0  0  0  0
  186.1250  177.3250  142.1900 C   0  0  0  0  0  2  0  0  0  0  0  0
  186.6320  177.5480  139.8210 C   0  0  0  0  0  2  0  0  0  0  0  0
  195.9410  172.8850  143.8410 C   0  0  0  0  0  0  0  0  0  0  0  0
  197.2970  172.5950  143.8480 F   0  0  0  0  0  0  0  0  0  0  0  0
  195.2770  171.8540  144.4910 F   0  0  0  0  0  0  0  0  0  0  0  0
  196.6170  173.0070  141.5250 O   0  0  0  0  0  1  0  0  0  0  0  0
  195.5010  172.9580  142.3700 C   0  0  1  0  0  3  0  0  0  0  0  0
  194.5320  171.8510  141.9340 C   0  0  2  0  0  3  0  0  0  0  0  0
  195.1270  170.9030  140.8920 C   0  0  0  0  0  1  0  0  0  0  0  0
  191.7670  172.2770  139.6390 O   0  0  0  0  0  0  0  0  0  0  0  0
  192.4100  171.4990  140.6200 C   0  0  1  0  0  3  0  0  0  0  0  0
  193.1730  172.4380  141.5340 C   0  0  2  0  0  3  0  0  0  0  0  0
  193.2720  173.7220  140.7600 C   0  0  0  0  0  2  0  0  0  0  0  0
  192.5900  173.3980  139.4500 C   0  0  0  0  0  2  0  0  0  0  0  0
  191.3850  170.6990  141.4260 C   0  0  1  0  0  3  0  0  0  0  0  0
  188.3720  172.5480  142.3840 O   0  0  0  0  0  0  0  0  0  0  0  0
  190.0790  171.3420  141.3660 N   0  0  0  0  0  2  0  0  0  0  0  0
  190.1630  171.9990  143.7560 N   0  0  0  0  0  1  0  0  0  0  0  0
  189.4940  171.9890  142.4970 C   0  0  0  0  0  0  0  0  0  0  0  0
  191.2830  169.4000  140.9180 O   0  0  0  0  0  0  0  0  0  0  0  0
  191.2290  168.5820  142.0480 C   0  0  0  0  0  2  0  0  0  0  0  0
  192.4630  168.8060  142.8990 C   0  0  0  0  0  1  0  0  0  0  0  0
  1 29  1  6  0  0  0
  3  6  2  0  0  0  0
  4  5  1  0  0  0  0
  5  1  1  0  0  0  0
  5  2  2  0  0  0  0
  6  4  1  0  0  0  0
  7  4  1  0  0  0  0
  7  8  2  0  0  0  0
  8  1  1  0  0  0  0
  9 15  1  0  0  0  0
 10 18  1  6  0  0  0
 10 11  1  0  0  0  0
 11 19  1  0  0  0  0
 11 14  1  1  0  0  0
 13  6  1  6  0  0  0
 13 19  1  0  0  0  0
 14 16  1  0  0  0  0
 15 20  1  0  0  0  0
 16 15  1  0  0  0  0
 16 17  1  0  0  0  0
 16 12  1  0  0  0  0
 18 13  1  0  0  0  0
 19  9  1  1  0  0  0
 21 28  1  0  0  0  0
 22 21  1  6  0  0  0
 22 25  1  0  0  0  0
 22 23  1  0  0  0  0
 23 27  1  6  0  0  0
 25 23  1  0  0  0  0
 25 10  1  1  0  0  0
 26 24  1  1  0  0  0
 26 27  1  0  0  0  0
 28 26  1  0  0  0  0
 29 30  1  0  0  0  0
 29 31  1  0  0  0  0
 33 32  1  6  0  0  0
 33 29  1  0  0  0  0
 34 35  1  6  0  0  0
 34 33  1  0  0  0  0
 36 37  1  0  0  0  0
 37 41  1  1  0  0  0
 37 38  1  0  0  0  0
 38 34  1  6  0  0  0
 39 38  1  0  0  0  0
 40 36  1  0  0  0  0
 40 39  1  0  0  0  0
 41 46  1  6  0  0  0
 42 45  2  0  0  0  0
 43 41  1  0  0  0  0
 43 45  1  0  0  0  0
 45 44  1  0  0  0  0
 46 47  1  0  0  0  0
 47 48  1  0  0  0  0
M  END
>  <MODEL>
7

>  <REMARK>
 VINA RESULT:      -6.5      2.850      4.410
  Name = 
  10 active torsions:
  status: ('A' for Active; 'I' for Inactive)
    1  A    between atoms: C_1  and  C_7
    2  A    between atoms: C_4  and  C_27
    3  A    between atoms: C_4  and  C_33
    4  A    between atoms: C_5  and  N_30
    5  A    between atoms: C_7  and  C_33
    6  A    between atoms: C_10  and  C_34
    7  A    between atoms: C_16  and  C_41
    8  A    between atoms: O_20  and  C_22
    9  A    between atoms: O_20  and  C_41
   10  A    between atoms: N_24  and  C_41
                            x       y       z     vdW  Elec       q    Type
                         _______ _______ _______ _____ _____    ______ ____

>  <TORSDO>
F 10

$$$$
=
 OpenBabel11062418283D

 48 53  0  0  1  0  0  0  0  0999 V2000
  194.9810  175.1000  144.5850 C   0  0  2  0  0  3  0  0  0  0  0  0
  193.0410  174.9540  143.1570 O   0  0  0  0  0  0  0  0  0  0  0  0
  190.9640  176.9520  146.2550 O   0  0  0  0  0  0  0  0  0  0  0  0
  192.8100  175.8810  145.3150 N   0  0  0  0  0  0  0  0  0  0  0  0
  193.5530  175.3070  144.2520 C   0  0  0  0  0  0  0  0  0  0  0  0
  191.4640  176.3740  145.2510 C   0  0  0  0  0  0  0  0  0  0  0  0
  193.6660  176.0320  146.4760 C   0  0  0  0  0  3  0  0  0  0  0  0
  195.0130  175.4040  146.0910 C   0  0  0  0  0  3  0  0  0  0  0  0
  190.2020  173.7850  143.7530 C   0  0  0  0  0  2  0  0  0  0  0  0
  188.6700  177.0440  142.8770 C   0  0  2  0  0  3  0  0  0  0  0  0
  188.5470  175.5330  143.0570 C   0  0  1  0  0  3  0  0  0  0  0  0
  189.5320  172.9310  140.7460 C   0  0  0  0  0  1  0  0  0  0  0  0
  190.6570  176.2410  143.9930 C   0  0  2  0  0  3  0  0  0  0  0  0
  188.7910  174.9110  141.8100 O   0  0  0  0  0  0  0  0  0  0  0  0
  189.1270  172.9580  143.2200 N   0  0  0  0  0  0  0  0  0  0  0  0
  188.6930  173.4900  141.8950 C   0  0  0  0  0  0  0  0  0  0  0  0
  187.2490  173.0800  141.6490 C   0  0  0  0  0  1  0  0  0  0  0  0
  189.8600  177.4970  143.7170 C   0  0  0  0  0  2  0  0  0  0  0  0
  189.6170  175.1490  144.0790 C   0  0  2  0  0  3  0  0  0  0  0  0
  189.5900  171.5740  143.1750 C   0  0  0  0  0  1  0  0  0  0  0  0
  185.0240  177.5560  142.7820 C   0  0  0  0  0  2  0  0  0  0  0  0
  186.3280  176.7760  143.0720 C   0  0  2  0  0  3  0  0  0  0  0  0
  186.9180  176.8660  144.4300 C   0  0  1  0  0  3  0  0  0  0  0  0
  184.0430  178.9710  146.4620 Cl  0  0  0  0  0  0  0  0  0  0  0  0
  187.4480  177.6980  143.3280 N   0  0  1  0  0  0  0  0  0  0  0  0
  184.7510  177.9150  145.2180 C   0  0  2  0  0  3  0  0  0  0  0  0
  186.2400  177.7790  145.4570 C   0  0  0  0  0  2  0  0  0  0  0  0
  184.5740  178.5440  143.8580 C   0  0  0  0  0  2  0  0  0  0  0  0
  195.9040  176.0510  143.7880 C   0  0  0  0  0  0  0  0  0  0  0  0
  195.1420  176.7860  142.8940 F   0  0  0  0  0  0  0  0  0  0  0  0
  196.5430  176.9380  144.6430 F   0  0  0  0  0  0  0  0  0  0  0  0
  197.9250  174.7260  143.7980 O   0  0  0  0  0  1  0  0  0  0  0  0
  196.9390  175.2680  142.9640 C   0  0  1  0  0  3  0  0  0  0  0  0
  196.3460  174.1900  142.0460 C   0  0  2  0  0  3  0  0  0  0  0  0
  197.1100  172.8660  142.0980 C   0  0  0  0  0  1  0  0  0  0  0  0
  196.8280  174.0750  138.4630 O   0  0  0  0  0  0  0  0  0  0  0  0
  196.1420  173.6140  139.6020 C   0  0  1  0  0  3  0  0  0  0  0  0
  196.1370  174.7300  140.6270 C   0  0  2  0  0  3  0  0  0  0  0  0
  197.2190  175.6680  140.1710 C   0  0  0  0  0  2  0  0  0  0  0  0
  197.7800  174.9880  138.9420 C   0  0  0  0  0  2  0  0  0  0  0  0
  194.7060  173.2260  139.2410 C   0  0  1  0  0  3  0  0  0  0  0  0
  192.8800  171.7240  142.0380 O   0  0  0  0  0  0  0  0  0  0  0  0
  193.9030  173.0760  140.4470 N   0  0  0  0  0  2  0  0  0  0  0  0
  193.9670  170.6000  140.3220 N   0  0  0  0  0  1  0  0  0  0  0  0
  193.5580  171.7970  140.9810 C   0  0  0  0  0  0  0  0  0  0  0  0
  194.1340  174.2070  138.4260 O   0  0  0  0  0  0  0  0  0  0  0  0
  193.8740  173.5570  137.2180 C   0  0  0  0  0  2  0  0  0  0  0  0
  192.6080  174.1160  136.6010 C   0  0  0  0  0  1  0  0  0  0  0  0
  1 29  1  6  0  0  0
  1  8  1  0  0  0  0
  2  5  2  0  0  0  0
  4  7  1  0  0  0  0
  5  1  1  0  0  0  0
  5  4  1  0  0  0  0
  6  4  1  0  0  0  0
  6  3  2  0  0  0  0
  8  7  2  0  0  0  0
 10 11  1  0  0  0  0
 10 18  1  1  0  0  0
 11 14  1  6  0  0  0
 11 19  1  0  0  0  0
 12 16  1  0  0  0  0
 13 19  1  0  0  0  0
 13  6  1  1  0  0  0
 14 16  1  0  0  0  0
 15  9  1  0  0  0  0
 16 15  1  0  0  0  0
 17 16  1  0  0  0  0
 18 13  1  0  0  0  0
 19  9  1  6  0  0  0
 20 15  1  0  0  0  0
 21 28  1  0  0  0  0
 22 21  1  1  0  0  0
 22 25  1  0  0  0  0
 22 23  1  0  0  0  0
 23 27  1  1  0  0  0
 25 10  1  6  0  0  0
 25 23  1  0  0  0  0
 26 27  1  0  0  0  0
 26 24  1  1  0  0  0
 28 26  1  0  0  0  0
 29 31  1  0  0  0  0
 30 29  1  0  0  0  0
 33 29  1  0  0  0  0
 33 32  1  1  0  0  0
 34 35  1  6  0  0  0
 34 33  1  0  0  0  0
 36 40  1  0  0  0  0
 36 37  1  0  0  0  0
 37 41  1  6  0  0  0
 37 38  1  0  0  0  0
 38 34  1  1  0  0  0
 39 38  1  0  0  0  0
 40 39  1  0  0  0  0
 41 46  1  6  0  0  0
 41 43  1  0  0  0  0
 43 45  1  0  0  0  0
 44 45  1  0  0  0  0
 45 42  2  0  0  0  0
 47 46  1  0  0  0  0
 48 47  1  0  0  0  0
M  END
>  <MODEL>
8

>  <REMARK>
 VINA RESULT:      -6.4      2.910      4.835
  Name = 
  10 active torsions:
  status: ('A' for Active; 'I' for Inactive)
    1  A    between atoms: C_1  and  C_7
    2  A    between atoms: C_4  and  C_27
    3  A    between atoms: C_4  and  C_33
    4  A    between atoms: C_5  and  N_30
    5  A    between atoms: C_7  and  C_33
    6  A    between atoms: C_10  and  C_34
    7  A    between atoms: C_16  and  C_41
    8  A    between atoms: O_20  and  C_22
    9  A    between atoms: O_20  and  C_41
   10  A    between atoms: N_24  and  C_41
                            x       y       z     vdW  Elec       q    Type
                         _______ _______ _______ _____ _____    ______ ____

>  <TORSDO>
F 10

$$$$
=
 OpenBabel11062418283D

 48 53  0  0  1  0  0  0  0  0999 V2000
  195.4240  175.0360  142.3690 C   0  0  2  0  0  3  0  0  0  0  0  0
  193.1620  174.8640  141.5470 O   0  0  0  0  0  0  0  0  0  0  0  0
  191.9990  176.6540  145.2000 O   0  0  0  0  0  0  0  0  0  0  0  0
  193.5300  175.6980  143.7230 N   0  0  0  0  0  0  0  0  0  0  0  0
  193.9540  175.1970  142.4670 C   0  0  0  0  0  0  0  0  0  0  0  0
  192.2070  176.1360  144.0680 C   0  0  0  0  0  0  0  0  0  0  0  0
  194.6770  175.8390  144.5990 C   0  0  0  0  0  3  0  0  0  0  0  0
  195.8760  175.2830  143.8180 C   0  0  0  0  0  3  0  0  0  0  0  0
  190.5930  173.5610  142.9280 C   0  0  0  0  0  2  0  0  0  0  0  0
  188.8520  176.8160  142.5970 C   0  0  2  0  0  3  0  0  0  0  0  0
  188.7960  175.3010  142.7680 C   0  0  1  0  0  3  0  0  0  0  0  0
  189.1080  172.7600  140.2130 C   0  0  0  0  0  1  0  0  0  0  0  0
  191.0800  176.0180  143.0870 C   0  0  2  0  0  3  0  0  0  0  0  0
  188.6830  174.7070  141.4880 O   0  0  0  0  0  0  0  0  0  0  0  0
  189.4170  172.7310  142.7000 N   0  0  0  0  0  0  0  0  0  0  0  0
  188.6230  173.2830  141.5640 C   0  0  0  0  0  0  0  0  0  0  0  0
  187.1720  172.8590  141.7270 C   0  0  0  0  0  1  0  0  0  0  0  0
  190.2270  177.2680  143.0760 C   0  0  0  0  0  2  0  0  0  0  0  0
  190.1140  174.9100  143.4370 C   0  0  2  0  0  3  0  0  0  0  0  0
  189.8590  171.3550  142.4940 C   0  0  0  0  0  1  0  0  0  0  0  0
  185.3250  177.2720  143.5540 C   0  0  0  0  0  2  0  0  0  0  0  0
  186.6660  176.5090  143.4450 C   0  0  2  0  0  3  0  0  0  0  0  0
  187.6170  176.5870  144.5800 C   0  0  1  0  0  3  0  0  0  0  0  0
  185.4190  178.6150  147.3860 Cl  0  0  0  0  0  0  0  0  0  0  0  0
  187.8020  177.4430  143.3890 N   0  0  1  0  0  0  0  0  0  0  0  0
  185.7540  177.5900  145.9730 C   0  0  2  0  0  3  0  0  0  0  0  0
  187.2510  177.4740  145.7750 C   0  0  0  0  0  2  0  0  0  0  0  0
  185.1900  178.2360  144.7320 C   0  0  0  0  0  2  0  0  0  0  0  0
  196.0530  176.0550  141.3910 C   0  0  0  0  0  0  0  0  0  0  0  0
  195.0440  176.7430  140.7340 F   0  0  0  0  0  0  0  0  0  0  0  0
  196.8260  176.9790  142.0800 F   0  0  0  0  0  0  0  0  0  0  0  0
  197.8940  174.5680  140.9050 O   0  0  0  0  0  1  0  0  0  0  0  0
  196.8960  175.3520  140.3140 C   0  0  1  0  0  3  0  0  0  0  0  0
  196.0870  174.5330  139.2990 C   0  0  2  0  0  3  0  0  0  0  0  0
  196.1020  173.0310  139.5860 C   0  0  0  0  0  1  0  0  0  0  0  0
  196.5660  173.7360  135.8030 O   0  0  0  0  0  0  0  0  0  0  0  0
  195.6930  174.0860  136.8500 C   0  0  1  0  0  3  0  0  0  0  0  0
  196.4820  174.8940  137.8620 C   0  0  2  0  0  3  0  0  0  0  0  0
  197.9210  174.6060  137.5390 C   0  0  0  0  0  2  0  0  0  0  0  0
  197.8340  173.6250  136.3910 C   0  0  0  0  0  2  0  0  0  0  0  0
  194.5210  174.9120  136.3170 C   0  0  1  0  0  3  0  0  0  0  0  0
  194.6460  178.1340  134.5790 O   0  0  0  0  0  0  0  0  0  0  0  0
  195.0100  176.0600  135.5640 N   0  0  0  0  0  2  0  0  0  0  0  0
  192.7840  177.1530  135.5600 N   0  0  0  0  0  1  0  0  0  0  0  0
  194.1670  177.1580  135.2120 C   0  0  0  0  0  0  0  0  0  0  0  0
  193.7180  174.1250  135.4870 O   0  0  0  0  0  0  0  0  0  0  0  0
  193.0500  173.2610  136.3560 C   0  0  0  0  0  2  0  0  0  0  0  0
  192.1530  174.0610  137.2800 C   0  0  0  0  0  1  0  0  0  0  0  0
  1 29  1  6  0  0  0
  1  5  1  0  0  0  0
  1  8  1  0  0  0  0
  2  5  2  0  0  0  0
  4  6  1  0  0  0  0
  4  7  1  0  0  0  0
  5  4  1  0  0  0  0
  6  3  2  0  0  0  0
  8  7  2  0  0  0  0
 10 11  1  0  0  0  0
 10 18  1  1  0  0  0
 11 14  1  6  0  0  0
 11 19  1  0  0  0  0
 12 16  1  0  0  0  0
 13 19  1  0  0  0  0
 13  6  1  1  0  0  0
 14 16  1  0  0  0  0
 15  9  1  0  0  0  0
 16 17  1  0  0  0  0
 16 15  1  0  0  0  0
 18 13  1  0  0  0  0
 19  9  1  6  0  0  0
 20 15  1  0  0  0  0
 21 28  1  0  0  0  0
 22 21  1  1  0  0  0
 22 23  1  0  0  0  0
 23 27  1  1  0  0  0
 25 10  1  6  0  0  0
 25 22  1  0  0  0  0
 25 23  1  0  0  0  0
 26 24  1  1  0  0  0
 27 26  1  0  0  0  0
 28 26  1  0  0  0  0
 29 31  1  0  0  0  0
 30 29  1  0  0  0  0
 33 32  1  1  0  0  0
 33 29  1  0  0  0  0
 34 35  1  1  0  0  0
 34 33  1  0  0  0  0
 36 40  1  0  0  0  0
 36 37  1  0  0  0  0
 37 41  1  6  0  0  0
 37 38  1  0  0  0  0
 38 34  1  1  0  0  0
 39 38  1  0  0  0  0
 40 39  1  0  0  0  0
 41 46  1  6  0  0  0
 42 45  2  0  0  0  0
 43 41  1  0  0  0  0
 45 44  1  0  0  0  0
 45 43  1  0  0  0  0
 46 47  1  0  0  0  0
 47 48  1  0  0  0  0
M  END
>  <MODEL>
9

>  <REMARK>
 VINA RESULT:      -6.3      3.351      5.673
  Name = 
  10 active torsions:
  status: ('A' for Active; 'I' for Inactive)
    1  A    between atoms: C_1  and  C_7
    2  A    between atoms: C_4  and  C_27
    3  A    between atoms: C_4  and  C_33
    4  A    between atoms: C_5  and  N_30
    5  A    between atoms: C_7  and  C_33
    6  A    between atoms: C_10  and  C_34
    7  A    between atoms: C_16  and  C_41
    8  A    between atoms: O_20  and  C_22
    9  A    between atoms: O_20  and  C_41
   10  A    between atoms: N_24  and  C_41
                            x       y       z     vdW  Elec       q    Type
                         _______ _______ _______ _____ _____    ______ ____

>  <TORSDO>
F 10

$$$$
