=
 OpenBabel11062422063D

 34 39  0  0  1  0  0  0  0  0999 V2000
  190.6330  178.5690  143.8170 C   0  0  0  0  0  1  0  0  0  0  0  0
  191.9570  171.9580  142.6810 C   0  0  2  0  0  3  0  0  0  0  0  0
  192.4500  171.1290  143.6900 O   0  0  0  0  0  1  0  0  0  0  0  0
  190.0030  177.2910  144.3340 C   0  0  1  0  0  3  0  0  0  0  0  0
  186.8140  176.4280  142.4610 O   0  0  0  0  0  0  0  0  0  0  0  0
  191.1960  174.3690  140.9730 C   0  0  0  0  0  2  0  0  0  0  0  0
  189.7450  175.2070  142.8980 C   0  0  2  0  0  3  0  0  0  0  0  0
  189.9910  173.4210  140.9770 C   0  0  2  0  0  3  0  0  0  0  0  0
  187.2080  177.4860  140.3170 C   0  0  0  0  0  1  0  0  0  0  0  0
  191.4710  175.2240  144.7600 C   0  0  2  0  0  3  0  0  0  0  0  0
  188.1560  176.8120  142.6620 C   0  0  2  0  0  0  0  0  0  0  0  0
  189.8580  170.7760  142.5580 O   0  0  0  0  0  1  0  0  0  0  0  0
  188.4860  177.3180  144.0870 C   0  0  1  0  0  3  0  0  0  0  0  0
  190.5050  174.0380  142.2780 C   0  0  1  0  0  0  0  0  0  0  0  0
  187.2360  177.6170  141.8290 C   0  0  2  0  0  0  0  0  0  0  0  0
  191.2670  173.1740  143.2930 C   0  0  2  0  0  3  0  0  0  0  0  0
  190.9700  171.1820  141.8150 C   0  0  1  0  0  3  0  0  0  0  0  0
  189.0670  175.9960  141.9530 O   0  0  0  0  0  0  0  0  0  0  0  0
  192.2230  174.0520  144.1020 C   0  0  0  0  0  2  0  0  0  0  0  0
  190.7210  176.0760  143.7120 C   0  0  2  0  0  3  0  0  0  0  0  0
  186.6280  178.7320  142.4070 O   0  0  0  0  0  1  0  0  0  0  0  0
  190.5310  172.0260  140.6220 C   0  0  0  0  0  2  0  0  0  0  0  0
  192.2760  176.0730  146.9250 C   0  0  0  0  0  2  0  0  0  0  0  0
  192.4070  176.0480  145.5950 C   0  0  0  0  0  0  0  0  0  0  0  0
  193.4300  176.7460  144.9400 O   0  0  0  0  0  0  0  0  0  0  0  0
  194.6850  176.2100  144.6350 C   0  0  0  0  0  0  0  0  0  0  0  0
  197.6370  174.9440  143.9390 O   0  0  0  0  0  0  0  0  0  0  0  0
  195.5650  175.2570  145.2770 C   0  0  0  0  0  2  0  0  0  0  0  0
  196.5050  175.4080  144.2350 C   0  0  0  0  0  0  0  0  0  0  0  0
  195.5700  176.3500  143.6540 N   0  0  0  0  0  0  0  0  0  0  0  0
  187.7720  176.4780  145.1440 C   0  0  0  0  0  2  0  0  0  0  0  0
  187.5790  177.4300  147.3260 O   0  0  0  0  0  1  0  0  0  0  0  0
  188.4090  176.6580  146.5130 C   0  0  1  0  0  3  0  0  0  0  0  0
  188.6120  175.3000  147.1500 C   0  0  0  0  0  1  0  0  0  0  0  0
  2 16  1  0  0  0  0
  2  3  1  1  0  0  0
  4  1  1  6  0  0  0
  5 11  1  0  0  0  0
  6  8  1  0  0  0  0
  7 18  1  6  0  0  0
  7 20  1  0  0  0  0
  8 22  1  1  0  0  0
  8 14  1  0  0  0  0
 10 24  1  6  0  0  0
 11 18  1  6  0  0  0
 11 13  1  0  0  0  0
 13  4  1  0  0  0  0
 13 31  1  1  0  0  0
 14  6  1  6  0  0  0
 14  7  1  0  0  0  0
 14 16  1  0  0  0  0
 15  9  1  6  0  0  0
 15 21  1  0  0  0  0
 15  5  1  0  0  0  0
 15 11  1  0  0  0  0
 16 19  1  6  0  0  0
 17 12  1  1  0  0  0
 17  2  1  0  0  0  0
 19 10  1  0  0  0  0
 20  4  1  0  0  0  0
 20 10  1  0  0  0  0
 22 17  1  0  0  0  0
 24 23  2  0  0  0  0
 25 24  1  0  0  0  0
 26 25  1  0  0  0  0
 26 28  1  0  0  0  0
 27 29  2  0  0  0  0
 29 28  1  0  0  0  0
 30 29  1  0  0  0  0
 30 26  2  0  0  0  0
 31 33  1  0  0  0  0
 33 34  1  0  0  0  0
 33 32  1  0  0  0  0
M  END
>  <MODEL>
1

>  <REMARK>
 VINA RESULT:      -7.2      0.000      0.000
  Name = 
  5 active torsions:
  status: ('A' for Active; 'I' for Inactive)
    1  A    between atoms: C_6  and  C_9
    2  A    between atoms: C_8  and  O_14
    3  A    between atoms: C_9  and  C_21
    4  A    between atoms: O_14  and  C_22
    5  A    between atoms: C_17  and  C_22
                            x       y       z     vdW  Elec       q    Type
                         _______ _______ _______ _____ _____    ______ ____

>  <TORSDO>
F 5

$$$$
=
 OpenBabel11062422063D

 34 39  0  0  1  0  0  0  0  0999 V2000
  190.0300  172.8380  144.8250 C   0  0  0  0  0  1  0  0  0  0  0  0
  186.0360  178.3880  144.8310 C   0  0  2  0  0  3  0  0  0  0  0  0
  186.2910  179.4700  145.6760 O   0  0  0  0  0  1  0  0  0  0  0  0
  190.2690  174.2780  144.4150 C   0  0  1  0  0  3  0  0  0  0  0  0
  190.0010  174.7390  140.6550 O   0  0  0  0  0  0  0  0  0  0  0  0
  185.9430  175.6190  143.5540 C   0  0  0  0  0  2  0  0  0  0  0  0
  188.4810  175.7070  143.3050 C   0  0  2  0  0  3  0  0  0  0  0  0
  186.1760  176.6290  142.4240 C   0  0  2  0  0  3  0  0  0  0  0  0
  188.5040  172.9350  140.0490 C   0  0  0  0  0  1  0  0  0  0  0  0
  189.1320  176.1830  145.7130 C   0  0  2  0  0  3  0  0  0  0  0  0
  189.6560  174.3120  141.9530 C   0  0  2  0  0  0  0  0  0  0  0  0
  186.5120  179.6660  142.8420 O   0  0  0  0  0  1  0  0  0  0  0  0
  190.8160  174.3290  142.9790 C   0  0  1  0  0  3  0  0  0  0  0  0
  187.1890  176.4780  143.5600 C   0  0  1  0  0  0  0  0  0  0  0  0
  189.7380  173.3640  140.8200 C   0  0  2  0  0  0  0  0  0  0  0  0
  187.3060  177.5640  144.6380 C   0  0  2  0  0  3  0  0  0  0  0  0
  185.5370  178.8970  143.4820 C   0  0  1  0  0  3  0  0  0  0  0  0
  188.3510  174.7070  142.3270 O   0  0  0  0  0  0  0  0  0  0  0  0
  187.8120  176.9440  145.9410 C   0  0  0  0  0  2  0  0  0  0  0  0
  188.9780  175.0950  144.6280 C   0  0  2  0  0  3  0  0  0  0  0  0
  190.9040  172.6110  140.6730 O   0  0  0  0  0  1  0  0  0  0  0  0
  185.1160  177.7290  142.5960 C   0  0  0  0  0  2  0  0  0  0  0  0
  189.0070  174.6220  147.6110 C   0  0  0  0  0  2  0  0  0  0  0  0
  189.6490  175.6250  147.0060 C   0  0  0  0  0  0  0  0  0  0  0  0
  190.8350  176.1620  147.5250 O   0  0  0  0  0  0  0  0  0  0  0  0
  192.1060  175.9470  146.9820 C   0  0  0  0  0  0  0  0  0  0  0  0
  195.0910  175.4200  145.7100 O   0  0  0  0  0  0  0  0  0  0  0  0
  192.8260  174.7820  146.5150 C   0  0  0  0  0  2  0  0  0  0  0  0
  193.9400  175.5860  146.1930 C   0  0  0  0  0  0  0  0  0  0  0  0
  193.1540  176.7040  146.6780 N   0  0  0  0  0  0  0  0  0  0  0  0
  191.6870  175.5700  142.7970 C   0  0  0  0  0  2  0  0  0  0  0  0
  193.9730  176.2050  142.5260 O   0  0  0  0  0  1  0  0  0  0  0  0
  193.0460  175.2090  142.2180 C   0  0  1  0  0  3  0  0  0  0  0  0
  193.5070  173.8950  142.8100 C   0  0  0  0  0  1  0  0  0  0  0  0
  2  3  1  1  0  0  0
  4 20  1  0  0  0  0
  4  1  1  6  0  0  0
  5 15  1  0  0  0  0
  7 18  1  6  0  0  0
  7 14  1  0  0  0  0
  7 20  1  0  0  0  0
  8 22  1  1  0  0  0
  8  6  1  0  0  0  0
  8 14  1  0  0  0  0
 10 19  1  0  0  0  0
 10 24  1  1  0  0  0
 11  5  1  6  0  0  0
 11 18  1  0  0  0  0
 11 13  1  0  0  0  0
 13 31  1  1  0  0  0
 13  4  1  0  0  0  0
 14  6  1  1  0  0  0
 14 16  1  0  0  0  0
 15  9  1  6  0  0  0
 15 11  1  0  0  0  0
 16  2  1  0  0  0  0
 16 19  1  1  0  0  0
 17 12  1  6  0  0  0
 17  2  1  0  0  0  0
 20 10  1  0  0  0  0
 21 15  1  0  0  0  0
 22 17  1  0  0  0  0
 24 25  1  0  0  0  0
 24 23  2  0  0  0  0
 26 25  1  0  0  0  0
 27 29  2  0  0  0  0
 28 26  1  0  0  0  0
 29 28  1  0  0  0  0
 29 30  1  0  0  0  0
 30 26  2  0  0  0  0
 33 32  1  0  0  0  0
 33 31  1  0  0  0  0
 33 34  1  0  0  0  0
M  END
>  <MODEL>
2

>  <REMARK>
 VINA RESULT:      -7.0      2.094      5.596
  Name = 
  5 active torsions:
  status: ('A' for Active; 'I' for Inactive)
    1  A    between atoms: C_6  and  C_9
    2  A    between atoms: C_8  and  O_14
    3  A    between atoms: C_9  and  C_21
    4  A    between atoms: O_14  and  C_22
    5  A    between atoms: C_17  and  C_22
                            x       y       z     vdW  Elec       q    Type
                         _______ _______ _______ _____ _____    ______ ____

>  <TORSDO>
F 5

$$$$
=
 OpenBabel11062422063D

 34 39  0  0  1  0  0  0  0  0999 V2000
  192.6680  176.2490  146.8710 C   0  0  0  0  0  1  0  0  0  0  0  0
  189.3460  171.7610  142.9240 C   0  0  2  0  0  3  0  0  0  0  0  0
  187.9920  171.9160  142.6240 O   0  0  0  0  0  1  0  0  0  0  0  0
  192.0470  176.3550  145.4930 C   0  0  1  0  0  3  0  0  0  0  0  0
  194.6490  176.0420  142.7440 O   0  0  0  0  0  0  0  0  0  0  0  0
  192.1020  171.9220  144.2240 C   0  0  0  0  0  2  0  0  0  0  0  0
  192.0880  174.4410  143.8160 C   0  0  2  0  0  3  0  0  0  0  0  0
  192.3080  172.0600  142.7110 C   0  0  2  0  0  3  0  0  0  0  0  0
  196.3560  174.7170  143.8380 C   0  0  0  0  0  1  0  0  0  0  0  0
  189.9010  175.0470  144.9540 C   0  0  2  0  0  3  0  0  0  0  0  0
  193.9480  175.7390  143.9290 C   0  0  2  0  0  0  0  0  0  0  0  0
  190.0260  172.1160  140.6380 O   0  0  0  0  0  1  0  0  0  0  0  0
  193.0840  176.8930  144.4920 C   0  0  1  0  0  3  0  0  0  0  0  0
  191.4760  173.0840  143.4830 C   0  0  1  0  0  0  0  0  0  0  0  0
  195.4180  175.9070  143.9180 C   0  0  2  0  0  0  0  0  0  0  0  0
  189.9480  173.1010  143.3390 C   0  0  2  0  0  3  0  0  0  0  0  0
  190.0840  171.2160  141.7050 C   0  0  1  0  0  3  0  0  0  0  0  0
  193.4850  174.4030  143.9600 O   0  0  0  0  0  0  0  0  0  0  0  0
  189.3170  173.6630  144.6130 C   0  0  0  0  0  2  0  0  0  0  0  0
  191.4370  174.9940  145.0970 C   0  0  2  0  0  3  0  0  0  0  0  0
  195.9440  177.1370  144.3150 O   0  0  0  0  0  1  0  0  0  0  0  0
  191.5350  170.9040  142.0570 C   0  0  0  0  0  2  0  0  0  0  0  0
  189.2090  174.9160  147.3120 C   0  0  0  0  0  2  0  0  0  0  0  0
  189.2360  175.6150  146.1730 C   0  0  0  0  0  0  0  0  0  0  0  0
  188.6900  176.9030  146.0840 O   0  0  0  0  0  0  0  0  0  0  0  0
  187.3300  177.1970  146.2180 C   0  0  0  0  0  0  0  0  0  0  0  0
  184.1280  177.8810  146.5130 O   0  0  0  0  0  0  0  0  0  0  0  0
  186.1300  176.8000  145.5120 C   0  0  0  0  0  2  0  0  0  0  0  0
  185.3460  177.5970  146.3720 C   0  0  0  0  0  0  0  0  0  0  0  0
  186.5910  177.9460  147.0290 N   0  0  0  0  0  0  0  0  0  0  0  0
  192.3770  177.6460  143.3670 C   0  0  0  0  0  2  0  0  0  0  0  0
  191.2270  179.6730  143.8890 O   0  0  0  0  0  1  0  0  0  0  0  0
  191.0880  178.2850  143.8570 C   0  0  1  0  0  3  0  0  0  0  0  0
  189.9600  177.9160  142.9170 C   0  0  0  0  0  1  0  0  0  0  0  0
  2  3  1  6  0  0  0
  2 16  1  0  0  0  0
  4  1  1  1  0  0  0
  5 15  1  0  0  0  0
  7 18  1  1  0  0  0
  7 20  1  0  0  0  0
  8 22  1  6  0  0  0
  8 14  1  0  0  0  0
  8  6  1  0  0  0  0
 10 20  1  0  0  0  0
 10 24  1  1  0  0  0
 11  5  1  6  0  0  0
 11 18  1  0  0  0  0
 11 13  1  0  0  0  0
 13 31  1  6  0  0  0
 13  4  1  0  0  0  0
 14  7  1  0  0  0  0
 14  6  1  1  0  0  0
 15  9  1  1  0  0  0
 15 11  1  0  0  0  0
 15 21  1  0  0  0  0
 16 14  1  0  0  0  0
 16 19  1  1  0  0  0
 17 12  1  6  0  0  0
 17 22  1  0  0  0  0
 17  2  1  0  0  0  0
 19 10  1  0  0  0  0
 20  4  1  0  0  0  0
 24 23  2  0  0  0  0
 25 24  1  0  0  0  0
 25 26  1  0  0  0  0
 26 30  2  0  0  0  0
 28 26  1  0  0  0  0
 28 29  1  0  0  0  0
 29 27  2  0  0  0  0
 29 30  1  0  0  0  0
 31 33  1  0  0  0  0
 33 32  1  0  0  0  0
 34 33  1  0  0  0  0
M  END
>  <MODEL>
3

>  <REMARK>
 VINA RESULT:      -6.8      2.730      6.076
  Name = 
  5 active torsions:
  status: ('A' for Active; 'I' for Inactive)
    1  A    between atoms: C_6  and  C_9
    2  A    between atoms: C_8  and  O_14
    3  A    between atoms: C_9  and  C_21
    4  A    between atoms: O_14  and  C_22
    5  A    between atoms: C_17  and  C_22
                            x       y       z     vdW  Elec       q    Type
                         _______ _______ _______ _____ _____    ______ ____

>  <TORSDO>
F 5

$$$$
=
 OpenBabel11062422063D

 34 39  0  0  1  0  0  0  0  0999 V2000
  193.6170  176.2680  146.2000 C   0  0  0  0  0  1  0  0  0  0  0  0
  189.0690  173.1730  142.1400 C   0  0  2  0  0  3  0  0  0  0  0  0
  188.2630  173.8980  141.2600 O   0  0  0  0  0  1  0  0  0  0  0  0
  193.5290  176.1000  144.6970 C   0  0  1  0  0  3  0  0  0  0  0  0
  195.7580  173.2860  143.4560 O   0  0  0  0  0  0  0  0  0  0  0  0
  190.8830  172.3320  144.4450 C   0  0  0  0  0  2  0  0  0  0  0  0
  192.6330  173.9850  143.6000 C   0  0  2  0  0  3  0  0  0  0  0  0
  191.4370  171.6780  143.1730 C   0  0  2  0  0  3  0  0  0  0  0  0
  195.8730  171.8590  145.4090 C   0  0  0  0  0  1  0  0  0  0  0  0
  191.2320  176.1020  143.5430 C   0  0  2  0  0  3  0  0  0  0  0  0
  194.8070  173.9520  144.2560 C   0  0  2  0  0  0  0  0  0  0  0  0
  190.2680  172.0890  140.3490 O   0  0  0  0  0  1  0  0  0  0  0  0
  194.8380  175.4970  144.1590 C   0  0  1  0  0  3  0  0  0  0  0  0
  191.3600  173.2000  143.3000 C   0  0  1  0  0  0  0  0  0  0  0  0
  195.9750  173.2650  144.8490 C   0  0  2  0  0  0  0  0  0  0  0  0
  190.3060  173.9870  142.5100 C   0  0  2  0  0  3  0  0  0  0  0  0
  189.4890  171.8590  141.4860 C   0  0  1  0  0  3  0  0  0  0  0  0
  193.5800  173.2550  144.3370 O   0  0  0  0  0  0  0  0  0  0  0  0
  189.9630  175.2780  143.2540 C   0  0  0  0  0  2  0  0  0  0  0  0
  192.2680  175.2830  144.3430 C   0  0  2  0  0  3  0  0  0  0  0  0
  197.0880  174.0330  145.1920 O   0  0  0  0  0  1  0  0  0  0  0  0
  190.2480  170.9890  142.4830 C   0  0  0  0  0  2  0  0  0  0  0  0
  191.0870  178.5580  143.6050 C   0  0  0  0  0  2  0  0  0  0  0  0
  190.8800  177.3920  144.2240 C   0  0  0  0  0  0  0  0  0  0  0  0
  190.2960  177.3250  145.4960 O   0  0  0  0  0  0  0  0  0  0  0  0
  188.9330  177.1250  145.7330 C   0  0  0  0  0  0  0  0  0  0  0  0
  185.7320  176.6350  146.2990 O   0  0  0  0  0  0  0  0  0  0  0  0
  188.1700  176.2520  146.6000 C   0  0  0  0  0  2  0  0  0  0  0  0
  186.9660  176.7980  146.1080 C   0  0  0  0  0  0  0  0  0  0  0  0
  187.7990  177.6390  145.2710 N   0  0  0  0  0  0  0  0  0  0  0  0
  195.0660  175.9510  142.7190 C   0  0  0  0  0  2  0  0  0  0  0  0
  196.7720  177.2060  143.8220 O   0  0  0  0  0  1  0  0  0  0  0  0
  196.3790  176.7060  142.5810 C   0  0  1  0  0  3  0  0  0  0  0  0
  197.4430  175.7640  142.0590 C   0  0  0  0  0  1  0  0  0  0  0  0
  2  3  1  6  0  0  0
  2 16  1  0  0  0  0
  4  1  1  1  0  0  0
  5 15  1  0  0  0  0
  7 18  1  1  0  0  0
  7 20  1  0  0  0  0
  8 22  1  6  0  0  0
  8 14  1  0  0  0  0
  8  6  1  0  0  0  0
 10 24  1  1  0  0  0
 10 20  1  0  0  0  0
 11  5  1  6  0  0  0
 11 18  1  0  0  0  0
 11 15  1  0  0  0  0
 13 31  1  6  0  0  0
 13 11  1  0  0  0  0
 13  4  1  0  0  0  0
 14  7  1  0  0  0  0
 14  6  1  1  0  0  0
 15 21  1  0  0  0  0
 15  9  1  1  0  0  0
 16 19  1  1  0  0  0
 16 14  1  0  0  0  0
 17 12  1  6  0  0  0
 17  2  1  0  0  0  0
 17 22  1  0  0  0  0
 19 10  1  0  0  0  0
 20  4  1  0  0  0  0
 23 24  2  0  0  0  0
 24 25  1  0  0  0  0
 25 26  1  0  0  0  0
 26 28  1  0  0  0  0
 29 27  2  0  0  0  0
 29 28  1  0  0  0  0
 30 26  2  0  0  0  0
 30 29  1  0  0  0  0
 33 31  1  0  0  0  0
 33 32  1  0  0  0  0
 34 33  1  0  0  0  0
M  END
>  <MODEL>
4

>  <REMARK>
 VINA RESULT:      -6.8      2.434      6.689
  Name = 
  5 active torsions:
  status: ('A' for Active; 'I' for Inactive)
    1  A    between atoms: C_6  and  C_9
    2  A    between atoms: C_8  and  O_14
    3  A    between atoms: C_9  and  C_21
    4  A    between atoms: O_14  and  C_22
    5  A    between atoms: C_17  and  C_22
                            x       y       z     vdW  Elec       q    Type
                         _______ _______ _______ _____ _____    ______ ____

>  <TORSDO>
F 5

$$$$
=
 OpenBabel11062422063D

 34 39  0  0  1  0  0  0  0  0999 V2000
  189.9280  174.6240  145.8450 C   0  0  0  0  0  1  0  0  0  0  0  0
  188.2680  173.9660  139.2440 C   0  0  2  0  0  3  0  0  0  0  0  0
  187.8190  175.0530  138.4920 O   0  0  0  0  0  1  0  0  0  0  0  0
  190.5430  175.1680  144.5710 C   0  0  1  0  0  3  0  0  0  0  0  0
  193.5510  173.1260  143.4710 O   0  0  0  0  0  0  0  0  0  0  0  0
  188.9960  172.0730  141.5230 C   0  0  0  0  0  2  0  0  0  0  0  0
  190.6150  173.8380  142.4020 C   0  0  2  0  0  3  0  0  0  0  0  0
  190.1600  172.0460  140.5260 C   0  0  2  0  0  3  0  0  0  0  0  0
  193.0430  170.9590  144.4270 C   0  0  0  0  0  1  0  0  0  0  0  0
  189.0310  175.8140  142.5950 C   0  0  2  0  0  3  0  0  0  0  0  0
  192.2430  173.3990  143.9220 C   0  0  2  0  0  0  0  0  0  0  0  0
  190.3060  173.7630  137.9680 O   0  0  0  0  0  1  0  0  0  0  0  0
  192.0390  174.8130  144.5190 C   0  0  1  0  0  3  0  0  0  0  0  0
  189.7670  173.3430  141.2350 C   0  0  1  0  0  0  0  0  0  0  0  0
  193.1310  172.4590  144.6410 C   0  0  2  0  0  0  0  0  0  0  0  0
  189.0490  174.4570  140.4600 C   0  0  2  0  0  3  0  0  0  0  0  0
  189.1590  173.0780  138.3800 C   0  0  1  0  0  3  0  0  0  0  0  0
  191.2520  172.8040  143.1080 O   0  0  0  0  0  0  0  0  0  0  0  0
  188.1890  175.2790  141.4210 C   0  0  0  0  0  2  0  0  0  0  0  0
  189.7350  174.6690  143.3550 C   0  0  2  0  0  3  0  0  0  0  0  0
  193.8220  172.9270  145.7590 O   0  0  0  0  0  1  0  0  0  0  0  0
  189.5420  171.8110  139.1390 C   0  0  0  0  0  2  0  0  0  0  0  0
  188.5800  177.9070  143.8090 C   0  0  0  0  0  2  0  0  0  0  0  0
  188.1920  176.6650  143.5020 C   0  0  0  0  0  0  0  0  0  0  0  0
  186.9860  176.1300  143.9740 O   0  0  0  0  0  0  0  0  0  0  0  0
  186.1130  176.7910  144.8430 C   0  0  0  0  0  0  0  0  0  0  0  0
  184.0650  178.3300  146.9030 O   0  0  0  0  0  0  0  0  0  0  0  0
  185.9150  176.7910  146.2770 C   0  0  0  0  0  2  0  0  0  0  0  0
  184.8650  177.7240  146.1430 C   0  0  0  0  0  0  0  0  0  0  0  0
  185.1250  177.6700  144.7180 N   0  0  0  0  0  0  0  0  0  0  0  0
  192.7950  175.8630  143.7080 C   0  0  0  0  0  2  0  0  0  0  0  0
  193.5950  176.3140  145.9130 O   0  0  0  0  0  1  0  0  0  0  0  0
  193.8270  176.5820  144.5630 C   0  0  1  0  0  3  0  0  0  0  0  0
  195.2100  176.0980  144.1860 C   0  0  0  0  0  1  0  0  0  0  0  0
  2  3  1  6  0  0  0
  2 16  1  0  0  0  0
  4  1  1  1  0  0  0
  5 11  1  0  0  0  0
  5 15  1  0  0  0  0
  7 18  1  1  0  0  0
  7 20  1  0  0  0  0
  8 22  1  6  0  0  0
  8 14  1  0  0  0  0
  8  6  1  0  0  0  0
 10 20  1  0  0  0  0
 10 24  1  1  0  0  0
 11 18  1  6  0  0  0
 11 13  1  0  0  0  0
 11 15  1  0  0  0  0
 13 31  1  6  0  0  0
 13  4  1  0  0  0  0
 14  6  1  1  0  0  0
 14  7  1  0  0  0  0
 15  9  1  6  0  0  0
 15 21  1  0  0  0  0
 16 14  1  0  0  0  0
 16 19  1  1  0  0  0
 17 12  1  1  0  0  0
 17 22  1  0  0  0  0
 17  2  1  0  0  0  0
 19 10  1  0  0  0  0
 20  4  1  0  0  0  0
 24 23  2  0  0  0  0
 24 25  1  0  0  0  0
 25 26  1  0  0  0  0
 26 28  1  0  0  0  0
 29 28  1  0  0  0  0
 29 27  2  0  0  0  0
 30 26  2  0  0  0  0
 30 29  1  0  0  0  0
 31 33  1  0  0  0  0
 33 32  1  0  0  0  0
 34 33  1  0  0  0  0
M  END
>  <MODEL>
5

>  <REMARK>
 VINA RESULT:      -6.8      2.724      6.643
  Name = 
  5 active torsions:
  status: ('A' for Active; 'I' for Inactive)
    1  A    between atoms: C_6  and  C_9
    2  A    between atoms: C_8  and  O_14
    3  A    between atoms: C_9  and  C_21
    4  A    between atoms: O_14  and  C_22
    5  A    between atoms: C_17  and  C_22
                            x       y       z     vdW  Elec       q    Type
                         _______ _______ _______ _____ _____    ______ ____

>  <TORSDO>
F 5

$$$$
=
 OpenBabel11062422063D

 34 39  0  0  1  0  0  0  0  0999 V2000
  191.5680  177.5370  143.1380 C   0  0  0  0  0  1  0  0  0  0  0  0
  192.4960  171.0310  141.2480 C   0  0  2  0  0  3  0  0  0  0  0  0
  193.2480  170.1460  142.0230 O   0  0  0  0  0  1  0  0  0  0  0  0
  191.1030  176.2190  143.7250 C   0  0  1  0  0  3  0  0  0  0  0  0
  187.5140  175.4320  142.7630 O   0  0  0  0  0  0  0  0  0  0  0  0
  191.2980  173.5350  139.9810 C   0  0  0  0  0  2  0  0  0  0  0  0
  190.4450  174.2270  142.2850 C   0  0  2  0  0  3  0  0  0  0  0  0
  190.1380  172.5710  140.2590 C   0  0  2  0  0  3  0  0  0  0  0  0
  187.2980  176.6300  140.6690 C   0  0  0  0  0  1  0  0  0  0  0  0
  192.6230  174.1510  143.5880 C   0  0  2  0  0  3  0  0  0  0  0  0
  188.8600  175.8210  142.6070 C   0  0  2  0  0  0  0  0  0  0  0  0
  190.4410  169.8300  141.6380 O   0  0  0  0  0  1  0  0  0  0  0  0
  189.5760  176.2400  143.9140 C   0  0  1  0  0  3  0  0  0  0  0  0
  190.9980  173.1110  141.4030 C   0  0  1  0  0  0  0  0  0  0  0  0
  187.7470  176.6640  142.1190 C   0  0  2  0  0  0  0  0  0  0  0  0
  192.0090  172.1950  142.1060 C   0  0  2  0  0  3  0  0  0  0  0  0
  191.3030  170.2980  140.6420 C   0  0  1  0  0  3  0  0  0  0  0  0
  189.5340  175.0650  141.6200 O   0  0  0  0  0  0  0  0  0  0  0  0
  193.1560  173.0330  142.6720 C   0  0  0  0  0  2  0  0  0  0  0  0
  191.6140  175.0560  142.8490 C   0  0  2  0  0  3  0  0  0  0  0  0
  187.3290  177.7310  142.9140 O   0  0  0  0  0  1  0  0  0  0  0  0
  190.5520  171.2100  139.6770 C   0  0  0  0  0  2  0  0  0  0  0  0
  194.5580  175.6590  143.3970 C   0  0  0  0  0  2  0  0  0  0  0  0
  193.7580  174.9320  144.1820 C   0  0  0  0  0  0  0  0  0  0  0  0
  193.9170  174.9030  145.5750 O   0  0  0  0  0  0  0  0  0  0  0  0
  193.1080  175.5980  146.4790 C   0  0  0  0  0  0  0  0  0  0  0  0
  191.1920  177.2170  148.6020 O   0  0  0  0  0  0  0  0  0  0  0  0
  191.9390  175.2610  147.2630 C   0  0  0  0  0  2  0  0  0  0  0  0
  191.9060  176.5680  147.7950 C   0  0  0  0  0  0  0  0  0  0  0  0
  193.0770  176.8280  146.9810 N   0  0  0  0  0  0  0  0  0  0  0  0
  189.1830  175.3240  145.0710 C   0  0  0  0  0  2  0  0  0  0  0  0
  188.3290  175.4270  147.2980 O   0  0  0  0  0  1  0  0  0  0  0  0
  188.2560  176.0340  146.0450 C   0  0  1  0  0  3  0  0  0  0  0  0
  188.6750  177.4840  146.1640 C   0  0  0  0  0  1  0  0  0  0  0  0
  2  3  1  1  0  0  0
  2 16  1  0  0  0  0
  4  1  1  6  0  0  0
  4 13  1  0  0  0  0
  6  8  1  0  0  0  0
  7 18  1  6  0  0  0
  7 20  1  0  0  0  0
  8 22  1  6  0  0  0
  8 14  1  0  0  0  0
 10 24  1  6  0  0  0
 11 18  1  6  0  0  0
 11  5  1  0  0  0  0
 11 13  1  0  0  0  0
 13 31  1  1  0  0  0
 14  6  1  6  0  0  0
 14 16  1  0  0  0  0
 14  7  1  0  0  0  0
 15  9  1  6  0  0  0
 15 11  1  0  0  0  0
 15  5  1  0  0  0  0
 15 21  1  0  0  0  0
 16 19  1  6  0  0  0
 17  2  1  0  0  0  0
 17 12  1  1  0  0  0
 19 10  1  0  0  0  0
 20 10  1  0  0  0  0
 20  4  1  0  0  0  0
 22 17  1  0  0  0  0
 23 24  2  0  0  0  0
 24 25  1  0  0  0  0
 25 26  1  0  0  0  0
 26 30  2  0  0  0  0
 26 28  1  0  0  0  0
 28 29  1  0  0  0  0
 29 27  2  0  0  0  0
 30 29  1  0  0  0  0
 31 33  1  0  0  0  0
 33 34  1  0  0  0  0
 33 32  1  0  0  0  0
M  END
>  <MODEL>
6

>  <REMARK>
 VINA RESULT:      -6.6      1.650      2.628
  Name = 
  5 active torsions:
  status: ('A' for Active; 'I' for Inactive)
    1  A    between atoms: C_6  and  C_9
    2  A    between atoms: C_8  and  O_14
    3  A    between atoms: C_9  and  C_21
    4  A    between atoms: O_14  and  C_22
    5  A    between atoms: C_17  and  C_22
                            x       y       z     vdW  Elec       q    Type
                         _______ _______ _______ _____ _____    ______ ____

>  <TORSDO>
F 5

$$$$
=
 OpenBabel11062422063D

 34 39  0  0  1  0  0  0  0  0999 V2000
  189.6900  172.5640  145.0260 C   0  0  0  0  0  1  0  0  0  0  0  0
  195.0680  174.6260  141.3410 C   0  0  2  0  0  3  0  0  0  0  0  0
  195.0890  174.5060  139.9500 O   0  0  0  0  0  1  0  0  0  0  0  0
  189.8790  173.6810  144.0180 C   0  0  1  0  0  3  0  0  0  0  0  0
  190.4250  177.0360  145.7120 O   0  0  0  0  0  0  0  0  0  0  0  0
  194.4400  174.2880  144.3070 C   0  0  0  0  0  2  0  0  0  0  0  0
  192.0400  175.0090  143.8270 C   0  0  2  0  0  3  0  0  0  0  0  0
  194.5460  175.7930  144.0380 C   0  0  2  0  0  3  0  0  0  0  0  0
  191.3840  176.3610  147.8310 C   0  0  0  0  0  1  0  0  0  0  0  0
  191.4460  173.3390  142.0100 C   0  0  2  0  0  3  0  0  0  0  0  0
  190.5820  175.6610  145.4400 C   0  0  2  0  0  0  0  0  0  0  0  0
  195.0520  177.0360  141.2610 O   0  0  0  0  0  1  0  0  0  0  0  0
  189.4300  175.0190  144.6290 C   0  0  1  0  0  3  0  0  0  0  0  0
  193.4840  174.9460  143.3370 C   0  0  1  0  0  0  0  0  0  0  0  0
  190.2870  176.1540  146.8030 C   0  0  2  0  0  0  0  0  0  0  0  0
  193.6280  174.6070  141.8470 C   0  0  2  0  0  3  0  0  0  0  0  0
  195.7470  175.9290  141.7540 C   0  0  1  0  0  3  0  0  0  0  0  0
  191.9280  175.3060  145.1960 O   0  0  0  0  0  0  0  0  0  0  0  0
  192.9150  173.2880  141.5480 C   0  0  0  0  0  2  0  0  0  0  0  0
  191.3370  173.6770  143.5120 C   0  0  2  0  0  3  0  0  0  0  0  0
  188.9650  176.1120  147.2490 O   0  0  0  0  0  1  0  0  0  0  0  0
  195.8620  176.0090  143.2730 C   0  0  0  0  0  2  0  0  0  0  0  0
  191.3740  170.8900  141.7680 C   0  0  0  0  0  2  0  0  0  0  0  0
  190.7390  172.0610  141.6620 C   0  0  0  0  0  0  0  0  0  0  0  0
  189.3960  172.1410  141.2680 O   0  0  0  0  0  0  0  0  0  0  0  0
  188.9270  172.9240  140.2090 C   0  0  0  0  0  0  0  0  0  0  0  0
  187.8170  174.7800  137.7340 O   0  0  0  0  0  0  0  0  0  0  0  0
  188.5660  174.3170  140.0590 C   0  0  0  0  0  2  0  0  0  0  0  0
  188.2420  174.0980  138.7030 C   0  0  0  0  0  0  0  0  0  0  0  0
  188.6240  172.7190  138.9320 N   0  0  0  0  0  0  0  0  0  0  0  0
  188.9480  175.9580  143.5260 C   0  0  0  0  0  2  0  0  0  0  0  0
  187.6950  177.9000  144.1300 O   0  0  0  0  0  1  0  0  0  0  0  0
  187.5800  176.5370  143.8550 C   0  0  1  0  0  3  0  0  0  0  0  0
  186.6580  176.3410  142.6710 C   0  0  0  0  0  1  0  0  0  0  0  0
  2  3  1  6  0  0  0
  2 17  1  0  0  0  0
  2 16  1  0  0  0  0
  4 13  1  0  0  0  0
  4  1  1  1  0  0  0
  5 15  1  0  0  0  0
  7 18  1  1  0  0  0
  8 22  1  6  0  0  0
  8  6  1  0  0  0  0
 10 24  1  1  0  0  0
 10 20  1  0  0  0  0
 11 18  1  6  0  0  0
 11  5  1  0  0  0  0
 11 15  1  0  0  0  0
 13 31  1  6  0  0  0
 13 11  1  0  0  0  0
 14  7  1  0  0  0  0
 14  8  1  0  0  0  0
 14  6  1  1  0  0  0
 15 21  1  0  0  0  0
 15  9  1  1  0  0  0
 16 19  1  1  0  0  0
 16 14  1  0  0  0  0
 17 12  1  1  0  0  0
 17 22  1  0  0  0  0
 19 10  1  0  0  0  0
 20  7  1  0  0  0  0
 20  4  1  0  0  0  0
 24 23  2  0  0  0  0
 25 24  1  0  0  0  0
 26 25  1  0  0  0  0
 27 29  2  0  0  0  0
 28 26  1  0  0  0  0
 29 30  1  0  0  0  0
 29 28  1  0  0  0  0
 30 26  2  0  0  0  0
 31 33  1  0  0  0  0
 33 32  1  0  0  0  0
 34 33  1  0  0  0  0
M  END
>  <MODEL>
7

>  <REMARK>
 VINA RESULT:      -6.6      2.707      6.026
  Name = 
  5 active torsions:
  status: ('A' for Active; 'I' for Inactive)
    1  A    between atoms: C_6  and  C_9
    2  A    between atoms: C_8  and  O_14
    3  A    between atoms: C_9  and  C_21
    4  A    between atoms: O_14  and  C_22
    5  A    between atoms: C_17  and  C_22
                            x       y       z     vdW  Elec       q    Type
                         _______ _______ _______ _____ _____    ______ ____

>  <TORSDO>
F 5

$$$$
=
 OpenBabel11062422063D

 34 39  0  0  1  0  0  0  0  0999 V2000
  189.3280  172.7650  144.3420 C   0  0  0  0  0  1  0  0  0  0  0  0
  195.5430  174.4520  142.0460 C   0  0  2  0  0  3  0  0  0  0  0  0
  195.9830  174.0670  140.7780 O   0  0  0  0  0  1  0  0  0  0  0  0
  189.7990  173.6750  143.2250 C   0  0  1  0  0  3  0  0  0  0  0  0
  189.7750  177.3250  144.2730 O   0  0  0  0  0  0  0  0  0  0  0  0
  194.0560  174.6530  144.7030 C   0  0  0  0  0  2  0  0  0  0  0  0
  191.9040  175.0930  143.4040 C   0  0  2  0  0  3  0  0  0  0  0  0
  194.2220  176.0810  144.1700 C   0  0  2  0  0  3  0  0  0  0  0  0
  190.0600  177.1450  146.6710 C   0  0  0  0  0  1  0  0  0  0  0  0
  191.9010  173.0630  141.8780 C   0  0  2  0  0  3  0  0  0  0  0  0
  190.0210  175.9390  144.3490 C   0  0  2  0  0  0  0  0  0  0  0  0
  195.5260  176.7940  141.4690 O   0  0  0  0  0  1  0  0  0  0  0  0
  189.1730  175.0700  143.3880 C   0  0  1  0  0  3  0  0  0  0  0  0
  193.4290  175.0390  143.3800 C   0  0  1  0  0  0  0  0  0  0  0  0
  189.3250  176.6640  145.4340 C   0  0  2  0  0  0  0  0  0  0  0  0
  194.0180  174.4280  142.1020 C   0  0  2  0  0  3  0  0  0  0  0  0
  196.0520  175.8560  142.3610 C   0  0  1  0  0  3  0  0  0  0  0  0
  191.3820  175.6400  144.5870 O   0  0  0  0  0  0  0  0  0  0  0  0
  193.4410  173.0290  141.8870 C   0  0  0  0  0  2  0  0  0  0  0  0
  191.3410  173.6770  143.1800 C   0  0  2  0  0  3  0  0  0  0  0  0
  187.9310  176.6150  145.4720 O   0  0  0  0  0  1  0  0  0  0  0  0
  195.7050  176.2380  143.7970 C   0  0  0  0  0  2  0  0  0  0  0  0
  191.4670  170.7280  142.5250 C   0  0  0  0  0  2  0  0  0  0  0  0
  191.3450  171.6950  141.6120 C   0  0  0  0  0  0  0  0  0  0  0  0
  190.6670  171.4870  140.4020 O   0  0  0  0  0  0  0  0  0  0  0  0
  189.8220  172.4220  139.7970 C   0  0  0  0  0  0  0  0  0  0  0  0
  187.8190  174.6080  138.3790 O   0  0  0  0  0  0  0  0  0  0  0  0
  188.4050  172.7080  139.8710 C   0  0  0  0  0  2  0  0  0  0  0  0
  188.5580  173.7580  138.9410 C   0  0  0  0  0  0  0  0  0  0  0  0
  189.9650  173.4110  138.9220 N   0  0  0  0  0  0  0  0  0  0  0  0
  189.0350  175.7410  142.0230 C   0  0  0  0  0  2  0  0  0  0  0  0
  186.7530  175.5260  142.6930 O   0  0  0  0  0  1  0  0  0  0  0  0
  187.5840  176.0830  141.7220 C   0  0  1  0  0  3  0  0  0  0  0  0
  187.4170  177.5870  141.7220 C   0  0  0  0  0  1  0  0  0  0  0  0
  2  3  1  6  0  0  0
  2 16  1  0  0  0  0
  2 17  1  0  0  0  0
  4 13  1  0  0  0  0
  4  1  1  1  0  0  0
  5 15  1  0  0  0  0
  7 18  1  1  0  0  0
  8 22  1  6  0  0  0
  8  6  1  0  0  0  0
 10 24  1  1  0  0  0
 10 19  1  0  0  0  0
 10 20  1  0  0  0  0
 11  5  1  6  0  0  0
 11 18  1  0  0  0  0
 11 15  1  0  0  0  0
 13 31  1  6  0  0  0
 13 11  1  0  0  0  0
 14  7  1  0  0  0  0
 14  8  1  0  0  0  0
 14  6  1  1  0  0  0
 15 21  1  0  0  0  0
 15  9  1  1  0  0  0
 16 19  1  1  0  0  0
 16 14  1  0  0  0  0
 17 12  1  6  0  0  0
 17 22  1  0  0  0  0
 20  4  1  0  0  0  0
 20  7  1  0  0  0  0
 24 23  2  0  0  0  0
 25 24  1  0  0  0  0
 26 28  1  0  0  0  0
 26 25  1  0  0  0  0
 27 29  2  0  0  0  0
 29 28  1  0  0  0  0
 30 29  1  0  0  0  0
 30 26  2  0  0  0  0
 33 31  1  0  0  0  0
 33 32  1  0  0  0  0
 34 33  1  0  0  0  0
M  END
>  <MODEL>
8

>  <REMARK>
 VINA RESULT:      -6.4      2.385      5.874
  Name = 
  5 active torsions:
  status: ('A' for Active; 'I' for Inactive)
    1  A    between atoms: C_6  and  C_9
    2  A    between atoms: C_8  and  O_14
    3  A    between atoms: C_9  and  C_21
    4  A    between atoms: O_14  and  C_22
    5  A    between atoms: C_17  and  C_22
                            x       y       z     vdW  Elec       q    Type
                         _______ _______ _______ _____ _____    ______ ____

>  <TORSDO>
F 5

$$$$
=
 OpenBabel11062422063D

 34 39  0  0  1  0  0  0  0  0999 V2000
  192.5240  175.6670  142.9210 C   0  0  0  0  0  1  0  0  0  0  0  0
  195.1590  169.8220  145.2980 C   0  0  2  0  0  3  0  0  0  0  0  0
  195.6700  169.7250  146.5940 O   0  0  0  0  0  1  0  0  0  0  0  0
  192.0810  174.7050  144.0060 C   0  0  1  0  0  3  0  0  0  0  0  0
  189.3520  172.3620  142.7860 O   0  0  0  0  0  0  0  0  0  0  0  0
  194.1820  170.8510  142.5970 C   0  0  0  0  0  2  0  0  0  0  0  0
  192.3820  172.1860  143.8160 C   0  0  2  0  0  3  0  0  0  0  0  0
  193.1790  169.7900  143.0650 C   0  0  2  0  0  3  0  0  0  0  0  0
  189.8010  172.2880  140.4070 C   0  0  0  0  0  1  0  0  0  0  0  0
  193.8390  173.4910  145.4350 C   0  0  2  0  0  3  0  0  0  0  0  0
  190.5670  173.0770  142.7830 C   0  0  2  0  0  0  0  0  0  0  0  0
  193.3410  168.3070  145.7630 O   0  0  0  0  0  1  0  0  0  0  0  0
  190.6240  174.2760  143.7610 C   0  0  1  0  0  3  0  0  0  0  0  0
  193.4110  171.0620  143.8820 C   0  0  1  0  0  0  0  0  0  0  0  0
  189.6220  173.1460  141.6460 C   0  0  2  0  0  0  0  0  0  0  0  0
  194.1900  170.9970  145.2030 C   0  0  2  0  0  3  0  0  0  0  0  0
  194.4420  168.5260  144.9310 C   0  0  1  0  0  3  0  0  0  0  0  0
  191.6900  172.2390  142.5940 O   0  0  0  0  0  0  0  0  0  0  0  0
  194.8650  172.3430  145.4690 C   0  0  0  0  0  2  0  0  0  0  0  0
  193.0780  173.5310  144.0920 C   0  0  2  0  0  3  0  0  0  0  0  0
  188.7570  174.2380  141.5740 O   0  0  0  0  0  1  0  0  0  0  0  0
  194.0030  168.5570  143.4700 C   0  0  0  0  0  2  0  0  0  0  0  0
  193.8760  175.7040  146.5120 C   0  0  0  0  0  2  0  0  0  0  0  0
  194.5000  174.8000  145.7520 C   0  0  0  0  0  0  0  0  0  0  0  0
  195.7950  175.0170  145.2590 O   0  0  0  0  0  0  0  0  0  0  0  0
  196.0870  175.4410  143.9590 C   0  0  0  0  0  0  0  0  0  0  0  0
  196.7780  176.4160  140.8970 O   0  0  0  0  0  0  0  0  0  0  0  0
  196.2300  174.7740  142.6820 C   0  0  0  0  0  2  0  0  0  0  0  0
  196.5100  176.0080  142.0580 C   0  0  0  0  0  0  0  0  0  0  0  0
  196.3490  176.6020  143.3700 N   0  0  0  0  0  0  0  0  0  0  0  0
  189.9530  173.9300  145.0880 C   0  0  0  0  0  2  0  0  0  0  0  0
  188.5660  175.8690  145.2280 O   0  0  0  0  0  1  0  0  0  0  0  0
  189.5990  175.1850  145.8700 C   0  0  1  0  0  3  0  0  0  0  0  0
  189.1540  174.7960  147.2630 C   0  0  0  0  0  1  0  0  0  0  0  0
  2  3  1  1  0  0  0
  4  1  1  6  0  0  0
  4 20  1  0  0  0  0
  7 18  1  6  0  0  0
  7 14  1  0  0  0  0
  7 20  1  0  0  0  0
  8  6  1  6  0  0  0
  8 22  1  0  0  0  0
  8 14  1  0  0  0  0
 10 19  1  0  0  0  0
 10 24  1  6  0  0  0
 11 18  1  6  0  0  0
 11  5  1  0  0  0  0
 11 13  1  0  0  0  0
 13  4  1  0  0  0  0
 13 31  1  1  0  0  0
 14  6  1  6  0  0  0
 14 16  1  0  0  0  0
 15  9  1  6  0  0  0
 15 11  1  0  0  0  0
 15  5  1  0  0  0  0
 16  2  1  0  0  0  0
 16 19  1  6  0  0  0
 17  2  1  0  0  0  0
 17 12  1  1  0  0  0
 20 10  1  0  0  0  0
 21 15  1  0  0  0  0
 22 17  1  0  0  0  0
 24 23  2  0  0  0  0
 25 24  1  0  0  0  0
 26 25  1  0  0  0  0
 27 29  2  0  0  0  0
 28 26  1  0  0  0  0
 29 28  1  0  0  0  0
 29 30  1  0  0  0  0
 30 26  2  0  0  0  0
 31 33  1  0  0  0  0
 32 33  1  0  0  0  0
 33 34  1  0  0  0  0
M  END
>  <MODEL>
9

>  <REMARK>
 VINA RESULT:      -6.3      2.447      3.937
  Name = 
  5 active torsions:
  status: ('A' for Active; 'I' for Inactive)
    1  A    between atoms: C_6  and  C_9
    2  A    between atoms: C_8  and  O_14
    3  A    between atoms: C_9  and  C_21
    4  A    between atoms: O_14  and  C_22
    5  A    between atoms: C_17  and  C_22
                            x       y       z     vdW  Elec       q    Type
                         _______ _______ _______ _____ _____    ______ ____

>  <TORSDO>
F 5

$$$$
