=
 OpenBabel11062421133D

 33 37  0  0  1  0  0  0  0  0999 V2000
  189.5410  174.9970  145.3110 C   0  0  1  0  0  3  0  0  0  0  0  0
  188.8430  177.7810  146.5090 C   0  0  0  0  0  2  0  0  0  0  0  0
  189.8100  173.6280  145.1970 O   0  0  0  0  0  1  0  0  0  0  0  0
  188.9060  175.2850  146.6430 C   0  0  0  0  0  0  0  0  0  0  0  0
  188.0510  176.5070  146.8330 C   0  0  2  0  0  3  0  0  0  0  0  0
  189.2010  177.8680  145.0280 C   0  0  0  0  0  2  0  0  0  0  0  0
  190.8230  175.8280  145.1860 C   0  0  2  0  0  3  0  0  0  0  0  0
  189.1290  174.5630  147.6020 O   0  0  0  0  0  0  0  0  0  0  0  0
  190.5760  177.2730  144.7150 C   0  0  0  0  0  2  0  0  0  0  0  0
  185.6880  177.3810  146.6220 C   0  0  0  0  0  2  0  0  0  0  0  0
  183.9650  178.2440  142.6890 C   0  0  0  0  0  3  0  0  0  0  0  0
  186.7250  176.4120  146.0620 C   0  0  1  0  0  3  0  0  0  0  0  0
  187.8100  175.8990  142.7290 C   0  0  0  0  0  2  0  0  0  0  0  0
  186.9000  176.8060  144.6040 C   0  0  2  0  0  3  0  0  0  0  0  0
  187.5760  177.2240  141.9800 C   0  0  0  0  0  2  0  0  0  0  0  0
  185.7420  177.6180  144.2670 N   0  0  0  0  0  0  0  0  0  0  0  0
  184.9320  177.9310  145.4290 C   0  0  0  0  0  2  0  0  0  0  0  0
  185.6110  177.7180  140.4920 C   0  0  0  0  0  0  0  0  0  0  0  0
  186.9130  175.6630  143.7930 O   0  0  0  0  0  0  0  0  0  0  0  0
  184.2930  178.1320  140.3000 C   0  0  0  0  0  3  0  0  0  0  0  0
  185.2850  177.8250  142.9120 C   0  0  0  0  0  0  0  0  0  0  0  0
  186.6020  177.4170  139.0700 Cl  0  0  0  0  0  0  0  0  0  0  0  0
  183.4710  178.3990  141.3940 C   0  0  0  0  0  3  0  0  0  0  0  0
  186.1220  177.5630  141.7950 C   0  0  0  0  0  0  0  0  0  0  0  0
  195.3030  174.1410  143.9850 C   0  0  0  0  0  0  0  0  0  0  0  0
  193.6520  175.3100  146.0050 C   0  0  0  0  0  2  0  0  0  0  0  0
  195.9040  174.5730  145.2500 C   0  0  0  0  0  0  0  0  0  0  0  0
  191.7740  175.1890  144.2820 N   0  0  0  0  0  2  0  0  0  0  0  0
  196.0250  173.5790  143.0740 N   0  0  0  0  0  2  0  0  0  0  0  0
  197.2350  174.4260  145.4700 F   0  0  0  0  0  0  0  0  0  0  0  0
  193.1440  174.9600  144.6200 C   0  0  0  0  0  0  0  0  0  0  0  0
  193.9200  174.4060  143.7350 N   0  0  0  0  0  0  0  0  0  0  0  0
  195.1380  175.1390  146.1790 C   0  0  0  0  0  3  0  0  0  0  0  0
  1  3  1  1  0  0  0
  1  4  1  0  0  0  0
  4  5  1  0  0  0  0
  4  8  2  0  0  0  0
  5  2  1  6  0  0  0
  6  2  1  0  0  0  0
  7 28  1  6  0  0  0
  7  1  1  0  0  0  0
  9  6  1  0  0  0  0
  9  7  1  0  0  0  0
 11 21  1  0  0  0  0
 12 10  1  1  0  0  0
 12  5  1  0  0  0  0
 13 19  1  0  0  0  0
 14 19  1  6  0  0  0
 14 12  1  0  0  0  0
 15 13  1  0  0  0  0
 16 14  1  0  0  0  0
 16 17  1  0  0  0  0
 17 10  1  0  0  0  0
 18 24  1  0  0  0  0
 20 18  2  0  0  0  0
 20 23  1  0  0  0  0
 21 16  1  0  0  0  0
 22 18  1  0  0  0  0
 23 11  2  0  0  0  0
 24 15  1  0  0  0  0
 24 21  2  0  0  0  0
 25 27  1  0  0  0  0
 26 33  1  0  0  0  0
 27 30  1  0  0  0  0
 27 33  2  0  0  0  0
 28 31  1  0  0  0  0
 29 25  2  0  0  0  0
 31 26  1  0  0  0  0
 32 25  1  0  0  0  0
 32 31  2  0  0  0  0
M  END
>  <MODEL>
1

>  <REMARK>
 VINA RESULT:      -9.7      0.000      0.000
  Name = 
  2 active torsions:
  status: ('A' for Active; 'I' for Inactive)
    1  A    between atoms: C_8  and  C_16
    2  A    between atoms: N_19  and  C_27
                            x       y       z     vdW  Elec       q    Type
                         _______ _______ _______ _____ _____    ______ ____

>  <TORSDO>
F 2

$$$$
=
 OpenBabel11062421133D

 33 37  0  0  1  0  0  0  0  0999 V2000
  194.4900  175.2030  145.3490 C   0  0  1  0  0  3  0  0  0  0  0  0
  192.7110  176.3160  143.0530 C   0  0  0  0  0  2  0  0  0  0  0  0
  195.3460  175.1360  146.4540 O   0  0  0  0  0  1  0  0  0  0  0  0
  193.9270  176.5910  145.2210 C   0  0  0  0  0  0  0  0  0  0  0  0
  192.6300  176.8250  144.4990 C   0  0  2  0  0  3  0  0  0  0  0  0
  192.8430  174.7970  142.9910 C   0  0  0  0  0  2  0  0  0  0  0  0
  195.2280  174.8490  144.0520 C   0  0  2  0  0  3  0  0  0  0  0  0
  194.5500  177.5510  145.6480 O   0  0  0  0  0  0  0  0  0  0  0  0
  194.3000  174.3300  142.9380 C   0  0  0  0  0  2  0  0  0  0  0  0
  191.4700  176.6570  146.7390 C   0  0  0  0  0  2  0  0  0  0  0  0
  187.1180  177.0590  147.0410 C   0  0  0  0  0  3  0  0  0  0  0  0
  191.4270  176.2560  145.2680 C   0  0  1  0  0  3  0  0  0  0  0  0
  188.8060  176.5220  142.9000 C   0  0  0  0  0  2  0  0  0  0  0  0
  190.1140  176.8080  144.7360 C   0  0  2  0  0  3  0  0  0  0  0  0
  187.9130  177.6900  143.3600 C   0  0  0  0  0  2  0  0  0  0  0  0
  189.2970  177.0930  145.9050 N   0  0  0  0  0  0  0  0  0  0  0  0
  190.0370  176.9430  147.1440 C   0  0  0  0  0  2  0  0  0  0  0  0
  185.7580  177.4490  144.6310 C   0  0  0  0  0  0  0  0  0  0  0  0
  189.4700  175.8460  143.9460 O   0  0  0  0  0  0  0  0  0  0  0  0
  185.0490  177.2950  145.8220 C   0  0  0  0  0  3  0  0  0  0  0  0
  187.8580  177.2070  145.8580 C   0  0  0  0  0  0  0  0  0  0  0  0
  184.8460  177.7080  143.1500 Cl  0  0  0  0  0  0  0  0  0  0  0  0
  185.7250  177.1040  147.0260 C   0  0  0  0  0  3  0  0  0  0  0  0
  187.1660  177.4100  144.6350 C   0  0  0  0  0  0  0  0  0  0  0  0
  196.8350  170.3980  145.4540 C   0  0  0  0  0  0  0  0  0  0  0  0
  194.5730  172.0730  144.9530 C   0  0  0  0  0  2  0  0  0  0  0  0
  195.4910  169.9170  145.7870 C   0  0  0  0  0  0  0  0  0  0  0  0
  196.2730  173.8610  144.2990 N   0  0  0  0  0  2  0  0  0  0  0  0
  197.8660  169.6440  145.6410 N   0  0  0  0  0  2  0  0  0  0  0  0
  195.3100  168.6880  146.3330 F   0  0  0  0  0  0  0  0  0  0  0  0
  196.0050  172.5370  144.7690 C   0  0  0  0  0  0  0  0  0  0  0  0
  197.0080  171.7370  144.9840 N   0  0  0  0  0  0  0  0  0  0  0  0
  194.4420  170.7080  145.5750 C   0  0  0  0  0  3  0  0  0  0  0  0
  1  3  1  1  0  0  0
  4  1  1  0  0  0  0
  4  8  2  0  0  0  0
  5  2  1  6  0  0  0
  5  4  1  0  0  0  0
  5 12  1  0  0  0  0
  6  2  1  0  0  0  0
  7 28  1  1  0  0  0
  7  1  1  0  0  0  0
  9  6  1  0  0  0  0
  9  7  1  0  0  0  0
 10 17  1  0  0  0  0
 12 10  1  1  0  0  0
 13 15  1  0  0  0  0
 13 19  1  0  0  0  0
 14 19  1  6  0  0  0
 14 12  1  0  0  0  0
 14 16  1  0  0  0  0
 15 24  1  0  0  0  0
 16 17  1  0  0  0  0
 18 24  2  0  0  0  0
 18 20  1  0  0  0  0
 20 23  2  0  0  0  0
 21 16  1  0  0  0  0
 21 11  2  0  0  0  0
 22 18  1  0  0  0  0
 23 11  1  0  0  0  0
 24 21  1  0  0  0  0
 25 29  2  0  0  0  0
 25 27  1  0  0  0  0
 26 33  1  0  0  0  0
 27 30  1  0  0  0  0
 28 31  1  0  0  0  0
 31 26  1  0  0  0  0
 31 32  2  0  0  0  0
 32 25  1  0  0  0  0
 33 27  2  0  0  0  0
M  END
>  <MODEL>
2

>  <REMARK>
 VINA RESULT:      -9.7      2.918      4.722
  Name = 
  2 active torsions:
  status: ('A' for Active; 'I' for Inactive)
    1  A    between atoms: C_8  and  C_16
    2  A    between atoms: N_19  and  C_27
                            x       y       z     vdW  Elec       q    Type
                         _______ _______ _______ _____ _____    ______ ____

>  <TORSDO>
F 2

$$$$
=
 OpenBabel11062421133D

 33 37  0  0  1  0  0  0  0  0999 V2000
  191.9220  173.2490  144.0730 C   0  0  1  0  0  3  0  0  0  0  0  0
  191.0900  174.9340  146.5510 C   0  0  0  0  0  2  0  0  0  0  0  0
  191.9740  172.2310  143.1140 O   0  0  0  0  0  1  0  0  0  0  0  0
  190.6440  173.1480  144.8590 C   0  0  0  0  0  0  0  0  0  0  0  0
  190.0780  174.3550  145.5530 C   0  0  2  0  0  3  0  0  0  0  0  0
  192.3140  175.5150  145.8490 C   0  0  0  0  0  2  0  0  0  0  0  0
  193.1070  173.1610  145.0430 C   0  0  2  0  0  3  0  0  0  0  0  0
  190.0870  172.0700  144.9930 O   0  0  0  0  0  0  0  0  0  0  0  0
  193.4540  174.5030  145.7130 C   0  0  0  0  0  2  0  0  0  0  0  0
  189.3120  174.7880  143.1830 C   0  0  0  0  0  2  0  0  0  0  0  0
  185.7790  177.2540  142.3900 C   0  0  0  0  0  3  0  0  0  0  0  0
  189.5490  175.4010  144.5590 C   0  0  1  0  0  3  0  0  0  0  0  0
  187.4140  177.3730  146.5850 C   0  0  0  0  0  2  0  0  0  0  0  0
  188.2000  175.9510  144.9960 C   0  0  2  0  0  3  0  0  0  0  0  0
  185.9700  177.0020  146.1950 C   0  0  0  0  0  2  0  0  0  0  0  0
  187.3950  176.0400  143.7880 N   0  0  0  0  0  0  0  0  0  0  0  0
  188.0460  175.4270  142.6460 C   0  0  0  0  0  2  0  0  0  0  0  0
  184.5080  178.3250  144.6370 C   0  0  0  0  0  0  0  0  0  0  0  0
  188.3550  177.2320  145.5430 O   0  0  0  0  0  0  0  0  0  0  0  0
  184.0740  178.6630  143.3550 C   0  0  0  0  0  3  0  0  0  0  0  0
  186.2400  176.8990  143.6660 C   0  0  0  0  0  0  0  0  0  0  0  0
  183.6580  179.0190  146.0110 Cl  0  0  0  0  0  0  0  0  0  0  0  0
  184.7040  178.1270  142.2330 C   0  0  0  0  0  3  0  0  0  0  0  0
  185.5900  177.4400  144.8070 C   0  0  0  0  0  0  0  0  0  0  0  0
  196.9030  170.0390  144.6050 C   0  0  0  0  0  0  0  0  0  0  0  0
  194.5540  170.7530  146.0690 C   0  0  0  0  0  2  0  0  0  0  0  0
  196.5810  169.3290  145.8470 C   0  0  0  0  0  0  0  0  0  0  0  0
  194.2940  172.6420  144.3730 N   0  0  0  0  0  2  0  0  0  0  0  0
  197.9400  169.7080  143.9110 N   0  0  0  0  0  2  0  0  0  0  0  0
  197.3870  168.3410  146.3100 F   0  0  0  0  0  0  0  0  0  0  0  0
  195.0370  171.5190  144.8530 C   0  0  0  0  0  0  0  0  0  0  0  0
  196.0980  171.1480  144.1980 N   0  0  0  0  0  0  0  0  0  0  0  0
  195.5000  169.6800  146.5390 C   0  0  0  0  0  3  0  0  0  0  0  0
  1  3  1  6  0  0  0
  1  4  1  0  0  0  0
  1  7  1  0  0  0  0
  4  8  2  0  0  0  0
  4  5  1  0  0  0  0
  5  2  1  6  0  0  0
  6  2  1  0  0  0  0
  7 28  1  6  0  0  0
  7  9  1  0  0  0  0
  9  6  1  0  0  0  0
 11 21  1  0  0  0  0
 12 10  1  6  0  0  0
 12 14  1  0  0  0  0
 12  5  1  0  0  0  0
 14 19  1  6  0  0  0
 15 13  1  0  0  0  0
 16 14  1  0  0  0  0
 17 10  1  0  0  0  0
 17 16  1  0  0  0  0
 18 24  1  0  0  0  0
 18 22  1  0  0  0  0
 19 13  1  0  0  0  0
 20 18  2  0  0  0  0
 21 16  1  0  0  0  0
 21 24  2  0  0  0  0
 23 11  2  0  0  0  0
 23 20  1  0  0  0  0
 24 15  1  0  0  0  0
 25 27  1  0  0  0  0
 26 33  1  0  0  0  0
 27 30  1  0  0  0  0
 27 33  2  0  0  0  0
 28 31  1  0  0  0  0
 29 25  2  0  0  0  0
 31 26  1  0  0  0  0
 32 25  1  0  0  0  0
 32 31  2  0  0  0  0
M  END
>  <MODEL>
3

>  <REMARK>
 VINA RESULT:      -9.7      2.939      4.051
  Name = 
  2 active torsions:
  status: ('A' for Active; 'I' for Inactive)
    1  A    between atoms: C_8  and  C_16
    2  A    between atoms: N_19  and  C_27
                            x       y       z     vdW  Elec       q    Type
                         _______ _______ _______ _____ _____    ______ ____

>  <TORSDO>
F 2

$$$$
=
 OpenBabel11062421133D

 33 37  0  0  1  0  0  0  0  0999 V2000
  189.3890  176.8230  143.2230 C   0  0  1  0  0  3  0  0  0  0  0  0
  189.9950  174.2790  144.9070 C   0  0  0  0  0  2  0  0  0  0  0  0
  189.1380  178.1530  142.8670 O   0  0  0  0  0  1  0  0  0  0  0  0
  189.9460  176.7620  144.6180 C   0  0  0  0  0  0  0  0  0  0  0  0
  190.7780  175.5900  145.0570 C   0  0  2  0  0  3  0  0  0  0  0  0
  189.7180  173.9450  143.4430 C   0  0  0  0  0  2  0  0  0  0  0  0
  188.1080  175.9810  143.1670 C   0  0  2  0  0  3  0  0  0  0  0  0
  189.6760  177.6350  145.4290 O   0  0  0  0  0  0  0  0  0  0  0  0
  188.3680  174.4780  142.9590 C   0  0  0  0  0  2  0  0  0  0  0  0
  192.9470  176.8210  144.6430 C   0  0  0  0  0  2  0  0  0  0  0  0
  196.7790  174.7010  144.7560 C   0  0  0  0  0  3  0  0  0  0  0  0
  192.1460  175.5550  144.3570 C   0  0  1  0  0  3  0  0  0  0  0  0
  193.0700  172.1480  144.6510 C   0  0  0  0  0  2  0  0  0  0  0  0
  193.0040  174.4090  144.8700 C   0  0  2  0  0  3  0  0  0  0  0  0
  194.1750  172.0810  145.7230 C   0  0  0  0  0  2  0  0  0  0  0  0
  194.3470  174.9470  145.0120 N   0  0  0  0  0  0  0  0  0  0  0  0
  194.3890  176.3830  144.8090 C   0  0  0  0  0  2  0  0  0  0  0  0
  196.6410  171.9540  145.2530 C   0  0  0  0  0  0  0  0  0  0  0  0
  193.0220  173.3630  143.9360 O   0  0  0  0  0  0  0  0  0  0  0  0
  197.8660  172.5560  144.9620 C   0  0  0  0  0  3  0  0  0  0  0  0
  195.5330  174.1230  145.0420 C   0  0  0  0  0  0  0  0  0  0  0  0
  196.6210  170.2250  145.5720 Cl  0  0  0  0  0  0  0  0  0  0  0  0
  197.9370  173.9260  144.7180 C   0  0  0  0  0  3  0  0  0  0  0  0
  195.4650  172.7280  145.2990 C   0  0  0  0  0  0  0  0  0  0  0  0
  184.0680  178.3080  141.5470 C   0  0  0  0  0  0  0  0  0  0  0  0
  185.6790  177.6070  143.8020 C   0  0  0  0  0  2  0  0  0  0  0  0
  183.5950  178.6200  142.8990 C   0  0  0  0  0  0  0  0  0  0  0  0
  187.2140  176.4590  142.1180 N   0  0  0  0  0  2  0  0  0  0  0  0
  183.3720  178.6470  140.5150 N   0  0  0  0  0  2  0  0  0  0  0  0
  182.4010  179.2340  143.0910 F   0  0  0  0  0  0  0  0  0  0  0  0
  186.0230  177.2040  142.3820 C   0  0  0  0  0  0  0  0  0  0  0  0
  185.2770  177.5630  141.3780 N   0  0  0  0  0  0  0  0  0  0  0  0
  184.3360  178.2710  143.9480 C   0  0  0  0  0  3  0  0  0  0  0  0
  1  3  1  1  0  0  0
  1  4  1  0  0  0  0
  4  5  1  0  0  0  0
  4  8  2  0  0  0  0
  5  2  1  6  0  0  0
  6  2  1  0  0  0  0
  7 28  1  6  0  0  0
  7  1  1  0  0  0  0
  9  7  1  0  0  0  0
  9  6  1  0  0  0  0
 10 17  1  0  0  0  0
 11 21  1  0  0  0  0
 12 10  1  1  0  0  0
 12 14  1  0  0  0  0
 12  5  1  0  0  0  0
 13 15  1  0  0  0  0
 14 19  1  6  0  0  0
 14 16  1  0  0  0  0
 16 21  1  0  0  0  0
 17 16  1  0  0  0  0
 18 24  1  0  0  0  0
 18 22  1  0  0  0  0
 19 13  1  0  0  0  0
 20 18  2  0  0  0  0
 21 24  2  0  0  0  0
 23 11  2  0  0  0  0
 23 20  1  0  0  0  0
 24 15  1  0  0  0  0
 25 27  1  0  0  0  0
 26 33  1  0  0  0  0
 27 30  1  0  0  0  0
 27 33  2  0  0  0  0
 28 31  1  0  0  0  0
 29 25  2  0  0  0  0
 31 26  1  0  0  0  0
 32 25  1  0  0  0  0
 32 31  2  0  0  0  0
M  END
>  <MODEL>
4

>  <REMARK>
 VINA RESULT:      -9.5      4.219      9.585
  Name = 
  2 active torsions:
  status: ('A' for Active; 'I' for Inactive)
    1  A    between atoms: C_8  and  C_16
    2  A    between atoms: N_19  and  C_27
                            x       y       z     vdW  Elec       q    Type
                         _______ _______ _______ _____ _____    ______ ____

>  <TORSDO>
F 2

$$$$
=
 OpenBabel11062421133D

 33 37  0  0  1  0  0  0  0  0999 V2000
  192.9300  174.8060  144.8450 C   0  0  1  0  0  3  0  0  0  0  0  0
  191.1550  176.2350  142.7270 C   0  0  0  0  0  2  0  0  0  0  0  0
  193.8730  174.5790  145.8530 O   0  0  0  0  0  1  0  0  0  0  0  0
  192.6340  176.2770  144.7430 C   0  0  0  0  0  0  0  0  0  0  0  0
  191.3340  176.7560  144.1600 C   0  0  2  0  0  3  0  0  0  0  0  0
  190.9840  174.7190  142.6900 C   0  0  0  0  0  2  0  0  0  0  0  0
  193.4360  174.3100  143.4850 C   0  0  2  0  0  3  0  0  0  0  0  0
  193.4740  177.0990  145.0750 O   0  0  0  0  0  0  0  0  0  0  0  0
  192.3080  173.9780  142.4920 C   0  0  0  0  0  2  0  0  0  0  0  0
  190.3790  176.9210  146.4940 C   0  0  0  0  0  2  0  0  0  0  0  0
  186.1850  178.0210  147.1220 C   0  0  0  0  0  3  0  0  0  0  0  0
  190.1380  176.4350  145.0690 C   0  0  1  0  0  3  0  0  0  0  0  0
  187.3760  176.9520  142.9120 C   0  0  0  0  0  2  0  0  0  0  0  0
  188.8790  177.1510  144.6050 C   0  0  2  0  0  3  0  0  0  0  0  0
  186.7160  178.2740  143.3490 C   0  0  0  0  0  2  0  0  0  0  0  0
  188.2280  177.6380  145.8100 N   0  0  0  0  0  0  0  0  0  0  0  0
  189.0490  177.4550  146.9920 C   0  0  0  0  0  2  0  0  0  0  0  0
  184.6780  178.4600  144.8090 C   0  0  0  0  0  0  0  0  0  0  0  0
  188.0250  176.2520  143.9500 O   0  0  0  0  0  0  0  0  0  0  0  0
  184.0690  178.4980  146.0630 C   0  0  0  0  0  3  0  0  0  0  0  0
  186.8240  177.9730  145.8740 C   0  0  0  0  0  0  0  0  0  0  0  0
  183.6810  178.7590  143.3920 Cl  0  0  0  0  0  0  0  0  0  0  0  0
  184.8190  178.2840  147.2190 C   0  0  0  0  0  3  0  0  0  0  0  0
  186.0580  178.2010  144.7000 C   0  0  0  0  0  0  0  0  0  0  0  0
  196.9190  171.1650  141.9570 C   0  0  0  0  0  0  0  0  0  0  0  0
  195.4680  173.5680  141.4200 C   0  0  0  0  0  2  0  0  0  0  0  0
  197.0980  171.8450  140.6710 C   0  0  0  0  0  0  0  0  0  0  0  0
  194.2910  173.1380  143.6430 N   0  0  0  0  0  2  0  0  0  0  0  0
  197.5910  170.0980  142.2330 N   0  0  0  0  0  2  0  0  0  0  0  0
  197.9410  171.3450  139.7340 F   0  0  0  0  0  0  0  0  0  0  0  0
  195.2460  172.7270  142.6610 C   0  0  0  0  0  0  0  0  0  0  0  0
  195.9440  171.6520  142.8830 N   0  0  0  0  0  0  0  0  0  0  0  0
  196.4030  172.9510  140.4140 C   0  0  0  0  0  3  0  0  0  0  0  0
  1  3  1  1  0  0  0
  4  1  1  0  0  0  0
  4  8  2  0  0  0  0
  5  2  1  6  0  0  0
  5  4  1  0  0  0  0
  5 12  1  0  0  0  0
  6  2  1  0  0  0  0
  7 28  1  1  0  0  0
  7  1  1  0  0  0  0
  9  6  1  0  0  0  0
  9  7  1  0  0  0  0
 10 17  1  0  0  0  0
 11 23  1  0  0  0  0
 12 10  1  1  0  0  0
 13 15  1  0  0  0  0
 13 19  1  0  0  0  0
 14 19  1  1  0  0  0
 14 12  1  0  0  0  0
 14 16  1  0  0  0  0
 15 24  1  0  0  0  0
 16 21  1  0  0  0  0
 16 17  1  0  0  0  0
 18 20  1  0  0  0  0
 20 23  2  0  0  0  0
 21 11  2  0  0  0  0
 22 18  1  0  0  0  0
 24 18  2  0  0  0  0
 24 21  1  0  0  0  0
 25 29  2  0  0  0  0
 25 32  1  0  0  0  0
 26 31  1  0  0  0  0
 27 25  1  0  0  0  0
 30 27  1  0  0  0  0
 31 32  2  0  0  0  0
 31 28  1  0  0  0  0
 33 27  2  0  0  0  0
 33 26  1  0  0  0  0
M  END
>  <MODEL>
5

>  <REMARK>
 VINA RESULT:      -9.3      2.748      4.310
  Name = 
  2 active torsions:
  status: ('A' for Active; 'I' for Inactive)
    1  A    between atoms: C_8  and  C_16
    2  A    between atoms: N_19  and  C_27
                            x       y       z     vdW  Elec       q    Type
                         _______ _______ _______ _____ _____    ______ ____

>  <TORSDO>
F 2

$$$$
=
 OpenBabel11062421133D

 33 37  0  0  1  0  0  0  0  0999 V2000
  192.0480  174.6590  145.6600 C   0  0  1  0  0  3  0  0  0  0  0  0
  191.0070  175.0580  142.7560 C   0  0  0  0  0  2  0  0  0  0  0  0
  192.6800  174.8840  146.8870 O   0  0  0  0  0  1  0  0  0  0  0  0
  191.9230  175.9530  144.9040 C   0  0  0  0  0  0  0  0  0  0  0  0
  190.8630  176.1230  143.8520 C   0  0  2  0  0  3  0  0  0  0  0  0
  190.7140  173.6560  143.2820 C   0  0  0  0  0  2  0  0  0  0  0  0
  192.8370  173.6610  144.8020 C   0  0  2  0  0  3  0  0  0  0  0  0
  192.7220  176.8570  145.0920 O   0  0  0  0  0  0  0  0  0  0  0  0
  191.9720  172.9280  143.7610 C   0  0  0  0  0  2  0  0  0  0  0  0
  189.4110  177.0590  145.6980 C   0  0  0  0  0  2  0  0  0  0  0  0
  185.3910  178.5690  144.8330 C   0  0  0  0  0  3  0  0  0  0  0  0
  189.4510  176.1750  144.4550 C   0  0  1  0  0  3  0  0  0  0  0  0
  187.3870  176.1840  141.5760 C   0  0  0  0  0  2  0  0  0  0  0  0
  188.4550  176.7940  143.4870 C   0  0  2  0  0  3  0  0  0  0  0  0
  186.8380  177.6160  141.4300 C   0  0  0  0  0  2  0  0  0  0  0  0
  187.6110  177.6690  144.2850 N   0  0  0  0  0  0  0  0  0  0  0  0
  188.0920  177.8050  145.6470 C   0  0  0  0  0  2  0  0  0  0  0  0
  184.5590  178.3730  142.1720 C   0  0  0  0  0  0  0  0  0  0  0  0
  187.6630  175.7950  142.9040 O   0  0  0  0  0  0  0  0  0  0  0  0
  183.6800  178.8350  143.1520 C   0  0  0  0  0  3  0  0  0  0  0  0
  186.2960  178.0980  143.8700 C   0  0  0  0  0  0  0  0  0  0  0  0
  183.9820  178.2880  140.5130 Cl  0  0  0  0  0  0  0  0  0  0  0  0
  184.0940  178.9370  144.4790 C   0  0  0  0  0  3  0  0  0  0  0  0
  185.8730  178.0040  142.5180 C   0  0  0  0  0  0  0  0  0  0  0  0
  196.3320  170.2890  145.6760 C   0  0  0  0  0  0  0  0  0  0  0  0
  195.2920  172.2370  143.8610 C   0  0  0  0  0  2  0  0  0  0  0  0
  196.9160  170.4150  144.3370 C   0  0  0  0  0  0  0  0  0  0  0  0
  193.5140  172.6760  145.6380 N   0  0  0  0  0  2  0  0  0  0  0  0
  196.8100  169.4390  146.5220 N   0  0  0  0  0  2  0  0  0  0  0  0
  197.9410  169.6150  143.9510 F   0  0  0  0  0  0  0  0  0  0  0  0
  194.6650  171.9440  145.2100 C   0  0  0  0  0  0  0  0  0  0  0  0
  195.1820  171.0670  146.0190 N   0  0  0  0  0  0  0  0  0  0  0  0
  196.4140  171.3060  143.4860 C   0  0  0  0  0  3  0  0  0  0  0  0
  1  3  1  1  0  0  0
  2  6  1  0  0  0  0
  4  8  2  0  0  0  0
  4  1  1  0  0  0  0
  5  2  1  6  0  0  0
  5 12  1  0  0  0  0
  5  4  1  0  0  0  0
  6  9  1  0  0  0  0
  7 28  1  1  0  0  0
  7  1  1  0  0  0  0
  9  7  1  0  0  0  0
 12 10  1  1  0  0  0
 13 19  1  0  0  0  0
 14 19  1  1  0  0  0
 14 16  1  0  0  0  0
 14 12  1  0  0  0  0
 15 13  1  0  0  0  0
 15 24  1  0  0  0  0
 16 17  1  0  0  0  0
 17 10  1  0  0  0  0
 18 24  2  0  0  0  0
 18 20  1  0  0  0  0
 20 23  2  0  0  0  0
 21 16  1  0  0  0  0
 21 11  2  0  0  0  0
 22 18  1  0  0  0  0
 23 11  1  0  0  0  0
 24 21  1  0  0  0  0
 25 32  1  0  0  0  0
 25 29  2  0  0  0  0
 26 31  1  0  0  0  0
 27 25  1  0  0  0  0
 30 27  1  0  0  0  0
 31 28  1  0  0  0  0
 31 32  2  0  0  0  0
 33 26  1  0  0  0  0
 33 27  2  0  0  0  0
M  END
>  <MODEL>
6

>  <REMARK>
 VINA RESULT:      -9.2      2.597      3.553
  Name = 
  2 active torsions:
  status: ('A' for Active; 'I' for Inactive)
    1  A    between atoms: C_8  and  C_16
    2  A    between atoms: N_19  and  C_27
                            x       y       z     vdW  Elec       q    Type
                         _______ _______ _______ _____ _____    ______ ____

>  <TORSDO>
F 2

$$$$
=
 OpenBabel11062421133D

 33 37  0  0  1  0  0  0  0  0999 V2000
  192.4090  174.0440  144.0870 C   0  0  1  0  0  3  0  0  0  0  0  0
  192.0190  175.3260  146.8940 C   0  0  0  0  0  2  0  0  0  0  0  0
  192.2560  173.2120  142.9730 O   0  0  0  0  0  1  0  0  0  0  0  0
  191.2170  173.9120  144.9940 C   0  0  0  0  0  0  0  0  0  0  0  0
  190.8540  175.0190  145.9430 C   0  0  2  0  0  3  0  0  0  0  0  0
  193.2170  175.9170  146.1560 C   0  0  0  0  0  2  0  0  0  0  0  0
  193.6730  173.6860  144.8790 C   0  0  2  0  0  3  0  0  0  0  0  0
  190.5680  172.8780  145.0130 O   0  0  0  0  0  0  0  0  0  0  0  0
  194.2260  174.8540  145.7170 C   0  0  0  0  0  2  0  0  0  0  0  0
  190.4590  176.1100  143.6970 C   0  0  0  0  0  2  0  0  0  0  0  0
  186.7460  178.2920  142.8920 C   0  0  0  0  0  3  0  0  0  0  0  0
  190.3350  176.2660  145.2090 C   0  0  1  0  0  3  0  0  0  0  0  0
  187.5600  177.2240  147.1910 C   0  0  0  0  0  2  0  0  0  0  0  0
  188.8550  176.4910  145.4730 C   0  0  2  0  0  3  0  0  0  0  0  0
  186.2970  176.8420  146.3960 C   0  0  0  0  0  2  0  0  0  0  0  0
  188.2750  176.8770  144.1970 N   0  0  0  0  0  0  0  0  0  0  0  0
  189.2160  176.7440  143.1020 C   0  0  0  0  0  2  0  0  0  0  0  0
  184.9260  178.4280  145.0100 C   0  0  0  0  0  0  0  0  0  0  0  0
  188.6810  177.5340  146.3940 O   0  0  0  0  0  0  0  0  0  0  0  0
  184.6750  179.1130  143.8200 C   0  0  0  0  0  3  0  0  0  0  0  0
  187.0270  177.5950  144.0770 C   0  0  0  0  0  0  0  0  0  0  0  0
  183.7360  178.5390  146.2990 Cl  0  0  0  0  0  0  0  0  0  0  0  0
  185.5800  179.0440  142.7620 C   0  0  0  0  0  3  0  0  0  0  0  0
  186.0990  177.6610  145.1500 C   0  0  0  0  0  0  0  0  0  0  0  0
  197.0470  174.2500  141.3220 C   0  0  0  0  0  0  0  0  0  0  0  0
  195.1150  175.5170  143.0060 C   0  0  0  0  0  2  0  0  0  0  0  0
  196.7270  175.6650  141.1170 C   0  0  0  0  0  0  0  0  0  0  0  0
  194.7240  173.1970  143.9930 N   0  0  0  0  0  2  0  0  0  0  0  0
  197.9410  173.6680  140.5950 N   0  0  0  0  0  2  0  0  0  0  0  0
  197.3350  176.3780  140.1360 F   0  0  0  0  0  0  0  0  0  0  0  0
  195.4090  174.0300  143.0550 C   0  0  0  0  0  0  0  0  0  0  0  0
  196.3130  173.4940  142.2890 N   0  0  0  0  0  0  0  0  0  0  0  0
  195.8100  176.2470  141.8870 C   0  0  0  0  0  3  0  0  0  0  0  0
  1  3  1  6  0  0  0
  1  7  1  0  0  0  0
  1  4  1  0  0  0  0
  4  8  2  0  0  0  0
  4  5  1  0  0  0  0
  5  2  1  6  0  0  0
  6  2  1  0  0  0  0
  7 28  1  6  0  0  0
  7  9  1  0  0  0  0
  9  6  1  0  0  0  0
 11 21  1  0  0  0  0
 12 10  1  6  0  0  0
 12 14  1  0  0  0  0
 12  5  1  0  0  0  0
 14 19  1  1  0  0  0
 15 13  1  0  0  0  0
 16 14  1  0  0  0  0
 17 10  1  0  0  0  0
 17 16  1  0  0  0  0
 18 24  1  0  0  0  0
 18 22  1  0  0  0  0
 19 13  1  0  0  0  0
 20 18  2  0  0  0  0
 21 16  1  0  0  0  0
 21 24  2  0  0  0  0
 23 11  2  0  0  0  0
 23 20  1  0  0  0  0
 24 15  1  0  0  0  0
 25 32  1  0  0  0  0
 26 31  1  0  0  0  0
 27 25  1  0  0  0  0
 27 33  2  0  0  0  0
 29 25  2  0  0  0  0
 30 27  1  0  0  0  0
 31 28  1  0  0  0  0
 32 31  2  0  0  0  0
 33 26  1  0  0  0  0
M  END
>  <MODEL>
7

>  <REMARK>
 VINA RESULT:      -8.9      2.485      3.984
  Name = 
  2 active torsions:
  status: ('A' for Active; 'I' for Inactive)
    1  A    between atoms: C_8  and  C_16
    2  A    between atoms: N_19  and  C_27
                            x       y       z     vdW  Elec       q    Type
                         _______ _______ _______ _____ _____    ______ ____

>  <TORSDO>
F 2

$$$$
=
 OpenBabel11062421133D

 33 37  0  0  1  0  0  0  0  0999 V2000
  188.8460  176.8590  143.8270 C   0  0  1  0  0  3  0  0  0  0  0  0
  188.7430  177.4940  146.8700 C   0  0  0  0  0  2  0  0  0  0  0  0
  189.2220  176.8690  142.4790 O   0  0  0  0  0  1  0  0  0  0  0  0
  189.9150  177.5090  144.6610 C   0  0  0  0  0  0  0  0  0  0  0  0
  190.0470  177.1830  146.1230 C   0  0  2  0  0  3  0  0  0  0  0  0
  187.6040  176.5730  146.4380 C   0  0  0  0  0  2  0  0  0  0  0  0
  187.5260  177.6100  144.0430 C   0  0  2  0  0  3  0  0  0  0  0  0
  190.6470  178.3570  144.1750 O   0  0  0  0  0  0  0  0  0  0  0  0
  186.7640  177.1640  145.3030 C   0  0  0  0  0  2  0  0  0  0  0  0
  189.7890  174.7530  145.4750 C   0  0  0  0  0  2  0  0  0  0  0  0
  193.3080  172.2200  144.8470 C   0  0  0  0  0  3  0  0  0  0  0  0
  190.5420  175.7460  146.3530 C   0  0  1  0  0  3  0  0  0  0  0  0
  194.0230  176.2030  146.8250 C   0  0  0  0  0  2  0  0  0  0  0  0
  192.0060  175.5950  145.9720 C   0  0  2  0  0  3  0  0  0  0  0  0
  194.7120  175.7030  145.5410 C   0  0  0  0  0  2  0  0  0  0  0  0
  192.1090  174.3220  145.2770 N   0  0  0  0  0  0  0  0  0  0  0  0
  190.8110  173.7290  145.0200 C   0  0  0  0  0  2  0  0  0  0  0  0
  195.7850  173.4470  145.2590 C   0  0  0  0  0  0  0  0  0  0  0  0
  192.8040  175.5580  147.1240 O   0  0  0  0  0  0  0  0  0  0  0  0
  195.7140  172.0840  144.9720 C   0  0  0  0  0  3  0  0  0  0  0  0
  193.3480  173.5920  145.1380 C   0  0  0  0  0  0  0  0  0  0  0  0
  197.3730  174.1650  145.4920 Cl  0  0  0  0  0  0  0  0  0  0  0  0
  194.4800  171.4700  144.7630 C   0  0  0  0  0  3  0  0  0  0  0  0
  194.6070  174.2150  145.3410 C   0  0  0  0  0  0  0  0  0  0  0  0
  183.2740  178.2900  141.6330 C   0  0  0  0  0  0  0  0  0  0  0  0
  184.7900  178.8160  143.9980 C   0  0  0  0  0  2  0  0  0  0  0  0
  182.6370  178.9720  142.7630 C   0  0  0  0  0  0  0  0  0  0  0  0
  186.6520  177.4730  142.8840 N   0  0  0  0  0  2  0  0  0  0  0  0
  182.6160  178.0740  140.5430 N   0  0  0  0  0  2  0  0  0  0  0  0
  181.3360  179.3530  142.6990 F   0  0  0  0  0  0  0  0  0  0  0  0
  185.3230  177.9990  142.8370 C   0  0  0  0  0  0  0  0  0  0  0  0
  184.6110  177.8020  141.7670 N   0  0  0  0  0  0  0  0  0  0  0  0
  183.3380  179.1940  143.8720 C   0  0  0  0  0  3  0  0  0  0  0  0
  1  3  1  6  0  0  0
  1  7  1  0  0  0  0
  1  4  1  0  0  0  0
  4  5  1  0  0  0  0
  5 12  1  0  0  0  0
  5  2  1  1  0  0  0
  6  2  1  0  0  0  0
  7 28  1  6  0  0  0
  7  9  1  0  0  0  0
  8  4  2  0  0  0  0
  9  6  1  0  0  0  0
 11 21  1  0  0  0  0
 12 10  1  6  0  0  0
 13 19  1  0  0  0  0
 14 12  1  0  0  0  0
 14 19  1  1  0  0  0
 15 13  1  0  0  0  0
 16 14  1  0  0  0  0
 17 16  1  0  0  0  0
 17 10  1  0  0  0  0
 18 24  1  0  0  0  0
 18 22  1  0  0  0  0
 20 18  2  0  0  0  0
 21 16  1  0  0  0  0
 21 24  2  0  0  0  0
 23 11  2  0  0  0  0
 23 20  1  0  0  0  0
 24 15  1  0  0  0  0
 25 32  1  0  0  0  0
 25 27  1  0  0  0  0
 27 33  2  0  0  0  0
 29 25  2  0  0  0  0
 30 27  1  0  0  0  0
 31 28  1  0  0  0  0
 31 26  1  0  0  0  0
 32 31  2  0  0  0  0
 33 26  1  0  0  0  0
M  END
>  <MODEL>
8

>  <REMARK>
 VINA RESULT:      -8.8      4.208      9.153
  Name = 
  2 active torsions:
  status: ('A' for Active; 'I' for Inactive)
    1  A    between atoms: C_8  and  C_16
    2  A    between atoms: N_19  and  C_27
                            x       y       z     vdW  Elec       q    Type
                         _______ _______ _______ _____ _____    ______ ____

>  <TORSDO>
F 2

$$$$
=
 OpenBabel11062421133D

 33 37  0  0  1  0  0  0  0  0999 V2000
  189.8280  175.3650  144.0960 C   0  0  1  0  0  3  0  0  0  0  0  0
  189.4210  172.3990  143.2530 C   0  0  0  0  0  2  0  0  0  0  0  0
  190.0140  176.5110  144.8760 O   0  0  0  0  0  1  0  0  0  0  0  0
  190.0990  174.1360  144.9190 C   0  0  0  0  0  0  0  0  0  0  0  0
  190.4930  172.8450  144.2570 C   0  0  2  0  0  3  0  0  0  0  0  0
  189.3210  173.3510  142.0650 C   0  0  0  0  0  2  0  0  0  0  0  0
  188.3970  175.2880  143.5510 C   0  0  2  0  0  3  0  0  0  0  0  0
  189.9410  174.1570  146.1300 O   0  0  0  0  0  0  0  0  0  0  0  0
  188.2710  174.4450  142.2690 C   0  0  0  0  0  2  0  0  0  0  0  0
  192.4870  174.3170  143.7580 C   0  0  0  0  0  2  0  0  0  0  0  0
  196.5650  172.8530  144.4020 C   0  0  0  0  0  3  0  0  0  0  0  0
  191.8990  172.9150  143.6410 C   0  0  1  0  0  3  0  0  0  0  0  0
  193.2790  169.7740  144.5240 C   0  0  0  0  0  2  0  0  0  0  0  0
  192.8730  172.0050  144.3730 C   0  0  2  0  0  3  0  0  0  0  0  0
  194.3000  170.0410  145.6460 C   0  0  0  0  0  2  0  0  0  0  0  0
  194.1110  172.7580  144.4940 N   0  0  0  0  0  0  0  0  0  0  0  0
  193.9610  174.1360  144.0650 C   0  0  0  0  0  2  0  0  0  0  0  0
  196.7870  170.2240  145.3270 C   0  0  0  0  0  0  0  0  0  0  0  0
  193.1100  170.8460  143.6220 O   0  0  0  0  0  0  0  0  0  0  0  0
  197.9300  170.9550  145.0050 C   0  0  0  0  0  3  0  0  0  0  0  0
  195.3970  172.1400  144.7150 C   0  0  0  0  0  0  0  0  0  0  0  0
  196.9920  168.5810  145.9180 Cl  0  0  0  0  0  0  0  0  0  0  0  0
  197.8220  172.2680  144.5470 C   0  0  0  0  0  3  0  0  0  0  0  0
  195.5120  170.8060  145.1890 C   0  0  0  0  0  0  0  0  0  0  0  0
  185.4240  179.0990  144.5470 C   0  0  0  0  0  0  0  0  0  0  0  0
  186.3590  176.5220  145.3590 C   0  0  0  0  0  2  0  0  0  0  0  0
  184.7920  178.4260  145.6860 C   0  0  0  0  0  0  0  0  0  0  0  0
  187.8620  176.6210  143.2990 N   0  0  0  0  0  2  0  0  0  0  0  0
  185.0390  180.2780  144.1870 N   0  0  0  0  0  2  0  0  0  0  0  0
  183.7680  179.0120  146.3560 F   0  0  0  0  0  0  0  0  0  0  0  0
  186.8580  177.2310  144.1140 C   0  0  0  0  0  0  0  0  0  0  0  0
  186.4260  178.4140  143.7910 N   0  0  0  0  0  0  0  0  0  0  0  0
  185.2130  177.2160  146.0470 C   0  0  0  0  0  3  0  0  0  0  0  0
  1  3  1  1  0  0  0
  1  4  1  0  0  0  0
  4  8  2  0  0  0  0
  5  2  1  6  0  0  0
  5  4  1  0  0  0  0
  6  9  1  0  0  0  0
  6  2  1  0  0  0  0
  7 28  1  6  0  0  0
  7  1  1  0  0  0  0
  9  7  1  0  0  0  0
 10 17  1  0  0  0  0
 11 23  2  0  0  0  0
 11 21  1  0  0  0  0
 12 10  1  1  0  0  0
 12  5  1  0  0  0  0
 12 14  1  0  0  0  0
 13 15  1  0  0  0  0
 14 19  1  6  0  0  0
 14 16  1  0  0  0  0
 16 21  1  0  0  0  0
 17 16  1  0  0  0  0
 18 22  1  0  0  0  0
 19 13  1  0  0  0  0
 20 18  2  0  0  0  0
 21 24  2  0  0  0  0
 23 20  1  0  0  0  0
 24 18  1  0  0  0  0
 24 15  1  0  0  0  0
 25 27  1  0  0  0  0
 26 33  1  0  0  0  0
 27 33  2  0  0  0  0
 27 30  1  0  0  0  0
 28 31  1  0  0  0  0
 29 25  2  0  0  0  0
 31 26  1  0  0  0  0
 32 31  2  0  0  0  0
 32 25  1  0  0  0  0
M  END
>  <MODEL>
9

>  <REMARK>
 VINA RESULT:      -8.7      4.449      9.680
  Name = 
  2 active torsions:
  status: ('A' for Active; 'I' for Inactive)
    1  A    between atoms: C_8  and  C_16
    2  A    between atoms: N_19  and  C_27
                            x       y       z     vdW  Elec       q    Type
                         _______ _______ _______ _____ _____    ______ ____

>  <TORSDO>
F 2

$$$$
