=
 OpenBabel11062420193D

 61 69  0  0  1  0  0  0  0  0999 V2000
  192.0830  173.4000  136.6710 O   0  0  0  0  0  0  0  0  0  0  0  0
  192.8690  172.7720  137.4300 C   0  0  0  0  0  0  0  0  0  0  0  0
  192.5800  171.3930  137.7060 N   0  0  0  0  0  2  0  0  0  0  0  0
  193.5440  175.6890  137.3320 O   0  0  0  0  0  0  0  0  0  0  0  0
  194.3480  174.7720  137.2450 C   0  0  0  0  0  0  0  0  0  0  0  0
  195.1880  172.5420  137.8150 O   0  0  0  0  0  0  0  0  0  0  0  0
  195.6030  174.9730  136.4470 C   0  0  1  0  0  3  0  0  0  0  0  0
  196.3400  173.2020  137.8400 O   0  0  0  0  0  0  0  0  0  0  0  0
  194.1020  173.4570  137.9930 C   0  0  2  0  0  0  0  0  0  0  0  0
  197.9410  174.1370  136.3400 C   0  0  0  0  0  1  0  0  0  0  0  0
  196.4930  173.7460  136.5580 C   0  0  2  0  0  3  0  0  0  0  0  0
  195.2880  175.2090  135.1110 O   0  0  0  0  0  1  0  0  0  0  0  0
  193.8330  173.7160  139.3600 O   0  0  0  0  0  0  0  0  0  0  0  0
  193.3290  174.3530  143.5960 C   0  0  0  0  0  2  0  0  0  0  0  0
  194.0350  175.1120  141.2050 C   0  0  1  0  0  0  0  0  0  0  0  0
  195.8600  174.5280  140.4150 O   0  0  0  0  0  0  0  0  0  0  0  0
  193.9650  176.0240  140.1450 O   0  0  0  0  0  0  0  0  0  0  0  0
  194.5860  175.2550  143.9350 C   0  0  1  0  0  0  0  0  0  0  0  0
  194.6570  176.6680  146.3080 C   0  0  0  0  0  2  0  0  0  0  0  0
  194.5860  175.2480  146.3560 O   0  0  0  0  0  0  0  0  0  0  0  0
  195.2490  174.7250  145.2290 C   0  0  1  0  0  3  0  0  0  0  0  0
  195.7060  175.3220  142.8350 C   0  0  0  0  0  2  0  0  0  0  0  0
  192.5130  174.5110  141.9240 S   0  0  0  0  0  0  0  0  0  0  0  0
  194.5890  174.8030  139.8460 C   0  0  1  0  0  0  0  0  0  0  0  0
  194.9300  177.1730  145.0100 O   0  0  0  0  0  0  0  0  0  0  0  0
  195.2700  174.4720  141.6750 C   0  0  1  0  0  3  0  0  0  0  0  0
  194.0920  176.5630  144.1790 O   0  0  0  0  0  0  0  0  0  0  0  0
  195.7000  170.4540  145.5610 C   0  0  0  0  0  3  0  0  0  0  0  0
  195.4130  173.2300  145.2980 C   0  0  0  0  0  0  0  0  0  0  0  0
  196.6550  172.6230  145.0590 C   0  0  0  0  0  3  0  0  0  0  0  0
  196.7960  171.2380  145.1900 C   0  0  0  0  0  3  0  0  0  0  0  0
  194.3220  172.4410  145.6770 C   0  0  0  0  0  3  0  0  0  0  0  0
  194.4610  171.0560  145.8040 C   0  0  0  0  0  3  0  0  0  0  0  0
  193.4900  171.2100  139.9970 C   0  0  0  0  0  1  0  0  0  0  0  0
  192.6090  169.2540  138.8170 C   0  0  0  0  0  1  0  0  0  0  0  0
  192.4330  170.7470  139.0120 C   0  0  0  0  0  0  0  0  0  0  0  0
  190.7640  171.0460  139.6880 P   0  0  1  0  0  0  0  0  0  0  0  0
  189.7750  170.2010  138.9100 O   0  0  0  0  0  0  0  0  0  0  0  0
  190.7150  170.5430  141.4300 C   0  0  0  0  0  1  0  0  0  0  0  0
  190.3770  172.7040  139.6020 O   0  0  0  0  0  0  0  0  0  0  0  0
  189.0090  172.8180  139.8770 C   0  0  1  0  0  3  0  0  0  0  0  0
  188.9230  173.5490  142.3020 C   0  0  0  0  0  3  0  0  0  0  0  0
  188.2920  175.8160  142.8940 C   0  0  0  0  0  0  0  0  0  0  0  0
  188.3280  175.1190  140.5640 C   0  0  0  0  0  3  0  0  0  0  0  0
  188.7590  173.8450  140.9430 C   0  0  0  0  0  0  0  0  0  0  0  0
  187.6630  177.3610  141.1150 O   0  0  0  0  0  1  0  0  0  0  0  0
  188.6970  174.5310  143.2690 C   0  0  0  0  0  3  0  0  0  0  0  0
  188.0900  176.1040  141.5280 C   0  0  0  0  0  0  0  0  0  0  0  0
  186.6260  177.1300  144.2480 C   0  0  2  0  0  3  0  0  0  0  0  0
  188.1130  176.8410  143.9780 C   0  0  1  0  0  3  0  0  0  0  0  0
  186.3300  178.5890  143.9550 C   0  0  0  0  0  1  0  0  0  0  0  0
  188.7630  176.3970  145.3090 C   0  0  2  0  0  3  0  0  0  0  0  0
  186.4210  176.8550  145.6570 N   0  0  0  0  0  0  0  0  0  0  0  0
  187.6190  176.3950  146.2480 C   0  0  0  0  0  0  0  0  0  0  0  0
  185.1110  176.7530  146.2800 C   0  0  0  0  0  1  0  0  0  0  0  0
  187.6890  175.9890  147.4390 O   0  0  0  0  0  0  0  0  0  0  0  0
  191.0140  176.6060  146.4720 C   0  0  0  0  0  2  0  0  0  0  0  0
  189.8800  177.3220  145.8380 C   0  0  2  0  0  3  0  0  0  0  0  0
  189.9990  177.2110  147.2360 O   0  0  0  0  0  0  0  0  0  0  0  0
  188.2450  173.1090  138.5920 C   0  0  0  0  0  2  0  0  0  0  0  0
  189.0000  173.9450  137.7690 O   0  0  0  0  0  1  0  0  0  0  0  0
  1  2  2  0  0  0  0
  2  3  1  0  0  0  0
  3 36  1  0  0  0  0
  5  4  2  0  0  0  0
  5  9  1  0  0  0  0
  6  8  1  0  0  0  0
  6  9  1  0  0  0  0
  7 12  1  6  0  0  0
  7 11  1  0  0  0  0
  7  5  1  0  0  0  0
  9  2  1  6  0  0  0
  9 13  1  0  0  0  0
 11 10  1  1  0  0  0
 11  8  1  0  0  0  0
 14 18  1  0  0  0  0
 15 17  1  1  0  0  0
 15 26  1  0  0  0  0
 15 23  1  0  0  0  0
 16 26  1  0  0  0  0
 18 22  1  6  0  0  0
 18 27  1  0  0  0  0
 18 21  1  0  0  0  0
 19 20  1  0  0  0  0
 21 29  1  6  0  0  0
 21 20  1  0  0  0  0
 23 14  1  0  0  0  0
 24 13  1  6  0  0  0
 24 17  1  0  0  0  0
 24 16  1  0  0  0  0
 24 15  1  0  0  0  0
 25 19  1  0  0  0  0
 26 22  1  1  0  0  0
 27 25  1  0  0  0  0
 28 33  1  0  0  0  0
 29 32  1  0  0  0  0
 30 31  1  0  0  0  0
 30 29  2  0  0  0  0
 31 28  2  0  0  0  0
 32 33  2  0  0  0  0
 35 36  1  0  0  0  0
 36 37  1  0  0  0  0
 36 34  1  0  0  0  0
 37 39  1  1  0  0  0
 38 37  2  0  0  0  0
 40 37  1  0  0  0  0
 40 41  1  0  0  0  0
 41 60  1  6  0  0  0
 41 45  1  0  0  0  0
 42 47  1  0  0  0  0
 43 47  2  0  0  0  0
 44 45  1  0  0  0  0
 44 48  2  0  0  0  0
 45 42  2  0  0  0  0
 46 48  1  0  0  0  0
 48 43  1  0  0  0  0
 49 51  1  1  0  0  0
 49 53  1  0  0  0  0
 50 43  1  6  0  0  0
 50 49  1  0  0  0  0
 50 52  1  0  0  0  0
 52 58  1  0  0  0  0
 52 54  1  1  0  0  0
 53 54  1  0  0  0  0
 53 55  1  0  0  0  0
 54 56  2  0  0  0  0
 57 59  1  0  0  0  0
 58 57  1  6  0  0  0
 58 59  1  0  0  0  0
 61 60  1  0  0  0  0
M  END
>  <MODEL>
1

>  <REMARK>
 VINA RESULT:      -7.9      0.000      0.000
  Name = 
  12 active torsions:
  status: ('A' for Active; 'I' for Inactive)
    1  A    between atoms: P_1  and  O_42
    2  A    between atoms: P_1  and  C_53
    3  A    between atoms: C_2  and  C_5
    4  A    between atoms: C_2  and  C_37
    5  A    between atoms: C_2  and  O_42
    6  A    between atoms: C_4  and  C_12
    7  A    between atoms: C_22  and  C_23
    8  A    between atoms: C_32  and  C_36
    9  A    between atoms: O_39  and  C_40
   10  A    between atoms: O_39  and  C_51
   11  A    between atoms: C_40  and  C_47
   12  A    between atoms: C_53  and  N_58
                            x       y       z     vdW  Elec       q    Type
                         _______ _______ _______ _____ _____    ______ ____

>  <TORSDO>
F 12

$$$$
=
 OpenBabel11062420193D

 61 69  0  0  1  0  0  0  0  0999 V2000
  191.0110  178.5650  143.6730 O   0  0  0  0  0  0  0  0  0  0  0  0
  191.0050  177.4180  144.1970 C   0  0  0  0  0  0  0  0  0  0  0  0
  192.1110  177.0580  145.0400 N   0  0  0  0  0  2  0  0  0  0  0  0
  188.9090  177.5920  142.0630 O   0  0  0  0  0  0  0  0  0  0  0  0
  188.7240  177.2090  143.2090 C   0  0  0  0  0  0  0  0  0  0  0  0
  189.3990  176.0530  145.2620 O   0  0  0  0  0  0  0  0  0  0  0  0
  187.3780  177.4120  143.8400 C   0  0  1  0  0  3  0  0  0  0  0  0
  188.1440  175.6230  145.1930 O   0  0  0  0  0  0  0  0  0  0  0  0
  189.8370  176.4750  143.9670 C   0  0  2  0  0  0  0  0  0  0  0  0
  185.9240  176.4000  145.5840 C   0  0  0  0  0  1  0  0  0  0  0  0
  187.3470  176.7740  145.2200 C   0  0  2  0  0  3  0  0  0  0  0  0
  187.0980  178.7720  143.9410 O   0  0  0  0  0  1  0  0  0  0  0  0
  190.3330  175.4000  143.1870 O   0  0  0  0  0  0  0  0  0  0  0  0
  192.1860  171.8960  141.4880 C   0  0  0  0  0  2  0  0  0  0  0  0
  190.1410  173.2180  142.4140 C   0  0  1  0  0  0  0  0  0  0  0  0
  189.8440  173.3940  144.4590 O   0  0  0  0  0  0  0  0  0  0  0  0
  188.8360  173.7030  142.2700 O   0  0  0  0  0  0  0  0  0  0  0  0
  191.3860  170.7320  142.2050 C   0  0  1  0  0  0  0  0  0  0  0  0
  191.4910  168.1680  141.1820 C   0  0  0  0  0  2  0  0  0  0  0  0
  192.6960  168.7790  141.6290 O   0  0  0  0  0  0  0  0  0  0  0  0
  192.3910  169.6570  142.6860 C   0  0  1  0  0  3  0  0  0  0  0  0
  190.5240  171.1510  143.4490 C   0  0  0  0  0  2  0  0  0  0  0  0
  191.3140  173.5000  141.0960 S   0  0  0  0  0  0  0  0  0  0  0  0
  189.5560  174.2340  143.3520 C   0  0  1  0  0  0  0  0  0  0  0  0
  190.3250  168.8880  141.5520 O   0  0  0  0  0  0  0  0  0  0  0  0
  190.6810  172.6320  143.6470 C   0  0  1  0  0  3  0  0  0  0  0  0
  190.5400  170.1580  141.2220 O   0  0  0  0  0  0  0  0  0  0  0  0
  195.8630  171.3130  144.6250 C   0  0  0  0  0  3  0  0  0  0  0  0
  193.6230  170.1910  143.3670 C   0  0  0  0  0  0  0  0  0  0  0  0
  194.8720  170.1750  142.7300 C   0  0  0  0  0  3  0  0  0  0  0  0
  195.9890  170.7340  143.3590 C   0  0  0  0  0  3  0  0  0  0  0  0
  193.5010  170.7800  144.6310 C   0  0  0  0  0  3  0  0  0  0  0  0
  194.6180  171.3360  145.2620 C   0  0  0  0  0  3  0  0  0  0  0  0
  192.8710  175.2190  143.5750 C   0  0  0  0  0  1  0  0  0  0  0  0
  192.5440  174.8800  145.9760 C   0  0  0  0  0  1  0  0  0  0  0  0
  192.9820  175.8860  144.9310 C   0  0  0  0  0  0  0  0  0  0  0  0
  194.7160  176.3470  145.2700 P   0  0  1  0  0  0  0  0  0  0  0  0
  194.7230  177.4620  146.2970 O   0  0  0  0  0  0  0  0  0  0  0  0
  195.6010  174.9190  145.9550 C   0  0  0  0  0  1  0  0  0  0  0  0
  195.4970  176.8170  143.8290 O   0  0  0  0  0  0  0  0  0  0  0  0
  196.2140  175.7040  143.3730 C   0  0  1  0  0  3  0  0  0  0  0  0
  195.1600  176.1860  141.1200 C   0  0  0  0  0  3  0  0  0  0  0  0
  194.8710  174.4200  139.4800 C   0  0  0  0  0  0  0  0  0  0  0  0
  195.8470  173.9320  141.6540 C   0  0  0  0  0  3  0  0  0  0  0  0
  195.7360  175.2760  142.0160 C   0  0  0  0  0  0  0  0  0  0  0  0
  195.5440  172.1520  140.0690 O   0  0  0  0  0  1  0  0  0  0  0  0
  194.7370  175.7600  139.8590 C   0  0  0  0  0  3  0  0  0  0  0  0
  195.4170  173.4960  140.3960 C   0  0  0  0  0  0  0  0  0  0  0  0
  193.2950  174.9240  137.5830 C   0  0  2  0  0  3  0  0  0  0  0  0
  194.4420  174.0350  138.0930 C   0  0  1  0  0  3  0  0  0  0  0  0
  192.0720  174.0700  137.3120 C   0  0  0  0  0  1  0  0  0  0  0  0
  195.6060  174.1290  137.0790 C   0  0  2  0  0  3  0  0  0  0  0  0
  193.7730  175.5150  136.3470 N   0  0  0  0  0  0  0  0  0  0  0  0
  195.0990  175.1010  136.0860 C   0  0  0  0  0  0  0  0  0  0  0  0
  193.1100  176.6150  135.6660 C   0  0  0  0  0  1  0  0  0  0  0  0
  195.7830  175.5490  135.1280 O   0  0  0  0  0  0  0  0  0  0  0  0
  197.3030  172.2600  136.7720 C   0  0  0  0  0  2  0  0  0  0  0  0
  195.9800  172.8040  136.3790 C   0  0  2  0  0  3  0  0  0  0  0  0
  197.1200  172.9720  135.5710 O   0  0  0  0  0  0  0  0  0  0  0  0
  197.7070  176.0050  143.3990 C   0  0  0  0  0  2  0  0  0  0  0  0
  197.9250  177.3600  143.1460 O   0  0  0  0  0  1  0  0  0  0  0  0
  1  2  2  0  0  0  0
  2  3  1  0  0  0  0
  4  5  2  0  0  0  0
  5  7  1  0  0  0  0
  5  9  1  0  0  0  0
  7 12  1  1  0  0  0
  7 11  1  0  0  0  0
  8 11  1  0  0  0  0
  8  6  1  0  0  0  0
  9 13  1  6  0  0  0
  9  2  1  0  0  0  0
  9  6  1  0  0  0  0
 11 10  1  6  0  0  0
 15 23  1  6  0  0  0
 15 24  1  0  0  0  0
 15 26  1  0  0  0  0
 17 15  1  0  0  0  0
 17 24  1  0  0  0  0
 18 14  1  6  0  0  0
 18 21  1  0  0  0  0
 18 22  1  0  0  0  0
 19 25  1  0  0  0  0
 19 20  1  0  0  0  0
 20 21  1  0  0  0  0
 21 29  1  6  0  0  0
 23 14  1  0  0  0  0
 24 13  1  6  0  0  0
 24 16  1  0  0  0  0
 26 22  1  6  0  0  0
 26 16  1  0  0  0  0
 27 25  1  0  0  0  0
 27 18  1  0  0  0  0
 28 33  1  0  0  0  0
 29 32  1  0  0  0  0
 30 31  1  0  0  0  0
 30 29  2  0  0  0  0
 31 28  2  0  0  0  0
 32 33  2  0  0  0  0
 34 36  1  0  0  0  0
 36  3  1  0  0  0  0
 36 37  1  0  0  0  0
 36 35  1  0  0  0  0
 37 39  1  1  0  0  0
 37 38  2  0  0  0  0
 40 37  1  0  0  0  0
 41 60  1  6  0  0  0
 41 40  1  0  0  0  0
 42 45  1  0  0  0  0
 43 47  1  0  0  0  0
 43 48  2  0  0  0  0
 44 45  2  0  0  0  0
 45 41  1  0  0  0  0
 46 48  1  0  0  0  0
 47 42  2  0  0  0  0
 48 44  1  0  0  0  0
 49 51  1  6  0  0  0
 49 50  1  0  0  0  0
 50 43  1  1  0  0  0
 52 54  1  6  0  0  0
 52 50  1  0  0  0  0
 53 49  1  0  0  0  0
 54 53  1  0  0  0  0
 55 53  1  0  0  0  0
 56 54  2  0  0  0  0
 58 57  1  1  0  0  0
 58 52  1  0  0  0  0
 59 58  1  0  0  0  0
 59 57  1  0  0  0  0
 61 60  1  0  0  0  0
M  END
>  <MODEL>
2

>  <REMARK>
 VINA RESULT:      -7.6      2.501      8.951
  Name = 
  12 active torsions:
  status: ('A' for Active; 'I' for Inactive)
    1  A    between atoms: P_1  and  O_42
    2  A    between atoms: P_1  and  C_53
    3  A    between atoms: C_2  and  C_5
    4  A    between atoms: C_2  and  C_37
    5  A    between atoms: C_2  and  O_42
    6  A    between atoms: C_4  and  C_12
    7  A    between atoms: C_22  and  C_23
    8  A    between atoms: C_32  and  C_36
    9  A    between atoms: O_39  and  C_40
   10  A    between atoms: O_39  and  C_51
   11  A    between atoms: C_40  and  C_47
   12  A    between atoms: C_53  and  N_58
                            x       y       z     vdW  Elec       q    Type
                         _______ _______ _______ _____ _____    ______ ____

>  <TORSDO>
F 12

$$$$
=
 OpenBabel11062420193D

 61 69  0  0  1  0  0  0  0  0999 V2000
  192.9010  172.5870  136.6020 O   0  0  0  0  0  0  0  0  0  0  0  0
  193.9720  172.2960  137.2010 C   0  0  0  0  0  0  0  0  0  0  0  0
  194.3190  170.9070  137.3210 N   0  0  0  0  0  2  0  0  0  0  0  0
  193.4080  175.2360  137.3070 O   0  0  0  0  0  0  0  0  0  0  0  0
  194.4990  174.7310  137.0870 C   0  0  0  0  0  0  0  0  0  0  0  0
  196.2130  173.0090  137.4060 O   0  0  0  0  0  0  0  0  0  0  0  0
  195.4850  175.4650  136.2260 C   0  0  1  0  0  3  0  0  0  0  0  0
  197.0010  174.0790  137.4090 O   0  0  0  0  0  0  0  0  0  0  0  0
  194.8750  173.3930  137.7350 C   0  0  2  0  0  0  0  0  0  0  0  0
  197.9400  175.6580  135.8900 C   0  0  0  0  0  1  0  0  0  0  0  0
  196.7990  174.7020  136.1710 C   0  0  2  0  0  3  0  0  0  0  0  0
  194.9740  175.6200  134.9400 O   0  0  0  0  0  1  0  0  0  0  0  0
  194.6580  173.4500  139.1350 O   0  0  0  0  0  0  0  0  0  0  0  0
  193.4580  174.3320  143.1820 C   0  0  0  0  0  2  0  0  0  0  0  0
  194.7300  174.8680  140.9730 C   0  0  1  0  0  0  0  0  0  0  0  0
  196.5500  173.9630  140.5630 O   0  0  0  0  0  0  0  0  0  0  0  0
  195.0210  175.7360  139.9130 O   0  0  0  0  0  0  0  0  0  0  0  0
  194.7590  175.0300  143.7560 C   0  0  1  0  0  0  0  0  0  0  0  0
  194.6050  176.5060  146.0860 C   0  0  0  0  0  2  0  0  0  0  0  0
  194.2890  175.1200  146.1300 O   0  0  0  0  0  0  0  0  0  0  0  0
  195.0600  174.4510  145.1600 C   0  0  1  0  0  3  0  0  0  0  0  0
  196.0650  174.8690  142.8990 C   0  0  0  0  0  2  0  0  0  0  0  0
  193.0190  174.5520  141.3810 S   0  0  0  0  0  0  0  0  0  0  0  0
  195.4780  174.4180  139.7520 C   0  0  1  0  0  0  0  0  0  0  0  0
  195.2050  176.9080  144.8640 O   0  0  0  0  0  0  0  0  0  0  0  0
  195.7260  174.0550  141.6820 C   0  0  1  0  0  3  0  0  0  0  0  0
  194.4540  176.4090  143.8880 O   0  0  0  0  0  0  0  0  0  0  0  0
  194.8410  170.1540  145.3660 C   0  0  0  0  0  3  0  0  0  0  0  0
  194.9550  172.9530  145.2710 C   0  0  0  0  0  0  0  0  0  0  0  0
  193.7490  172.2870  145.0130 C   0  0  0  0  0  3  0  0  0  0  0  0
  193.6930  170.8900  145.0610 C   0  0  0  0  0  3  0  0  0  0  0  0
  196.1040  172.2100  145.5660 C   0  0  0  0  0  3  0  0  0  0  0  0
  196.0480  170.8140  145.6190 C   0  0  0  0  0  3  0  0  0  0  0  0
  195.8540  170.7080  139.2470 C   0  0  0  0  0  1  0  0  0  0  0  0
  194.9300  168.7270  138.1460 C   0  0  0  0  0  1  0  0  0  0  0  0
  194.6300  170.1590  138.5410 C   0  0  0  0  0  0  0  0  0  0  0  0
  193.1960  170.1550  139.6700 P   0  0  1  0  0  0  0  0  0  0  0  0
  192.7410  168.7210  139.8610 O   0  0  0  0  0  0  0  0  0  0  0  0
  193.6900  170.8280  141.2810 C   0  0  0  0  0  1  0  0  0  0  0  0
  191.9450  171.1310  139.0460 O   0  0  0  0  0  0  0  0  0  0  0  0
  190.7760  170.7830  139.7320 C   0  0  1  0  0  3  0  0  0  0  0  0
  189.9330  173.1630  139.9490 C   0  0  0  0  0  3  0  0  0  0  0  0
  189.2970  174.0640  142.1120 C   0  0  0  0  0  0  0  0  0  0  0  0
  190.1450  171.7910  141.9270 C   0  0  0  0  0  3  0  0  0  0  0  0
  190.2650  171.9390  140.5430 C   0  0  0  0  0  0  0  0  0  0  0  0
  189.5600  172.6610  144.0890 O   0  0  0  0  0  1  0  0  0  0  0  0
  189.4470  174.2150  140.7290 C   0  0  0  0  0  3  0  0  0  0  0  0
  189.6680  172.8440  142.7150 C   0  0  0  0  0  0  0  0  0  0  0  0
  189.7880  175.9000  143.7610 C   0  0  2  0  0  3  0  0  0  0  0  0
  188.7240  175.2150  142.8870 C   0  0  1  0  0  3  0  0  0  0  0  0
  189.3950  175.7890  145.2220 C   0  0  0  0  0  1  0  0  0  0  0  0
  188.1050  176.2870  141.9600 C   0  0  2  0  0  3  0  0  0  0  0  0
  189.7970  177.2920  143.3540 N   0  0  0  0  0  0  0  0  0  0  0  0
  188.8770  177.5020  142.3020 C   0  0  0  0  0  0  0  0  0  0  0  0
  190.8260  178.2430  143.7420 C   0  0  0  0  0  1  0  0  0  0  0  0
  188.7620  178.6010  141.6970 O   0  0  0  0  0  0  0  0  0  0  0  0
  186.2450  177.0730  143.5070 C   0  0  0  0  0  2  0  0  0  0  0  0
  186.5960  176.5440  142.1650 C   0  0  2  0  0  3  0  0  0  0  0  0
  186.0820  175.7140  143.1790 O   0  0  0  0  0  0  0  0  0  0  0  0
  189.7390  170.2540  138.7500 C   0  0  0  0  0  2  0  0  0  0  0  0
  190.0520  170.6700  137.4560 O   0  0  0  0  0  1  0  0  0  0  0  0
  1  2  2  0  0  0  0
  2  3  1  0  0  0  0
  3 36  1  0  0  0  0
  5  4  2  0  0  0  0
  5  9  1  0  0  0  0
  6  8  1  0  0  0  0
  6  9  1  0  0  0  0
  7 12  1  6  0  0  0
  7  5  1  0  0  0  0
  9  2  1  6  0  0  0
  9 13  1  0  0  0  0
 11 10  1  1  0  0  0
 11  7  1  0  0  0  0
 11  8  1  0  0  0  0
 14 18  1  0  0  0  0
 15 17  1  1  0  0  0
 15 23  1  0  0  0  0
 15 26  1  0  0  0  0
 16 26  1  0  0  0  0
 18 22  1  6  0  0  0
 18 27  1  0  0  0  0
 18 21  1  0  0  0  0
 19 20  1  0  0  0  0
 21 29  1  6  0  0  0
 21 20  1  0  0  0  0
 23 14  1  0  0  0  0
 24 13  1  6  0  0  0
 24 17  1  0  0  0  0
 24 16  1  0  0  0  0
 24 15  1  0  0  0  0
 25 19  1  0  0  0  0
 26 22  1  1  0  0  0
 27 25  1  0  0  0  0
 28 33  1  0  0  0  0
 29 32  1  0  0  0  0
 30 31  1  0  0  0  0
 30 29  2  0  0  0  0
 31 28  2  0  0  0  0
 32 33  2  0  0  0  0
 35 36  1  0  0  0  0
 36 34  1  0  0  0  0
 36 37  1  0  0  0  0
 37 38  2  0  0  0  0
 37 39  1  1  0  0  0
 40 37  1  0  0  0  0
 40 41  1  0  0  0  0
 41 60  1  6  0  0  0
 41 45  1  0  0  0  0
 42 45  2  0  0  0  0
 42 47  1  0  0  0  0
 43 48  1  0  0  0  0
 44 48  2  0  0  0  0
 45 44  1  0  0  0  0
 47 43  2  0  0  0  0
 48 46  1  0  0  0  0
 49 51  1  1  0  0  0
 50 43  1  6  0  0  0
 50 49  1  0  0  0  0
 52 58  1  0  0  0  0
 52 54  1  1  0  0  0
 52 50  1  0  0  0  0
 53 55  1  0  0  0  0
 53 49  1  0  0  0  0
 54 53  1  0  0  0  0
 56 54  2  0  0  0  0
 58 59  1  0  0  0  0
 58 57  1  1  0  0  0
 59 57  1  0  0  0  0
 61 60  1  0  0  0  0
M  END
>  <MODEL>
3

>  <REMARK>
 VINA RESULT:      -7.5      1.649      2.779
  Name = 
  12 active torsions:
  status: ('A' for Active; 'I' for Inactive)
    1  A    between atoms: P_1  and  O_42
    2  A    between atoms: P_1  and  C_53
    3  A    between atoms: C_2  and  C_5
    4  A    between atoms: C_2  and  C_37
    5  A    between atoms: C_2  and  O_42
    6  A    between atoms: C_4  and  C_12
    7  A    between atoms: C_22  and  C_23
    8  A    between atoms: C_32  and  C_36
    9  A    between atoms: O_39  and  C_40
   10  A    between atoms: O_39  and  C_51
   11  A    between atoms: C_40  and  C_47
   12  A    between atoms: C_53  and  N_58
                            x       y       z     vdW  Elec       q    Type
                         _______ _______ _______ _____ _____    ______ ____

>  <TORSDO>
F 12

$$$$
=
 OpenBabel11062420193D

 61 69  0  0  1  0  0  0  0  0999 V2000
  190.9640  178.6110  143.5080 O   0  0  0  0  0  0  0  0  0  0  0  0
  191.0540  177.4640  144.0240 C   0  0  0  0  0  0  0  0  0  0  0  0
  192.2740  177.1270  144.7030 N   0  0  0  0  0  2  0  0  0  0  0  0
  188.7190  177.5490  142.1490 O   0  0  0  0  0  0  0  0  0  0  0  0
  188.6770  177.1950  143.3190 C   0  0  0  0  0  0  0  0  0  0  0  0
  189.6090  176.1070  145.3060 O   0  0  0  0  0  0  0  0  0  0  0  0
  187.4110  177.3960  144.0980 C   0  0  1  0  0  3  0  0  0  0  0  0
  188.3630  175.6560  145.3970 O   0  0  0  0  0  0  0  0  0  0  0  0
  189.8840  176.4990  143.9580 C   0  0  2  0  0  0  0  0  0  0  0  0
  186.1910  176.4110  146.0270 C   0  0  0  0  0  1  0  0  0  0  0  0
  187.5540  176.7960  145.4880 C   0  0  2  0  0  3  0  0  0  0  0  0
  187.1200  178.7540  144.1970 O   0  0  0  0  0  1  0  0  0  0  0  0
  190.3030  175.4100  143.1530 O   0  0  0  0  0  0  0  0  0  0  0  0
  191.9750  171.9320  141.2270 C   0  0  0  0  0  2  0  0  0  0  0  0
  190.0810  173.1940  142.4960 C   0  0  1  0  0  0  0  0  0  0  0  0
  190.1760  173.4340  144.5530 O   0  0  0  0  0  0  0  0  0  0  0  0
  188.7490  173.6120  142.5950 O   0  0  0  0  0  0  0  0  0  0  0  0
  191.3920  170.7610  142.1200 C   0  0  1  0  0  0  0  0  0  0  0  0
  191.4310  168.1670  141.1700 C   0  0  0  0  0  2  0  0  0  0  0  0
  192.6660  168.8490  141.3560 O   0  0  0  0  0  0  0  0  0  0  0  0
  192.5250  169.7530  142.4270 C   0  0  1  0  0  3  0  0  0  0  0  0
  190.7650  171.1870  143.4960 C   0  0  0  0  0  2  0  0  0  0  0  0
  190.9610  173.4780  140.9670 S   0  0  0  0  0  0  0  0  0  0  0  0
  189.6360  174.2170  143.4990 C   0  0  1  0  0  0  0  0  0  0  0  0
  190.3230  168.8470  141.7400 O   0  0  0  0  0  0  0  0  0  0  0  0
  190.8790  172.6810  143.6160 C   0  0  1  0  0  3  0  0  0  0  0  0
  190.4030  170.1110  141.3380 O   0  0  0  0  0  0  0  0  0  0  0  0
  196.3280  171.3900  143.6140 C   0  0  0  0  0  3  0  0  0  0  0  0
  193.8350  170.3690  142.8390 C   0  0  0  0  0  0  0  0  0  0  0  0
  193.9860  170.9940  144.0860 C   0  0  0  0  0  3  0  0  0  0  0  0
  195.2300  171.5030  144.4710 C   0  0  0  0  0  3  0  0  0  0  0  0
  194.9410  170.2500  141.9900 C   0  0  0  0  0  3  0  0  0  0  0  0
  196.1840  170.7630  142.3730 C   0  0  0  0  0  3  0  0  0  0  0  0
  192.9190  175.3580  143.1010 C   0  0  0  0  0  1  0  0  0  0  0  0
  192.8120  174.9190  145.5060 C   0  0  0  0  0  1  0  0  0  0  0  0
  193.1450  175.9720  144.4690 C   0  0  0  0  0  0  0  0  0  0  0  0
  194.8970  176.4430  144.6700 P   0  0  1  0  0  0  0  0  0  0  0  0
  194.9700  177.6150  145.6300 O   0  0  0  0  0  0  0  0  0  0  0  0
  195.8220  175.0530  145.3790 C   0  0  0  0  0  1  0  0  0  0  0  0
  195.5860  176.8260  143.1590 O   0  0  0  0  0  0  0  0  0  0  0  0
  196.5550  175.8500  142.8940 C   0  0  1  0  0  3  0  0  0  0  0  0
  195.2840  174.1150  141.5550 C   0  0  0  0  0  3  0  0  0  0  0  0
  195.7130  173.8140  139.1860 C   0  0  0  0  0  0  0  0  0  0  0  0
  196.9720  175.4560  140.4650 C   0  0  0  0  0  3  0  0  0  0  0  0
  196.2510  175.1260  141.6150 C   0  0  0  0  0  0  0  0  0  0  0  0
  197.4490  175.1600  138.1290 O   0  0  0  0  0  1  0  0  0  0  0  0
  195.0140  173.4680  140.3470 C   0  0  0  0  0  3  0  0  0  0  0  0
  196.7130  174.8060  139.2530 C   0  0  0  0  0  0  0  0  0  0  0  0
  196.2710  171.9250  137.6180 C   0  0  2  0  0  3  0  0  0  0  0  0
  195.3420  173.1160  137.9080 C   0  0  1  0  0  3  0  0  0  0  0  0
  197.0070  172.1610  136.3130 C   0  0  0  0  0  1  0  0  0  0  0  0
  193.8870  172.5920  137.9340 C   0  0  2  0  0  3  0  0  0  0  0  0
  195.4040  170.7690  137.4980 N   0  0  0  0  0  0  0  0  0  0  0  0
  194.0590  171.1380  137.7230 C   0  0  0  0  0  0  0  0  0  0  0  0
  195.8830  169.3960  137.4770 C   0  0  0  0  0  1  0  0  0  0  0  0
  193.1160  170.3040  137.7770 O   0  0  0  0  0  0  0  0  0  0  0  0
  192.4190  174.5240  137.1740 C   0  0  0  0  0  2  0  0  0  0  0  0
  192.9550  173.1780  136.8520 C   0  0  2  0  0  3  0  0  0  0  0  0
  191.6540  173.3560  137.3580 O   0  0  0  0  0  0  0  0  0  0  0  0
  197.9400  176.4830  142.8940 C   0  0  0  0  0  2  0  0  0  0  0  0
  197.9050  177.7060  143.5650 O   0  0  0  0  0  1  0  0  0  0  0  0
  1  2  2  0  0  0  0
  2  3  1  0  0  0  0
  4  5  2  0  0  0  0
  5  9  1  0  0  0  0
  5  7  1  0  0  0  0
  6  8  1  0  0  0  0
  7 12  1  1  0  0  0
  7 11  1  0  0  0  0
  8 11  1  0  0  0  0
  9 13  1  6  0  0  0
  9  2  1  0  0  0  0
  9  6  1  0  0  0  0
 11 10  1  6  0  0  0
 15 23  1  6  0  0  0
 15 17  1  0  0  0  0
 15 24  1  0  0  0  0
 15 26  1  0  0  0  0
 17 24  1  0  0  0  0
 18 14  1  6  0  0  0
 18 21  1  0  0  0  0
 18 22  1  0  0  0  0
 19 20  1  0  0  0  0
 19 25  1  0  0  0  0
 20 21  1  0  0  0  0
 21 29  1  6  0  0  0
 23 14  1  0  0  0  0
 24 13  1  6  0  0  0
 24 16  1  0  0  0  0
 26 22  1  1  0  0  0
 26 16  1  0  0  0  0
 27 25  1  0  0  0  0
 27 18  1  0  0  0  0
 28 31  1  0  0  0  0
 29 30  1  0  0  0  0
 30 31  2  0  0  0  0
 32 33  1  0  0  0  0
 32 29  2  0  0  0  0
 33 28  2  0  0  0  0
 34 36  1  0  0  0  0
 36 37  1  0  0  0  0
 36  3  1  0  0  0  0
 36 35  1  0  0  0  0
 37 39  1  1  0  0  0
 37 38  2  0  0  0  0
 40 37  1  0  0  0  0
 41 60  1  6  0  0  0
 41 40  1  0  0  0  0
 42 45  1  0  0  0  0
 43 48  2  0  0  0  0
 43 47  1  0  0  0  0
 44 45  2  0  0  0  0
 45 41  1  0  0  0  0
 46 48  1  0  0  0  0
 47 42  2  0  0  0  0
 48 44  1  0  0  0  0
 49 51  1  6  0  0  0
 49 50  1  0  0  0  0
 50 52  1  0  0  0  0
 50 43  1  1  0  0  0
 52 54  1  6  0  0  0
 53 49  1  0  0  0  0
 53 54  1  0  0  0  0
 54 56  2  0  0  0  0
 55 53  1  0  0  0  0
 57 59  1  0  0  0  0
 58 57  1  1  0  0  0
 58 59  1  0  0  0  0
 58 52  1  0  0  0  0
 60 61  1  0  0  0  0
M  END
>  <MODEL>
4

>  <REMARK>
 VINA RESULT:      -7.3      2.578      9.056
  Name = 
  12 active torsions:
  status: ('A' for Active; 'I' for Inactive)
    1  A    between atoms: P_1  and  O_42
    2  A    between atoms: P_1  and  C_53
    3  A    between atoms: C_2  and  C_5
    4  A    between atoms: C_2  and  C_37
    5  A    between atoms: C_2  and  O_42
    6  A    between atoms: C_4  and  C_12
    7  A    between atoms: C_22  and  C_23
    8  A    between atoms: C_32  and  C_36
    9  A    between atoms: O_39  and  C_40
   10  A    between atoms: O_39  and  C_51
   11  A    between atoms: C_40  and  C_47
   12  A    between atoms: C_53  and  N_58
                            x       y       z     vdW  Elec       q    Type
                         _______ _______ _______ _____ _____    ______ ____

>  <TORSDO>
F 12

$$$$
=
 OpenBabel11062420193D

 61 69  0  0  1  0  0  0  0  0999 V2000
  189.3920  174.3010  137.6780 O   0  0  0  0  0  0  0  0  0  0  0  0
  189.3160  173.8690  138.8600 C   0  0  0  0  0  0  0  0  0  0  0  0
  188.2430  174.3500  139.6830 N   0  0  0  0  0  2  0  0  0  0  0  0
  191.8310  172.9450  137.5190 O   0  0  0  0  0  0  0  0  0  0  0  0
  191.0830  172.2430  138.1840 C   0  0  0  0  0  0  0  0  0  0  0  0
  189.5480  171.8440  140.0520 O   0  0  0  0  0  0  0  0  0  0  0  0
  190.9770  170.7810  137.8650 C   0  0  1  0  0  3  0  0  0  0  0  0
  190.2420  170.7130  140.1180 O   0  0  0  0  0  0  0  0  0  0  0  0
  190.3120  172.8410  139.3660 C   0  0  2  0  0  0  0  0  0  0  0  0
  190.4430  168.6260  138.9830 C   0  0  0  0  0  1  0  0  0  0  0  0
  190.0720  170.0910  138.8740 C   0  0  2  0  0  3  0  0  0  0  0  0
  190.4690  170.6070  136.5790 O   0  0  0  0  0  1  0  0  0  0  0  0
  191.2000  173.5300  140.2300 O   0  0  0  0  0  0  0  0  0  0  0  0
  193.4740  175.4000  143.3830 C   0  0  0  0  0  2  0  0  0  0  0  0
  193.0630  173.5270  141.6170 C   0  0  1  0  0  0  0  0  0  0  0  0
  191.7410  171.9800  142.0160 O   0  0  0  0  0  0  0  0  0  0  0  0
  193.4980  172.7610  140.5300 O   0  0  0  0  0  0  0  0  0  0  0  0
  194.0460  174.1400  144.1540 C   0  0  1  0  0  0  0  0  0  0  0  0
  196.1560  174.4530  145.9100 C   0  0  0  0  0  2  0  0  0  0  0  0
  194.9350  175.1350  146.1740 O   0  0  0  0  0  0  0  0  0  0  0  0
  193.8690  174.3620  145.6760 C   0  0  1  0  0  3  0  0  0  0  0  0
  193.3840  172.7580  143.8070 C   0  0  0  0  0  2  0  0  0  0  0  0
  193.2230  175.3060  141.5350 S   0  0  0  0  0  0  0  0  0  0  0  0
  192.1300  172.6550  140.8290 C   0  0  1  0  0  0  0  0  0  0  0  0
  196.0460  173.4850  144.8770 O   0  0  0  0  0  0  0  0  0  0  0  0
  192.3240  172.9970  142.7690 C   0  0  1  0  0  3  0  0  0  0  0  0
  195.4320  174.0810  143.8600 O   0  0  0  0  0  0  0  0  0  0  0  0
  190.0520  175.8550  147.0000 C   0  0  0  0  0  3  0  0  0  0  0  0
  192.5250  174.8940  146.0930 C   0  0  0  0  0  0  0  0  0  0  0  0
  191.3390  174.2300  145.7470 C   0  0  0  0  0  3  0  0  0  0  0  0
  190.1060  174.7110  146.1990 C   0  0  0  0  0  3  0  0  0  0  0  0
  192.4640  176.0340  146.9030 C   0  0  0  0  0  3  0  0  0  0  0  0
  191.2320  176.5170  147.3520 C   0  0  0  0  0  3  0  0  0  0  0  0
  189.7680  175.2460  141.4090 C   0  0  0  0  0  1  0  0  0  0  0  0
  187.7380  174.0220  142.0170 C   0  0  0  0  0  1  0  0  0  0  0  0
  188.3320  174.9790  141.0030 C   0  0  0  0  0  0  0  0  0  0  0  0
  187.3650  176.5270  141.0390 P   0  0  1  0  0  0  0  0  0  0  0  0
  188.2890  177.6590  141.4450 O   0  0  0  0  0  0  0  0  0  0  0  0
  186.7130  176.8740  139.3820 C   0  0  0  0  0  1  0  0  0  0  0  0
  186.0470  176.3790  142.1100 O   0  0  0  0  0  0  0  0  0  0  0  0
  185.7970  177.6560  142.6260 C   0  0  1  0  0  3  0  0  0  0  0  0
  183.7900  177.9110  141.1010 C   0  0  0  0  0  3  0  0  0  0  0  0
  181.7150  178.8630  141.9250 C   0  0  0  0  0  0  0  0  0  0  0  0
  183.6450  178.6650  143.3920 C   0  0  0  0  0  3  0  0  0  0  0  0
  184.3800  178.0750  142.3610 C   0  0  0  0  0  0  0  0  0  0  0  0
  181.6200  179.6460  144.2330 O   0  0  0  0  0  1  0  0  0  0  0  0
  182.4640  178.2980  140.8880 C   0  0  0  0  0  3  0  0  0  0  0  0
  182.3210  179.0630  143.1830 C   0  0  0  0  0  0  0  0  0  0  0  0
  179.9930  179.2790  140.1370 C   0  0  2  0  0  3  0  0  0  0  0  0
  180.2810  179.2130  141.6470 C   0  0  1  0  0  3  0  0  0  0  0  0
  179.5500  180.6800  139.7640 C   0  0  0  0  0  1  0  0  0  0  0  0
  179.3030  178.1940  142.2760 C   0  0  2  0  0  3  0  0  0  0  0  0
  178.9160  178.3370  139.8990 N   0  0  0  0  0  0  0  0  0  0  0  0
  178.5570  177.6880  141.1030 C   0  0  0  0  0  0  0  0  0  0  0  0
  178.5030  177.8950  138.5780 C   0  0  0  0  0  1  0  0  0  0  0  0
  177.7160  176.7510  141.1550 O   0  0  0  0  0  0  0  0  0  0  0  0
  178.7360  178.5680  144.7260 C   0  0  0  0  0  2  0  0  0  0  0  0
  178.3220  178.7770  143.3160 C   0  0  2  0  0  3  0  0  0  0  0  0
  177.7690  177.7530  144.1080 O   0  0  0  0  0  0  0  0  0  0  0  0
  186.1500  177.6920  144.1070 C   0  0  0  0  0  2  0  0  0  0  0  0
  187.3950  178.2950  144.2860 O   0  0  0  0  0  1  0  0  0  0  0  0
  1  2  2  0  0  0  0
  2  3  1  0  0  0  0
  3 36  1  0  0  0  0
  4  5  2  0  0  0  0
  5  9  1  0  0  0  0
  6  8  1  0  0  0  0
  7 12  1  6  0  0  0
  7  5  1  0  0  0  0
  7 11  1  0  0  0  0
  9  2  1  6  0  0  0
  9  6  1  0  0  0  0
  9 13  1  0  0  0  0
 11 10  1  1  0  0  0
 11  8  1  0  0  0  0
 15 17  1  6  0  0  0
 15 26  1  0  0  0  0
 16 26  1  0  0  0  0
 17 24  1  0  0  0  0
 18 14  1  6  0  0  0
 18 21  1  0  0  0  0
 19 20  1  0  0  0  0
 21 29  1  6  0  0  0
 21 20  1  0  0  0  0
 22 18  1  0  0  0  0
 23 15  1  0  0  0  0
 23 14  1  0  0  0  0
 24 13  1  6  0  0  0
 24 15  1  0  0  0  0
 24 16  1  0  0  0  0
 25 19  1  0  0  0  0
 26 22  1  1  0  0  0
 27 18  1  0  0  0  0
 27 25  1  0  0  0  0
 28 33  1  0  0  0  0
 29 32  1  0  0  0  0
 30 29  2  0  0  0  0
 30 31  1  0  0  0  0
 31 28  2  0  0  0  0
 32 33  2  0  0  0  0
 36 37  1  0  0  0  0
 36 34  1  0  0  0  0
 36 35  1  0  0  0  0
 37 39  1  6  0  0  0
 37 38  2  0  0  0  0
 37 40  1  0  0  0  0
 40 41  1  0  0  0  0
 41 60  1  1  0  0  0
 42 45  1  0  0  0  0
 43 48  2  0  0  0  0
 45 41  1  0  0  0  0
 45 44  2  0  0  0  0
 47 42  2  0  0  0  0
 47 43  1  0  0  0  0
 48 44  1  0  0  0  0
 48 46  1  0  0  0  0
 49 51  1  1  0  0  0
 49 50  1  0  0  0  0
 50 43  1  6  0  0  0
 50 52  1  0  0  0  0
 52 54  1  6  0  0  0
 52 58  1  0  0  0  0
 53 49  1  0  0  0  0
 53 54  1  0  0  0  0
 54 56  2  0  0  0  0
 55 53  1  0  0  0  0
 58 59  1  0  0  0  0
 58 57  1  1  0  0  0
 59 57  1  0  0  0  0
 60 61  1  0  0  0  0
M  END
>  <MODEL>
5

>  <REMARK>
 VINA RESULT:      -7.3      4.320      6.799
  Name = 
  12 active torsions:
  status: ('A' for Active; 'I' for Inactive)
    1  A    between atoms: P_1  and  O_42
    2  A    between atoms: P_1  and  C_53
    3  A    between atoms: C_2  and  C_5
    4  A    between atoms: C_2  and  C_37
    5  A    between atoms: C_2  and  O_42
    6  A    between atoms: C_4  and  C_12
    7  A    between atoms: C_22  and  C_23
    8  A    between atoms: C_32  and  C_36
    9  A    between atoms: O_39  and  C_40
   10  A    between atoms: O_39  and  C_51
   11  A    between atoms: C_40  and  C_47
   12  A    between atoms: C_53  and  N_58
                            x       y       z     vdW  Elec       q    Type
                         _______ _______ _______ _____ _____    ______ ____

>  <TORSDO>
F 12

$$$$
=
 OpenBabel11062420193D

 61 69  0  0  1  0  0  0  0  0999 V2000
  191.1840  171.4330  143.7320 O   0  0  0  0  0  0  0  0  0  0  0  0
  191.7440  171.4200  142.6030 C   0  0  0  0  0  0  0  0  0  0  0  0
  192.7400  170.4150  142.3580 N   0  0  0  0  0  2  0  0  0  0  0  0
  189.5530  171.1320  140.5790 O   0  0  0  0  0  0  0  0  0  0  0  0
  190.6280  171.6820  140.3870 C   0  0  0  0  0  0  0  0  0  0  0  0
  192.5400  173.0460  141.0870 O   0  0  0  0  0  0  0  0  0  0  0  0
  191.2140  171.6790  139.0060 C   0  0  1  0  0  3  0  0  0  0  0  0
  192.3550  173.5660  139.8780 O   0  0  0  0  0  0  0  0  0  0  0  0
  191.3350  172.4170  141.5320 C   0  0  2  0  0  0  0  0  0  0  0  0
  192.7370  173.0360  137.5850 C   0  0  0  0  0  1  0  0  0  0  0  0
  192.4950  172.4990  138.9810 C   0  0  2  0  0  3  0  0  0  0  0  0
  191.4820  170.3730  138.6020 O   0  0  0  0  0  1  0  0  0  0  0  0
  190.4450  173.3310  142.1490 O   0  0  0  0  0  0  0  0  0  0  0  0
  186.6240  175.2650  142.6620 C   0  0  0  0  0  2  0  0  0  0  0  0
  188.8710  174.8680  141.4040 C   0  0  1  0  0  0  0  0  0  0  0  0
  190.6220  175.7490  142.0810 O   0  0  0  0  0  0  0  0  0  0  0  0
  189.5760  174.5680  140.2330 O   0  0  0  0  0  0  0  0  0  0  0  0
  186.9390  176.7330  142.1560 C   0  0  1  0  0  0  0  0  0  0  0  0
  184.8580  178.4360  141.5210 C   0  0  0  0  0  2  0  0  0  0  0  0
  184.9660  177.9510  142.8540 O   0  0  0  0  0  0  0  0  0  0  0  0
  186.3270  177.7480  143.1510 C   0  0  1  0  0  3  0  0  0  0  0  0
  188.4580  177.0980  141.9950 C   0  0  0  0  0  2  0  0  0  0  0  0
  187.5060  173.8170  141.8790 S   0  0  0  0  0  0  0  0  0  0  0  0
  190.3330  174.5290  141.4140 C   0  0  1  0  0  0  0  0  0  0  0  0
  186.0040  178.1620  140.7290 O   0  0  0  0  0  0  0  0  0  0  0  0
  189.2690  175.8920  142.3780 C   0  0  1  0  0  3  0  0  0  0  0  0
  186.2890  176.8760  140.9030 O   0  0  0  0  0  0  0  0  0  0  0  0
  186.9140  176.9670  147.3460 C   0  0  0  0  0  3  0  0  0  0  0  0
  186.5610  177.4380  144.6050 C   0  0  0  0  0  0  0  0  0  0  0  0
  187.8140  177.6420  145.2010 C   0  0  0  0  0  3  0  0  0  0  0  0
  187.9890  177.4060  146.5680 C   0  0  0  0  0  3  0  0  0  0  0  0
  185.4860  177.0070  145.3920 C   0  0  0  0  0  3  0  0  0  0  0  0
  185.6620  176.7670  146.7580 C   0  0  0  0  0  3  0  0  0  0  0  0
  194.5800  172.0410  142.0760 C   0  0  0  0  0  1  0  0  0  0  0  0
  194.1740  170.2790  140.4260 C   0  0  0  0  0  1  0  0  0  0  0  0
  194.1190  170.6060  141.9050 C   0  0  0  0  0  0  0  0  0  0  0  0
  195.2440  169.4710  142.7870 P   0  0  1  0  0  0  0  0  0  0  0  0
  195.3060  168.1660  142.0180 O   0  0  0  0  0  0  0  0  0  0  0  0
  196.9080  170.1900  142.8470 C   0  0  0  0  0  1  0  0  0  0  0  0
  194.7090  169.2300  144.3880 O   0  0  0  0  0  0  0  0  0  0  0  0
  195.6080  169.9040  145.2230 C   0  0  1  0  0  3  0  0  0  0  0  0
  193.8740  171.7220  145.5520 C   0  0  0  0  0  3  0  0  0  0  0  0
  194.5320  174.0530  145.7120 C   0  0  0  0  0  0  0  0  0  0  0  0
  196.2060  172.3250  145.3540 C   0  0  0  0  0  3  0  0  0  0  0  0
  195.2130  171.3430  145.3890 C   0  0  0  0  0  0  0  0  0  0  0  0
  196.8900  174.6240  145.4720 O   0  0  0  0  0  1  0  0  0  0  0  0
  193.5390  173.0680  145.7180 C   0  0  0  0  0  3  0  0  0  0  0  0
  195.8760  173.6750  145.5100 C   0  0  0  0  0  0  0  0  0  0  0  0
  194.3430  176.3490  144.6990 C   0  0  2  0  0  3  0  0  0  0  0  0
  194.1120  175.4760  145.9440 C   0  0  1  0  0  3  0  0  0  0  0  0
  195.3320  177.4510  145.0280 C   0  0  0  0  0  1  0  0  0  0  0  0
  192.6190  175.5840  146.3340 C   0  0  2  0  0  3  0  0  0  0  0  0
  193.0500  176.9220  144.3740 N   0  0  0  0  0  0  0  0  0  0  0  0
  192.0650  176.4510  145.2710 C   0  0  0  0  0  0  0  0  0  0  0  0
  192.7590  177.6060  143.1250 C   0  0  0  0  0  1  0  0  0  0  0  0
  190.8390  176.7160  145.1470 O   0  0  0  0  0  0  0  0  0  0  0  0
  191.2060  175.5840  148.4480 C   0  0  0  0  0  2  0  0  0  0  0  0
  192.3420  176.2030  147.7210 C   0  0  2  0  0  3  0  0  0  0  0  0
  191.0680  176.8010  147.7540 O   0  0  0  0  0  0  0  0  0  0  0  0
  195.7260  169.1720  146.5530 C   0  0  0  0  0  2  0  0  0  0  0  0
  196.8090  169.6700  147.2770 O   0  0  0  0  0  1  0  0  0  0  0  0
  2  1  2  0  0  0  0
  3  2  1  0  0  0  0
  5  4  2  0  0  0  0
  5  9  1  0  0  0  0
  6  9  1  0  0  0  0
  7 12  1  1  0  0  0
  7  5  1  0  0  0  0
  8  6  1  0  0  0  0
  9 13  1  1  0  0  0
  9  2  1  0  0  0  0
 11 10  1  6  0  0  0
 11  7  1  0  0  0  0
 11  8  1  0  0  0  0
 15 17  1  6  0  0  0
 15 24  1  0  0  0  0
 15 23  1  0  0  0  0
 15 26  1  0  0  0  0
 16 26  1  0  0  0  0
 17 24  1  0  0  0  0
 18 22  1  6  0  0  0
 18 14  1  0  0  0  0
 18 21  1  0  0  0  0
 19 20  1  0  0  0  0
 20 21  1  0  0  0  0
 21 29  1  1  0  0  0
 23 14  1  0  0  0  0
 24 16  1  0  0  0  0
 24 13  1  1  0  0  0
 25 27  1  0  0  0  0
 25 19  1  0  0  0  0
 26 22  1  6  0  0  0
 27 18  1  0  0  0  0
 29 30  2  0  0  0  0
 29 32  1  0  0  0  0
 30 31  1  0  0  0  0
 31 28  2  0  0  0  0
 32 33  2  0  0  0  0
 33 28  1  0  0  0  0
 35 36  1  0  0  0  0
 36 34  1  0  0  0  0
 36  3  1  0  0  0  0
 36 37  1  0  0  0  0
 37 39  1  1  0  0  0
 37 40  1  0  0  0  0
 38 37  2  0  0  0  0
 40 41  1  0  0  0  0
 41 45  1  0  0  0  0
 41 60  1  1  0  0  0
 42 47  1  0  0  0  0
 43 47  2  0  0  0  0
 44 45  1  0  0  0  0
 44 48  2  0  0  0  0
 45 42  2  0  0  0  0
 46 48  1  0  0  0  0
 48 43  1  0  0  0  0
 49 51  1  1  0  0  0
 49 50  1  0  0  0  0
 50 43  1  6  0  0  0
 50 52  1  0  0  0  0
 52 54  1  6  0  0  0
 52 58  1  0  0  0  0
 53 49  1  0  0  0  0
 53 54  1  0  0  0  0
 55 53  1  0  0  0  0
 56 54  2  0  0  0  0
 58 59  1  0  0  0  0
 58 57  1  1  0  0  0
 59 57  1  0  0  0  0
 60 61  1  0  0  0  0
M  END
>  <MODEL>
6

>  <REMARK>
 VINA RESULT:      -7.1      2.770      7.367
  Name = 
  12 active torsions:
  status: ('A' for Active; 'I' for Inactive)
    1  A    between atoms: P_1  and  O_42
    2  A    between atoms: P_1  and  C_53
    3  A    between atoms: C_2  and  C_5
    4  A    between atoms: C_2  and  C_37
    5  A    between atoms: C_2  and  O_42
    6  A    between atoms: C_4  and  C_12
    7  A    between atoms: C_22  and  C_23
    8  A    between atoms: C_32  and  C_36
    9  A    between atoms: O_39  and  C_40
   10  A    between atoms: O_39  and  C_51
   11  A    between atoms: C_40  and  C_47
   12  A    between atoms: C_53  and  N_58
                            x       y       z     vdW  Elec       q    Type
                         _______ _______ _______ _____ _____    ______ ____

>  <TORSDO>
F 12

$$$$
=
 OpenBabel11062420193D

 61 69  0  0  1  0  0  0  0  0999 V2000
  191.3350  178.4190  143.4970 O   0  0  0  0  0  0  0  0  0  0  0  0
  191.1300  177.3030  144.0470 C   0  0  0  0  0  0  0  0  0  0  0  0
  192.0430  176.8800  145.0710 N   0  0  0  0  0  2  0  0  0  0  0  0
  189.1400  177.8650  141.8790 O   0  0  0  0  0  0  0  0  0  0  0  0
  188.8860  177.3510  142.9580 C   0  0  0  0  0  0  0  0  0  0  0  0
  189.4100  175.9100  144.8690 O   0  0  0  0  0  0  0  0  0  0  0  0
  187.5260  177.5500  143.5600 C   0  0  1  0  0  3  0  0  0  0  0  0
  188.1390  175.5640  144.7000 O   0  0  0  0  0  0  0  0  0  0  0  0
  189.9250  176.4660  143.6550 C   0  0  2  0  0  0  0  0  0  0  0  0
  185.9470  176.4110  145.1070 C   0  0  0  0  0  1  0  0  0  0  0  0
  187.4020  176.7470  144.8460 C   0  0  2  0  0  3  0  0  0  0  0  0
  187.3130  178.9010  143.8250 O   0  0  0  0  0  1  0  0  0  0  0  0
  190.3970  175.4710  142.7630 O   0  0  0  0  0  0  0  0  0  0  0  0
  191.7720  172.3390  140.1360 C   0  0  0  0  0  2  0  0  0  0  0  0
  189.9180  173.8510  141.1690 C   0  0  1  0  0  0  0  0  0  0  0  0
  189.1340  173.4190  143.0390 O   0  0  0  0  0  0  0  0  0  0  0  0
  188.8490  174.7420  141.0210 O   0  0  0  0  0  0  0  0  0  0  0  0
  190.5620  171.3190  140.1950 C   0  0  1  0  0  0  0  0  0  0  0  0
  190.3390  169.3490  138.2700 C   0  0  0  0  0  2  0  0  0  0  0  0
  191.4880  169.3620  139.1100 O   0  0  0  0  0  0  0  0  0  0  0  0
  191.1230  169.8860  140.3650 C   0  0  1  0  0  3  0  0  0  0  0  0
  189.5200  171.5480  141.3470 C   0  0  0  0  0  2  0  0  0  0  0  0
  191.4340  174.1700  140.2770 S   0  0  0  0  0  0  0  0  0  0  0  0
  189.3570  174.6250  142.3250 C   0  0  1  0  0  0  0  0  0  0  0  0
  189.3170  170.2330  138.7030 O   0  0  0  0  0  0  0  0  0  0  0  0
  189.9570  172.7490  142.1380 C   0  0  1  0  0  3  0  0  0  0  0  0
  189.9010  171.4030  138.9430 O   0  0  0  0  0  0  0  0  0  0  0  0
  194.2410  169.6160  143.3240 C   0  0  0  0  0  3  0  0  0  0  0  0
  192.2160  169.7450  141.3900 C   0  0  0  0  0  0  0  0  0  0  0  0
  193.5370  169.4640  141.0110 C   0  0  0  0  0  3  0  0  0  0  0  0
  194.5460  169.3990  141.9780 C   0  0  0  0  0  3  0  0  0  0  0  0
  191.9190  169.9690  142.7390 C   0  0  0  0  0  3  0  0  0  0  0  0
  192.9270  169.9010  143.7050 C   0  0  0  0  0  3  0  0  0  0  0  0
  192.4050  174.6630  144.0400 C   0  0  0  0  0  1  0  0  0  0  0  0
  192.4800  174.9650  146.4680 C   0  0  0  0  0  1  0  0  0  0  0  0
  192.7980  175.6270  145.1420 C   0  0  0  0  0  0  0  0  0  0  0  0
  194.5920  175.9600  145.0830 P   0  0  1  0  0  0  0  0  0  0  0  0
  194.8970  177.1110  146.0210 O   0  0  0  0  0  0  0  0  0  0  0  0
  195.5010  174.4940  145.6470 C   0  0  0  0  0  1  0  0  0  0  0  0
  195.0800  176.3060  143.4860 O   0  0  0  0  0  0  0  0  0  0  0  0
  196.1850  175.4920  143.2120 C   0  0  1  0  0  3  0  0  0  0  0  0
  195.1970  173.9830  141.4320 C   0  0  0  0  0  3  0  0  0  0  0  0
  196.0510  174.0160  139.1610 C   0  0  0  0  0  0  0  0  0  0  0  0
  197.0390  175.4400  140.8670 C   0  0  0  0  0  3  0  0  0  0  0  0
  196.1260  174.9610  141.8090 C   0  0  0  0  0  0  0  0  0  0  0  0
  197.9350  175.4730  138.6380 O   0  0  0  0  0  1  0  0  0  0  0  0
  195.1570  173.5190  140.1150 C   0  0  0  0  0  3  0  0  0  0  0  0
  197.0120  174.9730  139.5480 C   0  0  0  0  0  0  0  0  0  0  0  0
  195.1340  172.1950  137.6840 C   0  0  2  0  0  3  0  0  0  0  0  0
  195.9250  173.5120  137.7510 C   0  0  1  0  0  3  0  0  0  0  0  0
  196.0190  171.0980  137.1250 C   0  0  0  0  0  1  0  0  0  0  0  0
  195.2250  174.5380  136.8290 C   0  0  2  0  0  3  0  0  0  0  0  0
  194.0240  172.4460  136.7840 N   0  0  0  0  0  0  0  0  0  0  0  0
  194.0500  173.7870  136.3370 C   0  0  0  0  0  0  0  0  0  0  0  0
  192.8870  171.5550  136.6320 C   0  0  0  0  0  1  0  0  0  0  0  0
  193.1410  174.2920  135.6250 O   0  0  0  0  0  0  0  0  0  0  0  0
  196.6160  176.4080  135.8130 C   0  0  0  0  0  2  0  0  0  0  0  0
  196.0700  175.0390  135.6390 C   0  0  2  0  0  3  0  0  0  0  0  0
  195.4680  176.1600  135.0370 O   0  0  0  0  0  0  0  0  0  0  0  0
  197.4720  176.2550  143.4950 C   0  0  0  0  0  2  0  0  0  0  0  0
  197.2240  177.6280  143.4850 O   0  0  0  0  0  1  0  0  0  0  0  0
  1  2  2  0  0  0  0
  2  3  1  0  0  0  0
  3 36  1  0  0  0  0
  4  5  2  0  0  0  0
  5  7  1  0  0  0  0
  5  9  1  0  0  0  0
  7 12  1  1  0  0  0
  7 11  1  0  0  0  0
  8 11  1  0  0  0  0
  8  6  1  0  0  0  0
  9 13  1  6  0  0  0
  9  2  1  0  0  0  0
  9  6  1  0  0  0  0
 11 10  1  6  0  0  0
 14 23  1  0  0  0  0
 15 23  1  6  0  0  0
 15 26  1  0  0  0  0
 15 24  1  0  0  0  0
 17 15  1  0  0  0  0
 17 24  1  0  0  0  0
 18 14  1  1  0  0  0
 18 21  1  0  0  0  0
 18 22  1  0  0  0  0
 19 25  1  0  0  0  0
 19 20  1  0  0  0  0
 20 21  1  0  0  0  0
 21 29  1  1  0  0  0
 24 13  1  1  0  0  0
 24 16  1  0  0  0  0
 25 27  1  0  0  0  0
 26 22  1  6  0  0  0
 26 16  1  0  0  0  0
 27 18  1  0  0  0  0
 28 33  1  0  0  0  0
 29 32  1  0  0  0  0
 30 29  2  0  0  0  0
 30 31  1  0  0  0  0
 31 28  2  0  0  0  0
 32 33  2  0  0  0  0
 34 36  1  0  0  0  0
 36 35  1  0  0  0  0
 37 36  1  0  0  0  0
 37 39  1  1  0  0  0
 37 38  2  0  0  0  0
 40 37  1  0  0  0  0
 41 40  1  0  0  0  0
 41 60  1  6  0  0  0
 42 45  1  0  0  0  0
 43 48  2  0  0  0  0
 43 47  1  0  0  0  0
 44 45  2  0  0  0  0
 45 41  1  0  0  0  0
 46 48  1  0  0  0  0
 47 42  2  0  0  0  0
 48 44  1  0  0  0  0
 49 51  1  6  0  0  0
 49 50  1  0  0  0  0
 50 43  1  1  0  0  0
 52 54  1  6  0  0  0
 52 50  1  0  0  0  0
 53 49  1  0  0  0  0
 54 53  1  0  0  0  0
 55 53  1  0  0  0  0
 56 54  2  0  0  0  0
 58 57  1  1  0  0  0
 58 52  1  0  0  0  0
 59 58  1  0  0  0  0
 59 57  1  0  0  0  0
 61 60  1  0  0  0  0
M  END
>  <MODEL>
7

>  <REMARK>
 VINA RESULT:      -7.1      2.373      9.219
  Name = 
  12 active torsions:
  status: ('A' for Active; 'I' for Inactive)
    1  A    between atoms: P_1  and  O_42
    2  A    between atoms: P_1  and  C_53
    3  A    between atoms: C_2  and  C_5
    4  A    between atoms: C_2  and  C_37
    5  A    between atoms: C_2  and  O_42
    6  A    between atoms: C_4  and  C_12
    7  A    between atoms: C_22  and  C_23
    8  A    between atoms: C_32  and  C_36
    9  A    between atoms: O_39  and  C_40
   10  A    between atoms: O_39  and  C_51
   11  A    between atoms: C_40  and  C_47
   12  A    between atoms: C_53  and  N_58
                            x       y       z     vdW  Elec       q    Type
                         _______ _______ _______ _____ _____    ______ ____

>  <TORSDO>
F 12

$$$$
=
 OpenBabel11062420193D

 61 69  0  0  1  0  0  0  0  0999 V2000
  194.1550  174.4630  139.3720 O   0  0  0  0  0  0  0  0  0  0  0  0
  193.9970  173.4680  138.6130 C   0  0  0  0  0  0  0  0  0  0  0  0
  192.6580  173.1250  138.2240 N   0  0  0  0  0  2  0  0  0  0  0  0
  195.7790  174.1720  136.3090 O   0  0  0  0  0  0  0  0  0  0  0  0
  195.4470  173.0400  136.6290 C   0  0  0  0  0  0  0  0  0  0  0  0
  194.8890  171.3090  138.2700 O   0  0  0  0  0  0  0  0  0  0  0  0
  195.3450  171.9820  135.5700 C   0  0  1  0  0  3  0  0  0  0  0  0
  195.6420  170.5770  137.4560 O   0  0  0  0  0  0  0  0  0  0  0  0
  195.2000  172.6950  138.1020 C   0  0  2  0  0  0  0  0  0  0  0  0
  195.5260  169.5150  135.3250 C   0  0  0  0  0  1  0  0  0  0  0  0
  195.0170  170.6390  136.2040 C   0  0  2  0  0  3  0  0  0  0  0  0
  194.3580  172.3220  134.6470 O   0  0  0  0  0  1  0  0  0  0  0  0
  196.3060  173.1000  138.8910 O   0  0  0  0  0  0  0  0  0  0  0  0
  196.5800  174.8580  142.8190 C   0  0  0  0  0  2  0  0  0  0  0  0
  197.0210  172.9540  141.0960 C   0  0  1  0  0  0  0  0  0  0  0  0
  195.5260  171.5970  140.6270 O   0  0  0  0  0  0  0  0  0  0  0  0
  197.8980  172.0840  140.4380 O   0  0  0  0  0  0  0  0  0  0  0  0
  196.4420  173.5840  143.7500 C   0  0  1  0  0  0  0  0  0  0  0  0
  197.1860  173.7420  146.4060 C   0  0  0  0  0  2  0  0  0  0  0  0
  196.1330  174.5760  145.9370 O   0  0  0  0  0  0  0  0  0  0  0  0
  195.4560  173.9070  144.8990 C   0  0  1  0  0  3  0  0  0  0  0  0
  195.9300  172.2720  143.0540 C   0  0  0  0  0  2  0  0  0  0  0  0
  197.4230  174.6950  141.1610 S   0  0  0  0  0  0  0  0  0  0  0  0
  196.6060  172.1560  139.8950 C   0  0  1  0  0  0  0  0  0  0  0  0
  197.5660  172.7400  145.4760 O   0  0  0  0  0  0  0  0  0  0  0  0
  195.6950  172.5770  141.6010 C   0  0  1  0  0  3  0  0  0  0  0  0
  197.7260  173.3470  144.3050 O   0  0  0  0  0  0  0  0  0  0  0  0
  191.8810  175.9080  143.5690 C   0  0  0  0  0  3  0  0  0  0  0  0
  194.1960  174.6150  144.4800 C   0  0  0  0  0  0  0  0  0  0  0  0
  194.0500  176.0000  144.6440 C   0  0  0  0  0  3  0  0  0  0  0  0
  192.8940  176.6440  144.1900 C   0  0  0  0  0  3  0  0  0  0  0  0
  193.1820  173.8850  143.8490 C   0  0  0  0  0  3  0  0  0  0  0  0
  192.0250  174.5280  143.3980 C   0  0  0  0  0  3  0  0  0  0  0  0
  192.7880  170.8600  139.2050 C   0  0  0  0  0  1  0  0  0  0  0  0
  191.8270  171.2320  136.9850 C   0  0  0  0  0  1  0  0  0  0  0  0
  191.9820  171.8340  138.3670 C   0  0  0  0  0  0  0  0  0  0  0  0
  190.3190  172.0610  139.0850 P   0  0  1  0  0  0  0  0  0  0  0  0
  189.3230  171.2950  138.2360 O   0  0  0  0  0  0  0  0  0  0  0  0
  190.2870  171.3870  140.7690 C   0  0  0  0  0  1  0  0  0  0  0  0
  189.9290  173.7180  139.1660 O   0  0  0  0  0  0  0  0  0  0  0  0
  188.5660  173.8010  139.4750 C   0  0  1  0  0  3  0  0  0  0  0  0
  188.6090  174.2490  141.9680 C   0  0  0  0  0  3  0  0  0  0  0  0
  187.9050  176.3950  142.8580 C   0  0  0  0  0  0  0  0  0  0  0  0
  187.8170  175.9670  140.4650 C   0  0  0  0  0  3  0  0  0  0  0  0
  188.3380  174.6860  140.6660 C   0  0  0  0  0  0  0  0  0  0  0  0
  187.0790  178.0900  141.3130 O   0  0  0  0  0  1  0  0  0  0  0  0
  188.3990  175.1010  143.0550 C   0  0  0  0  0  3  0  0  0  0  0  0
  187.5960  176.8220  141.5500 C   0  0  0  0  0  0  0  0  0  0  0  0
  186.2680  177.5130  144.4090 C   0  0  2  0  0  3  0  0  0  0  0  0
  187.7480  177.2780  144.0630 C   0  0  1  0  0  3  0  0  0  0  0  0
  185.9490  178.9910  144.3030 C   0  0  0  0  0  1  0  0  0  0  0  0
  188.4430  176.6860  145.3110 C   0  0  2  0  0  3  0  0  0  0  0  0
  186.1080  177.0660  145.7800 N   0  0  0  0  0  0  0  0  0  0  0  0
  187.3290  176.5550  146.2750 C   0  0  0  0  0  0  0  0  0  0  0  0
  184.8190  176.8720  146.4230 C   0  0  0  0  0  1  0  0  0  0  0  0
  187.4380  176.0100  147.4060 O   0  0  0  0  0  0  0  0  0  0  0  0
  190.3430  176.8880  146.9880 C   0  0  0  0  0  2  0  0  0  0  0  0
  189.5660  177.5560  145.9150 C   0  0  2  0  0  3  0  0  0  0  0  0
  189.3210  177.8110  147.2780 O   0  0  0  0  0  0  0  0  0  0  0  0
  187.7850  174.2560  138.2490 C   0  0  0  0  0  2  0  0  0  0  0  0
  188.6640  174.5440  137.2040 O   0  0  0  0  0  1  0  0  0  0  0  0
  2  1  2  0  0  0  0
  3 36  1  0  0  0  0
  3  2  1  0  0  0  0
  4  5  2  0  0  0  0
  5  9  1  0  0  0  0
  7 12  1  6  0  0  0
  7 11  1  0  0  0  0
  7  5  1  0  0  0  0
  8  6  1  0  0  0  0
  9  6  1  0  0  0  0
  9  2  1  1  0  0  0
  9 13  1  0  0  0  0
 11 10  1  6  0  0  0
 11  8  1  0  0  0  0
 15 17  1  1  0  0  0
 15 23  1  0  0  0  0
 15 26  1  0  0  0  0
 16 26  1  0  0  0  0
 18 14  1  6  0  0  0
 18 27  1  0  0  0  0
 18 21  1  0  0  0  0
 20 19  1  0  0  0  0
 21 29  1  6  0  0  0
 21 20  1  0  0  0  0
 22 18  1  0  0  0  0
 23 14  1  0  0  0  0
 24 13  1  6  0  0  0
 24 17  1  0  0  0  0
 24 16  1  0  0  0  0
 24 15  1  0  0  0  0
 25 19  1  0  0  0  0
 26 22  1  1  0  0  0
 27 25  1  0  0  0  0
 28 31  1  0  0  0  0
 29 30  1  0  0  0  0
 31 30  2  0  0  0  0
 32 29  2  0  0  0  0
 33 28  2  0  0  0  0
 33 32  1  0  0  0  0
 35 36  1  0  0  0  0
 36 37  1  0  0  0  0
 36 34  1  0  0  0  0
 37 40  1  0  0  0  0
 37 39  1  1  0  0  0
 38 37  2  0  0  0  0
 40 41  1  0  0  0  0
 41 60  1  6  0  0  0
 41 45  1  0  0  0  0
 42 47  1  0  0  0  0
 43 47  2  0  0  0  0
 44 45  1  0  0  0  0
 44 48  2  0  0  0  0
 45 42  2  0  0  0  0
 46 48  1  0  0  0  0
 48 43  1  0  0  0  0
 49 51  1  1  0  0  0
 49 53  1  0  0  0  0
 50 43  1  6  0  0  0
 50 49  1  0  0  0  0
 50 52  1  0  0  0  0
 52 58  1  0  0  0  0
 52 54  1  1  0  0  0
 53 54  1  0  0  0  0
 53 55  1  0  0  0  0
 54 56  2  0  0  0  0
 57 59  1  0  0  0  0
 58 57  1  1  0  0  0
 58 59  1  0  0  0  0
 61 60  1  0  0  0  0
M  END
>  <MODEL>
8

>  <REMARK>
 VINA RESULT:      -6.8      1.869      2.790
  Name = 
  12 active torsions:
  status: ('A' for Active; 'I' for Inactive)
    1  A    between atoms: P_1  and  O_42
    2  A    between atoms: P_1  and  C_53
    3  A    between atoms: C_2  and  C_5
    4  A    between atoms: C_2  and  C_37
    5  A    between atoms: C_2  and  O_42
    6  A    between atoms: C_4  and  C_12
    7  A    between atoms: C_22  and  C_23
    8  A    between atoms: C_32  and  C_36
    9  A    between atoms: O_39  and  C_40
   10  A    between atoms: O_39  and  C_51
   11  A    between atoms: C_40  and  C_47
   12  A    between atoms: C_53  and  N_58
                            x       y       z     vdW  Elec       q    Type
                         _______ _______ _______ _____ _____    ______ ____

>  <TORSDO>
F 12

$$$$
=
 OpenBabel11062420193D

 61 69  0  0  1  0  0  0  0  0999 V2000
  193.9040  172.8530  145.6550 O   0  0  0  0  0  0  0  0  0  0  0  0
  194.7110  172.8200  144.6860 C   0  0  0  0  0  0  0  0  0  0  0  0
  195.7460  173.8150  144.6400 N   0  0  0  0  0  2  0  0  0  0  0  0
  192.9650  170.3860  144.7480 O   0  0  0  0  0  0  0  0  0  0  0  0
  194.0930  170.4380  144.2800 C   0  0  0  0  0  0  0  0  0  0  0  0
  195.9140  171.5650  143.0890 O   0  0  0  0  0  0  0  0  0  0  0  0
  194.9470  169.2050  144.2930 C   0  0  1  0  0  3  0  0  0  0  0  0
  196.0170  170.3660  142.5250 O   0  0  0  0  0  0  0  0  0  0  0  0
  194.6010  171.7320  143.6330 C   0  0  2  0  0  0  0  0  0  0  0  0
  196.8220  168.1780  143.0230 C   0  0  0  0  0  1  0  0  0  0  0  0
  196.2610  169.4730  143.5760 C   0  0  2  0  0  3  0  0  0  0  0  0
  195.1970  168.8090  145.6050 O   0  0  0  0  0  1  0  0  0  0  0  0
  193.6720  172.1940  142.6690 O   0  0  0  0  0  0  0  0  0  0  0  0
  191.3480  173.5490  139.2970 C   0  0  0  0  0  2  0  0  0  0  0  0
  192.0860  171.7490  141.0310 C   0  0  1  0  0  0  0  0  0  0  0  0
  193.8550  170.7010  140.7660 O   0  0  0  0  0  0  0  0  0  0  0  0
  191.7740  170.8040  142.0150 O   0  0  0  0  0  0  0  0  0  0  0  0
  191.2880  172.2420  138.4050 C   0  0  1  0  0  0  0  0  0  0  0  0
  189.4190  172.0540  136.3790 C   0  0  0  0  0  2  0  0  0  0  0  0
  190.3960  173.0860  136.3180 O   0  0  0  0  0  0  0  0  0  0  0  0
  191.5760  172.6270  136.9330 C   0  0  1  0  0  3  0  0  0  0  0  0
  192.2900  171.0950  138.7900 C   0  0  0  0  0  2  0  0  0  0  0  0
  191.3830  173.3870  141.1570 S   0  0  0  0  0  0  0  0  0  0  0  0
  193.1340  171.1330  141.9100 C   0  0  1  0  0  0  0  0  0  0  0  0
  189.6890  171.0830  137.3790 O   0  0  0  0  0  0  0  0  0  0  0  0
  193.0890  171.5550  139.9770 C   0  0  1  0  0  3  0  0  0  0  0  0
  189.9600  171.7510  138.4950 O   0  0  0  0  0  0  0  0  0  0  0  0
  194.9480  175.2680  136.4780 C   0  0  0  0  0  3  0  0  0  0  0  0
  192.7360  173.5650  136.7330 C   0  0  0  0  0  0  0  0  0  0  0  0
  192.5710  174.9550  136.8210 C   0  0  0  0  0  3  0  0  0  0  0  0
  193.6760  175.8030  136.6930 C   0  0  0  0  0  3  0  0  0  0  0  0
  194.0140  173.0350  136.5270 C   0  0  0  0  0  3  0  0  0  0  0  0
  195.1180  173.8830  136.3950 C   0  0  0  0  0  3  0  0  0  0  0  0
  196.2490  174.0140  142.2280 C   0  0  0  0  0  1  0  0  0  0  0  0
  197.3630  175.4330  143.8820 C   0  0  0  0  0  1  0  0  0  0  0  0
  196.0590  174.7380  143.5470 C   0  0  0  0  0  0  0  0  0  0  0  0
  194.7560  176.0070  143.3900 P   0  0  1  0  0  0  0  0  0  0  0  0
  195.2120  177.2540  144.1220 O   0  0  0  0  0  0  0  0  0  0  0  0
  194.5150  176.4160  141.6390 C   0  0  0  0  0  1  0  0  0  0  0  0
  193.2790  175.4210  144.0080 O   0  0  0  0  0  0  0  0  0  0  0  0
  192.8050  176.3820  144.9090 C   0  0  1  0  0  3  0  0  0  0  0  0
  190.6350  177.5920  145.4060 C   0  0  0  0  0  3  0  0  0  0  0  0
  188.5200  176.7450  144.5700 C   0  0  0  0  0  0  0  0  0  0  0  0
  190.5880  175.5480  144.1180 C   0  0  0  0  0  3  0  0  0  0  0  0
  191.3140  176.5230  144.8070 C   0  0  0  0  0  0  0  0  0  0  0  0
  188.5090  174.6600  143.3050 O   0  0  0  0  0  1  0  0  0  0  0  0
  189.2480  177.7030  145.2820 C   0  0  0  0  0  3  0  0  0  0  0  0
  189.1980  175.6480  143.9980 C   0  0  0  0  0  0  0  0  0  0  0  0
  186.3800  177.2830  145.7810 C   0  0  2  0  0  3  0  0  0  0  0  0
  187.0380  176.9480  144.4320 C   0  0  1  0  0  3  0  0  0  0  0  0
  185.3700  176.2090  146.1360 C   0  0  0  0  0  1  0  0  0  0  0  0
  186.6980  178.0830  143.4390 C   0  0  2  0  0  3  0  0  0  0  0  0
  185.7070  178.5540  145.5870 N   0  0  0  0  0  0  0  0  0  0  0  0
  185.9260  179.0290  144.2740 C   0  0  0  0  0  0  0  0  0  0  0  0
  185.1720  179.3610  146.6710 C   0  0  0  0  0  1  0  0  0  0  0  0
  185.5350  180.1600  143.8780 O   0  0  0  0  0  0  0  0  0  0  0  0
  186.6730  177.2440  141.0390 C   0  0  0  0  0  2  0  0  0  0  0  0
  185.8630  177.6590  142.2110 C   0  0  2  0  0  3  0  0  0  0  0  0
  186.0970  178.5250  141.1260 O   0  0  0  0  0  0  0  0  0  0  0  0
  193.2660  176.0410  146.3190 C   0  0  0  0  0  2  0  0  0  0  0  0
  192.1610  175.8370  147.1450 O   0  0  0  0  0  1  0  0  0  0  0  0
  2  1  2  0  0  0  0
  3  2  1  0  0  0  0
  5  7  1  0  0  0  0
  5  4  2  0  0  0  0
  6  9  1  0  0  0  0
  7 12  1  1  0  0  0
  8  6  1  0  0  0  0
  8 11  1  0  0  0  0
  9 13  1  6  0  0  0
  9  5  1  0  0  0  0
  9  2  1  0  0  0  0
 11 10  1  6  0  0  0
 11  7  1  0  0  0  0
 14 23  1  0  0  0  0
 15 23  1  1  0  0  0
 15 24  1  0  0  0  0
 15 17  1  0  0  0  0
 16 24  1  0  0  0  0
 18 27  1  0  0  0  0
 18 22  1  1  0  0  0
 18 14  1  0  0  0  0
 19 25  1  0  0  0  0
 20 19  1  0  0  0  0
 20 21  1  0  0  0  0
 21 29  1  1  0  0  0
 21 18  1  0  0  0  0
 24 17  1  0  0  0  0
 24 13  1  1  0  0  0
 25 27  1  0  0  0  0
 26 22  1  6  0  0  0
 26 16  1  0  0  0  0
 26 15  1  0  0  0  0
 28 31  1  0  0  0  0
 29 30  1  0  0  0  0
 31 30  2  0  0  0  0
 32 29  2  0  0  0  0
 33 28  2  0  0  0  0
 33 32  1  0  0  0  0
 34 36  1  0  0  0  0
 36 35  1  0  0  0  0
 36  3  1  0  0  0  0
 37 39  1  6  0  0  0
 37 36  1  0  0  0  0
 37 40  1  0  0  0  0
 37 38  2  0  0  0  0
 40 41  1  0  0  0  0
 41 60  1  1  0  0  0
 43 47  2  0  0  0  0
 44 45  1  0  0  0  0
 45 41  1  0  0  0  0
 45 42  2  0  0  0  0
 46 48  1  0  0  0  0
 47 42  1  0  0  0  0
 48 44  2  0  0  0  0
 48 43  1  0  0  0  0
 49 51  1  6  0  0  0
 50 43  1  1  0  0  0
 50 49  1  0  0  0  0
 52 54  1  1  0  0  0
 52 50  1  0  0  0  0
 53 49  1  0  0  0  0
 53 55  1  0  0  0  0
 54 53  1  0  0  0  0
 56 54  2  0  0  0  0
 57 59  1  0  0  0  0
 58 57  1  6  0  0  0
 58 52  1  0  0  0  0
 59 58  1  0  0  0  0
 60 61  1  0  0  0  0
M  END
>  <MODEL>
9

>  <REMARK>
 VINA RESULT:      -6.8      2.703      7.220
  Name = 
  12 active torsions:
  status: ('A' for Active; 'I' for Inactive)
    1  A    between atoms: P_1  and  O_42
    2  A    between atoms: P_1  and  C_53
    3  A    between atoms: C_2  and  C_5
    4  A    between atoms: C_2  and  C_37
    5  A    between atoms: C_2  and  O_42
    6  A    between atoms: C_4  and  C_12
    7  A    between atoms: C_22  and  C_23
    8  A    between atoms: C_32  and  C_36
    9  A    between atoms: O_39  and  C_40
   10  A    between atoms: O_39  and  C_51
   11  A    between atoms: C_40  and  C_47
   12  A    between atoms: C_53  and  N_58
                            x       y       z     vdW  Elec       q    Type
                         _______ _______ _______ _____ _____    ______ ____

>  <TORSDO>
F 12

$$$$
