=
 OpenBabel11062420123D

 52 56  0  0  1  0  0  0  0  0999 V2000
  190.6480  176.3910  144.3930 C   0  0  1  0  0  3  0  0  0  0  0  0
  191.1910  171.2120  141.8130 C   0  0  0  0  0  0  0  0  0  0  0  0
  193.8080  176.7090  146.5820 C   0  0  0  0  0  3  0  0  0  0  0  0
  194.9420  171.6960  141.1210 C   0  0  0  0  0  2  0  0  0  0  0  0
  192.1140  176.6560  144.7120 C   0  0  2  0  0  3  0  0  0  0  0  0
  195.2390  176.6380  144.5810 C   0  0  0  0  0  0  0  0  0  0  0  0
  192.9240  176.7080  143.6350 C   0  0  0  0  0  2  0  0  0  0  0  0
  190.2600  170.0670  142.0260 C   0  0  0  0  0  1  0  0  0  0  0  0
  194.3690  176.4380  143.5930 C   0  0  0  0  0  3  0  0  0  0  0  0
  190.6430  175.2020  142.2600 C   0  0  0  0  0  2  0  0  0  0  0  0
  192.6050  170.9410  141.4730 C   0  0  0  0  0  3  0  0  0  0  0  0
  190.5310  174.9870  143.7600 C   0  0  1  0  0  0  0  0  0  0  0  0
  197.0720  172.9520  141.6260 C   0  0  1  0  0  3  0  0  0  0  0  0
  197.9410  174.4610  143.2420 C   0  0  0  0  0  2  0  0  0  0  0  0
  192.6060  176.3890  146.0920 C   0  0  0  0  0  3  0  0  0  0  0  0
  190.8060  172.4720  142.0200 C   0  0  0  0  0  3  0  0  0  0  0  0
  193.5040  171.9250  141.4170 C   0  0  0  0  0  3  0  0  0  0  0  0
  191.4350  174.0220  144.2230 O   0  0  0  0  0  1  0  0  0  0  0  0
  196.6700  174.6650  144.0510 C   0  0  0  0  0  2  0  0  0  0  0  0
  196.5370  176.0480  144.4940 N   0  0  0  0  0  2  0  0  0  0  0  0
  189.4240  174.4880  142.8190 C   0  0  2  0  0  3  0  0  0  0  0  0
  197.6150  174.2950  141.8270 N   0  0  0  0  0  2  0  0  0  0  0  0
  189.4730  172.9560  142.5280 C   0  0  0  0  0  2  0  0  0  0  0  0
  194.8610  177.4210  145.7920 C   0  0  0  0  0  2  0  0  0  0  0  0
  195.6370  173.0530  141.1180 C   0  0  0  0  0  2  0  0  0  0  0  0
  197.9390  172.1790  140.6400 C   0  0  0  0  0  2  0  0  0  0  0  0
  196.7640  170.2370  136.9470 C   0  0  0  0  0  2  0  0  0  0  0  0
  197.5830  172.2210  138.1340 C   0  0  0  0  0  0  0  0  0  0  0  0
  197.5760  172.1320  135.6130 C   0  0  0  0  0  2  0  0  0  0  0  0
  197.1110  171.0070  138.1470 N   0  0  0  0  0  0  0  0  0  0  0  0
  196.4320  171.1470  135.7750 C   0  0  1  0  0  3  0  0  0  0  0  0
  197.6830  173.0100  136.8590 C   0  0  0  0  0  2  0  0  0  0  0  0
  197.9410  172.8670  139.3580 N   0  0  0  0  0  2  0  0  0  0  0  0
  196.2980  170.3190  134.5160 C   0  0  0  0  0  1  0  0  0  0  0  0
  189.6870  176.5760  145.5860 C   0  0  2  0  0  3  0  0  0  0  0  0
  188.3110  176.9990  145.1300 C   0  0  0  0  0  0  0  0  0  0  0  0
  189.2980  178.1150  143.2210 O   0  0  0  0  0  1  0  0  0  0  0  0
  188.1810  177.7660  143.9700 C   0  0  0  0  0  0  0  0  0  0  0  0
  184.7620  176.8200  146.2910 C   0  0  0  0  0  1  0  0  0  0  0  0
  185.7880  177.8510  144.2950 C   0  0  0  0  0  0  0  0  0  0  0  0
  186.9250  178.1880  143.5540 C   0  0  0  0  0  3  0  0  0  0  0  0
  187.1520  176.6860  145.8700 C   0  0  0  0  0  0  0  0  0  0  0  0
  187.2560  176.0130  146.9330 O   0  0  0  0  0  0  0  0  0  0  0  0
  185.9210  177.1170  145.4520 N   0  0  0  0  0  0  0  0  0  0  0  0
  184.4760  178.3230  143.7860 C   0  0  0  0  0  0  0  0  0  0  0  0
  184.0130  177.9280  142.4870 N   0  0  0  0  0  2  0  0  0  0  0  0
  182.7790  178.3330  141.8840 C   0  0  0  0  0  0  0  0  0  0  0  0
  181.9670  179.0760  142.5040 O   0  0  0  0  0  1  0  0  0  0  0  0
  183.7850  179.1100  144.4900 O   0  0  0  0  0  0  0  0  0  0  0  0
  182.4710  177.9020  140.5950 O   0  0  0  0  0  0  0  0  0  0  0  0
  190.2320  177.0030  147.8770 O   0  0  0  0  0  1  0  0  0  0  0  0
  190.2370  177.5720  146.6030 C   0  0  0  0  0  2  0  0  0  0  0  0
  1  5  1  0  0  0  0
  1 35  1  1  0  0  0
  2 16  2  0  0  0  0
  2  8  1  0  0  0  0
  4 17  1  0  0  0  0
  5  7  1  6  0  0  0
  5 15  1  0  0  0  0
  6 24  1  0  0  0  0
  9  7  1  0  0  0  0
  9  6  2  0  0  0  0
 10 12  1  0  0  0  0
 11  2  1  0  0  0  0
 12 18  1  1  0  0  0
 12  1  1  0  0  0  0
 13 26  1  6  0  0  0
 13 22  1  0  0  0  0
 14 19  1  0  0  0  0
 15  3  2  0  0  0  0
 16 23  1  0  0  0  0
 17 11  2  0  0  0  0
 19 20  1  0  0  0  0
 20  6  1  0  0  0  0
 21 10  1  6  0  0  0
 21 12  1  0  0  0  0
 22 14  1  0  0  0  0
 23 21  1  0  0  0  0
 24  3  1  0  0  0  0
 25  4  1  0  0  0  0
 25 13  1  0  0  0  0
 27 30  1  0  0  0  0
 28 30  2  0  0  0  0
 28 33  1  0  0  0  0
 29 31  1  0  0  0  0
 29 32  1  0  0  0  0
 31 34  1  6  0  0  0
 31 27  1  0  0  0  0
 32 28  1  0  0  0  0
 33 26  1  0  0  0  0
 35 52  1  1  0  0  0
 36 35  1  0  0  0  0
 36 42  1  0  0  0  0
 37 38  1  0  0  0  0
 38 36  2  0  0  0  0
 40 44  1  0  0  0  0
 41 38  1  0  0  0  0
 41 40  2  0  0  0  0
 42 43  2  0  0  0  0
 44 42  1  0  0  0  0
 44 39  1  0  0  0  0
 45 40  1  0  0  0  0
 45 49  2  0  0  0  0
 46 45  1  0  0  0  0
 47 46  1  0  0  0  0
 47 48  1  0  0  0  0
 50 47  2  0  0  0  0
 52 51  1  0  0  0  0
M  END
>  <MODEL>
1

>  <REMARK>
 VINA RESULT:      -8.5      0.000      0.000
  Name = 
  6 active torsions:
  status: ('A' for Active; 'I' for Inactive)
    1  A    between atoms: C_1  and  C_43
    2  A    between atoms: C_2  and  C_43
    3  A    between atoms: C_8  and  C_26
    4  A    between atoms: C_29  and  C_35
    5  A    between atoms: C_35  and  N_46
    6  A    between atoms: C_39  and  C_43
                            x       y       z     vdW  Elec       q    Type
                         _______ _______ _______ _____ _____    ______ ____

>  <TORSDO>
F 6

$$$$
=
 OpenBabel11062420123D

 52 56  0  0  1  0  0  0  0  0999 V2000
  190.6530  176.2580  144.1950 C   0  0  1  0  0  3  0  0  0  0  0  0
  191.1460  171.0570  141.6480 C   0  0  0  0  0  0  0  0  0  0  0  0
  193.7780  176.5270  146.4390 C   0  0  0  0  0  3  0  0  0  0  0  0
  194.9170  171.4680  141.0230 C   0  0  0  0  0  2  0  0  0  0  0  0
  192.1180  176.4960  144.5390 C   0  0  2  0  0  3  0  0  0  0  0  0
  195.2440  176.4200  144.4660 C   0  0  0  0  0  0  0  0  0  0  0  0
  192.9480  176.5290  143.4770 C   0  0  0  0  0  2  0  0  0  0  0  0
  190.1900  169.9310  141.8490 C   0  0  0  0  0  1  0  0  0  0  0  0
  194.3880  176.2320  143.4630 C   0  0  0  0  0  3  0  0  0  0  0  0
  190.6650  175.0580  142.0670 C   0  0  0  0  0  2  0  0  0  0  0  0
  192.5600  170.7580  141.3350 C   0  0  0  0  0  3  0  0  0  0  0  0
  190.5210  174.8530  143.5660 C   0  0  1  0  0  0  0  0  0  0  0  0
  197.0610  172.6860  141.5610 C   0  0  1  0  0  3  0  0  0  0  0  0
  197.9290  174.1860  143.1860 C   0  0  0  0  0  2  0  0  0  0  0  0
  192.5790  176.2280  145.9290 C   0  0  0  0  0  3  0  0  0  0  0  0
  190.7810  172.3250  141.8430 C   0  0  0  0  0  3  0  0  0  0  0  0
  193.4780  171.7250  141.2910 C   0  0  0  0  0  3  0  0  0  0  0  0
  191.3980  173.8730  144.0500 O   0  0  0  0  0  1  0  0  0  0  0  0
  196.6470  174.4180  143.9700 C   0  0  0  0  0  2  0  0  0  0  0  0
  196.5320  175.8050  144.4050 N   0  0  0  0  0  2  0  0  0  0  0  0
  189.4220  174.3710  142.6070 C   0  0  2  0  0  3  0  0  0  0  0  0
  197.6250  174.0190  141.7660 N   0  0  0  0  0  2  0  0  0  0  0  0
  189.4480  172.8360  142.3230 C   0  0  0  0  0  2  0  0  0  0  0  0
  194.8580  177.2150  145.6660 C   0  0  0  0  0  2  0  0  0  0  0  0
  195.6370  172.8120  141.0270 C   0  0  0  0  0  2  0  0  0  0  0  0
  197.9300  171.8930  140.5950 C   0  0  0  0  0  2  0  0  0  0  0  0
  196.7420  169.8570  136.9560 C   0  0  0  0  0  2  0  0  0  0  0  0
  197.5660  171.8710  138.0900 C   0  0  0  0  0  0  0  0  0  0  0  0
  197.5510  171.7170  135.5710 C   0  0  0  0  0  2  0  0  0  0  0  0
  197.0930  170.6580  138.1350 N   0  0  0  0  0  0  0  0  0  0  0  0
  196.4060  170.7380  135.7620 C   0  0  1  0  0  3  0  0  0  0  0  0
  197.6620  172.6270  136.7940 C   0  0  0  0  0  2  0  0  0  0  0  0
  197.9290  172.5470  139.2960 N   0  0  0  0  0  2  0  0  0  0  0  0
  196.2670  169.8780  134.5260 C   0  0  0  0  0  1  0  0  0  0  0  0
  189.6740  176.4660  145.3690 C   0  0  2  0  0  3  0  0  0  0  0  0
  188.3310  176.9630  144.8900 C   0  0  0  0  0  0  0  0  0  0  0  0
  187.2750  175.9300  146.8080 O   0  0  0  0  0  1  0  0  0  0  0  0
  187.1860  176.6570  145.6280 C   0  0  0  0  0  0  0  0  0  0  0  0
  186.8590  178.7800  141.9740 C   0  0  0  0  0  1  0  0  0  0  0  0
  185.8270  177.8130  143.9980 C   0  0  0  0  0  0  0  0  0  0  0  0
  185.9400  177.0830  145.1850 C   0  0  0  0  0  3  0  0  0  0  0  0
  188.1900  177.6860  143.6880 C   0  0  0  0  0  0  0  0  0  0  0  0
  189.2140  177.9510  142.9970 O   0  0  0  0  0  0  0  0  0  0  0  0
  186.9540  178.0910  143.2580 N   0  0  0  0  0  0  0  0  0  0  0  0
  184.4680  178.2480  143.5900 C   0  0  0  0  0  0  0  0  0  0  0  0
  183.9530  177.9140  142.2930 N   0  0  0  0  0  2  0  0  0  0  0  0
  182.6710  178.2940  141.7830 C   0  0  0  0  0  0  0  0  0  0  0  0
  181.8590  178.9520  142.4920 O   0  0  0  0  0  1  0  0  0  0  0  0
  183.7800  178.9520  144.3790 O   0  0  0  0  0  0  0  0  0  0  0  0
  182.3140  177.9310  140.4850 O   0  0  0  0  0  0  0  0  0  0  0  0
  190.1300  176.8480  147.6870 O   0  0  0  0  0  1  0  0  0  0  0  0
  190.2460  177.4150  146.4180 C   0  0  0  0  0  2  0  0  0  0  0  0
  1  5  1  0  0  0  0
  1 35  1  1  0  0  0
  2 16  2  0  0  0  0
  2  8  1  0  0  0  0
  4 25  1  0  0  0  0
  4 17  1  0  0  0  0
  5  7  1  6  0  0  0
  5 15  1  0  0  0  0
  6 24  1  0  0  0  0
  9  7  1  0  0  0  0
  9  6  2  0  0  0  0
 10 12  1  0  0  0  0
 11  2  1  0  0  0  0
 12 18  1  1  0  0  0
 12  1  1  0  0  0  0
 13 26  1  6  0  0  0
 13 22  1  0  0  0  0
 14 19  1  0  0  0  0
 15  3  2  0  0  0  0
 16 23  1  0  0  0  0
 17 11  2  0  0  0  0
 19 20  1  0  0  0  0
 20  6  1  0  0  0  0
 21 10  1  6  0  0  0
 21 12  1  0  0  0  0
 22 14  1  0  0  0  0
 23 21  1  0  0  0  0
 24  3  1  0  0  0  0
 25 13  1  0  0  0  0
 27 30  1  0  0  0  0
 28 30  2  0  0  0  0
 28 33  1  0  0  0  0
 29 31  1  0  0  0  0
 29 32  1  0  0  0  0
 31 34  1  6  0  0  0
 31 27  1  0  0  0  0
 32 28  1  0  0  0  0
 33 26  1  0  0  0  0
 35 52  1  1  0  0  0
 36 35  1  0  0  0  0
 36 38  2  0  0  0  0
 38 37  1  0  0  0  0
 39 44  1  0  0  0  0
 40 41  2  0  0  0  0
 41 38  1  0  0  0  0
 42 36  1  0  0  0  0
 43 42  2  0  0  0  0
 44 42  1  0  0  0  0
 44 40  1  0  0  0  0
 45 40  1  0  0  0  0
 45 49  2  0  0  0  0
 46 45  1  0  0  0  0
 47 46  1  0  0  0  0
 47 48  1  0  0  0  0
 50 47  2  0  0  0  0
 52 51  1  0  0  0  0
M  END
>  <MODEL>
2

>  <REMARK>
 VINA RESULT:      -8.3      0.531      1.376
  Name = 
  6 active torsions:
  status: ('A' for Active; 'I' for Inactive)
    1  A    between atoms: C_1  and  C_43
    2  A    between atoms: C_2  and  C_43
    3  A    between atoms: C_8  and  C_26
    4  A    between atoms: C_29  and  C_35
    5  A    between atoms: C_35  and  N_46
    6  A    between atoms: C_39  and  C_43
                            x       y       z     vdW  Elec       q    Type
                         _______ _______ _______ _____ _____    ______ ____

>  <TORSDO>
F 6

$$$$
=
 OpenBabel11062420123D

 52 56  0  0  1  0  0  0  0  0999 V2000
  188.3290  176.2270  143.6550 C   0  0  1  0  0  3  0  0  0  0  0  0
  193.4020  174.7570  146.0790 C   0  0  0  0  0  0  0  0  0  0  0  0
  188.5690  174.8920  140.0440 C   0  0  0  0  0  3  0  0  0  0  0  0
  193.4210  171.2680  144.4650 C   0  0  0  0  0  2  0  0  0  0  0  0
  188.2910  175.1960  142.5340 C   0  0  2  0  0  3  0  0  0  0  0  0
  188.7450  172.5830  140.8750 C   0  0  0  0  0  0  0  0  0  0  0  0
  188.3020  173.9130  142.9480 C   0  0  0  0  0  2  0  0  0  0  0  0
  194.4120  175.7380  146.5710 C   0  0  0  0  0  1  0  0  0  0  0  0
  188.7720  172.7380  142.1980 C   0  0  0  0  0  3  0  0  0  0  0  0
  189.4010  175.1070  145.5420 C   0  0  0  0  0  2  0  0  0  0  0  0
  193.8540  173.4360  145.5910 C   0  0  0  0  0  3  0  0  0  0  0  0
  189.6700  176.0820  144.4070 C   0  0  1  0  0  0  0  0  0  0  0  0
  192.5070  169.7170  142.6970 C   0  0  1  0  0  3  0  0  0  0  0  0
  191.2160  169.8080  140.7040 C   0  0  0  0  0  2  0  0  0  0  0  0
  188.6910  175.6150  141.1620 C   0  0  0  0  0  3  0  0  0  0  0  0
  192.1120  175.0780  145.9760 C   0  0  0  0  0  3  0  0  0  0  0  0
  193.0050  172.5860  145.0090 C   0  0  0  0  0  3  0  0  0  0  0  0
  190.7750  175.6990  143.6350 O   0  0  0  0  0  1  0  0  0  0  0  0
  190.8730  171.2890  140.7380 C   0  0  0  0  0  2  0  0  0  0  0  0
  189.5080  171.5300  140.2840 N   0  0  0  0  0  2  0  0  0  0  0  0
  189.9610  176.4840  145.8610 C   0  0  2  0  0  3  0  0  0  0  0  0
  191.2660  169.2730  142.0630 N   0  0  0  0  0  2  0  0  0  0  0  0
  191.4680  176.4110  146.2570 C   0  0  0  0  0  2  0  0  0  0  0  0
  187.9760  173.5190  140.0060 C   0  0  0  0  0  2  0  0  0  0  0  0
  192.1780  170.5820  143.9100 C   0  0  0  0  0  2  0  0  0  0  0  0
  193.3460  168.5130  143.1040 C   0  0  0  0  0  2  0  0  0  0  0  0
  195.3100  168.1660  146.9540 C   0  0  0  0  0  2  0  0  0  0  0  0
  195.3620  168.8500  144.5980 C   0  0  0  0  0  0  0  0  0  0  0  0
  197.2130  169.5110  146.1800 C   0  0  0  0  0  2  0  0  0  0  0  0
  194.7640  168.2610  145.5940 N   0  0  0  0  0  0  0  0  0  0  0  0
  196.8280  168.2640  146.9540 C   0  0  1  0  0  3  0  0  0  0  0  0
  196.7650  169.3750  144.7250 C   0  0  0  0  0  2  0  0  0  0  0  0
  194.7210  168.9360  143.3230 N   0  0  0  0  0  2  0  0  0  0  0  0
  197.3240  168.3810  148.3780 C   0  0  0  0  0  1  0  0  0  0  0  0
  188.0680  177.6790  143.2020 C   0  0  2  0  0  3  0  0  0  0  0  0
  186.5960  177.9370  142.9860 C   0  0  0  0  0  0  0  0  0  0  0  0
  186.2540  177.9410  145.3830 O   0  0  0  0  0  1  0  0  0  0  0  0
  185.7500  178.0410  144.0930 C   0  0  0  0  0  0  0  0  0  0  0  0
  184.1570  178.2380  140.1700 C   0  0  0  0  0  1  0  0  0  0  0  0
  183.8600  178.3490  142.6180 C   0  0  0  0  0  0  0  0  0  0  0  0
  184.3890  178.2490  143.9080 C   0  0  0  0  0  3  0  0  0  0  0  0
  186.0370  178.0240  141.6940 C   0  0  0  0  0  0  0  0  0  0  0  0
  186.7860  177.9090  140.6840 O   0  0  0  0  0  0  0  0  0  0  0  0
  184.6910  178.2200  141.5290 N   0  0  0  0  0  0  0  0  0  0  0  0
  182.4000  178.5850  142.4940 C   0  0  0  0  0  0  0  0  0  0  0  0
  181.6740  178.0870  141.3610 N   0  0  0  0  0  2  0  0  0  0  0  0
  180.2740  178.2690  141.1240 C   0  0  0  0  0  0  0  0  0  0  0  0
  179.5490  178.8820  141.9570 O   0  0  0  0  0  1  0  0  0  0  0  0
  181.8060  179.2640  143.3760 O   0  0  0  0  0  0  0  0  0  0  0  0
  179.7040  177.7610  139.9580 O   0  0  0  0  0  0  0  0  0  0  0  0
  190.0850  178.5890  142.2900 O   0  0  0  0  0  1  0  0  0  0  0  0
  188.8570  178.0270  141.9420 C   0  0  0  0  0  2  0  0  0  0  0  0
  1 35  1  6  0  0  0
  1 12  1  0  0  0  0
  2  8  1  0  0  0  0
  3 15  2  0  0  0  0
  4 17  1  0  0  0  0
  5 15  1  6  0  0  0
  5  7  1  0  0  0  0
  5  1  1  0  0  0  0
  6  9  2  0  0  0  0
  9  7  1  0  0  0  0
 11  2  1  0  0  0  0
 12 18  1  6  0  0  0
 12 10  1  0  0  0  0
 12 21  1  0  0  0  0
 13 26  1  1  0  0  0
 13 25  1  0  0  0  0
 14 19  1  0  0  0  0
 14 22  1  0  0  0  0
 16  2  2  0  0  0  0
 16 23  1  0  0  0  0
 17 11  2  0  0  0  0
 20 19  1  0  0  0  0
 20  6  1  0  0  0  0
 21 10  1  1  0  0  0
 21 23  1  0  0  0  0
 22 13  1  0  0  0  0
 24  3  1  0  0  0  0
 24  6  1  0  0  0  0
 25  4  1  0  0  0  0
 26 33  1  0  0  0  0
 28 32  1  0  0  0  0
 28 30  2  0  0  0  0
 29 31  1  0  0  0  0
 30 27  1  0  0  0  0
 31 27  1  0  0  0  0
 31 34  1  1  0  0  0
 32 29  1  0  0  0  0
 33 28  1  0  0  0  0
 35 52  1  6  0  0  0
 36 35  1  0  0  0  0
 36 38  2  0  0  0  0
 38 37  1  0  0  0  0
 39 44  1  0  0  0  0
 40 41  2  0  0  0  0
 41 38  1  0  0  0  0
 42 36  1  0  0  0  0
 43 42  2  0  0  0  0
 44 42  1  0  0  0  0
 44 40  1  0  0  0  0
 45 40  1  0  0  0  0
 45 49  2  0  0  0  0
 46 45  1  0  0  0  0
 47 46  1  0  0  0  0
 47 48  1  0  0  0  0
 50 47  2  0  0  0  0
 52 51  1  0  0  0  0
M  END
>  <MODEL>
3

>  <REMARK>
 VINA RESULT:      -7.9      3.890      6.325
  Name = 
  6 active torsions:
  status: ('A' for Active; 'I' for Inactive)
    1  A    between atoms: C_1  and  C_43
    2  A    between atoms: C_2  and  C_43
    3  A    between atoms: C_8  and  C_26
    4  A    between atoms: C_29  and  C_35
    5  A    between atoms: C_35  and  N_46
    6  A    between atoms: C_39  and  C_43
                            x       y       z     vdW  Elec       q    Type
                         _______ _______ _______ _____ _____    ______ ____

>  <TORSDO>
F 6

$$$$
=
 OpenBabel11062420123D

 52 56  0  0  1  0  0  0  0  0999 V2000
  189.7330  176.0480  144.6310 C   0  0  1  0  0  3  0  0  0  0  0  0
  195.1560  174.0970  145.3830 C   0  0  0  0  0  0  0  0  0  0  0  0
  188.8460  175.0460  141.0130 C   0  0  0  0  0  3  0  0  0  0  0  0
  194.4550  170.7780  143.5730 C   0  0  0  0  0  2  0  0  0  0  0  0
  189.3030  175.1300  143.4940 C   0  0  2  0  0  3  0  0  0  0  0  0
  189.0720  172.6640  141.5840 C   0  0  0  0  0  0  0  0  0  0  0  0
  189.3320  173.8150  143.7900 C   0  0  0  0  0  2  0  0  0  0  0  0
  196.3350  174.9730  145.6360 C   0  0  0  0  0  1  0  0  0  0  0  0
  189.4810  172.6930  142.8510 C   0  0  0  0  0  3  0  0  0  0  0  0
  191.2040  174.7020  146.0420 C   0  0  0  0  0  2  0  0  0  0  0  0
  195.3500  172.8060  144.6870 C   0  0  0  0  0  3  0  0  0  0  0  0
  191.2170  175.7640  144.9540 C   0  0  1  0  0  0  0  0  0  0  0  0
  192.9640  169.4480  142.0300 C   0  0  1  0  0  3  0  0  0  0  0  0
  191.1760  169.7930  140.5040 C   0  0  0  0  0  2  0  0  0  0  0  0
  189.3320  175.6540  142.1010 C   0  0  0  0  0  3  0  0  0  0  0  0
  193.9170  174.4920  145.6770 C   0  0  0  0  0  3  0  0  0  0  0  0
  194.3100  172.0590  144.3110 C   0  0  0  0  0  3  0  0  0  0  0  0
  192.0280  175.3980  143.8720 O   0  0  0  0  0  1  0  0  0  0  0  0
  190.9710  171.2800  140.7460 C   0  0  0  0  0  2  0  0  0  0  0  0
  189.5560  171.6320  140.7220 N   0  0  0  0  0  2  0  0  0  0  0  0
  191.9340  176.0120  146.2900 C   0  0  2  0  0  3  0  0  0  0  0  0
  191.5650  169.1300  141.7470 N   0  0  0  0  0  2  0  0  0  0  0  0
  193.4820  175.8250  146.2300 C   0  0  0  0  0  2  0  0  0  0  0  0
  188.1640  173.7150  141.0450 C   0  0  0  0  0  2  0  0  0  0  0  0
  193.0570  170.2120  143.3480 C   0  0  0  0  0  2  0  0  0  0  0  0
  193.7900  168.1700  142.0890 C   0  0  0  0  0  2  0  0  0  0  0  0
  194.4930  168.2380  137.8120 C   0  0  0  0  0  2  0  0  0  0  0  0
  195.3450  168.4120  140.1060 C   0  0  0  0  0  0  0  0  0  0  0  0
  196.9260  168.2810  138.1440 C   0  0  0  0  0  2  0  0  0  0  0  0
  194.3500  168.3080  139.2710 N   0  0  0  0  0  0  0  0  0  0  0  0
  195.7870  168.8880  137.3450 C   0  0  1  0  0  3  0  0  0  0  0  0
  196.7540  168.6160  139.6250 C   0  0  0  0  0  2  0  0  0  0  0  0
  195.1030  168.4180  141.5150 N   0  0  0  0  0  2  0  0  0  0  0  0
  195.9930  168.6000  135.8740 C   0  0  0  0  0  1  0  0  0  0  0  0
  189.4670  177.5470  144.3830 C   0  0  2  0  0  3  0  0  0  0  0  0
  188.0070  177.8130  144.1060 C   0  0  0  0  0  0  0  0  0  0  0  0
  188.5760  178.5580  141.8730 O   0  0  0  0  0  1  0  0  0  0  0  0
  187.6290  178.3230  142.8620 C   0  0  0  0  0  0  0  0  0  0  0  0
  184.7240  177.7290  145.8920 C   0  0  0  0  0  1  0  0  0  0  0  0
  185.3230  178.3750  143.5860 C   0  0  0  0  0  0  0  0  0  0  0  0
  186.2920  178.6010  142.6030 C   0  0  0  0  0  3  0  0  0  0  0  0
  187.0140  177.6100  145.0870 C   0  0  0  0  0  0  0  0  0  0  0  0
  187.3440  177.1710  146.2240 O   0  0  0  0  0  0  0  0  0  0  0  0
  185.7010  177.8970  144.8200 N   0  0  0  0  0  0  0  0  0  0  0  0
  183.9130  178.6800  143.2370 C   0  0  0  0  0  0  0  0  0  0  0  0
  183.3370  178.1800  142.0210 N   0  0  0  0  0  2  0  0  0  0  0  0
  182.0000  178.4240  141.5720 C   0  0  0  0  0  0  0  0  0  0  0  0
  181.1950  179.1020  142.2680 O   0  0  0  0  0  1  0  0  0  0  0  0
  183.2330  179.4200  144.0000 O   0  0  0  0  0  0  0  0  0  0  0  0
  181.5830  177.9040  140.3470 O   0  0  0  0  0  0  0  0  0  0  0  0
  191.2750  178.9830  143.7520 O   0  0  0  0  0  1  0  0  0  0  0  0
  190.3290  178.0910  143.2470 C   0  0  0  0  0  2  0  0  0  0  0  0
  1 35  1  6  0  0  0
  1 12  1  0  0  0  0
  2  8  1  0  0  0  0
  2 16  2  0  0  0  0
  3 24  1  0  0  0  0
  3 15  2  0  0  0  0
  4 17  1  0  0  0  0
  5 15  1  6  0  0  0
  5  7  1  0  0  0  0
  5  1  1  0  0  0  0
  6  9  2  0  0  0  0
  9  7  1  0  0  0  0
 11  2  1  0  0  0  0
 12 18  1  6  0  0  0
 12 10  1  0  0  0  0
 12 21  1  0  0  0  0
 13 26  1  1  0  0  0
 13 25  1  0  0  0  0
 14 19  1  0  0  0  0
 14 22  1  0  0  0  0
 16 23  1  0  0  0  0
 17 11  2  0  0  0  0
 20 19  1  0  0  0  0
 20  6  1  0  0  0  0
 21 10  1  1  0  0  0
 22 13  1  0  0  0  0
 23 21  1  0  0  0  0
 24  6  1  0  0  0  0
 25  4  1  0  0  0  0
 27 30  1  0  0  0  0
 28 33  1  0  0  0  0
 29 32  1  0  0  0  0
 30 28  2  0  0  0  0
 31 34  1  6  0  0  0
 31 27  1  0  0  0  0
 31 29  1  0  0  0  0
 32 28  1  0  0  0  0
 33 26  1  0  0  0  0
 35 52  1  6  0  0  0
 36 35  1  0  0  0  0
 36 42  1  0  0  0  0
 37 38  1  0  0  0  0
 38 36  2  0  0  0  0
 40 44  1  0  0  0  0
 41 38  1  0  0  0  0
 41 40  2  0  0  0  0
 42 43  2  0  0  0  0
 44 42  1  0  0  0  0
 44 39  1  0  0  0  0
 45 40  1  0  0  0  0
 45 49  2  0  0  0  0
 46 45  1  0  0  0  0
 47 46  1  0  0  0  0
 47 48  1  0  0  0  0
 50 47  2  0  0  0  0
 52 51  1  0  0  0  0
M  END
>  <MODEL>
4

>  <REMARK>
 VINA RESULT:      -7.7      2.658      4.630
  Name = 
  6 active torsions:
  status: ('A' for Active; 'I' for Inactive)
    1  A    between atoms: C_1  and  C_43
    2  A    between atoms: C_2  and  C_43
    3  A    between atoms: C_8  and  C_26
    4  A    between atoms: C_29  and  C_35
    5  A    between atoms: C_35  and  N_46
    6  A    between atoms: C_39  and  C_43
                            x       y       z     vdW  Elec       q    Type
                         _______ _______ _______ _____ _____    ______ ____

>  <TORSDO>
F 6

$$$$
=
 OpenBabel11062420123D

 52 56  0  0  1  0  0  0  0  0999 V2000
  191.9830  172.8030  144.6330 C   0  0  1  0  0  3  0  0  0  0  0  0
  188.6030  174.2390  140.1290 C   0  0  0  0  0  0  0  0  0  0  0  0
  192.4600  176.1070  146.5660 C   0  0  0  0  0  3  0  0  0  0  0  0
  186.3340  176.4960  142.2600 C   0  0  0  0  0  2  0  0  0  0  0  0
  191.6200  173.9420  145.5780 C   0  0  2  0  0  3  0  0  0  0  0  0
  190.0450  176.2280  147.0180 C   0  0  0  0  0  0  0  0  0  0  0  0
  190.3170  173.9970  145.9200 C   0  0  0  0  0  2  0  0  0  0  0  0
  189.0260  174.1530  138.7020 C   0  0  0  0  0  1  0  0  0  0  0  0
  189.5590  175.1790  146.3570 C   0  0  0  0  0  3  0  0  0  0  0  0
  189.9310  172.2790  143.4170 C   0  0  0  0  0  2  0  0  0  0  0  0
  187.6000  175.2520  140.5270 C   0  0  0  0  0  3  0  0  0  0  0  0
  191.2480  173.0270  143.2940 C   0  0  1  0  0  0  0  0  0  0  0  0
  185.9920  177.7850  144.4030 C   0  0  1  0  0  3  0  0  0  0  0  0
  187.2470  178.5610  146.2650 C   0  0  0  0  0  2  0  0  0  0  0  0
  192.5420  175.1070  145.6830 C   0  0  0  0  0  3  0  0  0  0  0  0
  189.1780  173.4940  141.0730 C   0  0  0  0  0  3  0  0  0  0  0  0
  187.3010  175.4620  141.8100 C   0  0  0  0  0  3  0  0  0  0  0  0
  191.0620  174.3600  142.9040 O   0  0  0  0  0  1  0  0  0  0  0  0
  188.5770  177.9150  145.9120 C   0  0  0  0  0  2  0  0  0  0  0  0
  189.2610  177.4200  147.1010 N   0  0  0  0  0  2  0  0  0  0  0  0
  190.8630  171.9560  142.2620 C   0  0  2  0  0  3  0  0  0  0  0  0
  186.1430  177.6950  145.8550 N   0  0  0  0  0  2  0  0  0  0  0  0
  190.3250  172.5290  140.9140 C   0  0  0  0  0  2  0  0  0  0  0  0
  191.4060  176.1930  147.6250 C   0  0  0  0  0  2  0  0  0  0  0  0
  186.2400  176.4140  143.7790 C   0  0  0  0  0  2  0  0  0  0  0  0
  184.6000  178.2920  144.0520 C   0  0  0  0  0  2  0  0  0  0  0  0
  180.7450  179.0500  142.2210 C   0  0  0  0  0  2  0  0  0  0  0  0
  183.0700  178.2900  142.0360 C   0  0  0  0  0  0  0  0  0  0  0  0
  181.4410  177.9490  140.1390 C   0  0  0  0  0  2  0  0  0  0  0  0
  182.1050  178.8300  142.7250 N   0  0  0  0  0  0  0  0  0  0  0  0
  180.7220  179.1600  140.7040 C   0  0  1  0  0  3  0  0  0  0  0  0
  182.9050  177.9660  140.5770 C   0  0  0  0  0  2  0  0  0  0  0  0
  184.3480  178.0700  142.6370 N   0  0  0  0  0  2  0  0  0  0  0  0
  179.2880  179.1660  140.2210 C   0  0  0  0  0  1  0  0  0  0  0  0
  193.4990  172.5880  144.4380 C   0  0  2  0  0  3  0  0  0  0  0  0
  193.7870  171.7580  143.2110 C   0  0  0  0  0  0  0  0  0  0  0  0
  194.6020  173.7350  142.0760 O   0  0  0  0  0  1  0  0  0  0  0  0
  194.3140  172.3760  142.0750 C   0  0  0  0  0  0  0  0  0  0  0  0
  193.3430  168.2510  141.9940 C   0  0  0  0  0  1  0  0  0  0  0  0
  194.2710  170.2620  140.9040 C   0  0  0  0  0  0  0  0  0  0  0  0
  194.5570  171.6310  140.9280 C   0  0  0  0  0  3  0  0  0  0  0  0
  193.4910  170.3800  143.1570 C   0  0  0  0  0  0  0  0  0  0  0  0
  192.9930  169.8100  144.1680 O   0  0  0  0  0  0  0  0  0  0  0  0
  193.7280  169.6600  142.0160 N   0  0  0  0  0  0  0  0  0  0  0  0
  194.5680  169.5240  139.6510 C   0  0  0  0  0  0  0  0  0  0  0  0
  193.6070  169.4780  138.5860 N   0  0  0  0  0  2  0  0  0  0  0  0
  193.7730  168.7840  137.3450 C   0  0  0  0  0  0  0  0  0  0  0  0
  194.8430  168.1660  137.0850 O   0  0  0  0  0  1  0  0  0  0  0  0
  195.6600  168.9010  139.5440 O   0  0  0  0  0  0  0  0  0  0  0  0
  192.7380  168.7920  136.4110 O   0  0  0  0  0  0  0  0  0  0  0  0
  195.5220  172.1370  145.6340 O   0  0  0  0  0  1  0  0  0  0  0  0
  194.1400  171.9530  145.6690 C   0  0  0  0  0  2  0  0  0  0  0  0
  1 35  1  6  0  0  0
  1  5  1  0  0  0  0
  2 11  1  0  0  0  0
  2 16  2  0  0  0  0
  3 24  1  0  0  0  0
  4 25  1  0  0  0  0
  5 15  1  6  0  0  0
  5  7  1  0  0  0  0
  6 20  1  0  0  0  0
  6 24  1  0  0  0  0
  7  9  1  0  0  0  0
  8  2  1  0  0  0  0
  9  6  2  0  0  0  0
 11 17  2  0  0  0  0
 12 18  1  6  0  0  0
 12 10  1  0  0  0  0
 12  1  1  0  0  0  0
 13 26  1  1  0  0  0
 13 22  1  0  0  0  0
 15  3  2  0  0  0  0
 17  4  1  0  0  0  0
 19 14  1  0  0  0  0
 19 20  1  0  0  0  0
 21 23  1  6  0  0  0
 21 12  1  0  0  0  0
 21 10  1  0  0  0  0
 22 14  1  0  0  0  0
 23 16  1  0  0  0  0
 25 13  1  0  0  0  0
 27 30  1  0  0  0  0
 28 33  1  0  0  0  0
 28 30  2  0  0  0  0
 29 32  1  0  0  0  0
 29 31  1  0  0  0  0
 31 34  1  6  0  0  0
 31 27  1  0  0  0  0
 32 28  1  0  0  0  0
 33 26  1  0  0  0  0
 35 52  1  1  0  0  0
 36 35  1  0  0  0  0
 38 37  1  0  0  0  0
 38 36  2  0  0  0  0
 39 44  1  0  0  0  0
 40 41  2  0  0  0  0
 40 44  1  0  0  0  0
 41 38  1  0  0  0  0
 42 36  1  0  0  0  0
 42 43  2  0  0  0  0
 44 42  1  0  0  0  0
 45 40  1  0  0  0  0
 46 45  1  0  0  0  0
 47 46  1  0  0  0  0
 48 47  1  0  0  0  0
 49 45  2  0  0  0  0
 50 47  2  0  0  0  0
 51 52  1  0  0  0  0
M  END
>  <MODEL>
5

>  <REMARK>
 VINA RESULT:      -7.5      3.841     10.935
  Name = 
  6 active torsions:
  status: ('A' for Active; 'I' for Inactive)
    1  A    between atoms: C_1  and  C_43
    2  A    between atoms: C_2  and  C_43
    3  A    between atoms: C_8  and  C_26
    4  A    between atoms: C_29  and  C_35
    5  A    between atoms: C_35  and  N_46
    6  A    between atoms: C_39  and  C_43
                            x       y       z     vdW  Elec       q    Type
                         _______ _______ _______ _____ _____    ______ ____

>  <TORSDO>
F 6

$$$$
=
 OpenBabel11062420123D

 52 56  0  0  1  0  0  0  0  0999 V2000
  191.7950  171.9280  143.9220 C   0  0  1  0  0  3  0  0  0  0  0  0
  188.6560  174.1480  139.5640 C   0  0  0  0  0  0  0  0  0  0  0  0
  192.6740  174.9740  146.1190 C   0  0  0  0  0  3  0  0  0  0  0  0
  186.6770  176.4910  141.8820 C   0  0  0  0  0  2  0  0  0  0  0  0
  191.5730  173.0220  144.9590 C   0  0  2  0  0  3  0  0  0  0  0  0
  190.2900  175.3630  146.5890 C   0  0  0  0  0  0  0  0  0  0  0  0
  190.2850  173.2130  145.3090 C   0  0  0  0  0  2  0  0  0  0  0  0
  189.0750  174.1270  138.1330 C   0  0  0  0  0  1  0  0  0  0  0  0
  189.6800  174.4420  145.8450 C   0  0  0  0  0  3  0  0  0  0  0  0
  189.7020  171.7710  142.6740 C   0  0  0  0  0  2  0  0  0  0  0  0
  187.7880  175.2440  140.0480 C   0  0  0  0  0  3  0  0  0  0  0  0
  191.1040  172.3530  142.6080 C   0  0  1  0  0  0  0  0  0  0  0  0
  186.4860  177.6320  144.1250 C   0  0  1  0  0  3  0  0  0  0  0  0
  187.8160  178.0860  146.0410 C   0  0  0  0  0  2  0  0  0  0  0  0
  192.6340  174.0470  145.1560 C   0  0  0  0  0  3  0  0  0  0  0  0
  189.1260  173.2610  140.4410 C   0  0  0  0  0  3  0  0  0  0  0  0
  187.5080  175.3830  141.3450 C   0  0  0  0  0  3  0  0  0  0  0  0
  191.0910  173.7270  142.3310 O   0  0  0  0  0  1  0  0  0  0  0  0
  189.0570  177.3080  145.6310 C   0  0  0  0  0  2  0  0  0  0  0  0
  189.6630  176.6340  146.7720 N   0  0  0  0  0  2  0  0  0  0  0  0
  190.5940  171.4280  141.4920 C   0  0  2  0  0  3  0  0  0  0  0  0
  186.6150  177.4040  145.5640 N   0  0  0  0  0  2  0  0  0  0  0  0
  190.1410  172.1740  140.1980 C   0  0  0  0  0  2  0  0  0  0  0  0
  191.6320  175.1050  147.1850 C   0  0  0  0  0  2  0  0  0  0  0  0
  186.5630  176.2970  143.3890 C   0  0  0  0  0  2  0  0  0  0  0  0
  185.1720  178.3390  143.8230 C   0  0  0  0  0  2  0  0  0  0  0  0
  181.1680  179.0620  142.3270 C   0  0  0  0  0  2  0  0  0  0  0  0
  183.4680  178.2940  141.9510 C   0  0  0  0  0  0  0  0  0  0  0  0
  181.6760  177.9120  140.2170 C   0  0  0  0  0  2  0  0  0  0  0  0
  182.5690  178.8520  142.7120 N   0  0  0  0  0  0  0  0  0  0  0  0
  181.0100  179.1380  140.8150 C   0  0  1  0  0  3  0  0  0  0  0  0
  183.1730  177.9370  140.5210 C   0  0  0  0  0  2  0  0  0  0  0  0
  184.7950  178.0850  142.4410 N   0  0  0  0  0  2  0  0  0  0  0  0
  179.5390  179.1350  140.4620 C   0  0  0  0  0  1  0  0  0  0  0  0
  193.2720  171.5380  143.7040 C   0  0  2  0  0  3  0  0  0  0  0  0
  193.5030  170.9910  142.3160 C   0  0  0  0  0  0  0  0  0  0  0  0
  192.5960  168.8580  143.0170 O   0  0  0  0  0  1  0  0  0  0  0  0
  193.1660  169.6640  142.0400 C   0  0  0  0  0  0  0  0  0  0  0  0
  195.0080  172.0560  139.0650 C   0  0  0  0  0  1  0  0  0  0  0  0
  193.9760  169.9300  139.7780 C   0  0  0  0  0  0  0  0  0  0  0  0
  193.4000  169.1380  140.7760 C   0  0  0  0  0  3  0  0  0  0  0  0
  194.0980  171.7660  141.2990 C   0  0  0  0  0  0  0  0  0  0  0  0
  194.4290  172.9600  141.5410 O   0  0  0  0  0  0  0  0  0  0  0  0
  194.3300  171.2300  140.0600 N   0  0  0  0  0  0  0  0  0  0  0  0
  194.1840  169.3080  138.4470 C   0  0  0  0  0  0  0  0  0  0  0  0
  193.1640  169.3810  137.4400 N   0  0  0  0  0  2  0  0  0  0  0  0
  193.2440  168.8040  136.1320 C   0  0  0  0  0  0  0  0  0  0  0  0
  194.2820  168.1930  135.7540 O   0  0  0  0  0  1  0  0  0  0  0  0
  195.2520  168.6770  138.2190 O   0  0  0  0  0  0  0  0  0  0  0  0
  192.1580  168.9200  135.2640 O   0  0  0  0  0  0  0  0  0  0  0  0
  194.4340  171.2070  145.7710 O   0  0  0  0  0  1  0  0  0  0  0  0
  193.7520  170.5390  144.7540 C   0  0  0  0  0  2  0  0  0  0  0  0
  1 35  1  6  0  0  0
  1  5  1  0  0  0  0
  2 11  1  0  0  0  0
  2 16  2  0  0  0  0
  3 24  1  0  0  0  0
  4 25  1  0  0  0  0
  5 15  1  6  0  0  0
  5  7  1  0  0  0  0
  6 20  1  0  0  0  0
  6 24  1  0  0  0  0
  7  9  1  0  0  0  0
  8  2  1  0  0  0  0
  9  6  2  0  0  0  0
 11 17  2  0  0  0  0
 12 18  1  6  0  0  0
 12 10  1  0  0  0  0
 12  1  1  0  0  0  0
 13 26  1  1  0  0  0
 13 22  1  0  0  0  0
 15  3  2  0  0  0  0
 17  4  1  0  0  0  0
 19 14  1  0  0  0  0
 19 20  1  0  0  0  0
 21 23  1  6  0  0  0
 21 12  1  0  0  0  0
 21 10  1  0  0  0  0
 22 14  1  0  0  0  0
 23 16  1  0  0  0  0
 25 13  1  0  0  0  0
 27 30  1  0  0  0  0
 28 33  1  0  0  0  0
 28 30  2  0  0  0  0
 29 32  1  0  0  0  0
 29 31  1  0  0  0  0
 31 34  1  1  0  0  0
 31 27  1  0  0  0  0
 32 28  1  0  0  0  0
 33 26  1  0  0  0  0
 35 52  1  1  0  0  0
 36 35  1  0  0  0  0
 38 36  2  0  0  0  0
 38 37  1  0  0  0  0
 39 44  1  0  0  0  0
 40 44  1  0  0  0  0
 40 41  2  0  0  0  0
 41 38  1  0  0  0  0
 42 43  2  0  0  0  0
 42 36  1  0  0  0  0
 44 42  1  0  0  0  0
 45 40  1  0  0  0  0
 46 45  1  0  0  0  0
 47 46  1  0  0  0  0
 48 47  1  0  0  0  0
 49 45  2  0  0  0  0
 50 47  2  0  0  0  0
 52 51  1  0  0  0  0
M  END
>  <MODEL>
6

>  <REMARK>
 VINA RESULT:      -7.5      3.817     10.984
  Name = 
  6 active torsions:
  status: ('A' for Active; 'I' for Inactive)
    1  A    between atoms: C_1  and  C_43
    2  A    between atoms: C_2  and  C_43
    3  A    between atoms: C_8  and  C_26
    4  A    between atoms: C_29  and  C_35
    5  A    between atoms: C_35  and  N_46
    6  A    between atoms: C_39  and  C_43
                            x       y       z     vdW  Elec       q    Type
                         _______ _______ _______ _____ _____    ______ ____

>  <TORSDO>
F 6

$$$$
=
 OpenBabel11062420123D

 52 56  0  0  1  0  0  0  0  0999 V2000
  193.8050  171.5460  144.9710 C   0  0  1  0  0  3  0  0  0  0  0  0
  190.7780  171.5290  140.0100 C   0  0  0  0  0  0  0  0  0  0  0  0
  194.9850  175.1970  145.3620 C   0  0  0  0  0  3  0  0  0  0  0  0
  189.0530  174.8760  140.7860 C   0  0  0  0  0  2  0  0  0  0  0  0
  193.6980  173.0270  145.3120 C   0  0  2  0  0  3  0  0  0  0  0  0
  192.6530  175.9680  145.5120 C   0  0  0  0  0  0  0  0  0  0  0  0
  192.4390  173.4750  145.4850 C   0  0  0  0  0  2  0  0  0  0  0  0
  191.1640  170.7560  138.7950 C   0  0  0  0  0  1  0  0  0  0  0  0
  191.9520  174.8530  145.3160 C   0  0  0  0  0  3  0  0  0  0  0  0
  191.6810  170.9590  143.9190 C   0  0  0  0  0  2  0  0  0  0  0  0
  190.0160  172.7880  139.8560 C   0  0  0  0  0  3  0  0  0  0  0  0
  193.1260  171.3090  143.6040 C   0  0  1  0  0  0  0  0  0  0  0  0
  189.0070  177.0010  142.1470 C   0  0  1  0  0  3  0  0  0  0  0  0
  190.4100  178.2430  143.6070 C   0  0  0  0  0  2  0  0  0  0  0  0
  194.8470  173.9190  144.9940 C   0  0  0  0  0  3  0  0  0  0  0  0
  191.1880  171.1660  141.2260 C   0  0  0  0  0  3  0  0  0  0  0  0
  189.7760  173.5830  140.8990 C   0  0  0  0  0  3  0  0  0  0  0  0
  193.2240  172.3530  142.6740 O   0  0  0  0  0  1  0  0  0  0  0  0
  191.5710  177.2640  143.6750 C   0  0  0  0  0  2  0  0  0  0  0  0
  192.1410  177.2070  145.0160 N   0  0  0  0  0  2  0  0  0  0  0  0
  192.5160  169.9950  143.0920 C   0  0  2  0  0  3  0  0  0  0  0  0
  189.1450  177.5180  143.5080 N   0  0  0  0  0  2  0  0  0  0  0  0
  192.1020  170.0250  141.5870 C   0  0  0  0  0  2  0  0  0  0  0  0
  193.9800  175.9330  146.1900 C   0  0  0  0  0  2  0  0  0  0  0  0
  188.9540  175.4760  142.1840 C   0  0  0  0  0  2  0  0  0  0  0  0
  187.7520  177.5680  141.4970 C   0  0  0  0  0  2  0  0  0  0  0  0
  183.5910  178.2960  140.5200 C   0  0  0  0  0  2  0  0  0  0  0  0
  185.3660  178.0440  142.1960 C   0  0  0  0  0  0  0  0  0  0  0  0
  183.0760  178.8790  142.8490 C   0  0  0  0  0  2  0  0  0  0  0  0
  184.9570  177.9850  140.9600 N   0  0  0  0  0  0  0  0  0  0  0  0
  182.5840  178.0990  141.6430 C   0  0  1  0  0  3  0  0  0  0  0  0
  184.4100  178.3060  143.3260 C   0  0  0  0  0  2  0  0  0  0  0  0
  186.7330  177.7750  142.5140 N   0  0  0  0  0  2  0  0  0  0  0  0
  181.2370  178.6360  141.2110 C   0  0  0  0  0  1  0  0  0  0  0  0
  195.2390  170.9770  145.0160 C   0  0  2  0  0  3  0  0  0  0  0  0
  195.6940  170.5120  143.6530 C   0  0  0  0  0  0  0  0  0  0  0  0
  194.7810  168.3170  144.1070 O   0  0  0  0  0  1  0  0  0  0  0  0
  195.4560  169.1920  143.2660 C   0  0  0  0  0  0  0  0  0  0  0  0
  197.6200  171.7990  140.7190 C   0  0  0  0  0  1  0  0  0  0  0  0
  196.5800  169.6050  141.1670 C   0  0  0  0  0  0  0  0  0  0  0  0
  195.8950  168.7420  142.0270 C   0  0  0  0  0  3  0  0  0  0  0  0
  196.4020  171.3600  142.7750 C   0  0  0  0  0  0  0  0  0  0  0  0
  196.6450  172.5500  143.1210 O   0  0  0  0  0  0  0  0  0  0  0  0
  196.8360  170.8990  141.5610 N   0  0  0  0  0  0  0  0  0  0  0  0
  197.0080  169.0630  139.8530 C   0  0  0  0  0  0  0  0  0  0  0  0
  196.3400  169.4590  138.6470 N   0  0  0  0  0  2  0  0  0  0  0  0
  196.6500  168.9900  137.3310 C   0  0  0  0  0  0  0  0  0  0  0  0
  197.6000  168.1810  137.1370 O   0  0  0  0  0  1  0  0  0  0  0  0
  197.9410  168.2150  139.8080 O   0  0  0  0  0  0  0  0  0  0  0  0
  195.8910  169.4320  136.2480 O   0  0  0  0  0  0  0  0  0  0  0  0
  196.6300  169.8660  146.6150 O   0  0  0  0  0  1  0  0  0  0  0  0
  195.3640  169.8440  146.0300 C   0  0  0  0  0  2  0  0  0  0  0  0
  1 35  1  6  0  0  0
  1  5  1  0  0  0  0
  2 16  2  0  0  0  0
  3 24  1  0  0  0  0
  4 17  1  0  0  0  0
  4 25  1  0  0  0  0
  5 15  1  6  0  0  0
  5  7  1  0  0  0  0
  6 24  1  0  0  0  0
  8  2  1  0  0  0  0
  9  7  1  0  0  0  0
  9  6  2  0  0  0  0
 11  2  1  0  0  0  0
 11 17  2  0  0  0  0
 12 18  1  6  0  0  0
 12 10  1  0  0  0  0
 12  1  1  0  0  0  0
 13 26  1  1  0  0  0
 13 25  1  0  0  0  0
 13 22  1  0  0  0  0
 14 19  1  0  0  0  0
 15  3  2  0  0  0  0
 16 23  1  0  0  0  0
 19 20  1  0  0  0  0
 20  6  1  0  0  0  0
 21 23  1  6  0  0  0
 21 12  1  0  0  0  0
 21 10  1  0  0  0  0
 22 14  1  0  0  0  0
 26 33  1  0  0  0  0
 27 30  1  0  0  0  0
 27 31  1  0  0  0  0
 28 33  1  0  0  0  0
 28 32  1  0  0  0  0
 29 32  1  0  0  0  0
 30 28  2  0  0  0  0
 31 34  1  6  0  0  0
 31 29  1  0  0  0  0
 35 52  1  1  0  0  0
 36 35  1  0  0  0  0
 38 36  2  0  0  0  0
 38 37  1  0  0  0  0
 39 44  1  0  0  0  0
 40 44  1  0  0  0  0
 40 41  2  0  0  0  0
 41 38  1  0  0  0  0
 42 43  2  0  0  0  0
 42 36  1  0  0  0  0
 44 42  1  0  0  0  0
 45 40  1  0  0  0  0
 46 45  1  0  0  0  0
 47 46  1  0  0  0  0
 48 47  1  0  0  0  0
 49 45  2  0  0  0  0
 50 47  2  0  0  0  0
 52 51  1  0  0  0  0
M  END
>  <MODEL>
7

>  <REMARK>
 VINA RESULT:      -7.5      4.149     10.874
  Name = 
  6 active torsions:
  status: ('A' for Active; 'I' for Inactive)
    1  A    between atoms: C_1  and  C_43
    2  A    between atoms: C_2  and  C_43
    3  A    between atoms: C_8  and  C_26
    4  A    between atoms: C_29  and  C_35
    5  A    between atoms: C_35  and  N_46
    6  A    between atoms: C_39  and  C_43
                            x       y       z     vdW  Elec       q    Type
                         _______ _______ _______ _____ _____    ______ ____

>  <TORSDO>
F 6

$$$$
=
 OpenBabel11062420123D

 52 56  0  0  1  0  0  0  0  0999 V2000
  194.5880  172.4790  142.7560 C   0  0  1  0  0  3  0  0  0  0  0  0
  189.2840  173.8710  140.8300 C   0  0  0  0  0  0  0  0  0  0  0  0
  195.6810  175.5320  144.8450 C   0  0  0  0  0  3  0  0  0  0  0  0
  188.2120  175.3880  144.1960 C   0  0  0  0  0  2  0  0  0  0  0  0
  194.6530  173.4010  143.9670 C   0  0  2  0  0  3  0  0  0  0  0  0
  193.8250  175.1610  146.4170 C   0  0  0  0  0  0  0  0  0  0  0  0
  193.7020  173.1780  144.8960 C   0  0  0  0  0  2  0  0  0  0  0  0
  188.9340  174.0500  139.3920 C   0  0  0  0  0  1  0  0  0  0  0  0
  193.1670  174.1380  145.8730 C   0  0  0  0  0  3  0  0  0  0  0  0
  192.2580  171.7630  142.5990 C   0  0  0  0  0  2  0  0  0  0  0  0
  188.5350  174.6280  141.8570 C   0  0  0  0  0  3  0  0  0  0  0  0
  193.2610  172.7430  142.0120 C   0  0  1  0  0  0  0  0  0  0  0  0
  188.8870  176.3020  146.4500 C   0  0  1  0  0  3  0  0  0  0  0  0
  190.8360  177.0370  147.5920 C   0  0  0  0  0  2  0  0  0  0  0  0
  195.3940  174.6870  143.8500 C   0  0  0  0  0  3  0  0  0  0  0  0
  190.3210  173.1220  141.2070 C   0  0  0  0  0  3  0  0  0  0  0  0
  188.9070  174.6100  143.1380 C   0  0  0  0  0  3  0  0  0  0  0  0
  192.7860  174.0610  142.0400 O   0  0  0  0  0  1  0  0  0  0  0  0
  191.8570  176.6900  146.5200 C   0  0  0  0  0  2  0  0  0  0  0  0
  193.0880  176.1730  147.1060 N   0  0  0  0  0  2  0  0  0  0  0  0
  192.5040  171.7650  141.0990 C   0  0  2  0  0  3  0  0  0  0  0  0
  189.7580  176.0510  147.5970 N   0  0  0  0  0  2  0  0  0  0  0  0
  191.3100  172.4060  140.3250 C   0  0  0  0  0  2  0  0  0  0  0  0
  195.3030  175.2890  146.2720 C   0  0  0  0  0  2  0  0  0  0  0  0
  188.9060  175.0910  145.5210 C   0  0  0  0  0  2  0  0  0  0  0  0
  187.4700  176.5950  146.9230 C   0  0  0  0  0  2  0  0  0  0  0  0
  185.1570  177.0430  143.2830 C   0  0  0  0  0  2  0  0  0  0  0  0
  186.3140  178.0460  145.2000 C   0  0  0  0  0  0  0  0  0  0  0  0
  185.4830  179.4770  143.2950 C   0  0  0  0  0  2  0  0  0  0  0  0
  185.8750  176.9980  144.5630 N   0  0  0  0  0  0  0  0  0  0  0  0
  184.4580  178.3790  143.0810 C   0  0  1  0  0  3  0  0  0  0  0  0
  185.9890  179.4390  144.7370 C   0  0  0  0  0  2  0  0  0  0  0  0
  187.0510  177.8930  146.4150 N   0  0  0  0  0  2  0  0  0  0  0  0
  183.9210  178.4580  141.6690 C   0  0  0  0  0  1  0  0  0  0  0  0
  195.8100  172.5640  141.8170 C   0  0  2  0  0  3  0  0  0  0  0  0
  195.5990  171.7550  140.5600 C   0  0  0  0  0  0  0  0  0  0  0  0
  195.5090  173.8020  139.2700 O   0  0  0  0  0  1  0  0  0  0  0  0
  195.4430  172.4170  139.3390 C   0  0  0  0  0  0  0  0  0  0  0  0
  195.1200  168.1940  139.5280 C   0  0  0  0  0  1  0  0  0  0  0  0
  195.1460  170.2920  138.2260 C   0  0  0  0  0  0  0  0  0  0  0  0
  195.2200  171.6870  138.1780 C   0  0  0  0  0  3  0  0  0  0  0  0
  195.5040  170.3480  140.5860 C   0  0  0  0  0  0  0  0  0  0  0  0
  195.6200  169.7370  141.6850 O   0  0  0  0  0  0  0  0  0  0  0  0
  195.2740  169.6440  139.4340 N   0  0  0  0  0  0  0  0  0  0  0  0
  194.9190  169.5750  136.9470 C   0  0  0  0  0  0  0  0  0  0  0  0
  193.5930  169.2040  136.5440 N   0  0  0  0  0  2  0  0  0  0  0  0
  193.2540  168.4960  135.3460 C   0  0  0  0  0  0  0  0  0  0  0  0
  194.1440  168.1670  134.5130 O   0  0  0  0  0  0  0  0  0  0  0  0
  195.9080  169.2570  136.2310 O   0  0  0  0  0  0  0  0  0  0  0  0
  191.9230  168.1660  135.0970 O   0  0  0  0  0  1  0  0  0  0  0  0
  197.8740  173.2400  142.8220 O   0  0  0  0  0  1  0  0  0  0  0  0
  197.0910  172.1250  142.5200 C   0  0  0  0  0  2  0  0  0  0  0  0
  1 35  1  6  0  0  0
  1  5  1  0  0  0  0
  2 16  2  0  0  0  0
  2 11  1  0  0  0  0
  3 24  1  0  0  0  0
  4 25  1  0  0  0  0
  5 15  1  6  0  0  0
  5  7  1  0  0  0  0
  6 20  1  0  0  0  0
  7  9  1  0  0  0  0
  8  2  1  0  0  0  0
  9  6  2  0  0  0  0
 11 17  2  0  0  0  0
 12 18  1  6  0  0  0
 12 10  1  0  0  0  0
 12  1  1  0  0  0  0
 13 26  1  1  0  0  0
 13 22  1  0  0  0  0
 14 22  1  0  0  0  0
 15  3  2  0  0  0  0
 17  4  1  0  0  0  0
 19 20  1  0  0  0  0
 19 14  1  0  0  0  0
 21 23  1  6  0  0  0
 21 12  1  0  0  0  0
 21 10  1  0  0  0  0
 23 16  1  0  0  0  0
 24  6  1  0  0  0  0
 25 13  1  0  0  0  0
 27 30  1  0  0  0  0
 28 33  1  0  0  0  0
 29 32  1  0  0  0  0
 30 28  2  0  0  0  0
 31 34  1  6  0  0  0
 31 27  1  0  0  0  0
 31 29  1  0  0  0  0
 32 28  1  0  0  0  0
 33 26  1  0  0  0  0
 35 52  1  1  0  0  0
 36 42  1  0  0  0  0
 36 35  1  0  0  0  0
 37 38  1  0  0  0  0
 38 36  2  0  0  0  0
 40 44  1  0  0  0  0
 41 40  2  0  0  0  0
 41 38  1  0  0  0  0
 42 43  2  0  0  0  0
 44 39  1  0  0  0  0
 44 42  1  0  0  0  0
 45 40  1  0  0  0  0
 46 45  1  0  0  0  0
 47 46  1  0  0  0  0
 48 47  2  0  0  0  0
 49 45  2  0  0  0  0
 50 47  1  0  0  0  0
 52 51  1  0  0  0  0
M  END
>  <MODEL>
8

>  <REMARK>
 VINA RESULT:      -7.4      3.792     10.599
  Name = 
  6 active torsions:
  status: ('A' for Active; 'I' for Inactive)
    1  A    between atoms: C_1  and  C_43
    2  A    between atoms: C_2  and  C_43
    3  A    between atoms: C_8  and  C_26
    4  A    between atoms: C_29  and  C_35
    5  A    between atoms: C_35  and  N_46
    6  A    between atoms: C_39  and  C_43
                            x       y       z     vdW  Elec       q    Type
                         _______ _______ _______ _____ _____    ______ ____

>  <TORSDO>
F 6

$$$$
=
 OpenBabel11062420123D

 52 56  0  0  1  0  0  0  0  0999 V2000
  192.6090  172.5460  144.4070 C   0  0  1  0  0  3  0  0  0  0  0  0
  190.2680  173.0890  139.1150 C   0  0  0  0  0  0  0  0  0  0  0  0
  192.6820  176.1440  145.7960 C   0  0  0  0  0  3  0  0  0  0  0  0
  187.6110  175.6020  140.3000 C   0  0  0  0  0  2  0  0  0  0  0  0
  192.0600  173.8170  145.0430 C   0  0  2  0  0  3  0  0  0  0  0  0
  190.2270  176.2640  145.7040 C   0  0  0  0  0  0  0  0  0  0  0  0
  190.7140  173.8880  145.0890 C   0  0  0  0  0  2  0  0  0  0  0  0
  190.9840  172.7760  137.8450 C   0  0  0  0  0  1  0  0  0  0  0  0
  189.8870  175.1030  145.1470 C   0  0  0  0  0  3  0  0  0  0  0  0
  190.8590  171.7590  142.8960 C   0  0  0  0  0  2  0  0  0  0  0  0
  189.2100  174.1230  139.1130 C   0  0  0  0  0  3  0  0  0  0  0  0
  192.1760  172.5160  142.9250 C   0  0  1  0  0  0  0  0  0  0  0  0
  186.8290  177.2240  142.0680 C   0  0  1  0  0  3  0  0  0  0  0  0
  187.6640  178.3450  143.9890 C   0  0  0  0  0  2  0  0  0  0  0  0
  192.9440  175.0110  145.1360 C   0  0  0  0  0  3  0  0  0  0  0  0
  190.6270  172.5330  140.2730 C   0  0  0  0  0  3  0  0  0  0  0  0
  188.6460  174.5380  140.2480 C   0  0  0  0  0  3  0  0  0  0  0  0
  192.0830  173.7570  142.2810 O   0  0  0  0  0  1  0  0  0  0  0  0
  189.0360  177.6910  144.0400 C   0  0  0  0  0  2  0  0  0  0  0  0
  189.4490  177.4270  145.4130 N   0  0  0  0  0  2  0  0  0  0  0  0
  192.0130  171.2740  142.0350 C   0  0  2  0  0  3  0  0  0  0  0  0
  186.6690  177.3870  143.5120 N   0  0  0  0  0  2  0  0  0  0  0  0
  191.7760  171.5920  140.5260 C   0  0  0  0  0  2  0  0  0  0  0  0
  191.4280  176.3740  146.5790 C   0  0  0  0  0  2  0  0  0  0  0  0
  187.1960  175.7760  141.7560 C   0  0  0  0  0  2  0  0  0  0  0  0
  185.5460  177.6210  141.3510 C   0  0  0  0  0  2  0  0  0  0  0  0
  181.3500  178.1690  140.4090 C   0  0  0  0  0  2  0  0  0  0  0  0
  183.2040  178.3250  142.0080 C   0  0  0  0  0  0  0  0  0  0  0  0
  180.9610  179.3600  142.5220 C   0  0  0  0  0  2  0  0  0  0  0  0
  182.7320  177.9520  140.8520 N   0  0  0  0  0  0  0  0  0  0  0  0
  180.3990  178.3020  141.5900 C   0  0  1  0  0  3  0  0  0  0  0  0
  182.3110  178.8990  143.0720 C   0  0  0  0  0  2  0  0  0  0  0  0
  184.5830  178.1140  142.3230 N   0  0  0  0  0  2  0  0  0  0  0  0
  179.0380  178.7390  141.0930 C   0  0  0  0  0  1  0  0  0  0  0  0
  194.1300  172.3490  144.5740 C   0  0  2  0  0  3  0  0  0  0  0  0
  194.7390  171.6810  143.3640 C   0  0  0  0  0  0  0  0  0  0  0  0
  194.0520  169.5230  144.2200 O   0  0  0  0  0  1  0  0  0  0  0  0
  194.6850  170.2900  143.2510 C   0  0  0  0  0  0  0  0  0  0  0  0
  196.7240  172.5870  140.3290 C   0  0  0  0  0  1  0  0  0  0  0  0
  195.9120  170.4130  141.1720 C   0  0  0  0  0  0  0  0  0  0  0  0
  195.2660  169.6600  142.1580 C   0  0  0  0  0  3  0  0  0  0  0  0
  195.4100  172.4180  142.3660 C   0  0  0  0  0  0  0  0  0  0  0  0
  195.4870  173.6740  142.4670 O   0  0  0  0  0  0  0  0  0  0  0  0
  195.9870  171.7810  141.2990 N   0  0  0  0  0  0  0  0  0  0  0  0
  196.4990  169.6770  140.0250 C   0  0  0  0  0  0  0  0  0  0  0  0
  195.8750  169.7190  138.7340 N   0  0  0  0  0  2  0  0  0  0  0  0
  196.3360  169.0360  137.5630 C   0  0  0  0  0  0  0  0  0  0  0  0
  197.3930  168.3460  137.5890 O   0  0  0  0  0  1  0  0  0  0  0  0
  197.5330  168.9760  140.2030 O   0  0  0  0  0  0  0  0  0  0  0  0
  195.6070  169.1360  136.3780 O   0  0  0  0  0  0  0  0  0  0  0  0
  195.8320  171.6030  146.0830 O   0  0  0  0  0  1  0  0  0  0  0  0
  194.4590  171.5570  145.8370 C   0  0  0  0  0  2  0  0  0  0  0  0
  1 35  1  6  0  0  0
  1  5  1  0  0  0  0
  2 16  2  0  0  0  0
  3 24  1  0  0  0  0
  4 25  1  0  0  0  0
  5  7  1  6  0  0  0
  5 15  1  0  0  0  0
  6 24  1  0  0  0  0
  7  9  1  0  0  0  0
  8  2  1  0  0  0  0
  9  6  2  0  0  0  0
 10 12  1  0  0  0  0
 11  2  1  0  0  0  0
 11 17  2  0  0  0  0
 12 18  1  6  0  0  0
 12  1  1  0  0  0  0
 13 26  1  6  0  0  0
 13 22  1  0  0  0  0
 14 19  1  0  0  0  0
 15  3  2  0  0  0  0
 16 23  1  0  0  0  0
 17  4  1  0  0  0  0
 19 20  1  0  0  0  0
 20  6  1  0  0  0  0
 21 23  1  6  0  0  0
 21 10  1  0  0  0  0
 21 12  1  0  0  0  0
 22 14  1  0  0  0  0
 25 13  1  0  0  0  0
 26 33  1  0  0  0  0
 27 30  1  0  0  0  0
 27 31  1  0  0  0  0
 28 33  1  0  0  0  0
 28 32  1  0  0  0  0
 29 32  1  0  0  0  0
 30 28  2  0  0  0  0
 31 34  1  6  0  0  0
 31 29  1  0  0  0  0
 35 52  1  1  0  0  0
 36 35  1  0  0  0  0
 38 36  2  0  0  0  0
 38 37  1  0  0  0  0
 39 44  1  0  0  0  0
 40 44  1  0  0  0  0
 40 41  2  0  0  0  0
 41 38  1  0  0  0  0
 42 43  2  0  0  0  0
 42 36  1  0  0  0  0
 44 42  1  0  0  0  0
 45 49  2  0  0  0  0
 45 40  1  0  0  0  0
 46 45  1  0  0  0  0
 47 48  1  0  0  0  0
 47 46  1  0  0  0  0
 50 47  2  0  0  0  0
 52 51  1  0  0  0  0
M  END
>  <MODEL>
9

>  <REMARK>
 VINA RESULT:      -7.3      3.698     11.228
  Name = 
  6 active torsions:
  status: ('A' for Active; 'I' for Inactive)
    1  A    between atoms: C_1  and  C_43
    2  A    between atoms: C_2  and  C_43
    3  A    between atoms: C_8  and  C_26
    4  A    between atoms: C_29  and  C_35
    5  A    between atoms: C_35  and  N_46
    6  A    between atoms: C_39  and  C_43
                            x       y       z     vdW  Elec       q    Type
                         _______ _______ _______ _____ _____    ______ ____

>  <TORSDO>
F 6

$$$$
