=
 OpenBabel11062420223D

 53 59  0  0  1  0  0  0  0  0999 V2000
  188.3990  175.5000  143.2950 C   0  0  0  0  0  2  0  0  0  0  0  0
  188.6010  173.0750  142.3330 C   0  0  0  0  0  2  0  0  0  0  0  0
  188.4790  174.5620  142.1200 C   0  0  0  0  0  0  0  0  0  0  0  0
  192.3280  171.5540  142.6620 O   0  0  0  0  0  0  0  0  0  0  0  0
  188.4930  174.1730  139.7780 C   0  0  0  0  0  2  0  0  0  0  0  0
  191.7900  172.2460  140.4890 N   0  0  0  0  0  2  0  0  0  0  0  0
  189.9160  172.6060  141.8970 N   0  0  0  0  0  0  0  0  0  0  0  0
  188.4120  175.0360  140.9310 N   0  0  0  0  0  0  0  0  0  0  0  0
  189.9160  173.6450  139.6110 C   0  0  0  0  0  2  0  0  0  0  0  0
  190.4940  172.8020  140.7370 C   0  0  0  0  0  0  0  0  0  0  0  0
  192.6460  171.6090  141.4450 C   0  0  0  0  0  0  0  0  0  0  0  0
  195.7260  173.0950  140.0070 C   0  0  0  0  0  0  0  0  0  0  0  0
  195.1260  171.5500  141.8800 C   0  0  0  0  0  2  0  0  0  0  0  0
  196.4850  173.9710  139.5320 O   0  0  0  0  0  0  0  0  0  0  0  0
  194.9920  172.2440  139.1170 N   0  0  0  0  0  0  0  0  0  0  0  0
  193.9660  171.0430  140.9990 C   0  0  2  0  0  3  0  0  0  0  0  0
  195.5900  172.9590  141.4980 C   0  0  2  0  0  3  0  0  0  0  0  0
  194.2030  171.2880  139.5270 C   0  0  0  0  0  0  0  0  0  0  0  0
  193.5120  170.5150  138.6030 O   0  0  0  0  0  0  0  0  0  0  0  0
  193.1040  171.0330  137.3370 C   0  0  0  0  0  1  0  0  0  0  0  0
  194.6810  173.9760  142.0190 N   0  0  0  0  0  2  0  0  0  0  0  0
  195.1860  175.7780  145.8320 C   0  0  0  0  0  3  0  0  0  0  0  0
  194.6170  175.9770  143.4780 C   0  0  0  0  0  3  0  0  0  0  0  0
  195.4360  174.4100  145.6550 C   0  0  0  0  0  3  0  0  0  0  0  0
  194.8650  174.6030  143.2940 C   0  0  0  0  0  0  0  0  0  0  0  0
  194.7770  176.5630  144.7430 C   0  0  0  0  0  3  0  0  0  0  0  0
  195.2760  173.8250  144.3880 C   0  0  0  0  0  3  0  0  0  0  0  0
  189.0760  176.8550  143.0570 C   0  0  1  0  0  3  0  0  0  0  0  0
  188.4720  177.9200  143.9730 C   0  0  0  0  0  2  0  0  0  0  0  0
  187.0070  177.9110  143.8860 N   0  0  0  0  0  0  0  0  0  0  0  0
  184.2090  178.2830  142.7600 C   0  0  0  0  0  0  0  0  0  0  0  0
  184.0450  178.4520  144.0500 O   0  0  0  0  0  0  0  0  0  0  0  0
  188.1690  177.3110  146.4280 F   0  0  0  0  0  0  0  0  0  0  0  0
  186.8820  177.7310  146.3110 C   0  0  0  0  0  0  0  0  0  0  0  0
  183.0470  178.4740  141.9940 C   0  0  0  0  0  3  0  0  0  0  0  0
  185.4030  177.9150  142.1080 C   0  0  0  0  0  0  0  0  0  0  0  0
  184.8540  178.2790  145.0760 C   0  0  0  0  0  0  0  0  0  0  0  0
  186.1940  177.8910  147.5170 C   0  0  0  0  0  3  0  0  0  0  0  0
  183.0410  178.2760  140.6160 C   0  0  0  0  0  3  0  0  0  0  0  0
  184.2110  177.8790  139.9750 C   0  0  0  0  0  3  0  0  0  0  0  0
  184.8600  178.2590  147.5220 C   0  0  0  0  0  3  0  0  0  0  0  0
  185.3760  177.7050  140.7200 C   0  0  0  0  0  3  0  0  0  0  0  0
  186.6020  177.8080  142.6430 O   0  0  0  0  0  0  0  0  0  0  0  0
  186.2460  177.9540  145.0390 C   0  0  0  0  0  0  0  0  0  0  0  0
  184.2050  178.4430  146.3110 C   0  0  0  0  0  3  0  0  0  0  0  0
  190.6040  176.7730  143.1640 C   0  0  0  0  0  2  0  0  0  0  0  0
  191.1310  176.7420  145.6060 C   0  0  0  0  0  3  0  0  0  0  0  0
  191.7810  174.0230  145.5000 C   0  0  0  0  0  3  0  0  0  0  0  0
  191.3720  174.6870  144.3410 C   0  0  0  0  0  3  0  0  0  0  0  0
  191.8650  174.7180  146.7100 C   0  0  0  0  0  3  0  0  0  0  0  0
  191.6250  176.8120  148.0530 C   0  0  0  0  0  1  0  0  0  0  0  0
  191.0540  176.0510  144.3910 C   0  0  0  0  0  0  0  0  0  0  0  0
  191.5390  176.0770  146.7640 C   0  0  0  0  0  0  0  0  0  0  0  0
  3  2  1  0  0  0  0
  3  1  1  0  0  0  0
  5  8  1  0  0  0  0
  6 10  1  0  0  0  0
  6 11  1  0  0  0  0
  7  2  1  0  0  0  0
  8  3  2  0  0  0  0
  9  5  1  0  0  0  0
  9 10  1  0  0  0  0
 10  7  2  0  0  0  0
 11  4  2  0  0  0  0
 12 17  1  0  0  0  0
 14 12  2  0  0  0  0
 15 18  2  0  0  0  0
 15 12  1  0  0  0  0
 16 11  1  1  0  0  0
 16 13  1  0  0  0  0
 17 13  1  0  0  0  0
 17 21  1  6  0  0  0
 18 16  1  0  0  0  0
 19 18  1  0  0  0  0
 20 19  1  0  0  0  0
 21 25  1  0  0  0  0
 23 26  1  0  0  0  0
 24 22  1  0  0  0  0
 25 23  2  0  0  0  0
 25 27  1  0  0  0  0
 26 22  2  0  0  0  0
 27 24  2  0  0  0  0
 28 46  1  1  0  0  0
 28  1  1  0  0  0  0
 28 29  1  0  0  0  0
 30 29  1  0  0  0  0
 30 44  1  0  0  0  0
 31 32  1  0  0  0  0
 32 37  1  0  0  0  0
 34 33  1  0  0  0  0
 34 38  1  0  0  0  0
 35 31  2  0  0  0  0
 36 43  1  0  0  0  0
 36 31  1  0  0  0  0
 37 45  2  0  0  0  0
 38 41  2  0  0  0  0
 39 35  1  0  0  0  0
 40 39  2  0  0  0  0
 40 42  1  0  0  0  0
 42 36  2  0  0  0  0
 43 30  1  0  0  0  0
 44 37  1  0  0  0  0
 44 34  2  0  0  0  0
 45 41  1  0  0  0  0
 46 52  1  0  0  0  0
 47 53  1  0  0  0  0
 48 50  1  0  0  0  0
 49 52  1  0  0  0  0
 49 48  2  0  0  0  0
 50 53  2  0  0  0  0
 52 47  2  0  0  0  0
 53 51  1  0  0  0  0
M  END
>  <MODEL>
1

>  <REMARK>
 VINA RESULT:      -8.8      0.000      0.000
  Name = 
  10 active torsions:
  status: ('A' for Active; 'I' for Inactive)
    1  A    between atoms: N_5  and  C_9
    2  A    between atoms: C_7  and  C_10
    3  A    between atoms: C_9  and  C_29
    4  A    between atoms: C_10  and  C_29
    5  A    between atoms: C_12  and  C_29
    6  A    between atoms: C_12  and  C_48
    7  A    between atoms: C_19  and  C_53
    8  A    between atoms: C_21  and  N_46
    9  A    between atoms: O_23  and  C_38
   10  A    between atoms: C_28  and  N_46
                            x       y       z     vdW  Elec       q    Type
                         _______ _______ _______ _____ _____    ______ ____

>  <TORSDO>
F 10

$$$$
=
 OpenBabel11062420223D

 53 59  0  0  1  0  0  0  0  0999 V2000
  191.7490  173.7200  145.2970 C   0  0  0  0  0  2  0  0  0  0  0  0
  189.3180  174.5360  145.8180 C   0  0  0  0  0  2  0  0  0  0  0  0
  190.8100  174.6990  145.9520 C   0  0  0  0  0  0  0  0  0  0  0  0
  187.5410  176.3120  142.6560 O   0  0  0  0  0  0  0  0  0  0  0  0
  190.4270  176.6230  147.2870 C   0  0  0  0  0  2  0  0  0  0  0  0
  188.2740  177.8260  144.2860 N   0  0  0  0  0  2  0  0  0  0  0  0
  188.7590  175.6210  145.0100 N   0  0  0  0  0  0  0  0  0  0  0  0
  191.2900  175.6590  146.6510 N   0  0  0  0  0  0  0  0  0  0  0  0
  189.8020  177.5440  146.2430 C   0  0  0  0  0  2  0  0  0  0  0  0
  188.9180  176.9110  145.1800 C   0  0  0  0  0  0  0  0  0  0  0  0
  187.5760  177.4980  143.0790 C   0  0  0  0  0  0  0  0  0  0  0  0
  184.0850  178.1650  142.0160 C   0  0  0  0  0  0  0  0  0  0  0  0
  185.9400  179.4120  143.1370 C   0  0  0  0  0  2  0  0  0  0  0  0
  182.8580  177.9690  141.8580 O   0  0  0  0  0  0  0  0  0  0  0  0
  184.9900  177.8440  140.9530 N   0  0  0  0  0  0  0  0  0  0  0  0
  186.9210  178.5890  142.2780 C   0  0  2  0  0  3  0  0  0  0  0  0
  184.5860  178.7200  143.3210 C   0  0  2  0  0  3  0  0  0  0  0  0
  186.2790  178.0430  141.0240 C   0  0  0  0  0  0  0  0  0  0  0  0
  187.0950  177.6920  139.9570 O   0  0  0  0  0  0  0  0  0  0  0  0
  186.5910  176.9950  138.8160 C   0  0  0  0  0  1  0  0  0  0  0  0
  184.6620  177.6640  144.3260 N   0  0  0  0  0  2  0  0  0  0  0  0
  186.3500  178.3360  148.1660 C   0  0  0  0  0  3  0  0  0  0  0  0
  185.6270  176.7910  146.4350 C   0  0  0  0  0  3  0  0  0  0  0  0
  185.9420  179.4170  147.3710 C   0  0  0  0  0  3  0  0  0  0  0  0
  185.2150  177.8730  145.6310 C   0  0  0  0  0  0  0  0  0  0  0  0
  186.1920  177.0220  147.6980 C   0  0  0  0  0  3  0  0  0  0  0  0
  185.3760  179.1840  146.1070 C   0  0  0  0  0  3  0  0  0  0  0  0
  192.8430  174.3780  144.4500 C   0  0  1  0  0  3  0  0  0  0  0  0
  192.2390  175.4390  143.5300 C   0  0  0  0  0  2  0  0  0  0  0  0
  192.1000  174.9250  142.1620 N   0  0  0  0  0  0  0  0  0  0  0  0
  191.0550  173.3110  139.8080 C   0  0  0  0  0  0  0  0  0  0  0  0
  192.3210  173.4880  139.5200 O   0  0  0  0  0  0  0  0  0  0  0  0
  194.3460  176.6070  142.7040 F   0  0  0  0  0  0  0  0  0  0  0  0
  194.3260  175.7620  141.6400 C   0  0  0  0  0  0  0  0  0  0  0  0
  190.3500  172.5210  138.8850 C   0  0  0  0  0  3  0  0  0  0  0  0
  190.3620  173.8520  140.9110 C   0  0  0  0  0  0  0  0  0  0  0  0
  193.2630  174.2200  140.0800 C   0  0  0  0  0  0  0  0  0  0  0  0
  195.4910  175.7430  140.8690 C   0  0  0  0  0  3  0  0  0  0  0  0
  188.9840  172.2880  139.0170 C   0  0  0  0  0  3  0  0  0  0  0  0
  188.2930  172.8480  140.0870 C   0  0  0  0  0  3  0  0  0  0  0  0
  195.5670  174.9650  139.7270 C   0  0  0  0  0  3  0  0  0  0  0  0
  188.9830  173.6190  141.0210 C   0  0  0  0  0  3  0  0  0  0  0  0
  190.8770  174.5110  141.9290 O   0  0  0  0  0  0  0  0  0  0  0  0
  193.1740  174.9710  141.2940 C   0  0  0  0  0  0  0  0  0  0  0  0
  194.4600  174.2200  139.3430 C   0  0  0  0  0  3  0  0  0  0  0  0
  194.0000  174.9160  145.3020 C   0  0  0  0  0  2  0  0  0  0  0  0
  195.0650  172.6580  145.3910 C   0  0  0  0  0  3  0  0  0  0  0  0
  197.5980  173.7620  144.9510 C   0  0  0  0  0  3  0  0  0  0  0  0
  196.4770  174.5930  145.0140 C   0  0  0  0  0  3  0  0  0  0  0  0
  197.4520  172.3800  145.1080 C   0  0  0  0  0  3  0  0  0  0  0  0
  196.0340  170.3580  145.4890 C   0  0  0  0  0  1  0  0  0  0  0  0
  195.2090  174.0420  145.2430 C   0  0  0  0  0  0  0  0  0  0  0  0
  196.1860  171.8280  145.3260 C   0  0  0  0  0  0  0  0  0  0  0  0
  1  3  1  0  0  0  0
  2  3  1  0  0  0  0
  3  8  2  0  0  0  0
  4 11  2  0  0  0  0
  6 10  1  0  0  0  0
  7 10  2  0  0  0  0
  7  2  1  0  0  0  0
  8  5  1  0  0  0  0
  9  5  1  0  0  0  0
 10  9  1  0  0  0  0
 11  6  1  0  0  0  0
 12 17  1  0  0  0  0
 13 17  1  0  0  0  0
 14 12  2  0  0  0  0
 15 18  2  0  0  0  0
 15 12  1  0  0  0  0
 16 11  1  1  0  0  0
 16 13  1  0  0  0  0
 17 21  1  1  0  0  0
 18 16  1  0  0  0  0
 19 18  1  0  0  0  0
 20 19  1  0  0  0  0
 21 25  1  0  0  0  0
 23 26  2  0  0  0  0
 24 22  2  0  0  0  0
 25 27  2  0  0  0  0
 25 23  1  0  0  0  0
 26 22  1  0  0  0  0
 27 24  1  0  0  0  0
 28 29  1  1  0  0  0
 28  1  1  0  0  0  0
 28 46  1  0  0  0  0
 30 29  1  0  0  0  0
 31 36  1  0  0  0  0
 32 31  1  0  0  0  0
 32 37  1  0  0  0  0
 34 33  1  0  0  0  0
 35 39  1  0  0  0  0
 35 31  2  0  0  0  0
 36 42  2  0  0  0  0
 36 43  1  0  0  0  0
 37 44  2  0  0  0  0
 38 34  2  0  0  0  0
 39 40  2  0  0  0  0
 40 42  1  0  0  0  0
 41 38  1  0  0  0  0
 43 30  1  0  0  0  0
 44 34  1  0  0  0  0
 44 30  1  0  0  0  0
 45 41  2  0  0  0  0
 45 37  1  0  0  0  0
 48 49  2  0  0  0  0
 48 50  1  0  0  0  0
 49 52  1  0  0  0  0
 50 53  2  0  0  0  0
 52 46  1  0  0  0  0
 52 47  2  0  0  0  0
 53 47  1  0  0  0  0
 53 51  1  0  0  0  0
M  END
>  <MODEL>
2

>  <REMARK>
 VINA RESULT:      -8.7      2.410      8.768
  Name = 
  10 active torsions:
  status: ('A' for Active; 'I' for Inactive)
    1  A    between atoms: N_5  and  C_9
    2  A    between atoms: C_7  and  C_10
    3  A    between atoms: C_9  and  C_29
    4  A    between atoms: C_10  and  C_29
    5  A    between atoms: C_12  and  C_29
    6  A    between atoms: C_12  and  C_48
    7  A    between atoms: C_19  and  C_53
    8  A    between atoms: C_21  and  N_46
    9  A    between atoms: O_23  and  C_38
   10  A    between atoms: C_28  and  N_46
                            x       y       z     vdW  Elec       q    Type
                         _______ _______ _______ _____ _____    ______ ____

>  <TORSDO>
F 10

$$$$
=
 OpenBabel11062420223D

 53 59  0  0  1  0  0  0  0  0999 V2000
  191.7920  173.7680  145.1360 C   0  0  0  0  0  2  0  0  0  0  0  0
  189.3510  174.5400  145.6780 C   0  0  0  0  0  2  0  0  0  0  0  0
  190.8410  174.7170  145.8170 C   0  0  0  0  0  0  0  0  0  0  0  0
  187.5530  176.3810  142.5660 O   0  0  0  0  0  0  0  0  0  0  0  0
  190.4340  176.5990  147.2050 C   0  0  0  0  0  2  0  0  0  0  0  0
  188.2670  177.8580  144.2380 N   0  0  0  0  0  2  0  0  0  0  0  0
  188.7790  175.6400  144.9010 N   0  0  0  0  0  0  0  0  0  0  0  0
  191.3100  175.6630  146.5430 N   0  0  0  0  0  0  0  0  0  0  0  0
  189.7980  177.5400  146.1860 C   0  0  0  0  0  2  0  0  0  0  0  0
  188.9220  176.9270  145.1060 C   0  0  0  0  0  0  0  0  0  0  0  0
  187.5730  177.5550  143.0220 C   0  0  0  0  0  0  0  0  0  0  0  0
  184.0680  178.2300  142.0140 C   0  0  0  0  0  0  0  0  0  0  0  0
  185.9310  179.4610  143.1380 C   0  0  0  0  0  2  0  0  0  0  0  0
  182.8390  178.0330  141.8660 O   0  0  0  0  0  0  0  0  0  0  0  0
  184.9610  177.9340  140.9340 N   0  0  0  0  0  0  0  0  0  0  0  0
  186.9050  178.6600  142.2510 C   0  0  2  0  0  3  0  0  0  0  0  0
  184.5820  178.7600  143.3240 C   0  0  2  0  0  3  0  0  0  0  0  0
  186.2500  178.1370  140.9940 C   0  0  0  0  0  0  0  0  0  0  0  0
  187.0540  177.8100  139.9100 O   0  0  0  0  0  0  0  0  0  0  0  0
  186.6910  176.7900  138.9780 C   0  0  0  0  0  1  0  0  0  0  0  0
  184.6740  177.6840  144.3060 N   0  0  0  0  0  2  0  0  0  0  0  0
  186.3530  178.2980  148.1590 C   0  0  0  0  0  3  0  0  0  0  0  0
  185.6400  176.7800  146.4010 C   0  0  0  0  0  3  0  0  0  0  0  0
  185.9410  179.3910  147.3830 C   0  0  0  0  0  3  0  0  0  0  0  0
  185.2240  177.8730  145.6160 C   0  0  0  0  0  0  0  0  0  0  0  0
  186.2020  176.9920  147.6690 C   0  0  0  0  0  3  0  0  0  0  0  0
  185.3770  179.1770  146.1140 C   0  0  0  0  0  3  0  0  0  0  0  0
  192.5250  174.3770  143.9360 C   0  0  1  0  0  3  0  0  0  0  0  0
  191.5320  174.7320  142.8290 C   0  0  0  0  0  2  0  0  0  0  0  0
  191.9330  174.1260  141.5540 N   0  0  0  0  0  0  0  0  0  0  0  0
  193.6240  173.4330  139.1260 C   0  0  0  0  0  0  0  0  0  0  0  0
  192.3960  173.3620  138.6740 O   0  0  0  0  0  0  0  0  0  0  0  0
  189.2200  173.7630  142.3780 F   0  0  0  0  0  0  0  0  0  0  0  0
  189.5980  173.6200  141.0800 C   0  0  0  0  0  0  0  0  0  0  0  0
  194.6170  173.2130  138.1570 C   0  0  0  0  0  3  0  0  0  0  0  0
  194.0150  173.6750  140.4590 C   0  0  0  0  0  0  0  0  0  0  0  0
  191.2250  173.4200  139.2770 C   0  0  0  0  0  0  0  0  0  0  0  0
  188.5650  173.3340  140.1840 C   0  0  0  0  0  3  0  0  0  0  0  0
  195.9690  173.1980  138.4880 C   0  0  0  0  0  3  0  0  0  0  0  0
  196.3540  173.4030  139.8100 C   0  0  0  0  0  3  0  0  0  0  0  0
  188.8370  173.1100  138.8460 C   0  0  0  0  0  3  0  0  0  0  0  0
  195.3800  173.6420  140.7790 C   0  0  0  0  0  3  0  0  0  0  0  0
  193.2370  174.0140  141.4680 O   0  0  0  0  0  0  0  0  0  0  0  0
  190.9700  173.7100  140.6540 C   0  0  0  0  0  0  0  0  0  0  0  0
  190.1540  173.1490  138.4080 C   0  0  0  0  0  3  0  0  0  0  0  0
  193.4230  175.5550  144.3340 C   0  0  0  0  0  2  0  0  0  0  0  0
  195.3400  174.0560  144.8990 C   0  0  0  0  0  3  0  0  0  0  0  0
  197.1220  175.6960  143.4990 C   0  0  0  0  0  3  0  0  0  0  0  0
  195.7670  176.0320  143.5600 C   0  0  0  0  0  3  0  0  0  0  0  0
  197.5840  174.5410  144.1370 C   0  0  0  0  0  3  0  0  0  0  0  0
  197.1880  172.4920  145.5100 C   0  0  0  0  0  1  0  0  0  0  0  0
  194.8750  175.2160  144.2690 C   0  0  0  0  0  0  0  0  0  0  0  0
  196.6940  173.7210  144.8360 C   0  0  0  0  0  0  0  0  0  0  0  0
  1  3  1  0  0  0  0
  2  3  1  0  0  0  0
  3  8  2  0  0  0  0
  4 11  2  0  0  0  0
  6 10  1  0  0  0  0
  7 10  2  0  0  0  0
  7  2  1  0  0  0  0
  8  5  1  0  0  0  0
  9  5  1  0  0  0  0
 10  9  1  0  0  0  0
 11  6  1  0  0  0  0
 12 17  1  0  0  0  0
 13 17  1  0  0  0  0
 14 12  2  0  0  0  0
 15 18  2  0  0  0  0
 15 12  1  0  0  0  0
 16 11  1  1  0  0  0
 16 13  1  0  0  0  0
 17 21  1  1  0  0  0
 18 16  1  0  0  0  0
 19 18  1  0  0  0  0
 20 19  1  0  0  0  0
 21 25  1  0  0  0  0
 23 26  2  0  0  0  0
 24 22  2  0  0  0  0
 25 27  2  0  0  0  0
 25 23  1  0  0  0  0
 26 22  1  0  0  0  0
 27 24  1  0  0  0  0
 28 29  1  6  0  0  0
 28 46  1  0  0  0  0
 28  1  1  0  0  0  0
 30 29  1  0  0  0  0
 31 36  1  0  0  0  0
 32 31  1  0  0  0  0
 32 37  1  0  0  0  0
 34 33  1  0  0  0  0
 35 39  1  0  0  0  0
 35 31  2  0  0  0  0
 36 42  2  0  0  0  0
 36 43  1  0  0  0  0
 37 44  2  0  0  0  0
 38 34  2  0  0  0  0
 39 40  2  0  0  0  0
 40 42  1  0  0  0  0
 41 38  1  0  0  0  0
 43 30  1  0  0  0  0
 44 34  1  0  0  0  0
 44 30  1  0  0  0  0
 45 41  2  0  0  0  0
 45 37  1  0  0  0  0
 48 49  2  0  0  0  0
 48 50  1  0  0  0  0
 49 52  1  0  0  0  0
 50 53  2  0  0  0  0
 52 46  1  0  0  0  0
 52 47  2  0  0  0  0
 53 47  1  0  0  0  0
 53 51  1  0  0  0  0
M  END
>  <MODEL>
3

>  <REMARK>
 VINA RESULT:      -8.5      2.071      9.049
  Name = 
  10 active torsions:
  status: ('A' for Active; 'I' for Inactive)
    1  A    between atoms: N_5  and  C_9
    2  A    between atoms: C_7  and  C_10
    3  A    between atoms: C_9  and  C_29
    4  A    between atoms: C_10  and  C_29
    5  A    between atoms: C_12  and  C_29
    6  A    between atoms: C_12  and  C_48
    7  A    between atoms: C_19  and  C_53
    8  A    between atoms: C_21  and  N_46
    9  A    between atoms: O_23  and  C_38
   10  A    between atoms: C_28  and  N_46
                            x       y       z     vdW  Elec       q    Type
                         _______ _______ _______ _____ _____    ______ ____

>  <TORSDO>
F 10

$$$$
=
 OpenBabel11062420223D

 53 59  0  0  1  0  0  0  0  0999 V2000
  189.2130  176.8540  143.5150 C   0  0  0  0  0  2  0  0  0  0  0  0
  191.5360  177.8830  144.1430 C   0  0  0  0  0  2  0  0  0  0  0  0
  190.3740  176.9790  144.4670 C   0  0  0  0  0  0  0  0  0  0  0  0
  194.5880  176.2860  142.0350 O   0  0  0  0  0  0  0  0  0  0  0  0
  191.4480  176.4170  146.5070 C   0  0  0  0  0  2  0  0  0  0  0  0
  194.4680  175.5050  144.2400 N   0  0  0  0  0  2  0  0  0  0  0  0
  192.7400  177.0910  143.8900 N   0  0  0  0  0  0  0  0  0  0  0  0
  190.3530  176.3320  145.5720 N   0  0  0  0  0  0  0  0  0  0  0  0
  192.6670  175.6760  145.9630 C   0  0  0  0  0  2  0  0  0  0  0  0
  193.2680  176.1660  144.6560 C   0  0  0  0  0  0  0  0  0  0  0  0
  195.1090  175.6150  142.9640 C   0  0  0  0  0  0  0  0  0  0  0  0
  195.9640  172.0390  142.4700 C   0  0  0  0  0  0  0  0  0  0  0  0
  196.4040  174.2140  141.3190 C   0  0  0  0  0  2  0  0  0  0  0  0
  195.7960  170.7990  142.4060 O   0  0  0  0  0  0  0  0  0  0  0  0
  196.4630  172.6180  143.6810 N   0  0  0  0  0  0  0  0  0  0  0  0
  196.3940  174.8750  142.7120 C   0  0  2  0  0  3  0  0  0  0  0  0
  195.6260  172.8960  141.2810 C   0  0  2  0  0  3  0  0  0  0  0  0
  196.6940  173.8950  143.8220 C   0  0  0  0  0  0  0  0  0  0  0  0
  197.1650  174.3860  145.0340 O   0  0  0  0  0  0  0  0  0  0  0  0
  197.0590  173.6370  146.2460 C   0  0  0  0  0  1  0  0  0  0  0  0
  194.1870  173.1300  141.2180 N   0  0  0  0  0  2  0  0  0  0  0  0
  191.6560  171.5110  138.2150 C   0  0  0  0  0  3  0  0  0  0  0  0
  193.2970  171.1790  139.9760 C   0  0  0  0  0  3  0  0  0  0  0  0
  191.7070  172.8960  138.4290 C   0  0  0  0  0  3  0  0  0  0  0  0
  193.3530  172.5700  140.1960 C   0  0  0  0  0  0  0  0  0  0  0  0
  192.4520  170.6520  138.9880 C   0  0  0  0  0  3  0  0  0  0  0  0
  192.5550  173.4230  139.4170 C   0  0  0  0  0  3  0  0  0  0  0  0
  188.9220  175.4160  143.0750 C   0  0  1  0  0  3  0  0  0  0  0  0
  187.4850  175.2960  142.5660 C   0  0  0  0  0  2  0  0  0  0  0  0
  186.6380  176.3460  143.1430 N   0  0  0  0  0  0  0  0  0  0  0  0
  184.9580  177.8750  145.1610 C   0  0  0  0  0  0  0  0  0  0  0  0
  184.4170  178.1920  144.0100 O   0  0  0  0  0  0  0  0  0  0  0  0
  187.1710  176.4910  140.3380 F   0  0  0  0  0  0  0  0  0  0  0  0
  186.1110  177.1290  140.8980 C   0  0  0  0  0  0  0  0  0  0  0  0
  184.3050  178.4160  146.2810 C   0  0  0  0  0  3  0  0  0  0  0  0
  186.1110  177.0880  145.3580 C   0  0  0  0  0  0  0  0  0  0  0  0
  184.7820  177.9580  142.7650 C   0  0  0  0  0  0  0  0  0  0  0  0
  185.2840  177.8130  140.0020 C   0  0  0  0  0  3  0  0  0  0  0  0
  184.7890  178.2200  147.5720 C   0  0  0  0  0  3  0  0  0  0  0  0
  185.9460  177.4720  147.7650 C   0  0  0  0  0  3  0  0  0  0  0  0
  184.2050  178.5480  140.4620 C   0  0  0  0  0  3  0  0  0  0  0  0
  186.5930  176.9130  146.6640 C   0  0  0  0  0  3  0  0  0  0  0  0
  186.7780  176.4120  144.4450 O   0  0  0  0  0  0  0  0  0  0  0  0
  185.8710  177.1460  142.3170 C   0  0  0  0  0  0  0  0  0  0  0  0
  183.9690  178.6180  141.8290 C   0  0  0  0  0  3  0  0  0  0  0  0
  189.9560  174.8890  142.0720 C   0  0  0  0  0  2  0  0  0  0  0  0
  191.4720  173.3780  143.3610 C   0  0  0  0  0  3  0  0  0  0  0  0
  190.3320  171.1140  142.1780 C   0  0  0  0  0  3  0  0  0  0  0  0
  189.8700  172.3870  141.8340 C   0  0  0  0  0  3  0  0  0  0  0  0
  191.3630  170.9740  143.1120 C   0  0  0  0  0  3  0  0  0  0  0  0
  193.0240  171.9530  144.7010 C   0  0  0  0  0  1  0  0  0  0  0  0
  190.4470  173.5220  142.4200 C   0  0  0  0  0  0  0  0  0  0  0  0
  191.9320  172.1050  143.7050 C   0  0  0  0  0  0  0  0  0  0  0  0
  1  3  1  0  0  0  0
  2  3  1  0  0  0  0
  3  8  2  0  0  0  0
  4 11  2  0  0  0  0
  6 10  1  0  0  0  0
  7  2  1  0  0  0  0
  7 10  2  0  0  0  0
  8  5  1  0  0  0  0
  9  5  1  0  0  0  0
 10  9  1  0  0  0  0
 11  6  1  0  0  0  0
 12 15  1  0  0  0  0
 13 16  1  0  0  0  0
 14 12  2  0  0  0  0
 15 18  2  0  0  0  0
 16 11  1  1  0  0  0
 16 18  1  0  0  0  0
 17 21  1  1  0  0  0
 17 13  1  0  0  0  0
 17 12  1  0  0  0  0
 18 19  1  0  0  0  0
 19 20  1  0  0  0  0
 22 24  2  0  0  0  0
 22 26  1  0  0  0  0
 23 25  1  0  0  0  0
 24 27  1  0  0  0  0
 25 21  1  0  0  0  0
 26 23  2  0  0  0  0
 27 25  2  0  0  0  0
 28 46  1  6  0  0  0
 28  1  1  0  0  0  0
 29 28  1  0  0  0  0
 29 30  1  0  0  0  0
 30 43  1  0  0  0  0
 31 36  2  0  0  0  0
 31 35  1  0  0  0  0
 32 31  1  0  0  0  0
 33 34  1  0  0  0  0
 34 44  1  0  0  0  0
 35 39  2  0  0  0  0
 36 42  1  0  0  0  0
 37 32  1  0  0  0  0
 38 41  1  0  0  0  0
 38 34  2  0  0  0  0
 39 40  1  0  0  0  0
 41 45  2  0  0  0  0
 42 40  2  0  0  0  0
 43 36  1  0  0  0  0
 44 37  2  0  0  0  0
 44 30  1  0  0  0  0
 45 37  1  0  0  0  0
 46 52  1  0  0  0  0
 47 53  1  0  0  0  0
 48 50  1  0  0  0  0
 49 48  2  0  0  0  0
 49 52  1  0  0  0  0
 50 53  2  0  0  0  0
 52 47  2  0  0  0  0
 53 51  1  0  0  0  0
M  END
>  <MODEL>
4

>  <REMARK>
 VINA RESULT:      -8.5      2.132      5.359
  Name = 
  10 active torsions:
  status: ('A' for Active; 'I' for Inactive)
    1  A    between atoms: N_5  and  C_9
    2  A    between atoms: C_7  and  C_10
    3  A    between atoms: C_9  and  C_29
    4  A    between atoms: C_10  and  C_29
    5  A    between atoms: C_12  and  C_29
    6  A    between atoms: C_12  and  C_48
    7  A    between atoms: C_19  and  C_53
    8  A    between atoms: C_21  and  N_46
    9  A    between atoms: O_23  and  C_38
   10  A    between atoms: C_28  and  N_46
                            x       y       z     vdW  Elec       q    Type
                         _______ _______ _______ _____ _____    ______ ____

>  <TORSDO>
F 10

$$$$
=
 OpenBabel11062420223D

 53 59  0  0  1  0  0  0  0  0999 V2000
  189.9090  176.4810  143.5610 C   0  0  0  0  0  2  0  0  0  0  0  0
  192.3990  177.1710  143.9720 C   0  0  0  0  0  2  0  0  0  0  0  0
  191.1200  176.5360  144.4540 C   0  0  0  0  0  0  0  0  0  0  0  0
  195.0320  174.7910  142.0440 O   0  0  0  0  0  0  0  0  0  0  0  0
  192.1860  176.0890  146.5270 C   0  0  0  0  0  2  0  0  0  0  0  0
  194.8930  174.3600  144.3430 N   0  0  0  0  0  2  0  0  0  0  0  0
  193.4400  176.1550  143.8070 N   0  0  0  0  0  0  0  0  0  0  0  0
  191.0470  176.0640  145.6430 N   0  0  0  0  0  0  0  0  0  0  0  0
  193.2350  175.0800  146.0670 C   0  0  0  0  0  2  0  0  0  0  0  0
  193.8430  175.2700  144.6870 C   0  0  0  0  0  0  0  0  0  0  0  0
  195.4790  174.1770  143.0480 C   0  0  0  0  0  0  0  0  0  0  0  0
  195.8080  170.5150  143.5470 C   0  0  0  0  0  0  0  0  0  0  0  0
  196.3110  172.1830  141.7530 C   0  0  0  0  0  2  0  0  0  0  0  0
  195.4860  169.3510  143.8780 O   0  0  0  0  0  0  0  0  0  0  0  0
  196.5650  171.3210  144.4590 N   0  0  0  0  0  0  0  0  0  0  0  0
  196.6080  173.1990  142.8750 C   0  0  2  0  0  3  0  0  0  0  0  0
  195.3860  171.0500  142.2060 C   0  0  2  0  0  3  0  0  0  0  0  0
  196.9660  172.5320  144.1820 C   0  0  0  0  0  0  0  0  0  0  0  0
  197.6840  173.2570  145.1250 O   0  0  0  0  0  0  0  0  0  0  0  0
  197.1890  173.4770  146.4470 C   0  0  0  0  0  1  0  0  0  0  0  0
  193.9940  171.4880  142.2510 N   0  0  0  0  0  2  0  0  0  0  0  0
  190.8460  169.3900  140.3180 C   0  0  0  0  0  3  0  0  0  0  0  0
  191.7770  170.3850  142.3310 C   0  0  0  0  0  3  0  0  0  0  0  0
  191.9930  169.7630  139.6040 C   0  0  0  0  0  3  0  0  0  0  0  0
  192.9320  170.7630  141.6180 C   0  0  0  0  0  0  0  0  0  0  0  0
  190.7370  169.7010  141.6820 C   0  0  0  0  0  3  0  0  0  0  0  0
  193.0340  170.4470  140.2540 C   0  0  0  0  0  3  0  0  0  0  0  0
  189.0750  175.2050  143.7210 C   0  0  1  0  0  3  0  0  0  0  0  0
  187.8360  175.2630  142.8270 C   0  0  0  0  0  2  0  0  0  0  0  0
  186.9170  176.3150  143.2790 N   0  0  0  0  0  0  0  0  0  0  0  0
  185.0350  177.8890  145.0720 C   0  0  0  0  0  0  0  0  0  0  0  0
  184.5850  178.1350  143.8650 O   0  0  0  0  0  0  0  0  0  0  0  0
  187.6820  176.3410  140.5240 F   0  0  0  0  0  0  0  0  0  0  0  0
  186.5620  176.9750  140.9620 C   0  0  0  0  0  0  0  0  0  0  0  0
  184.2770  178.4640  146.1050 C   0  0  0  0  0  3  0  0  0  0  0  0
  186.1870  177.1470  145.4030 C   0  0  0  0  0  0  0  0  0  0  0  0
  185.0600  177.8530  142.6680 C   0  0  0  0  0  0  0  0  0  0  0  0
  185.7970  177.5900  139.9680 C   0  0  0  0  0  3  0  0  0  0  0  0
  184.6540  178.3440  147.4400 C   0  0  0  0  0  3  0  0  0  0  0  0
  185.8100  177.6400  147.7650 C   0  0  0  0  0  3  0  0  0  0  0  0
  184.6650  178.3160  140.2990 C   0  0  0  0  0  3  0  0  0  0  0  0
  186.5610  177.0480  146.7510 C   0  0  0  0  0  3  0  0  0  0  0  0
  186.9450  176.4470  144.5830 O   0  0  0  0  0  0  0  0  0  0  0  0
  186.2020  177.0520  142.3530 C   0  0  0  0  0  0  0  0  0  0  0  0
  184.3130  178.4440  141.6350 C   0  0  0  0  0  3  0  0  0  0  0  0
  189.9050  173.9330  143.5080 C   0  0  0  0  0  2  0  0  0  0  0  0
  189.3860  173.1180  141.2040 C   0  0  0  0  0  3  0  0  0  0  0  0
  191.8700  173.9930  140.2620 C   0  0  0  0  0  3  0  0  0  0  0  0
  191.5300  174.1780  141.6040 C   0  0  0  0  0  3  0  0  0  0  0  0
  190.9700  173.3720  139.3920 C   0  0  0  0  0  3  0  0  0  0  0  0
  188.7700  172.2780  138.9340 C   0  0  0  0  0  1  0  0  0  0  0  0
  190.2890  173.7320  142.0790 C   0  0  0  0  0  0  0  0  0  0  0  0
  189.7270  172.9350  139.8620 C   0  0  0  0  0  0  0  0  0  0  0  0
  1 28  1  0  0  0  0
  1  3  1  0  0  0  0
  2  3  1  0  0  0  0
  3  8  2  0  0  0  0
  4 11  2  0  0  0  0
  6 10  1  0  0  0  0
  7  2  1  0  0  0  0
  7 10  2  0  0  0  0
  8  5  1  0  0  0  0
  9  5  1  0  0  0  0
 10  9  1  0  0  0  0
 11  6  1  0  0  0  0
 12 14  2  0  0  0  0
 12 15  1  0  0  0  0
 13 17  1  0  0  0  0
 13 16  1  0  0  0  0
 16 11  1  1  0  0  0
 16 18  1  0  0  0  0
 17 21  1  1  0  0  0
 17 12  1  0  0  0  0
 18 15  2  0  0  0  0
 18 19  1  0  0  0  0
 19 20  1  0  0  0  0
 22 26  1  0  0  0  0
 24 27  1  0  0  0  0
 24 22  2  0  0  0  0
 25 21  1  0  0  0  0
 25 23  1  0  0  0  0
 26 23  2  0  0  0  0
 27 25  2  0  0  0  0
 28 29  1  6  0  0  0
 29 30  1  0  0  0  0
 30 43  1  0  0  0  0
 31 36  2  0  0  0  0
 31 35  1  0  0  0  0
 32 31  1  0  0  0  0
 33 34  1  0  0  0  0
 34 44  1  0  0  0  0
 35 39  2  0  0  0  0
 36 42  1  0  0  0  0
 37 32  1  0  0  0  0
 38 41  1  0  0  0  0
 38 34  2  0  0  0  0
 39 40  1  0  0  0  0
 41 45  2  0  0  0  0
 42 40  2  0  0  0  0
 43 36  1  0  0  0  0
 44 37  2  0  0  0  0
 44 30  1  0  0  0  0
 45 37  1  0  0  0  0
 46 28  1  0  0  0  0
 47 52  1  0  0  0  0
 48 49  1  0  0  0  0
 49 52  2  0  0  0  0
 50 53  1  0  0  0  0
 50 48  2  0  0  0  0
 51 53  1  0  0  0  0
 52 46  1  0  0  0  0
 53 47  2  0  0  0  0
M  END
>  <MODEL>
5

>  <REMARK>
 VINA RESULT:      -8.5      2.186      5.694
  Name = 
  10 active torsions:
  status: ('A' for Active; 'I' for Inactive)
    1  A    between atoms: N_5  and  C_9
    2  A    between atoms: C_7  and  C_10
    3  A    between atoms: C_9  and  C_29
    4  A    between atoms: C_10  and  C_29
    5  A    between atoms: C_12  and  C_29
    6  A    between atoms: C_12  and  C_48
    7  A    between atoms: C_19  and  C_53
    8  A    between atoms: C_21  and  N_46
    9  A    between atoms: O_23  and  C_38
   10  A    between atoms: C_28  and  N_46
                            x       y       z     vdW  Elec       q    Type
                         _______ _______ _______ _____ _____    ______ ____

>  <TORSDO>
F 10

$$$$
=
 OpenBabel11062420223D

 53 59  0  0  1  0  0  0  0  0999 V2000
  190.8820  171.9910  144.0940 C   0  0  0  0  0  2  0  0  0  0  0  0
  189.5300  173.9140  145.2440 C   0  0  0  0  0  2  0  0  0  0  0  0
  190.8230  173.3740  144.6860 C   0  0  0  0  0  0  0  0  0  0  0  0
  187.0860  175.8670  142.6900 O   0  0  0  0  0  0  0  0  0  0  0  0
  191.8740  175.4150  145.2890 C   0  0  0  0  0  2  0  0  0  0  0  0
  189.0260  177.0660  143.2260 N   0  0  0  0  0  2  0  0  0  0  0  0
  189.0380  175.0130  144.4120 N   0  0  0  0  0  0  0  0  0  0  0  0
  191.8890  174.0820  144.7380 N   0  0  0  0  0  0  0  0  0  0  0  0
  191.1490  176.3700  144.3430 C   0  0  0  0  0  2  0  0  0  0  0  0
  189.6880  176.0880  144.0350 C   0  0  0  0  0  0  0  0  0  0  0  0
  187.7370  176.9420  142.6140 C   0  0  0  0  0  0  0  0  0  0  0  0
  184.2960  178.0450  141.7740 C   0  0  0  0  0  0  0  0  0  0  0  0
  186.3750  179.0590  142.7230 C   0  0  0  0  0  2  0  0  0  0  0  0
  183.0460  178.0120  141.7070 O   0  0  0  0  0  0  0  0  0  0  0  0
  185.0710  177.5820  140.6620 N   0  0  0  0  0  0  0  0  0  0  0  0
  187.1750  178.0930  141.8250 C   0  0  2  0  0  3  0  0  0  0  0  0
  184.9590  178.5580  143.0220 C   0  0  2  0  0  3  0  0  0  0  0  0
  186.3760  177.6090  140.6370 C   0  0  0  0  0  0  0  0  0  0  0  0
  187.0590  177.1270  139.5270 O   0  0  0  0  0  0  0  0  0  0  0  0
  186.3810  176.7350  138.3330 C   0  0  0  0  0  1  0  0  0  0  0  0
  184.9690  177.5250  144.0530 N   0  0  0  0  0  2  0  0  0  0  0  0
  186.3770  178.1450  148.0120 C   0  0  0  0  0  3  0  0  0  0  0  0
  185.1070  178.9240  146.0930 C   0  0  0  0  0  3  0  0  0  0  0  0
  186.7240  176.9820  147.3100 C   0  0  0  0  0  3  0  0  0  0  0  0
  185.4520  177.7580  145.3820 C   0  0  0  0  0  0  0  0  0  0  0  0
  185.5690  179.1170  147.4040 C   0  0  0  0  0  3  0  0  0  0  0  0
  186.2620  176.7900  145.9970 C   0  0  0  0  0  3  0  0  0  0  0  0
  191.5440  171.9320  142.7130 C   0  0  1  0  0  3  0  0  0  0  0  0
  192.9120  171.2560  142.8080 C   0  0  0  0  0  2  0  0  0  0  0  0
  193.9490  172.2270  143.1770 N   0  0  0  0  0  0  0  0  0  0  0  0
  195.9070  174.5400  142.9560 C   0  0  0  0  0  0  0  0  0  0  0  0
  196.4890  173.7270  143.8030 O   0  0  0  0  0  0  0  0  0  0  0  0
  193.4310  170.1030  145.0200 F   0  0  0  0  0  0  0  0  0  0  0  0
  194.5990  170.7980  145.0390 C   0  0  0  0  0  0  0  0  0  0  0  0
  196.6600  175.6810  142.6300 C   0  0  0  0  0  3  0  0  0  0  0  0
  194.6260  174.3840  142.3880 C   0  0  0  0  0  0  0  0  0  0  0  0
  196.0760  172.6280  144.4020 C   0  0  0  0  0  0  0  0  0  0  0  0
  195.5330  170.3680  145.9850 C   0  0  0  0  0  3  0  0  0  0  0  0
  196.1580  176.6700  141.7890 C   0  0  0  0  0  3  0  0  0  0  0  0
  194.8810  176.5330  141.2540 C   0  0  0  0  0  3  0  0  0  0  0  0
  196.7360  171.0350  146.1380 C   0  0  0  0  0  3  0  0  0  0  0  0
  194.1300  175.3970  141.5540 C   0  0  0  0  0  3  0  0  0  0  0  0
  193.8350  173.3350  142.4860 O   0  0  0  0  0  0  0  0  0  0  0  0
  194.8490  171.9280  144.1830 C   0  0  0  0  0  0  0  0  0  0  0  0
  196.9930  172.1540  145.3560 C   0  0  0  0  0  3  0  0  0  0  0  0
  190.6360  171.2960  141.6550 C   0  0  0  0  0  2  0  0  0  0  0  0
  190.5990  172.4830  139.4570 C   0  0  0  0  0  3  0  0  0  0  0  0
  188.3670  173.9830  140.2280 C   0  0  0  0  0  3  0  0  0  0  0  0
  188.9180  173.0500  141.1100 C   0  0  0  0  0  3  0  0  0  0  0  0
  188.9310  174.1650  138.9620 C   0  0  0  0  0  3  0  0  0  0  0  0
  190.6410  173.6080  137.2270 C   0  0  0  0  0  1  0  0  0  0  0  0
  190.0420  172.3050  140.7280 C   0  0  0  0  0  0  0  0  0  0  0  0
  190.0460  173.4150  138.5760 C   0  0  0  0  0  0  0  0  0  0  0  0
  1  3  1  0  0  0  0
  3  8  2  0  0  0  0
  3  2  1  0  0  0  0
  6 10  1  0  0  0  0
  7  2  1  0  0  0  0
  8  5  1  0  0  0  0
  9  5  1  0  0  0  0
 10  9  1  0  0  0  0
 10  7  2  0  0  0  0
 11  4  2  0  0  0  0
 11  6  1  0  0  0  0
 12 17  1  0  0  0  0
 13 17  1  0  0  0  0
 14 12  2  0  0  0  0
 15 12  1  0  0  0  0
 16 11  1  1  0  0  0
 16 13  1  0  0  0  0
 17 21  1  1  0  0  0
 18 15  2  0  0  0  0
 18 16  1  0  0  0  0
 19 18  1  0  0  0  0
 20 19  1  0  0  0  0
 21 25  1  0  0  0  0
 23 26  2  0  0  0  0
 24 22  2  0  0  0  0
 25 27  2  0  0  0  0
 25 23  1  0  0  0  0
 26 22  1  0  0  0  0
 27 24  1  0  0  0  0
 28 46  1  6  0  0  0
 28 29  1  0  0  0  0
 28  1  1  0  0  0  0
 29 30  1  0  0  0  0
 30 44  1  0  0  0  0
 31 32  1  0  0  0  0
 32 37  1  0  0  0  0
 33 34  1  0  0  0  0
 34 38  1  0  0  0  0
 35 31  1  0  0  0  0
 36 43  1  0  0  0  0
 36 31  2  0  0  0  0
 37 45  2  0  0  0  0
 38 41  2  0  0  0  0
 39 35  2  0  0  0  0
 40 42  2  0  0  0  0
 40 39  1  0  0  0  0
 42 36  1  0  0  0  0
 43 30  1  0  0  0  0
 44 37  1  0  0  0  0
 44 34  2  0  0  0  0
 45 41  1  0  0  0  0
 47 52  1  0  0  0  0
 48 49  1  0  0  0  0
 50 48  2  0  0  0  0
 51 53  1  0  0  0  0
 52 49  2  0  0  0  0
 52 46  1  0  0  0  0
 53 50  1  0  0  0  0
 53 47  2  0  0  0  0
M  END
>  <MODEL>
6

>  <REMARK>
 VINA RESULT:      -8.4      2.504      9.552
  Name = 
  10 active torsions:
  status: ('A' for Active; 'I' for Inactive)
    1  A    between atoms: N_5  and  C_9
    2  A    between atoms: C_7  and  C_10
    3  A    between atoms: C_9  and  C_29
    4  A    between atoms: C_10  and  C_29
    5  A    between atoms: C_12  and  C_29
    6  A    between atoms: C_12  and  C_48
    7  A    between atoms: C_19  and  C_53
    8  A    between atoms: C_21  and  N_46
    9  A    between atoms: O_23  and  C_38
   10  A    between atoms: C_28  and  N_46
                            x       y       z     vdW  Elec       q    Type
                         _______ _______ _______ _____ _____    ______ ____

>  <TORSDO>
F 10

$$$$
=
 OpenBabel11062420223D

 53 59  0  0  1  0  0  0  0  0999 V2000
  191.5240  172.9460  144.5350 C   0  0  0  0  0  2  0  0  0  0  0  0
  189.3350  174.1280  145.3470 C   0  0  0  0  0  2  0  0  0  0  0  0
  190.8390  174.0720  145.2630 C   0  0  0  0  0  0  0  0  0  0  0  0
  187.3900  176.0530  142.3770 O   0  0  0  0  0  0  0  0  0  0  0  0
  190.9310  176.0700  146.5400 C   0  0  0  0  0  2  0  0  0  0  0  0
  188.5600  177.4890  143.8110 N   0  0  0  0  0  2  0  0  0  0  0  0
  188.8260  175.2590  144.5710 N   0  0  0  0  0  0  0  0  0  0  0  0
  191.5470  174.9700  145.8400 N   0  0  0  0  0  0  0  0  0  0  0  0
  190.2990  177.0420  145.5470 C   0  0  0  0  0  2  0  0  0  0  0  0
  189.1900  176.5160  144.6510 C   0  0  0  0  0  0  0  0  0  0  0  0
  187.6550  177.2320  142.7310 C   0  0  0  0  0  0  0  0  0  0  0  0
  184.1840  178.1810  141.8270 C   0  0  0  0  0  0  0  0  0  0  0  0
  186.1730  179.2640  142.8860 C   0  0  0  0  0  2  0  0  0  0  0  0
  182.9400  178.0820  141.7180 O   0  0  0  0  0  0  0  0  0  0  0  0
  185.0170  177.8110  140.7220 N   0  0  0  0  0  0  0  0  0  0  0  0
  187.0520  178.3840  141.9740 C   0  0  2  0  0  3  0  0  0  0  0  0
  184.7800  178.6730  143.1180 C   0  0  2  0  0  3  0  0  0  0  0  0
  186.3190  177.9110  140.7410 C   0  0  0  0  0  0  0  0  0  0  0  0
  187.0610  177.5180  139.6350 O   0  0  0  0  0  0  0  0  0  0  0  0
  186.4840  176.7710  138.5620 C   0  0  0  0  0  1  0  0  0  0  0  0
  184.8160  177.5970  144.1020 N   0  0  0  0  0  2  0  0  0  0  0  0
  186.3100  178.2070  148.0320 C   0  0  0  0  0  3  0  0  0  0  0  0
  185.9420  176.7340  146.1340 C   0  0  0  0  0  3  0  0  0  0  0  0
  185.6790  179.2520  147.3430 C   0  0  0  0  0  3  0  0  0  0  0  0
  185.3080  177.7810  145.4360 C   0  0  0  0  0  0  0  0  0  0  0  0
  186.4410  176.9470  147.4280 C   0  0  0  0  0  3  0  0  0  0  0  0
  185.1790  179.0380  146.0470 C   0  0  0  0  0  3  0  0  0  0  0  0
  191.3510  172.9930  143.0130 C   0  0  1  0  0  3  0  0  0  0  0  0
  192.7070  173.1670  142.3290 C   0  0  0  0  0  2  0  0  0  0  0  0
  193.8030  172.9910  143.2900 N   0  0  0  0  0  0  0  0  0  0  0  0
  195.6620  171.6580  145.2900 C   0  0  0  0  0  0  0  0  0  0  0  0
  195.6340  172.9080  145.6840 O   0  0  0  0  0  0  0  0  0  0  0  0
  193.2690  175.6510  142.3900 F   0  0  0  0  0  0  0  0  0  0  0  0
  193.9460  175.4080  143.5430 C   0  0  0  0  0  0  0  0  0  0  0  0
  196.4190  170.8050  146.1100 C   0  0  0  0  0  3  0  0  0  0  0  0
  195.0420  171.1260  144.1410 C   0  0  0  0  0  0  0  0  0  0  0  0
  195.1200  173.9950  145.1450 C   0  0  0  0  0  0  0  0  0  0  0  0
  194.3150  176.5430  144.2700 C   0  0  0  0  0  3  0  0  0  0  0  0
  196.5950  169.4600  145.7970 C   0  0  0  0  0  3  0  0  0  0  0  0
  196.0110  168.9420  144.6450 C   0  0  0  0  0  3  0  0  0  0  0  0
  195.0590  176.4240  145.4310 C   0  0  0  0  0  3  0  0  0  0  0  0
  195.2420  169.7730  143.8320 C   0  0  0  0  0  3  0  0  0  0  0  0
  194.2080  171.7440  143.3290 O   0  0  0  0  0  0  0  0  0  0  0  0
  194.3050  174.0820  143.9720 C   0  0  0  0  0  0  0  0  0  0  0  0
  195.4560  175.1620  145.8520 C   0  0  0  0  0  3  0  0  0  0  0  0
  190.5610  171.7940  142.4750 C   0  0  0  0  0  2  0  0  0  0  0  0
  190.2460  171.4020  140.0280 C   0  0  0  0  0  3  0  0  0  0  0  0
  188.1940  173.3000  139.9200 C   0  0  0  0  0  3  0  0  0  0  0  0
  188.8370  173.0370  141.1320 C   0  0  0  0  0  3  0  0  0  0  0  0
  188.5770  172.6130  138.7640 C   0  0  0  0  0  3  0  0  0  0  0  0
  190.0030  170.9330  137.5870 C   0  0  0  0  0  1  0  0  0  0  0  0
  189.8720  172.0940  141.1850 C   0  0  0  0  0  0  0  0  0  0  0  0
  189.6010  171.6640  138.8170 C   0  0  0  0  0  0  0  0  0  0  0  0
  1  3  1  0  0  0  0
  3  2  1  0  0  0  0
  3  8  2  0  0  0  0
  4 11  2  0  0  0  0
  6 10  1  0  0  0  0
  7 10  2  0  0  0  0
  7  2  1  0  0  0  0
  8  5  1  0  0  0  0
  9  5  1  0  0  0  0
 10  9  1  0  0  0  0
 11  6  1  0  0  0  0
 12 17  1  0  0  0  0
 13 17  1  0  0  0  0
 14 12  2  0  0  0  0
 15 18  2  0  0  0  0
 15 12  1  0  0  0  0
 16 11  1  1  0  0  0
 16 13  1  0  0  0  0
 17 21  1  1  0  0  0
 18 16  1  0  0  0  0
 19 18  1  0  0  0  0
 20 19  1  0  0  0  0
 21 25  1  0  0  0  0
 23 26  2  0  0  0  0
 24 22  2  0  0  0  0
 25 27  2  0  0  0  0
 25 23  1  0  0  0  0
 26 22  1  0  0  0  0
 27 24  1  0  0  0  0
 28 29  1  6  0  0  0
 28  1  1  0  0  0  0
 29 30  1  0  0  0  0
 30 43  1  0  0  0  0
 30 44  1  0  0  0  0
 31 32  1  0  0  0  0
 31 35  1  0  0  0  0
 33 34  1  0  0  0  0
 34 44  2  0  0  0  0
 34 38  1  0  0  0  0
 36 31  2  0  0  0  0
 37 32  1  0  0  0  0
 37 45  2  0  0  0  0
 38 41  2  0  0  0  0
 39 35  2  0  0  0  0
 40 39  1  0  0  0  0
 41 45  1  0  0  0  0
 42 36  1  0  0  0  0
 42 40  2  0  0  0  0
 43 36  1  0  0  0  0
 44 37  1  0  0  0  0
 46 28  1  0  0  0  0
 47 52  1  0  0  0  0
 48 49  1  0  0  0  0
 49 52  2  0  0  0  0
 50 53  1  0  0  0  0
 50 48  2  0  0  0  0
 51 53  1  0  0  0  0
 52 46  1  0  0  0  0
 53 47  2  0  0  0  0
M  END
>  <MODEL>
7

>  <REMARK>
 VINA RESULT:      -8.4      2.361      9.790
  Name = 
  10 active torsions:
  status: ('A' for Active; 'I' for Inactive)
    1  A    between atoms: N_5  and  C_9
    2  A    between atoms: C_7  and  C_10
    3  A    between atoms: C_9  and  C_29
    4  A    between atoms: C_10  and  C_29
    5  A    between atoms: C_12  and  C_29
    6  A    between atoms: C_12  and  C_48
    7  A    between atoms: C_19  and  C_53
    8  A    between atoms: C_21  and  N_46
    9  A    between atoms: O_23  and  C_38
   10  A    between atoms: C_28  and  N_46
                            x       y       z     vdW  Elec       q    Type
                         _______ _______ _______ _____ _____    ______ ____

>  <TORSDO>
F 10

$$$$
=
 OpenBabel11062420223D

 53 59  0  0  1  0  0  0  0  0999 V2000
  191.3750  171.7840  143.2880 C   0  0  0  0  0  2  0  0  0  0  0  0
  189.5190  173.2500  144.4080 C   0  0  0  0  0  2  0  0  0  0  0  0
  190.9710  172.9820  144.1070 C   0  0  0  0  0  0  0  0  0  0  0  0
  187.4630  175.4890  141.7500 O   0  0  0  0  0  0  0  0  0  0  0  0
  191.5320  174.9210  145.3550 C   0  0  0  0  0  2  0  0  0  0  0  0
  189.0200  176.7160  142.9970 N   0  0  0  0  0  2  0  0  0  0  0  0
  189.0700  174.4570  143.7130 N   0  0  0  0  0  0  0  0  0  0  0  0
  191.8770  173.7590  144.5730 N   0  0  0  0  0  0  0  0  0  0  0  0
  190.9090  175.9930  144.4630 C   0  0  0  0  0  2  0  0  0  0  0  0
  189.6180  175.6470  143.7380 C   0  0  0  0  0  0  0  0  0  0  0  0
  187.9420  176.6120  142.0610 C   0  0  0  0  0  0  0  0  0  0  0  0
  184.5360  177.9910  141.5490 C   0  0  0  0  0  0  0  0  0  0  0  0
  186.7380  178.7960  142.4180 C   0  0  0  0  0  2  0  0  0  0  0  0
  183.2850  178.0420  141.5690 O   0  0  0  0  0  0  0  0  0  0  0  0
  185.2020  177.5660  140.3540 N   0  0  0  0  0  0  0  0  0  0  0  0
  187.4080  177.8520  141.3980 C   0  0  2  0  0  3  0  0  0  0  0  0
  185.3140  178.3640  142.7800 C   0  0  2  0  0  3  0  0  0  0  0  0
  186.5020  177.5120  140.2380 C   0  0  0  0  0  0  0  0  0  0  0  0
  187.0750  177.0740  139.0510 O   0  0  0  0  0  0  0  0  0  0  0  0
  186.3120  176.4160  138.0390 C   0  0  0  0  0  1  0  0  0  0  0  0
  185.3210  177.2570  143.7310 N   0  0  0  0  0  2  0  0  0  0  0  0
  185.9470  177.8790  147.8860 C   0  0  0  0  0  3  0  0  0  0  0  0
  186.6020  176.8090  145.8050 C   0  0  0  0  0  3  0  0  0  0  0  0
  184.8820  178.5100  147.2260 C   0  0  0  0  0  3  0  0  0  0  0  0
  185.5340  177.4410  145.1360 C   0  0  0  0  0  0  0  0  0  0  0  0
  186.8060  177.0280  147.1750 C   0  0  0  0  0  3  0  0  0  0  0  0
  184.6780  178.2910  145.8540 C   0  0  0  0  0  3  0  0  0  0  0  0
  191.3940  172.0410  141.7770 C   0  0  1  0  0  3  0  0  0  0  0  0
  192.7470  171.6440  141.1870 C   0  0  0  0  0  2  0  0  0  0  0  0
  193.5890  172.8270  140.9720 N   0  0  0  0  0  0  0  0  0  0  0  0
  195.1010  175.4010  141.5420 C   0  0  0  0  0  0  0  0  0  0  0  0
  194.7700  175.5140  140.2790 O   0  0  0  0  0  0  0  0  0  0  0  0
  192.8560  171.3070  138.6640 F   0  0  0  0  0  0  0  0  0  0  0  0
  193.2630  172.6000  138.5690 C   0  0  0  0  0  0  0  0  0  0  0  0
  195.7660  176.5180  142.0740 C   0  0  0  0  0  3  0  0  0  0  0  0
  194.8760  174.2830  142.3720 C   0  0  0  0  0  0  0  0  0  0  0  0
  194.2290  174.6670  139.4260 C   0  0  0  0  0  0  0  0  0  0  0  0
  193.2500  173.1380  137.2790 C   0  0  0  0  0  3  0  0  0  0  0  0
  196.2340  176.5330  143.3850 C   0  0  0  0  0  3  0  0  0  0  0  0
  196.0420  175.4170  144.1940 C   0  0  0  0  0  3  0  0  0  0  0  0
  193.6980  174.4270  137.0500 C   0  0  0  0  0  3  0  0  0  0  0  0
  195.3670  174.3080  143.6860 C   0  0  0  0  0  3  0  0  0  0  0  0
  194.1740  173.2060  142.0830 O   0  0  0  0  0  0  0  0  0  0  0  0
  193.7220  173.3590  139.7030 C   0  0  0  0  0  0  0  0  0  0  0  0
  194.1850  175.1720  138.1150 C   0  0  0  0  0  3  0  0  0  0  0  0
  190.2120  171.3820  141.0570 C   0  0  0  0  0  2  0  0  0  0  0  0
  189.9460  171.1410  138.5840 C   0  0  0  0  0  3  0  0  0  0  0  0
  189.4680  173.8830  138.3010 C   0  0  0  0  0  3  0  0  0  0  0  0
  189.7120  173.3450  139.5670 C   0  0  0  0  0  3  0  0  0  0  0  0
  189.4630  173.0500  137.1780 C   0  0  0  0  0  3  0  0  0  0  0  0
  189.6900  170.7950  136.1240 C   0  0  0  0  0  1  0  0  0  0  0  0
  189.9610  171.9730  139.7090 C   0  0  0  0  0  0  0  0  0  0  0  0
  189.7000  171.6790  137.3190 C   0  0  0  0  0  0  0  0  0  0  0  0
  1  3  1  0  0  0  0
  3  2  1  0  0  0  0
  3  8  2  0  0  0  0
  4 11  2  0  0  0  0
  6 10  1  0  0  0  0
  7 10  2  0  0  0  0
  7  2  1  0  0  0  0
  8  5  1  0  0  0  0
  9  5  1  0  0  0  0
 10  9  1  0  0  0  0
 11  6  1  0  0  0  0
 12 14  2  0  0  0  0
 12 17  1  0  0  0  0
 13 17  1  0  0  0  0
 15 12  1  0  0  0  0
 16 11  1  1  0  0  0
 16 13  1  0  0  0  0
 17 21  1  1  0  0  0
 18 15  2  0  0  0  0
 18 16  1  0  0  0  0
 19 18  1  0  0  0  0
 20 19  1  0  0  0  0
 21 25  1  0  0  0  0
 23 26  1  0  0  0  0
 24 22  1  0  0  0  0
 25 23  2  0  0  0  0
 25 27  1  0  0  0  0
 26 22  2  0  0  0  0
 27 24  2  0  0  0  0
 28 46  1  6  0  0  0
 28  1  1  0  0  0  0
 29 28  1  0  0  0  0
 30 29  1  0  0  0  0
 30 43  1  0  0  0  0
 31 35  2  0  0  0  0
 31 36  1  0  0  0  0
 32 31  1  0  0  0  0
 34 33  1  0  0  0  0
 34 44  1  0  0  0  0
 35 39  1  0  0  0  0
 36 42  2  0  0  0  0
 37 44  2  0  0  0  0
 37 32  1  0  0  0  0
 38 34  2  0  0  0  0
 39 40  2  0  0  0  0
 41 38  1  0  0  0  0
 41 45  2  0  0  0  0
 42 40  1  0  0  0  0
 43 36  1  0  0  0  0
 44 30  1  0  0  0  0
 45 37  1  0  0  0  0
 47 52  1  0  0  0  0
 48 49  1  0  0  0  0
 49 52  2  0  0  0  0
 50 53  1  0  0  0  0
 50 48  2  0  0  0  0
 51 53  1  0  0  0  0
 52 46  1  0  0  0  0
 53 47  2  0  0  0  0
M  END
>  <MODEL>
8

>  <REMARK>
 VINA RESULT:      -8.3      2.562      9.707
  Name = 
  10 active torsions:
  status: ('A' for Active; 'I' for Inactive)
    1  A    between atoms: N_5  and  C_9
    2  A    between atoms: C_7  and  C_10
    3  A    between atoms: C_9  and  C_29
    4  A    between atoms: C_10  and  C_29
    5  A    between atoms: C_12  and  C_29
    6  A    between atoms: C_12  and  C_48
    7  A    between atoms: C_19  and  C_53
    8  A    between atoms: C_21  and  N_46
    9  A    between atoms: O_23  and  C_38
   10  A    between atoms: C_28  and  N_46
                            x       y       z     vdW  Elec       q    Type
                         _______ _______ _______ _____ _____    ______ ____

>  <TORSDO>
F 10

$$$$
=
 OpenBabel11062420223D

 53 59  0  0  1  0  0  0  0  0999 V2000
  190.8420  170.9860  142.0400 C   0  0  0  0  0  2  0  0  0  0  0  0
  191.0330  173.2350  140.7170 C   0  0  0  0  0  2  0  0  0  0  0  0
  190.3550  171.9100  140.9550 C   0  0  0  0  0  0  0  0  0  0  0  0
  189.6690  176.4110  142.8050 O   0  0  0  0  0  0  0  0  0  0  0  0
  188.8730  172.4080  139.1700 C   0  0  0  0  0  2  0  0  0  0  0  0
  188.1940  175.6890  141.1340 N   0  0  0  0  0  2  0  0  0  0  0  0
  190.1390  174.3350  141.0810 N   0  0  0  0  0  0  0  0  0  0  0  0
  189.3750  171.5490  140.2140 N   0  0  0  0  0  0  0  0  0  0  0  0
  188.1270  173.5940  139.7740 C   0  0  0  0  0  2  0  0  0  0  0  0
  188.9090  174.5370  140.6750 C   0  0  0  0  0  0  0  0  0  0  0  0
  188.6100  176.6070  142.1520 C   0  0  0  0  0  0  0  0  0  0  0  0
  185.8900  177.2040  144.6030 C   0  0  0  0  0  0  0  0  0  0  0  0
  188.0190  178.3150  143.9070 C   0  0  0  0  0  2  0  0  0  0  0  0
  185.0480  176.9470  145.4940 O   0  0  0  0  0  0  0  0  0  0  0  0
  185.4790  177.2100  143.2300 N   0  0  0  0  0  0  0  0  0  0  0  0
  187.7460  177.7940  142.4820 C   0  0  2  0  0  3  0  0  0  0  0  0
  187.3160  177.4880  144.9880 C   0  0  2  0  0  3  0  0  0  0  0  0
  186.2840  177.4950  142.2430 C   0  0  0  0  0  0  0  0  0  0  0  0
  185.8160  177.4640  140.9350 O   0  0  0  0  0  0  0  0  0  0  0  0
  184.7420  178.2980  140.4960 C   0  0  0  0  0  1  0  0  0  0  0  0
  188.0280  176.2420  145.2500 N   0  0  0  0  0  2  0  0  0  0  0  0
  191.1890  175.9830  148.0770 C   0  0  0  0  0  3  0  0  0  0  0  0
  189.5330  174.8850  146.6760 C   0  0  0  0  0  3  0  0  0  0  0  0
  190.7420  177.2330  147.6250 C   0  0  0  0  0  3  0  0  0  0  0  0
  189.0800  176.1380  146.2180 C   0  0  0  0  0  0  0  0  0  0  0  0
  190.5840  174.8080  147.6030 C   0  0  0  0  0  3  0  0  0  0  0  0
  189.6890  177.3090  146.6970 C   0  0  0  0  0  3  0  0  0  0  0  0
  192.2460  171.3180  142.5570 C   0  0  1  0  0  3  0  0  0  0  0  0
  192.3460  171.0190  144.0540 C   0  0  0  0  0  2  0  0  0  0  0  0
  193.2970  171.9280  144.7040 N   0  0  0  0  0  0  0  0  0  0  0  0
  194.8190  174.4720  145.3710 C   0  0  0  0  0  0  0  0  0  0  0  0
  195.6840  173.5210  145.6300 O   0  0  0  0  0  0  0  0  0  0  0  0
  193.5050  169.1470  145.3350 F   0  0  0  0  0  0  0  0  0  0  0  0
  194.5410  170.0050  145.5310 C   0  0  0  0  0  0  0  0  0  0  0  0
  195.3160  175.7750  145.5420 C   0  0  0  0  0  3  0  0  0  0  0  0
  193.4760  174.3000  144.9780 C   0  0  0  0  0  0  0  0  0  0  0  0
  195.5710  172.2090  145.6700 C   0  0  0  0  0  0  0  0  0  0  0  0
  195.7160  169.4220  146.0130 C   0  0  0  0  0  3  0  0  0  0  0  0
  194.5060  176.8930  145.3630 C   0  0  0  0  0  3  0  0  0  0  0  0
  193.1710  176.7240  145.0080 C   0  0  0  0  0  3  0  0  0  0  0  0
  196.8200  170.2040  146.3070 C   0  0  0  0  0  3  0  0  0  0  0  0
  192.6700  175.4370  144.8160 C   0  0  0  0  0  3  0  0  0  0  0  0
  192.8780  173.1700  144.6600 O   0  0  0  0  0  0  0  0  0  0  0  0
  194.4340  171.4220  145.3060 C   0  0  0  0  0  0  0  0  0  0  0  0
  196.7370  171.5790  146.1400 C   0  0  0  0  0  3  0  0  0  0  0  0
  193.3490  170.6370  141.7380 C   0  0  0  0  0  2  0  0  0  0  0  0
  194.7000  172.7380  141.7950 C   0  0  0  0  0  3  0  0  0  0  0  0
  197.0650  171.2860  142.1500 C   0  0  0  0  0  3  0  0  0  0  0  0
  195.8460  170.6140  142.0360 C   0  0  0  0  0  3  0  0  0  0  0  0
  197.1020  172.6820  142.0860 C   0  0  0  0  0  3  0  0  0  0  0  0
  195.9610  174.8930  141.8470 C   0  0  0  0  0  1  0  0  0  0  0  0
  194.6620  171.3400  141.8490 C   0  0  0  0  0  0  0  0  0  0  0  0
  195.9200  173.4080  141.9100 C   0  0  0  0  0  0  0  0  0  0  0  0
  1 28  1  0  0  0  0
  2  3  1  0  0  0  0
  2  7  1  0  0  0  0
  3  1  1  0  0  0  0
  5  9  1  0  0  0  0
  5  8  1  0  0  0  0
  6 11  1  0  0  0  0
  8  3  2  0  0  0  0
  9 10  1  0  0  0  0
 10  7  2  0  0  0  0
 10  6  1  0  0  0  0
 11  4  2  0  0  0  0
 12 17  1  0  0  0  0
 12 14  2  0  0  0  0
 13 17  1  0  0  0  0
 15 12  1  0  0  0  0
 16 11  1  1  0  0  0
 16 13  1  0  0  0  0
 17 21  1  6  0  0  0
 18 16  1  0  0  0  0
 18 15  2  0  0  0  0
 19 18  1  0  0  0  0
 20 19  1  0  0  0  0
 21 25  1  0  0  0  0
 23 26  1  0  0  0  0
 24 22  1  0  0  0  0
 25 23  2  0  0  0  0
 25 27  1  0  0  0  0
 26 22  2  0  0  0  0
 27 24  2  0  0  0  0
 28 46  1  6  0  0  0
 28 29  1  0  0  0  0
 29 30  1  0  0  0  0
 30 44  1  0  0  0  0
 31 35  1  0  0  0  0
 31 32  1  0  0  0  0
 32 37  1  0  0  0  0
 33 34  1  0  0  0  0
 34 38  1  0  0  0  0
 36 31  2  0  0  0  0
 37 45  2  0  0  0  0
 38 41  2  0  0  0  0
 39 35  2  0  0  0  0
 40 39  1  0  0  0  0
 42 36  1  0  0  0  0
 42 40  2  0  0  0  0
 43 30  1  0  0  0  0
 43 36  1  0  0  0  0
 44 34  2  0  0  0  0
 44 37  1  0  0  0  0
 45 41  1  0  0  0  0
 46 52  1  0  0  0  0
 47 52  2  0  0  0  0
 47 53  1  0  0  0  0
 49 48  2  0  0  0  0
 50 48  1  0  0  0  0
 51 53  1  0  0  0  0
 52 49  1  0  0  0  0
 53 50  2  0  0  0  0
M  END
>  <MODEL>
9

>  <REMARK>
 VINA RESULT:      -8.2      2.680      8.806
  Name = 
  10 active torsions:
  status: ('A' for Active; 'I' for Inactive)
    1  A    between atoms: N_5  and  C_9
    2  A    between atoms: C_7  and  C_10
    3  A    between atoms: C_9  and  C_29
    4  A    between atoms: C_10  and  C_29
    5  A    between atoms: C_12  and  C_29
    6  A    between atoms: C_12  and  C_48
    7  A    between atoms: C_19  and  C_53
    8  A    between atoms: C_21  and  N_46
    9  A    between atoms: O_23  and  C_38
   10  A    between atoms: C_28  and  N_46
                            x       y       z     vdW  Elec       q    Type
                         _______ _______ _______ _____ _____    ______ ____

>  <TORSDO>
F 10

$$$$
