=
 OpenBabel11062420253D

 49 50  0  0  1  0  0  0  0  0999 V2000
  191.9360  173.2510  142.3510 C   0  0  2  0  0  3  0  0  0  0  0  0
  190.8500  172.4240  142.9150 N   0  0  0  0  0  0  0  0  0  0  0  0
  188.9130  176.8800  142.2320 C   0  0  0  0  0  0  0  0  0  0  0  0
  191.5280  174.7080  142.1090 C   0  0  0  0  0  2  0  0  0  0  0  0
  190.5120  175.1980  143.1280 C   0  0  0  0  0  2  0  0  0  0  0  0
  188.5700  174.4470  141.6860 C   0  0  0  0  0  2  0  0  0  0  0  0
  189.2480  175.4960  142.4560 N   0  0  0  0  0  0  0  0  0  0  0  0
  191.3500  171.1920  143.1780 O   0  0  0  0  0  1  0  0  0  0  0  0
  189.7780  177.7680  142.4700 O   0  0  0  0  0  0  0  0  0  0  0  0
  188.5540  173.1030  142.4090 C   0  0  0  0  0  2  0  0  0  0  0  0
  189.7430  172.2550  141.9780 C   0  0  0  0  0  2  0  0  0  0  0  0
  187.5890  177.3060  141.7140 C   0  0  0  0  0  0  0  0  0  0  0  0
  185.1390  178.2790  140.6410 C   0  0  0  0  0  3  0  0  0  0  0  0
  185.4310  178.4640  142.0290 N   0  0  0  0  0  2  0  0  0  0  0  0
  186.0240  177.6700  139.8550 C   0  0  0  0  0  3  0  0  0  0  0  0
  187.3130  177.2230  140.4040 C   0  0  0  0  0  3  0  0  0  0  0  0
  186.5150  177.7350  142.6930 C   0  0  1  0  0  3  0  0  0  0  0  0
  185.9450  176.5190  143.4040 C   0  0  0  0  0  2  0  0  0  0  0  0
  186.6300  176.3260  144.6710 N   0  0  0  0  0  2  0  0  0  0  0  0
  186.6580  177.6190  145.3390 C   0  0  1  0  0  3  0  0  0  0  0  0
  185.3220  177.8770  146.0350 C   0  0  2  0  0  3  0  0  0  0  0  0
  185.4890  178.8920  147.1520 C   0  0  0  0  0  1  0  0  0  0  0  0
  184.8250  176.6910  146.5780 O   0  0  0  0  0  1  0  0  0  0  0  0
  187.7940  177.6340  146.3530 C   0  0  0  0  0  2  0  0  0  0  0  0
  189.0180  177.4950  145.6990 O   0  0  0  0  0  1  0  0  0  0  0  0
  192.6870  173.5020  139.8990 C   0  0  0  0  0  1  0  0  0  0  0  0
  192.6490  172.6140  141.1370 C   0  0  1  0  0  3  0  0  0  0  0  0
  194.0220  172.0200  141.4790 C   0  0  0  0  0  2  0  0  0  0  0  0
  195.2100  172.7220  140.8120 C   0  0  0  0  0  2  0  0  0  0  0  0
  196.2280  173.2380  141.8320 C   0  0  1  0  0  3  0  0  0  0  0  0
  197.5060  171.3050  141.0830 O   0  0  0  0  0  1  0  0  0  0  0  0
  197.3460  172.2260  142.1240 C   0  0  2  0  0  3  0  0  0  0  0  0
  197.9400  170.2280  143.5730 C   0  0  0  0  0  1  0  0  0  0  0  0
  197.1640  171.5370  143.4790 C   0  0  1  0  0  3  0  0  0  0  0  0
  197.5810  172.4760  144.5980 C   0  0  0  0  0  2  0  0  0  0  0  0
  196.5860  172.3950  145.7460 C   0  0  0  0  0  2  0  0  0  0  0  0
  194.1400  172.0240  145.4430 C   0  0  0  0  0  1  0  0  0  0  0  0
  195.2670  173.0360  145.3570 C   0  0  0  0  0  2  0  0  0  0  0  0
  196.7610  174.6270  141.4550 C   0  0  1  0  0  3  0  0  0  0  0  0
  197.1780  175.2590  139.0780 C   0  0  0  0  0  1  0  0  0  0  0  0
  196.1240  175.1040  140.1560 C   0  0  0  0  0  2  0  0  0  0  0  0
  196.5340  175.5550  142.4790 O   0  0  0  0  0  0  0  0  0  0  0  0
  195.2740  176.0950  142.2110 C   0  0  0  0  0  2  0  0  0  0  0  0
  194.5070  176.1920  143.4530 C   0  0  0  0  0  0  0  0  0  0  0  0
  193.8700  176.2720  144.4740 C   0  0  0  0  0  0  0  0  0  0  0  0
  194.0070  176.7830  146.8500 C   0  0  0  0  0  1  0  0  0  0  0  0
  193.0920  176.3720  145.7120 C   0  0  2  0  0  3  0  0  0  0  0  0
  191.6530  175.3860  147.0740 C   0  0  0  0  0  1  0  0  0  0  0  0
  192.5120  175.1360  146.0020 O   0  0  0  0  0  0  0  0  0  0  0  0
  1 27  1  6  0  0  0
  1  2  1  0  0  0  0
  2  8  1  0  0  0  0
  3  7  1  0  0  0  0
  3  9  2  0  0  0  0
  4  1  1  0  0  0  0
  4  5  1  0  0  0  0
  6 10  1  0  0  0  0
  6  7  1  0  0  0  0
  7  5  1  0  0  0  0
 11 10  1  0  0  0  0
 11  2  1  0  0  0  0
 12  3  1  0  0  0  0
 12 17  1  0  0  0  0
 13 14  1  0  0  0  0
 14 17  1  0  0  0  0
 15 16  1  0  0  0  0
 15 13  2  0  0  0  0
 16 12  2  0  0  0  0
 17 18  1  6  0  0  0
 18 19  1  0  0  0  0
 19 20  1  0  0  0  0
 20 21  1  0  0  0  0
 20 24  1  1  0  0  0
 21 23  1  0  0  0  0
 21 22  1  1  0  0  0
 25 24  1  0  0  0  0
 27 26  1  6  0  0  0
 27 28  1  0  0  0  0
 29 28  1  0  0  0  0
 30 29  1  6  0  0  0
 30 32  1  0  0  0  0
 32 31  1  6  0  0  0
 32 34  1  0  0  0  0
 34 33  1  6  0  0  0
 34 35  1  0  0  0  0
 35 36  1  0  0  0  0
 38 37  1  0  0  0  0
 38 36  1  0  0  0  0
 39 41  1  6  0  0  0
 39 30  1  0  0  0  0
 39 42  1  0  0  0  0
 40 41  1  0  0  0  0
 43 42  1  0  0  0  0
 43 44  1  0  0  0  0
 44 45  3  0  0  0  0
 45 47  1  0  0  0  0
 47 49  1  0  0  0  0
 47 46  1  1  0  0  0
 49 48  1  0  0  0  0
M  END
>  <MODEL>
1

>  <REMARK>
 VINA RESULT:      -5.6      0.000      0.000
  Name = 
  22 active torsions:
  status: ('A' for Active; 'I' for Inactive)
    1  A    between atoms: C_2  and  C_35
    2  A    between atoms: C_3  and  CA_19
    3  A    between atoms: C_7  and  C_8
    4  A    between atoms: C_8  and  C_9
    5  A    between atoms: C_9  and  C_45
    6  A    between atoms: C_12  and  C_25
    7  A    between atoms: C_12  and  O_43
    8  A    between atoms: C_13  and  C_27
    9  A    between atoms: C_13  and  C_33
   10  A    between atoms: C_13  and  O_43
   11  A    between atoms: C_16  and  N_29
   12  A    between atoms: C_16  and  C_49
   13  A    between atoms: C_17  and  C_18
   14  A    between atoms: CA_19  and  CB_21
   15  A    between atoms: CA_19  and  N_29
   16  A    between atoms: C_22  and  C_33
   17  A    between atoms: C_22  and  C_41
   18  A    between atoms: C_26  and  C_39
   19  A    between atoms: C_33  and  C_45
   20  A    between atoms: C_35  and  C_47
   21  A    between atoms: C_39  and  O_46
   22  A    between atoms: C_41  and  C_47
                            x       y       z     vdW  Elec       q    Type
                         _______ _______ _______ _____ _____    ______ ____

>  <TORSDO>
F 22

$$$$
=
 OpenBabel11062420253D

 49 50  0  0  1  0  0  0  0  0999 V2000
  190.3030  176.1900  144.3570 C   0  0  2  0  0  3  0  0  0  0  0  0
  190.3060  176.1920  145.8330 N   0  0  0  0  0  0  0  0  0  0  0  0
  193.0810  172.3700  144.5050 C   0  0  0  0  0  0  0  0  0  0  0  0
  191.0920  175.0240  143.7490 C   0  0  0  0  0  2  0  0  0  0  0  0
  191.0310  173.7760  144.6140 C   0  0  0  0  0  2  0  0  0  0  0  0
  193.0990  174.4610  145.9070 C   0  0  0  0  0  2  0  0  0  0  0  0
  192.3670  173.4620  145.1190 N   0  0  0  0  0  0  0  0  0  0  0  0
  189.5030  177.1990  146.2560 O   0  0  0  0  0  1  0  0  0  0  0  0
  192.6070  171.8340  143.4650 O   0  0  0  0  0  0  0  0  0  0  0  0
  192.2190  175.1480  146.9470 C   0  0  0  0  0  2  0  0  0  0  0  0
  191.6370  176.4370  146.3810 C   0  0  0  0  0  2  0  0  0  0  0  0
  194.3650  171.8560  145.0410 C   0  0  0  0  0  0  0  0  0  0  0  0
  196.7530  170.8860  146.2500 C   0  0  0  0  0  3  0  0  0  0  0  0
  196.6860  172.2410  145.7930 N   0  0  0  0  0  2  0  0  0  0  0  0
  195.6920  170.0930  146.1240 C   0  0  0  0  0  3  0  0  0  0  0  0
  194.4420  170.6190  145.5530 C   0  0  0  0  0  3  0  0  0  0  0  0
  195.6150  172.7040  144.9070 C   0  0  1  0  0  3  0  0  0  0  0  0
  196.1050  172.6830  143.4690 C   0  0  0  0  0  2  0  0  0  0  0  0
  196.5000  174.0230  143.0660 N   0  0  0  0  0  2  0  0  0  0  0  0
  195.2820  174.7310  142.6990 C   0  0  1  0  0  3  0  0  0  0  0  0
  195.5650  176.2270  142.5710 C   0  0  2  0  0  3  0  0  0  0  0  0
  196.2070  176.5370  141.2310 C   0  0  0  0  0  1  0  0  0  0  0  0
  196.4270  176.6420  143.5880 O   0  0  0  0  0  1  0  0  0  0  0  0
  194.7590  174.1780  141.3810 C   0  0  0  0  0  2  0  0  0  0  0  0
  193.3790  174.3670  141.2990 O   0  0  0  0  0  1  0  0  0  0  0  0
  192.0050  177.5810  143.0110 C   0  0  0  0  0  1  0  0  0  0  0  0
  190.6560  177.5530  143.7220 C   0  0  1  0  0  3  0  0  0  0  0  0
  189.5260  178.1380  142.8650 C   0  0  0  0  0  2  0  0  0  0  0  0
  188.2180  177.3410  142.8970 C   0  0  0  0  0  2  0  0  0  0  0  0
  187.8710  176.7370  141.5330 C   0  0  1  0  0  3  0  0  0  0  0  0
  186.7550  174.9950  142.8190 O   0  0  0  0  0  1  0  0  0  0  0  0
  187.4330  175.2680  141.6250 C   0  0  2  0  0  3  0  0  0  0  0  0
  188.3550  172.9370  142.0300 C   0  0  0  0  0  1  0  0  0  0  0  0
  188.5950  174.3000  141.3900 C   0  0  1  0  0  3  0  0  0  0  0  0
  188.8450  174.1430  139.9000 C   0  0  0  0  0  2  0  0  0  0  0  0
  188.2730  172.8210  139.4100 C   0  0  0  0  0  2  0  0  0  0  0  0
  190.2650  173.0900  137.9340 C   0  0  0  0  0  1  0  0  0  0  0  0
  189.2720  172.1030  138.5210 C   0  0  0  0  0  2  0  0  0  0  0  0
  186.8770  177.6110  140.7560 C   0  0  1  0  0  3  0  0  0  0  0  0
  186.2930  176.5530  138.5740 C   0  0  0  0  0  1  0  0  0  0  0  0
  187.1840  177.5660  139.2660 C   0  0  0  0  0  2  0  0  0  0  0  0
  185.5550  177.2140  140.9940 O   0  0  0  0  0  0  0  0  0  0  0  0
  184.8620  178.3960  141.2650 C   0  0  0  0  0  2  0  0  0  0  0  0
  184.9670  178.7110  142.6900 C   0  0  0  0  0  0  0  0  0  0  0  0
  185.0560  178.9760  143.8640 C   0  0  0  0  0  0  0  0  0  0  0  0
  186.3380  178.5390  145.8870 C   0  0  0  0  0  1  0  0  0  0  0  0
  185.1700  179.3000  145.2890 C   0  0  2  0  0  3  0  0  0  0  0  0
  184.4150  178.2480  147.0850 C   0  0  0  0  0  1  0  0  0  0  0  0
  183.9920  178.9380  145.9460 O   0  0  0  0  0  0  0  0  0  0  0  0
  1 27  1  6  0  0  0
  1  2  1  0  0  0  0
  2  8  1  0  0  0  0
  2 11  1  0  0  0  0
  3 12  1  0  0  0  0
  3  7  1  0  0  0  0
  4  1  1  0  0  0  0
  4  5  1  0  0  0  0
  5  7  1  0  0  0  0
  6 10  1  0  0  0  0
  7  6  1  0  0  0  0
  9  3  2  0  0  0  0
 11 10  1  0  0  0  0
 12 16  2  0  0  0  0
 14 13  1  0  0  0  0
 15 13  2  0  0  0  0
 16 15  1  0  0  0  0
 17 18  1  6  0  0  0
 17 12  1  0  0  0  0
 17 14  1  0  0  0  0
 19 18  1  0  0  0  0
 20 24  1  6  0  0  0
 20 19  1  0  0  0  0
 21 22  1  6  0  0  0
 21 20  1  0  0  0  0
 21 23  1  0  0  0  0
 25 24  1  0  0  0  0
 27 26  1  6  0  0  0
 28 29  1  0  0  0  0
 28 27  1  0  0  0  0
 30 32  1  0  0  0  0
 30 29  1  1  0  0  0
 32 31  1  1  0  0  0
 34 32  1  0  0  0  0
 34 33  1  6  0  0  0
 35 34  1  0  0  0  0
 36 35  1  0  0  0  0
 37 38  1  0  0  0  0
 38 36  1  0  0  0  0
 39 41  1  6  0  0  0
 39 42  1  0  0  0  0
 39 30  1  0  0  0  0
 40 41  1  0  0  0  0
 42 43  1  0  0  0  0
 43 44  1  0  0  0  0
 44 45  3  0  0  0  0
 45 47  1  0  0  0  0
 47 46  1  1  0  0  0
 47 49  1  0  0  0  0
 49 48  1  0  0  0  0
M  END
>  <MODEL>
2

>  <REMARK>
 VINA RESULT:      -5.5      2.338      9.244
  Name = 
  22 active torsions:
  status: ('A' for Active; 'I' for Inactive)
    1  A    between atoms: C_2  and  C_35
    2  A    between atoms: C_3  and  CA_19
    3  A    between atoms: C_7  and  C_8
    4  A    between atoms: C_8  and  C_9
    5  A    between atoms: C_9  and  C_45
    6  A    between atoms: C_12  and  C_25
    7  A    between atoms: C_12  and  O_43
    8  A    between atoms: C_13  and  C_27
    9  A    between atoms: C_13  and  C_33
   10  A    between atoms: C_13  and  O_43
   11  A    between atoms: C_16  and  N_29
   12  A    between atoms: C_16  and  C_49
   13  A    between atoms: C_17  and  C_18
   14  A    between atoms: CA_19  and  CB_21
   15  A    between atoms: CA_19  and  N_29
   16  A    between atoms: C_22  and  C_33
   17  A    between atoms: C_22  and  C_41
   18  A    between atoms: C_26  and  C_39
   19  A    between atoms: C_33  and  C_45
   20  A    between atoms: C_35  and  C_47
   21  A    between atoms: C_39  and  O_46
   22  A    between atoms: C_41  and  C_47
                            x       y       z     vdW  Elec       q    Type
                         _______ _______ _______ _____ _____    ______ ____

>  <TORSDO>
F 22

$$$$
=
 OpenBabel11062420253D

 49 50  0  0  1  0  0  0  0  0999 V2000
  190.3650  176.3240  144.6700 C   0  0  2  0  0  3  0  0  0  0  0  0
  190.5260  176.4020  146.1360 N   0  0  0  0  0  0  0  0  0  0  0  0
  193.0280  172.4220  144.7330 C   0  0  0  0  0  0  0  0  0  0  0  0
  191.0490  175.1020  144.0470 C   0  0  0  0  0  2  0  0  0  0  0  0
  191.0440  173.9030  144.9800 C   0  0  0  0  0  2  0  0  0  0  0  0
  193.2580  174.5790  146.0100 C   0  0  0  0  0  2  0  0  0  0  0  0
  192.4170  173.5680  145.3580 N   0  0  0  0  0  0  0  0  0  0  0  0
  189.8030  177.4570  146.5850 O   0  0  0  0  0  1  0  0  0  0  0  0
  192.4300  171.8500  143.7790 O   0  0  0  0  0  0  0  0  0  0  0  0
  192.5150  175.3490  147.0970 C   0  0  0  0  0  2  0  0  0  0  0  0
  191.9140  176.6270  146.5270 C   0  0  0  0  0  2  0  0  0  0  0  0
  194.3470  171.8910  145.1580 C   0  0  0  0  0  0  0  0  0  0  0  0
  196.8040  170.8560  146.1560 C   0  0  0  0  0  3  0  0  0  0  0  0
  196.6670  172.2610  145.9170 N   0  0  0  0  0  2  0  0  0  0  0  0
  195.7740  170.0440  145.9280 C   0  0  0  0  0  3  0  0  0  0  0  0
  194.4890  170.5940  145.4700 C   0  0  0  0  0  3  0  0  0  0  0  0
  195.5550  172.8060  145.1340 C   0  0  1  0  0  3  0  0  0  0  0  0
  196.0080  173.0310  143.7010 C   0  0  0  0  0  2  0  0  0  0  0  0
  195.4460  174.2730  143.1980 N   0  0  0  0  0  2  0  0  0  0  0  0
  196.1460  174.5830  141.9600 C   0  0  1  0  0  3  0  0  0  0  0  0
  195.1810  174.5010  140.7780 C   0  0  2  0  0  3  0  0  0  0  0  0
  193.7580  174.7770  141.2290 C   0  0  0  0  0  1  0  0  0  0  0  0
  195.2310  173.2280  140.2050 O   0  0  0  0  0  1  0  0  0  0  0  0
  196.7410  175.9810  142.0600 C   0  0  0  0  0  2  0  0  0  0  0  0
  196.3980  176.5590  143.2820 O   0  0  0  0  0  1  0  0  0  0  0  0
  192.1110  177.7170  143.3830 C   0  0  0  0  0  1  0  0  0  0  0  0
  190.6890  177.6400  143.9290 C   0  0  1  0  0  3  0  0  0  0  0  0
  189.6350  178.0260  142.8830 C   0  0  0  0  0  2  0  0  0  0  0  0
  188.1980  178.0910  143.4110 C   0  0  0  0  0  2  0  0  0  0  0  0
  187.1710  177.6720  142.3560 C   0  0  1  0  0  3  0  0  0  0  0  0
  186.8290  175.8240  143.9050 O   0  0  0  0  0  1  0  0  0  0  0  0
  186.6120  176.2610  142.5930 C   0  0  2  0  0  3  0  0  0  0  0  0
  187.6760  175.9320  140.3110 C   0  0  0  0  0  1  0  0  0  0  0  0
  187.1240  175.2540  141.5600 C   0  0  1  0  0  3  0  0  0  0  0  0
  188.1820  174.3630  142.1860 C   0  0  0  0  0  2  0  0  0  0  0  0
  189.3820  174.2450  141.2580 C   0  0  0  0  0  2  0  0  0  0  0  0
  189.7210  172.0840  140.0610 C   0  0  0  0  0  1  0  0  0  0  0  0
  189.9870  172.8560  141.3410 C   0  0  0  0  0  2  0  0  0  0  0  0
  186.0720  178.7290  142.1770 C   0  0  1  0  0  3  0  0  0  0  0  0
  184.3090  178.2680  140.4730 C   0  0  0  0  0  1  0  0  0  0  0  0
  184.7300  178.0580  141.9150 C   0  0  0  0  0  2  0  0  0  0  0  0
  185.9870  179.5700  143.2930 O   0  0  0  0  0  0  0  0  0  0  0  0
  184.8220  179.1790  143.9570 C   0  0  0  0  0  2  0  0  0  0  0  0
  185.1230  178.9180  145.3650 C   0  0  0  0  0  0  0  0  0  0  0  0
  185.3650  178.7020  146.5270 C   0  0  0  0  0  0  0  0  0  0  0  0
  186.9670  179.1040  148.3150 C   0  0  0  0  0  1  0  0  0  0  0  0
  185.6550  178.4420  147.9400 C   0  0  2  0  0  3  0  0  0  0  0  0
  186.7450  176.6350  147.2720 C   0  0  0  0  0  1  0  0  0  0  0  0
  185.7490  177.0650  148.1520 O   0  0  0  0  0  0  0  0  0  0  0  0
  1 27  1  6  0  0  0
  1  2  1  0  0  0  0
  2 11  1  0  0  0  0
  2  8  1  0  0  0  0
  3 12  1  0  0  0  0
  3  7  1  0  0  0  0
  4  1  1  0  0  0  0
  4  5  1  0  0  0  0
  5  7  1  0  0  0  0
  6 10  1  0  0  0  0
  7  6  1  0  0  0  0
  9  3  2  0  0  0  0
 11 10  1  0  0  0  0
 12 16  2  0  0  0  0
 14 13  1  0  0  0  0
 15 13  2  0  0  0  0
 16 15  1  0  0  0  0
 17 18  1  6  0  0  0
 17 12  1  0  0  0  0
 17 14  1  0  0  0  0
 19 18  1  0  0  0  0
 20 24  1  1  0  0  0
 20 19  1  0  0  0  0
 21 22  1  1  0  0  0
 21 20  1  0  0  0  0
 23 21  1  0  0  0  0
 24 25  1  0  0  0  0
 27 26  1  6  0  0  0
 28 29  1  0  0  0  0
 28 27  1  0  0  0  0
 30 32  1  0  0  0  0
 30 29  1  1  0  0  0
 32 31  1  1  0  0  0
 34 33  1  6  0  0  0
 34 35  1  0  0  0  0
 34 32  1  0  0  0  0
 36 38  1  0  0  0  0
 36 35  1  0  0  0  0
 37 38  1  0  0  0  0
 39 41  1  1  0  0  0
 39 30  1  0  0  0  0
 39 42  1  0  0  0  0
 40 41  1  0  0  0  0
 42 43  1  0  0  0  0
 43 44  1  0  0  0  0
 44 45  3  0  0  0  0
 45 47  1  0  0  0  0
 47 49  1  0  0  0  0
 47 46  1  6  0  0  0
 48 49  1  0  0  0  0
M  END
>  <MODEL>
3

>  <REMARK>
 VINA RESULT:      -5.4      2.239      9.415
  Name = 
  22 active torsions:
  status: ('A' for Active; 'I' for Inactive)
    1  A    between atoms: C_2  and  C_35
    2  A    between atoms: C_3  and  CA_19
    3  A    between atoms: C_7  and  C_8
    4  A    between atoms: C_8  and  C_9
    5  A    between atoms: C_9  and  C_45
    6  A    between atoms: C_12  and  C_25
    7  A    between atoms: C_12  and  O_43
    8  A    between atoms: C_13  and  C_27
    9  A    between atoms: C_13  and  C_33
   10  A    between atoms: C_13  and  O_43
   11  A    between atoms: C_16  and  N_29
   12  A    between atoms: C_16  and  C_49
   13  A    between atoms: C_17  and  C_18
   14  A    between atoms: CA_19  and  CB_21
   15  A    between atoms: CA_19  and  N_29
   16  A    between atoms: C_22  and  C_33
   17  A    between atoms: C_22  and  C_41
   18  A    between atoms: C_26  and  C_39
   19  A    between atoms: C_33  and  C_45
   20  A    between atoms: C_35  and  C_47
   21  A    between atoms: C_39  and  O_46
   22  A    between atoms: C_41  and  C_47
                            x       y       z     vdW  Elec       q    Type
                         _______ _______ _______ _____ _____    ______ ____

>  <TORSDO>
F 22

$$$$
=
 OpenBabel11062420253D

 49 50  0  0  1  0  0  0  0  0999 V2000
  190.7280  171.6810  142.2610 C   0  0  2  0  0  3  0  0  0  0  0  0
  191.9980  170.9870  142.5560 N   0  0  0  0  0  0  0  0  0  0  0  0
  190.8130  169.7100  137.9680 C   0  0  0  0  0  0  0  0  0  0  0  0
  190.1700  171.3650  140.8700 C   0  0  0  0  0  2  0  0  0  0  0  0
  190.5010  169.9500  140.4250 C   0  0  0  0  0  2  0  0  0  0  0  0
  192.6700  170.6990  139.3510 C   0  0  0  0  0  2  0  0  0  0  0  0
  191.3850  169.9960  139.2610 N   0  0  0  0  0  0  0  0  0  0  0  0
  192.3430  171.2600  143.8380 O   0  0  0  0  0  1  0  0  0  0  0  0
  189.5610  169.5910  137.8630 O   0  0  0  0  0  0  0  0  0  0  0  0
  193.4140  170.3990  140.6480 C   0  0  0  0  0  2  0  0  0  0  0  0
  193.0890  171.4490  141.7020 C   0  0  0  0  0  2  0  0  0  0  0  0
  191.6410  169.5630  136.7460 C   0  0  0  0  0  0  0  0  0  0  0  0
  193.3700  169.2030  134.5130 C   0  0  0  0  0  3  0  0  0  0  0  0
  193.2160  170.5030  135.0920 N   0  0  0  0  0  2  0  0  0  0  0  0
  192.7180  168.1660  135.0340 C   0  0  0  0  0  3  0  0  0  0  0  0
  191.8730  168.3490  136.2240 C   0  0  0  0  0  3  0  0  0  0  0  0
  192.1320  170.8060  136.0310 C   0  0  1  0  0  3  0  0  0  0  0  0
  190.9840  171.4620  135.2820 C   0  0  0  0  0  2  0  0  0  0  0  0
  190.9440  172.8810  135.5920 N   0  0  0  0  0  2  0  0  0  0  0  0
  189.5760  173.1910  135.9820 C   0  0  1  0  0  3  0  0  0  0  0  0
  189.4460  173.1580  137.5050 C   0  0  2  0  0  3  0  0  0  0  0  0
  188.3350  174.0850  137.9660 C   0  0  0  0  0  1  0  0  0  0  0  0
  190.6430  173.5620  138.0990 O   0  0  0  0  0  1  0  0  0  0  0  0
  189.2030  174.5670  135.4500 C   0  0  0  0  0  2  0  0  0  0  0  0
  190.3570  175.3070  135.1920 O   0  0  0  0  0  1  0  0  0  0  0  0
  190.6780  174.0880  141.3400 C   0  0  0  0  0  1  0  0  0  0  0  0
  190.7490  173.1940  142.5740 C   0  0  1  0  0  3  0  0  0  0  0  0
  189.7460  173.6070  143.6580 C   0  0  0  0  0  2  0  0  0  0  0  0
  190.3640  173.8880  145.0320 C   0  0  0  0  0  2  0  0  0  0  0  0
  190.1900  175.3470  145.4610 C   0  0  1  0  0  3  0  0  0  0  0  0
  189.0800  174.2970  147.3580 O   0  0  0  0  0  1  0  0  0  0  0  0
  189.6470  175.4890  146.8910 C   0  0  2  0  0  3  0  0  0  0  0  0
  189.4240  177.9880  147.2800 C   0  0  0  0  0  1  0  0  0  0  0  0
  188.6890  176.6750  147.0330 C   0  0  1  0  0  3  0  0  0  0  0  0
  187.8160  176.7860  145.7960 C   0  0  0  0  0  2  0  0  0  0  0  0
  186.3470  176.7720  146.1900 C   0  0  0  0  0  2  0  0  0  0  0  0
  185.6480  179.0510  146.9200 C   0  0  0  0  0  1  0  0  0  0  0  0
  185.6670  178.0620  145.7690 C   0  0  0  0  0  2  0  0  0  0  0  0
  191.4630  176.1700  145.2200 C   0  0  1  0  0  3  0  0  0  0  0  0
  193.4180  176.2470  146.7670 C   0  0  0  0  0  1  0  0  0  0  0  0
  192.6840  175.4180  145.7310 C   0  0  0  0  0  2  0  0  0  0  0  0
  191.6160  176.4850  143.8640 O   0  0  0  0  0  0  0  0  0  0  0  0
  191.1500  177.7960  143.7380 C   0  0  0  0  0  2  0  0  0  0  0  0
  189.9380  177.8100  142.9190 C   0  0  0  0  0  0  0  0  0  0  0  0
  188.9400  177.8270  142.2410 C   0  0  0  0  0  0  0  0  0  0  0  0
  186.5830  178.4320  142.2270 C   0  0  0  0  0  1  0  0  0  0  0  0
  187.7280  177.8530  141.4180 C   0  0  2  0  0  3  0  0  0  0  0  0
  187.1320  175.8720  142.2050 C   0  0  0  0  0  1  0  0  0  0  0  0
  187.4070  176.5550  141.0170 O   0  0  0  0  0  0  0  0  0  0  0  0
  1  2  1  0  0  0  0
  1 27  1  6  0  0  0
  2  8  1  0  0  0  0
  3  7  1  0  0  0  0
  4  1  1  0  0  0  0
  5  4  1  0  0  0  0
  6 10  1  0  0  0  0
  7  6  1  0  0  0  0
  7  5  1  0  0  0  0
  9  3  2  0  0  0  0
 10 11  1  0  0  0  0
 11  2  1  0  0  0  0
 12  3  1  0  0  0  0
 13 15  2  0  0  0  0
 13 14  1  0  0  0  0
 14 17  1  0  0  0  0
 15 16  1  0  0  0  0
 16 12  2  0  0  0  0
 17 18  1  6  0  0  0
 17 12  1  0  0  0  0
 18 19  1  0  0  0  0
 19 20  1  0  0  0  0
 20 24  1  1  0  0  0
 20 21  1  0  0  0  0
 21 22  1  6  0  0  0
 21 23  1  0  0  0  0
 25 24  1  0  0  0  0
 27 26  1  6  0  0  0
 27 28  1  0  0  0  0
 28 29  1  0  0  0  0
 30 29  1  1  0  0  0
 30 32  1  0  0  0  0
 32 34  1  0  0  0  0
 32 31  1  6  0  0  0
 34 33  1  6  0  0  0
 35 36  1  0  0  0  0
 35 34  1  0  0  0  0
 38 36  1  0  0  0  0
 38 37  1  0  0  0  0
 39 30  1  0  0  0  0
 39 41  1  6  0  0  0
 41 40  1  0  0  0  0
 42 39  1  0  0  0  0
 43 42  1  0  0  0  0
 44 43  1  0  0  0  0
 45 44  3  0  0  0  0
 47 46  1  1  0  0  0
 47 45  1  0  0  0  0
 49 47  1  0  0  0  0
 49 48  1  0  0  0  0
M  END
>  <MODEL>
4

>  <REMARK>
 VINA RESULT:      -5.3      3.790      8.714
  Name = 
  22 active torsions:
  status: ('A' for Active; 'I' for Inactive)
    1  A    between atoms: C_2  and  C_35
    2  A    between atoms: C_3  and  CA_19
    3  A    between atoms: C_7  and  C_8
    4  A    between atoms: C_8  and  C_9
    5  A    between atoms: C_9  and  C_45
    6  A    between atoms: C_12  and  C_25
    7  A    between atoms: C_12  and  O_43
    8  A    between atoms: C_13  and  C_27
    9  A    between atoms: C_13  and  C_33
   10  A    between atoms: C_13  and  O_43
   11  A    between atoms: C_16  and  N_29
   12  A    between atoms: C_16  and  C_49
   13  A    between atoms: C_17  and  C_18
   14  A    between atoms: CA_19  and  CB_21
   15  A    between atoms: CA_19  and  N_29
   16  A    between atoms: C_22  and  C_33
   17  A    between atoms: C_22  and  C_41
   18  A    between atoms: C_26  and  C_39
   19  A    between atoms: C_33  and  C_45
   20  A    between atoms: C_35  and  C_47
   21  A    between atoms: C_39  and  O_46
   22  A    between atoms: C_41  and  C_47
                            x       y       z     vdW  Elec       q    Type
                         _______ _______ _______ _____ _____    ______ ____

>  <TORSDO>
F 22

$$$$
=
 OpenBabel11062420253D

 49 50  0  0  1  0  0  0  0  0999 V2000
  192.9510  175.3970  145.8060 C   0  0  2  0  0  3  0  0  0  0  0  0
  192.2980  174.0780  145.9190 N   0  0  0  0  0  0  0  0  0  0  0  0
  188.8490  177.3740  147.0670 C   0  0  0  0  0  0  0  0  0  0  0  0
  192.0310  176.5650  146.1760 C   0  0  0  0  0  2  0  0  0  0  0  0
  191.0290  176.1890  147.2550 C   0  0  0  0  0  2  0  0  0  0  0  0
  189.3280  175.4320  145.5370 C   0  0  0  0  0  2  0  0  0  0  0  0
  189.6740  176.2470  146.7080 N   0  0  0  0  0  0  0  0  0  0  0  0
  193.2260  173.1230  145.6670 O   0  0  0  0  0  1  0  0  0  0  0  0
  189.3660  178.3370  147.6970 O   0  0  0  0  0  0  0  0  0  0  0  0
  189.8680  174.0090  145.6300 C   0  0  0  0  0  2  0  0  0  0  0  0
  191.2240  173.9100  144.9440 C   0  0  0  0  0  2  0  0  0  0  0  0
  187.4110  177.4540  146.7100 C   0  0  0  0  0  0  0  0  0  0  0  0
  184.6210  177.4570  146.1470 C   0  0  0  0  0  3  0  0  0  0  0  0
  185.5370  176.8910  145.2050 N   0  0  0  0  0  2  0  0  0  0  0  0
  185.0770  177.9610  147.2910 C   0  0  0  0  0  3  0  0  0  0  0  0
  186.5140  177.9020  147.6010 C   0  0  0  0  0  3  0  0  0  0  0  0
  186.9800  177.1260  145.2950 C   0  0  1  0  0  3  0  0  0  0  0  0
  187.3670  178.2590  144.3590 C   0  0  0  0  0  2  0  0  0  0  0  0
  188.1800  177.7400  143.2710 N   0  0  0  0  0  2  0  0  0  0  0  0
  187.2870  177.0030  142.3900 C   0  0  1  0  0  3  0  0  0  0  0  0
  186.6240  177.9570  141.3970 C   0  0  2  0  0  3  0  0  0  0  0  0
  185.1240  178.0110  141.6260 C   0  0  0  0  0  1  0  0  0  0  0  0
  186.8630  177.5320  140.0880 O   0  0  0  0  0  1  0  0  0  0  0  0
  188.0830  175.9380  141.6480 C   0  0  0  0  0  2  0  0  0  0  0  0
  187.7940  174.6770  142.1700 O   0  0  0  0  0  1  0  0  0  0  0  0
  192.9010  176.3820  143.4250 C   0  0  0  0  0  1  0  0  0  0  0  0
  193.7020  175.6180  144.4740 C   0  0  1  0  0  3  0  0  0  0  0  0
  195.1180  176.1790  144.6580 C   0  0  0  0  0  2  0  0  0  0  0  0
  196.2310  175.1260  144.6680 C   0  0  0  0  0  2  0  0  0  0  0  0
  196.2830  174.3220  143.3670 C   0  0  1  0  0  3  0  0  0  0  0  0
  197.9410  176.0220  142.8250 O   0  0  0  0  0  1  0  0  0  0  0  0
  197.1840  174.9660  142.3020 C   0  0  2  0  0  3  0  0  0  0  0  0
  195.7950  176.7760  141.1860 C   0  0  0  0  0  1  0  0  0  0  0  0
  196.4010  175.3830  141.0540 C   0  0  1  0  0  3  0  0  0  0  0  0
  197.3010  175.3150  139.8330 C   0  0  0  0  0  2  0  0  0  0  0  0
  196.7480  174.3140  138.8300 C   0  0  0  0  0  2  0  0  0  0  0  0
  196.0810  174.8730  136.4930 C   0  0  0  0  0  1  0  0  0  0  0  0
  195.6890  174.9620  137.9570 C   0  0  0  0  0  2  0  0  0  0  0  0
  196.6160  172.8450  143.6190 C   0  0  1  0  0  3  0  0  0  0  0  0
  196.6230  171.5280  145.7380 C   0  0  0  0  0  1  0  0  0  0  0  0
  197.2680  172.6750  144.9840 C   0  0  0  0  0  2  0  0  0  0  0  0
  195.4730  172.0410  143.5200 O   0  0  0  0  0  0  0  0  0  0  0  0
  195.4380  171.6180  142.1890 C   0  0  0  0  0  2  0  0  0  0  0  0
  194.3490  172.2980  141.4870 C   0  0  0  0  0  0  0  0  0  0  0  0
  193.4520  172.8550  140.9030 C   0  0  0  0  0  0  0  0  0  0  0  0
  191.2760  173.9110  141.1740 C   0  0  0  0  0  1  0  0  0  0  0  0
  192.3650  173.5300  140.1890 C   0  0  2  0  0  3  0  0  0  0  0  0
  192.7810  172.6810  138.1880 C   0  0  0  0  0  1  0  0  0  0  0  0
  191.8390  172.6730  139.2200 O   0  0  0  0  0  0  0  0  0  0  0  0
  1 27  1  6  0  0  0
  1  2  1  0  0  0  0
  1  4  1  0  0  0  0
  3  9  2  0  0  0  0
  4  5  1  0  0  0  0
  6 10  1  0  0  0  0
  6  7  1  0  0  0  0
  7  3  1  0  0  0  0
  7  5  1  0  0  0  0
  8  2  1  0  0  0  0
 11 10  1  0  0  0  0
 11  2  1  0  0  0  0
 12  3  1  0  0  0  0
 12 16  2  0  0  0  0
 13 15  2  0  0  0  0
 14 17  1  0  0  0  0
 14 13  1  0  0  0  0
 15 16  1  0  0  0  0
 17 18  1  6  0  0  0
 17 12  1  0  0  0  0
 19 18  1  0  0  0  0
 20 24  1  6  0  0  0
 20 19  1  0  0  0  0
 21 22  1  1  0  0  0
 21 20  1  0  0  0  0
 23 21  1  0  0  0  0
 24 25  1  0  0  0  0
 27 26  1  6  0  0  0
 27 28  1  0  0  0  0
 28 29  1  0  0  0  0
 30 39  1  0  0  0  0
 30 29  1  1  0  0  0
 32 31  1  1  0  0  0
 32 30  1  0  0  0  0
 34 33  1  1  0  0  0
 34 32  1  0  0  0  0
 35 34  1  0  0  0  0
 36 35  1  0  0  0  0
 37 38  1  0  0  0  0
 38 36  1  0  0  0  0
 39 41  1  1  0  0  0
 41 40  1  0  0  0  0
 42 39  1  0  0  0  0
 43 42  1  0  0  0  0
 44 43  1  0  0  0  0
 45 44  3  0  0  0  0
 47 45  1  0  0  0  0
 47 46  1  1  0  0  0
 48 49  1  0  0  0  0
 49 47  1  0  0  0  0
M  END
>  <MODEL>
5

>  <REMARK>
 VINA RESULT:      -5.0      1.975      5.328
  Name = 
  22 active torsions:
  status: ('A' for Active; 'I' for Inactive)
    1  A    between atoms: C_2  and  C_35
    2  A    between atoms: C_3  and  CA_19
    3  A    between atoms: C_7  and  C_8
    4  A    between atoms: C_8  and  C_9
    5  A    between atoms: C_9  and  C_45
    6  A    between atoms: C_12  and  C_25
    7  A    between atoms: C_12  and  O_43
    8  A    between atoms: C_13  and  C_27
    9  A    between atoms: C_13  and  C_33
   10  A    between atoms: C_13  and  O_43
   11  A    between atoms: C_16  and  N_29
   12  A    between atoms: C_16  and  C_49
   13  A    between atoms: C_17  and  C_18
   14  A    between atoms: CA_19  and  CB_21
   15  A    between atoms: CA_19  and  N_29
   16  A    between atoms: C_22  and  C_33
   17  A    between atoms: C_22  and  C_41
   18  A    between atoms: C_26  and  C_39
   19  A    between atoms: C_33  and  C_45
   20  A    between atoms: C_35  and  C_47
   21  A    between atoms: C_39  and  O_46
   22  A    between atoms: C_41  and  C_47
                            x       y       z     vdW  Elec       q    Type
                         _______ _______ _______ _____ _____    ______ ____

>  <TORSDO>
F 22

$$$$
=
 OpenBabel11062420253D

 49 50  0  0  1  0  0  0  0  0999 V2000
  192.9900  175.4940  145.6190 C   0  0  2  0  0  3  0  0  0  0  0  0
  192.3730  174.1700  145.8340 N   0  0  0  0  0  0  0  0  0  0  0  0
  188.9660  177.4530  147.1330 C   0  0  0  0  0  0  0  0  0  0  0  0
  192.0800  176.6610  146.0180 C   0  0  0  0  0  2  0  0  0  0  0  0
  191.1750  176.3110  147.1880 C   0  0  0  0  0  2  0  0  0  0  0  0
  189.3560  175.4610  145.6430 C   0  0  0  0  0  2  0  0  0  0  0  0
  189.7800  176.3260  146.7510 N   0  0  0  0  0  0  0  0  0  0  0  0
  193.2950  173.2200  145.5430 O   0  0  0  0  0  1  0  0  0  0  0  0
  189.5130  178.4490  147.6830 O   0  0  0  0  0  0  0  0  0  0  0  0
  189.9290  174.0510  145.7460 C   0  0  0  0  0  2  0  0  0  0  0  0
  191.2270  173.9470  144.9560 C   0  0  0  0  0  2  0  0  0  0  0  0
  187.5030  177.4970  146.8910 C   0  0  0  0  0  0  0  0  0  0  0  0
  184.6720  177.4740  146.5910 C   0  0  0  0  0  3  0  0  0  0  0  0
  185.4810  176.6110  145.7850 N   0  0  0  0  0  2  0  0  0  0  0  0
  185.2470  178.2680  147.4900 C   0  0  0  0  0  3  0  0  0  0  0  0
  186.7050  178.2310  147.6820 C   0  0  0  0  0  3  0  0  0  0  0  0
  186.9310  176.7900  145.6790 C   0  0  1  0  0  3  0  0  0  0  0  0
  187.2520  177.5780  144.4190 C   0  0  0  0  0  2  0  0  0  0  0  0
  186.6860  176.9050  143.2620 N   0  0  0  0  0  2  0  0  0  0  0  0
  186.5160  177.9140  142.2270 C   0  0  1  0  0  3  0  0  0  0  0  0
  187.3930  177.5790  141.0210 C   0  0  2  0  0  3  0  0  0  0  0  0
  186.5530  177.4800  139.7600 C   0  0  0  0  0  1  0  0  0  0  0  0
  188.0440  176.3600  141.2230 O   0  0  0  0  0  1  0  0  0  0  0  0
  185.0510  177.9690  141.8160 C   0  0  0  0  0  2  0  0  0  0  0  0
  184.2370  177.9150  142.9480 O   0  0  0  0  0  1  0  0  0  0  0  0
  192.6940  176.2920  143.1860 C   0  0  0  0  0  1  0  0  0  0  0  0
  193.6270  175.6750  144.2230 C   0  0  1  0  0  3  0  0  0  0  0  0
  194.9990  176.3590  144.2630 C   0  0  0  0  0  2  0  0  0  0  0  0
  196.1900  175.4260  144.0200 C   0  0  0  0  0  2  0  0  0  0  0  0
  195.8210  174.2270  143.1420 C   0  0  1  0  0  3  0  0  0  0  0  0
  196.7720  175.6470  141.4070 O   0  0  0  0  0  1  0  0  0  0  0  0
  195.9870  174.5120  141.6420 C   0  0  2  0  0  3  0  0  0  0  0  0
  194.7530  175.2770  139.5590 C   0  0  0  0  0  1  0  0  0  0  0  0
  194.6440  174.5810  140.9110 C   0  0  1  0  0  3  0  0  0  0  0  0
  194.0760  173.1830  140.7380 C   0  0  0  0  0  2  0  0  0  0  0  0
  192.8690  172.9930  141.6450 C   0  0  0  0  0  2  0  0  0  0  0  0
  190.5080  173.6550  141.1990 C   0  0  0  0  0  1  0  0  0  0  0  0
  191.6260  172.7010  140.8250 C   0  0  0  0  0  2  0  0  0  0  0  0
  196.5360  172.9470  143.5920 C   0  0  1  0  0  3  0  0  0  0  0  0
  196.7910  172.6600  146.0570 C   0  0  0  0  0  1  0  0  0  0  0  0
  197.4190  173.2290  144.8000 C   0  0  0  0  0  2  0  0  0  0  0  0
  195.6210  171.9270  143.8840 O   0  0  0  0  0  0  0  0  0  0  0  0
  196.1480  170.7810  143.2850 C   0  0  0  0  0  2  0  0  0  0  0  0
  195.1200  170.1360  142.4690 C   0  0  0  0  0  0  0  0  0  0  0  0
  194.2700  169.6010  141.8000 C   0  0  0  0  0  0  0  0  0  0  0  0
  193.2430  169.5380  139.5940 C   0  0  0  0  0  1  0  0  0  0  0  0
  193.2380  168.9460  140.9900 C   0  0  2  0  0  3  0  0  0  0  0  0
  191.0700  168.9180  140.5490 C   0  0  0  0  0  1  0  0  0  0  0  0
  191.9880  169.1440  141.5780 O   0  0  0  0  0  0  0  0  0  0  0  0
  1 27  1  6  0  0  0
  1  2  1  0  0  0  0
  1  4  1  0  0  0  0
  3  9  2  0  0  0  0
  4  5  1  0  0  0  0
  6 10  1  0  0  0  0
  6  7  1  0  0  0  0
  7  3  1  0  0  0  0
  7  5  1  0  0  0  0
  8  2  1  0  0  0  0
 11 10  1  0  0  0  0
 11  2  1  0  0  0  0
 12  3  1  0  0  0  0
 12 16  2  0  0  0  0
 13 15  2  0  0  0  0
 14 13  1  0  0  0  0
 15 16  1  0  0  0  0
 17 18  1  6  0  0  0
 17 14  1  0  0  0  0
 17 12  1  0  0  0  0
 19 18  1  0  0  0  0
 20 24  1  6  0  0  0
 20 19  1  0  0  0  0
 21 22  1  6  0  0  0
 21 23  1  0  0  0  0
 21 20  1  0  0  0  0
 24 25  1  0  0  0  0
 27 26  1  6  0  0  0
 27 28  1  0  0  0  0
 29 28  1  0  0  0  0
 30 39  1  0  0  0  0
 30 29  1  1  0  0  0
 32 31  1  1  0  0  0
 32 30  1  0  0  0  0
 34 33  1  6  0  0  0
 34 32  1  0  0  0  0
 35 34  1  0  0  0  0
 35 36  1  0  0  0  0
 38 37  1  0  0  0  0
 38 36  1  0  0  0  0
 39 42  1  0  0  0  0
 39 41  1  1  0  0  0
 41 40  1  0  0  0  0
 43 42  1  0  0  0  0
 44 43  1  0  0  0  0
 45 44  3  0  0  0  0
 47 46  1  6  0  0  0
 47 49  1  0  0  0  0
 47 45  1  0  0  0  0
 48 49  1  0  0  0  0
M  END
>  <MODEL>
6

>  <REMARK>
 VINA RESULT:      -4.8      1.983      5.473
  Name = 
  22 active torsions:
  status: ('A' for Active; 'I' for Inactive)
    1  A    between atoms: C_2  and  C_35
    2  A    between atoms: C_3  and  CA_19
    3  A    between atoms: C_7  and  C_8
    4  A    between atoms: C_8  and  C_9
    5  A    between atoms: C_9  and  C_45
    6  A    between atoms: C_12  and  C_25
    7  A    between atoms: C_12  and  O_43
    8  A    between atoms: C_13  and  C_27
    9  A    between atoms: C_13  and  C_33
   10  A    between atoms: C_13  and  O_43
   11  A    between atoms: C_16  and  N_29
   12  A    between atoms: C_16  and  C_49
   13  A    between atoms: C_17  and  C_18
   14  A    between atoms: CA_19  and  CB_21
   15  A    between atoms: CA_19  and  N_29
   16  A    between atoms: C_22  and  C_33
   17  A    between atoms: C_22  and  C_41
   18  A    between atoms: C_26  and  C_39
   19  A    between atoms: C_33  and  C_45
   20  A    between atoms: C_35  and  C_47
   21  A    between atoms: C_39  and  O_46
   22  A    between atoms: C_41  and  C_47
                            x       y       z     vdW  Elec       q    Type
                         _______ _______ _______ _____ _____    ______ ____

>  <TORSDO>
F 22

$$$$
=
 OpenBabel11062420253D

 49 50  0  0  1  0  0  0  0  0999 V2000
  190.6600  172.5180  143.0380 C   0  0  2  0  0  3  0  0  0  0  0  0
  192.0790  172.2600  143.3550 N   0  0  0  0  0  0  0  0  0  0  0  0
  191.2630  170.0830  139.0340 C   0  0  0  0  0  0  0  0  0  0  0  0
  190.2010  171.8680  141.7280 C   0  0  0  0  0  2  0  0  0  0  0  0
  190.9220  170.5590  141.4520 C   0  0  0  0  0  2  0  0  0  0  0  0
  192.7710  171.7400  140.1840 C   0  0  0  0  0  2  0  0  0  0  0  0
  191.7420  170.6940  140.2490 N   0  0  0  0  0  0  0  0  0  0  0  0
  192.3450  172.7930  144.5730 O   0  0  0  0  0  1  0  0  0  0  0  0
  190.0980  169.6000  139.0080 O   0  0  0  0  0  0  0  0  0  0  0  0
  193.5840  171.8440  141.4700 C   0  0  0  0  0  2  0  0  0  0  0  0
  192.9810  172.8920  142.3970 C   0  0  0  0  0  2  0  0  0  0  0  0
  192.0850  170.0120  137.8010 C   0  0  0  0  0  0  0  0  0  0  0  0
  193.8150  169.9300  135.5420 C   0  0  0  0  0  3  0  0  0  0  0  0
  192.9280  171.0380  135.7190 N   0  0  0  0  0  2  0  0  0  0  0  0
  193.8400  168.9530  136.4450 C   0  0  0  0  0  3  0  0  0  0  0  0
  192.9860  169.0320  137.6400 C   0  0  0  0  0  3  0  0  0  0  0  0
  191.8200  170.9950  136.6770 C   0  0  1  0  0  3  0  0  0  0  0  0
  190.5380  170.6210  135.9520 C   0  0  0  0  0  2  0  0  0  0  0  0
  189.9060  171.8180  135.4250 N   0  0  0  0  0  2  0  0  0  0  0  0
  190.1210  172.8760  136.4020 C   0  0  1  0  0  3  0  0  0  0  0  0
  190.3020  174.2170  135.6910 C   0  0  2  0  0  3  0  0  0  0  0  0
  191.5820  174.8950  136.1470 C   0  0  0  0  0  1  0  0  0  0  0  0
  189.2240  175.0590  135.9720 O   0  0  0  0  0  1  0  0  0  0  0  0
  188.9280  172.9350  137.3460 C   0  0  0  0  0  2  0  0  0  0  0  0
  189.3690  173.0530  138.6640 O   0  0  0  0  0  1  0  0  0  0  0  0
  190.0840  174.7100  141.8130 C   0  0  0  0  0  1  0  0  0  0  0  0
  190.2470  174.0020  143.1530 C   0  0  1  0  0  3  0  0  0  0  0  0
  189.0540  174.2320  144.0900 C   0  0  0  0  0  2  0  0  0  0  0  0
  189.4170  174.8040  145.4640 C   0  0  0  0  0  2  0  0  0  0  0  0
  189.5110  176.3320  145.4520 C   0  0  1  0  0  3  0  0  0  0  0  0
  187.4950  176.1150  146.8010 O   0  0  0  0  0  1  0  0  0  0  0  0
  188.2760  177.0120  146.0630 C   0  0  2  0  0  3  0  0  0  0  0  0
  188.1610  177.8550  143.6710 C   0  0  0  0  0  1  0  0  0  0  0  0
  187.4510  177.7670  145.0170 C   0  0  1  0  0  3  0  0  0  0  0  0
  186.0940  177.1060  144.8530 C   0  0  0  0  0  2  0  0  0  0  0  0
  185.0350  178.1550  144.5490 C   0  0  0  0  0  2  0  0  0  0  0  0
  184.5260  178.2950  146.9860 C   0  0  0  0  0  1  0  0  0  0  0  0
  184.8510  179.0870  145.7320 C   0  0  0  0  0  2  0  0  0  0  0  0
  190.8300  176.8290  146.0580 C   0  0  1  0  0  3  0  0  0  0  0  0
  191.4280  175.5000  148.0820 C   0  0  0  0  0  1  0  0  0  0  0  0
  190.7700  176.7690  147.5790 C   0  0  0  0  0  2  0  0  0  0  0  0
  191.9200  176.0890  145.5840 O   0  0  0  0  0  0  0  0  0  0  0  0
  192.3180  176.7360  144.4110 C   0  0  0  0  0  2  0  0  0  0  0  0
  193.6480  176.2690  144.0190 C   0  0  0  0  0  0  0  0  0  0  0  0
  194.7420  175.8790  143.6930 C   0  0  0  0  0  0  0  0  0  0  0  0
  196.8110  174.8990  144.5200 C   0  0  0  0  0  1  0  0  0  0  0  0
  196.0690  175.4010  143.2960 C   0  0  2  0  0  3  0  0  0  0  0  0
  196.2730  176.5530  141.4170 C   0  0  0  0  0  1  0  0  0  0  0  0
  196.7870  176.4460  142.7110 O   0  0  0  0  0  0  0  0  0  0  0  0
  1 27  1  6  0  0  0
  1  2  1  0  0  0  0
  2  8  1  0  0  0  0
  3  7  1  0  0  0  0
  4  1  1  0  0  0  0
  5  4  1  0  0  0  0
  6  7  1  0  0  0  0
  6 10  1  0  0  0  0
  7  5  1  0  0  0  0
  9  3  2  0  0  0  0
 10 11  1  0  0  0  0
 11  2  1  0  0  0  0
 12  3  1  0  0  0  0
 13 14  1  0  0  0  0
 13 15  2  0  0  0  0
 14 17  1  0  0  0  0
 15 16  1  0  0  0  0
 16 12  2  0  0  0  0
 17 18  1  6  0  0  0
 17 12  1  0  0  0  0
 19 18  1  0  0  0  0
 19 20  1  0  0  0  0
 20 24  1  1  0  0  0
 21 23  1  0  0  0  0
 21 22  1  1  0  0  0
 21 20  1  0  0  0  0
 24 25  1  0  0  0  0
 27 26  1  6  0  0  0
 27 28  1  0  0  0  0
 28 29  1  0  0  0  0
 30 29  1  1  0  0  0
 30 39  1  0  0  0  0
 30 32  1  0  0  0  0
 32 31  1  6  0  0  0
 34 33  1  6  0  0  0
 34 32  1  0  0  0  0
 35 34  1  0  0  0  0
 36 35  1  0  0  0  0
 36 38  1  0  0  0  0
 38 37  1  0  0  0  0
 39 41  1  1  0  0  0
 41 40  1  0  0  0  0
 42 39  1  0  0  0  0
 43 42  1  0  0  0  0
 44 43  1  0  0  0  0
 45 44  3  0  0  0  0
 47 45  1  0  0  0  0
 47 46  1  1  0  0  0
 48 49  1  0  0  0  0
 49 47  1  0  0  0  0
M  END
>  <MODEL>
7

>  <REMARK>
 VINA RESULT:      -4.8      3.356      8.822
  Name = 
  22 active torsions:
  status: ('A' for Active; 'I' for Inactive)
    1  A    between atoms: C_2  and  C_35
    2  A    between atoms: C_3  and  CA_19
    3  A    between atoms: C_7  and  C_8
    4  A    between atoms: C_8  and  C_9
    5  A    between atoms: C_9  and  C_45
    6  A    between atoms: C_12  and  C_25
    7  A    between atoms: C_12  and  O_43
    8  A    between atoms: C_13  and  C_27
    9  A    between atoms: C_13  and  C_33
   10  A    between atoms: C_13  and  O_43
   11  A    between atoms: C_16  and  N_29
   12  A    between atoms: C_16  and  C_49
   13  A    between atoms: C_17  and  C_18
   14  A    between atoms: CA_19  and  CB_21
   15  A    between atoms: CA_19  and  N_29
   16  A    between atoms: C_22  and  C_33
   17  A    between atoms: C_22  and  C_41
   18  A    between atoms: C_26  and  C_39
   19  A    between atoms: C_33  and  C_45
   20  A    between atoms: C_35  and  C_47
   21  A    between atoms: C_39  and  O_46
   22  A    between atoms: C_41  and  C_47
                            x       y       z     vdW  Elec       q    Type
                         _______ _______ _______ _____ _____    ______ ____

>  <TORSDO>
F 22

$$$$
=
 OpenBabel11062420253D

 49 50  0  0  1  0  0  0  0  0999 V2000
  190.0510  176.3740  145.1670 C   0  0  2  0  0  3  0  0  0  0  0  0
  190.2300  176.2970  146.6310 N   0  0  0  0  0  0  0  0  0  0  0  0
  193.0430  172.7390  144.7570 C   0  0  0  0  0  0  0  0  0  0  0  0
  190.8280  175.2960  144.4020 C   0  0  0  0  0  2  0  0  0  0  0  0
  190.9430  174.0020  145.1890 C   0  0  0  0  0  2  0  0  0  0  0  0
  193.1080  174.7490  146.2730 C   0  0  0  0  0  2  0  0  0  0  0  0
  192.3460  173.7490  145.5150 N   0  0  0  0  0  0  0  0  0  0  0  0
  189.4270  177.2260  147.2040 O   0  0  0  0  0  1  0  0  0  0  0  0
  192.4800  172.2310  143.7490 O   0  0  0  0  0  0  0  0  0  0  0  0
  192.3200  175.3200  147.4480 C   0  0  0  0  0  2  0  0  0  0  0  0
  191.6010  176.5970  147.0340 C   0  0  0  0  0  2  0  0  0  0  0  0
  194.4100  172.2820  145.1080 C   0  0  0  0  0  0  0  0  0  0  0  0
  196.9820  171.4190  145.9700 C   0  0  0  0  0  3  0  0  0  0  0  0
  196.7980  172.7630  145.5150 N   0  0  0  0  0  2  0  0  0  0  0  0
  195.9450  170.5860  146.0060 C   0  0  0  0  0  3  0  0  0  0  0  0
  194.6080  171.0560  145.6150 C   0  0  0  0  0  3  0  0  0  0  0  0
  195.5940  173.1740  144.7880 C   0  0  1  0  0  3  0  0  0  0  0  0
  195.8730  173.1500  143.2950 C   0  0  0  0  0  2  0  0  0  0  0  0
  195.3430  174.3540  142.6770 N   0  0  0  0  0  2  0  0  0  0  0  0
  195.8680  174.4000  141.3200 C   0  0  1  0  0  3  0  0  0  0  0  0
  196.8970  175.5240  141.1950 C   0  0  2  0  0  3  0  0  0  0  0  0
  196.4270  176.7630  141.9360 C   0  0  0  0  0  1  0  0  0  0  0  0
  197.0890  175.8510  139.8510 O   0  0  0  0  0  1  0  0  0  0  0  0
  196.5080  173.0600  140.9850 C   0  0  0  0  0  2  0  0  0  0  0  0
  197.8970  173.1760  141.0060 O   0  0  0  0  0  1  0  0  0  0  0  0
  191.5530  177.9750  143.8160 C   0  0  0  0  0  1  0  0  0  0  0  0
  190.2460  177.7890  144.5800 C   0  0  1  0  0  3  0  0  0  0  0  0
  189.0290  178.2980  143.7970 C   0  0  0  0  0  2  0  0  0  0  0  0
  187.6780  178.0460  144.4740 C   0  0  0  0  0  2  0  0  0  0  0  0
  186.6050  177.5910  143.4820 C   0  0  1  0  0  3  0  0  0  0  0  0
  187.1990  175.4010  144.3660 O   0  0  0  0  0  1  0  0  0  0  0  0
  186.5520  176.0650  143.3170 C   0  0  2  0  0  3  0  0  0  0  0  0
  187.8540  176.7000  141.2310 C   0  0  0  0  0  1  0  0  0  0  0  0
  187.0630  175.6110  141.9470 C   0  0  1  0  0  3  0  0  0  0  0  0
  187.9110  174.3600  142.1000 C   0  0  0  0  0  2  0  0  0  0  0  0
  189.1400  174.4500  141.2080 C   0  0  0  0  0  2  0  0  0  0  0  0
  189.8980  172.2420  140.3340 C   0  0  0  0  0  1  0  0  0  0  0  0
  190.0590  173.2650  141.4430 C   0  0  0  0  0  2  0  0  0  0  0  0
  185.2360  178.2070  143.7970 C   0  0  1  0  0  3  0  0  0  0  0  0
  184.3230  178.5340  146.0960 C   0  0  0  0  0  1  0  0  0  0  0  0
  185.3110  179.0460  145.0660 C   0  0  0  0  0  2  0  0  0  0  0  0
  184.7670  178.9820  142.7280 O   0  0  0  0  0  0  0  0  0  0  0  0
  184.2910  178.0610  141.7910 C   0  0  0  0  0  2  0  0  0  0  0  0
  182.8680  178.2990  141.5480 C   0  0  0  0  0  0  0  0  0  0  0  0
  181.6930  178.4890  141.3470 C   0  0  0  0  0  0  0  0  0  0  0  0
  180.0720  180.0970  140.5060 C   0  0  0  0  0  1  0  0  0  0  0  0
  180.2660  178.7150  141.1000 C   0  0  2  0  0  3  0  0  0  0  0  0
  178.6570  177.5750  142.1050 C   0  0  0  0  0  1  0  0  0  0  0  0
  179.5630  178.6210  142.3020 O   0  0  0  0  0  0  0  0  0  0  0  0
  1 27  1  6  0  0  0
  1  2  1  0  0  0  0
  2 11  1  0  0  0  0
  2  8  1  0  0  0  0
  3 12  1  0  0  0  0
  3  7  1  0  0  0  0
  4  1  1  0  0  0  0
  4  5  1  0  0  0  0
  5  7  1  0  0  0  0
  6 10  1  0  0  0  0
  7  6  1  0  0  0  0
  9  3  2  0  0  0  0
 11 10  1  0  0  0  0
 12 16  2  0  0  0  0
 13 15  2  0  0  0  0
 14 13  1  0  0  0  0
 16 15  1  0  0  0  0
 17 18  1  6  0  0  0
 17 12  1  0  0  0  0
 17 14  1  0  0  0  0
 19 18  1  0  0  0  0
 20 24  1  1  0  0  0
 20 19  1  0  0  0  0
 21 20  1  0  0  0  0
 21 22  1  1  0  0  0
 23 21  1  0  0  0  0
 24 25  1  0  0  0  0
 27 26  1  6  0  0  0
 28 29  1  0  0  0  0
 28 27  1  0  0  0  0
 30 39  1  0  0  0  0
 30 29  1  1  0  0  0
 32 30  1  0  0  0  0
 32 31  1  1  0  0  0
 34 33  1  1  0  0  0
 34 35  1  0  0  0  0
 34 32  1  0  0  0  0
 36 38  1  0  0  0  0
 36 35  1  0  0  0  0
 37 38  1  0  0  0  0
 39 41  1  1  0  0  0
 41 40  1  0  0  0  0
 42 39  1  0  0  0  0
 43 42  1  0  0  0  0
 44 43  1  0  0  0  0
 45 44  3  0  0  0  0
 47 46  1  1  0  0  0
 47 45  1  0  0  0  0
 47 49  1  0  0  0  0
 48 49  1  0  0  0  0
M  END
>  <MODEL>
8

>  <REMARK>
 VINA RESULT:      -4.8      2.791     10.512
  Name = 
  22 active torsions:
  status: ('A' for Active; 'I' for Inactive)
    1  A    between atoms: C_2  and  C_35
    2  A    between atoms: C_3  and  CA_19
    3  A    between atoms: C_7  and  C_8
    4  A    between atoms: C_8  and  C_9
    5  A    between atoms: C_9  and  C_45
    6  A    between atoms: C_12  and  C_25
    7  A    between atoms: C_12  and  O_43
    8  A    between atoms: C_13  and  C_27
    9  A    between atoms: C_13  and  C_33
   10  A    between atoms: C_13  and  O_43
   11  A    between atoms: C_16  and  N_29
   12  A    between atoms: C_16  and  C_49
   13  A    between atoms: C_17  and  C_18
   14  A    between atoms: CA_19  and  CB_21
   15  A    between atoms: CA_19  and  N_29
   16  A    between atoms: C_22  and  C_33
   17  A    between atoms: C_22  and  C_41
   18  A    between atoms: C_26  and  C_39
   19  A    between atoms: C_33  and  C_45
   20  A    between atoms: C_35  and  C_47
   21  A    between atoms: C_39  and  O_46
   22  A    between atoms: C_41  and  C_47
                            x       y       z     vdW  Elec       q    Type
                         _______ _______ _______ _____ _____    ______ ____

>  <TORSDO>
F 22

$$$$
=
 OpenBabel11062420253D

 49 50  0  0  1  0  0  0  0  0999 V2000
  194.4710  174.6170  143.6010 C   0  0  2  0  0  3  0  0  0  0  0  0
  195.9450  174.5780  143.6840 N   0  0  0  0  0  0  0  0  0  0  0  0
  194.7540  171.7770  139.8350 C   0  0  0  0  0  0  0  0  0  0  0  0
  193.9030  173.7520  142.4710 C   0  0  0  0  0  2  0  0  0  0  0  0
  194.7480  172.5160  142.2110 C   0  0  0  0  0  2  0  0  0  0  0  0
  196.1770  173.7400  140.5140 C   0  0  0  0  0  2  0  0  0  0  0  0
  195.3330  172.5940  140.8730 N   0  0  0  0  0  0  0  0  0  0  0  0
  196.3270  175.2930  144.7700 O   0  0  0  0  0  1  0  0  0  0  0  0
  193.6810  171.1560  140.0690 O   0  0  0  0  0  0  0  0  0  0  0  0
  197.1660  174.1090  141.6150 C   0  0  0  0  0  2  0  0  0  0  0  0
  196.5780  175.1860  142.5170 C   0  0  0  0  0  2  0  0  0  0  0  0
  195.3650  171.6480  138.4890 C   0  0  0  0  0  0  0  0  0  0  0  0
  196.7080  171.4550  135.9860 C   0  0  0  0  0  3  0  0  0  0  0  0
  195.8780  172.5880  136.2640 N   0  0  0  0  0  2  0  0  0  0  0  0
  196.8620  170.5080  136.9080 C   0  0  0  0  0  3  0  0  0  0  0  0
  196.2130  170.6440  138.2210 C   0  0  0  0  0  3  0  0  0  0  0  0
  194.9390  172.5990  137.3880 C   0  0  1  0  0  3  0  0  0  0  0  0
  193.5510  172.2300  136.8920 C   0  0  0  0  0  2  0  0  0  0  0  0
  192.5860  173.2110  137.3580 N   0  0  0  0  0  2  0  0  0  0  0  0
  191.2650  172.6890  137.0430 C   0  0  1  0  0  3  0  0  0  0  0  0
  191.0270  171.3780  137.7910 C   0  0  2  0  0  3  0  0  0  0  0  0
  190.0410  170.5030  137.0370 C   0  0  0  0  0  1  0  0  0  0  0  0
  190.5150  171.6360  139.0640 O   0  0  0  0  0  1  0  0  0  0  0  0
  190.2130  173.7180  137.4340 C   0  0  0  0  0  2  0  0  0  0  0  0
  189.4900  174.1120  136.3080 O   0  0  0  0  0  1  0  0  0  0  0  0
  193.0910  176.4160  142.3760 C   0  0  0  0  0  1  0  0  0  0  0  0
  193.8750  176.0410  143.6290 C   0  0  1  0  0  3  0  0  0  0  0  0
  193.1070  176.3550  144.9200 C   0  0  0  0  0  2  0  0  0  0  0  0
  192.5410  175.1300  145.6450 C   0  0  0  0  0  2  0  0  0  0  0  0
  191.0120  175.0740  145.5870 C   0  0  1  0  0  3  0  0  0  0  0  0
  191.3560  172.7520  144.9390 O   0  0  0  0  0  1  0  0  0  0  0  0
  190.4880  173.8440  144.8310 C   0  0  2  0  0  3  0  0  0  0  0  0
  190.3300  172.9580  142.4560 C   0  0  0  0  0  1  0  0  0  0  0  0
  190.1430  174.1620  143.3730 C   0  0  1  0  0  3  0  0  0  0  0  0
  188.7180  174.6770  143.2790 C   0  0  0  0  0  2  0  0  0  0  0  0
  188.6400  175.8210  142.2800 C   0  0  0  0  0  2  0  0  0  0  0  0
  188.9350  178.2850  142.0390 C   0  0  0  0  0  1  0  0  0  0  0  0
  189.3500  177.0500  142.8170 C   0  0  0  0  0  2  0  0  0  0  0  0
  190.3800  175.2380  146.9750 C   0  0  1  0  0  3  0  0  0  0  0  0
  191.4550  176.9400  148.4490 C   0  0  0  0  0  1  0  0  0  0  0  0
  191.4580  175.4850  148.0220 C   0  0  0  0  0  2  0  0  0  0  0  0
  189.4400  176.2760  146.9890 O   0  0  0  0  0  0  0  0  0  0  0  0
  188.2240  175.6720  146.6630 C   0  0  0  0  0  2  0  0  0  0  0  0
  187.2580  176.6960  146.2630 C   0  0  0  0  0  0  0  0  0  0  0  0
  186.4630  177.5430  145.9380 C   0  0  0  0  0  0  0  0  0  0  0  0
  184.3120  178.5370  146.4940 C   0  0  0  0  0  1  0  0  0  0  0  0
  185.4970  178.5740  145.5480 C   0  0  2  0  0  3  0  0  0  0  0  0
  185.5680  179.4040  143.4980 C   0  0  0  0  0  1  0  0  0  0  0  0
  185.0610  178.3370  144.2440 O   0  0  0  0  0  0  0  0  0  0  0  0
  1 27  1  6  0  0  0
  1  2  1  0  0  0  0
  2  8  1  0  0  0  0
  3  9  2  0  0  0  0
  3  7  1  0  0  0  0
  4  1  1  0  0  0  0
  5  4  1  0  0  0  0
  6  7  1  0  0  0  0
  6 10  1  0  0  0  0
  7  5  1  0  0  0  0
 10 11  1  0  0  0  0
 11  2  1  0  0  0  0
 12  3  1  0  0  0  0
 13 14  1  0  0  0  0
 13 15  2  0  0  0  0
 14 17  1  0  0  0  0
 15 16  1  0  0  0  0
 16 12  2  0  0  0  0
 17 18  1  6  0  0  0
 17 12  1  0  0  0  0
 18 19  1  0  0  0  0
 20 19  1  0  0  0  0
 20 24  1  1  0  0  0
 20 21  1  0  0  0  0
 21 22  1  6  0  0  0
 21 23  1  0  0  0  0
 25 24  1  0  0  0  0
 27 26  1  6  0  0  0
 27 28  1  0  0  0  0
 28 29  1  0  0  0  0
 30 29  1  1  0  0  0
 30 39  1  0  0  0  0
 32 31  1  6  0  0  0
 32 30  1  0  0  0  0
 34 33  1  6  0  0  0
 34 32  1  0  0  0  0
 35 34  1  0  0  0  0
 36 38  1  0  0  0  0
 36 35  1  0  0  0  0
 37 38  1  0  0  0  0
 39 42  1  0  0  0  0
 39 41  1  1  0  0  0
 41 40  1  0  0  0  0
 43 42  1  0  0  0  0
 44 43  1  0  0  0  0
 45 44  3  0  0  0  0
 47 45  1  0  0  0  0
 47 46  1  1  0  0  0
 48 49  1  0  0  0  0
 49 47  1  0  0  0  0
M  END
>  <MODEL>
9

>  <REMARK>
 VINA RESULT:      -4.7      3.186      8.927
  Name = 
  22 active torsions:
  status: ('A' for Active; 'I' for Inactive)
    1  A    between atoms: C_2  and  C_35
    2  A    between atoms: C_3  and  CA_19
    3  A    between atoms: C_7  and  C_8
    4  A    between atoms: C_8  and  C_9
    5  A    between atoms: C_9  and  C_45
    6  A    between atoms: C_12  and  C_25
    7  A    between atoms: C_12  and  O_43
    8  A    between atoms: C_13  and  C_27
    9  A    between atoms: C_13  and  C_33
   10  A    between atoms: C_13  and  O_43
   11  A    between atoms: C_16  and  N_29
   12  A    between atoms: C_16  and  C_49
   13  A    between atoms: C_17  and  C_18
   14  A    between atoms: CA_19  and  CB_21
   15  A    between atoms: CA_19  and  N_29
   16  A    between atoms: C_22  and  C_33
   17  A    between atoms: C_22  and  C_41
   18  A    between atoms: C_26  and  C_39
   19  A    between atoms: C_33  and  C_45
   20  A    between atoms: C_35  and  C_47
   21  A    between atoms: C_39  and  O_46
   22  A    between atoms: C_41  and  C_47
                            x       y       z     vdW  Elec       q    Type
                         _______ _______ _______ _____ _____    ______ ____

>  <TORSDO>
F 22

$$$$
