=
 OpenBabel11062422503D

 46 48  0  0  1  0  0  0  0  0999 V2000
  184.1750  178.0720  144.9120 O   0  0  0  0  0  1  0  0  0  0  0  0
  185.4510  178.4510  144.4900 C   0  0  2  0  0  0  0  0  0  0  0  0
  185.9080  176.7420  142.8790 C   0  0  2  0  0  3  0  0  0  0  0  0
  185.6950  178.1920  143.0610 N   0  0  2  0  0  0  0  0  0  0  0  0
  186.3810  177.3870  144.1220 C   0  0  1  0  0  0  0  0  0  0  0  0
  187.2150  177.2980  140.9370 O   0  0  0  0  0  0  0  0  0  0  0  0
  187.6950  175.2360  141.9280 N   0  0  0  0  0  2  0  0  0  0  0  0
  186.9700  176.4670  141.8510 C   0  0  0  0  0  0  0  0  0  0  0  0
  188.7970  174.8940  141.0370 C   0  0  1  0  0  3  0  0  0  0  0  0
  189.9450  174.3020  141.8550 C   0  0  1  0  0  3  0  0  0  0  0  0
  190.8500  175.3000  142.2270 O   0  0  0  0  0  1  0  0  0  0  0  0
  188.8730  172.2560  142.7070 N   0  0  0  0  0  1  0  0  0  0  0  0
  189.4320  173.5430  143.0880 C   0  0  1  0  0  3  0  0  0  0  0  0
  190.4630  173.4050  144.2170 C   0  0  0  0  0  2  0  0  0  0  0  0
  192.2250  171.7890  143.7420 N   0  0  0  0  0  1  0  0  0  0  0  0
  190.9630  171.9800  144.4290 C   0  0  0  0  0  2  0  0  0  0  0  0
  188.3180  173.8840  140.0030 C   0  0  0  0  0  2  0  0  0  0  0  0
  189.2760  173.8130  138.9010 N   0  0  0  0  0  2  0  0  0  0  0  0
  189.5930  174.2510  136.4870 C   0  0  0  0  0  1  0  0  0  0  0  0
  188.6000  174.0010  137.6110 C   0  0  2  0  0  3  0  0  0  0  0  0
  187.4760  175.7550  136.4310 O   0  0  0  0  0  1  0  0  0  0  0  0
  187.5390  175.0950  137.6600 C   0  0  0  0  0  2  0  0  0  0  0  0
  185.7610  179.6940  146.2430 O   0  0  0  0  0  1  0  0  0  0  0  0
  185.9510  179.6850  144.9370 O   0  0  0  0  0  0  0  0  0  0  0  0
  187.8530  177.8130  144.1640 C   0  0  0  0  0  2  0  0  0  0  0  0
  189.1400  175.5800  146.9790 C   0  0  0  0  0  3  0  0  0  0  0  0
  190.2930  176.2560  146.4110 N   0  0  0  0  0  0  0  0  0  0  0  0
  187.9630  176.0640  146.1310 C   0  0  0  0  0  3  0  0  0  0  0  0
  189.8970  177.1150  145.3590 C   0  0  0  0  0  3  0  0  0  0  0  0
  188.5980  177.0300  145.1860 C   0  0  0  0  0  0  0  0  0  0  0  0
  192.1950  174.7310  147.4370 O   0  0  0  0  0  0  0  0  0  0  0  0
  192.0100  177.0250  148.2590 O   0  0  0  0  0  0  0  0  0  0  0  0
  191.9040  176.1500  147.0380 S   0  0  0  0  0  0  0  0  0  0  0  0
  194.3260  177.2470  146.4370 C   0  0  0  0  0  1  0  0  0  0  0  0
  193.0640  176.7120  145.7870 C   0  0  1  0  0  3  0  0  0  0  0  0
  193.4450  175.5950  144.8220 C   0  0  0  0  0  2  0  0  0  0  0  0
  194.9560  175.5190  144.5730 C   0  0  1  0  0  3  0  0  0  0  0  0
  195.5550  174.1450  144.8970 C   0  0  0  0  0  3  0  0  0  0  0  0
  196.6800  174.2770  145.7110 O   0  0  0  0  0  1  0  0  0  0  0  0
  194.6180  173.3130  145.5180 O   0  0  0  0  0  1  0  0  0  0  0  0
  195.3110  175.9230  143.1610 C   0  0  0  0  0  0  0  0  0  0  0  0
  196.8230  176.4570  142.8060 S   0  0  0  0  0  0  0  0  0  0  0  0
  194.3430  175.9770  142.1460 O   0  0  0  0  0  0  0  0  0  0  0  0
  194.0740  175.3840  139.9450 O   0  0  0  0  0  0  0  0  0  0  0  0
  194.1890  173.6220  141.4460 N   0  0  0  0  0  1  0  0  0  0  0  0
  194.1680  175.0150  141.1450 C   0  0  0  0  0  0  0  0  0  0  0  0
  2  1  1  1  0  0  0
  2 24  1  0  0  0  0
  3  8  1  6  0  0  0
  3  4  1  0  0  0  0
  3  5  1  0  0  0  0
  4  5  1  0  0  0  0
  4  2  1  0  0  0  0
  5 25  1  0  0  0  0
  5  2  1  0  0  0  0
  6  8  2  0  0  0  0
  8  7  1  0  0  0  0
  9 10  1  0  0  0  0
  9  7  1  0  0  0  0
 10 11  1  0  0  0  0
 10 13  1  0  0  0  0
 12 13  1  0  0  0  0
 13 14  1  0  0  0  0
 14 16  1  0  0  0  0
 15 16  1  0  0  0  0
 17  9  1  0  0  0  0
 18 17  1  0  0  0  0
 19 20  1  0  0  0  0
 20 22  1  0  0  0  0
 20 18  1  0  0  0  0
 21 22  1  0  0  0  0
 24 23  1  0  0  0  0
 25 30  1  0  0  0  0
 27 26  1  0  0  0  0
 27 33  1  0  0  0  0
 28 26  2  0  0  0  0
 29 27  1  0  0  0  0
 30 29  2  0  0  0  0
 30 28  1  0  0  0  0
 33 31  2  0  0  0  0
 33 32  2  0  0  0  0
 35 34  1  0  0  0  0
 35 33  1  0  0  0  0
 36 35  1  0  0  0  0
 37 36  1  0  0  0  0
 37 38  1  0  0  0  0
 38 40  1  0  0  0  0
 38 39  1  0  0  0  0
 41 37  1  0  0  0  0
 42 41  2  0  0  0  0
 43 41  1  0  0  0  0
 44 46  2  0  0  0  0
 46 45  1  0  0  0  0
 46 43  1  0  0  0  0
M  END
>  <MODEL>
1

>  <REMARK>
 VINA RESULT:      -5.8      0.000      0.000
  Name = 
  21 active torsions:
  status: ('A' for Active; 'I' for Inactive)
    1  A    between atoms: C_1  and  C_29
    2  A    between atoms: C_1  and  O_36
    3  A    between atoms: C_2  and  C_39
    4  A    between atoms: C_2  and  C_46
    5  A    between atoms: C_10  and  C_21
    6  A    between atoms: C_10  and  C_45
    7  A    between atoms: C_14  and  O_27
    8  A    between atoms: C_16  and  N_19
    9  A    between atoms: C_16  and  C_44
   10  A    between atoms: C_17  and  C_18
   11  A    between atoms: C_17  and  S_31
   12  A    between atoms: C_18  and  C_29
   13  A    between atoms: N_19  and  CA_38
   14  A    between atoms: C_21  and  C_44
   15  A    between atoms: C_22  and  C_40
   16  A    between atoms: N_23  and  S_31
   17  A    between atoms: C_24  and  C_29
   18  A    between atoms: C_25  and  O_36
   19  A    between atoms: N_26  and  C_44
   20  A    between atoms: C_33  and  CA_38
   21  A    between atoms: C_41  and  C_45
                            x       y       z     vdW  Elec       q    Type
                         _______ _______ _______ _____ _____    ______ ____

>  <TORSDO>
F 21

$$$$
=
 OpenBabel11062422503D

 46 48  0  0  1  0  0  0  0  0999 V2000
  190.0040  177.1650  146.4800 O   0  0  0  0  0  1  0  0  0  0  0  0
  190.7580  176.0220  146.7510 C   0  0  2  0  0  0  0  0  0  0  0  0
  192.8170  176.5860  145.6710 C   0  0  2  0  0  3  0  0  0  0  0  0
  192.1870  176.3040  146.9760 N   0  0  2  0  0  0  0  0  0  0  0  0
  191.7220  175.5960  145.7390 C   0  0  1  0  0  0  0  0  0  0  0  0
  194.9190  175.9070  146.6250 O   0  0  0  0  0  0  0  0  0  0  0  0
  194.6980  175.5840  144.3210 N   0  0  0  0  0  2  0  0  0  0  0  0
  194.2040  176.0090  145.5940 C   0  0  0  0  0  0  0  0  0  0  0  0
  195.9930  174.9390  144.1350 C   0  0  1  0  0  3  0  0  0  0  0  0
  195.7860  173.4370  143.9350 C   0  0  1  0  0  3  0  0  0  0  0  0
  196.2220  173.0450  142.6660 O   0  0  0  0  0  1  0  0  0  0  0  0
  197.1410  173.4880  145.9890 N   0  0  0  0  0  1  0  0  0  0  0  0
  196.4850  172.6160  145.0290 C   0  0  1  0  0  3  0  0  0  0  0  0
  195.5810  171.5850  145.7190 C   0  0  0  0  0  2  0  0  0  0  0  0
  196.1470  169.4900  144.6090 N   0  0  0  0  0  1  0  0  0  0  0  0
  196.2150  170.2070  145.8670 C   0  0  0  0  0  2  0  0  0  0  0  0
  196.6850  175.5360  142.9180 C   0  0  0  0  0  2  0  0  0  0  0  0
  195.7930  176.4910  142.2620 N   0  0  0  0  0  2  0  0  0  0  0  0
  194.4810  175.3090  140.5310 C   0  0  0  0  0  1  0  0  0  0  0  0
  195.6780  176.1960  140.8280 C   0  0  2  0  0  3  0  0  0  0  0  0
  196.8050  175.3850  138.8770 O   0  0  0  0  0  1  0  0  0  0  0  0
  196.9580  175.6040  140.2480 C   0  0  0  0  0  2  0  0  0  0  0  0
  188.9830  174.8670  147.2280 O   0  0  0  0  0  1  0  0  0  0  0  0
  190.2200  175.0740  147.6370 O   0  0  0  0  0  0  0  0  0  0  0  0
  192.1270  174.1220  145.8540 C   0  0  0  0  0  2  0  0  0  0  0  0
  191.0990  171.6400  143.1430 C   0  0  0  0  0  3  0  0  0  0  0  0
  190.1560  172.7430  143.0910 N   0  0  0  0  0  0  0  0  0  0  0  0
  192.0300  171.9940  144.3040 C   0  0  0  0  0  3  0  0  0  0  0  0
  190.4740  173.7160  144.0670 C   0  0  0  0  0  3  0  0  0  0  0  0
  191.5220  173.3240  144.7550 C   0  0  0  0  0  0  0  0  0  0  0  0
  187.6310  172.3290  142.4180 O   0  0  0  0  0  0  0  0  0  0  0  0
  189.3190  172.1670  140.6570 O   0  0  0  0  0  0  0  0  0  0  0  0
  188.9130  172.9190  141.8980 S   0  0  0  0  0  0  0  0  0  0  0  0
  188.3010  174.8370  140.0600 C   0  0  0  0  0  1  0  0  0  0  0  0
  188.7050  174.6600  141.5110 C   0  0  1  0  0  3  0  0  0  0  0  0
  187.6520  175.3170  142.3970 C   0  0  0  0  0  2  0  0  0  0  0  0
  188.2390  176.4050  143.3050 C   0  0  1  0  0  3  0  0  0  0  0  0
  189.2740  177.2900  142.5980 C   0  0  0  0  0  3  0  0  0  0  0  0
  188.6680  178.0530  141.5990 O   0  0  0  0  0  1  0  0  0  0  0  0
  189.9290  178.1310  143.5020 O   0  0  0  0  0  1  0  0  0  0  0  0
  187.1580  177.2590  143.9250 C   0  0  0  0  0  0  0  0  0  0  0  0
  186.5750  176.9040  145.4190 S   0  0  0  0  0  0  0  0  0  0  0  0
  186.5340  178.2920  143.2070 O   0  0  0  0  0  0  0  0  0  0  0  0
  185.0230  177.7510  141.5670 O   0  0  0  0  0  0  0  0  0  0  0  0
  184.1190  178.6760  143.4900 N   0  0  0  0  0  1  0  0  0  0  0  0
  185.2290  178.2510  142.7040 C   0  0  0  0  0  0  0  0  0  0  0  0
  2  1  1  6  0  0  0
  2  4  1  0  0  0  0
  2 24  1  0  0  0  0
  3  8  1  1  0  0  0
  3  5  1  0  0  0  0
  3  4  1  0  0  0  0
  5 25  1  0  0  0  0
  5  2  1  0  0  0  0
  5  4  1  0  0  0  0
  7  8  1  0  0  0  0
  8  6  2  0  0  0  0
  9  7  1  0  0  0  0
 10  9  1  0  0  0  0
 10 13  1  0  0  0  0
 11 10  1  0  0  0  0
 13 14  1  0  0  0  0
 13 12  1  0  0  0  0
 14 16  1  0  0  0  0
 15 16  1  0  0  0  0
 17  9  1  0  0  0  0
 18 17  1  0  0  0  0
 19 20  1  0  0  0  0
 20 18  1  0  0  0  0
 21 22  1  0  0  0  0
 22 20  1  0  0  0  0
 23 24  1  0  0  0  0
 26 28  2  0  0  0  0
 27 26  1  0  0  0  0
 27 29  1  0  0  0  0
 28 30  1  0  0  0  0
 29 30  2  0  0  0  0
 30 25  1  0  0  0  0
 32 33  2  0  0  0  0
 33 31  2  0  0  0  0
 33 27  1  0  0  0  0
 34 35  1  0  0  0  0
 35 33  1  0  0  0  0
 35 36  1  0  0  0  0
 36 37  1  0  0  0  0
 37 41  1  0  0  0  0
 38 37  1  0  0  0  0
 38 40  1  0  0  0  0
 39 38  1  0  0  0  0
 41 42  2  0  0  0  0
 43 41  1  0  0  0  0
 44 46  2  0  0  0  0
 46 43  1  0  0  0  0
 46 45  1  0  0  0  0
M  END
>  <MODEL>
2

>  <REMARK>
 VINA RESULT:      -5.4      2.785      7.577
  Name = 
  21 active torsions:
  status: ('A' for Active; 'I' for Inactive)
    1  A    between atoms: C_1  and  C_29
    2  A    between atoms: C_1  and  O_36
    3  A    between atoms: C_2  and  C_39
    4  A    between atoms: C_2  and  C_46
    5  A    between atoms: C_10  and  C_21
    6  A    between atoms: C_10  and  C_45
    7  A    between atoms: C_14  and  O_27
    8  A    between atoms: C_16  and  N_19
    9  A    between atoms: C_16  and  C_44
   10  A    between atoms: C_17  and  C_18
   11  A    between atoms: C_17  and  S_31
   12  A    between atoms: C_18  and  C_29
   13  A    between atoms: N_19  and  CA_38
   14  A    between atoms: C_21  and  C_44
   15  A    between atoms: C_22  and  C_40
   16  A    between atoms: N_23  and  S_31
   17  A    between atoms: C_24  and  C_29
   18  A    between atoms: C_25  and  O_36
   19  A    between atoms: N_26  and  C_44
   20  A    between atoms: C_33  and  CA_38
   21  A    between atoms: C_41  and  C_45
                            x       y       z     vdW  Elec       q    Type
                         _______ _______ _______ _____ _____    ______ ____

>  <TORSDO>
F 21

$$$$
=
 OpenBabel11062422503D

 46 48  0  0  1  0  0  0  0  0999 V2000
  191.2590  172.2890  138.9160 O   0  0  0  0  0  1  0  0  0  0  0  0
  190.5230  171.8720  140.0270 C   0  0  2  0  0  0  0  0  0  0  0  0
  189.5740  173.9510  140.7330 C   0  0  2  0  0  3  0  0  0  0  0  0
  189.2600  172.6090  140.2020 N   0  0  2  0  0  0  0  0  0  0  0  0
  190.4080  172.8030  141.1460 C   0  0  1  0  0  0  0  0  0  0  0  0
  187.4460  173.7990  141.8460 O   0  0  0  0  0  0  0  0  0  0  0  0
  188.8500  175.5230  142.5680 N   0  0  0  0  0  2  0  0  0  0  0  0
  188.5490  174.3980  141.7390 C   0  0  0  0  0  0  0  0  0  0  0  0
  187.9700  175.9990  143.6300 C   0  0  1  0  0  3  0  0  0  0  0  0
  188.8120  176.4350  144.8280 C   0  0  1  0  0  3  0  0  0  0  0  0
  189.1740  177.7810  144.7120 O   0  0  0  0  0  1  0  0  0  0  0  0
  188.7910  175.1830  146.9480 N   0  0  0  0  0  1  0  0  0  0  0  0
  188.0860  176.1790  146.1580 C   0  0  1  0  0  3  0  0  0  0  0  0
  187.7920  177.4480  146.9700 C   0  0  0  0  0  2  0  0  0  0  0  0
  185.5010  176.7760  146.4740 N   0  0  0  0  0  1  0  0  0  0  0  0
  186.3170  177.6390  147.3060 C   0  0  0  0  0  2  0  0  0  0  0  0
  187.1460  177.1720  143.1170 C   0  0  0  0  0  2  0  0  0  0  0  0
  185.7530  176.7610  142.9500 N   0  0  0  0  0  2  0  0  0  0  0  0
  184.7840  178.1700  141.1630 C   0  0  0  0  0  1  0  0  0  0  0  0
  184.9000  177.9200  142.6570 C   0  0  2  0  0  3  0  0  0  0  0  0
  184.5540  179.3830  144.5210 O   0  0  0  0  0  1  0  0  0  0  0  0
  185.3500  179.1780  143.3910 C   0  0  0  0  0  2  0  0  0  0  0  0
  191.1060  169.9110  139.3000 O   0  0  0  0  0  1  0  0  0  0  0  0
  190.4120  170.4910  140.2600 O   0  0  0  0  0  0  0  0  0  0  0  0
  190.0500  172.1290  142.4750 C   0  0  0  0  0  2  0  0  0  0  0  0
  192.5150  173.1750  145.1950 C   0  0  0  0  0  3  0  0  0  0  0  0
  193.0370  171.9620  144.5910 N   0  0  0  0  0  0  0  0  0  0  0  0
  191.1920  173.4210  144.4670 C   0  0  0  0  0  3  0  0  0  0  0  0
  192.1780  171.5100  143.5620 C   0  0  0  0  0  3  0  0  0  0  0  0
  191.1420  172.3120  143.4680 C   0  0  0  0  0  0  0  0  0  0  0  0
  194.9890  170.3360  143.8560 O   0  0  0  0  0  0  0  0  0  0  0  0
  194.4380  170.4490  146.2350 O   0  0  0  0  0  0  0  0  0  0  0  0
  194.5720  171.2560  144.9700 S   0  0  0  0  0  0  0  0  0  0  0  0
  197.0440  172.0050  145.8400 C   0  0  0  0  0  1  0  0  0  0  0  0
  195.7820  172.5610  145.2080 C   0  0  1  0  0  3  0  0  0  0  0  0
  196.1490  173.2420  143.8940 C   0  0  0  0  0  2  0  0  0  0  0  0
  196.0540  174.7700  143.9740 C   0  0  1  0  0  3  0  0  0  0  0  0
  197.2960  175.4840  143.4270 C   0  0  0  0  0  3  0  0  0  0  0  0
  197.6570  174.9610  142.1840 O   0  0  0  0  0  1  0  0  0  0  0  0
  197.0850  176.8620  143.3160 O   0  0  0  0  0  1  0  0  0  0  0  0
  194.8100  175.2890  143.2910 C   0  0  0  0  0  0  0  0  0  0  0  0
  194.1870  174.5020  141.9910 S   0  0  0  0  0  0  0  0  0  0  0  0
  194.2250  176.5120  143.6580 O   0  0  0  0  0  0  0  0  0  0  0  0
  192.0060  176.7760  143.1350 O   0  0  0  0  0  0  0  0  0  0  0  0
  192.4920  176.6730  145.3980 N   0  0  0  0  0  1  0  0  0  0  0  0
  192.8870  176.6880  144.0300 C   0  0  0  0  0  0  0  0  0  0  0  0
  2  1  1  6  0  0  0
  2  4  1  0  0  0  0
  2 24  1  0  0  0  0
  2  5  1  0  0  0  0
  3  5  1  0  0  0  0
  3  8  1  1  0  0  0
  4  3  1  0  0  0  0
  4  5  1  0  0  0  0
  5 25  1  0  0  0  0
  7  9  1  0  0  0  0
  8  6  2  0  0  0  0
  8  7  1  0  0  0  0
  9 10  1  0  0  0  0
 10 13  1  0  0  0  0
 11 10  1  0  0  0  0
 13 12  1  0  0  0  0
 13 14  1  0  0  0  0
 14 16  1  0  0  0  0
 15 16  1  0  0  0  0
 17  9  1  0  0  0  0
 18 17  1  0  0  0  0
 19 20  1  0  0  0  0
 20 18  1  0  0  0  0
 20 22  1  0  0  0  0
 22 21  1  0  0  0  0
 23 24  1  0  0  0  0
 25 30  1  0  0  0  0
 27 33  1  0  0  0  0
 27 26  1  0  0  0  0
 28 26  2  0  0  0  0
 29 27  1  0  0  0  0
 30 29  2  0  0  0  0
 30 28  1  0  0  0  0
 31 33  2  0  0  0  0
 33 35  1  0  0  0  0
 33 32  2  0  0  0  0
 35 34  1  0  0  0  0
 36 37  1  0  0  0  0
 36 35  1  0  0  0  0
 38 37  1  0  0  0  0
 39 38  1  0  0  0  0
 40 38  1  0  0  0  0
 41 43  1  0  0  0  0
 41 37  1  0  0  0  0
 42 41  2  0  0  0  0
 43 46  1  0  0  0  0
 44 46  2  0  0  0  0
 46 45  1  0  0  0  0
M  END
>  <MODEL>
3

>  <REMARK>
 VINA RESULT:      -5.4      2.606      6.122
  Name = 
  21 active torsions:
  status: ('A' for Active; 'I' for Inactive)
    1  A    between atoms: C_1  and  C_29
    2  A    between atoms: C_1  and  O_36
    3  A    between atoms: C_2  and  C_39
    4  A    between atoms: C_2  and  C_46
    5  A    between atoms: C_10  and  C_21
    6  A    between atoms: C_10  and  C_45
    7  A    between atoms: C_14  and  O_27
    8  A    between atoms: C_16  and  N_19
    9  A    between atoms: C_16  and  C_44
   10  A    between atoms: C_17  and  C_18
   11  A    between atoms: C_17  and  S_31
   12  A    between atoms: C_18  and  C_29
   13  A    between atoms: N_19  and  CA_38
   14  A    between atoms: C_21  and  C_44
   15  A    between atoms: C_22  and  C_40
   16  A    between atoms: N_23  and  S_31
   17  A    between atoms: C_24  and  C_29
   18  A    between atoms: C_25  and  O_36
   19  A    between atoms: N_26  and  C_44
   20  A    between atoms: C_33  and  CA_38
   21  A    between atoms: C_41  and  C_45
                            x       y       z     vdW  Elec       q    Type
                         _______ _______ _______ _____ _____    ______ ____

>  <TORSDO>
F 21

$$$$
=
 OpenBabel11062422503D

 46 48  0  0  1  0  0  0  0  0999 V2000
  195.7270  177.0380  144.1090 O   0  0  0  0  0  1  0  0  0  0  0  0
  194.6650  176.2050  144.4660 C   0  0  2  0  0  0  0  0  0  0  0  0
  194.3750  174.9670  142.4400 C   0  0  2  0  0  3  0  0  0  0  0  0
  194.7470  174.8630  143.8650 N   0  0  2  0  0  0  0  0  0  0  0  0
  193.7090  175.8490  143.4210 C   0  0  1  0  0  0  0  0  0  0  0  0
  193.6570  172.6760  142.5960 O   0  0  0  0  0  0  0  0  0  0  0  0
  192.7090  173.9210  140.8600 N   0  0  0  0  0  2  0  0  0  0  0  0
  193.5710  173.7780  141.9920 C   0  0  0  0  0  0  0  0  0  0  0  0
  191.8250  172.8640  140.3830 C   0  0  1  0  0  3  0  0  0  0  0  0
  190.3930  173.1620  140.8260 C   0  0  1  0  0  3  0  0  0  0  0  0
  189.6190  173.5840  139.7400 O   0  0  0  0  0  1  0  0  0  0  0  0
  190.7470  170.9500  141.8450 N   0  0  0  0  0  1  0  0  0  0  0  0
  189.7470  171.9530  141.5190 C   0  0  1  0  0  3  0  0  0  0  0  0
  188.8790  172.3110  142.7340 C   0  0  0  0  0  2  0  0  0  0  0  0
  189.9200  172.8200  144.8780 N   0  0  0  0  0  1  0  0  0  0  0  0
  189.3980  171.7490  144.0520 C   0  0  0  0  0  2  0  0  0  0  0  0
  191.8960  172.7920  138.8640 C   0  0  0  0  0  2  0  0  0  0  0  0
  192.8460  173.7860  138.3670 N   0  0  0  0  0  2  0  0  0  0  0  0
  191.2680  173.7760  136.4620 C   0  0  0  0  0  1  0  0  0  0  0  0
  192.2450  174.5890  137.2940 C   0  0  2  0  0  3  0  0  0  0  0  0
  193.0450  176.6370  136.3450 O   0  0  0  0  0  1  0  0  0  0  0  0
  193.2900  175.2630  136.4130 C   0  0  0  0  0  2  0  0  0  0  0  0
  194.5250  177.4090  146.2670 O   0  0  0  0  0  1  0  0  0  0  0  0
  194.2560  176.2010  145.8100 O   0  0  0  0  0  0  0  0  0  0  0  0
  192.3510  175.3850  143.9600 C   0  0  0  0  0  2  0  0  0  0  0  0
  189.9170  177.9800  142.5790 C   0  0  0  0  0  3  0  0  0  0  0  0
  189.2790  176.6830  142.4430 N   0  0  0  0  0  0  0  0  0  0  0  0
  191.2900  177.6650  143.1760 C   0  0  0  0  0  3  0  0  0  0  0  0
  190.1190  175.6610  142.9420 C   0  0  0  0  0  3  0  0  0  0  0  0
  191.2480  176.1840  143.3640 C   0  0  0  0  0  0  0  0  0  0  0  0
  187.0410  175.2850  142.6390 O   0  0  0  0  0  0  0  0  0  0  0  0
  187.6830  176.1010  140.4260 O   0  0  0  0  0  0  0  0  0  0  0  0
  187.6550  176.4380  141.8940 S   0  0  0  0  0  0  0  0  0  0  0  0
  185.7910  178.2010  140.9720 C   0  0  0  0  0  1  0  0  0  0  0  0
  186.7080  177.9420  142.1520 C   0  0  1  0  0  3  0  0  0  0  0  0
  185.8670  177.8720  143.4220 C   0  0  0  0  0  2  0  0  0  0  0  0
  186.5360  178.5680  144.6130 C   0  0  1  0  0  3  0  0  0  0  0  0
  185.5680  179.4280  145.4350 C   0  0  0  0  0  3  0  0  0  0  0  0
  184.2480  179.0300  145.2160 O   0  0  0  0  0  1  0  0  0  0  0  0
  185.8600  179.3630  146.8000 O   0  0  0  0  0  1  0  0  0  0  0  0
  187.2470  177.5810  145.5100 C   0  0  0  0  0  0  0  0  0  0  0  0
  186.3880  176.5980  146.5070 S   0  0  0  0  0  0  0  0  0  0  0  0
  188.6470  177.5580  145.6140 O   0  0  0  0  0  0  0  0  0  0  0  0
  189.5680  178.0020  147.6680 O   0  0  0  0  0  0  0  0  0  0  0  0
  189.7870  175.8170  146.9290 N   0  0  0  0  0  1  0  0  0  0  0  0
  189.3650  177.1660  146.7500 C   0  0  0  0  0  0  0  0  0  0  0  0
  2  1  1  6  0  0  0
  2 24  1  0  0  0  0
  3  8  1  1  0  0  0
  3  5  1  0  0  0  0
  3  4  1  0  0  0  0
  4  2  1  0  0  0  0
  5  4  1  0  0  0  0
  5 25  1  0  0  0  0
  5  2  1  0  0  0  0
  7  8  1  0  0  0  0
  8  6  2  0  0  0  0
  9 10  1  0  0  0  0
  9  7  1  0  0  0  0
 10 13  1  0  0  0  0
 11 10  1  0  0  0  0
 13 12  1  0  0  0  0
 13 14  1  0  0  0  0
 14 16  1  0  0  0  0
 16 15  1  0  0  0  0
 17  9  1  0  0  0  0
 18 17  1  0  0  0  0
 19 20  1  0  0  0  0
 20 18  1  0  0  0  0
 21 22  1  0  0  0  0
 22 20  1  0  0  0  0
 24 23  1  0  0  0  0
 26 28  2  0  0  0  0
 27 26  1  0  0  0  0
 27 29  1  0  0  0  0
 28 30  1  0  0  0  0
 29 30  2  0  0  0  0
 30 25  1  0  0  0  0
 32 33  2  0  0  0  0
 33 35  1  0  0  0  0
 33 27  1  0  0  0  0
 33 31  2  0  0  0  0
 34 35  1  0  0  0  0
 35 36  1  0  0  0  0
 36 37  1  0  0  0  0
 37 38  1  0  0  0  0
 37 41  1  0  0  0  0
 38 40  1  0  0  0  0
 39 38  1  0  0  0  0
 41 43  1  0  0  0  0
 41 42  2  0  0  0  0
 43 46  1  0  0  0  0
 46 45  1  0  0  0  0
 46 44  2  0  0  0  0
M  END
>  <MODEL>
4

>  <REMARK>
 VINA RESULT:      -5.3      2.739      7.188
  Name = 
  21 active torsions:
  status: ('A' for Active; 'I' for Inactive)
    1  A    between atoms: C_1  and  C_29
    2  A    between atoms: C_1  and  O_36
    3  A    between atoms: C_2  and  C_39
    4  A    between atoms: C_2  and  C_46
    5  A    between atoms: C_10  and  C_21
    6  A    between atoms: C_10  and  C_45
    7  A    between atoms: C_14  and  O_27
    8  A    between atoms: C_16  and  N_19
    9  A    between atoms: C_16  and  C_44
   10  A    between atoms: C_17  and  C_18
   11  A    between atoms: C_17  and  S_31
   12  A    between atoms: C_18  and  C_29
   13  A    between atoms: N_19  and  CA_38
   14  A    between atoms: C_21  and  C_44
   15  A    between atoms: C_22  and  C_40
   16  A    between atoms: N_23  and  S_31
   17  A    between atoms: C_24  and  C_29
   18  A    between atoms: C_25  and  O_36
   19  A    between atoms: N_26  and  C_44
   20  A    between atoms: C_33  and  CA_38
   21  A    between atoms: C_41  and  C_45
                            x       y       z     vdW  Elec       q    Type
                         _______ _______ _______ _____ _____    ______ ____

>  <TORSDO>
F 21

$$$$
=
 OpenBabel11062422503D

 46 48  0  0  1  0  0  0  0  0999 V2000
  193.6940  174.5570  146.3620 O   0  0  0  0  0  1  0  0  0  0  0  0
  193.2280  175.0950  145.1620 C   0  0  2  0  0  0  0  0  0  0  0  0
  191.0900  175.9190  145.8480 C   0  0  2  0  0  3  0  0  0  0  0  0
  192.4190  176.3130  145.3420 N   0  0  2  0  0  0  0  0  0  0  0  0
  191.7920  175.0240  144.9050 C   0  0  1  0  0  0  0  0  0  0  0  0
  190.2060  177.9680  144.9500 O   0  0  0  0  0  0  0  0  0  0  0  0
  188.7180  176.1670  145.0230 N   0  0  0  0  0  2  0  0  0  0  0  0
  189.9990  176.7620  145.2460 C   0  0  0  0  0  0  0  0  0  0  0  0
  187.6110  176.8600  144.3750 C   0  0  1  0  0  3  0  0  0  0  0  0
  187.6160  176.5380  142.8810 C   0  0  1  0  0  3  0  0  0  0  0  0
  186.6230  175.6020  142.5750 O   0  0  0  0  0  1  0  0  0  0  0  0
  188.7520  178.3630  141.6820 N   0  0  0  0  0  1  0  0  0  0  0  0
  187.4550  177.8030  142.0250 C   0  0  1  0  0  3  0  0  0  0  0  0
  186.5670  177.6180  140.7870 C   0  0  0  0  0  2  0  0  0  0  0  0
  184.9780  178.7030  142.2840 N   0  0  0  0  0  1  0  0  0  0  0  0
  185.1660  178.2010  140.9370 C   0  0  0  0  0  2  0  0  0  0  0  0
  186.2970  176.4100  145.0000 C   0  0  0  0  0  2  0  0  0  0  0  0
  186.2380  176.8500  146.3930 N   0  0  0  0  0  2  0  0  0  0  0  0
  186.6000  178.7930  147.8810 C   0  0  0  0  0  1  0  0  0  0  0  0
  186.2650  178.3160  146.4780 C   0  0  2  0  0  3  0  0  0  0  0  0
  183.8710  178.3060  146.5320 O   0  0  0  0  0  1  0  0  0  0  0  0
  184.9750  178.9550  145.9740 C   0  0  0  0  0  2  0  0  0  0  0  0
  195.0150  176.0750  144.4140 O   0  0  0  0  0  1  0  0  0  0  0  0
  194.1230  175.1620  144.0810 O   0  0  0  0  0  0  0  0  0  0  0  0
  191.4230  175.1530  143.4230 C   0  0  0  0  0  2  0  0  0  0  0  0
  189.5850  171.9410  142.4910 C   0  0  0  0  0  3  0  0  0  0  0  0
  190.8330  171.9470  141.7500 N   0  0  0  0  0  0  0  0  0  0  0  0
  189.5950  173.2630  143.2590 C   0  0  0  0  0  3  0  0  0  0  0  0
  191.5820  173.1100  142.0470 C   0  0  0  0  0  3  0  0  0  0  0  0
  190.9140  173.8600  142.8940 C   0  0  0  0  0  0  0  0  0  0  0  0
  190.6950  169.3720  141.1570 O   0  0  0  0  0  0  0  0  0  0  0  0
  192.8770  170.4610  140.9950 O   0  0  0  0  0  0  0  0  0  0  0  0
  191.3990  170.6410  140.7640 S   0  0  0  0  0  0  0  0  0  0  0  0
  190.0630  170.0870  138.4530 C   0  0  0  0  0  1  0  0  0  0  0  0
  191.0990  171.0290  139.0360 C   0  0  1  0  0  3  0  0  0  0  0  0
  190.6170  172.4630  138.8520 C   0  0  0  0  0  2  0  0  0  0  0  0
  189.6520  172.6150  137.6690 C   0  0  1  0  0  3  0  0  0  0  0  0
  188.2560  173.0960  138.0840 C   0  0  0  0  0  3  0  0  0  0  0  0
  187.9430  172.6510  139.3690 O   0  0  0  0  0  1  0  0  0  0  0  0
  188.1600  174.4900  138.0320 O   0  0  0  0  0  1  0  0  0  0  0  0
  190.2190  173.5180  136.5980 C   0  0  0  0  0  0  0  0  0  0  0  0
  189.8210  173.2860  135.0210 S   0  0  0  0  0  0  0  0  0  0  0  0
  191.1880  174.4900  136.8920 O   0  0  0  0  0  0  0  0  0  0  0  0
  193.0580  173.2510  136.4080 O   0  0  0  0  0  0  0  0  0  0  0  0
  193.3520  175.5490  136.3850 N   0  0  0  0  0  1  0  0  0  0  0  0
  192.5510  174.3890  136.5880 C   0  0  0  0  0  0  0  0  0  0  0  0
  2  4  1  0  0  0  0
  2  1  1  1  0  0  0
  3  8  1  6  0  0  0
  4  3  1  0  0  0  0
  5  2  1  0  0  0  0
  5  4  1  0  0  0  0
  5  3  1  0  0  0  0
  6  8  2  0  0  0  0
  7  8  1  0  0  0  0
  9 17  1  0  0  0  0
  9  7  1  0  0  0  0
 10  9  1  0  0  0  0
 11 10  1  0  0  0  0
 12 13  1  0  0  0  0
 13 10  1  0  0  0  0
 14 16  1  0  0  0  0
 14 13  1  0  0  0  0
 16 15  1  0  0  0  0
 17 18  1  0  0  0  0
 18 20  1  0  0  0  0
 20 19  1  0  0  0  0
 22 20  1  0  0  0  0
 22 21  1  0  0  0  0
 24 23  1  0  0  0  0
 24  2  1  0  0  0  0
 25  5  1  0  0  0  0
 26 28  2  0  0  0  0
 27 29  1  0  0  0  0
 27 26  1  0  0  0  0
 29 30  2  0  0  0  0
 30 28  1  0  0  0  0
 30 25  1  0  0  0  0
 33 32  2  0  0  0  0
 33 31  2  0  0  0  0
 33 27  1  0  0  0  0
 34 35  1  0  0  0  0
 35 33  1  0  0  0  0
 36 35  1  0  0  0  0
 37 38  1  0  0  0  0
 37 36  1  0  0  0  0
 38 39  1  0  0  0  0
 40 38  1  0  0  0  0
 41 43  1  0  0  0  0
 41 37  1  0  0  0  0
 42 41  2  0  0  0  0
 44 46  2  0  0  0  0
 45 46  1  0  0  0  0
 46 43  1  0  0  0  0
M  END
>  <MODEL>
5

>  <REMARK>
 VINA RESULT:      -5.0      3.371      7.875
  Name = 
  21 active torsions:
  status: ('A' for Active; 'I' for Inactive)
    1  A    between atoms: C_1  and  C_29
    2  A    between atoms: C_1  and  O_36
    3  A    between atoms: C_2  and  C_39
    4  A    between atoms: C_2  and  C_46
    5  A    between atoms: C_10  and  C_21
    6  A    between atoms: C_10  and  C_45
    7  A    between atoms: C_14  and  O_27
    8  A    between atoms: C_16  and  N_19
    9  A    between atoms: C_16  and  C_44
   10  A    between atoms: C_17  and  C_18
   11  A    between atoms: C_17  and  S_31
   12  A    between atoms: C_18  and  C_29
   13  A    between atoms: N_19  and  CA_38
   14  A    between atoms: C_21  and  C_44
   15  A    between atoms: C_22  and  C_40
   16  A    between atoms: N_23  and  S_31
   17  A    between atoms: C_24  and  C_29
   18  A    between atoms: C_25  and  O_36
   19  A    between atoms: N_26  and  C_44
   20  A    between atoms: C_33  and  CA_38
   21  A    between atoms: C_41  and  C_45
                            x       y       z     vdW  Elec       q    Type
                         _______ _______ _______ _____ _____    ______ ____

>  <TORSDO>
F 21

$$$$
=
 OpenBabel11062422503D

 46 48  0  0  1  0  0  0  0  0999 V2000
  195.8000  176.7990  143.6630 O   0  0  0  0  0  1  0  0  0  0  0  0
  194.7690  176.0440  144.2240 C   0  0  2  0  0  0  0  0  0  0  0  0
  194.4060  174.4360  142.4900 C   0  0  2  0  0  3  0  0  0  0  0  0
  194.8440  174.6120  143.8890 N   0  0  2  0  0  0  0  0  0  0  0  0
  193.7720  175.4860  143.3140 C   0  0  1  0  0  0  0  0  0  0  0  0
  193.5920  172.2910  143.2140 O   0  0  0  0  0  0  0  0  0  0  0  0
  192.8520  173.0030  141.1140 N   0  0  0  0  0  2  0  0  0  0  0  0
  193.6020  173.1770  142.3190 C   0  0  0  0  0  0  0  0  0  0  0  0
  191.9750  171.8630  140.8690 C   0  0  1  0  0  3  0  0  0  0  0  0
  190.7270  172.3360  140.1240 C   0  0  1  0  0  3  0  0  0  0  0  0
  190.6390  173.7310  140.1460 O   0  0  0  0  0  1  0  0  0  0  0  0
  189.5300  170.9630  138.4680 N   0  0  0  0  0  1  0  0  0  0  0  0
  190.6920  171.8100  138.6810 C   0  0  1  0  0  3  0  0  0  0  0  0
  190.8070  172.9020  137.6080 C   0  0  0  0  0  2  0  0  0  0  0  0
  192.4360  172.0860  135.9890 N   0  0  0  0  0  1  0  0  0  0  0  0
  192.2110  173.0620  137.0360 C   0  0  0  0  0  2  0  0  0  0  0  0
  192.7160  170.8240  140.0390 C   0  0  0  0  0  2  0  0  0  0  0  0
  194.0350  171.3350  139.6710 N   0  0  0  0  0  2  0  0  0  0  0  0
  194.9200  169.1430  138.9430 C   0  0  0  0  0  1  0  0  0  0  0  0
  194.5930  170.5740  138.5460 C   0  0  2  0  0  3  0  0  0  0  0  0
  195.7590  171.1240  136.5280 O   0  0  0  0  0  1  0  0  0  0  0  0
  195.8010  171.2590  137.9180 C   0  0  0  0  0  2  0  0  0  0  0  0
  194.6000  177.5930  145.7370 O   0  0  0  0  0  1  0  0  0  0  0  0
  194.4220  176.2970  145.5620 O   0  0  0  0  0  0  0  0  0  0  0  0
  192.4470  175.1260  143.9960 C   0  0  0  0  0  2  0  0  0  0  0  0
  189.9430  177.6890  142.6830 C   0  0  0  0  0  3  0  0  0  0  0  0
  189.3570  176.3770  142.4750 N   0  0  0  0  0  0  0  0  0  0  0  0
  191.3150  177.3980  143.2930 C   0  0  0  0  0  3  0  0  0  0  0  0
  190.2260  175.3640  142.9450 C   0  0  0  0  0  3  0  0  0  0  0  0
  191.3260  175.9100  143.4140 C   0  0  0  0  0  0  0  0  0  0  0  0
  187.1910  174.8590  142.5230 O   0  0  0  0  0  0  0  0  0  0  0  0
  187.8170  175.8810  140.3930 O   0  0  0  0  0  0  0  0  0  0  0  0
  187.7550  176.0960  141.8830 S   0  0  0  0  0  0  0  0  0  0  0  0
  185.8370  177.8520  141.0630 C   0  0  0  0  0  1  0  0  0  0  0  0
  186.7300  177.5260  142.2450 C   0  0  1  0  0  3  0  0  0  0  0  0
  185.8550  177.3010  143.4740 C   0  0  0  0  0  2  0  0  0  0  0  0
  186.2320  178.2200  144.6420 C   0  0  1  0  0  3  0  0  0  0  0  0
  185.2020  179.3280  144.8970 C   0  0  0  0  0  3  0  0  0  0  0  0
  185.5260  180.4770  144.1740 O   0  0  0  0  0  1  0  0  0  0  0  0
  183.9100  178.9110  144.5670 O   0  0  0  0  0  1  0  0  0  0  0  0
  186.4800  177.4370  145.9110 C   0  0  0  0  0  0  0  0  0  0  0  0
  185.9740  178.0220  147.3600 S   0  0  0  0  0  0  0  0  0  0  0  0
  187.2510  176.2640  145.9120 O   0  0  0  0  0  0  0  0  0  0  0  0
  189.1560  175.0660  146.3630 O   0  0  0  0  0  0  0  0  0  0  0  0
  189.4170  177.3680  146.3050 N   0  0  0  0  0  1  0  0  0  0  0  0
  188.6130  176.1940  146.2280 C   0  0  0  0  0  0  0  0  0  0  0  0
  2  1  1  6  0  0  0
  2 24  1  0  0  0  0
  3  8  1  1  0  0  0
  3  5  1  0  0  0  0
  3  4  1  0  0  0  0
  4  2  1  0  0  0  0
  5  4  1  0  0  0  0
  5 25  1  0  0  0  0
  5  2  1  0  0  0  0
  7  8  1  0  0  0  0
  8  6  2  0  0  0  0
  9  7  1  0  0  0  0
 10 11  1  0  0  0  0
 10  9  1  0  0  0  0
 12 13  1  0  0  0  0
 13 10  1  0  0  0  0
 14 13  1  0  0  0  0
 15 16  1  0  0  0  0
 16 14  1  0  0  0  0
 17  9  1  0  0  0  0
 18 17  1  0  0  0  0
 20 19  1  0  0  0  0
 20 18  1  0  0  0  0
 21 22  1  0  0  0  0
 22 20  1  0  0  0  0
 24 23  1  0  0  0  0
 26 28  2  0  0  0  0
 27 26  1  0  0  0  0
 27 29  1  0  0  0  0
 28 30  1  0  0  0  0
 29 30  2  0  0  0  0
 30 25  1  0  0  0  0
 32 33  2  0  0  0  0
 33 35  1  0  0  0  0
 33 27  1  0  0  0  0
 33 31  2  0  0  0  0
 34 35  1  0  0  0  0
 35 36  1  0  0  0  0
 36 37  1  0  0  0  0
 37 38  1  0  0  0  0
 37 41  1  0  0  0  0
 39 38  1  0  0  0  0
 40 38  1  0  0  0  0
 41 43  1  0  0  0  0
 41 42  2  0  0  0  0
 43 46  1  0  0  0  0
 46 45  1  0  0  0  0
 46 44  2  0  0  0  0
M  END
>  <MODEL>
6

>  <REMARK>
 VINA RESULT:      -4.9      3.129      7.908
  Name = 
  21 active torsions:
  status: ('A' for Active; 'I' for Inactive)
    1  A    between atoms: C_1  and  C_29
    2  A    between atoms: C_1  and  O_36
    3  A    between atoms: C_2  and  C_39
    4  A    between atoms: C_2  and  C_46
    5  A    between atoms: C_10  and  C_21
    6  A    between atoms: C_10  and  C_45
    7  A    between atoms: C_14  and  O_27
    8  A    between atoms: C_16  and  N_19
    9  A    between atoms: C_16  and  C_44
   10  A    between atoms: C_17  and  C_18
   11  A    between atoms: C_17  and  S_31
   12  A    between atoms: C_18  and  C_29
   13  A    between atoms: N_19  and  CA_38
   14  A    between atoms: C_21  and  C_44
   15  A    between atoms: C_22  and  C_40
   16  A    between atoms: N_23  and  S_31
   17  A    between atoms: C_24  and  C_29
   18  A    between atoms: C_25  and  O_36
   19  A    between atoms: N_26  and  C_44
   20  A    between atoms: C_33  and  CA_38
   21  A    between atoms: C_41  and  C_45
                            x       y       z     vdW  Elec       q    Type
                         _______ _______ _______ _____ _____    ______ ____

>  <TORSDO>
F 21

$$$$
=
 OpenBabel11062422503D

 46 48  0  0  1  0  0  0  0  0999 V2000
  186.2660  178.2070  140.9240 O   0  0  0  0  0  1  0  0  0  0  0  0
  186.6220  177.4030  142.0090 C   0  0  2  0  0  0  0  0  0  0  0  0
  188.9280  177.9890  142.2520 C   0  0  2  0  0  3  0  0  0  0  0  0
  187.6050  178.0340  142.9050 N   0  0  2  0  0  0  0  0  0  0  0  0
  187.9830  176.8740  142.0350 C   0  0  1  0  0  0  0  0  0  0  0  0
  191.2350  177.8040  142.9110 O   0  0  0  0  0  0  0  0  0  0  0  0
  189.6630  177.3610  144.5830 N   0  0  0  0  0  2  0  0  0  0  0  0
  190.0240  177.7200  143.2470 C   0  0  0  0  0  0  0  0  0  0  0  0
  190.6340  177.1550  145.6520 C   0  0  1  0  0  3  0  0  0  0  0  0
  189.8970  176.8260  146.9500 C   0  0  1  0  0  3  0  0  0  0  0  0
  189.4640  177.9980  147.5790 O   0  0  0  0  0  1  0  0  0  0  0  0
  188.9970  174.5580  147.2730 N   0  0  0  0  0  1  0  0  0  0  0  0
  188.7200  175.8690  146.7100 C   0  0  1  0  0  3  0  0  0  0  0  0
  187.3600  176.4130  147.1710 C   0  0  0  0  0  2  0  0  0  0  0  0
  185.0520  176.8030  146.4920 N   0  0  0  0  0  1  0  0  0  0  0  0
  186.4250  176.7920  146.0280 C   0  0  0  0  0  2  0  0  0  0  0  0
  191.5640  176.0090  145.2760 C   0  0  0  0  0  2  0  0  0  0  0  0
  192.3110  175.5730  146.4550 N   0  0  0  0  0  2  0  0  0  0  0  0
  194.3230  176.7730  145.6630 C   0  0  0  0  0  1  0  0  0  0  0  0
  193.7420  175.4560  146.1510 C   0  0  2  0  0  3  0  0  0  0  0  0
  193.6510  173.1030  145.7190 O   0  0  0  0  0  1  0  0  0  0  0  0
  194.0420  174.3270  145.1720 C   0  0  0  0  0  2  0  0  0  0  0  0
  184.6550  177.6110  142.9030 O   0  0  0  0  0  1  0  0  0  0  0  0
  185.5980  176.7160  142.6810 O   0  0  0  0  0  0  0  0  0  0  0  0
  188.1490  175.6410  142.9310 C   0  0  0  0  0  2  0  0  0  0  0  0
  189.3350  172.3140  141.4870 C   0  0  0  0  0  3  0  0  0  0  0  0
  189.1090  173.2080  140.3650 N   0  0  0  0  0  0  0  0  0  0  0  0
  188.9390  173.1370  142.7130 C   0  0  0  0  0  3  0  0  0  0  0  0
  188.6710  174.4740  140.8200 C   0  0  0  0  0  3  0  0  0  0  0  0
  188.5740  174.4630  142.1300 C   0  0  0  0  0  0  0  0  0  0  0  0
  190.4870  173.8110  138.1890 O   0  0  0  0  0  0  0  0  0  0  0  0
  188.2180  172.9520  137.8970 O   0  0  0  0  0  0  0  0  0  0  0  0
  189.4760  172.8310  138.7160 S   0  0  0  0  0  0  0  0  0  0  0  0
  189.6820  170.5030  137.3120 C   0  0  0  0  0  1  0  0  0  0  0  0
  190.1040  171.1510  138.6170 C   0  0  1  0  0  3  0  0  0  0  0  0
  191.6240  171.1060  138.7190 C   0  0  0  0  0  2  0  0  0  0  0  0
  192.1100  170.5820  140.0770 C   0  0  1  0  0  3  0  0  0  0  0  0
  192.6510  169.1480  140.0150 C   0  0  0  0  0  3  0  0  0  0  0  0
  192.2790  168.4310  141.1520 O   0  0  0  0  0  1  0  0  0  0  0  0
  192.2030  168.4830  138.8700 O   0  0  0  0  0  1  0  0  0  0  0  0
  193.1380  171.5020  140.6950 C   0  0  0  0  0  0  0  0  0  0  0  0
  193.0800  171.8500  142.2990 S   0  0  0  0  0  0  0  0  0  0  0  0
  194.0840  172.1800  139.9110 O   0  0  0  0  0  0  0  0  0  0  0  0
  195.6230  173.8520  140.2330 O   0  0  0  0  0  0  0  0  0  0  0  0
  193.4460  174.5570  139.8660 N   0  0  0  0  0  1  0  0  0  0  0  0
  194.4200  173.5320  140.0410 C   0  0  0  0  0  0  0  0  0  0  0  0
  2  1  1  6  0  0  0
  2  5  1  0  0  0  0
  2 24  1  0  0  0  0
  2  4  1  0  0  0  0
  3  4  1  0  0  0  0
  3  8  1  1  0  0  0
  5  3  1  0  0  0  0
  5  4  1  0  0  0  0
  5 25  1  0  0  0  0
  6  8  2  0  0  0  0
  7  9  1  0  0  0  0
  8  7  1  0  0  0  0
  9 10  1  0  0  0  0
 10 11  1  0  0  0  0
 13 10  1  0  0  0  0
 13 14  1  0  0  0  0
 13 12  1  0  0  0  0
 16 15  1  0  0  0  0
 16 14  1  0  0  0  0
 17  9  1  0  0  0  0
 17 18  1  0  0  0  0
 19 20  1  0  0  0  0
 20 18  1  0  0  0  0
 22 21  1  0  0  0  0
 22 20  1  0  0  0  0
 24 23  1  0  0  0  0
 26 28  2  0  0  0  0
 27 29  1  0  0  0  0
 27 26  1  0  0  0  0
 29 30  2  0  0  0  0
 30 28  1  0  0  0  0
 30 25  1  0  0  0  0
 31 33  2  0  0  0  0
 32 33  2  0  0  0  0
 33 27  1  0  0  0  0
 34 35  1  0  0  0  0
 35 33  1  0  0  0  0
 35 36  1  0  0  0  0
 36 37  1  0  0  0  0
 37 41  1  0  0  0  0
 38 37  1  0  0  0  0
 38 39  1  0  0  0  0
 40 38  1  0  0  0  0
 41 42  2  0  0  0  0
 43 46  1  0  0  0  0
 43 41  1  0  0  0  0
 45 46  1  0  0  0  0
 46 44  2  0  0  0  0
M  END
>  <MODEL>
7

>  <REMARK>
 VINA RESULT:      -4.8      3.224      6.793
  Name = 
  21 active torsions:
  status: ('A' for Active; 'I' for Inactive)
    1  A    between atoms: C_1  and  C_29
    2  A    between atoms: C_1  and  O_36
    3  A    between atoms: C_2  and  C_39
    4  A    between atoms: C_2  and  C_46
    5  A    between atoms: C_10  and  C_21
    6  A    between atoms: C_10  and  C_45
    7  A    between atoms: C_14  and  O_27
    8  A    between atoms: C_16  and  N_19
    9  A    between atoms: C_16  and  C_44
   10  A    between atoms: C_17  and  C_18
   11  A    between atoms: C_17  and  S_31
   12  A    between atoms: C_18  and  C_29
   13  A    between atoms: N_19  and  CA_38
   14  A    between atoms: C_21  and  C_44
   15  A    between atoms: C_22  and  C_40
   16  A    between atoms: N_23  and  S_31
   17  A    between atoms: C_24  and  C_29
   18  A    between atoms: C_25  and  O_36
   19  A    between atoms: N_26  and  C_44
   20  A    between atoms: C_33  and  CA_38
   21  A    between atoms: C_41  and  C_45
                            x       y       z     vdW  Elec       q    Type
                         _______ _______ _______ _____ _____    ______ ____

>  <TORSDO>
F 21

$$$$
=
 OpenBabel11062422503D

 46 48  0  0  1  0  0  0  0  0999 V2000
  189.5900  172.4150  137.2500 O   0  0  0  0  0  1  0  0  0  0  0  0
  189.7150  171.9490  138.5600 C   0  0  2  0  0  0  0  0  0  0  0  0
  188.7720  173.7840  139.7710 C   0  0  2  0  0  3  0  0  0  0  0  0
  188.6010  172.3570  139.4330 N   0  0  2  0  0  0  0  0  0  0  0  0
  189.9720  172.9380  139.6040 C   0  0  1  0  0  0  0  0  0  0  0  0
  187.6360  173.2640  141.8270 O   0  0  0  0  0  0  0  0  0  0  0  0
  188.8470  175.2640  141.8130 N   0  0  0  0  0  2  0  0  0  0  0  0
  188.3740  174.0640  141.1940 C   0  0  0  0  0  0  0  0  0  0  0  0
  188.5930  175.6030  143.2090 C   0  0  1  0  0  3  0  0  0  0  0  0
  189.9210  175.8720  143.9150 C   0  0  1  0  0  3  0  0  0  0  0  0
  190.5200  177.0320  143.4120 O   0  0  0  0  0  1  0  0  0  0  0  0
  189.3020  174.6940  145.9850 N   0  0  0  0  0  1  0  0  0  0  0  0
  189.7490  175.9640  145.4380 C   0  0  1  0  0  3  0  0  0  0  0  0
  190.9780  176.5050  146.1810 C   0  0  0  0  0  2  0  0  0  0  0  0
  191.1890  177.2590  148.4900 N   0  0  0  0  0  1  0  0  0  0  0  0
  191.0490  176.0880  147.6460 C   0  0  0  0  0  2  0  0  0  0  0  0
  187.7070  176.8400  143.2760 C   0  0  0  0  0  2  0  0  0  0  0  0
  186.3110  176.4590  143.0670 N   0  0  0  0  0  2  0  0  0  0  0  0
  186.4690  177.7840  140.9840 C   0  0  0  0  0  1  0  0  0  0  0  0
  185.6300  177.4300  142.2010 C   0  0  2  0  0  3  0  0  0  0  0  0
  183.8720  178.5570  143.3730 O   0  0  0  0  0  1  0  0  0  0  0  0
  185.1990  178.6840  142.9540 C   0  0  0  0  0  2  0  0  0  0  0  0
  189.6230  169.9440  137.7330 O   0  0  0  0  0  1  0  0  0  0  0  0
  190.1270  170.6190  138.7480 O   0  0  0  0  0  0  0  0  0  0  0  0
  190.5850  172.3450  140.8780 C   0  0  0  0  0  2  0  0  0  0  0  0
  194.3870  172.1060  141.1040 C   0  0  0  0  0  3  0  0  0  0  0  0
  194.0710  173.4530  140.6620 N   0  0  0  0  0  0  0  0  0  0  0  0
  193.0260  171.4180  141.2210 C   0  0  0  0  0  3  0  0  0  0  0  0
  192.6710  173.6260  140.5590 C   0  0  0  0  0  3  0  0  0  0  0  0
  192.0630  172.5040  140.8730 C   0  0  0  0  0  0  0  0  0  0  0  0
  194.5550  175.9340  139.8840 O   0  0  0  0  0  0  0  0  0  0  0  0
  196.2790  174.2540  139.4630 O   0  0  0  0  0  0  0  0  0  0  0  0
  195.2340  174.7170  140.4450 S   0  0  0  0  0  0  0  0  0  0  0  0
  196.6920  176.4410  141.9730 C   0  0  0  0  0  1  0  0  0  0  0  0
  196.0080  175.0870  142.0230 C   0  0  1  0  0  3  0  0  0  0  0  0
  194.9970  175.0890  143.1640 C   0  0  0  0  0  2  0  0  0  0  0  0
  195.6630  174.9970  144.5430 C   0  0  1  0  0  3  0  0  0  0  0  0
  194.9290  175.7990  145.6250 C   0  0  0  0  0  3  0  0  0  0  0  0
  194.3500  176.9460  145.0810 O   0  0  0  0  0  1  0  0  0  0  0  0
  193.9470  175.0270  146.2540 O   0  0  0  0  0  1  0  0  0  0  0  0
  195.8380  173.5620  144.9840 C   0  0  0  0  0  0  0  0  0  0  0  0
  196.9780  173.1710  146.1000 S   0  0  0  0  0  0  0  0  0  0  0  0
  195.1330  172.5140  144.3740 O   0  0  0  0  0  0  0  0  0  0  0  0
  194.1940  170.9140  145.7240 O   0  0  0  0  0  0  0  0  0  0  0  0
  192.6950  172.3210  144.6550 N   0  0  0  0  0  1  0  0  0  0  0  0
  194.0190  171.8650  144.9190 C   0  0  0  0  0  0  0  0  0  0  0  0
  2  1  1  6  0  0  0
  2 24  1  0  0  0  0
  2  4  1  0  0  0  0
  2  5  1  0  0  0  0
  3  8  1  1  0  0  0
  4  5  1  0  0  0  0
  4  3  1  0  0  0  0
  5  3  1  0  0  0  0
  5 25  1  0  0  0  0
  7  9  1  0  0  0  0
  8  7  1  0  0  0  0
  8  6  2  0  0  0  0
  9 17  1  0  0  0  0
  9 10  1  0  0  0  0
 10 13  1  0  0  0  0
 11 10  1  0  0  0  0
 13 12  1  0  0  0  0
 13 14  1  0  0  0  0
 14 16  1  0  0  0  0
 16 15  1  0  0  0  0
 18 17  1  0  0  0  0
 19 20  1  0  0  0  0
 20 22  1  0  0  0  0
 20 18  1  0  0  0  0
 22 21  1  0  0  0  0
 23 24  1  0  0  0  0
 26 28  2  0  0  0  0
 27 26  1  0  0  0  0
 29 27  1  0  0  0  0
 29 30  2  0  0  0  0
 30 25  1  0  0  0  0
 30 28  1  0  0  0  0
 31 33  2  0  0  0  0
 32 33  2  0  0  0  0
 33 27  1  0  0  0  0
 33 35  1  0  0  0  0
 34 35  1  0  0  0  0
 35 36  1  0  0  0  0
 36 37  1  0  0  0  0
 37 41  1  0  0  0  0
 37 38  1  0  0  0  0
 38 40  1  0  0  0  0
 39 38  1  0  0  0  0
 41 42  2  0  0  0  0
 43 46  1  0  0  0  0
 43 41  1  0  0  0  0
 45 46  1  0  0  0  0
 46 44  2  0  0  0  0
M  END
>  <MODEL>
8

>  <REMARK>
 VINA RESULT:      -4.8      2.499      6.385
  Name = 
  21 active torsions:
  status: ('A' for Active; 'I' for Inactive)
    1  A    between atoms: C_1  and  C_29
    2  A    between atoms: C_1  and  O_36
    3  A    between atoms: C_2  and  C_39
    4  A    between atoms: C_2  and  C_46
    5  A    between atoms: C_10  and  C_21
    6  A    between atoms: C_10  and  C_45
    7  A    between atoms: C_14  and  O_27
    8  A    between atoms: C_16  and  N_19
    9  A    between atoms: C_16  and  C_44
   10  A    between atoms: C_17  and  C_18
   11  A    between atoms: C_17  and  S_31
   12  A    between atoms: C_18  and  C_29
   13  A    between atoms: N_19  and  CA_38
   14  A    between atoms: C_21  and  C_44
   15  A    between atoms: C_22  and  C_40
   16  A    between atoms: N_23  and  S_31
   17  A    between atoms: C_24  and  C_29
   18  A    between atoms: C_25  and  O_36
   19  A    between atoms: N_26  and  C_44
   20  A    between atoms: C_33  and  CA_38
   21  A    between atoms: C_41  and  C_45
                            x       y       z     vdW  Elec       q    Type
                         _______ _______ _______ _____ _____    ______ ____

>  <TORSDO>
F 21

$$$$
=
 OpenBabel11062422503D

 46 48  0  0  1  0  0  0  0  0999 V2000
  191.3890  171.9190  138.4330 O   0  0  0  0  0  1  0  0  0  0  0  0
  190.6430  171.5920  139.5660 C   0  0  2  0  0  0  0  0  0  0  0  0
  189.7960  173.7460  140.1730 C   0  0  2  0  0  3  0  0  0  0  0  0
  189.4170  172.3960  139.7110 N   0  0  2  0  0  0  0  0  0  0  0  0
  190.5790  172.5820  140.6380 C   0  0  1  0  0  0  0  0  0  0  0  0
  187.6740  173.7470  141.3060 O   0  0  0  0  0  0  0  0  0  0  0  0
  189.1580  175.4430  141.9270 N   0  0  0  0  0  2  0  0  0  0  0  0
  188.8010  174.2900  141.1600 C   0  0  0  0  0  0  0  0  0  0  0  0
  188.3090  176.0120  142.9670 C   0  0  1  0  0  3  0  0  0  0  0  0
  189.1580  176.3250  144.1990 C   0  0  1  0  0  3  0  0  0  0  0  0
  189.7130  177.6040  144.1020 O   0  0  0  0  0  1  0  0  0  0  0  0
  189.2380  176.0410  146.6430 N   0  0  0  0  0  1  0  0  0  0  0  0
  188.3520  176.1780  145.4990 C   0  0  1  0  0  3  0  0  0  0  0  0
  187.3020  177.2760  145.7180 C   0  0  0  0  0  2  0  0  0  0  0  0
  185.5330  177.8550  147.2920 N   0  0  0  0  0  1  0  0  0  0  0  0
  186.9330  177.4960  147.1810 C   0  0  0  0  0  2  0  0  0  0  0  0
  187.6550  177.2850  142.4480 C   0  0  0  0  0  2  0  0  0  0  0  0
  186.2280  177.0540  142.2290 N   0  0  0  0  0  2  0  0  0  0  0  0
  186.3410  179.4090  142.9740 C   0  0  0  0  0  1  0  0  0  0  0  0
  185.4460  178.2410  142.5940 C   0  0  2  0  0  3  0  0  0  0  0  0
  183.2880  178.7470  143.5000 O   0  0  0  0  0  1  0  0  0  0  0  0
  184.4230  177.9550  143.6870 C   0  0  0  0  0  2  0  0  0  0  0  0
  191.4410  169.6000  139.2390 O   0  0  0  0  0  1  0  0  0  0  0  0
  190.4680  170.2310  139.8680 O   0  0  0  0  0  0  0  0  0  0  0  0
  190.1990  171.9920  142.0010 C   0  0  0  0  0  2  0  0  0  0  0  0
  192.5870  172.6070  144.9140 C   0  0  0  0  0  3  0  0  0  0  0  0
  193.3900  172.1450  143.7950 N   0  0  0  0  0  0  0  0  0  0  0  0
  191.1520  172.5790  144.3860 C   0  0  0  0  0  3  0  0  0  0  0  0
  192.5740  171.8990  142.6660 C   0  0  0  0  0  3  0  0  0  0  0  0
  191.3190  172.1400  142.9680 C   0  0  0  0  0  0  0  0  0  0  0  0
  195.6530  172.6790  142.5330 O   0  0  0  0  0  0  0  0  0  0  0  0
  195.5350  170.6100  143.8300 O   0  0  0  0  0  0  0  0  0  0  0  0
  195.1190  172.0580  143.7940 S   0  0  0  0  0  0  0  0  0  0  0  0
  196.8750  172.1040  145.8790 C   0  0  0  0  0  1  0  0  0  0  0  0
  195.7570  172.9070  145.2430 C   0  0  1  0  0  3  0  0  0  0  0  0
  196.2830  174.2970  144.9020 C   0  0  0  0  0  2  0  0  0  0  0  0
  195.1590  175.3000  144.6140 C   0  0  1  0  0  3  0  0  0  0  0  0
  194.8790  176.2480  145.7860 C   0  0  0  0  0  3  0  0  0  0  0  0
  194.7160  177.5580  145.3320 O   0  0  0  0  0  1  0  0  0  0  0  0
  193.7450  175.8530  146.5030 O   0  0  0  0  0  1  0  0  0  0  0  0
  195.4240  176.0910  143.3540 C   0  0  0  0  0  0  0  0  0  0  0  0
  196.9060  176.7460  143.0830 S   0  0  0  0  0  0  0  0  0  0  0  0
  194.3970  176.3970  142.4470 O   0  0  0  0  0  0  0  0  0  0  0  0
  192.2670  175.6340  142.8280 O   0  0  0  0  0  0  0  0  0  0  0  0
  193.3500  174.7000  141.0040 N   0  0  0  0  0  1  0  0  0  0  0  0
  193.3180  175.5610  142.1390 C   0  0  0  0  0  0  0  0  0  0  0  0
  2  1  1  6  0  0  0
  2  4  1  0  0  0  0
  2 24  1  0  0  0  0
  2  5  1  0  0  0  0
  3  5  1  0  0  0  0
  3  8  1  1  0  0  0
  4  3  1  0  0  0  0
  4  5  1  0  0  0  0
  5 25  1  0  0  0  0
  7  9  1  0  0  0  0
  8  6  2  0  0  0  0
  8  7  1  0  0  0  0
  9 10  1  0  0  0  0
 10 13  1  0  0  0  0
 11 10  1  0  0  0  0
 13 14  1  0  0  0  0
 13 12  1  0  0  0  0
 14 16  1  0  0  0  0
 16 15  1  0  0  0  0
 17  9  1  0  0  0  0
 18 17  1  0  0  0  0
 18 20  1  0  0  0  0
 20 19  1  0  0  0  0
 20 22  1  0  0  0  0
 21 22  1  0  0  0  0
 23 24  1  0  0  0  0
 25 30  1  0  0  0  0
 27 26  1  0  0  0  0
 28 26  2  0  0  0  0
 29 30  2  0  0  0  0
 29 27  1  0  0  0  0
 30 28  1  0  0  0  0
 31 33  2  0  0  0  0
 33 27  1  0  0  0  0
 33 32  2  0  0  0  0
 33 35  1  0  0  0  0
 35 34  1  0  0  0  0
 36 35  1  0  0  0  0
 37 36  1  0  0  0  0
 37 38  1  0  0  0  0
 38 40  1  0  0  0  0
 39 38  1  0  0  0  0
 41 37  1  0  0  0  0
 42 41  2  0  0  0  0
 43 41  1  0  0  0  0
 45 46  1  0  0  0  0
 46 43  1  0  0  0  0
 46 44  2  0  0  0  0
M  END
>  <MODEL>
9

>  <REMARK>
 VINA RESULT:      -4.8      2.484      6.148
  Name = 
  21 active torsions:
  status: ('A' for Active; 'I' for Inactive)
    1  A    between atoms: C_1  and  C_29
    2  A    between atoms: C_1  and  O_36
    3  A    between atoms: C_2  and  C_39
    4  A    between atoms: C_2  and  C_46
    5  A    between atoms: C_10  and  C_21
    6  A    between atoms: C_10  and  C_45
    7  A    between atoms: C_14  and  O_27
    8  A    between atoms: C_16  and  N_19
    9  A    between atoms: C_16  and  C_44
   10  A    between atoms: C_17  and  C_18
   11  A    between atoms: C_17  and  S_31
   12  A    between atoms: C_18  and  C_29
   13  A    between atoms: N_19  and  CA_38
   14  A    between atoms: C_21  and  C_44
   15  A    between atoms: C_22  and  C_40
   16  A    between atoms: N_23  and  S_31
   17  A    between atoms: C_24  and  C_29
   18  A    between atoms: C_25  and  O_36
   19  A    between atoms: N_26  and  C_44
   20  A    between atoms: C_33  and  CA_38
   21  A    between atoms: C_41  and  C_45
                            x       y       z     vdW  Elec       q    Type
                         _______ _______ _______ _____ _____    ______ ____

>  <TORSDO>
F 21

$$$$
