=
 OpenBabel11072409263D

 39 46  0  0  1  0  0  0  0  0999 V2000
  188.9990  175.5590  145.8000 C   0  0  0  0  0  3  0  0  0  0  0  0
  191.4100  175.4590  146.1360 C   0  0  0  0  0  0  0  0  0  0  0  0
  188.7950  175.2910  147.1540 C   0  0  0  0  0  3  0  0  0  0  0  0
  189.4020  174.0510  142.4820 C   0  0  0  0  0  0  0  0  0  0  0  0
  193.1200  175.5460  144.2100 C   0  0  0  0  0  2  0  0  0  0  0  0
  190.4440  175.8850  143.8130 C   0  0  0  0  0  2  0  0  0  0  0  0
  194.0340  172.0200  143.1860 C   0  0  0  0  0  3  0  0  0  0  0  0
  191.7250  173.7350  143.1560 C   0  0  0  0  0  0  0  0  0  0  0  0
  190.4230  171.9040  142.1290 C   0  0  0  0  0  3  0  0  0  0  0  0
  190.2950  175.6560  145.2830 C   0  0  0  0  0  0  0  0  0  0  0  0
  191.6230  172.3930  142.6630 C   0  0  0  0  0  0  0  0  0  0  0  0
  189.3370  172.7550  142.0510 C   0  0  0  0  0  0  0  0  0  0  0  0
  194.1340  173.2770  143.6160 C   0  0  0  0  0  0  0  0  0  0  0  0
  192.8530  175.5910  145.7120 C   0  0  0  0  0  2  0  0  0  0  0  0
  192.9300  174.1630  143.6490 C   0  0  0  0  0  0  0  0  0  0  0  0
  188.1560  172.4320  141.6480 N   0  0  0  0  0  0  0  0  0  0  0  0
  192.7350  171.3980  142.8000 C   0  0  0  0  0  3  0  0  0  0  0  0
  187.3320  173.5600  141.7840 N   0  0  0  0  0  0  0  0  0  0  0  0
  189.8890  175.1150  148.0010 C   0  0  0  0  0  3  0  0  0  0  0  0
  188.0320  174.5360  142.2700 C   0  0  0  0  0  0  0  0  0  0  0  0
  190.5510  174.5680  143.1030 C   0  0  1  0  0  3  0  0  0  0  0  0
  191.1850  175.2030  147.4940 C   0  0  0  0  0  3  0  0  0  0  0  0
  188.0890  176.9750  141.7420 C   0  0  0  0  0  3  0  0  0  0  0  0
  187.6270  178.2910  141.9180 C   0  0  0  0  0  3  0  0  0  0  0  0
  184.9090  179.3670  144.0870 C   0  0  0  0  0  2  0  0  0  0  0  0
  185.9410  179.6690  143.1380 O   0  0  0  0  0  0  0  0  0  0  0  0
  187.4840  175.8950  142.4300 C   0  0  0  0  0  0  0  0  0  0  0  0
  186.5620  178.4860  142.7940 C   0  0  0  0  0  0  0  0  0  0  0  0
  185.9870  177.4590  143.4660 C   0  0  0  0  0  0  0  0  0  0  0  0
  186.4220  176.1460  143.3220 C   0  0  0  0  0  3  0  0  0  0  0  0
  184.9750  177.9470  144.2690 O   0  0  0  0  0  0  0  0  0  0  0  0
  195.9800  173.4730  145.0900 O   0  0  0  0  0  0  0  0  0  0  0  0
  197.3940  175.3700  143.5120 C   0  0  0  0  0  2  0  0  0  0  0  0
  195.4830  173.7810  143.9730 C   0  0  0  0  0  0  0  0  0  0  0  0
  195.9100  174.8380  141.6800 C   0  0  1  0  0  3  0  0  0  0  0  0
  197.9410  176.0410  142.2670 C   0  0  0  0  0  2  0  0  0  0  0  0
  196.2130  173.3140  140.7330 S   0  0  0  0  0  1  0  0  0  0  0  0
  196.2330  174.6240  143.0790 N   0  0  0  0  0  0  0  0  0  0  0  0
  196.8590  175.9210  141.2060 C   0  0  0  0  0  2  0  0  0  0  0  0
  1  3  1  0  0  0  0
  2 22  2  0  0  0  0
  3 19  2  0  0  0  0
  4 21  1  0  0  0  0
  5 14  1  0  0  0  0
  6 10  1  0  0  0  0
  7 13  1  0  0  0  0
  8 15  1  0  0  0  0
  9 11  1  0  0  0  0
 10  1  2  0  0  0  0
 10  2  1  0  0  0  0
 11 17  1  0  0  0  0
 11  8  2  0  0  0  0
 12  9  2  0  0  0  0
 12  4  1  0  0  0  0
 13 15  2  0  0  0  0
 13 34  1  0  0  0  0
 14  2  1  0  0  0  0
 15  5  1  0  0  0  0
 16 18  2  0  0  0  0
 16 12  1  0  0  0  0
 17  7  2  0  0  0  0
 18 20  1  0  0  0  0
 20 27  1  0  0  0  0
 20  4  2  0  0  0  0
 21  8  1  0  0  0  0
 21  6  1  1  0  0  0
 22 19  1  0  0  0  0
 23 24  2  0  0  0  0
 23 27  1  0  0  0  0
 24 28  1  0  0  0  0
 25 31  1  0  0  0  0
 26 25  1  0  0  0  0
 27 30  2  0  0  0  0
 28 26  1  0  0  0  0
 28 29  2  0  0  0  0
 29 31  1  0  0  0  0
 30 29  1  0  0  0  0
 34 32  2  0  0  0  0
 35 37  1  6  0  0  0
 35 38  1  0  0  0  0
 36 33  1  0  0  0  0
 38 33  1  0  0  0  0
 38 34  1  0  0  0  0
 39 35  1  0  0  0  0
 39 36  1  0  0  0  0
M  END
>  <MODEL>
1

>  <REMARK>
 VINA RESULT:      -8.8      0.000      0.000
  Name = 
  2 active torsions:
  status: ('A' for Active; 'I' for Inactive)
    1  A    between atoms: C_19  and  C_20
    2  A    between atoms: C_26  and  C_34
                            x       y       z     vdW  Elec       q    Type
                         _______ _______ _______ _____ _____    ______ ____

>  <TORSDO>
F 2

$$$$
=
 OpenBabel11072409263D

 39 46  0  0  1  0  0  0  0  0999 V2000
  188.4430  174.8910  142.3850 C   0  0  0  0  0  3  0  0  0  0  0  0
  189.5070  172.7000  142.3130 C   0  0  0  0  0  0  0  0  0  0  0  0
  187.9290  174.6880  141.1040 C   0  0  0  0  0  3  0  0  0  0  0  0
  191.2850  176.2040  144.2940 C   0  0  0  0  0  0  0  0  0  0  0  0
  191.1320  171.8460  144.1220 C   0  0  0  0  0  2  0  0  0  0  0  0
  189.7900  174.2090  144.3510 C   0  0  0  0  0  2  0  0  0  0  0  0
  194.6860  172.5980  143.0690 C   0  0  0  0  0  3  0  0  0  0  0  0
  192.3160  174.0460  143.8120 C   0  0  0  0  0  0  0  0  0  0  0  0
  193.5470  176.1620  143.4800 C   0  0  0  0  0  3  0  0  0  0  0  0
  189.2200  173.9050  143.0030 C   0  0  0  0  0  0  0  0  0  0  0  0
  193.5030  174.7620  143.4480 C   0  0  0  0  0  0  0  0  0  0  0  0
  192.4270  176.8500  143.9080 C   0  0  0  0  0  0  0  0  0  0  0  0
  193.5910  171.9350  143.4370 C   0  0  0  0  0  0  0  0  0  0  0  0
  190.2840  171.5410  142.8890 C   0  0  0  0  0  2  0  0  0  0  0  0
  192.3390  172.6760  143.7810 C   0  0  0  0  0  0  0  0  0  0  0  0
  192.2950  178.1320  143.9290 N   0  0  0  0  0  0  0  0  0  0  0  0
  194.7160  174.0790  142.8940 C   0  0  0  0  0  3  0  0  0  0  0  0
  190.9930  178.4230  144.3660 N   0  0  0  0  0  0  0  0  0  0  0  0
  188.1920  173.4970  140.4290 C   0  0  0  0  0  3  0  0  0  0  0  0
  190.3680  177.3120  144.5940 C   0  0  0  0  0  0  0  0  0  0  0  0
  191.1560  174.8090  144.2000 C   0  0  1  0  0  3  0  0  0  0  0  0
  188.9730  172.5110  141.0320 C   0  0  0  0  0  3  0  0  0  0  0  0
  188.7760  176.5180  146.3450 C   0  0  0  0  0  3  0  0  0  0  0  0
  187.4830  176.4160  146.8880 C   0  0  0  0  0  3  0  0  0  0  0  0
  184.4440  177.9160  145.5610 C   0  0  0  0  0  2  0  0  0  0  0  0
  185.1140  177.1230  146.5500 O   0  0  0  0  0  0  0  0  0  0  0  0
  189.0120  177.2750  145.1710 C   0  0  0  0  0  0  0  0  0  0  0  0
  186.4530  177.0780  146.2250 C   0  0  0  0  0  0  0  0  0  0  0  0
  186.6700  177.7920  145.0930 C   0  0  0  0  0  0  0  0  0  0  0  0
  187.9340  177.9100  144.5240 C   0  0  0  0  0  3  0  0  0  0  0  0
  185.4740  178.3210  144.6490 O   0  0  0  0  0  0  0  0  0  0  0  0
  193.4420  169.7330  142.5740 O   0  0  0  0  0  0  0  0  0  0  0  0
  193.8490  168.4310  145.0700 C   0  0  0  0  0  2  0  0  0  0  0  0
  193.6880  170.4610  143.5740 C   0  0  0  0  0  0  0  0  0  0  0  0
  194.6020  170.5460  145.9640 C   0  0  1  0  0  3  0  0  0  0  0  0
  194.4330  168.1680  146.4450 C   0  0  0  0  0  2  0  0  0  0  0  0
  196.2950  171.0950  145.5860 S   0  0  0  0  0  1  0  0  0  0  0  0
  194.0430  169.8430  144.8230 N   0  0  0  0  0  0  0  0  0  0  0  0
  194.6430  169.5300  147.0880 C   0  0  0  0  0  2  0  0  0  0  0  0
  1 10  1  0  0  0  0
  2 14  1  0  0  0  0
  2 10  2  0  0  0  0
  3  1  2  0  0  0  0
  4 20  2  0  0  0  0
  7 13  1  0  0  0  0
  8 21  1  0  0  0  0
  9 12  2  0  0  0  0
 10  6  1  0  0  0  0
 11  9  1  0  0  0  0
 11  8  2  0  0  0  0
 12 16  1  0  0  0  0
 12  4  1  0  0  0  0
 13 34  1  0  0  0  0
 13 15  2  0  0  0  0
 14  5  1  0  0  0  0
 15  8  1  0  0  0  0
 15  5  1  0  0  0  0
 16 18  2  0  0  0  0
 17  7  2  0  0  0  0
 17 11  1  0  0  0  0
 18 20  1  0  0  0  0
 19 22  2  0  0  0  0
 19  3  1  0  0  0  0
 20 27  1  0  0  0  0
 21  4  1  0  0  0  0
 21  6  1  6  0  0  0
 22  2  1  0  0  0  0
 23 24  1  0  0  0  0
 25 26  1  0  0  0  0
 27 23  2  0  0  0  0
 28 26  1  0  0  0  0
 28 24  2  0  0  0  0
 29 28  1  0  0  0  0
 30 29  2  0  0  0  0
 30 27  1  0  0  0  0
 31 29  1  0  0  0  0
 31 25  1  0  0  0  0
 32 34  2  0  0  0  0
 33 36  1  0  0  0  0
 34 38  1  0  0  0  0
 35 37  1  6  0  0  0
 35 39  1  0  0  0  0
 36 39  1  0  0  0  0
 38 33  1  0  0  0  0
 38 35  1  0  0  0  0
M  END
>  <MODEL>
2

>  <REMARK>
 VINA RESULT:      -8.3      2.759      4.948
  Name = 
  2 active torsions:
  status: ('A' for Active; 'I' for Inactive)
    1  A    between atoms: C_19  and  C_20
    2  A    between atoms: C_26  and  C_34
                            x       y       z     vdW  Elec       q    Type
                         _______ _______ _______ _____ _____    ______ ____

>  <TORSDO>
F 2

$$$$
=
 OpenBabel11072409263D

 39 46  0  0  1  0  0  0  0  0999 V2000
  190.5200  176.1870  145.1900 C   0  0  0  0  0  3  0  0  0  0  0  0
  192.9180  176.2520  144.7600 C   0  0  0  0  0  0  0  0  0  0  0  0
  190.7580  176.3180  146.5590 C   0  0  0  0  0  3  0  0  0  0  0  0
  190.0970  173.7930  142.4450 C   0  0  0  0  0  0  0  0  0  0  0  0
  193.9610  175.8210  142.4430 C   0  0  0  0  0  2  0  0  0  0  0  0
  191.2670  175.9600  142.8370 C   0  0  0  0  0  2  0  0  0  0  0  0
  194.9320  172.1750  142.1660 C   0  0  0  0  0  3  0  0  0  0  0  0
  192.5360  173.7460  142.4100 C   0  0  0  0  0  0  0  0  0  0  0  0
  191.2090  171.6620  142.3760 C   0  0  0  0  0  3  0  0  0  0  0  0
  191.5850  176.1640  144.2840 C   0  0  0  0  0  0  0  0  0  0  0  0
  192.4480  172.3160  142.3520 C   0  0  0  0  0  0  0  0  0  0  0  0
  190.0580  172.4260  142.4210 C   0  0  0  0  0  0  0  0  0  0  0  0
  195.0090  173.5050  142.1890 C   0  0  0  0  0  0  0  0  0  0  0  0
  194.1460  176.2930  143.8830 C   0  0  0  0  0  2  0  0  0  0  0  0
  193.7740  174.3300  142.3630 C   0  0  0  0  0  0  0  0  0  0  0  0
  188.8560  171.9690  142.5140 N   0  0  0  0  0  0  0  0  0  0  0  0
  193.6580  171.4330  142.3920 C   0  0  0  0  0  2  0  0  0  0  0  0
  187.9840  173.0660  142.5960 N   0  0  0  0  0  0  0  0  0  0  0  0
  192.0660  176.4250  147.0310 C   0  0  0  0  0  3  0  0  0  0  0  0
  188.6790  174.1580  142.5560 C   0  0  0  0  0  0  0  0  0  0  0  0
  191.3100  174.4970  142.5100 C   0  0  0  0  0  0  0  0  0  0  0  0
  193.1350  176.3950  146.1360 C   0  0  0  0  0  3  0  0  0  0  0  0
  188.1290  176.2590  141.3240 C   0  0  0  0  0  3  0  0  0  0  0  0
  187.5890  177.5550  141.2670 C   0  0  0  0  0  3  0  0  0  0  0  0
  185.9270  179.3370  143.9710 C   0  0  0  0  0  2  0  0  0  0  0  0
  186.3950  179.2820  142.6160 O   0  0  0  0  0  0  0  0  0  0  0  0
  188.0490  175.4910  142.5110 C   0  0  0  0  0  0  0  0  0  0  0  0
  186.9840  178.0510  142.4190 C   0  0  0  0  0  0  0  0  0  0  0  0
  186.9170  177.3270  143.5630 C   0  0  0  0  0  0  0  0  0  0  0  0
  187.4450  176.0430  143.6580 C   0  0  0  0  0  3  0  0  0  0  0  0
  186.2820  178.0700  144.5390 O   0  0  0  0  0  0  0  0  0  0  0  0
  197.1550  174.2070  142.9070 O   0  0  0  0  0  0  0  0  0  0  0  0
  197.8440  175.5190  140.4790 C   0  0  0  0  0  2  0  0  0  0  0  0
  196.3350  174.1260  141.9530 C   0  0  0  0  0  0  0  0  0  0  0  0
  195.9820  174.3890  139.4310 C   0  0  1  0  0  3  0  0  0  0  0  0
  197.9410  175.7600  138.9850 C   0  0  0  0  0  2  0  0  0  0  0  0
  196.1850  172.6470  138.9470 S   0  0  0  0  0  1  0  0  0  0  0  0
  196.7040  174.6480  140.6640 N   0  0  0  0  0  0  0  0  0  0  0  0
  196.6280  175.2790  138.3880 C   0  0  0  0  0  2  0  0  0  0  0  0
  1  3  1  0  0  0  0
  2 22  2  0  0  0  0
  3 19  2  0  0  0  0
  4 21  2  0  0  0  0
  4 20  1  0  0  0  0
  5 14  1  0  0  0  0
  6 10  1  0  0  0  0
  7 13  2  0  0  0  0
  7 17  1  0  0  0  0
  8 21  1  0  0  0  0
  9 12  1  0  0  0  0
 10  2  1  0  0  0  0
 10  1  2  0  0  0  0
 11  9  2  0  0  0  0
 11 17  1  0  0  0  0
 11  8  1  0  0  0  0
 12  4  1  0  0  0  0
 12 16  2  0  0  0  0
 13 15  1  0  0  0  0
 14  2  1  0  0  0  0
 15  8  2  0  0  0  0
 15  5  1  0  0  0  0
 16 18  1  0  0  0  0
 20 18  2  0  0  0  0
 21  6  1  0  0  0  0
 22 19  1  0  0  0  0
 23 27  1  0  0  0  0
 24 23  2  0  0  0  0
 24 28  1  0  0  0  0
 25 31  1  0  0  0  0
 26 25  1  0  0  0  0
 27 20  1  0  0  0  0
 27 30  2  0  0  0  0
 28 26  1  0  0  0  0
 28 29  2  0  0  0  0
 29 30  1  0  0  0  0
 29 31  1  0  0  0  0
 33 38  1  0  0  0  0
 34 13  1  0  0  0  0
 34 32  2  0  0  0  0
 35 37  1  6  0  0  0
 35 38  1  0  0  0  0
 36 33  1  0  0  0  0
 38 34  1  0  0  0  0
 39 36  1  0  0  0  0
 39 35  1  0  0  0  0
M  END
>  <MODEL>
3

>  <REMARK>
 VINA RESULT:      -8.1      1.407      1.765
  Name = 
  2 active torsions:
  status: ('A' for Active; 'I' for Inactive)
    1  A    between atoms: C_19  and  C_20
    2  A    between atoms: C_26  and  C_34
                            x       y       z     vdW  Elec       q    Type
                         _______ _______ _______ _____ _____    ______ ____

>  <TORSDO>
F 2

$$$$
=
 OpenBabel11072409263D

 39 46  0  0  1  0  0  0  0  0999 V2000
  188.1520  176.9120  142.4980 C   0  0  0  0  0  3  0  0  0  0  0  0
  188.1190  175.2620  140.7050 C   0  0  0  0  0  0  0  0  0  0  0  0
  187.4870  177.8230  141.6770 C   0  0  0  0  0  3  0  0  0  0  0  0
  191.4440  175.6900  143.5550 C   0  0  0  0  0  0  0  0  0  0  0  0
  189.3530  173.0030  140.8260 C   0  0  0  0  0  2  0  0  0  0  0  0
  189.2300  174.7230  142.9370 C   0  0  0  0  0  2  0  0  0  0  0  0
  192.7580  173.3480  139.2130 C   0  0  0  0  0  3  0  0  0  0  0  0
  191.3580  174.3620  141.5100 C   0  0  0  0  0  0  0  0  0  0  0  0
  193.3660  175.6720  142.1100 C   0  0  0  0  0  3  0  0  0  0  0  0
  188.4630  175.6300  142.0300 C   0  0  0  0  0  0  0  0  0  0  0  0
  192.7010  174.7900  141.2480 C   0  0  0  0  0  0  0  0  0  0  0  0
  192.7130  176.0990  143.2520 C   0  0  0  0  0  0  0  0  0  0  0  0
  191.5210  172.9280  139.4760 C   0  0  0  0  0  0  0  0  0  0  0  0
  188.3500  173.8970  140.1020 C   0  0  0  0  0  2  0  0  0  0  0  0
  190.7670  173.4840  140.6410 C   0  0  0  0  0  0  0  0  0  0  0  0
  193.1680  176.9560  144.1010 N   0  0  0  0  0  0  0  0  0  0  0  0
  193.4270  174.4330  139.9860 C   0  0  0  0  0  2  0  0  0  0  0  0
  192.1780  177.1630  145.0740 N   0  0  0  0  0  0  0  0  0  0  0  0
  187.1290  177.4590  140.3790 C   0  0  0  0  0  3  0  0  0  0  0  0
  191.1480  176.4320  144.7880 C   0  0  0  0  0  0  0  0  0  0  0  0
  190.7000  174.8770  142.6850 C   0  0  0  0  0  0  0  0  0  0  0  0
  187.4410  176.1870  139.9010 C   0  0  0  0  0  3  0  0  0  0  0  0
  189.7790  175.1670  146.4480 C   0  0  0  0  0  3  0  0  0  0  0  0
  188.6420  175.0230  147.2630 C   0  0  0  0  0  3  0  0  0  0  0  0
  185.9320  177.4210  147.6550 C   0  0  0  0  0  2  0  0  0  0  0  0
  186.5410  176.1640  147.9780 O   0  0  0  0  0  0  0  0  0  0  0  0
  189.9760  176.3390  145.6780 C   0  0  0  0  0  0  0  0  0  0  0  0
  187.7240  176.0700  147.2760 C   0  0  0  0  0  0  0  0  0  0  0  0
  187.8990  177.1880  146.5300 C   0  0  0  0  0  0  0  0  0  0  0  0
  189.0080  177.3620  145.7080 C   0  0  0  0  0  3  0  0  0  0  0  0
  186.8320  178.0420  146.7260 O   0  0  0  0  0  0  0  0  0  0  0  0
  190.5020  172.1240  137.4930 O   0  0  0  0  0  0  0  0  0  0  0  0
  190.1280  169.4660  138.4340 C   0  0  0  0  0  2  0  0  0  0  0  0
  190.9640  171.8430  138.6320 C   0  0  0  0  0  0  0  0  0  0  0  0
  191.6510  169.9720  140.2410 C   0  0  1  0  0  3  0  0  0  0  0  0
  190.4410  168.1660  139.1500 C   0  0  0  0  0  2  0  0  0  0  0  0
  193.4380  169.9650  139.8980 S   0  0  0  0  0  1  0  0  0  0  0  0
  190.9270  170.4780  139.0880 N   0  0  0  0  0  0  0  0  0  0  0  0
  191.1690  168.5480  140.4290 C   0  0  0  0  0  2  0  0  0  0  0  0
  2 10  2  0  0  0  0
  3  1  2  0  0  0  0
  4 20  1  0  0  0  0
  7 13  2  0  0  0  0
  7 17  1  0  0  0  0
  8 21  1  0  0  0  0
  9 12  1  0  0  0  0
 10  1  1  0  0  0  0
 10  6  1  0  0  0  0
 11  8  1  0  0  0  0
 11  9  2  0  0  0  0
 12  4  1  0  0  0  0
 12 16  2  0  0  0  0
 13 15  1  0  0  0  0
 14  2  1  0  0  0  0
 14  5  1  0  0  0  0
 15  5  1  0  0  0  0
 15  8  2  0  0  0  0
 16 18  1  0  0  0  0
 17 11  1  0  0  0  0
 19  3  1  0  0  0  0
 20 18  2  0  0  0  0
 20 27  1  0  0  0  0
 21  6  1  0  0  0  0
 21  4  2  0  0  0  0
 22 19  2  0  0  0  0
 22  2  1  0  0  0  0
 23 24  1  0  0  0  0
 24 28  2  0  0  0  0
 25 26  1  0  0  0  0
 27 30  1  0  0  0  0
 27 23  2  0  0  0  0
 28 26  1  0  0  0  0
 29 31  1  0  0  0  0
 29 28  1  0  0  0  0
 30 29  2  0  0  0  0
 31 25  1  0  0  0  0
 32 34  2  0  0  0  0
 33 38  1  0  0  0  0
 33 36  1  0  0  0  0
 34 38  1  0  0  0  0
 34 13  1  0  0  0  0
 35 37  1  6  0  0  0
 35 39  1  0  0  0  0
 36 39  1  0  0  0  0
 38 35  1  0  0  0  0
M  END
>  <MODEL>
4

>  <REMARK>
 VINA RESULT:      -8.0      3.108      5.991
  Name = 
  2 active torsions:
  status: ('A' for Active; 'I' for Inactive)
    1  A    between atoms: C_19  and  C_20
    2  A    between atoms: C_26  and  C_34
                            x       y       z     vdW  Elec       q    Type
                         _______ _______ _______ _____ _____    ______ ____

>  <TORSDO>
F 2

$$$$
=
 OpenBabel11072409263D

 39 46  0  0  1  0  0  0  0  0999 V2000
  187.4470  176.9530  141.4190 C   0  0  0  0  0  3  0  0  0  0  0  0
  187.8420  174.8960  140.1720 C   0  0  0  0  0  0  0  0  0  0  0  0
  186.9780  177.5700  140.2590 C   0  0  0  0  0  3  0  0  0  0  0  0
  190.4220  176.2830  143.4550 C   0  0  0  0  0  0  0  0  0  0  0  0
  189.0380  172.8390  141.1600 C   0  0  0  0  0  2  0  0  0  0  0  0
  188.4180  175.0350  142.6530 C   0  0  0  0  0  2  0  0  0  0  0  0
  192.7180  172.9950  140.2950 C   0  0  0  0  0  3  0  0  0  0  0  0
  190.8200  174.4680  141.8740 C   0  0  0  0  0  0  0  0  0  0  0  0
  192.6230  176.0270  142.5220 C   0  0  0  0  0  3  0  0  0  0  0  0
  187.8690  175.6190  141.3910 C   0  0  0  0  0  0  0  0  0  0  0  0
  192.1820  174.9080  141.8050 C   0  0  0  0  0  0  0  0  0  0  0  0
  191.7230  176.6890  143.3370 C   0  0  0  0  0  0  0  0  0  0  0  0
  191.4580  172.5720  140.3860 C   0  0  0  0  0  0  0  0  0  0  0  0
  188.2180  173.4420  140.0230 C   0  0  0  0  0  2  0  0  0  0  0  0
  190.4520  173.3550  141.1660 C   0  0  0  0  0  0  0  0  0  0  0  0
  191.9630  177.7660  144.0020 N   0  0  0  0  0  0  0  0  0  0  0  0
  193.1820  174.2880  140.8750 C   0  0  0  0  0  2  0  0  0  0  0  0
  190.7750  178.1480  144.6440 N   0  0  0  0  0  0  0  0  0  0  0  0
  186.9300  176.8580  139.0610 C   0  0  0  0  0  3  0  0  0  0  0  0
  189.8440  177.2960  144.3480 C   0  0  0  0  0  0  0  0  0  0  0  0
  189.9050  175.2220  142.6950 C   0  0  0  0  0  0  0  0  0  0  0  0
  187.3560  175.5310  139.0210 C   0  0  0  0  0  3  0  0  0  0  0  0
  188.1670  176.4520  145.9930 C   0  0  0  0  0  3  0  0  0  0  0  0
  186.8770  176.4430  146.5520 C   0  0  0  0  0  3  0  0  0  0  0  0
  184.0760  178.5580  145.5870 C   0  0  0  0  0  2  0  0  0  0  0  0
  184.6320  177.5240  146.4110 O   0  0  0  0  0  0  0  0  0  0  0  0
  188.5010  177.3540  144.9530 C   0  0  0  0  0  0  0  0  0  0  0  0
  185.9490  177.3460  146.0410 C   0  0  0  0  0  0  0  0  0  0  0  0
  186.2580  178.2020  145.0360 C   0  0  0  0  0  0  0  0  0  0  0  0
  187.5210  178.2350  144.4550 C   0  0  0  0  0  3  0  0  0  0  0  0
  185.1470  178.9610  144.7230 O   0  0  0  0  0  0  0  0  0  0  0  0
  190.6700  170.3380  140.4880 O   0  0  0  0  0  0  0  0  0  0  0  0
  191.2770  169.7070  137.7820 C   0  0  0  0  0  2  0  0  0  0  0  0
  191.1200  171.2680  139.7640 C   0  0  0  0  0  0  0  0  0  0  0  0
  191.5540  172.0720  137.3720 C   0  0  1  0  0  3  0  0  0  0  0  0
  191.4090  169.9020  136.2840 C   0  0  0  0  0  2  0  0  0  0  0  0
  190.0650  173.0960  137.1580 S   0  0  0  0  0  1  0  0  0  0  0  0
  191.3030  171.0340  138.3560 N   0  0  0  0  0  0  0  0  0  0  0  0
  191.8510  171.3420  136.0780 C   0  0  0  0  0  2  0  0  0  0  0  0
  2 10  2  0  0  0  0
  3  1  2  0  0  0  0
  4 20  1  0  0  0  0
  5 15  1  0  0  0  0
  6 21  1  0  0  0  0
  7 13  2  0  0  0  0
  7 17  1  0  0  0  0
  8 21  1  0  0  0  0
  9 12  1  0  0  0  0
 10  1  1  0  0  0  0
 10  6  1  0  0  0  0
 11  8  1  0  0  0  0
 11  9  2  0  0  0  0
 12  4  1  0  0  0  0
 12 16  2  0  0  0  0
 13 15  1  0  0  0  0
 14  2  1  0  0  0  0
 14  5  1  0  0  0  0
 15  8  2  0  0  0  0
 16 18  1  0  0  0  0
 17 11  1  0  0  0  0
 19  3  1  0  0  0  0
 20 18  2  0  0  0  0
 20 27  1  0  0  0  0
 21  4  2  0  0  0  0
 22 19  2  0  0  0  0
 22  2  1  0  0  0  0
 23 24  1  0  0  0  0
 25 26  1  0  0  0  0
 27 23  2  0  0  0  0
 28 26  1  0  0  0  0
 28 24  2  0  0  0  0
 29 28  1  0  0  0  0
 30 27  1  0  0  0  0
 30 29  2  0  0  0  0
 31 29  1  0  0  0  0
 31 25  1  0  0  0  0
 33 38  1  0  0  0  0
 34 13  1  0  0  0  0
 34 32  2  0  0  0  0
 35 37  1  6  0  0  0
 35 38  1  0  0  0  0
 36 33  1  0  0  0  0
 38 34  1  0  0  0  0
 39 36  1  0  0  0  0
 39 35  1  0  0  0  0
M  END
>  <MODEL>
5

>  <REMARK>
 VINA RESULT:      -8.0      3.368      5.759
  Name = 
  2 active torsions:
  status: ('A' for Active; 'I' for Inactive)
    1  A    between atoms: C_19  and  C_20
    2  A    between atoms: C_26  and  C_34
                            x       y       z     vdW  Elec       q    Type
                         _______ _______ _______ _____ _____    ______ ____

>  <TORSDO>
F 2

$$$$
=
 OpenBabel11072409263D

 39 46  0  0  1  0  0  0  0  0999 V2000
  188.1010  176.8480  142.3530 C   0  0  0  0  0  3  0  0  0  0  0  0
  188.0670  175.0780  140.6780 C   0  0  0  0  0  0  0  0  0  0  0  0
  187.4860  177.7170  141.4520 C   0  0  0  0  0  3  0  0  0  0  0  0
  191.3250  175.6110  143.5880 C   0  0  0  0  0  0  0  0  0  0  0  0
  189.2290  172.7990  140.9910 C   0  0  0  0  0  2  0  0  0  0  0  0
  189.1010  174.6660  142.9740 C   0  0  0  0  0  2  0  0  0  0  0  0
  192.6860  172.9340  139.4590 C   0  0  0  0  0  3  0  0  0  0  0  0
  191.2550  174.1460  141.6380 C   0  0  0  0  0  0  0  0  0  0  0  0
  193.2830  175.4370  142.2050 C   0  0  0  0  0  3  0  0  0  0  0  0
  188.3860  175.5280  141.9840 C   0  0  0  0  0  0  0  0  0  0  0  0
  192.6160  174.5170  141.3860 C   0  0  0  0  0  0  0  0  0  0  0  0
  192.6140  175.9620  143.2950 C   0  0  0  0  0  0  0  0  0  0  0  0
  191.4300  172.5700  139.7140 C   0  0  0  0  0  0  0  0  0  0  0  0
  188.2730  173.6690  140.1780 C   0  0  0  0  0  2  0  0  0  0  0  0
  190.6610  173.2260  140.8150 C   0  0  0  0  0  0  0  0  0  0  0  0
  193.0700  176.8630  144.0950 N   0  0  0  0  0  0  0  0  0  0  0  0
  193.3660  174.0520  140.1740 C   0  0  0  0  0  2  0  0  0  0  0  0
  192.0610  177.1660  145.0220 N   0  0  0  0  0  0  0  0  0  0  0  0
  187.1530  177.2740  140.1730 C   0  0  0  0  0  3  0  0  0  0  0  0
  191.0170  176.4450  144.7580 C   0  0  0  0  0  0  0  0  0  0  0  0
  190.5810  174.7600  142.7540 C   0  0  0  0  0  0  0  0  0  0  0  0
  187.4400  175.9630  139.7920 C   0  0  0  0  0  3  0  0  0  0  0  0
  189.5750  175.3460  146.4730 C   0  0  0  0  0  3  0  0  0  0  0  0
  188.4140  175.2910  147.2630 C   0  0  0  0  0  3  0  0  0  0  0  0
  185.7470  177.7660  147.3800 C   0  0  0  0  0  2  0  0  0  0  0  0
  186.3180  176.5260  147.8210 O   0  0  0  0  0  0  0  0  0  0  0  0
  189.8190  176.4480  145.6170 C   0  0  0  0  0  0  0  0  0  0  0  0
  187.5190  176.3530  147.1640 C   0  0  0  0  0  0  0  0  0  0  0  0
  187.7390  177.4040  146.3360 C   0  0  0  0  0  0  0  0  0  0  0  0
  188.8740  177.4890  145.5360 C   0  0  0  0  0  3  0  0  0  0  0  0
  186.6850  178.2910  146.4310 O   0  0  0  0  0  0  0  0  0  0  0  0
  190.4460  170.4200  139.5380 O   0  0  0  0  0  0  0  0  0  0  0  0
  190.5360  170.3070  136.6980 C   0  0  0  0  0  2  0  0  0  0  0  0
  190.8640  171.4440  138.9310 C   0  0  0  0  0  0  0  0  0  0  0  0
  190.9820  172.6820  136.6930 C   0  0  1  0  0  3  0  0  0  0  0  0
  190.4410  170.7910  135.2630 C   0  0  0  0  0  2  0  0  0  0  0  0
  189.5900  173.8270  136.9450 S   0  0  0  0  0  1  0  0  0  0  0  0
  190.7910  171.4870  137.4940 N   0  0  0  0  0  0  0  0  0  0  0  0
  190.9890  172.2090  135.2530 C   0  0  0  0  0  2  0  0  0  0  0  0
  2 10  2  0  0  0  0
  3  1  2  0  0  0  0
  4 20  1  0  0  0  0
  7 13  2  0  0  0  0
  7 17  1  0  0  0  0
  8 21  1  0  0  0  0
  9 12  1  0  0  0  0
 10  1  1  0  0  0  0
 10  6  1  0  0  0  0
 11  8  1  0  0  0  0
 11  9  2  0  0  0  0
 12  4  1  0  0  0  0
 12 16  2  0  0  0  0
 13 15  1  0  0  0  0
 14  2  1  0  0  0  0
 14  5  1  0  0  0  0
 15  5  1  0  0  0  0
 15  8  2  0  0  0  0
 16 18  1  0  0  0  0
 17 11  1  0  0  0  0
 19  3  1  0  0  0  0
 20 18  2  0  0  0  0
 20 27  1  0  0  0  0
 21  6  1  0  0  0  0
 21  4  2  0  0  0  0
 22 19  2  0  0  0  0
 22  2  1  0  0  0  0
 23 24  1  0  0  0  0
 25 26  1  0  0  0  0
 27 23  2  0  0  0  0
 28 24  2  0  0  0  0
 28 26  1  0  0  0  0
 29 31  1  0  0  0  0
 29 28  1  0  0  0  0
 30 27  1  0  0  0  0
 30 29  2  0  0  0  0
 31 25  1  0  0  0  0
 33 38  1  0  0  0  0
 34 32  2  0  0  0  0
 34 13  1  0  0  0  0
 35 37  1  6  0  0  0
 35 38  1  0  0  0  0
 36 33  1  0  0  0  0
 38 34  1  0  0  0  0
 39 36  1  0  0  0  0
 39 35  1  0  0  0  0
M  END
>  <MODEL>
6

>  <REMARK>
 VINA RESULT:      -7.9      3.532      6.030
  Name = 
  2 active torsions:
  status: ('A' for Active; 'I' for Inactive)
    1  A    between atoms: C_19  and  C_20
    2  A    between atoms: C_26  and  C_34
                            x       y       z     vdW  Elec       q    Type
                         _______ _______ _______ _____ _____    ______ ____

>  <TORSDO>
F 2

$$$$
=
 OpenBabel11072409263D

 39 46  0  0  1  0  0  0  0  0999 V2000
  192.7460  173.0080  142.6900 C   0  0  0  0  0  3  0  0  0  0  0  0
  190.3740  173.4350  142.3270 C   0  0  0  0  0  0  0  0  0  0  0  0
  192.5090  171.6340  142.6470 C   0  0  0  0  0  3  0  0  0  0  0  0
  192.9350  175.9430  144.8810 C   0  0  0  0  0  0  0  0  0  0  0  0
  189.3160  175.7820  142.4480 C   0  0  0  0  0  2  0  0  0  0  0  0
  192.0050  175.3730  142.6380 C   0  0  0  0  0  2  0  0  0  0  0  0
  187.9560  176.3650  145.9300 C   0  0  0  0  0  3  0  0  0  0  0  0
  190.5060  175.9860  144.6570 C   0  0  0  0  0  0  0  0  0  0  0  0
  191.5980  176.1910  146.8630 C   0  0  0  0  0  3  0  0  0  0  0  0
  191.6940  173.9150  142.5210 C   0  0  0  0  0  0  0  0  0  0  0  0
  190.4380  176.1630  146.0780 C   0  0  0  0  0  0  0  0  0  0  0  0
  192.8250  176.0810  146.2370 C   0  0  0  0  0  0  0  0  0  0  0  0
  188.0240  176.2300  144.6060 C   0  0  0  0  0  0  0  0  0  0  0  0
  189.1680  174.3070  142.0790 C   0  0  0  0  0  2  0  0  0  0  0  0
  189.3390  175.9860  143.9380 C   0  0  0  0  0  0  0  0  0  0  0  0
  193.9690  176.0250  146.8290 N   0  0  0  0  0  0  0  0  0  0  0  0
  189.1390  176.1990  146.8230 C   0  0  0  0  0  2  0  0  0  0  0  0
  194.9540  175.8500  145.8450 N   0  0  0  0  0  0  0  0  0  0  0  0
  191.2160  171.1560  142.4380 C   0  0  0  0  0  3  0  0  0  0  0  0
  194.3840  175.8000  144.6830 C   0  0  0  0  0  0  0  0  0  0  0  0
  191.8050  175.8220  144.0550 C   0  0  0  0  0  0  0  0  0  0  0  0
  190.1590  172.0520  142.2760 C   0  0  0  0  0  3  0  0  0  0  0  0
  195.0570  176.7910  142.4930 C   0  0  0  0  0  3  0  0  0  0  0  0
  195.7350  176.7300  141.2630 C   0  0  0  0  0  3  0  0  0  0  0  0
  197.8270  174.0020  140.0670 C   0  0  0  0  0  2  0  0  0  0  0  0
  197.2350  175.2950  139.8780 O   0  0  0  0  0  0  0  0  0  0  0  0
  195.1550  175.7320  143.4280 C   0  0  0  0  0  0  0  0  0  0  0  0
  196.4940  175.5930  141.0030 C   0  0  0  0  0  0  0  0  0  0  0  0
  196.5800  174.5690  141.8870 C   0  0  0  0  0  0  0  0  0  0  0  0
  195.9190  174.5910  143.1110 C   0  0  0  0  0  3  0  0  0  0  0  0
  197.3810  173.5750  141.3600 O   0  0  0  0  0  0  0  0  0  0  0  0
  186.3310  175.4560  143.1390 O   0  0  0  0  0  0  0  0  0  0  0  0
  185.0400  177.9750  142.8540 C   0  0  0  0  0  2  0  0  0  0  0  0
  186.7760  176.4160  143.8260 C   0  0  0  0  0  0  0  0  0  0  0  0
  186.3080  178.7540  144.7590 C   0  0  1  0  0  3  0  0  0  0  0  0
  184.4860  179.3290  143.2540 C   0  0  0  0  0  2  0  0  0  0  0  0
  185.7550  178.2740  146.4250 S   0  0  0  0  0  1  0  0  0  0  0  0
  186.0680  177.6680  143.8250 N   0  0  0  0  0  0  0  0  0  0  0  0
  185.4630  179.9110  144.2630 C   0  0  0  0  0  2  0  0  0  0  0  0
  2 10  1  0  0  0  0
  3  1  1  0  0  0  0
  4 12  1  0  0  0  0
  5 15  1  0  0  0  0
  6 21  1  0  0  0  0
  7 17  1  0  0  0  0
  8 11  1  0  0  0  0
 10  6  1  0  0  0  0
 10  1  2  0  0  0  0
 11 17  1  0  0  0  0
 11  9  2  0  0  0  0
 12 16  2  0  0  0  0
 12  9  1  0  0  0  0
 13  7  2  0  0  0  0
 14  2  1  0  0  0  0
 14  5  1  0  0  0  0
 15 13  1  0  0  0  0
 15  8  2  0  0  0  0
 18 16  1  0  0  0  0
 19  3  2  0  0  0  0
 20  4  1  0  0  0  0
 20 18  2  0  0  0  0
 21  8  1  0  0  0  0
 21  4  2  0  0  0  0
 22  2  2  0  0  0  0
 22 19  1  0  0  0  0
 23 27  1  0  0  0  0
 24 23  2  0  0  0  0
 25 31  1  0  0  0  0
 26 25  1  0  0  0  0
 26 28  1  0  0  0  0
 27 20  1  0  0  0  0
 28 24  1  0  0  0  0
 28 29  2  0  0  0  0
 29 30  1  0  0  0  0
 30 27  2  0  0  0  0
 31 29  1  0  0  0  0
 32 34  2  0  0  0  0
 33 36  1  0  0  0  0
 33 38  1  0  0  0  0
 34 13  1  0  0  0  0
 35 37  1  1  0  0  0
 36 39  1  0  0  0  0
 38 34  1  0  0  0  0
 38 35  1  0  0  0  0
 39 35  1  0  0  0  0
M  END
>  <MODEL>
7

>  <REMARK>
 VINA RESULT:      -7.7      2.923      8.643
  Name = 
  2 active torsions:
  status: ('A' for Active; 'I' for Inactive)
    1  A    between atoms: C_19  and  C_20
    2  A    between atoms: C_26  and  C_34
                            x       y       z     vdW  Elec       q    Type
                         _______ _______ _______ _____ _____    ______ ____

>  <TORSDO>
F 2

$$$$
=
 OpenBabel11072409263D

 39 46  0  0  1  0  0  0  0  0999 V2000
  195.3680  173.6670  144.4220 C   0  0  0  0  0  3  0  0  0  0  0  0
  193.6260  175.2130  145.1360 C   0  0  0  0  0  0  0  0  0  0  0  0
  196.1370  174.7380  143.9660 C   0  0  0  0  0  3  0  0  0  0  0  0
  192.8050  171.2160  143.4880 C   0  0  0  0  0  0  0  0  0  0  0  0
  191.3200  174.4570  146.0050 C   0  0  0  0  0  2  0  0  0  0  0  0
  193.3210  172.6970  145.4270 C   0  0  0  0  0  2  0  0  0  0  0  0
  188.8500  174.4260  143.1400 C   0  0  0  0  0  3  0  0  0  0  0  0
  191.2320  173.0260  143.9360 C   0  0  0  0  0  0  0  0  0  0  0  0
  191.0790  171.6680  141.8780 C   0  0  0  0  0  3  0  0  0  0  0  0
  194.1220  173.8900  145.0160 C   0  0  0  0  0  0  0  0  0  0  0  0
  190.5900  172.6930  142.6990 C   0  0  0  0  0  0  0  0  0  0  0  0
  192.1820  170.9500  142.3000 C   0  0  0  0  0  0  0  0  0  0  0  0
  189.4320  174.7130  144.3030 C   0  0  0  0  0  0  0  0  0  0  0  0
  192.3250  175.5890  145.8040 C   0  0  0  0  0  2  0  0  0  0  0  0
  190.6970  174.0250  144.7060 C   0  0  0  0  0  0  0  0  0  0  0  0
  192.7820  170.0290  141.6280 N   0  0  0  0  0  0  0  0  0  0  0  0
  189.4470  173.4890  142.1450 C   0  0  0  0  0  3  0  0  0  0  0  0
  193.8880  169.6000  142.3780 N   0  0  0  0  0  0  0  0  0  0  0  0
  195.6630  176.0420  144.0990 C   0  0  0  0  0  3  0  0  0  0  0  0
  193.9330  170.2750  143.4830 C   0  0  0  0  0  0  0  0  0  0  0  0
  192.4110  172.2860  144.3090 C   0  0  1  0  0  3  0  0  0  0  0  0
  194.4180  176.2750  144.6830 C   0  0  0  0  0  3  0  0  0  0  0  0
  196.2530  170.4310  144.3910 C   0  0  0  0  0  3  0  0  0  0  0  0
  197.2280  170.1230  145.3560 C   0  0  0  0  0  3  0  0  0  0  0  0
  196.7450  168.1660  148.3870 C   0  0  0  0  0  2  0  0  0  0  0  0
  197.5920  168.9290  147.5170 O   0  0  0  0  0  0  0  0  0  0  0  0
  194.9170  169.9860  144.5430 C   0  0  0  0  0  0  0  0  0  0  0  0
  196.8300  169.3640  146.4530 C   0  0  0  0  0  0  0  0  0  0  0  0
  195.5560  168.9220  146.5970 C   0  0  0  0  0  0  0  0  0  0  0  0
  194.5670  169.2020  145.6600 C   0  0  0  0  0  3  0  0  0  0  0  0
  195.4550  168.1860  147.7610 O   0  0  0  0  0  0  0  0  0  0  0  0
  188.8110  175.4900  146.4550 O   0  0  0  0  0  0  0  0  0  0  0  0
  187.0560  177.5230  145.5180 C   0  0  0  0  0  2  0  0  0  0  0  0
  188.7400  175.6640  145.2080 C   0  0  0  0  0  0  0  0  0  0  0  0
  188.0280  177.2440  143.3230 C   0  0  1  0  0  3  0  0  0  0  0  0
  186.5420  178.6480  144.6400 C   0  0  0  0  0  2  0  0  0  0  0  0
  189.6450  178.0070  142.9860 S   0  0  0  0  0  1  0  0  0  0  0  0
  187.9790  176.7730  144.6950 N   0  0  0  0  0  0  0  0  0  0  0  0
  186.9440  178.2970  143.2160 C   0  0  0  0  0  2  0  0  0  0  0  0
  1 10  1  0  0  0  0
  2 14  1  0  0  0  0
  3 19  1  0  0  0  0
  3  1  2  0  0  0  0
  4 21  1  0  0  0  0
  7 13  1  0  0  0  0
  8 21  1  0  0  0  0
  8 15  1  0  0  0  0
  9 12  2  0  0  0  0
  9 11  1  0  0  0  0
 10  2  2  0  0  0  0
 10  6  1  0  0  0  0
 11  8  2  0  0  0  0
 12  4  1  0  0  0  0
 13 15  2  0  0  0  0
 13 34  1  0  0  0  0
 14  5  1  0  0  0  0
 15  5  1  0  0  0  0
 16 12  1  0  0  0  0
 16 18  2  0  0  0  0
 17 11  1  0  0  0  0
 17  7  2  0  0  0  0
 18 20  1  0  0  0  0
 19 22  2  0  0  0  0
 20  4  2  0  0  0  0
 20 27  1  0  0  0  0
 21  6  1  6  0  0  0
 22  2  1  0  0  0  0
 23 27  2  0  0  0  0
 23 24  1  0  0  0  0
 24 28  2  0  0  0  0
 26 25  1  0  0  0  0
 27 30  1  0  0  0  0
 28 29  1  0  0  0  0
 28 26  1  0  0  0  0
 29 31  1  0  0  0  0
 30 29  2  0  0  0  0
 31 25  1  0  0  0  0
 34 32  2  0  0  0  0
 35 37  1  1  0  0  0
 35 38  1  0  0  0  0
 36 33  1  0  0  0  0
 38 34  1  0  0  0  0
 38 33  1  0  0  0  0
 39 35  1  0  0  0  0
 39 36  1  0  0  0  0
M  END
>  <MODEL>
8

>  <REMARK>
 VINA RESULT:      -7.3      3.322      8.529
  Name = 
  2 active torsions:
  status: ('A' for Active; 'I' for Inactive)
    1  A    between atoms: C_19  and  C_20
    2  A    between atoms: C_26  and  C_34
                            x       y       z     vdW  Elec       q    Type
                         _______ _______ _______ _____ _____    ______ ____

>  <TORSDO>
F 2

$$$$
=
 OpenBabel11072409263D

 39 46  0  0  1  0  0  0  0  0999 V2000
  188.2240  175.6530  142.0090 C   0  0  0  0  0  3  0  0  0  0  0  0
  188.9040  173.4370  141.2560 C   0  0  0  0  0  0  0  0  0  0  0  0
  187.7460  175.9450  140.7310 C   0  0  0  0  0  3  0  0  0  0  0  0
  191.1520  175.8000  144.2110 C   0  0  0  0  0  0  0  0  0  0  0  0
  190.2720  171.8010  142.7030 C   0  0  0  0  0  2  0  0  0  0  0  0
  189.3410  174.1780  143.6590 C   0  0  0  0  0  2  0  0  0  0  0  0
  193.9500  172.2010  141.9110 C   0  0  0  0  0  3  0  0  0  0  0  0
  191.8250  173.7460  143.0800 C   0  0  0  0  0  0  0  0  0  0  0  0
  193.4110  175.6110  143.4100 C   0  0  0  0  0  3  0  0  0  0  0  0
  188.7930  174.4050  142.2870 C   0  0  0  0  0  0  0  0  0  0  0  0
  193.1320  174.3180  142.9470 C   0  0  0  0  0  0  0  0  0  0  0  0
  192.4040  176.3220  144.0360 C   0  0  0  0  0  0  0  0  0  0  0  0
  192.7420  171.6610  142.0630 C   0  0  0  0  0  0  0  0  0  0  0  0
  189.4460  172.0410  141.4420 C   0  0  0  0  0  2  0  0  0  0  0  0
  191.6180  172.4690  142.6270 C   0  0  0  0  0  0  0  0  0  0  0  0
  192.4900  177.5380  144.4530 N   0  0  0  0  0  0  0  0  0  0  0  0
  194.2380  173.6350  142.2010 C   0  0  0  0  0  2  0  0  0  0  0  0
  191.2370  177.9060  144.9670 N   0  0  0  0  0  0  0  0  0  0  0  0
  187.8370  174.9890  139.7190 C   0  0  0  0  0  3  0  0  0  0  0  0
  190.4230  176.9060  144.8450 C   0  0  0  0  0  0  0  0  0  0  0  0
  190.7940  174.5450  143.6920 C   0  0  0  0  0  0  0  0  0  0  0  0
  188.4090  173.7450  139.9840 C   0  0  0  0  0  3  0  0  0  0  0  0
  188.7230  176.0950  146.4830 C   0  0  0  0  0  3  0  0  0  0  0  0
  187.4130  176.0550  146.9900 C   0  0  0  0  0  3  0  0  0  0  0  0
  184.5480  177.9330  145.7570 C   0  0  0  0  0  2  0  0  0  0  0  0
  185.1220  176.9960  146.6790 O   0  0  0  0  0  0  0  0  0  0  0  0
  189.0540  176.9340  145.3910 C   0  0  0  0  0  0  0  0  0  0  0  0
  186.4610  176.8640  146.3750 C   0  0  0  0  0  0  0  0  0  0  0  0
  186.7670  177.6590  145.3200 C   0  0  0  0  0  0  0  0  0  0  0  0
  188.0510  177.7190  144.7880 C   0  0  0  0  0  3  0  0  0  0  0  0
  185.6330  178.3300  144.9070 O   0  0  0  0  0  0  0  0  0  0  0  0
  192.1800  169.4300  142.6320 O   0  0  0  0  0  0  0  0  0  0  0  0
  193.0290  168.2930  140.1670 C   0  0  0  0  0  2  0  0  0  0  0  0
  192.5800  170.2220  141.7370 C   0  0  0  0  0  0  0  0  0  0  0  0
  193.0920  170.5270  139.2470 C   0  0  1  0  0  3  0  0  0  0  0  0
  193.2430  168.1690  138.6710 C   0  0  0  0  0  2  0  0  0  0  0  0
  191.5250  171.3020  138.7430 S   0  0  0  0  0  1  0  0  0  0  0  0
  192.8820  169.7080  140.4270 N   0  0  0  0  0  0  0  0  0  0  0  0
  193.5500  169.5690  138.1650 C   0  0  0  0  0  2  0  0  0  0  0  0
  1 10  1  0  0  0  0
  2 14  1  0  0  0  0
  2 10  2  0  0  0  0
  3  1  2  0  0  0  0
  4 20  1  0  0  0  0
  6 21  1  0  0  0  0
  7 13  2  0  0  0  0
  7 17  1  0  0  0  0
  8 21  1  0  0  0  0
  9 12  1  0  0  0  0
 10  6  1  0  0  0  0
 11  8  1  0  0  0  0
 11  9  2  0  0  0  0
 12  4  1  0  0  0  0
 12 16  2  0  0  0  0
 13 15  1  0  0  0  0
 14  5  1  0  0  0  0
 15  5  1  0  0  0  0
 15  8  2  0  0  0  0
 16 18  1  0  0  0  0
 17 11  1  0  0  0  0
 19 22  2  0  0  0  0
 19  3  1  0  0  0  0
 20 18  2  0  0  0  0
 20 27  1  0  0  0  0
 21  4  2  0  0  0  0
 22  2  1  0  0  0  0
 23 24  1  0  0  0  0
 25 26  1  0  0  0  0
 27 23  2  0  0  0  0
 28 26  1  0  0  0  0
 28 24  2  0  0  0  0
 29 28  1  0  0  0  0
 30 29  2  0  0  0  0
 30 27  1  0  0  0  0
 31 29  1  0  0  0  0
 31 25  1  0  0  0  0
 33 38  1  0  0  0  0
 34 13  1  0  0  0  0
 34 32  2  0  0  0  0
 35 37  1  6  0  0  0
 35 38  1  0  0  0  0
 36 33  1  0  0  0  0
 38 34  1  0  0  0  0
 39 36  1  0  0  0  0
 39 35  1  0  0  0  0
M  END
>  <MODEL>
9

>  <REMARK>
 VINA RESULT:      -7.1      2.839      5.172
  Name = 
  2 active torsions:
  status: ('A' for Active; 'I' for Inactive)
    1  A    between atoms: C_19  and  C_20
    2  A    between atoms: C_26  and  C_34
                            x       y       z     vdW  Elec       q    Type
                         _______ _______ _______ _____ _____    ______ ____

>  <TORSDO>
F 2

$$$$
