=
 OpenBabel11062420183D

 61 67  0  0  1  0  0  0  0  0999 V2000
  189.3120  175.4010  144.1310 C   0  0  0  0  0  2  0  0  0  0  0  0
  187.4020  176.8380  144.2360 O   0  0  0  0  0  0  0  0  0  0  0  0
  188.9180  177.5390  141.8450 C   0  0  0  0  0  1  0  0  0  0  0  0
  186.6790  176.4920  141.4880 C   0  0  0  0  0  2  0  0  0  0  0  0
  186.0380  176.8360  143.8840 C   0  0  2  0  0  3  0  0  0  0  0  0
  188.1110  176.2390  141.9940 C   0  0  2  0  0  0  0  0  0  0  0  0
  185.8630  177.3580  142.4500 C   0  0  0  0  0  2  0  0  0  0  0  0
  188.0030  175.8200  143.4770 C   0  0  1  0  0  3  0  0  0  0  0  0
  185.0200  178.9680  144.3180 O   0  0  0  0  0  1  0  0  0  0  0  0
  185.2390  177.6920  144.8670 C   0  0  2  0  0  3  0  0  0  0  0  0
  185.9760  177.8350  146.2000 C   0  0  2  0  0  3  0  0  0  0  0  0
  185.6660  176.7690  147.0520 O   0  0  0  0  0  1  0  0  0  0  0  0
  185.6000  179.1410  146.8750 C   0  0  0  0  0  1  0  0  0  0  0  0
  188.6630  175.0790  141.1480 C   0  0  0  0  0  2  0  0  0  0  0  0
  192.5050  174.1980  139.8330 C   0  0  0  0  0  2  0  0  0  0  0  0
  190.5630  173.3420  141.1000 C   0  0  2  0  0  0  0  0  0  0  0  0
  191.6710  173.3440  138.8940 C   0  0  1  0  0  3  0  0  0  0  0  0
  189.6210  171.1000  138.3510 C   0  0  0  0  0  2  0  0  0  0  0  0
  191.9440  174.0100  141.2390 C   0  0  2  0  0  3  0  0  0  0  0  0
  188.5890  172.9840  142.3830 O   0  0  0  0  0  0  0  0  0  0  0  0
  189.4260  171.8710  142.6020 C   0  0  0  0  0  2  0  0  0  0  0  0
  189.4410  173.9930  141.9110 C   0  0  2  0  0  3  0  0  0  0  0  0
  192.1290  171.2140  137.1670 S   0  0  0  0  0  0  0  0  0  0  0  0
  190.6190  171.9530  141.6730 C   0  0  0  0  0  2  0  0  0  0  0  0
  192.3220  171.9680  138.8190 C   0  0  0  0  0  2  0  0  0  0  0  0
  189.1810  172.3710  139.0850 C   0  0  1  0  0  3  0  0  0  0  0  0
  190.3120  173.2970  139.5890 C   0  0  1  0  0  3  0  0  0  0  0  0
  190.3200  171.4250  137.0390 C   0  0  0  0  0  2  0  0  0  0  0  0
  191.9510  175.3490  141.9680 C   0  0  0  0  0  1  0  0  0  0  0  0
  188.7440  174.3260  137.7780 O   0  0  0  0  0  1  0  0  0  0  0  0
  188.1580  173.1700  138.2890 C   0  0  0  0  0  2  0  0  0  0  0  0
  190.2570  176.8710  145.9400 C   0  0  2  0  0  3  0  0  0  0  0  0
  189.2840  175.7350  145.6260 C   0  0  2  0  0  3  0  0  0  0  0  0
  190.5940  175.4400  146.3620 C   0  0  2  0  0  0  0  0  0  0  0  0
  189.6890  177.7250  147.0620 C   0  0  0  0  0  1  0  0  0  0  0  0
  191.5440  175.0710  148.5270 O   0  0  0  0  0  1  0  0  0  0  0  0
  190.3550  175.0120  147.8070 C   0  0  0  0  0  2  0  0  0  0  0  0
  191.6940  174.7070  145.5760 C   0  0  0  0  0  2  0  0  0  0  0  0
  192.8310  175.6070  145.0750 C   0  0  0  0  0  2  0  0  0  0  0  0
  194.1280  175.5150  145.8840 C   0  0  1  0  0  3  0  0  0  0  0  0
  194.8060  174.3740  143.6840 C   0  0  2  0  0  3  0  0  0  0  0  0
  195.0920  172.1360  144.2090 C   0  0  1  0  0  3  0  0  0  0  0  0
  196.0310  173.7510  145.8310 C   0  0  0  0  0  2  0  0  0  0  0  0
  195.2530  174.8390  145.0810 C   0  0  2  0  0  3  0  0  0  0  0  0
  194.1870  173.0980  143.7090 O   0  0  0  0  0  0  0  0  0  0  0  0
  195.3660  172.3900  145.6850 C   0  0  0  0  0  2  0  0  0  0  0  0
  193.1380  170.7820  144.3380 O   0  0  0  0  0  1  0  0  0  0  0  0
  194.5020  170.7520  144.0370 C   0  0  0  0  0  2  0  0  0  0  0  0
  195.9560  174.4240  142.6800 C   0  0  0  0  0  2  0  0  0  0  0  0
  195.7050  175.4800  141.6140 C   0  0  1  0  0  3  0  0  0  0  0  0
  196.1380  176.7160  142.0840 O   0  0  0  0  0  1  0  0  0  0  0  0
  197.3290  175.9190  139.9010 O   0  0  0  0  0  0  0  0  0  0  0  0
  196.4150  175.1640  140.3330 C   0  0  0  0  0  0  0  0  0  0  0  0
  195.9870  174.0410  139.5650 N   0  0  0  0  0  2  0  0  0  0  0  0
  196.4080  173.8590  138.1800 C   0  0  0  0  0  2  0  0  0  0  0  0
  196.0760  175.6600  136.6070 O   0  0  0  0  0  0  0  0  0  0  0  0
  196.0100  174.4840  135.8390 C   0  0  0  0  0  2  0  0  0  0  0  0
  195.4540  174.5490  137.2140 C   0  0  1  0  0  3  0  0  0  0  0  0
  194.5110  176.8130  146.6140 C   0  0  0  0  0  3  0  0  0  0  0  0
  193.4400  177.2560  147.3850 O   0  0  0  0  0  1  0  0  0  0  0  0
  194.8470  177.8100  145.7000 O   0  0  0  0  0  1  0  0  0  0  0  0
  1 33  1  0  0  0  0
  4  6  1  0  0  0  0
  4  7  1  0  0  0  0
  5  2  1  0  0  0  0
  5 10  1  1  0  0  0
  6  3  1  6  0  0  0
  6  8  1  0  0  0  0
  7  5  1  0  0  0  0
  8  1  1  1  0  0  0
  8  2  1  0  0  0  0
 10  9  1  6  0  0  0
 10 11  1  0  0  0  0
 11 13  1  1  0  0  0
 11 12  1  0  0  0  0
 14  6  1  0  0  0  0
 15 19  1  0  0  0  0
 16 19  1  0  0  0  0
 16 24  1  1  0  0  0
 16 22  1  0  0  0  0
 17 25  1  1  0  0  0
 17 27  1  0  0  0  0
 17 15  1  0  0  0  0
 18 26  1  0  0  0  0
 19 29  1  6  0  0  0
 20 21  1  0  0  0  0
 22 14  1  6  0  0  0
 22 20  1  0  0  0  0
 23 25  1  0  0  0  0
 24 21  1  0  0  0  0
 26 31  1  6  0  0  0
 26 27  1  0  0  0  0
 27 16  1  0  0  0  0
 28 23  1  0  0  0  0
 28 18  1  0  0  0  0
 30 31  1  0  0  0  0
 32 34  1  0  0  0  0
 32 35  1  0  0  0  0
 33 32  1  0  0  0  0
 33 34  1  0  0  0  0
 34 37  1  0  0  0  0
 37 36  1  0  0  0  0
 38 34  1  0  0  0  0
 39 38  1  0  0  0  0
 39 40  1  0  0  0  0
 40 59  1  0  0  0  0
 41 45  1  0  0  0  0
 41 44  1  0  0  0  0
 42 46  1  0  0  0  0
 44 43  1  0  0  0  0
 44 40  1  0  0  0  0
 45 42  1  0  0  0  0
 46 43  1  0  0  0  0
 48 42  1  0  0  0  0
 48 47  1  0  0  0  0
 49 41  1  0  0  0  0
 50 51  1  0  0  0  0
 50 49  1  0  0  0  0
 52 53  2  0  0  0  0
 53 50  1  0  0  0  0
 54 53  1  0  0  0  0
 55 54  1  0  0  0  0
 56 58  1  0  0  0  0
 57 56  1  0  0  0  0
 57 58  1  0  0  0  0
 58 55  1  0  0  0  0
 59 60  1  0  0  0  0
 61 59  1  0  0  0  0
M  END
>  <MODEL>
1

>  <REMARK>
 VINA RESULT:      -7.0      0.000      0.000
  Name = 
  19 active torsions:
  status: ('A' for Active; 'I' for Inactive)
    1  A    between atoms: C_2  and  C_11
    2  A    between atoms: C_4  and  C_57
    3  A    between atoms: C_5  and  C_12
    4  A    between atoms: C_6  and  C_41
    5  A    between atoms: C_6  and  C_44
    6  A    between atoms: C_8  and  C_24
    7  A    between atoms: C_9  and  C_17
    8  A    between atoms: C_9  and  C_23
    9  A    between atoms: C_11  and  C_19
   10  A    between atoms: C_11  and  C_45
   11  A    between atoms: C_12  and  C_25
   12  A    between atoms: C_17  and  C_19
   13  A    between atoms: C_22  and  C_25
   14  A    between atoms: C_24  and  C_47
   15  A    between atoms: N_27  and  C_55
   16  A    between atoms: C_38  and  C_57
   17  A    between atoms: C_39  and  C_51
   18  A    between atoms: C_42  and  C_50
   19  A    between atoms: C_55  and  C_56
                            x       y       z     vdW  Elec       q    Type
                         _______ _______ _______ _____ _____    ______ ____

>  <TORSDO>
F 19

$$$$
=
 OpenBabel11062420183D

 61 67  0  0  1  0  0  0  0  0999 V2000
  191.2960  173.7610  139.7500 C   0  0  0  0  0  2  0  0  0  0  0  0
  191.4090  172.3730  137.8050 O   0  0  0  0  0  0  0  0  0  0  0  0
  193.2840  174.5770  137.4400 C   0  0  0  0  0  1  0  0  0  0  0  0
  194.2700  172.3000  137.7170 C   0  0  0  0  0  2  0  0  0  0  0  0
  192.0480  171.2000  137.3610 C   0  0  2  0  0  3  0  0  0  0  0  0
  193.5030  173.4250  138.4340 C   0  0  2  0  0  0  0  0  0  0  0  0
  193.3960  171.5460  136.7110 C   0  0  0  0  0  2  0  0  0  0  0  0
  192.1550  172.8330  138.9030 C   0  0  1  0  0  3  0  0  0  0  0  0
  190.1500  171.3150  135.8930 O   0  0  0  0  0  1  0  0  0  0  0  0
  191.1530  170.4530  136.3710 C   0  0  2  0  0  3  0  0  0  0  0  0
  190.5000  169.2350  137.0280 C   0  0  2  0  0  3  0  0  0  0  0  0
  189.4570  169.6300  137.8740 O   0  0  0  0  0  1  0  0  0  0  0  0
  191.5250  168.4530  137.8280 C   0  0  0  0  0  1  0  0  0  0  0  0
  194.3640  173.8220  139.6460 C   0  0  0  0  0  2  0  0  0  0  0  0
  194.9960  171.3830  142.9490 C   0  0  0  0  0  2  0  0  0  0  0  0
  196.1040  172.7160  141.1880 C   0  0  2  0  0  0  0  0  0  0  0  0
  195.3190  172.7490  143.5290 C   0  0  1  0  0  3  0  0  0  0  0  0
  196.9550  175.3670  143.5790 C   0  0  0  0  0  2  0  0  0  0  0  0
  195.6790  171.2910  141.5880 C   0  0  2  0  0  3  0  0  0  0  0  0
  196.7620  173.9290  139.2470 O   0  0  0  0  0  0  0  0  0  0  0  0
  197.9410  173.4330  139.8380 C   0  0  0  0  0  2  0  0  0  0  0  0
  195.7310  173.1290  139.7620 C   0  0  2  0  0  3  0  0  0  0  0  0
  196.6090  173.7240  145.7900 S   0  0  0  0  0  0  0  0  0  0  0  0
  197.6050  172.8060  141.1750 C   0  0  0  0  0  2  0  0  0  0  0  0
  196.6030  172.6160  144.3380 C   0  0  0  0  0  2  0  0  0  0  0  0
  196.0510  175.0580  142.3820 C   0  0  1  0  0  3  0  0  0  0  0  0
  195.5150  173.6110  142.2830 C   0  0  1  0  0  3  0  0  0  0  0  0
  196.1980  175.2610  144.8940 C   0  0  0  0  0  2  0  0  0  0  0  0
  194.7530  170.5840  140.6060 C   0  0  0  0  0  1  0  0  0  0  0  0
  195.1430  176.9180  141.1820 O   0  0  0  0  0  1  0  0  0  0  0  0
  194.9090  176.0560  142.2510 C   0  0  0  0  0  2  0  0  0  0  0  0
  189.4700  173.8600  141.4770 C   0  0  2  0  0  3  0  0  0  0  0  0
  190.4070  172.9430  140.6910 C   0  0  2  0  0  3  0  0  0  0  0  0
  190.6580  173.2010  142.1790 C   0  0  2  0  0  0  0  0  0  0  0  0
  188.1460  173.1480  141.7090 C   0  0  0  0  0  1  0  0  0  0  0  0
  191.6420  171.4440  143.4720 O   0  0  0  0  0  1  0  0  0  0  0  0
  190.4260  171.9500  143.0230 C   0  0  0  0  0  2  0  0  0  0  0  0
  191.8530  174.0950  142.5470 C   0  0  0  0  0  2  0  0  0  0  0  0
  191.8000  174.6850  143.9620 C   0  0  0  0  0  2  0  0  0  0  0  0
  190.6260  175.6340  144.2200 C   0  0  1  0  0  3  0  0  0  0  0  0
  189.2290  176.5520  146.1720 C   0  0  2  0  0  3  0  0  0  0  0  0
  190.6630  176.6020  147.9910 C   0  0  1  0  0  3  0  0  0  0  0  0
  190.7810  174.5710  146.5830 C   0  0  0  0  0  2  0  0  0  0  0  0
  189.9280  175.3260  145.5570 C   0  0  2  0  0  3  0  0  0  0  0  0
  190.1160  177.3580  146.9310 O   0  0  0  0  0  0  0  0  0  0  0  0
  191.5930  175.5280  147.4440 C   0  0  0  0  0  2  0  0  0  0  0  0
  190.6760  178.6540  149.1980 O   0  0  0  0  0  1  0  0  0  0  0  0
  191.4390  177.5180  148.9140 C   0  0  0  0  0  2  0  0  0  0  0  0
  187.9990  176.1490  146.9820 C   0  0  0  0  0  2  0  0  0  0  0  0
  186.8530  177.1220  146.7570 C   0  0  1  0  0  3  0  0  0  0  0  0
  187.0900  178.2850  147.4840 O   0  0  0  0  0  1  0  0  0  0  0  0
  186.6190  178.6770  144.9420 O   0  0  0  0  0  0  0  0  0  0  0  0
  186.6900  177.4720  145.3090 C   0  0  0  0  0  0  0  0  0  0  0  0
  186.5320  176.4210  144.3580 N   0  0  0  0  0  2  0  0  0  0  0  0
  186.0600  176.6820  143.0030 C   0  0  0  0  0  2  0  0  0  0  0  0
  186.7370  176.8870  140.6950 O   0  0  0  0  0  0  0  0  0  0  0  0
  187.2150  178.0510  141.3240 C   0  0  0  0  0  2  0  0  0  0  0  0
  187.2150  176.7360  142.0130 C   0  0  1  0  0  3  0  0  0  0  0  0
  190.9390  177.1150  143.9520 C   0  0  0  0  0  3  0  0  0  0  0  0
  190.6840  177.4180  142.6170 O   0  0  0  0  0  1  0  0  0  0  0  0
  192.2770  177.3910  144.2260 O   0  0  0  0  0  1  0  0  0  0  0  0
  1 33  1  0  0  0  0
  2  8  1  0  0  0  0
  4  6  1  0  0  0  0
  5 10  1  6  0  0  0
  5  2  1  0  0  0  0
  6  3  1  6  0  0  0
  6  8  1  0  0  0  0
  6 14  1  0  0  0  0
  7  5  1  0  0  0  0
  7  4  1  0  0  0  0
  8  1  1  6  0  0  0
 10  9  1  1  0  0  0
 10 11  1  0  0  0  0
 11 13  1  1  0  0  0
 11 12  1  0  0  0  0
 16 24  1  1  0  0  0
 16 19  1  0  0  0  0
 16 27  1  0  0  0  0
 17 15  1  6  0  0  0
 17 25  1  0  0  0  0
 18 28  1  0  0  0  0
 19 29  1  6  0  0  0
 19 15  1  0  0  0  0
 20 22  1  0  0  0  0
 20 21  1  0  0  0  0
 21 24  1  0  0  0  0
 22 14  1  1  0  0  0
 22 16  1  0  0  0  0
 25 23  1  0  0  0  0
 26 31  1  1  0  0  0
 26 18  1  0  0  0  0
 27 26  1  0  0  0  0
 27 17  1  0  0  0  0
 28 23  1  0  0  0  0
 30 31  1  0  0  0  0
 32 35  1  0  0  0  0
 32 34  1  0  0  0  0
 33 32  1  0  0  0  0
 33 34  1  0  0  0  0
 34 38  1  0  0  0  0
 34 37  1  0  0  0  0
 37 36  1  0  0  0  0
 38 39  1  0  0  0  0
 39 40  1  0  0  0  0
 40 44  1  0  0  0  0
 41 45  1  0  0  0  0
 41 49  1  0  0  0  0
 42 48  1  0  0  0  0
 43 46  1  0  0  0  0
 44 41  1  0  0  0  0
 44 43  1  0  0  0  0
 45 42  1  0  0  0  0
 46 42  1  0  0  0  0
 48 47  1  0  0  0  0
 50 49  1  0  0  0  0
 50 51  1  0  0  0  0
 52 53  2  0  0  0  0
 53 50  1  0  0  0  0
 54 53  1  0  0  0  0
 55 54  1  0  0  0  0
 56 57  1  0  0  0  0
 56 58  1  0  0  0  0
 57 58  1  0  0  0  0
 58 55  1  0  0  0  0
 59 40  1  0  0  0  0
 59 61  1  0  0  0  0
 60 59  1  0  0  0  0
M  END
>  <MODEL>
2

>  <REMARK>
 VINA RESULT:      -6.8      2.806      8.412
  Name = 
  19 active torsions:
  status: ('A' for Active; 'I' for Inactive)
    1  A    between atoms: C_2  and  C_11
    2  A    between atoms: C_4  and  C_57
    3  A    between atoms: C_5  and  C_12
    4  A    between atoms: C_6  and  C_41
    5  A    between atoms: C_6  and  C_44
    6  A    between atoms: C_8  and  C_24
    7  A    between atoms: C_9  and  C_17
    8  A    between atoms: C_9  and  C_23
    9  A    between atoms: C_11  and  C_19
   10  A    between atoms: C_11  and  C_45
   11  A    between atoms: C_12  and  C_25
   12  A    between atoms: C_17  and  C_19
   13  A    between atoms: C_22  and  C_25
   14  A    between atoms: C_24  and  C_47
   15  A    between atoms: N_27  and  C_55
   16  A    between atoms: C_38  and  C_57
   17  A    between atoms: C_39  and  C_51
   18  A    between atoms: C_42  and  C_50
   19  A    between atoms: C_55  and  C_56
                            x       y       z     vdW  Elec       q    Type
                         _______ _______ _______ _____ _____    ______ ____

>  <TORSDO>
F 19

$$$$
=
 OpenBabel11062420183D

 61 67  0  0  1  0  0  0  0  0999 V2000
  191.2780  173.5530  139.6450 C   0  0  0  0  0  2  0  0  0  0  0  0
  191.4780  172.4430  137.5340 O   0  0  0  0  0  0  0  0  0  0  0  0
  193.2350  174.7700  137.4900 C   0  0  0  0  0  1  0  0  0  0  0  0
  194.3380  172.5290  137.4770 C   0  0  0  0  0  2  0  0  0  0  0  0
  192.1810  171.3730  136.9470 C   0  0  2  0  0  3  0  0  0  0  0  0
  193.5080  173.5090  138.3260 C   0  0  2  0  0  0  0  0  0  0  0  0
  193.5120  171.8720  136.3680 C   0  0  0  0  0  2  0  0  0  0  0  0
  192.1900  172.7900  138.6940 C   0  0  1  0  0  3  0  0  0  0  0  0
  190.0190  171.2190  135.9100 O   0  0  0  0  0  1  0  0  0  0  0  0
  191.3330  170.7200  135.8560 C   0  0  2  0  0  3  0  0  0  0  0  0
  191.3010  169.1980  136.0180 C   0  0  2  0  0  3  0  0  0  0  0  0
  191.4740  168.8410  137.3600 O   0  0  0  0  0  1  0  0  0  0  0  0
  192.3920  168.5540  135.1840 C   0  0  0  0  0  1  0  0  0  0  0  0
  194.3390  173.7850  139.5900 C   0  0  0  0  0  2  0  0  0  0  0  0
  195.3340  171.2540  142.7320 C   0  0  0  0  0  2  0  0  0  0  0  0
  196.2390  172.7580  140.9910 C   0  0  2  0  0  0  0  0  0  0  0  0
  195.5740  172.6140  143.3650 C   0  0  1  0  0  3  0  0  0  0  0  0
  196.9920  175.3550  143.4730 C   0  0  0  0  0  2  0  0  0  0  0  0
  195.9530  171.2840  141.3380 C   0  0  2  0  0  3  0  0  0  0  0  0
  196.6970  174.1110  139.0870 O   0  0  0  0  0  0  0  0  0  0  0  0
  197.9410  173.6890  139.5960 C   0  0  0  0  0  2  0  0  0  0  0  0
  195.7630  173.2040  139.6070 C   0  0  2  0  0  3  0  0  0  0  0  0
  196.8930  173.5860  145.6100 S   0  0  0  0  0  0  0  0  0  0  0  0
  197.7250  172.9730  140.9130 C   0  0  0  0  0  2  0  0  0  0  0  0
  196.9040  172.5510  144.1060 C   0  0  0  0  0  2  0  0  0  0  0  0
  196.0560  175.0280  142.3050 C   0  0  1  0  0  3  0  0  0  0  0  0
  195.6360  173.5470  142.1570 C   0  0  1  0  0  3  0  0  0  0  0  0
  196.3130  175.1240  144.8150 C   0  0  0  0  0  2  0  0  0  0  0  0
  195.0380  170.5500  140.3650 C   0  0  0  0  0  1  0  0  0  0  0  0
  194.9100  176.8160  141.2060 O   0  0  0  0  0  1  0  0  0  0  0  0
  194.8310  175.9310  142.2780 C   0  0  0  0  0  2  0  0  0  0  0  0
  189.5460  173.3230  141.4530 C   0  0  2  0  0  3  0  0  0  0  0  0
  190.4250  172.5710  140.4540 C   0  0  2  0  0  3  0  0  0  0  0  0
  190.7570  172.5310  141.9480 C   0  0  2  0  0  0  0  0  0  0  0  0
  188.2240  172.5880  141.6140 C   0  0  0  0  0  1  0  0  0  0  0  0
  191.7060  170.3820  142.4050 O   0  0  0  0  0  1  0  0  0  0  0  0
  190.5480  171.1410  142.5430 C   0  0  0  0  0  2  0  0  0  0  0  0
  191.9850  173.3280  142.4180 C   0  0  0  0  0  2  0  0  0  0  0  0
  192.1400  173.4260  143.9420 C   0  0  0  0  0  2  0  0  0  0  0  0
  191.6320  174.7340  144.5570 C   0  0  1  0  0  3  0  0  0  0  0  0
  189.5550  176.1780  144.1110 C   0  0  2  0  0  3  0  0  0  0  0  0
  188.6490  176.6220  146.1960 C   0  0  1  0  0  3  0  0  0  0  0  0
  189.4110  174.2970  145.8260 C   0  0  0  0  0  2  0  0  0  0  0  0
  190.0960  174.8060  144.5520 C   0  0  2  0  0  3  0  0  0  0  0  0
  189.4990  177.1090  145.1800 O   0  0  0  0  0  0  0  0  0  0  0  0
  189.2710  175.4030  146.8620 C   0  0  0  0  0  2  0  0  0  0  0  0
  189.6590  178.1030  147.7630 O   0  0  0  0  0  1  0  0  0  0  0  0
  188.4290  177.7050  147.2320 C   0  0  0  0  0  2  0  0  0  0  0  0
  188.2070  176.0500  143.4030 C   0  0  0  0  0  2  0  0  0  0  0  0
  188.0650  177.0920  142.3050 C   0  0  1  0  0  3  0  0  0  0  0  0
  187.9020  176.4480  141.0820 O   0  0  0  0  0  1  0  0  0  0  0  0
  186.2510  178.4830  141.5720 O   0  0  0  0  0  0  0  0  0  0  0  0
  186.8980  178.0020  142.5410 C   0  0  0  0  0  0  0  0  0  0  0  0
  186.5800  178.3830  143.8780 N   0  0  0  0  0  2  0  0  0  0  0  0
  185.6770  179.4940  144.1600 C   0  0  0  0  0  2  0  0  0  0  0  0
  184.6480  177.7580  145.4860 O   0  0  0  0  0  0  0  0  0  0  0  0
  184.7430  178.8690  146.3430 C   0  0  0  0  0  2  0  0  0  0  0  0
  184.4320  179.0230  144.8990 C   0  0  1  0  0  3  0  0  0  0  0  0
  192.3190  175.1180  145.8780 C   0  0  0  0  0  3  0  0  0  0  0  0
  192.8130  176.4170  145.7940 O   0  0  0  0  0  1  0  0  0  0  0  0
  193.3760  174.2530  146.1510 O   0  0  0  0  0  1  0  0  0  0  0  0
  1 33  1  0  0  0  0
  2  8  1  0  0  0  0
  4  6  1  0  0  0  0
  5 10  1  6  0  0  0
  5  2  1  0  0  0  0
  6  3  1  6  0  0  0
  6  8  1  0  0  0  0
  6 14  1  0  0  0  0
  7  5  1  0  0  0  0
  7  4  1  0  0  0  0
  8  1  1  1  0  0  0
 10  9  1  1  0  0  0
 10 11  1  0  0  0  0
 11 13  1  6  0  0  0
 11 12  1  0  0  0  0
 16 24  1  1  0  0  0
 16 19  1  0  0  0  0
 16 27  1  0  0  0  0
 17 15  1  6  0  0  0
 17 25  1  0  0  0  0
 18 28  1  0  0  0  0
 19 29  1  6  0  0  0
 19 15  1  0  0  0  0
 20 21  1  0  0  0  0
 20 22  1  0  0  0  0
 21 24  1  0  0  0  0
 22 14  1  1  0  0  0
 22 16  1  0  0  0  0
 25 23  1  0  0  0  0
 26 31  1  1  0  0  0
 26 18  1  0  0  0  0
 27 26  1  0  0  0  0
 27 17  1  0  0  0  0
 28 23  1  0  0  0  0
 30 31  1  0  0  0  0
 32 35  1  0  0  0  0
 32 34  1  0  0  0  0
 33 32  1  0  0  0  0
 33 34  1  0  0  0  0
 34 38  1  0  0  0  0
 34 37  1  0  0  0  0
 36 37  1  0  0  0  0
 38 39  1  0  0  0  0
 39 40  1  0  0  0  0
 40 59  1  0  0  0  0
 41 44  1  0  0  0  0
 41 45  1  0  0  0  0
 42 46  1  0  0  0  0
 42 48  1  0  0  0  0
 43 46  1  0  0  0  0
 44 40  1  0  0  0  0
 44 43  1  0  0  0  0
 45 42  1  0  0  0  0
 48 47  1  0  0  0  0
 49 41  1  0  0  0  0
 50 53  1  0  0  0  0
 50 49  1  0  0  0  0
 51 50  1  0  0  0  0
 52 53  2  0  0  0  0
 53 54  1  0  0  0  0
 54 55  1  0  0  0  0
 55 58  1  0  0  0  0
 56 57  1  0  0  0  0
 58 56  1  0  0  0  0
 58 57  1  0  0  0  0
 59 61  1  0  0  0  0
 60 59  1  0  0  0  0
M  END
>  <MODEL>
3

>  <REMARK>
 VINA RESULT:      -6.8      2.860      8.853
  Name = 
  19 active torsions:
  status: ('A' for Active; 'I' for Inactive)
    1  A    between atoms: C_2  and  C_11
    2  A    between atoms: C_4  and  C_57
    3  A    between atoms: C_5  and  C_12
    4  A    between atoms: C_6  and  C_41
    5  A    between atoms: C_6  and  C_44
    6  A    between atoms: C_8  and  C_24
    7  A    between atoms: C_9  and  C_17
    8  A    between atoms: C_9  and  C_23
    9  A    between atoms: C_11  and  C_19
   10  A    between atoms: C_11  and  C_45
   11  A    between atoms: C_12  and  C_25
   12  A    between atoms: C_17  and  C_19
   13  A    between atoms: C_22  and  C_25
   14  A    between atoms: C_24  and  C_47
   15  A    between atoms: N_27  and  C_55
   16  A    between atoms: C_38  and  C_57
   17  A    between atoms: C_39  and  C_51
   18  A    between atoms: C_42  and  C_50
   19  A    between atoms: C_55  and  C_56
                            x       y       z     vdW  Elec       q    Type
                         _______ _______ _______ _____ _____    ______ ____

>  <TORSDO>
F 19

$$$$
=
 OpenBabel11062420183D

 61 67  0  0  1  0  0  0  0  0999 V2000
  192.2530  174.4540  141.6490 C   0  0  0  0  0  2  0  0  0  0  0  0
  191.3730  174.0520  139.4600 O   0  0  0  0  0  0  0  0  0  0  0  0
  194.1630  174.8530  139.1700 C   0  0  0  0  0  1  0  0  0  0  0  0
  193.6050  172.4910  138.5780 C   0  0  0  0  0  2  0  0  0  0  0  0
  191.1490  172.9800  138.5750 C   0  0  2  0  0  3  0  0  0  0  0  0
  193.7180  173.4960  139.7390 C   0  0  2  0  0  0  0  0  0  0  0  0
  192.3850  172.7570  137.6930 C   0  0  0  0  0  2  0  0  0  0  0  0
  192.3210  173.5980  140.3920 C   0  0  1  0  0  3  0  0  0  0  0  0
  190.2380  174.1880  136.7090 O   0  0  0  0  0  1  0  0  0  0  0  0
  189.9170  173.2570  137.7120 C   0  0  2  0  0  3  0  0  0  0  0  0
  188.7630  173.8020  138.5570 C   0  0  2  0  0  3  0  0  0  0  0  0
  187.9780  172.7550  139.0540 O   0  0  0  0  0  1  0  0  0  0  0  0
  187.8950  174.7300  137.7290 C   0  0  0  0  0  1  0  0  0  0  0  0
  194.7290  172.8910  140.7290 C   0  0  0  0  0  2  0  0  0  0  0  0
  193.3240  170.0440  143.4100 C   0  0  0  0  0  2  0  0  0  0  0  0
  195.0650  170.5410  141.7260 C   0  0  2  0  0  0  0  0  0  0  0  0
  194.5540  170.5540  144.1420 C   0  0  1  0  0  3  0  0  0  0  0  0
  197.5940  171.0570  144.3350 C   0  0  0  0  0  2  0  0  0  0  0  0
  193.7190  169.8250  141.9520 C   0  0  2  0  0  3  0  0  0  0  0  0
  196.4150  171.3280  139.9300 O   0  0  0  0  0  0  0  0  0  0  0  0
  196.8330  170.0110  140.2080 C   0  0  0  0  0  2  0  0  0  0  0  0
  195.1280  171.4260  140.4800 C   0  0  2  0  0  3  0  0  0  0  0  0
  196.1310  169.7010  146.2660 S   0  0  0  0  0  0  0  0  0  0  0  0
  196.1350  169.5200  141.4590 C   0  0  0  0  0  2  0  0  0  0  0  0
  195.3100  169.3430  144.6740 C   0  0  0  0  0  2  0  0  0  0  0  0
  196.7640  171.8030  143.2850 C   0  0  1  0  0  3  0  0  0  0  0  0
  195.3310  171.2770  143.0440 C   0  0  1  0  0  3  0  0  0  0  0  0
  197.0020  171.2130  145.7280 C   0  0  0  0  0  2  0  0  0  0  0  0
  192.5790  170.2770  141.0490 C   0  0  0  0  0  1  0  0  0  0  0  0
  195.7650  173.6250  144.4710 O   0  0  0  0  0  1  0  0  0  0  0  0
  196.7420  173.3060  143.5300 C   0  0  0  0  0  2  0  0  0  0  0  0
  190.3200  173.2960  142.7670 C   0  0  2  0  0  3  0  0  0  0  0  0
  191.8160  173.6010  142.8430 C   0  0  2  0  0  3  0  0  0  0  0  0
  190.8420  174.3010  143.7960 C   0  0  2  0  0  0  0  0  0  0  0  0
  190.0580  171.9120  143.3380 C   0  0  0  0  0  1  0  0  0  0  0  0
  189.8020  173.7150  145.8700 O   0  0  0  0  0  1  0  0  0  0  0  0
  191.0370  173.8540  145.2420 C   0  0  0  0  0  2  0  0  0  0  0  0
  190.5590  175.7910  143.5430 C   0  0  0  0  0  2  0  0  0  0  0  0
  190.9330  176.7200  144.7050 C   0  0  0  0  0  2  0  0  0  0  0  0
  189.7530  177.1880  145.5610 C   0  0  1  0  0  3  0  0  0  0  0  0
  187.6810  177.6720  144.1200 C   0  0  2  0  0  3  0  0  0  0  0  0
  185.9270  177.9090  145.6160 C   0  0  1  0  0  3  0  0  0  0  0  0
  187.4820  176.0380  146.0680 C   0  0  0  0  0  2  0  0  0  0  0  0
  188.4130  176.6590  145.0200 C   0  0  2  0  0  3  0  0  0  0  0  0
  186.9050  178.5970  144.8640 O   0  0  0  0  0  0  0  0  0  0  0  0
  186.5910  177.0880  146.7130 C   0  0  0  0  0  2  0  0  0  0  0  0
  184.5710  178.4510  147.4960 O   0  0  0  0  0  1  0  0  0  0  0  0
  184.9750  178.9090  146.2390 C   0  0  0  0  0  2  0  0  0  0  0  0
  186.8490  176.9710  143.0480 C   0  0  0  0  0  2  0  0  0  0  0  0
  187.1940  177.4910  141.6610 C   0  0  1  0  0  3  0  0  0  0  0  0
  188.0800  176.6090  141.0500 O   0  0  0  0  0  1  0  0  0  0  0  0
  186.0290  177.3910  139.5640 O   0  0  0  0  0  0  0  0  0  0  0  0
  185.9780  177.6430  140.7990 C   0  0  0  0  0  0  0  0  0  0  0  0
  184.7800  178.1560  141.3790 N   0  0  0  0  0  2  0  0  0  0  0  0
  183.6720  178.6230  140.5530 C   0  0  0  0  0  2  0  0  0  0  0  0
  181.6510  178.5290  141.8700 O   0  0  0  0  0  0  0  0  0  0  0  0
  181.2190  178.7220  140.5460 C   0  0  0  0  0  2  0  0  0  0  0  0
  182.3890  177.8660  140.8670 C   0  0  1  0  0  3  0  0  0  0  0  0
  189.9720  177.0390  147.0750 C   0  0  0  0  0  3  0  0  0  0  0  0
  189.7750  178.2640  147.7050 O   0  0  0  0  0  1  0  0  0  0  0  0
  191.2670  176.6000  147.3430 O   0  0  0  0  0  1  0  0  0  0  0  0
  1 33  1  0  0  0  0
  2  8  1  0  0  0  0
  4  6  1  0  0  0  0
  5 10  1  6  0  0  0
  5  2  1  0  0  0  0
  6  3  1  6  0  0  0
  6  8  1  0  0  0  0
  6 14  1  0  0  0  0
  7  5  1  0  0  0  0
  7  4  1  0  0  0  0
  8  1  1  1  0  0  0
 10  9  1  6  0  0  0
 10 11  1  0  0  0  0
 11 13  1  6  0  0  0
 11 12  1  0  0  0  0
 16 24  1  6  0  0  0
 16 19  1  0  0  0  0
 16 27  1  0  0  0  0
 17 15  1  6  0  0  0
 17 25  1  0  0  0  0
 18 28  1  0  0  0  0
 19 29  1  6  0  0  0
 19 15  1  0  0  0  0
 20 21  1  0  0  0  0
 20 22  1  0  0  0  0
 21 24  1  0  0  0  0
 22 14  1  1  0  0  0
 22 16  1  0  0  0  0
 25 23  1  0  0  0  0
 26 31  1  1  0  0  0
 26 18  1  0  0  0  0
 27 26  1  0  0  0  0
 27 17  1  0  0  0  0
 28 23  1  0  0  0  0
 31 30  1  0  0  0  0
 32 33  1  0  0  0  0
 32 35  1  0  0  0  0
 32 34  1  0  0  0  0
 33 34  1  0  0  0  0
 34 37  1  0  0  0  0
 37 36  1  0  0  0  0
 38 34  1  0  0  0  0
 38 39  1  0  0  0  0
 39 40  1  0  0  0  0
 40 59  1  0  0  0  0
 41 45  1  0  0  0  0
 41 44  1  0  0  0  0
 42 48  1  0  0  0  0
 42 46  1  0  0  0  0
 43 46  1  0  0  0  0
 44 40  1  0  0  0  0
 44 43  1  0  0  0  0
 45 42  1  0  0  0  0
 48 47  1  0  0  0  0
 49 41  1  0  0  0  0
 50 49  1  0  0  0  0
 51 50  1  0  0  0  0
 52 53  2  0  0  0  0
 53 54  1  0  0  0  0
 53 50  1  0  0  0  0
 55 58  1  0  0  0  0
 55 54  1  0  0  0  0
 57 58  1  0  0  0  0
 57 56  1  0  0  0  0
 58 56  1  0  0  0  0
 59 61  1  0  0  0  0
 59 60  1  0  0  0  0
M  END
>  <MODEL>
4

>  <REMARK>
 VINA RESULT:      -6.7      3.057      8.577
  Name = 
  19 active torsions:
  status: ('A' for Active; 'I' for Inactive)
    1  A    between atoms: C_2  and  C_11
    2  A    between atoms: C_4  and  C_57
    3  A    between atoms: C_5  and  C_12
    4  A    between atoms: C_6  and  C_41
    5  A    between atoms: C_6  and  C_44
    6  A    between atoms: C_8  and  C_24
    7  A    between atoms: C_9  and  C_17
    8  A    between atoms: C_9  and  C_23
    9  A    between atoms: C_11  and  C_19
   10  A    between atoms: C_11  and  C_45
   11  A    between atoms: C_12  and  C_25
   12  A    between atoms: C_17  and  C_19
   13  A    between atoms: C_22  and  C_25
   14  A    between atoms: C_24  and  C_47
   15  A    between atoms: N_27  and  C_55
   16  A    between atoms: C_38  and  C_57
   17  A    between atoms: C_39  and  C_51
   18  A    between atoms: C_42  and  C_50
   19  A    between atoms: C_55  and  C_56
                            x       y       z     vdW  Elec       q    Type
                         _______ _______ _______ _____ _____    ______ ____

>  <TORSDO>
F 19

$$$$
=
 OpenBabel11062420183D

 61 67  0  0  1  0  0  0  0  0999 V2000
  190.2790  177.1070  144.8300 C   0  0  0  0  0  2  0  0  0  0  0  0
  187.9820  177.7230  144.5620 O   0  0  0  0  0  0  0  0  0  0  0  0
  189.2330  177.7690  141.9280 C   0  0  0  0  0  1  0  0  0  0  0  0
  187.5200  175.9950  142.3270 C   0  0  0  0  0  2  0  0  0  0  0  0
  186.7190  177.1160  144.4180 C   0  0  2  0  0  3  0  0  0  0  0  0
  188.9310  176.4790  142.7080 C   0  0  2  0  0  0  0  0  0  0  0  0
  186.4200  176.8700  142.9320 C   0  0  0  0  0  2  0  0  0  0  0  0
  188.9290  176.7390  144.2310 C   0  0  1  0  0  3  0  0  0  0  0  0
  185.7330  179.3040  144.5360 O   0  0  0  0  0  1  0  0  0  0  0  0
  185.6370  177.9960  145.0440 C   0  0  2  0  0  3  0  0  0  0  0  0
  185.7720  178.0360  146.5680 C   0  0  2  0  0  3  0  0  0  0  0  0
  186.1650  176.7870  147.0620 O   0  0  0  0  0  1  0  0  0  0  0  0
  184.4540  178.4340  147.2050 C   0  0  0  0  0  1  0  0  0  0  0  0
  189.8850  175.3220  142.3640 C   0  0  0  0  0  2  0  0  0  0  0  0
  191.5000  171.9330  144.1430 C   0  0  0  0  0  2  0  0  0  0  0  0
  190.1380  172.7630  142.2550 C   0  0  2  0  0  0  0  0  0  0  0  0
  192.4140  172.0960  142.9410 C   0  0  1  0  0  3  0  0  0  0  0  0
  192.9070  172.2620  139.8980 C   0  0  0  0  0  2  0  0  0  0  0  0
  190.0670  172.1270  143.6560 C   0  0  2  0  0  3  0  0  0  0  0  0
  188.7370  173.9340  140.7270 O   0  0  0  0  0  0  0  0  0  0  0  0
  188.6240  172.5640  140.4160 C   0  0  0  0  0  2  0  0  0  0  0  0
  189.2240  173.9710  142.0420 C   0  0  2  0  0  3  0  0  0  0  0  0
  194.2570  170.5190  141.5840 S   0  0  0  0  0  0  0  0  0  0  0  0
  189.6290  171.7820  141.2350 C   0  0  0  0  0  2  0  0  0  0  0  0
  192.5920  170.7220  142.3060 C   0  0  0  0  0  2  0  0  0  0  0  0
  192.0920  173.3550  140.5980 C   0  0  1  0  0  3  0  0  0  0  0  0
  191.6290  173.0460  142.0400 C   0  0  1  0  0  3  0  0  0  0  0  0
  194.2490  172.0430  140.5800 C   0  0  0  0  0  2  0  0  0  0  0  0
  189.2860  172.9220  144.6950 C   0  0  0  0  0  1  0  0  0  0  0  0
  193.2380  175.0710  141.8070 O   0  0  0  0  0  1  0  0  0  0  0  0
  192.7800  174.7110  140.5410 C   0  0  0  0  0  2  0  0  0  0  0  0
  191.6070  177.1830  146.9640 C   0  0  2  0  0  3  0  0  0  0  0  0
  190.3610  176.6230  146.2810 C   0  0  2  0  0  3  0  0  0  0  0  0
  191.5520  175.7060  146.5730 C   0  0  2  0  0  0  0  0  0  0  0  0
  191.3040  177.4420  148.4320 C   0  0  0  0  0  1  0  0  0  0  0  0
  189.8450  174.5470  147.7850 O   0  0  0  0  0  1  0  0  0  0  0  0
  191.2240  174.6630  147.6380 C   0  0  0  0  0  2  0  0  0  0  0  0
  192.4040  175.2550  145.3740 C   0  0  0  0  0  2  0  0  0  0  0  0
  193.6840  174.4970  145.7480 C   0  0  0  0  0  2  0  0  0  0  0  0
  194.9540  175.3530  145.7760 C   0  0  1  0  0  3  0  0  0  0  0  0
  195.6930  173.8150  143.8560 C   0  0  2  0  0  3  0  0  0  0  0  0
  196.3140  171.8230  144.8610 C   0  0  1  0  0  3  0  0  0  0  0  0
  197.0820  173.8850  145.9920 C   0  0  0  0  0  2  0  0  0  0  0  0
  196.1280  174.6530  145.0710 C   0  0  2  0  0  3  0  0  0  0  0  0
  195.2620  172.5140  144.2210 O   0  0  0  0  0  0  0  0  0  0  0  0
  196.6110  172.4550  146.2140 C   0  0  0  0  0  2  0  0  0  0  0  0
  194.6070  170.3060  145.5350 O   0  0  0  0  0  1  0  0  0  0  0  0
  195.9190  170.3740  145.0580 C   0  0  0  0  0  2  0  0  0  0  0  0
  196.7810  173.7700  142.7850 C   0  0  0  0  0  2  0  0  0  0  0  0
  196.9160  175.1130  142.0860 C   0  0  1  0  0  3  0  0  0  0  0  0
  197.8040  175.9130  142.7980 O   0  0  0  0  0  1  0  0  0  0  0  0
  197.9390  175.9400  140.0770 O   0  0  0  0  0  0  0  0  0  0  0  0
  197.4060  174.9670  140.6770 C   0  0  0  0  0  0  0  0  0  0  0  0
  197.1880  173.7340  139.9950 N   0  0  0  0  0  2  0  0  0  0  0  0
  197.3490  173.6230  138.5490 C   0  0  0  0  0  2  0  0  0  0  0  0
  195.2670  174.8050  138.2340 O   0  0  0  0  0  0  0  0  0  0  0  0
  195.9310  174.8930  136.9980 C   0  0  0  0  0  2  0  0  0  0  0  0
  196.0040  173.6700  137.8360 C   0  0  1  0  0  3  0  0  0  0  0  0
  194.7290  176.8280  145.4040 C   0  0  0  0  0  3  0  0  0  0  0  0
  195.6820  177.2320  144.4730 O   0  0  0  0  0  1  0  0  0  0  0  0
  194.8310  177.6400  146.5310 O   0  0  0  0  0  1  0  0  0  0  0  0
  1 33  1  0  0  0  0
  4  6  1  0  0  0  0
  4  7  1  0  0  0  0
  5  2  1  0  0  0  0
  5 10  1  6  0  0  0
  6  3  1  6  0  0  0
  6  8  1  0  0  0  0
  7  5  1  0  0  0  0
  8  2  1  0  0  0  0
  8  1  1  6  0  0  0
 10  9  1  6  0  0  0
 10 11  1  0  0  0  0
 11 12  1  0  0  0  0
 11 13  1  1  0  0  0
 14  6  1  0  0  0  0
 16 24  1  6  0  0  0
 16 19  1  0  0  0  0
 17 25  1  6  0  0  0
 17 15  1  0  0  0  0
 18 28  1  0  0  0  0
 18 26  1  0  0  0  0
 19 15  1  0  0  0  0
 19 29  1  1  0  0  0
 20 22  1  0  0  0  0
 21 20  1  0  0  0  0
 21 24  1  0  0  0  0
 22 16  1  0  0  0  0
 22 14  1  6  0  0  0
 23 25  1  0  0  0  0
 26 31  1  1  0  0  0
 26 27  1  0  0  0  0
 27 16  1  0  0  0  0
 27 17  1  0  0  0  0
 28 23  1  0  0  0  0
 31 30  1  0  0  0  0
 32 35  1  0  0  0  0
 33 34  1  0  0  0  0
 33 32  1  0  0  0  0
 34 32  1  0  0  0  0
 34 37  1  0  0  0  0
 37 36  1  0  0  0  0
 38 39  1  0  0  0  0
 38 34  1  0  0  0  0
 39 40  1  0  0  0  0
 41 45  1  0  0  0  0
 41 44  1  0  0  0  0
 42 48  1  0  0  0  0
 42 46  1  0  0  0  0
 43 46  1  0  0  0  0
 44 40  1  0  0  0  0
 44 43  1  0  0  0  0
 45 42  1  0  0  0  0
 48 47  1  0  0  0  0
 49 41  1  0  0  0  0
 50 49  1  0  0  0  0
 50 51  1  0  0  0  0
 52 53  2  0  0  0  0
 53 50  1  0  0  0  0
 54 53  1  0  0  0  0
 55 54  1  0  0  0  0
 57 58  1  0  0  0  0
 57 56  1  0  0  0  0
 58 56  1  0  0  0  0
 58 55  1  0  0  0  0
 59 40  1  0  0  0  0
 59 61  1  0  0  0  0
 60 59  1  0  0  0  0
M  END
>  <MODEL>
5

>  <REMARK>
 VINA RESULT:      -6.6      1.562      2.374
  Name = 
  19 active torsions:
  status: ('A' for Active; 'I' for Inactive)
    1  A    between atoms: C_2  and  C_11
    2  A    between atoms: C_4  and  C_57
    3  A    between atoms: C_5  and  C_12
    4  A    between atoms: C_6  and  C_41
    5  A    between atoms: C_6  and  C_44
    6  A    between atoms: C_8  and  C_24
    7  A    between atoms: C_9  and  C_17
    8  A    between atoms: C_9  and  C_23
    9  A    between atoms: C_11  and  C_19
   10  A    between atoms: C_11  and  C_45
   11  A    between atoms: C_12  and  C_25
   12  A    between atoms: C_17  and  C_19
   13  A    between atoms: C_22  and  C_25
   14  A    between atoms: C_24  and  C_47
   15  A    between atoms: N_27  and  C_55
   16  A    between atoms: C_38  and  C_57
   17  A    between atoms: C_39  and  C_51
   18  A    between atoms: C_42  and  C_50
   19  A    between atoms: C_55  and  C_56
                            x       y       z     vdW  Elec       q    Type
                         _______ _______ _______ _____ _____    ______ ____

>  <TORSDO>
F 19

$$$$
=
 OpenBabel11062420183D

 61 67  0  0  1  0  0  0  0  0999 V2000
  189.6210  177.1760  144.7490 C   0  0  0  0  0  2  0  0  0  0  0  0
  187.3710  177.8960  144.3700 O   0  0  0  0  0  0  0  0  0  0  0  0
  188.6080  177.4260  141.7720 C   0  0  0  0  0  1  0  0  0  0  0  0
  186.7800  175.8630  142.4430 C   0  0  0  0  0  2  0  0  0  0  0  0
  186.0690  177.3630  144.3190 C   0  0  2  0  0  3  0  0  0  0  0  0
  188.2220  176.3050  142.7490 C   0  0  2  0  0  0  0  0  0  0  0  0
  185.7450  176.8990  142.8920 C   0  0  0  0  0  2  0  0  0  0  0  0
  188.2460  176.8090  144.2100 C   0  0  1  0  0  3  0  0  0  0  0  0
  185.5760  179.6970  144.6010 O   0  0  0  0  0  1  0  0  0  0  0  0
  185.0530  178.4060  144.7870 C   0  0  2  0  0  3  0  0  0  0  0  0
  184.7020  178.2100  146.2640 C   0  0  2  0  0  3  0  0  0  0  0  0
  185.4500  179.0780  147.0680 O   0  0  0  0  0  1  0  0  0  0  0  0
  184.9710  176.7790  146.6860 C   0  0  0  0  0  1  0  0  0  0  0  0
  189.0920  175.0440  142.6040 C   0  0  0  0  0  2  0  0  0  0  0  0
  188.7830  172.4170  139.4000 C   0  0  0  0  0  2  0  0  0  0  0  0
  190.3390  173.8150  140.7160 C   0  0  2  0  0  0  0  0  0  0  0  0
  189.4440  171.5310  140.4410 C   0  0  1  0  0  3  0  0  0  0  0  0
  191.7510  170.8660  142.3820 C   0  0  0  0  0  2  0  0  0  0  0  0
  189.5000  173.7630  139.4250 C   0  0  2  0  0  3  0  0  0  0  0  0
  191.4420  175.4150  142.0920 O   0  0  0  0  0  0  0  0  0  0  0  0
  192.3900  174.9630  141.1520 C   0  0  0  0  0  2  0  0  0  0  0  0
  190.1950  175.1010  141.5330 C   0  0  2  0  0  3  0  0  0  0  0  0
  190.8050  169.1080  140.4540 S   0  0  0  0  0  0  0  0  0  0  0  0
  191.8010  173.8130  140.3620 C   0  0  0  0  0  2  0  0  0  0  0  0
  190.5800  170.7810  139.7570 C   0  0  0  0  0  2  0  0  0  0  0  0
  190.8770  172.0990  142.6330 C   0  0  1  0  0  3  0  0  0  0  0  0
  189.9590  172.5370  141.4690 C   0  0  1  0  0  3  0  0  0  0  0  0
  190.9100  169.6110  142.2060 C   0  0  0  0  0  2  0  0  0  0  0  0
  188.4770  174.8820  139.2640 C   0  0  0  0  0  1  0  0  0  0  0  0
  190.9380  171.9230  145.0180 O   0  0  0  0  0  1  0  0  0  0  0  0
  190.0780  171.9850  143.9240 C   0  0  0  0  0  2  0  0  0  0  0  0
  190.9170  177.4650  146.8850 C   0  0  2  0  0  3  0  0  0  0  0  0
  189.7400  176.7550  146.2170 C   0  0  2  0  0  3  0  0  0  0  0  0
  191.0160  175.9760  146.5480 C   0  0  2  0  0  0  0  0  0  0  0  0
  190.5770  177.7450  148.3400 C   0  0  0  0  0  1  0  0  0  0  0  0
  189.4690  174.5010  147.6230 O   0  0  0  0  0  1  0  0  0  0  0  0
  190.7870  174.9450  147.6500 C   0  0  0  0  0  2  0  0  0  0  0  0
  191.9190  175.5710  145.3710 C   0  0  0  0  0  2  0  0  0  0  0  0
  193.1060  174.6780  145.7530 C   0  0  0  0  0  2  0  0  0  0  0  0
  194.4540  175.4010  145.8410 C   0  0  1  0  0  3  0  0  0  0  0  0
  194.9920  174.1130  143.6840 C   0  0  2  0  0  3  0  0  0  0  0  0
  195.3960  171.9310  144.3480 C   0  0  1  0  0  3  0  0  0  0  0  0
  196.4050  173.6920  145.7640 C   0  0  0  0  0  2  0  0  0  0  0  0
  195.5340  174.6960  145.0020 C   0  0  2  0  0  3  0  0  0  0  0  0
  194.4220  172.8260  143.8540 O   0  0  0  0  0  0  0  0  0  0  0  0
  195.7780  172.3060  145.7740 C   0  0  0  0  0  2  0  0  0  0  0  0
  195.8710  169.6100  144.5780 O   0  0  0  0  0  1  0  0  0  0  0  0
  194.8420  170.5220  144.3280 C   0  0  0  0  0  2  0  0  0  0  0  0
  196.0560  174.1190  142.5880 C   0  0  0  0  0  2  0  0  0  0  0  0
  196.0600  175.4410  141.8370 C   0  0  1  0  0  3  0  0  0  0  0  0
  197.0910  176.2400  142.3220 O   0  0  0  0  0  1  0  0  0  0  0  0
  195.3650  175.6570  139.5480 O   0  0  0  0  0  0  0  0  0  0  0  0
  196.2390  175.2490  140.3620 C   0  0  0  0  0  0  0  0  0  0  0  0
  197.3740  174.5230  139.8930 N   0  0  0  0  0  2  0  0  0  0  0  0
  197.4510  174.0290  138.5220 C   0  0  0  0  0  2  0  0  0  0  0  0
  196.3920  172.4130  137.0760 O   0  0  0  0  0  0  0  0  0  0  0  0
  197.6230  171.8350  137.4340 C   0  0  0  0  0  2  0  0  0  0  0  0
  196.8330  172.6440  138.3960 C   0  0  1  0  0  3  0  0  0  0  0  0
  194.3630  176.9260  145.6760 C   0  0  0  0  0  3  0  0  0  0  0  0
  195.3340  177.3640  144.7800 O   0  0  0  0  0  1  0  0  0  0  0  0
  194.5620  177.5650  146.8990 O   0  0  0  0  0  1  0  0  0  0  0  0
  1 33  1  0  0  0  0
  4  6  1  0  0  0  0
  4  7  1  0  0  0  0
  5  2  1  0  0  0  0
  5 10  1  6  0  0  0
  6  3  1  6  0  0  0
  6  8  1  0  0  0  0
  7  5  1  0  0  0  0
  8  2  1  0  0  0  0
  8  1  1  6  0  0  0
 10  9  1  1  0  0  0
 10 11  1  0  0  0  0
 11 13  1  1  0  0  0
 11 12  1  0  0  0  0
 14  6  1  0  0  0  0
 15 19  1  0  0  0  0
 16 24  1  6  0  0  0
 16 27  1  0  0  0  0
 16 22  1  0  0  0  0
 17 15  1  6  0  0  0
 17 27  1  0  0  0  0
 18 26  1  0  0  0  0
 19 29  1  1  0  0  0
 19 16  1  0  0  0  0
 21 20  1  0  0  0  0
 22 20  1  0  0  0  0
 22 14  1  1  0  0  0
 23 28  1  0  0  0  0
 24 21  1  0  0  0  0
 25 17  1  0  0  0  0
 25 23  1  0  0  0  0
 26 31  1  1  0  0  0
 27 26  1  0  0  0  0
 28 18  1  0  0  0  0
 31 30  1  0  0  0  0
 32 35  1  0  0  0  0
 33 34  1  0  0  0  0
 33 32  1  0  0  0  0
 34 32  1  0  0  0  0
 34 37  1  0  0  0  0
 36 37  1  0  0  0  0
 38 39  1  0  0  0  0
 38 34  1  0  0  0  0
 39 40  1  0  0  0  0
 41 45  1  0  0  0  0
 41 44  1  0  0  0  0
 42 46  1  0  0  0  0
 43 46  1  0  0  0  0
 44 43  1  0  0  0  0
 44 40  1  0  0  0  0
 45 42  1  0  0  0  0
 48 42  1  0  0  0  0
 48 47  1  0  0  0  0
 49 41  1  0  0  0  0
 50 51  1  0  0  0  0
 50 49  1  0  0  0  0
 52 53  2  0  0  0  0
 53 50  1  0  0  0  0
 54 53  1  0  0  0  0
 55 54  1  0  0  0  0
 56 57  1  0  0  0  0
 56 58  1  0  0  0  0
 57 58  1  0  0  0  0
 58 55  1  0  0  0  0
 59 40  1  0  0  0  0
 59 61  1  0  0  0  0
 60 59  1  0  0  0  0
M  END
>  <MODEL>
6

>  <REMARK>
 VINA RESULT:      -6.5      1.639      2.547
  Name = 
  19 active torsions:
  status: ('A' for Active; 'I' for Inactive)
    1  A    between atoms: C_2  and  C_11
    2  A    between atoms: C_4  and  C_57
    3  A    between atoms: C_5  and  C_12
    4  A    between atoms: C_6  and  C_41
    5  A    between atoms: C_6  and  C_44
    6  A    between atoms: C_8  and  C_24
    7  A    between atoms: C_9  and  C_17
    8  A    between atoms: C_9  and  C_23
    9  A    between atoms: C_11  and  C_19
   10  A    between atoms: C_11  and  C_45
   11  A    between atoms: C_12  and  C_25
   12  A    between atoms: C_17  and  C_19
   13  A    between atoms: C_22  and  C_25
   14  A    between atoms: C_24  and  C_47
   15  A    between atoms: N_27  and  C_55
   16  A    between atoms: C_38  and  C_57
   17  A    between atoms: C_39  and  C_51
   18  A    between atoms: C_42  and  C_50
   19  A    between atoms: C_55  and  C_56
                            x       y       z     vdW  Elec       q    Type
                         _______ _______ _______ _____ _____    ______ ____

>  <TORSDO>
F 19

$$$$
=
 OpenBabel11062420183D

 61 67  0  0  1  0  0  0  0  0999 V2000
  191.5480  173.8260  139.9100 C   0  0  0  0  0  2  0  0  0  0  0  0
  191.1370  172.4240  138.0150 O   0  0  0  0  0  0  0  0  0  0  0  0
  192.6400  174.7480  137.0970 C   0  0  0  0  0  1  0  0  0  0  0  0
  193.8200  172.5480  137.0260 C   0  0  0  0  0  2  0  0  0  0  0  0
  191.6830  171.2920  137.3800 C   0  0  2  0  0  3  0  0  0  0  0  0
  193.2420  173.6270  137.9590 C   0  0  2  0  0  0  0  0  0  0  0  0
  192.7280  171.7230  136.3410 C   0  0  0  0  0  2  0  0  0  0  0  0
  192.1570  172.9490  138.8250 C   0  0  1  0  0  3  0  0  0  0  0  0
  189.3310  170.8130  137.2780 O   0  0  0  0  0  1  0  0  0  0  0  0
  190.5750  170.4720  136.7180 C   0  0  2  0  0  3  0  0  0  0  0  0
  190.8150  168.9710  136.8990 C   0  0  2  0  0  3  0  0  0  0  0  0
  190.3220  168.5380  138.1350 O   0  0  0  0  0  1  0  0  0  0  0  0
  192.2970  168.6590  136.8140 C   0  0  0  0  0  1  0  0  0  0  0  0
  194.4120  174.0990  138.8390 C   0  0  0  0  0  2  0  0  0  0  0  0
  194.9420  171.9610  142.3630 C   0  0  0  0  0  2  0  0  0  0  0  0
  196.0740  172.8350  140.3470 C   0  0  2  0  0  0  0  0  0  0  0  0
  195.5890  173.2870  142.7250 C   0  0  1  0  0  3  0  0  0  0  0  0
  197.6950  175.5000  142.2800 C   0  0  0  0  0  2  0  0  0  0  0  0
  195.4310  171.5810  140.9690 C   0  0  2  0  0  3  0  0  0  0  0  0
  196.7230  173.6640  138.2110 O   0  0  0  0  0  0  0  0  0  0  0  0
  197.8450  173.0050  138.7510 C   0  0  0  0  0  2  0  0  0  0  0  0
  195.6240  173.1550  138.9200 C   0  0  2  0  0  3  0  0  0  0  0  0
  197.2980  174.2190  144.7100 S   0  0  0  0  0  0  0  0  0  0  0  0
  197.5520  172.6110  140.1840 C   0  0  0  0  0  2  0  0  0  0  0  0
  196.9090  172.9820  143.4240 C   0  0  0  0  0  2  0  0  0  0  0  0
  196.6140  175.2540  141.2220 C   0  0  1  0  0  3  0  0  0  0  0  0
  195.8010  173.9470  141.3640 C   0  0  1  0  0  3  0  0  0  0  0  0
  197.0900  175.6990  143.6620 C   0  0  0  0  0  2  0  0  0  0  0  0
  194.2770  170.9770  140.1780 C   0  0  0  0  0  1  0  0  0  0  0  0
  194.4250  176.1440  141.5930 O   0  0  0  0  0  1  0  0  0  0  0  0
  195.6790  176.4450  141.0670 C   0  0  0  0  0  2  0  0  0  0  0  0
  189.6110  173.8870  141.5130 C   0  0  2  0  0  3  0  0  0  0  0  0
  190.6290  172.9920  140.8070 C   0  0  2  0  0  3  0  0  0  0  0  0
  190.7740  173.2850  142.3030 C   0  0  2  0  0  0  0  0  0  0  0  0
  188.3020  173.1310  141.6740 C   0  0  0  0  0  1  0  0  0  0  0  0
  189.7650  172.3670  144.2690 O   0  0  0  0  0  1  0  0  0  0  0  0
  190.5330  172.0420  143.1550 C   0  0  0  0  0  2  0  0  0  0  0  0
  191.9100  174.2300  142.7290 C   0  0  0  0  0  2  0  0  0  0  0  0
  191.8740  174.6510  144.2040 C   0  0  0  0  0  2  0  0  0  0  0  0
  192.3640  176.0750  144.4790 C   0  0  1  0  0  3  0  0  0  0  0  0
  189.8930  176.2500  145.1590 C   0  0  2  0  0  3  0  0  0  0  0  0
  188.8310  177.2840  143.3790 C   0  0  1  0  0  3  0  0  0  0  0  0
  191.0130  178.2470  144.0380 C   0  0  0  0  0  2  0  0  0  0  0  0
  191.2130  177.0010  144.9080 C   0  0  2  0  0  3  0  0  0  0  0  0
  189.1520  176.0410  143.9680 O   0  0  0  0  0  0  0  0  0  0  0  0
  190.0920  177.9610  142.8610 C   0  0  0  0  0  2  0  0  0  0  0  0
  188.1200  177.9980  141.2220 O   0  0  0  0  0  1  0  0  0  0  0  0
  187.8680  177.0640  142.2300 C   0  0  0  0  0  2  0  0  0  0  0  0
  189.0510  176.9350  146.2340 C   0  0  0  0  0  2  0  0  0  0  0  0
  187.7740  176.1570  146.5080 C   0  0  1  0  0  3  0  0  0  0  0  0
  187.9620  175.3480  147.6250 O   0  0  0  0  0  1  0  0  0  0  0  0
  186.0370  177.0960  147.8730 O   0  0  0  0  0  0  0  0  0  0  0  0
  186.6050  177.0620  146.7470 C   0  0  0  0  0  0  0  0  0  0  0  0
  186.0890  177.8260  145.6590 N   0  0  0  0  0  2  0  0  0  0  0  0
  184.7840  178.4750  145.7320 C   0  0  0  0  0  2  0  0  0  0  0  0
  185.5080  179.1230  143.5220 O   0  0  0  0  0  0  0  0  0  0  0  0
  184.2660  178.4910  143.3320 C   0  0  0  0  0  2  0  0  0  0  0  0
  184.5300  179.3510  144.5130 C   0  0  1  0  0  3  0  0  0  0  0  0
  193.6410  176.1500  145.3320 C   0  0  0  0  0  3  0  0  0  0  0  0
  193.3040  176.2290  146.6810 O   0  0  0  0  0  1  0  0  0  0  0  0
  194.3940  177.2710  144.9920 O   0  0  0  0  0  1  0  0  0  0  0  0
  1 33  1  0  0  0  0
  2  8  1  0  0  0  0
  4  6  1  0  0  0  0
  5 10  1  6  0  0  0
  5  2  1  0  0  0  0
  6  3  1  6  0  0  0
  6  8  1  0  0  0  0
  6 14  1  0  0  0  0
  7  4  1  0  0  0  0
  7  5  1  0  0  0  0
  8  1  1  1  0  0  0
 10 11  1  0  0  0  0
 10  9  1  1  0  0  0
 11 13  1  1  0  0  0
 11 12  1  0  0  0  0
 16 24  1  6  0  0  0
 16 19  1  0  0  0  0
 16 27  1  0  0  0  0
 17 15  1  6  0  0  0
 17 25  1  0  0  0  0
 18 28  1  0  0  0  0
 19 29  1  6  0  0  0
 19 15  1  0  0  0  0
 20 21  1  0  0  0  0
 20 22  1  0  0  0  0
 21 24  1  0  0  0  0
 22 14  1  1  0  0  0
 22 16  1  0  0  0  0
 25 23  1  0  0  0  0
 26 31  1  1  0  0  0
 26 27  1  0  0  0  0
 26 18  1  0  0  0  0
 27 17  1  0  0  0  0
 28 23  1  0  0  0  0
 31 30  1  0  0  0  0
 32 35  1  0  0  0  0
 32 34  1  0  0  0  0
 33 32  1  0  0  0  0
 33 34  1  0  0  0  0
 34 38  1  0  0  0  0
 34 37  1  0  0  0  0
 37 36  1  0  0  0  0
 38 39  1  0  0  0  0
 39 40  1  0  0  0  0
 40 44  1  0  0  0  0
 40 59  1  0  0  0  0
 41 49  1  0  0  0  0
 42 45  1  0  0  0  0
 43 44  1  0  0  0  0
 44 41  1  0  0  0  0
 45 41  1  0  0  0  0
 46 42  1  0  0  0  0
 46 43  1  0  0  0  0
 47 48  1  0  0  0  0
 48 42  1  0  0  0  0
 49 50  1  0  0  0  0
 50 53  1  0  0  0  0
 50 51  1  0  0  0  0
 53 52  2  0  0  0  0
 54 55  1  0  0  0  0
 54 53  1  0  0  0  0
 56 58  1  0  0  0  0
 57 56  1  0  0  0  0
 57 58  1  0  0  0  0
 58 55  1  0  0  0  0
 59 60  1  0  0  0  0
 61 59  1  0  0  0  0
M  END
>  <MODEL>
7

>  <REMARK>
 VINA RESULT:      -6.4      2.826      8.711
  Name = 
  19 active torsions:
  status: ('A' for Active; 'I' for Inactive)
    1  A    between atoms: C_2  and  C_11
    2  A    between atoms: C_4  and  C_57
    3  A    between atoms: C_5  and  C_12
    4  A    between atoms: C_6  and  C_41
    5  A    between atoms: C_6  and  C_44
    6  A    between atoms: C_8  and  C_24
    7  A    between atoms: C_9  and  C_17
    8  A    between atoms: C_9  and  C_23
    9  A    between atoms: C_11  and  C_19
   10  A    between atoms: C_11  and  C_45
   11  A    between atoms: C_12  and  C_25
   12  A    between atoms: C_17  and  C_19
   13  A    between atoms: C_22  and  C_25
   14  A    between atoms: C_24  and  C_47
   15  A    between atoms: N_27  and  C_55
   16  A    between atoms: C_38  and  C_57
   17  A    between atoms: C_39  and  C_51
   18  A    between atoms: C_42  and  C_50
   19  A    between atoms: C_55  and  C_56
                            x       y       z     vdW  Elec       q    Type
                         _______ _______ _______ _____ _____    ______ ____

>  <TORSDO>
F 19

$$$$
=
 OpenBabel11062420183D

 61 67  0  0  1  0  0  0  0  0999 V2000
  193.1020  172.3250  143.7960 C   0  0  0  0  0  2  0  0  0  0  0  0
  194.1810  170.3000  144.4760 O   0  0  0  0  0  0  0  0  0  0  0  0
  191.8350  169.5780  142.9020 C   0  0  0  0  0  1  0  0  0  0  0  0
  194.0630  169.0750  141.8920 C   0  0  0  0  0  2  0  0  0  0  0  0
  195.2350  169.4580  144.0720 C   0  0  2  0  0  3  0  0  0  0  0  0
  193.1040  170.2060  142.3050 C   0  0  2  0  0  0  0  0  0  0  0  0
  194.7130  168.3920  143.0980 C   0  0  0  0  0  2  0  0  0  0  0  0
  193.8410  171.0700  143.3520 C   0  0  1  0  0  3  0  0  0  0  0  0
  195.0750  169.0000  146.4250 O   0  0  0  0  0  1  0  0  0  0  0  0
  195.8820  168.8000  145.2910 C   0  0  2  0  0  3  0  0  0  0  0  0
  197.2750  169.3760  145.5540 C   0  0  2  0  0  3  0  0  0  0  0  0
  197.8430  168.7930  146.6920 O   0  0  0  0  0  1  0  0  0  0  0  0
  197.1980  170.8790  145.7470 C   0  0  0  0  0  1  0  0  0  0  0  0
  192.8360  171.0230  141.0290 C   0  0  0  0  0  2  0  0  0  0  0  0
  192.3840  173.1000  137.4590 C   0  0  0  0  0  2  0  0  0  0  0  0
  191.6950  171.0910  138.7220 C   0  0  2  0  0  0  0  0  0  0  0  0
  191.0630  173.4070  138.1440 C   0  0  1  0  0  3  0  0  0  0  0  0
  188.3940  172.5320  139.4260 C   0  0  0  0  0  2  0  0  0  0  0  0
  192.6530  171.6090  137.6320 C   0  0  2  0  0  3  0  0  0  0  0  0
  191.4490  169.2170  140.1710 O   0  0  0  0  0  0  0  0  0  0  0  0
  190.7330  168.9200  138.9940 C   0  0  0  0  0  2  0  0  0  0  0  0
  192.3480  170.2300  139.8050 C   0  0  2  0  0  3  0  0  0  0  0  0
  188.5820  174.4030  137.3840 S   0  0  0  0  0  0  0  0  0  0  0  0
  190.7010  170.1450  138.1050 C   0  0  0  0  0  2  0  0  0  0  0  0
  189.9550  173.2290  137.1140 C   0  0  0  0  0  2  0  0  0  0  0  0
  189.7200  172.1520  140.0940 C   0  0  1  0  0  3  0  0  0  0  0  0
  190.9960  172.3500  139.2450 C   0  0  1  0  0  3  0  0  0  0  0  0
  188.3160  174.0260  139.1510 C   0  0  0  0  0  2  0  0  0  0  0  0
  194.1360  171.3940  137.9100 C   0  0  0  0  0  1  0  0  0  0  0  0
  188.6440  173.1940  141.9590 O   0  0  0  0  0  1  0  0  0  0  0  0
  189.8850  172.8050  141.4590 C   0  0  0  0  0  2  0  0  0  0  0  0
  193.9290  174.1710  145.2910 C   0  0  2  0  0  3  0  0  0  0  0  0
  194.0830  173.4940  143.9290 C   0  0  2  0  0  3  0  0  0  0  0  0
  193.4160  174.8680  144.0300 C   0  0  2  0  0  0  0  0  0  0  0  0
  195.2860  174.6720  145.7610 C   0  0  0  0  0  1  0  0  0  0  0  0
  193.7100  176.3350  142.1630 O   0  0  0  0  0  1  0  0  0  0  0  0
  194.2610  175.9630  143.3860 C   0  0  0  0  0  2  0  0  0  0  0  0
  191.8930  174.9280  143.8210 C   0  0  0  0  0  2  0  0  0  0  0  0
  191.0730  175.0290  145.1140 C   0  0  0  0  0  2  0  0  0  0  0  0
  191.2670  176.3290  145.8990 C   0  0  1  0  0  3  0  0  0  0  0  0
  188.8040  176.8550  145.3910 C   0  0  2  0  0  3  0  0  0  0  0  0
  188.7050  177.2100  143.1040 C   0  0  1  0  0  3  0  0  0  0  0  0
  190.6240  178.2460  144.2730 C   0  0  0  0  0  2  0  0  0  0  0  0
  190.2400  177.4000  145.4920 C   0  0  2  0  0  3  0  0  0  0  0  0
  188.5370  176.2580  144.1330 O   0  0  0  0  0  0  0  0  0  0  0  0
  190.1730  177.5910  142.9760 C   0  0  0  0  0  2  0  0  0  0  0  0
  187.6790  177.6440  141.0010 O   0  0  0  0  0  1  0  0  0  0  0  0
  188.2180  176.6280  141.7940 C   0  0  0  0  0  2  0  0  0  0  0  0
  187.7710  177.9260  145.7380 C   0  0  0  0  0  2  0  0  0  0  0  0
  186.5750  177.3190  146.4550 C   0  0  1  0  0  3  0  0  0  0  0  0
  186.5780  177.7350  147.7830 O   0  0  0  0  0  1  0  0  0  0  0  0
  184.1830  177.5290  146.4160 O   0  0  0  0  0  0  0  0  0  0  0  0
  185.2780  177.7170  145.8180 C   0  0  0  0  0  0  0  0  0  0  0  0
  185.2920  178.2360  144.4890 N   0  0  0  0  0  2  0  0  0  0  0  0
  184.0700  178.3450  143.7000 C   0  0  0  0  0  2  0  0  0  0  0  0
  184.4660  177.5740  141.4470 O   0  0  0  0  0  0  0  0  0  0  0  0
  183.2550  178.2860  141.3850 C   0  0  0  0  0  2  0  0  0  0  0  0
  184.3730  178.7250  142.2570 C   0  0  1  0  0  3  0  0  0  0  0  0
  191.4660  176.1300  147.4110 C   0  0  0  0  0  3  0  0  0  0  0  0
  190.6770  175.0740  147.8570 O   0  0  0  0  0  1  0  0  0  0  0  0
  191.1100  177.2820  148.1090 O   0  0  0  0  0  1  0  0  0  0  0  0
  1 33  1  0  0  0  0
  4  6  1  0  0  0  0
  4  7  1  0  0  0  0
  5  2  1  0  0  0  0
  5 10  1  1  0  0  0
  6  3  1  1  0  0  0
  6  8  1  0  0  0  0
  7  5  1  0  0  0  0
  8  1  1  1  0  0  0
  8  2  1  0  0  0  0
 10 11  1  0  0  0  0
 10  9  1  1  0  0  0
 11 13  1  1  0  0  0
 11 12  1  0  0  0  0
 14  6  1  0  0  0  0
 15 19  1  0  0  0  0
 15 17  1  0  0  0  0
 16 24  1  6  0  0  0
 16 27  1  0  0  0  0
 16 22  1  0  0  0  0
 17 25  1  6  0  0  0
 17 27  1  0  0  0  0
 18 26  1  0  0  0  0
 19 29  1  1  0  0  0
 19 16  1  0  0  0  0
 21 20  1  0  0  0  0
 22 20  1  0  0  0  0
 22 14  1  1  0  0  0
 23 28  1  0  0  0  0
 24 21  1  0  0  0  0
 25 23  1  0  0  0  0
 26 31  1  1  0  0  0
 27 26  1  0  0  0  0
 28 18  1  0  0  0  0
 31 30  1  0  0  0  0
 32 35  1  0  0  0  0
 33 34  1  0  0  0  0
 33 32  1  0  0  0  0
 34 32  1  0  0  0  0
 36 37  1  0  0  0  0
 37 34  1  0  0  0  0
 38 34  1  0  0  0  0
 38 39  1  0  0  0  0
 39 40  1  0  0  0  0
 40 59  1  0  0  0  0
 41 44  1  0  0  0  0
 41 49  1  0  0  0  0
 42 45  1  0  0  0  0
 43 44  1  0  0  0  0
 44 40  1  0  0  0  0
 45 41  1  0  0  0  0
 46 42  1  0  0  0  0
 46 43  1  0  0  0  0
 47 48  1  0  0  0  0
 48 42  1  0  0  0  0
 49 50  1  0  0  0  0
 50 51  1  0  0  0  0
 53 52  2  0  0  0  0
 53 50  1  0  0  0  0
 54 53  1  0  0  0  0
 55 54  1  0  0  0  0
 56 58  1  0  0  0  0
 57 56  1  0  0  0  0
 57 58  1  0  0  0  0
 58 55  1  0  0  0  0
 59 60  1  0  0  0  0
 59 61  1  0  0  0  0
M  END
>  <MODEL>
8

>  <REMARK>
 VINA RESULT:      -6.3      2.750      8.424
  Name = 
  19 active torsions:
  status: ('A' for Active; 'I' for Inactive)
    1  A    between atoms: C_2  and  C_11
    2  A    between atoms: C_4  and  C_57
    3  A    between atoms: C_5  and  C_12
    4  A    between atoms: C_6  and  C_41
    5  A    between atoms: C_6  and  C_44
    6  A    between atoms: C_8  and  C_24
    7  A    between atoms: C_9  and  C_17
    8  A    between atoms: C_9  and  C_23
    9  A    between atoms: C_11  and  C_19
   10  A    between atoms: C_11  and  C_45
   11  A    between atoms: C_12  and  C_25
   12  A    between atoms: C_17  and  C_19
   13  A    between atoms: C_22  and  C_25
   14  A    between atoms: C_24  and  C_47
   15  A    between atoms: N_27  and  C_55
   16  A    between atoms: C_38  and  C_57
   17  A    between atoms: C_39  and  C_51
   18  A    between atoms: C_42  and  C_50
   19  A    between atoms: C_55  and  C_56
                            x       y       z     vdW  Elec       q    Type
                         _______ _______ _______ _____ _____    ______ ____

>  <TORSDO>
F 19

$$$$
=
 OpenBabel11062420183D

 61 67  0  0  1  0  0  0  0  0999 V2000
  193.6050  172.5410  143.7320 C   0  0  0  0  0  2  0  0  0  0  0  0
  193.9680  170.2930  144.4680 O   0  0  0  0  0  0  0  0  0  0  0  0
  191.8060  170.2540  142.5120 C   0  0  0  0  0  1  0  0  0  0  0  0
  193.9490  169.1630  141.8380 C   0  0  0  0  0  2  0  0  0  0  0  0
  194.8060  169.1960  144.1900 C   0  0  2  0  0  3  0  0  0  0  0  0
  193.2780  170.5130  142.1530 C   0  0  2  0  0  0  0  0  0  0  0  0
  194.1830  168.3200  143.0940 C   0  0  0  0  0  2  0  0  0  0  0  0
  194.0390  171.1340  143.3450 C   0  0  1  0  0  3  0  0  0  0  0  0
  193.9780  168.5740  146.3580 O   0  0  0  0  0  1  0  0  0  0  0  0
  195.0420  168.3770  145.4600 C   0  0  2  0  0  3  0  0  0  0  0  0
  196.3560  168.7760  146.1380 C   0  0  2  0  0  3  0  0  0  0  0  0
  196.1120  169.3310  147.3990 O   0  0  0  0  0  1  0  0  0  0  0  0
  197.1070  169.7800  145.2850 C   0  0  0  0  0  1  0  0  0  0  0  0
  193.4540  171.3790  140.8940 C   0  0  0  0  0  2  0  0  0  0  0  0
  192.9200  169.7790  137.0970 C   0  0  0  0  0  2  0  0  0  0  0  0
  192.2640  171.6100  138.6230 C   0  0  2  0  0  0  0  0  0  0  0  0
  193.7920  170.9840  136.7870 C   0  0  1  0  0  3  0  0  0  0  0  0
  194.3390  174.0230  136.7950 C   0  0  0  0  0  2  0  0  0  0  0  0
  191.8360  170.2380  138.0670 C   0  0  2  0  0  3  0  0  0  0  0  0
  191.7570  173.0630  140.4390 O   0  0  0  0  0  0  0  0  0  0  0  0
  190.9160  173.4360  139.3710 C   0  0  0  0  0  2  0  0  0  0  0  0
  192.1660  171.7550  140.1430 C   0  0  2  0  0  3  0  0  0  0  0  0
  194.4880  172.4360  134.5210 S   0  0  0  0  0  0  0  0  0  0  0  0
  191.3160  172.6670  138.1290 C   0  0  0  0  0  2  0  0  0  0  0  0
  193.1960  171.6840  135.5710 C   0  0  0  0  0  2  0  0  0  0  0  0
  194.2460  173.2630  138.1220 C   0  0  1  0  0  3  0  0  0  0  0  0
  193.6690  171.8300  138.0520 C   0  0  1  0  0  3  0  0  0  0  0  0
  195.3320  173.3690  135.8450 C   0  0  0  0  0  2  0  0  0  0  0  0
  191.6030  169.1540  139.1120 C   0  0  0  0  0  1  0  0  0  0  0  0
  196.0100  174.5720  139.0690 O   0  0  0  0  0  1  0  0  0  0  0  0
  195.5660  173.2650  138.8800 C   0  0  0  0  0  2  0  0  0  0  0  0
  195.0010  174.4040  144.6830 C   0  0  2  0  0  3  0  0  0  0  0  0
  194.7360  173.5350  143.4540 C   0  0  2  0  0  3  0  0  0  0  0  0
  194.3000  175.0030  143.4630 C   0  0  2  0  0  0  0  0  0  0  0  0
  196.4840  174.7280  144.7610 C   0  0  0  0  0  1  0  0  0  0  0  0
  194.2700  176.3610  141.4920 O   0  0  0  0  0  1  0  0  0  0  0  0
  195.1070  175.8450  142.4780 C   0  0  0  0  0  2  0  0  0  0  0  0
  192.7940  175.2900  143.5760 C   0  0  0  0  0  2  0  0  0  0  0  0
  192.4440  176.6060  144.2830 C   0  0  0  0  0  2  0  0  0  0  0  0
  191.5360  176.4570  145.5070 C   0  0  1  0  0  3  0  0  0  0  0  0
  189.1560  176.4320  144.5390 C   0  0  2  0  0  3  0  0  0  0  0  0
  187.7490  176.1540  146.3580 C   0  0  1  0  0  3  0  0  0  0  0  0
  189.7780  174.7390  146.3400 C   0  0  0  0  0  2  0  0  0  0  0  0
  190.2870  175.6160  145.1910 C   0  0  2  0  0  3  0  0  0  0  0  0
  188.3470  177.0980  145.4950 O   0  0  0  0  0  0  0  0  0  0  0  0
  188.8080  175.4980  147.2330 C   0  0  0  0  0  2  0  0  0  0  0  0
  185.4460  176.6330  146.7260 O   0  0  0  0  0  1  0  0  0  0  0  0
  186.7290  176.8490  147.2360 C   0  0  0  0  0  2  0  0  0  0  0  0
  188.3200  175.5760  143.5900 C   0  0  0  0  0  2  0  0  0  0  0  0
  188.2930  176.1740  142.1930 C   0  0  1  0  0  3  0  0  0  0  0  0
  188.5020  175.1640  141.2590 O   0  0  0  0  0  1  0  0  0  0  0  0
  186.8130  177.4550  140.8020 O   0  0  0  0  0  0  0  0  0  0  0  0
  186.9920  176.8560  141.8980 C   0  0  0  0  0  0  0  0  0  0  0  0
  185.9860  176.8890  142.9080 N   0  0  0  0  0  2  0  0  0  0  0  0
  184.8400  177.7870  142.8140 C   0  0  0  0  0  2  0  0  0  0  0  0
  185.3870  179.1880  144.7030 O   0  0  0  0  0  0  0  0  0  0  0  0
  184.2410  179.7700  144.1320 C   0  0  0  0  0  2  0  0  0  0  0  0
  184.4220  178.2980  144.1860 C   0  0  1  0  0  3  0  0  0  0  0  0
  192.2780  176.0950  146.8040 C   0  0  0  0  0  3  0  0  0  0  0  0
  193.4870  176.7830  146.8650 O   0  0  0  0  0  1  0  0  0  0  0  0
  192.5370  174.7280  146.8570 O   0  0  0  0  0  1  0  0  0  0  0  0
  4  6  1  0  0  0  0
  4  7  1  0  0  0  0
  5  2  1  0  0  0  0
  5 10  1  1  0  0  0
  6  3  1  1  0  0  0
  6  8  1  0  0  0  0
  7  5  1  0  0  0  0
  8  1  1  1  0  0  0
  8  2  1  0  0  0  0
 10 11  1  0  0  0  0
 10  9  1  1  0  0  0
 11 13  1  6  0  0  0
 11 12  1  0  0  0  0
 14  6  1  0  0  0  0
 15 19  1  0  0  0  0
 16 24  1  6  0  0  0
 16 22  1  0  0  0  0
 17 25  1  6  0  0  0
 17 15  1  0  0  0  0
 17 27  1  0  0  0  0
 18 26  1  0  0  0  0
 19 16  1  0  0  0  0
 19 29  1  1  0  0  0
 21 20  1  0  0  0  0
 22 20  1  0  0  0  0
 22 14  1  1  0  0  0
 23 25  1  0  0  0  0
 23 28  1  0  0  0  0
 24 21  1  0  0  0  0
 26 31  1  6  0  0  0
 27 26  1  0  0  0  0
 27 16  1  0  0  0  0
 28 18  1  0  0  0  0
 31 30  1  0  0  0  0
 32 35  1  0  0  0  0
 33 34  1  0  0  0  0
 33  1  1  0  0  0  0
 33 32  1  0  0  0  0
 34 38  1  0  0  0  0
 34 32  1  0  0  0  0
 36 37  1  0  0  0  0
 37 34  1  0  0  0  0
 38 39  1  0  0  0  0
 39 40  1  0  0  0  0
 40 59  1  0  0  0  0
 41 44  1  0  0  0  0
 41 45  1  0  0  0  0
 42 46  1  0  0  0  0
 42 48  1  0  0  0  0
 43 46  1  0  0  0  0
 44 40  1  0  0  0  0
 44 43  1  0  0  0  0
 45 42  1  0  0  0  0
 47 48  1  0  0  0  0
 49 41  1  0  0  0  0
 50 49  1  0  0  0  0
 51 50  1  0  0  0  0
 52 53  2  0  0  0  0
 53 50  1  0  0  0  0
 53 54  1  0  0  0  0
 55 54  1  0  0  0  0
 55 58  1  0  0  0  0
 57 58  1  0  0  0  0
 57 56  1  0  0  0  0
 58 56  1  0  0  0  0
 59 61  1  0  0  0  0
 59 60  1  0  0  0  0
M  END
>  <MODEL>
9

>  <REMARK>
 VINA RESULT:      -6.1      2.451      8.277
  Name = 
  19 active torsions:
  status: ('A' for Active; 'I' for Inactive)
    1  A    between atoms: C_2  and  C_11
    2  A    between atoms: C_4  and  C_57
    3  A    between atoms: C_5  and  C_12
    4  A    between atoms: C_6  and  C_41
    5  A    between atoms: C_6  and  C_44
    6  A    between atoms: C_8  and  C_24
    7  A    between atoms: C_9  and  C_17
    8  A    between atoms: C_9  and  C_23
    9  A    between atoms: C_11  and  C_19
   10  A    between atoms: C_11  and  C_45
   11  A    between atoms: C_12  and  C_25
   12  A    between atoms: C_17  and  C_19
   13  A    between atoms: C_22  and  C_25
   14  A    between atoms: C_24  and  C_47
   15  A    between atoms: N_27  and  C_55
   16  A    between atoms: C_38  and  C_57
   17  A    between atoms: C_39  and  C_51
   18  A    between atoms: C_42  and  C_50
   19  A    between atoms: C_55  and  C_56
                            x       y       z     vdW  Elec       q    Type
                         _______ _______ _______ _____ _____    ______ ____

>  <TORSDO>
F 19

$$$$
