=
 OpenBabel11062419373D

 42 46  0  0  1  0  0  0  0  0999 V2000
  188.5380  176.9360  146.7720 C   0  0  0  0  0  2  0  0  0  0  0  0
  192.9120  174.8870  144.7350 N   0  0  0  0  0  0  0  0  0  0  0  0
  185.1590  176.5930  146.2710 C   0  0  0  0  0  1  0  0  0  0  0  0
  187.8610  175.8680  141.0390 C   0  0  0  0  0  1  0  0  0  0  0  0
  190.8130  176.0390  144.9850 C   0  0  0  0  0  0  0  0  0  0  0  0
  190.0270  175.0070  142.5510 N   0  0  0  0  0  0  0  0  0  0  0  0
  187.8940  176.2500  142.5140 C   0  0  1  0  0  3  0  0  0  0  0  0
  186.0490  178.9050  146.2250 C   0  0  0  0  0  1  0  0  0  0  0  0
  189.1770  175.8470  143.2010 C   0  0  0  0  0  0  0  0  0  0  0  0
  192.5930  176.3000  146.6270 C   0  0  0  0  0  3  0  0  0  0  0  0
  191.2300  174.6360  143.0510 C   0  0  0  0  0  0  0  0  0  0  0  0
  193.3840  175.4240  145.8910 C   0  0  0  0  0  3  0  0  0  0  0  0
  187.1480  177.0470  144.9190 N   0  0  2  0  0  0  0  0  0  0  0  0
  188.5410  177.2260  145.2900 C   0  0  2  0  0  3  0  0  0  0  0  0
  189.5040  176.3210  144.5040 C   0  0  0  0  0  0  0  0  0  0  0  0
  191.6670  175.1750  144.2620 C   0  0  0  0  0  0  0  0  0  0  0  0
  186.8300  177.8800  143.7330 C   0  0  1  0  0  3  0  0  0  0  0  0
  187.2380  177.1310  147.2640 O   0  0  0  0  0  0  0  0  0  0  0  0
  187.6920  177.6360  142.6350 O   0  0  0  0  0  0  0  0  0  0  0  0
  191.3140  176.6070  146.1690 C   0  0  0  0  0  3  0  0  0  0  0  0
  186.4260  177.4210  146.1540 C   0  0  0  0  0  0  0  0  0  0  0  0
  190.4990  172.0630  141.4930 C   0  0  0  0  0  2  0  0  0  0  0  0
  192.1150  173.0720  139.7750 C   0  0  1  0  0  3  0  0  0  0  0  0
  191.6830  172.2740  142.3230 N   0  0  0  0  0  0  0  0  0  0  0  0
  190.8380  172.2530  140.0080 C   0  0  0  0  0  2  0  0  0  0  0  0
  192.2480  174.1930  140.8170 C   0  0  1  0  0  3  0  0  0  0  0  0
  192.1100  173.6910  142.2640 C   0  0  1  0  0  3  0  0  0  0  0  0
  193.4580  174.8700  140.6590 O   0  0  0  0  0  1  0  0  0  0  0  0
  193.2240  171.5620  138.5910 C   0  0  0  0  0  1  0  0  0  0  0  0
  193.2300  172.2290  139.8180 O   0  0  0  0  0  0  0  0  0  0  0  0
  191.3800  171.8650  143.6910 C   0  0  0  0  0  2  0  0  0  0  0  0
  192.5660  169.6910  143.9530 O   0  0  0  0  0  0  0  0  0  0  0  0
  192.5010  171.0490  144.2310 C   0  0  0  0  0  0  0  0  0  0  0  0
  193.3690  171.5810  144.9700 O   0  0  0  0  0  1  0  0  0  0  0  0
  185.3500  177.8180  143.3190 C   0  0  0  0  0  2  0  0  0  0  0  0
  185.0200  178.7180  142.1360 C   0  0  0  0  0  2  0  0  0  0  0  0
  184.4380  177.8910  141.0060 C   0  0  0  0  0  2  0  0  0  0  0  0
  183.2350  178.5270  140.4950 N   0  0  0  0  0  2  0  0  0  0  0  0
  182.1470  178.1610  141.3880 C   0  0  0  0  0  2  0  0  0  0  0  0
  180.7960  178.4780  140.7570 C   0  0  1  0  0  3  0  0  0  0  0  0
  179.6560  177.9450  141.6050 C   0  0  0  0  0  1  0  0  0  0  0  0
  180.6620  179.8570  140.5780 O   0  0  0  0  0  1  0  0  0  0  0  0
  1 18  1  0  0  0  0
  2 12  1  0  0  0  0
  5 20  2  0  0  0  0
  6 11  2  0  0  0  0
  6  9  1  0  0  0  0
  7  4  1  6  0  0  0
  7 19  1  0  0  0  0
  7  9  1  0  0  0  0
  9 15  2  0  0  0  0
 11 16  1  0  0  0  0
 12 10  2  0  0  0  0
 13 14  1  0  0  0  0
 13 21  1  1  0  0  0
 14  1  1  1  0  0  0
 15  5  1  0  0  0  0
 15 14  1  0  0  0  0
 16  2  2  0  0  0  0
 16  5  1  0  0  0  0
 17 35  1  6  0  0  0
 17 13  1  0  0  0  0
 19 17  1  0  0  0  0
 20 10  1  0  0  0  0
 21  8  1  0  0  0  0
 21  3  1  0  0  0  0
 21 18  1  0  0  0  0
 22 24  1  0  0  0  0
 23 30  1  1  0  0  0
 23 25  1  0  0  0  0
 23 26  1  0  0  0  0
 24 31  1  0  0  0  0
 25 22  1  0  0  0  0
 26 28  1  1  0  0  0
 26 27  1  0  0  0  0
 27 24  1  0  0  0  0
 27 11  1  1  0  0  0
 29 30  1  0  0  0  0
 31 33  1  0  0  0  0
 32 33  2  0  0  0  0
 33 34  1  0  0  0  0
 36 35  1  0  0  0  0
 37 36  1  0  0  0  0
 38 37  1  0  0  0  0
 38 39  1  0  0  0  0
 40 39  1  0  0  0  0
 40 41  1  1  0  0  0
 42 40  1  0  0  0  0
M  END
>  <MODEL>
1

>  <REMARK>
 VINA RESULT:      -7.2      0.000      0.000
  Name = 
  10 active torsions:
  status: ('A' for Active; 'I' for Inactive)
    1  A    between atoms: C_1  and  N_28
    2  A    between atoms: C_1  and  C_37
    3  A    between atoms: C_3  and  C_33
    4  A    between atoms: C_3  and  C_37
    5  A    between atoms: C_6  and  C_11
    6  A    between atoms: C_9  and  C_10
    7  A    between atoms: C_9  and  N_23
    8  A    between atoms: C_11  and  N_28
    9  A    between atoms: C_17  and  O_21
   10  A    between atoms: C_25  and  C_36
                            x       y       z     vdW  Elec       q    Type
                         _______ _______ _______ _____ _____    ______ ____

>  <TORSDO>
F 10

$$$$
=
 OpenBabel11062419373D

 42 46  0  0  1  0  0  0  0  0999 V2000
  188.4960  174.8970  141.1010 C   0  0  0  0  0  2  0  0  0  0  0  0
  192.4750  171.4940  141.3790 N   0  0  0  0  0  0  0  0  0  0  0  0
  187.9290  178.1480  142.0470 C   0  0  0  0  0  1  0  0  0  0  0  0
  191.5820  175.7030  146.0310 C   0  0  0  0  0  1  0  0  0  0  0  0
  190.7250  173.0390  141.9700 C   0  0  0  0  0  0  0  0  0  0  0  0
  192.3700  174.0550  143.9370 N   0  0  0  0  0  0  0  0  0  0  0  0
  190.6520  175.5880  144.8290 C   0  0  1  0  0  3  0  0  0  0  0  0
  186.2590  176.4780  142.7950 C   0  0  0  0  0  1  0  0  0  0  0  0
  191.1140  174.5650  143.8180 C   0  0  0  0  0  0  0  0  0  0  0  0
  190.3810  171.3480  140.2510 C   0  0  0  0  0  3  0  0  0  0  0  0
  192.8590  173.0890  143.1230 C   0  0  0  0  0  0  0  0  0  0  0  0
  191.6840  170.9030  140.4450 C   0  0  0  0  0  3  0  0  0  0  0  0
  188.7340  176.0810  143.0800 N   0  0  2  0  0  0  0  0  0  0  0  0
  188.8680  174.7330  142.5560 C   0  0  2  0  0  3  0  0  0  0  0  0
  190.2710  174.1370  142.7530 C   0  0  0  0  0  0  0  0  0  0  0  0
  192.0320  172.5310  142.1450 C   0  0  0  0  0  0  0  0  0  0  0  0
  188.4180  176.0310  144.5290 C   0  0  1  0  0  3  0  0  0  0  0  0
  187.7140  176.0540  140.9660 O   0  0  0  0  0  0  0  0  0  0  0  0
  189.3560  175.2760  145.2770 O   0  0  0  0  0  0  0  0  0  0  0  0
  189.9060  172.4100  141.0170 C   0  0  0  0  0  3  0  0  0  0  0  0
  187.6720  176.6630  142.2320 C   0  0  0  0  0  0  0  0  0  0  0  0
  195.3360  174.5130  144.3130 C   0  0  0  0  0  2  0  0  0  0  0  0
  195.6520  172.2370  145.4530 C   0  0  1  0  0  3  0  0  0  0  0  0
  195.3140  173.6210  143.1550 N   0  0  0  0  0  0  0  0  0  0  0  0
  195.8030  173.7600  145.5660 C   0  0  0  0  0  2  0  0  0  0  0  0
  194.3800  171.8660  144.6760 C   0  0  1  0  0  3  0  0  0  0  0  0
  194.2700  172.5840  143.3210 C   0  0  1  0  0  3  0  0  0  0  0  0
  194.3000  170.4850  144.4930 O   0  0  0  0  0  1  0  0  0  0  0  0
  197.2160  170.6840  145.6910 C   0  0  0  0  0  1  0  0  0  0  0  0
  196.7810  171.6960  144.8310 O   0  0  0  0  0  0  0  0  0  0  0  0
  195.0890  174.4170  141.9520 C   0  0  0  0  0  2  0  0  0  0  0  0
  196.1830  176.6210  141.5730 O   0  0  0  0  0  1  0  0  0  0  0  0
  196.2940  175.2420  141.6630 C   0  0  0  0  0  0  0  0  0  0  0  0
  197.4050  174.6860  141.4640 O   0  0  0  0  0  0  0  0  0  0  0  0
  188.1750  177.4150  145.1530 C   0  0  0  0  0  2  0  0  0  0  0  0
  187.7590  177.3490  146.6160 C   0  0  0  0  0  2  0  0  0  0  0  0
  186.2510  177.2260  146.7180 C   0  0  0  0  0  2  0  0  0  0  0  0
  185.6280  178.5040  146.4150 N   0  0  0  0  0  2  0  0  0  0  0  0
  184.4220  178.2200  145.6540 C   0  0  0  0  0  2  0  0  0  0  0  0
  184.2110  179.2620  144.5620 C   0  0  1  0  0  3  0  0  0  0  0  0
  185.5190  179.9320  144.1830 C   0  0  0  0  0  1  0  0  0  0  0  0
  183.6300  178.6670  143.4380 O   0  0  0  0  0  1  0  0  0  0  0  0
  2 16  1  0  0  0  0
  3 21  1  0  0  0  0
  5 16  2  0  0  0  0
  5 15  1  0  0  0  0
  7 19  1  0  0  0  0
  7  4  1  1  0  0  0
  9  6  1  0  0  0  0
  9  7  1  0  0  0  0
 10 12  1  0  0  0  0
 10 20  2  0  0  0  0
 11  6  2  0  0  0  0
 12  2  2  0  0  0  0
 13 21  1  6  0  0  0
 13 17  1  0  0  0  0
 14  1  1  6  0  0  0
 14 15  1  0  0  0  0
 14 13  1  0  0  0  0
 15  9  2  0  0  0  0
 16 11  1  0  0  0  0
 17 35  1  1  0  0  0
 17 19  1  0  0  0  0
 18  1  1  0  0  0  0
 18 21  1  0  0  0  0
 20  5  1  0  0  0  0
 21  8  1  0  0  0  0
 22 25  1  0  0  0  0
 23 30  1  6  0  0  0
 23 25  1  0  0  0  0
 24 27  1  0  0  0  0
 24 22  1  0  0  0  0
 26 28  1  6  0  0  0
 26 23  1  0  0  0  0
 27 11  1  1  0  0  0
 27 26  1  0  0  0  0
 30 29  1  0  0  0  0
 31 24  1  0  0  0  0
 32 33  1  0  0  0  0
 33 31  1  0  0  0  0
 34 33  2  0  0  0  0
 35 36  1  0  0  0  0
 36 37  1  0  0  0  0
 38 37  1  0  0  0  0
 39 38  1  0  0  0  0
 40 41  1  6  0  0  0
 40 39  1  0  0  0  0
 42 40  1  0  0  0  0
M  END
>  <MODEL>
2

>  <REMARK>
 VINA RESULT:      -7.2      2.550      5.370
  Name = 
  10 active torsions:
  status: ('A' for Active; 'I' for Inactive)
    1  A    between atoms: C_1  and  N_28
    2  A    between atoms: C_1  and  C_37
    3  A    between atoms: C_3  and  C_33
    4  A    between atoms: C_3  and  C_37
    5  A    between atoms: C_6  and  C_11
    6  A    between atoms: C_9  and  C_10
    7  A    between atoms: C_9  and  N_23
    8  A    between atoms: C_11  and  N_28
    9  A    between atoms: C_17  and  O_21
   10  A    between atoms: C_25  and  C_36
                            x       y       z     vdW  Elec       q    Type
                         _______ _______ _______ _____ _____    ______ ____

>  <TORSDO>
F 10

$$$$
=
 OpenBabel11062419373D

 42 46  0  0  1  0  0  0  0  0999 V2000
  191.9780  174.9000  145.5490 C   0  0  0  0  0  2  0  0  0  0  0  0
  193.7890  173.1460  140.9520 N   0  0  0  0  0  0  0  0  0  0  0  0
  188.9390  175.0410  147.1380 C   0  0  0  0  0  1  0  0  0  0  0  0
  187.9800  175.6510  141.3150 C   0  0  0  0  0  1  0  0  0  0  0  0
  192.5570  174.3640  142.6240 C   0  0  0  0  0  0  0  0  0  0  0  0
  190.3190  174.1800  141.0220 N   0  0  0  0  0  0  0  0  0  0  0  0
  188.9240  175.5730  142.5090 C   0  0  1  0  0  3  0  0  0  0  0  0
  190.2000  177.1670  146.9880 C   0  0  0  0  0  1  0  0  0  0  0  0
  190.2210  174.8660  142.1940 C   0  0  0  0  0  0  0  0  0  0  0  0
  194.9460  173.9580  142.8700 C   0  0  0  0  0  3  0  0  0  0  0  0
  191.4560  173.5660  140.6150 C   0  0  0  0  0  0  0  0  0  0  0  0
  194.9410  173.2690  141.6620 C   0  0  0  0  0  3  0  0  0  0  0  0
  189.8750  175.6860  144.9710 N   0  0  2  0  0  0  0  0  0  0  0  0
  191.2290  175.6150  144.4500 C   0  0  2  0  0  3  0  0  0  0  0  0
  191.3240  174.8980  143.0930 C   0  0  0  0  0  0  0  0  0  0  0  0
  192.6130  173.6780  141.3900 C   0  0  0  0  0  0  0  0  0  0  0  0
  189.1720  176.8600  144.3960 C   0  0  1  0  0  3  0  0  0  0  0  0
  191.2730  175.0610  146.7510 O   0  0  0  0  0  0  0  0  0  0  0  0
  189.1820  176.8730  142.9780 O   0  0  0  0  0  0  0  0  0  0  0  0
  193.7560  174.5060  143.3440 C   0  0  0  0  0  3  0  0  0  0  0  0
  190.0850  175.7430  146.4340 C   0  0  0  0  0  0  0  0  0  0  0  0
  189.2060  171.9990  139.1800 C   0  0  0  0  0  2  0  0  0  0  0  0
  190.1690  173.1990  137.1270 C   0  0  1  0  0  3  0  0  0  0  0  0
  190.6130  171.6160  139.2750 N   0  0  0  0  0  0  0  0  0  0  0  0
  188.9140  172.6550  137.8230 C   0  0  0  0  0  2  0  0  0  0  0  0
  191.1550  173.7850  138.1490 C   0  0  1  0  0  3  0  0  0  0  0  0
  191.4760  172.8190  139.3010 C   0  0  1  0  0  3  0  0  0  0  0  0
  192.3340  174.1890  137.5210 O   0  0  0  0  0  1  0  0  0  0  0  0
  189.7940  171.7400  135.5020 C   0  0  0  0  0  1  0  0  0  0  0  0
  190.7790  172.1800  136.3890 O   0  0  0  0  0  0  0  0  0  0  0  0
  190.8000  170.7990  140.4700 C   0  0  0  0  0  2  0  0  0  0  0  0
  192.0570  169.1090  139.1410 O   0  0  0  0  0  0  0  0  0  0  0  0
  191.9660  169.8940  140.2810 C   0  0  0  0  0  0  0  0  0  0  0  0
  192.8510  169.8110  141.1720 O   0  0  0  0  0  1  0  0  0  0  0  0
  187.7550  177.0630  144.9570 C   0  0  0  0  0  2  0  0  0  0  0  0
  187.0100  178.2170  144.3000 C   0  0  0  0  0  2  0  0  0  0  0  0
  185.5150  177.9750  144.3760 C   0  0  0  0  0  2  0  0  0  0  0  0
  184.8940  178.9690  145.2350 N   0  0  0  0  0  2  0  0  0  0  0  0
  184.2910  178.2550  146.3480 C   0  0  0  0  0  2  0  0  0  0  0  0
  185.1120  178.4360  147.6200 C   0  0  1  0  0  3  0  0  0  0  0  0
  185.9400  177.2000  147.9200 C   0  0  0  0  0  1  0  0  0  0  0  0
  185.9410  179.5550  147.4990 O   0  0  0  0  0  1  0  0  0  0  0  0
  1 18  1  0  0  0  0
  2 16  2  0  0  0  0
  2 12  1  0  0  0  0
  5 15  1  0  0  0  0
  5 20  2  0  0  0  0
  6  9  1  0  0  0  0
  7  4  1  6  0  0  0
  7 19  1  0  0  0  0
  9  7  1  0  0  0  0
  9 15  2  0  0  0  0
 10 20  1  0  0  0  0
 11  6  2  0  0  0  0
 11 16  1  0  0  0  0
 12 10  2  0  0  0  0
 13 21  1  1  0  0  0
 14 13  1  0  0  0  0
 14  1  1  1  0  0  0
 15 14  1  0  0  0  0
 16  5  1  0  0  0  0
 17 35  1  6  0  0  0
 17 13  1  0  0  0  0
 19 17  1  0  0  0  0
 21 18  1  0  0  0  0
 21  8  1  0  0  0  0
 21  3  1  0  0  0  0
 22 24  1  0  0  0  0
 23 30  1  1  0  0  0
 23 25  1  0  0  0  0
 23 26  1  0  0  0  0
 24 27  1  0  0  0  0
 24 31  1  0  0  0  0
 25 22  1  0  0  0  0
 26 28  1  6  0  0  0
 26 27  1  0  0  0  0
 27 11  1  1  0  0  0
 29 30  1  0  0  0  0
 32 33  2  0  0  0  0
 33 31  1  0  0  0  0
 33 34  1  0  0  0  0
 36 37  1  0  0  0  0
 36 35  1  0  0  0  0
 37 38  1  0  0  0  0
 38 39  1  0  0  0  0
 39 40  1  0  0  0  0
 40 41  1  6  0  0  0
 42 40  1  0  0  0  0
M  END
>  <MODEL>
3

>  <REMARK>
 VINA RESULT:      -6.7      2.939      4.192
  Name = 
  10 active torsions:
  status: ('A' for Active; 'I' for Inactive)
    1  A    between atoms: C_1  and  N_28
    2  A    between atoms: C_1  and  C_37
    3  A    between atoms: C_3  and  C_33
    4  A    between atoms: C_3  and  C_37
    5  A    between atoms: C_6  and  C_11
    6  A    between atoms: C_9  and  C_10
    7  A    between atoms: C_9  and  N_23
    8  A    between atoms: C_11  and  N_28
    9  A    between atoms: C_17  and  O_21
   10  A    between atoms: C_25  and  C_36
                            x       y       z     vdW  Elec       q    Type
                         _______ _______ _______ _____ _____    ______ ____

>  <TORSDO>
F 10

$$$$
=
 OpenBabel11062419373D

 42 46  0  0  1  0  0  0  0  0999 V2000
  191.9180  175.0910  145.6630 C   0  0  0  0  0  2  0  0  0  0  0  0
  193.7710  173.5540  141.0060 N   0  0  0  0  0  0  0  0  0  0  0  0
  188.9480  174.8420  147.3670 C   0  0  0  0  0  1  0  0  0  0  0  0
  187.6990  175.2710  141.5840 C   0  0  0  0  0  1  0  0  0  0  0  0
  192.4530  174.6120  142.7200 C   0  0  0  0  0  0  0  0  0  0  0  0
  190.2000  174.1200  141.2060 N   0  0  0  0  0  0  0  0  0  0  0  0
  188.6890  175.3290  142.7400 C   0  0  1  0  0  3  0  0  0  0  0  0
  189.9110  177.1160  147.1610 C   0  0  0  0  0  1  0  0  0  0  0  0
  190.0550  174.7970  142.3780 C   0  0  0  0  0  0  0  0  0  0  0  0
  194.8810  174.5280  142.8750 C   0  0  0  0  0  3  0  0  0  0  0  0
  191.3920  173.6580  140.7580 C   0  0  0  0  0  0  0  0  0  0  0  0
  194.9230  173.8340  141.6700 C   0  0  0  0  0  3  0  0  0  0  0  0
  189.7090  175.5880  145.1640 N   0  0  2  0  0  0  0  0  0  0  0  0
  191.0390  175.6920  144.5910 C   0  0  2  0  0  3  0  0  0  0  0  0
  191.1780  174.9820  143.2340 C   0  0  0  0  0  0  0  0  0  0  0  0
  192.5520  173.9290  141.4870 C   0  0  0  0  0  0  0  0  0  0  0  0
  188.8360  176.6530  144.6120 C   0  0  1  0  0  3  0  0  0  0  0  0
  191.2430  175.1680  146.8910 O   0  0  0  0  0  0  0  0  0  0  0  0
  188.7900  176.6550  143.1950 O   0  0  0  0  0  0  0  0  0  0  0  0
  193.6480  174.9170  143.3930 C   0  0  0  0  0  3  0  0  0  0  0  0
  189.9650  175.6840  146.6170 C   0  0  0  0  0  0  0  0  0  0  0  0
  189.2090  172.0510  139.2640 C   0  0  0  0  0  2  0  0  0  0  0  0
  190.2090  173.2630  137.2360 C   0  0  1  0  0  3  0  0  0  0  0  0
  190.6200  171.6920  139.3980 N   0  0  0  0  0  0  0  0  0  0  0  0
  188.9440  172.6990  137.8980 C   0  0  0  0  0  2  0  0  0  0  0  0
  191.1560  173.8680  138.2830 C   0  0  1  0  0  3  0  0  0  0  0  0
  191.4610  172.9100  139.4460 C   0  0  1  0  0  3  0  0  0  0  0  0
  192.3450  174.2900  137.6870 O   0  0  0  0  0  1  0  0  0  0  0  0
  189.8960  171.7780  135.6200 C   0  0  0  0  0  1  0  0  0  0  0  0
  190.8560  172.2530  136.5170 O   0  0  0  0  0  0  0  0  0  0  0  0
  190.7870  170.8800  140.6000 C   0  0  0  0  0  2  0  0  0  0  0  0
  190.9120  169.0680  138.8970 O   0  0  0  0  0  0  0  0  0  0  0  0
  190.8250  169.4390  140.2310 C   0  0  0  0  0  0  0  0  0  0  0  0
  190.7410  168.5570  141.1250 O   0  0  0  0  0  1  0  0  0  0  0  0
  187.4260  176.6720  145.2260 C   0  0  0  0  0  2  0  0  0  0  0  0
  186.8780  178.0780  145.4260 C   0  0  0  0  0  2  0  0  0  0  0  0
  185.3900  178.0980  145.1330 C   0  0  0  0  0  2  0  0  0  0  0  0
  185.1160  178.9880  144.0170 N   0  0  0  0  0  2  0  0  0  0  0  0
  184.2890  178.2500  143.0760 C   0  0  0  0  0  2  0  0  0  0  0  0
  185.0670  177.9320  141.8040 C   0  0  1  0  0  3  0  0  0  0  0  0
  184.2910  178.3500  140.5680 C   0  0  0  0  0  1  0  0  0  0  0  0
  186.3110  178.5670  141.8300 O   0  0  0  0  0  1  0  0  0  0  0  0
  1 18  1  0  0  0  0
  2 16  2  0  0  0  0
  2 12  1  0  0  0  0
  5 15  1  0  0  0  0
  5 20  2  0  0  0  0
  6  9  1  0  0  0  0
  7  4  1  6  0  0  0
  7 19  1  0  0  0  0
  9  7  1  0  0  0  0
  9 15  2  0  0  0  0
 10 20  1  0  0  0  0
 11  6  2  0  0  0  0
 11 16  1  0  0  0  0
 12 10  2  0  0  0  0
 13 21  1  1  0  0  0
 14 13  1  0  0  0  0
 14  1  1  1  0  0  0
 15 14  1  0  0  0  0
 16  5  1  0  0  0  0
 17 13  1  0  0  0  0
 17 35  1  1  0  0  0
 19 17  1  0  0  0  0
 21 18  1  0  0  0  0
 21  8  1  0  0  0  0
 21  3  1  0  0  0  0
 22 24  1  0  0  0  0
 23 30  1  1  0  0  0
 23 25  1  0  0  0  0
 23 26  1  0  0  0  0
 24 27  1  0  0  0  0
 24 31  1  0  0  0  0
 25 22  1  0  0  0  0
 26 28  1  6  0  0  0
 26 27  1  0  0  0  0
 27 11  1  1  0  0  0
 29 30  1  0  0  0  0
 32 33  2  0  0  0  0
 33 31  1  0  0  0  0
 33 34  1  0  0  0  0
 35 36  1  0  0  0  0
 37 36  1  0  0  0  0
 38 37  1  0  0  0  0
 39 38  1  0  0  0  0
 40 41  1  6  0  0  0
 40 42  1  0  0  0  0
 40 39  1  0  0  0  0
M  END
>  <MODEL>
4

>  <REMARK>
 VINA RESULT:      -6.7      2.487      3.674
  Name = 
  10 active torsions:
  status: ('A' for Active; 'I' for Inactive)
    1  A    between atoms: C_1  and  N_28
    2  A    between atoms: C_1  and  C_37
    3  A    between atoms: C_3  and  C_33
    4  A    between atoms: C_3  and  C_37
    5  A    between atoms: C_6  and  C_11
    6  A    between atoms: C_9  and  C_10
    7  A    between atoms: C_9  and  N_23
    8  A    between atoms: C_11  and  N_28
    9  A    between atoms: C_17  and  O_21
   10  A    between atoms: C_25  and  C_36
                            x       y       z     vdW  Elec       q    Type
                         _______ _______ _______ _____ _____    ______ ____

>  <TORSDO>
F 10

$$$$
=
 OpenBabel11062419373D

 42 46  0  0  1  0  0  0  0  0999 V2000
  192.5640  175.9840  146.1590 C   0  0  0  0  0  2  0  0  0  0  0  0
  195.4600  174.8080  141.9500 N   0  0  0  0  0  0  0  0  0  0  0  0
  189.5190  175.0390  147.4300 C   0  0  0  0  0  1  0  0  0  0  0  0
  189.1400  174.9180  141.5110 C   0  0  0  0  0  1  0  0  0  0  0  0
  193.6640  175.5520  143.3700 C   0  0  0  0  0  0  0  0  0  0  0  0
  191.8760  174.4390  141.5880 N   0  0  0  0  0  0  0  0  0  0  0  0
  189.8870  175.2720  142.7910 C   0  0  1  0  0  3  0  0  0  0  0  0
  189.9030  177.4750  147.1930 C   0  0  0  0  0  1  0  0  0  0  0  0
  191.3820  175.0980  142.6710 C   0  0  0  0  0  0  0  0  0  0  0  0
  195.9800  176.1040  143.8810 C   0  0  0  0  0  3  0  0  0  0  0  0
  193.2020  174.2850  141.3530 C   0  0  0  0  0  0  0  0  0  0  0  0
  196.3850  175.4000  142.7510 C   0  0  0  0  0  3  0  0  0  0  0  0
  190.4100  175.8740  145.3090 N   0  0  2  0  0  0  0  0  0  0  0  0
  191.7460  176.2980  144.9290 C   0  0  2  0  0  3  0  0  0  0  0  0
  192.2720  175.5990  143.6640 C   0  0  0  0  0  0  0  0  0  0  0  0
  194.1260  174.8720  142.2200 C   0  0  0  0  0  0  0  0  0  0  0  0
  189.3980  176.6560  144.5570 C   0  0  1  0  0  3  0  0  0  0  0  0
  191.7050  175.9290  147.2670 O   0  0  0  0  0  0  0  0  0  0  0  0
  189.5800  176.5950  143.1530 O   0  0  0  0  0  0  0  0  0  0  0  0
  194.6220  176.1800  144.1830 C   0  0  0  0  0  3  0  0  0  0  0  0
  190.3990  176.0860  146.7730 C   0  0  0  0  0  0  0  0  0  0  0  0
  192.0090  171.7750  139.9900 C   0  0  0  0  0  2  0  0  0  0  0  0
  192.5170  173.1250  137.8690 C   0  0  1  0  0  3  0  0  0  0  0  0
  193.4270  172.0710  140.1870 N   0  0  0  0  0  0  0  0  0  0  0  0
  191.5770  172.1280  138.5600 C   0  0  0  0  0  2  0  0  0  0  0  0
  193.0500  174.1640  138.8660 C   0  0  1  0  0  3  0  0  0  0  0  0
  193.6630  173.5320  140.1260 C   0  0  1  0  0  3  0  0  0  0  0  0
  193.9790  175.0050  138.2530 O   0  0  0  0  0  1  0  0  0  0  0  0
  193.0370  171.8940  136.1000 C   0  0  0  0  0  1  0  0  0  0  0  0
  193.5760  172.4350  137.2690 O   0  0  0  0  0  0  0  0  0  0  0  0
  193.8510  171.5150  141.4690 C   0  0  0  0  0  2  0  0  0  0  0  0
  194.6250  169.4350  140.3380 O   0  0  0  0  0  0  0  0  0  0  0  0
  193.9200  170.0310  141.3730 C   0  0  0  0  0  0  0  0  0  0  0  0
  193.3070  169.3170  142.2090 O   0  0  0  0  0  1  0  0  0  0  0  0
  187.9490  176.3330  144.9580 C   0  0  0  0  0  2  0  0  0  0  0  0
  186.9280  176.7630  143.9140 C   0  0  0  0  0  2  0  0  0  0  0  0
  186.7150  178.2620  143.9880 C   0  0  0  0  0  2  0  0  0  0  0  0
  185.3900  178.5500  144.5120 N   0  0  0  0  0  2  0  0  0  0  0  0
  185.5680  179.4030  145.6760 C   0  0  0  0  0  2  0  0  0  0  0  0
  185.3170  178.6260  146.9630 C   0  0  1  0  0  3  0  0  0  0  0  0
  184.4540  177.4040  146.7080 C   0  0  0  0  0  1  0  0  0  0  0  0
  186.5330  178.2470  147.5390 O   0  0  0  0  0  1  0  0  0  0  0  0
  1 18  1  0  0  0  0
  2 16  2  0  0  0  0
  2 12  1  0  0  0  0
  5 15  1  0  0  0  0
  5 20  2  0  0  0  0
  6  9  1  0  0  0  0
  7  4  1  6  0  0  0
  7 19  1  0  0  0  0
  9  7  1  0  0  0  0
  9 15  2  0  0  0  0
 10 20  1  0  0  0  0
 11  6  2  0  0  0  0
 11 16  1  0  0  0  0
 12 10  2  0  0  0  0
 13 21  1  1  0  0  0
 14 13  1  0  0  0  0
 14  1  1  1  0  0  0
 15 14  1  0  0  0  0
 16  5  1  0  0  0  0
 17 35  1  6  0  0  0
 17 13  1  0  0  0  0
 19 17  1  0  0  0  0
 21  8  1  0  0  0  0
 21 18  1  0  0  0  0
 21  3  1  0  0  0  0
 22 24  1  0  0  0  0
 23 30  1  1  0  0  0
 23 25  1  0  0  0  0
 23 26  1  0  0  0  0
 24 31  1  0  0  0  0
 25 22  1  0  0  0  0
 26 28  1  6  0  0  0
 26 27  1  0  0  0  0
 27 24  1  0  0  0  0
 27 11  1  1  0  0  0
 29 30  1  0  0  0  0
 32 33  2  0  0  0  0
 33 31  1  0  0  0  0
 33 34  1  0  0  0  0
 36 37  1  0  0  0  0
 36 35  1  0  0  0  0
 37 38  1  0  0  0  0
 38 39  1  0  0  0  0
 39 40  1  0  0  0  0
 40 41  1  6  0  0  0
 40 42  1  0  0  0  0
M  END
>  <MODEL>
5

>  <REMARK>
 VINA RESULT:      -6.2      2.959      3.908
  Name = 
  10 active torsions:
  status: ('A' for Active; 'I' for Inactive)
    1  A    between atoms: C_1  and  N_28
    2  A    between atoms: C_1  and  C_37
    3  A    between atoms: C_3  and  C_33
    4  A    between atoms: C_3  and  C_37
    5  A    between atoms: C_6  and  C_11
    6  A    between atoms: C_9  and  C_10
    7  A    between atoms: C_9  and  N_23
    8  A    between atoms: C_11  and  N_28
    9  A    between atoms: C_17  and  O_21
   10  A    between atoms: C_25  and  C_36
                            x       y       z     vdW  Elec       q    Type
                         _______ _______ _______ _____ _____    ______ ____

>  <TORSDO>
F 10

$$$$
=
 OpenBabel11062419373D

 42 46  0  0  1  0  0  0  0  0999 V2000
  195.6140  175.6930  143.4090 C   0  0  0  0  0  2  0  0  0  0  0  0
  194.9470  174.0230  138.4840 N   0  0  0  0  0  0  0  0  0  0  0  0
  194.0760  175.1940  146.4370 C   0  0  0  0  0  1  0  0  0  0  0  0
  189.9130  174.9500  142.2180 C   0  0  0  0  0  1  0  0  0  0  0  0
  194.5830  175.0380  140.6370 C   0  0  0  0  0  0  0  0  0  0  0  0
  191.9840  174.1180  140.5620 N   0  0  0  0  0  0  0  0  0  0  0  0
  191.3400  175.2400  142.6660 C   0  0  1  0  0  3  0  0  0  0  0  0
  194.4060  177.5500  145.7470 C   0  0  0  0  0  1  0  0  0  0  0  0
  192.3730  174.8680  141.6290 C   0  0  0  0  0  0  0  0  0  0  0  0
  196.7050  175.2950  139.4690 C   0  0  0  0  0  3  0  0  0  0  0  0
  192.8160  173.7850  139.5460 C   0  0  0  0  0  0  0  0  0  0  0  0
  196.2140  174.5120  138.4300 C   0  0  0  0  0  3  0  0  0  0  0  0
  193.4280  175.8420  144.1680 N   0  0  2  0  0  0  0  0  0  0  0  0
  194.2190  176.0750  142.9730 C   0  0  2  0  0  3  0  0  0  0  0  0
  193.7320  175.2760  141.7520 C   0  0  0  0  0  0  0  0  0  0  0  0
  194.1240  174.2710  139.5420 C   0  0  0  0  0  0  0  0  0  0  0  0
  192.2380  176.7280  144.1680 C   0  0  1  0  0  3  0  0  0  0  0  0
  195.6870  175.7830  144.8080 O   0  0  0  0  0  0  0  0  0  0  0  0
  191.4520  176.6020  142.9950 O   0  0  0  0  0  0  0  0  0  0  0  0
  195.8860  175.5580  140.5660 C   0  0  0  0  0  3  0  0  0  0  0  0
  194.3930  176.0970  145.2590 C   0  0  0  0  0  0  0  0  0  0  0  0
  190.6530  171.5700  139.5180 C   0  0  0  0  0  2  0  0  0  0  0  0
  189.9660  172.7670  137.3550 C   0  0  1  0  0  3  0  0  0  0  0  0
  191.9190  171.5640  138.7870 N   0  0  0  0  0  0  0  0  0  0  0  0
  189.5000  171.9960  138.5970 C   0  0  0  0  0  2  0  0  0  0  0  0
  191.1570  173.6790  137.6870 C   0  0  1  0  0  3  0  0  0  0  0  0
  192.3010  172.9420  138.4020 C   0  0  1  0  0  3  0  0  0  0  0  0
  191.6360  174.3020  136.5330 O   0  0  0  0  0  1  0  0  0  0  0  0
  189.3210  172.0290  135.3670 C   0  0  0  0  0  1  0  0  0  0  0  0
  190.3080  171.8660  136.3410 O   0  0  0  0  0  0  0  0  0  0  0  0
  192.9420  170.9410  139.6220 C   0  0  0  0  0  2  0  0  0  0  0  0
  192.6830  168.8780  138.2520 O   0  0  0  0  0  0  0  0  0  0  0  0
  192.8570  169.4600  139.4990 C   0  0  0  0  0  0  0  0  0  0  0  0
  192.9040  168.7380  140.5280 O   0  0  0  0  0  1  0  0  0  0  0  0
  191.3830  176.6100  145.4410 C   0  0  0  0  0  2  0  0  0  0  0  0
  190.1280  177.4710  145.4030 C   0  0  0  0  0  2  0  0  0  0  0  0
  188.8970  176.5920  145.4980 C   0  0  0  0  0  2  0  0  0  0  0  0
  187.6980  177.4000  145.3520 N   0  0  0  0  0  2  0  0  0  0  0  0
  187.1180  177.5460  146.6780 C   0  0  0  0  0  2  0  0  0  0  0  0
  185.7210  178.1500  146.5960 C   0  0  1  0  0  3  0  0  0  0  0  0
  185.5950  179.0830  145.4050 C   0  0  0  0  0  1  0  0  0  0  0  0
  184.7630  177.1360  146.5170 O   0  0  0  0  0  1  0  0  0  0  0  0
  1 18  1  0  0  0  0
  2 16  1  0  0  0  0
  5 15  1  0  0  0  0
  6  9  1  0  0  0  0
  7  4  1  6  0  0  0
  7 19  1  0  0  0  0
  9 15  2  0  0  0  0
  9  7  1  0  0  0  0
 10 20  2  0  0  0  0
 11  6  2  0  0  0  0
 12  2  2  0  0  0  0
 12 10  1  0  0  0  0
 13 17  1  0  0  0  0
 13 21  1  1  0  0  0
 14  1  1  1  0  0  0
 14 13  1  0  0  0  0
 15 14  1  0  0  0  0
 16 11  1  0  0  0  0
 16  5  2  0  0  0  0
 17 35  1  1  0  0  0
 18 21  1  0  0  0  0
 19 17  1  0  0  0  0
 20  5  1  0  0  0  0
 21  8  1  0  0  0  0
 21  3  1  0  0  0  0
 23 30  1  6  0  0  0
 23 26  1  0  0  0  0
 23 25  1  0  0  0  0
 24 22  1  0  0  0  0
 24 31  1  0  0  0  0
 25 22  1  0  0  0  0
 26 28  1  6  0  0  0
 26 27  1  0  0  0  0
 27 24  1  0  0  0  0
 27 11  1  1  0  0  0
 29 30  1  0  0  0  0
 32 33  2  0  0  0  0
 33 31  1  0  0  0  0
 33 34  1  0  0  0  0
 36 35  1  0  0  0  0
 36 37  1  0  0  0  0
 38 37  1  0  0  0  0
 38 39  1  0  0  0  0
 40 41  1  6  0  0  0
 40 39  1  0  0  0  0
 42 40  1  0  0  0  0
M  END
>  <MODEL>
6

>  <REMARK>
 VINA RESULT:      -5.9      3.274      5.950
  Name = 
  10 active torsions:
  status: ('A' for Active; 'I' for Inactive)
    1  A    between atoms: C_1  and  N_28
    2  A    between atoms: C_1  and  C_37
    3  A    between atoms: C_3  and  C_33
    4  A    between atoms: C_3  and  C_37
    5  A    between atoms: C_6  and  C_11
    6  A    between atoms: C_9  and  C_10
    7  A    between atoms: C_9  and  N_23
    8  A    between atoms: C_11  and  N_28
    9  A    between atoms: C_17  and  O_21
   10  A    between atoms: C_25  and  C_36
                            x       y       z     vdW  Elec       q    Type
                         _______ _______ _______ _____ _____    ______ ____

>  <TORSDO>
F 10

$$$$
=
 OpenBabel11062419373D

 42 46  0  0  1  0  0  0  0  0999 V2000
  193.2340  171.6630  139.7840 C   0  0  0  0  0  2  0  0  0  0  0  0
  188.3850  173.4930  140.5740 N   0  0  0  0  0  0  0  0  0  0  0  0
  196.1810  171.5780  141.5430 C   0  0  0  0  0  1  0  0  0  0  0  0
  193.3670  176.6080  142.9460 C   0  0  0  0  0  1  0  0  0  0  0  0
  190.7730  173.3510  140.3030 C   0  0  0  0  0  0  0  0  0  0  0  0
  191.0520  175.1990  142.3310 N   0  0  0  0  0  0  0  0  0  0  0  0
  193.5050  175.3520  142.0950 C   0  0  1  0  0  3  0  0  0  0  0  0
  196.3010  172.4790  139.2380 C   0  0  0  0  0  1  0  0  0  0  0  0
  192.1760  174.7470  141.7110 C   0  0  0  0  0  0  0  0  0  0  0  0
  189.2670  172.1300  138.8300 C   0  0  0  0  0  3  0  0  0  0  0  0
  189.8060  174.7700  142.0160 C   0  0  0  0  0  0  0  0  0  0  0  0
  188.1820  172.6430  139.5330 C   0  0  0  0  0  3  0  0  0  0  0  0
  194.5320  173.2530  140.8620 N   0  0  2  0  0  0  0  0  0  0  0  0
  193.3340  173.1460  140.0480 C   0  0  2  0  0  3  0  0  0  0  0  0
  192.0800  173.7210  140.7280 C   0  0  0  0  0  0  0  0  0  0  0  0
  189.6360  173.8650  140.9670 C   0  0  0  0  0  0  0  0  0  0  0  0
  195.1490  174.5900  140.6820 C   0  0  1  0  0  3  0  0  0  0  0  0
  194.5060  171.0920  139.9430 O   0  0  0  0  0  0  0  0  0  0  0  0
  194.2510  175.6560  140.9420 O   0  0  0  0  0  0  0  0  0  0  0  0
  190.5560  172.4890  139.2150 C   0  0  0  0  0  3  0  0  0  0  0  0
  195.3560  172.1190  140.3900 C   0  0  0  0  0  0  0  0  0  0  0  0
  189.6860  176.6020  144.5080 C   0  0  0  0  0  2  0  0  0  0  0  0
  187.8310  177.7340  143.1440 C   0  0  1  0  0  3  0  0  0  0  0  0
  188.8200  175.4590  144.2220 N   0  0  0  0  0  0  0  0  0  0  0  0
  188.9840  177.9170  144.1400 C   0  0  0  0  0  2  0  0  0  0  0  0
  188.1590  176.6410  142.1160 C   0  0  1  0  0  3  0  0  0  0  0  0
  188.6120  175.3220  142.7620 C   0  0  1  0  0  3  0  0  0  0  0  0
  187.0690  176.4120  141.2750 O   0  0  0  0  0  1  0  0  0  0  0  0
  186.3140  178.5890  144.5160 C   0  0  0  0  0  1  0  0  0  0  0  0
  186.6560  177.4190  143.8350 O   0  0  0  0  0  0  0  0  0  0  0  0
  189.4230  174.2580  144.7910 C   0  0  0  0  0  2  0  0  0  0  0  0
  191.1560  174.6950  146.5250 O   0  0  0  0  0  0  0  0  0  0  0  0
  189.8190  174.5160  146.2020 C   0  0  0  0  0  0  0  0  0  0  0  0
  188.9460  174.5330  147.1080 O   0  0  0  0  0  1  0  0  0  0  0  0
  196.4730  174.7640  141.4440 C   0  0  0  0  0  2  0  0  0  0  0  0
  196.8410  176.2220  141.6830 C   0  0  0  0  0  2  0  0  0  0  0  0
  197.1300  176.4460  143.1540 C   0  0  0  0  0  2  0  0  0  0  0  0
  196.9900  175.1970  143.8830 N   0  0  0  0  0  2  0  0  0  0  0  0
  196.0320  175.4320  144.9520 C   0  0  0  0  0  2  0  0  0  0  0  0
  195.7420  174.1440  145.7150 C   0  0  1  0  0  3  0  0  0  0  0  0
  195.0340  173.1320  144.8330 C   0  0  0  0  0  1  0  0  0  0  0  0
  196.9300  173.6030  146.2130 O   0  0  0  0  0  1  0  0  0  0  0  0
  1 18  1  0  0  0  0
  2 16  1  0  0  0  0
  5 15  2  0  0  0  0
  5 16  1  0  0  0  0
  7  4  1  6  0  0  0
  8 21  1  0  0  0  0
  9  7  1  0  0  0  0
  9  6  2  0  0  0  0
 10 20  2  0  0  0  0
 10 12  1  0  0  0  0
 11  6  1  0  0  0  0
 12  2  2  0  0  0  0
 13 21  1  6  0  0  0
 14  1  1  1  0  0  0
 14 15  1  0  0  0  0
 14 13  1  0  0  0  0
 15  9  1  0  0  0  0
 16 11  2  0  0  0  0
 17 13  1  0  0  0  0
 17 19  1  0  0  0  0
 17 35  1  1  0  0  0
 18 21  1  0  0  0  0
 19  7  1  0  0  0  0
 20  5  1  0  0  0  0
 21  3  1  0  0  0  0
 23 30  1  1  0  0  0
 23 25  1  0  0  0  0
 24 22  1  0  0  0  0
 24 31  1  0  0  0  0
 25 22  1  0  0  0  0
 26 28  1  1  0  0  0
 26 27  1  0  0  0  0
 26 23  1  0  0  0  0
 27 11  1  6  0  0  0
 27 24  1  0  0  0  0
 30 29  1  0  0  0  0
 31 33  1  0  0  0  0
 33 32  2  0  0  0  0
 33 34  1  0  0  0  0
 35 36  1  0  0  0  0
 36 37  1  0  0  0  0
 37 38  1  0  0  0  0
 38 39  1  0  0  0  0
 39 40  1  0  0  0  0
 40 41  1  6  0  0  0
 40 42  1  0  0  0  0
M  END
>  <MODEL>
7

>  <REMARK>
 VINA RESULT:      -5.7      3.198      9.476
  Name = 
  10 active torsions:
  status: ('A' for Active; 'I' for Inactive)
    1  A    between atoms: C_1  and  N_28
    2  A    between atoms: C_1  and  C_37
    3  A    between atoms: C_3  and  C_33
    4  A    between atoms: C_3  and  C_37
    5  A    between atoms: C_6  and  C_11
    6  A    between atoms: C_9  and  C_10
    7  A    between atoms: C_9  and  N_23
    8  A    between atoms: C_11  and  N_28
    9  A    between atoms: C_17  and  O_21
   10  A    between atoms: C_25  and  C_36
                            x       y       z     vdW  Elec       q    Type
                         _______ _______ _______ _____ _____    ______ ____

>  <TORSDO>
F 10

$$$$
=
 OpenBabel11062419373D

 42 46  0  0  1  0  0  0  0  0999 V2000
  193.4510  173.6190  144.4620 C   0  0  0  0  0  2  0  0  0  0  0  0
  190.3230  177.1410  146.7630 N   0  0  0  0  0  0  0  0  0  0  0  0
  193.7790  172.2490  141.3320 C   0  0  0  0  0  1  0  0  0  0  0  0
  188.0200  173.3390  142.2470 C   0  0  0  0  0  1  0  0  0  0  0  0
  191.1260  175.1920  145.6010 C   0  0  0  0  0  0  0  0  0  0  0  0
  188.9190  175.3410  143.9520 N   0  0  0  0  0  0  0  0  0  0  0  0
  189.4560  173.2520  142.7500 C   0  0  1  0  0  3  0  0  0  0  0  0
  193.6100  170.6530  143.2180 C   0  0  0  0  0  1  0  0  0  0  0  0
  189.7910  174.3110  143.7730 C   0  0  0  0  0  0  0  0  0  0  0  0
  192.2890  176.0560  147.5570 C   0  0  0  0  0  3  0  0  0  0  0  0
  189.0930  176.3070  144.8860 C   0  0  0  0  0  0  0  0  0  0  0  0
  191.3480  177.0760  147.6520 C   0  0  0  0  0  3  0  0  0  0  0  0
  192.0010  172.5810  142.9800 N   0  0  2  0  0  0  0  0  0  0  0  0
  192.0250  173.1390  144.3200 C   0  0  2  0  0  3  0  0  0  0  0  0
  190.9910  174.2560  144.5370 C   0  0  0  0  0  0  0  0  0  0  0  0
  190.1810  176.2320  145.7580 C   0  0  0  0  0  0  0  0  0  0  0  0
  190.9630  171.5240  142.8900 C   0  0  1  0  0  3  0  0  0  0  0  0
  194.2540  172.9140  143.5520 O   0  0  0  0  0  0  0  0  0  0  0  0
  189.6780  171.9720  143.2870 O   0  0  0  0  0  0  0  0  0  0  0  0
  192.1720  175.1170  146.5350 C   0  0  0  0  0  3  0  0  0  0  0  0
  193.3890  172.1080  142.7920 C   0  0  0  0  0  0  0  0  0  0  0  0
  186.3560  176.6740  143.4880 C   0  0  0  0  0  2  0  0  0  0  0  0
  185.6520  177.4000  145.8460 C   0  0  1  0  0  3  0  0  0  0  0  0
  187.3450  177.7160  143.7600 N   0  0  0  0  0  0  0  0  0  0  0  0
  185.2430  176.6960  144.5450 C   0  0  0  0  0  2  0  0  0  0  0  0
  187.1250  177.1240  146.1820 C   0  0  1  0  0  3  0  0  0  0  0  0
  188.0770  177.4200  145.0120 C   0  0  1  0  0  3  0  0  0  0  0  0
  187.5160  177.8460  147.3110 O   0  0  0  0  0  1  0  0  0  0  0  0
  184.0720  178.8930  145.4100 C   0  0  0  0  0  1  0  0  0  0  0  0
  185.4270  178.7760  145.7280 O   0  0  0  0  0  0  0  0  0  0  0  0
  188.2520  177.8140  142.6210 C   0  0  0  0  0  2  0  0  0  0  0  0
  186.5050  178.2730  140.9080 O   0  0  0  0  0  1  0  0  0  0  0  0
  187.5270  177.4590  141.3700 C   0  0  0  0  0  0  0  0  0  0  0  0
  187.8160  176.4010  140.7530 O   0  0  0  0  0  0  0  0  0  0  0  0
  190.9230  170.8170  141.5250 C   0  0  0  0  0  2  0  0  0  0  0  0
  190.8170  169.3030  141.6370 C   0  0  0  0  0  2  0  0  0  0  0  0
  190.8790  168.6790  140.2560 C   0  0  0  0  0  2  0  0  0  0  0  0
  191.2570  169.6820  139.2750 N   0  0  0  0  0  2  0  0  0  0  0  0
  190.2080  169.7100  138.2680 C   0  0  0  0  0  2  0  0  0  0  0  0
  190.1310  171.0780  137.6010 C   0  0  1  0  0  3  0  0  0  0  0  0
  189.6910  170.9590  136.1530 C   0  0  0  0  0  1  0  0  0  0  0  0
  189.2540  171.9070  138.3050 O   0  0  0  0  0  1  0  0  0  0  0  0
  2 12  1  0  0  0  0
  3 21  1  0  0  0  0
  5 16  1  0  0  0  0
  5 20  2  0  0  0  0
  6 11  2  0  0  0  0
  7  4  1  1  0  0  0
  7 19  1  0  0  0  0
  7  9  1  0  0  0  0
  9  6  1  0  0  0  0
  9 15  2  0  0  0  0
 10 12  2  0  0  0  0
 11 16  1  0  0  0  0
 13 21  1  1  0  0  0
 13 14  1  0  0  0  0
 14  1  1  6  0  0  0
 14 15  1  0  0  0  0
 15  5  1  0  0  0  0
 16  2  2  0  0  0  0
 17 35  1  6  0  0  0
 17 13  1  0  0  0  0
 17 19  1  0  0  0  0
 18  1  1  0  0  0  0
 20 10  1  0  0  0  0
 21  8  1  0  0  0  0
 21 18  1  0  0  0  0
 22 24  1  0  0  0  0
 22 25  1  0  0  0  0
 23 30  1  6  0  0  0
 23 26  1  0  0  0  0
 24 27  1  0  0  0  0
 25 23  1  0  0  0  0
 26 28  1  1  0  0  0
 27 11  1  6  0  0  0
 27 26  1  0  0  0  0
 29 30  1  0  0  0  0
 31 24  1  0  0  0  0
 32 33  1  0  0  0  0
 33 31  1  0  0  0  0
 34 33  2  0  0  0  0
 35 36  1  0  0  0  0
 37 36  1  0  0  0  0
 38 37  1  0  0  0  0
 39 38  1  0  0  0  0
 40 41  1  6  0  0  0
 40 39  1  0  0  0  0
 40 42  1  0  0  0  0
M  END
>  <MODEL>
8

>  <REMARK>
 VINA RESULT:      -5.6      2.676      8.302
  Name = 
  10 active torsions:
  status: ('A' for Active; 'I' for Inactive)
    1  A    between atoms: C_1  and  N_28
    2  A    between atoms: C_1  and  C_37
    3  A    between atoms: C_3  and  C_33
    4  A    between atoms: C_3  and  C_37
    5  A    between atoms: C_6  and  C_11
    6  A    between atoms: C_9  and  C_10
    7  A    between atoms: C_9  and  N_23
    8  A    between atoms: C_11  and  N_28
    9  A    between atoms: C_17  and  O_21
   10  A    between atoms: C_25  and  C_36
                            x       y       z     vdW  Elec       q    Type
                         _______ _______ _______ _____ _____    ______ ____

>  <TORSDO>
F 10

$$$$
=
 OpenBabel11062419373D

 42 46  0  0  1  0  0  0  0  0999 V2000
  193.2830  173.4390  144.8040 C   0  0  0  0  0  2  0  0  0  0  0  0
  190.1940  177.0920  146.9490 N   0  0  0  0  0  0  0  0  0  0  0  0
  193.6820  172.0240  141.7020 C   0  0  0  0  0  1  0  0  0  0  0  0
  187.9330  173.3190  142.3880 C   0  0  0  0  0  1  0  0  0  0  0  0
  190.9730  175.1030  145.8380 C   0  0  0  0  0  0  0  0  0  0  0  0
  188.8360  175.3080  144.1050 N   0  0  0  0  0  0  0  0  0  0  0  0
  189.3450  173.1890  142.9460 C   0  0  1  0  0  3  0  0  0  0  0  0
  193.3870  170.4560  143.5960 C   0  0  0  0  0  1  0  0  0  0  0  0
  189.6780  174.2480  143.9700 C   0  0  0  0  0  0  0  0  0  0  0  0
  192.0910  175.9500  147.8280 C   0  0  0  0  0  3  0  0  0  0  0  0
  189.0080  176.2780  145.0350 C   0  0  0  0  0  0  0  0  0  0  0  0
  191.1830  177.0020  147.8770 C   0  0  0  0  0  3  0  0  0  0  0  0
  191.8550  172.4350  143.2780 N   0  0  2  0  0  0  0  0  0  0  0  0
  191.8490  173.0060  144.6130 C   0  0  2  0  0  3  0  0  0  0  0  0
  190.8460  174.1600  144.7790 C   0  0  0  0  0  0  0  0  0  0  0  0
  190.0590  176.1760  145.9490 C   0  0  0  0  0  0  0  0  0  0  0  0
  190.7860  171.4120  143.1600 C   0  0  1  0  0  3  0  0  0  0  0  0
  194.0950  172.6980  143.9320 O   0  0  0  0  0  0  0  0  0  0  0  0
  189.5040  171.9080  143.5040 O   0  0  0  0  0  0  0  0  0  0  0  0
  191.9800  175.0030  146.8120 C   0  0  0  0  0  3  0  0  0  0  0  0
  193.2330  171.9130  143.1470 C   0  0  0  0  0  0  0  0  0  0  0  0
  186.3680  176.7490  143.4900 C   0  0  0  0  0  2  0  0  0  0  0  0
  185.5600  177.4900  145.8100 C   0  0  1  0  0  3  0  0  0  0  0  0
  187.3760  177.7540  143.8230 N   0  0  0  0  0  0  0  0  0  0  0  0
  185.1990  176.8060  144.4840 C   0  0  0  0  0  2  0  0  0  0  0  0
  187.0010  177.1600  146.2260 C   0  0  1  0  0  3  0  0  0  0  0  0
  188.0270  177.4260  145.1120 C   0  0  1  0  0  3  0  0  0  0  0  0
  187.3540  177.8620  147.3790 O   0  0  0  0  0  1  0  0  0  0  0  0
  184.0480  179.0430  145.3450 C   0  0  0  0  0  1  0  0  0  0  0  0
  185.3910  178.8730  145.6880 O   0  0  0  0  0  0  0  0  0  0  0  0
  188.3480  177.8240  142.7370 C   0  0  0  0  0  2  0  0  0  0  0  0
  187.9660  176.2590  140.8380 O   0  0  0  0  0  0  0  0  0  0  0  0
  187.6880  177.4720  141.4500 C   0  0  0  0  0  0  0  0  0  0  0  0
  186.9080  178.2910  140.8980 O   0  0  0  0  0  1  0  0  0  0  0  0
  190.7720  170.6920  141.8010 C   0  0  0  0  0  2  0  0  0  0  0  0
  190.5220  171.6300  140.6280 C   0  0  0  0  0  2  0  0  0  0  0  0
  190.4020  170.8300  139.3460 C   0  0  0  0  0  2  0  0  0  0  0  0
  189.5180  171.5120  138.4160 N   0  0  0  0  0  2  0  0  0  0  0  0
  189.3040  172.8530  138.9370 C   0  0  0  0  0  2  0  0  0  0  0  0
  189.1060  173.8510  137.8020 C   0  0  1  0  0  3  0  0  0  0  0  0
  189.3550  173.2040  136.4520 C   0  0  0  0  0  1  0  0  0  0  0  0
  187.8150  174.3840  137.8520 O   0  0  0  0  0  1  0  0  0  0  0  0
  2 12  1  0  0  0  0
  3 21  1  0  0  0  0
  5 16  1  0  0  0  0
  5 20  2  0  0  0  0
  6 11  2  0  0  0  0
  7  4  1  1  0  0  0
  7 19  1  0  0  0  0
  7  9  1  0  0  0  0
  9  6  1  0  0  0  0
  9 15  2  0  0  0  0
 10 12  2  0  0  0  0
 11 16  1  0  0  0  0
 13 21  1  1  0  0  0
 13 14  1  0  0  0  0
 14 15  1  0  0  0  0
 14  1  1  6  0  0  0
 15  5  1  0  0  0  0
 16  2  2  0  0  0  0
 17 35  1  6  0  0  0
 17 13  1  0  0  0  0
 17 19  1  0  0  0  0
 18  1  1  0  0  0  0
 20 10  1  0  0  0  0
 21  8  1  0  0  0  0
 21 18  1  0  0  0  0
 22 24  1  0  0  0  0
 22 25  1  0  0  0  0
 23 30  1  6  0  0  0
 23 26  1  0  0  0  0
 24 27  1  0  0  0  0
 25 23  1  0  0  0  0
 26 28  1  1  0  0  0
 27 11  1  6  0  0  0
 27 26  1  0  0  0  0
 29 30  1  0  0  0  0
 31 24  1  0  0  0  0
 32 33  2  0  0  0  0
 33 31  1  0  0  0  0
 34 33  1  0  0  0  0
 36 35  1  0  0  0  0
 37 36  1  0  0  0  0
 38 39  1  0  0  0  0
 38 37  1  0  0  0  0
 40 41  1  6  0  0  0
 40 42  1  0  0  0  0
 40 39  1  0  0  0  0
M  END
>  <MODEL>
9

>  <REMARK>
 VINA RESULT:      -5.6      2.711      7.793
  Name = 
  10 active torsions:
  status: ('A' for Active; 'I' for Inactive)
    1  A    between atoms: C_1  and  N_28
    2  A    between atoms: C_1  and  C_37
    3  A    between atoms: C_3  and  C_33
    4  A    between atoms: C_3  and  C_37
    5  A    between atoms: C_6  and  C_11
    6  A    between atoms: C_9  and  C_10
    7  A    between atoms: C_9  and  N_23
    8  A    between atoms: C_11  and  N_28
    9  A    between atoms: C_17  and  O_21
   10  A    between atoms: C_25  and  C_36
                            x       y       z     vdW  Elec       q    Type
                         _______ _______ _______ _____ _____    ______ ____

>  <TORSDO>
F 10

$$$$
