=
 OpenBabel11062420553D

 31 36  0  0  1  0  0  0  0  0999 V2000
  189.9340  176.2860  147.1450 N   0  0  0  0  0  0  0  0  0  0  0  0
  188.4150  177.0480  145.8710 C   0  0  0  0  0  0  0  0  0  0  0  0
  188.8410  174.3630  147.7700 O   0  0  0  0  0  0  0  0  0  0  0  0
  187.8960  175.8840  146.3330 N   0  0  0  0  0  0  0  0  0  0  0  0
  188.8920  175.4430  147.1210 C   0  0  0  0  0  0  0  0  0  0  0  0
  189.6450  177.3090  146.3640 N   0  0  0  0  0  2  0  0  0  0  0  0
  187.8020  177.7440  143.4660 C   0  0  2  0  0  3  0  0  0  0  0  0
  187.6690  177.9990  144.9780 C   0  0  1  0  0  3  0  0  0  0  0  0
  186.5720  177.2680  144.2230 C   0  0  1  0  0  3  0  0  0  0  0  0
  189.0180  174.3230  142.4790 C   0  0  0  0  0  3  0  0  0  0  0  0
  190.0720  176.8550  142.8970 C   0  0  0  0  0  3  0  0  0  0  0  0
  188.2140  175.3520  142.8570 N   0  0  0  0  0  0  0  0  0  0  0  0
  188.7090  176.6050  143.0800 C   0  0  0  0  0  0  0  0  0  0  0  0
  190.3870  174.5350  142.2970 C   0  0  0  0  0  3  0  0  0  0  0  0
  190.9130  175.8110  142.5050 C   0  0  0  0  0  3  0  0  0  0  0  0
  185.5170  178.1450  143.9820 O   0  0  0  0  0  0  0  0  0  0  0  0
  185.4370  178.9250  145.1360 C   0  0  0  0  0  2  0  0  0  0  0  0
  184.0940  178.7070  145.8000 C   0  0  0  0  0  1  0  0  0  0  0  0
  191.1720  176.1480  147.9010 C   0  0  0  0  0  2  0  0  0  0  0  0
  192.1830  175.3140  147.1310 C   0  0  0  0  0  2  0  0  0  0  0  0
  193.8850  175.4640  145.2570 C   0  0  1  0  0  0  0  0  0  0  0  0
  193.0670  176.2030  146.2630 C   0  0  2  0  0  3  0  0  0  0  0  0
  194.4240  175.8810  146.4910 O   0  0  0  0  0  0  0  0  0  0  0  0
  193.7580  173.9700  145.1470 C   0  0  0  0  0  0  0  0  0  0  0  0
  194.1990  171.7940  145.3710 C   0  0  0  0  0  3  0  0  0  0  0  0
  194.6250  173.1600  145.6420 N   0  0  0  0  0  0  0  0  0  0  0  0
  192.7000  173.3420  144.5240 O   0  0  0  0  0  0  0  0  0  0  0  0
  192.8830  171.9410  144.6050 C   0  0  0  0  0  3  0  0  0  0  0  0
  194.7940  175.4190  142.9040 C   0  0  0  0  0  2  0  0  0  0  0  0
  195.8240  176.0990  143.7740 C   0  0  0  0  0  2  0  0  0  0  0  0
  194.3430  176.3030  144.0570 C   0  0  0  0  0  3  0  0  0  0  0  0
  1 19  1  0  0  0  0
  2  4  2  0  0  0  0
  2  6  1  0  0  0  0
  4  5  1  0  0  0  0
  5  1  1  0  0  0  0
  5  3  2  0  0  0  0
  6  1  1  0  0  0  0
  7 13  1  1  0  0  0
  7  9  1  0  0  0  0
  7  8  1  0  0  0  0
  8  2  1  1  0  0  0
  9 16  1  6  0  0  0
  9  8  1  0  0  0  0
 10 12  1  0  0  0  0
 11 13  1  0  0  0  0
 12 13  2  0  0  0  0
 14 10  2  0  0  0  0
 14 15  1  0  0  0  0
 15 11  2  0  0  0  0
 16 17  1  0  0  0  0
 17 18  1  0  0  0  0
 20 19  1  0  0  0  0
 21 31  1  6  0  0  0
 21 22  1  0  0  0  0
 21 23  1  0  0  0  0
 22 23  1  0  0  0  0
 22 20  1  1  0  0  0
 24 21  1  0  0  0  0
 24 26  2  0  0  0  0
 25 26  1  0  0  0  0
 27 28  1  0  0  0  0
 27 24  1  0  0  0  0
 28 25  2  0  0  0  0
 29 30  1  0  0  0  0
 29 31  1  0  0  0  0
 30 31  1  0  0  0  0
M  END
>  <MODEL>
1

>  <REMARK>
 VINA RESULT:      -6.5      0.000      0.000
  Name = 
  9 active torsions:
  status: ('A' for Active; 'I' for Inactive)
    1  A    between atoms: C_1  and  C_25
    2  A    between atoms: C_2  and  O_9
    3  A    between atoms: C_3  and  C_11
    4  A    between atoms: C_4  and  C_5
    5  A    between atoms: C_5  and  C_31
    6  A    between atoms: N_6  and  C_28
    7  A    between atoms: C_8  and  C_14
    8  A    between atoms: O_9  and  C_23
    9  A    between atoms: C_14  and  C_28
                            x       y       z     vdW  Elec       q    Type
                         _______ _______ _______ _____ _____    ______ ____

>  <TORSDO>
F 9

$$$$
=
 OpenBabel11062420553D

 31 36  0  0  1  0  0  0  0  0999 V2000
  189.2050  175.0500  142.2870 N   0  0  0  0  0  0  0  0  0  0  0  0
  190.9720  174.8220  143.4450 C   0  0  0  0  0  0  0  0  0  0  0  0
  188.5840  172.8370  142.2810 O   0  0  0  0  0  0  0  0  0  0  0  0
  190.4840  173.5610  143.3490 N   0  0  0  0  0  0  0  0  0  0  0  0
  189.3720  173.7620  142.6190 C   0  0  0  0  0  0  0  0  0  0  0  0
  190.2130  175.7330  142.7970 N   0  0  0  0  0  2  0  0  0  0  0  0
  192.1560  175.7110  145.5550 C   0  0  2  0  0  3  0  0  0  0  0  0
  192.2700  175.1660  144.1200 C   0  0  1  0  0  3  0  0  0  0  0  0
  192.5070  174.2520  145.3100 C   0  0  1  0  0  3  0  0  0  0  0  0
  188.8180  174.9780  147.1310 C   0  0  0  0  0  3  0  0  0  0  0  0
  190.1560  177.1420  146.0250 C   0  0  0  0  0  3  0  0  0  0  0  0
  190.0750  174.8330  146.6330 N   0  0  0  0  0  0  0  0  0  0  0  0
  190.7510  175.8780  146.0730 C   0  0  0  0  0  0  0  0  0  0  0  0
  188.1900  176.2250  147.0900 C   0  0  0  0  0  3  0  0  0  0  0  0
  188.8680  177.3120  146.5360 C   0  0  0  0  0  3  0  0  0  0  0  0
  193.8780  174.0740  145.4860 O   0  0  0  0  0  0  0  0  0  0  0  0
  194.4350  175.3210  145.2000 C   0  0  0  0  0  2  0  0  0  0  0  0
  195.8990  175.1520  144.8540 C   0  0  0  0  0  1  0  0  0  0  0  0
  188.1340  175.6320  141.4890 C   0  0  0  0  0  2  0  0  0  0  0  0
  186.8890  175.8450  142.3350 C   0  0  0  0  0  2  0  0  0  0  0  0
  186.2620  178.0840  143.3470 C   0  0  1  0  0  0  0  0  0  0  0  0
  187.1450  176.8840  143.4220 C   0  0  2  0  0  3  0  0  0  0  0  0
  187.5710  178.0910  142.8260 O   0  0  0  0  0  0  0  0  0  0  0  0
  185.2040  178.1650  142.2810 C   0  0  0  0  0  0  0  0  0  0  0  0
  184.2230  178.5110  140.3070 C   0  0  0  0  0  3  0  0  0  0  0  0
  185.4540  178.5620  141.0830 N   0  0  0  0  0  0  0  0  0  0  0  0
  183.8880  177.8090  142.4890 O   0  0  0  0  0  0  0  0  0  0  0  0
  183.1650  177.9960  141.2870 C   0  0  0  0  0  3  0  0  0  0  0  0
  184.6410  179.0650  145.0140 C   0  0  0  0  0  2  0  0  0  0  0  0
  185.4480  180.2060  144.4420 C   0  0  0  0  0  2  0  0  0  0  0  0
  186.1080  178.8530  144.6660 C   0  0  0  0  0  3  0  0  0  0  0  0
  1  5  1  0  0  0  0
  1  6  1  0  0  0  0
  3  5  2  0  0  0  0
  4  2  2  0  0  0  0
  5  4  1  0  0  0  0
  6  2  1  0  0  0  0
  7 13  1  1  0  0  0
  8  2  1  1  0  0  0
  8  9  1  0  0  0  0
  8  7  1  0  0  0  0
  9 16  1  6  0  0  0
  9  7  1  0  0  0  0
 11 13  2  0  0  0  0
 11 15  1  0  0  0  0
 12 10  2  0  0  0  0
 13 12  1  0  0  0  0
 14 10  1  0  0  0  0
 15 14  2  0  0  0  0
 17 16  1  0  0  0  0
 18 17  1  0  0  0  0
 19  1  1  0  0  0  0
 19 20  1  0  0  0  0
 21 24  1  6  0  0  0
 21 22  1  0  0  0  0
 21 31  1  0  0  0  0
 22 20  1  6  0  0  0
 23 21  1  0  0  0  0
 23 22  1  0  0  0  0
 24 27  1  0  0  0  0
 25 26  1  0  0  0  0
 25 28  2  0  0  0  0
 26 24  2  0  0  0  0
 28 27  1  0  0  0  0
 30 31  1  0  0  0  0
 30 29  1  0  0  0  0
 31 29  1  0  0  0  0
M  END
>  <MODEL>
2

>  <REMARK>
 VINA RESULT:      -6.2      2.252      7.907
  Name = 
  9 active torsions:
  status: ('A' for Active; 'I' for Inactive)
    1  A    between atoms: C_1  and  C_25
    2  A    between atoms: C_2  and  O_9
    3  A    between atoms: C_3  and  C_11
    4  A    between atoms: C_4  and  C_5
    5  A    between atoms: C_5  and  C_31
    6  A    between atoms: N_6  and  C_28
    7  A    between atoms: C_8  and  C_14
    8  A    between atoms: O_9  and  C_23
    9  A    between atoms: C_14  and  C_28
                            x       y       z     vdW  Elec       q    Type
                         _______ _______ _______ _____ _____    ______ ____

>  <TORSDO>
F 9

$$$$
=
 OpenBabel11062420553D

 31 36  0  0  1  0  0  0  0  0999 V2000
  190.5520  175.3030  147.0690 N   0  0  0  0  0  0  0  0  0  0  0  0
  192.5520  175.0910  146.3840 C   0  0  0  0  0  0  0  0  0  0  0  0
  190.8830  177.2020  148.3210 O   0  0  0  0  0  0  0  0  0  0  0  0
  192.5930  176.1990  147.1630 N   0  0  0  0  0  0  0  0  0  0  0  0
  191.3120  176.2910  147.5620 C   0  0  0  0  0  0  0  0  0  0  0  0
  191.3240  174.5310  146.3270 N   0  0  0  0  0  2  0  0  0  0  0  0
  193.8470  174.6570  144.1980 C   0  0  2  0  0  3  0  0  0  0  0  0
  193.7610  174.4870  145.7250 C   0  0  1  0  0  3  0  0  0  0  0  0
  194.6340  175.5730  145.1220 C   0  0  1  0  0  3  0  0  0  0  0  0
  190.5800  175.2820  142.4380 C   0  0  0  0  0  3  0  0  0  0  0  0
  192.6230  176.7570  143.5990 C   0  0  0  0  0  3  0  0  0  0  0  0
  191.6550  174.6590  142.9910 N   0  0  0  0  0  0  0  0  0  0  0  0
  192.6780  175.3610  143.5590 C   0  0  0  0  0  0  0  0  0  0  0  0
  190.4970  176.6770  142.4520 C   0  0  0  0  0  3  0  0  0  0  0  0
  191.5250  177.4150  143.0400 C   0  0  0  0  0  3  0  0  0  0  0  0
  195.9650  175.1630  145.1520 O   0  0  0  0  0  0  0  0  0  0  0  0
  195.9050  173.7960  145.4240 C   0  0  0  0  0  2  0  0  0  0  0  0
  197.1160  173.3910  146.2380 C   0  0  0  0  0  1  0  0  0  0  0  0
  189.1330  175.0710  147.3030 C   0  0  0  0  0  2  0  0  0  0  0  0
  188.2890  175.8460  146.3040 C   0  0  0  0  0  2  0  0  0  0  0  0
  186.1800  177.2340  146.0750 C   0  0  1  0  0  0  0  0  0  0  0  0
  187.0900  176.4890  146.9920 C   0  0  2  0  0  3  0  0  0  0  0  0
  187.1610  177.8920  146.8450 O   0  0  0  0  0  0  0  0  0  0  0  0
  186.4710  177.2660  144.6000 C   0  0  0  0  0  0  0  0  0  0  0  0
  187.2320  177.9440  142.6160 C   0  0  0  0  0  3  0  0  0  0  0  0
  187.1140  178.2280  144.0390 N   0  0  0  0  0  0  0  0  0  0  0  0
  186.0910  176.2650  143.7310 O   0  0  0  0  0  0  0  0  0  0  0  0
  186.5250  176.6000  142.4260 C   0  0  0  0  0  3  0  0  0  0  0  0
  184.0390  178.5560  145.8800 C   0  0  0  0  0  2  0  0  0  0  0  0
  184.5760  178.7680  147.2760 C   0  0  0  0  0  2  0  0  0  0  0  0
  184.7490  177.4160  146.5970 C   0  0  0  0  0  3  0  0  0  0  0  0
  1 19  1  0  0  0  0
  1  5  1  0  0  0  0
  2  4  2  0  0  0  0
  4  5  1  0  0  0  0
  5  3  2  0  0  0  0
  6  2  1  0  0  0  0
  6  1  1  0  0  0  0
  7 13  1  1  0  0  0
  7  9  1  0  0  0  0
  7  8  1  0  0  0  0
  8  2  1  1  0  0  0
  9 16  1  6  0  0  0
  9  8  1  0  0  0  0
 10 14  2  0  0  0  0
 10 12  1  0  0  0  0
 12 13  2  0  0  0  0
 13 11  1  0  0  0  0
 14 15  1  0  0  0  0
 15 11  2  0  0  0  0
 16 17  1  0  0  0  0
 17 18  1  0  0  0  0
 20 19  1  0  0  0  0
 21 24  1  6  0  0  0
 21 31  1  0  0  0  0
 21 23  1  0  0  0  0
 21 22  1  0  0  0  0
 22 20  1  6  0  0  0
 23 22  1  0  0  0  0
 25 26  1  0  0  0  0
 26 24  2  0  0  0  0
 27 24  1  0  0  0  0
 28 25  2  0  0  0  0
 28 27  1  0  0  0  0
 29 31  1  0  0  0  0
 29 30  1  0  0  0  0
 31 30  1  0  0  0  0
M  END
>  <MODEL>
3

>  <REMARK>
 VINA RESULT:      -6.2      1.954      7.324
  Name = 
  9 active torsions:
  status: ('A' for Active; 'I' for Inactive)
    1  A    between atoms: C_1  and  C_25
    2  A    between atoms: C_2  and  O_9
    3  A    between atoms: C_3  and  C_11
    4  A    between atoms: C_4  and  C_5
    5  A    between atoms: C_5  and  C_31
    6  A    between atoms: N_6  and  C_28
    7  A    between atoms: C_8  and  C_14
    8  A    between atoms: O_9  and  C_23
    9  A    between atoms: C_14  and  C_28
                            x       y       z     vdW  Elec       q    Type
                         _______ _______ _______ _____ _____    ______ ____

>  <TORSDO>
F 9

$$$$
=
 OpenBabel11062420553D

 31 36  0  0  1  0  0  0  0  0999 V2000
  190.9990  176.1660  145.6370 N   0  0  0  0  0  0  0  0  0  0  0  0
  192.5670  174.7570  145.3640 C   0  0  0  0  0  0  0  0  0  0  0  0
  191.7350  177.7080  144.1000 O   0  0  0  0  0  0  0  0  0  0  0  0
  192.8760  175.7560  144.5020 N   0  0  0  0  0  0  0  0  0  0  0  0
  191.8580  176.6100  144.7080 C   0  0  0  0  0  0  0  0  0  0  0  0
  191.4380  174.9970  146.0660 N   0  0  0  0  0  2  0  0  0  0  0  0
  193.0580  172.2960  144.7790 C   0  0  2  0  0  3  0  0  0  0  0  0
  193.4330  173.5500  145.5890 C   0  0  1  0  0  3  0  0  0  0  0  0
  194.1930  173.1990  144.3220 C   0  0  1  0  0  3  0  0  0  0  0  0
  190.8400  172.9890  141.8200 C   0  0  0  0  0  3  0  0  0  0  0  0
  190.5970  172.0220  144.4080 C   0  0  0  0  0  3  0  0  0  0  0  0
  191.9310  172.8920  142.6260 N   0  0  0  0  0  0  0  0  0  0  0  0
  191.8370  172.4300  143.9070 C   0  0  0  0  0  0  0  0  0  0  0  0
  189.5840  172.6000  142.2910 C   0  0  0  0  0  3  0  0  0  0  0  0
  189.4670  172.1100  143.5930 C   0  0  0  0  0  3  0  0  0  0  0  0
  195.4110  172.6150  144.6630 O   0  0  0  0  0  0  0  0  0  0  0  0
  196.2610  173.6940  144.9080 C   0  0  0  0  0  2  0  0  0  0  0  0
  197.0290  173.4490  146.1900 C   0  0  0  0  0  1  0  0  0  0  0  0
  189.8010  176.8300  146.1310 C   0  0  0  0  0  2  0  0  0  0  0  0
  188.5700  175.9710  145.8850 C   0  0  0  0  0  2  0  0  0  0  0  0
  186.3440  177.1850  145.9130 C   0  0  1  0  0  0  0  0  0  0  0  0
  187.3880  176.4740  146.7070 C   0  0  2  0  0  3  0  0  0  0  0  0
  187.3320  177.8830  146.6360 O   0  0  0  0  0  0  0  0  0  0  0  0
  186.5030  177.3170  144.4230 C   0  0  0  0  0  0  0  0  0  0  0  0
  187.0620  178.1430  142.4270 C   0  0  0  0  0  3  0  0  0  0  0  0
  187.0600  178.3360  143.8710 N   0  0  0  0  0  0  0  0  0  0  0  0
  186.0820  176.3560  143.5280 O   0  0  0  0  0  0  0  0  0  0  0  0
  186.3880  176.7850  142.2140 C   0  0  0  0  0  3  0  0  0  0  0  0
  184.0990  178.3340  145.9780 C   0  0  0  0  0  2  0  0  0  0  0  0
  184.7360  178.5080  147.3370 C   0  0  0  0  0  2  0  0  0  0  0  0
  184.9540  177.2170  146.5600 C   0  0  0  0  0  3  0  0  0  0  0  0
  1  6  1  0  0  0  0
  1 19  1  0  0  0  0
  2  6  1  0  0  0  0
  3  5  2  0  0  0  0
  4  5  1  0  0  0  0
  4  2  2  0  0  0  0
  5  1  1  0  0  0  0
  7 13  1  6  0  0  0
  7  8  1  0  0  0  0
  8  2  1  6  0  0  0
  9 16  1  1  0  0  0
  9  7  1  0  0  0  0
  9  8  1  0  0  0  0
 10 14  2  0  0  0  0
 10 12  1  0  0  0  0
 12 13  2  0  0  0  0
 13 11  1  0  0  0  0
 14 15  1  0  0  0  0
 15 11  2  0  0  0  0
 16 17  1  0  0  0  0
 17 18  1  0  0  0  0
 20 19  1  0  0  0  0
 21 24  1  6  0  0  0
 21 31  1  0  0  0  0
 21 23  1  0  0  0  0
 21 22  1  0  0  0  0
 22 20  1  6  0  0  0
 23 22  1  0  0  0  0
 25 26  1  0  0  0  0
 26 24  2  0  0  0  0
 27 24  1  0  0  0  0
 28 25  2  0  0  0  0
 28 27  1  0  0  0  0
 29 31  1  0  0  0  0
 29 30  1  0  0  0  0
 31 30  1  0  0  0  0
M  END
>  <MODEL>
4

>  <REMARK>
 VINA RESULT:      -6.2      2.237      7.581
  Name = 
  9 active torsions:
  status: ('A' for Active; 'I' for Inactive)
    1  A    between atoms: C_1  and  C_25
    2  A    between atoms: C_2  and  O_9
    3  A    between atoms: C_3  and  C_11
    4  A    between atoms: C_4  and  C_5
    5  A    between atoms: C_5  and  C_31
    6  A    between atoms: N_6  and  C_28
    7  A    between atoms: C_8  and  C_14
    8  A    between atoms: O_9  and  C_23
    9  A    between atoms: C_14  and  C_28
                            x       y       z     vdW  Elec       q    Type
                         _______ _______ _______ _____ _____    ______ ____

>  <TORSDO>
F 9

$$$$
=
 OpenBabel11062420553D

 31 36  0  0  1  0  0  0  0  0999 V2000
  189.8920  176.5120  146.6150 N   0  0  0  0  0  0  0  0  0  0  0  0
  188.1400  177.1670  145.6090 C   0  0  0  0  0  0  0  0  0  0  0  0
  188.9760  174.6400  147.5850 O   0  0  0  0  0  0  0  0  0  0  0  0
  187.7420  176.0410  146.2500 N   0  0  0  0  0  0  0  0  0  0  0  0
  188.8800  175.6660  146.8590 C   0  0  0  0  0  0  0  0  0  0  0  0
  189.4370  177.4700  145.8310 N   0  0  0  0  0  2  0  0  0  0  0  0
  187.0720  177.6840  143.3200 C   0  0  2  0  0  3  0  0  0  0  0  0
  187.2160  178.0440  144.8090 C   0  0  1  0  0  3  0  0  0  0  0  0
  186.0170  177.2490  144.3250 C   0  0  1  0  0  3  0  0  0  0  0  0
  190.0470  175.6200  142.2970 C   0  0  0  0  0  3  0  0  0  0  0  0
  187.3120  175.2920  142.6210 C   0  0  0  0  0  3  0  0  0  0  0  0
  189.2680  176.6620  142.6920 N   0  0  0  0  0  0  0  0  0  0  0  0
  187.9190  176.5300  142.8490 C   0  0  0  0  0  0  0  0  0  0  0  0
  189.4720  174.3700  142.0500 C   0  0  0  0  0  3  0  0  0  0  0  0
  188.0960  174.2090  142.2180 C   0  0  0  0  0  3  0  0  0  0  0  0
  184.9140  178.0940  144.2280 O   0  0  0  0  0  0  0  0  0  0  0  0
  185.0050  178.9210  145.3470 C   0  0  0  0  0  2  0  0  0  0  0  0
  184.2290  178.3070  146.4930 C   0  0  0  0  0  1  0  0  0  0  0  0
  191.2550  176.4370  147.1230 C   0  0  0  0  0  2  0  0  0  0  0  0
  192.2060  175.9510  146.0410 C   0  0  0  0  0  2  0  0  0  0  0  0
  193.5360  173.9240  145.3000 C   0  0  1  0  0  0  0  0  0  0  0  0
  192.4320  174.4480  146.1550 C   0  0  2  0  0  3  0  0  0  0  0  0
  192.1860  173.8400  144.9040 O   0  0  0  0  0  0  0  0  0  0  0  0
  194.3390  174.8740  144.4550 C   0  0  0  0  0  0  0  0  0  0  0  0
  195.0430  176.0500  142.6940 C   0  0  0  0  0  3  0  0  0  0  0  0
  194.0970  175.0680  143.2070 N   0  0  0  0  0  0  0  0  0  0  0  0
  195.3850  175.6270  144.9450 O   0  0  0  0  0  0  0  0  0  0  0  0
  195.9150  176.4170  143.8970 C   0  0  0  0  0  3  0  0  0  0  0  0
  195.2850  172.1560  144.8690 C   0  0  0  0  0  2  0  0  0  0  0  0
  193.9320  171.4990  144.7280 C   0  0  0  0  0  2  0  0  0  0  0  0
  194.1360  172.5920  145.7680 C   0  0  0  0  0  3  0  0  0  0  0  0
  1  5  1  0  0  0  0
  1 19  1  0  0  0  0
  2  6  1  0  0  0  0
  2  4  2  0  0  0  0
  4  5  1  0  0  0  0
  5  3  2  0  0  0  0
  6  1  1  0  0  0  0
  7 13  1  1  0  0  0
  7  9  1  0  0  0  0
  7  8  1  0  0  0  0
  8  2  1  1  0  0  0
  9 16  1  6  0  0  0
  9  8  1  0  0  0  0
 10 12  1  0  0  0  0
 11 13  1  0  0  0  0
 12 13  2  0  0  0  0
 14 15  1  0  0  0  0
 14 10  2  0  0  0  0
 15 11  2  0  0  0  0
 16 17  1  0  0  0  0
 17 18  1  0  0  0  0
 20 19  1  0  0  0  0
 21 24  1  6  0  0  0
 21 31  1  0  0  0  0
 21 22  1  0  0  0  0
 22 20  1  6  0  0  0
 23 21  1  0  0  0  0
 23 22  1  0  0  0  0
 24 27  1  0  0  0  0
 25 26  1  0  0  0  0
 25 28  2  0  0  0  0
 26 24  2  0  0  0  0
 28 27  1  0  0  0  0
 29 31  1  0  0  0  0
 30 29  1  0  0  0  0
 30 31  1  0  0  0  0
M  END
>  <MODEL>
5

>  <REMARK>
 VINA RESULT:      -6.1      1.065      2.466
  Name = 
  9 active torsions:
  status: ('A' for Active; 'I' for Inactive)
    1  A    between atoms: C_1  and  C_25
    2  A    between atoms: C_2  and  O_9
    3  A    between atoms: C_3  and  C_11
    4  A    between atoms: C_4  and  C_5
    5  A    between atoms: C_5  and  C_31
    6  A    between atoms: N_6  and  C_28
    7  A    between atoms: C_8  and  C_14
    8  A    between atoms: O_9  and  C_23
    9  A    between atoms: C_14  and  C_28
                            x       y       z     vdW  Elec       q    Type
                         _______ _______ _______ _____ _____    ______ ____

>  <TORSDO>
F 9

$$$$
=
 OpenBabel11062420553D

 31 36  0  0  1  0  0  0  0  0999 V2000
  189.4380  176.0170  142.7980 N   0  0  0  0  0  0  0  0  0  0  0  0
  187.7900  176.6340  143.9880 C   0  0  0  0  0  0  0  0  0  0  0  0
  190.2060  178.1180  142.2690 O   0  0  0  0  0  0  0  0  0  0  0  0
  188.3530  177.8000  143.5880 N   0  0  0  0  0  0  0  0  0  0  0  0
  189.3870  177.3560  142.8510 C   0  0  0  0  0  0  0  0  0  0  0  0
  188.4300  175.5460  143.5080 N   0  0  0  0  0  2  0  0  0  0  0  0
  186.7210  176.4370  146.3250 C   0  0  2  0  0  3  0  0  0  0  0  0
  186.5290  176.5520  144.8030 C   0  0  1  0  0  3  0  0  0  0  0  0
  186.3900  177.7770  145.6890 C   0  0  1  0  0  3  0  0  0  0  0  0
  190.1660  177.4510  147.4510 C   0  0  0  0  0  3  0  0  0  0  0  0
  188.7150  175.1170  147.0690 C   0  0  0  0  0  3  0  0  0  0  0  0
  188.8840  177.5000  147.0000 N   0  0  0  0  0  0  0  0  0  0  0  0
  188.1520  176.3670  146.7930 C   0  0  0  0  0  0  0  0  0  0  0  0
  190.7640  176.2190  147.7270 C   0  0  0  0  0  3  0  0  0  0  0  0
  190.0290  175.0470  147.5370 C   0  0  0  0  0  3  0  0  0  0  0  0
  185.0380  178.0550  145.8810 O   0  0  0  0  0  0  0  0  0  0  0  0
  184.9280  179.4300  145.6670 C   0  0  0  0  0  2  0  0  0  0  0  0
  185.2980  179.7480  144.2330 C   0  0  0  0  0  1  0  0  0  0  0  0
  190.4000  175.1920  142.0810 C   0  0  0  0  0  2  0  0  0  0  0  0
  191.2150  174.3490  143.0500 C   0  0  0  0  0  2  0  0  0  0  0  0
  193.0760  175.5000  144.3310 C   0  0  1  0  0  0  0  0  0  0  0  0
  191.6220  175.1700  144.2690 C   0  0  2  0  0  3  0  0  0  0  0  0
  192.5270  174.4240  145.0560 O   0  0  0  0  0  0  0  0  0  0  0  0
  193.9890  175.0570  143.2210 C   0  0  0  0  0  0  0  0  0  0  0  0
  195.1250  175.0530  141.3010 C   0  0  0  0  0  3  0  0  0  0  0  0
  194.1850  175.7580  142.1610 N   0  0  0  0  0  0  0  0  0  0  0  0
  194.7020  173.8770  143.2510 O   0  0  0  0  0  0  0  0  0  0  0  0
  195.4640  173.7700  142.0630 C   0  0  0  0  0  3  0  0  0  0  0  0
  194.9250  176.9540  145.2430 C   0  0  0  0  0  2  0  0  0  0  0  0
  194.2220  176.3230  146.4220 C   0  0  0  0  0  2  0  0  0  0  0  0
  193.4220  176.7230  145.1900 C   0  0  0  0  0  3  0  0  0  0  0  0
  1  5  1  0  0  0  0
  1  6  1  0  0  0  0
  3  5  2  0  0  0  0
  4  2  2  0  0  0  0
  5  4  1  0  0  0  0
  6  2  1  0  0  0  0
  7 13  1  6  0  0  0
  8  2  1  6  0  0  0
  8  9  1  0  0  0  0
  8  7  1  0  0  0  0
  9 16  1  1  0  0  0
  9  7  1  0  0  0  0
 10 14  1  0  0  0  0
 11 15  1  0  0  0  0
 12 10  2  0  0  0  0
 13 12  1  0  0  0  0
 13 11  2  0  0  0  0
 15 14  2  0  0  0  0
 17 16  1  0  0  0  0
 18 17  1  0  0  0  0
 19  1  1  0  0  0  0
 19 20  1  0  0  0  0
 21 24  1  6  0  0  0
 21 23  1  0  0  0  0
 21 31  1  0  0  0  0
 22 20  1  6  0  0  0
 22 21  1  0  0  0  0
 22 23  1  0  0  0  0
 24 27  1  0  0  0  0
 25 28  2  0  0  0  0
 25 26  1  0  0  0  0
 26 24  2  0  0  0  0
 28 27  1  0  0  0  0
 29 30  1  0  0  0  0
 31 29  1  0  0  0  0
 31 30  1  0  0  0  0
M  END
>  <MODEL>
6

>  <REMARK>
 VINA RESULT:      -6.1      1.952      3.854
  Name = 
  9 active torsions:
  status: ('A' for Active; 'I' for Inactive)
    1  A    between atoms: C_1  and  C_25
    2  A    between atoms: C_2  and  O_9
    3  A    between atoms: C_3  and  C_11
    4  A    between atoms: C_4  and  C_5
    5  A    between atoms: C_5  and  C_31
    6  A    between atoms: N_6  and  C_28
    7  A    between atoms: C_8  and  C_14
    8  A    between atoms: O_9  and  C_23
    9  A    between atoms: C_14  and  C_28
                            x       y       z     vdW  Elec       q    Type
                         _______ _______ _______ _____ _____    ______ ____

>  <TORSDO>
F 9

$$$$
=
 OpenBabel11062420553D

 31 36  0  0  1  0  0  0  0  0999 V2000
  190.4560  177.1830  142.7610 N   0  0  0  0  0  0  0  0  0  0  0  0
  192.0070  175.7480  142.9820 C   0  0  0  0  0  0  0  0  0  0  0  0
  191.4950  178.8960  143.8880 O   0  0  0  0  0  0  0  0  0  0  0  0
  192.4870  176.8430  143.6210 N   0  0  0  0  0  0  0  0  0  0  0  0
  191.4790  177.7160  143.4470 C   0  0  0  0  0  0  0  0  0  0  0  0
  190.7730  175.9370  142.4660 N   0  0  0  0  0  2  0  0  0  0  0  0
  192.5890  173.5410  144.1790 C   0  0  2  0  0  3  0  0  0  0  0  0
  192.7270  174.4290  142.9300 C   0  0  1  0  0  3  0  0  0  0  0  0
  191.7320  173.2820  142.9510 C   0  0  1  0  0  3  0  0  0  0  0  0
  191.6650  175.5300  147.2370 C   0  0  0  0  0  3  0  0  0  0  0  0
  190.4220  173.8770  145.3890 C   0  0  0  0  0  3  0  0  0  0  0  0
  192.3790  174.9620  146.2280 N   0  0  0  0  0  0  0  0  0  0  0  0
  191.7940  174.1370  145.3120 C   0  0  0  0  0  0  0  0  0  0  0  0
  190.2950  175.2840  147.3490 C   0  0  0  0  0  3  0  0  0  0  0  0
  189.6720  174.4540  146.4150 C   0  0  0  0  0  3  0  0  0  0  0  0
  192.2580  172.2040  142.2420 O   0  0  0  0  0  0  0  0  0  0  0  0
  191.5910  171.0890  142.7500 C   0  0  0  0  0  2  0  0  0  0  0  0
  190.1250  171.1690  142.3830 C   0  0  0  0  0  1  0  0  0  0  0  0
  189.1960  177.8210  142.4050 C   0  0  0  0  0  2  0  0  0  0  0  0
  188.0180  176.9940  142.8930 C   0  0  0  0  0  2  0  0  0  0  0  0
  187.0620  177.3190  145.2190 C   0  0  1  0  0  0  0  0  0  0  0  0
  188.1380  176.7090  144.3860 C   0  0  2  0  0  3  0  0  0  0  0  0
  188.3280  177.9230  145.0820 O   0  0  0  0  0  0  0  0  0  0  0  0
  185.9620  178.1030  144.5570 C   0  0  0  0  0  0  0  0  0  0  0  0
  184.7090  179.8230  143.8850 C   0  0  0  0  0  3  0  0  0  0  0  0
  185.8710  179.3830  144.6440 N   0  0  0  0  0  0  0  0  0  0  0  0
  184.9730  177.5240  143.7900 O   0  0  0  0  0  0  0  0  0  0  0  0
  184.1090  178.5370  143.3110 C   0  0  0  0  0  3  0  0  0  0  0  0
  185.4280  176.9030  147.0960 C   0  0  0  0  0  2  0  0  0  0  0  0
  186.5960  177.6680  147.6740 C   0  0  0  0  0  2  0  0  0  0  0  0
  186.8340  176.6410  146.5760 C   0  0  0  0  0  3  0  0  0  0  0  0
  1  5  1  0  0  0  0
  2  4  2  0  0  0  0
  5  4  1  0  0  0  0
  5  3  2  0  0  0  0
  6  1  1  0  0  0  0
  6  2  1  0  0  0  0
  7 13  1  1  0  0  0
  8  9  1  0  0  0  0
  8  2  1  1  0  0  0
  8  7  1  0  0  0  0
  9 16  1  6  0  0  0
  9  7  1  0  0  0  0
 10 14  1  0  0  0  0
 11 15  1  0  0  0  0
 12 10  2  0  0  0  0
 13 11  2  0  0  0  0
 13 12  1  0  0  0  0
 15 14  2  0  0  0  0
 16 17  1  0  0  0  0
 18 17  1  0  0  0  0
 19  1  1  0  0  0  0
 19 20  1  0  0  0  0
 21 24  1  6  0  0  0
 21 31  1  0  0  0  0
 22 20  1  6  0  0  0
 22 23  1  0  0  0  0
 22 21  1  0  0  0  0
 23 21  1  0  0  0  0
 24 26  2  0  0  0  0
 25 26  1  0  0  0  0
 27 24  1  0  0  0  0
 28 27  1  0  0  0  0
 28 25  2  0  0  0  0
 29 30  1  0  0  0  0
 31 29  1  0  0  0  0
 31 30  1  0  0  0  0
M  END
>  <MODEL>
7

>  <REMARK>
 VINA RESULT:      -6.0      2.457      7.495
  Name = 
  9 active torsions:
  status: ('A' for Active; 'I' for Inactive)
    1  A    between atoms: C_1  and  C_25
    2  A    between atoms: C_2  and  O_9
    3  A    between atoms: C_3  and  C_11
    4  A    between atoms: C_4  and  C_5
    5  A    between atoms: C_5  and  C_31
    6  A    between atoms: N_6  and  C_28
    7  A    between atoms: C_8  and  C_14
    8  A    between atoms: O_9  and  C_23
    9  A    between atoms: C_14  and  C_28
                            x       y       z     vdW  Elec       q    Type
                         _______ _______ _______ _____ _____    ______ ____

>  <TORSDO>
F 9

$$$$
=
 OpenBabel11062420553D

 31 36  0  0  1  0  0  0  0  0999 V2000
  191.0500  176.3420  146.1470 N   0  0  0  0  0  0  0  0  0  0  0  0
  192.7680  175.7040  145.0720 C   0  0  0  0  0  0  0  0  0  0  0  0
  191.4690  175.1620  148.0740 O   0  0  0  0  0  0  0  0  0  0  0  0
  192.8770  175.0660  146.2630 N   0  0  0  0  0  0  0  0  0  0  0  0
  191.7790  175.5060  146.9020 C   0  0  0  0  0  0  0  0  0  0  0  0
  191.6600  176.4710  144.9840 N   0  0  0  0  0  2  0  0  0  0  0  0
  193.3070  174.4690  142.8750 C   0  0  2  0  0  3  0  0  0  0  0  0
  193.7250  175.5090  143.9290 C   0  0  1  0  0  3  0  0  0  0  0  0
  193.0890  175.9530  142.6240 C   0  0  1  0  0  3  0  0  0  0  0  0
  190.8190  172.0150  144.2700 C   0  0  0  0  0  3  0  0  0  0  0  0
  190.8300  174.2310  142.6010 C   0  0  0  0  0  3  0  0  0  0  0  0
  191.9820  172.6590  143.9830 N   0  0  0  0  0  0  0  0  0  0  0  0
  192.0170  173.7450  143.1570 C   0  0  0  0  0  0  0  0  0  0  0  0
  189.6150  172.4680  143.7230 C   0  0  0  0  0  3  0  0  0  0  0  0
  189.6250  173.5860  142.8870 C   0  0  0  0  0  3  0  0  0  0  0  0
  194.0810  176.4250  141.7660 O   0  0  0  0  0  0  0  0  0  0  0  0
  195.2580  175.8430  142.2360 C   0  0  0  0  0  2  0  0  0  0  0  0
  196.4450  176.6620  141.7750 C   0  0  0  0  0  1  0  0  0  0  0  0
  189.7950  176.9920  146.4980 C   0  0  0  0  0  2  0  0  0  0  0  0
  188.6130  176.0930  146.1720 C   0  0  0  0  0  2  0  0  0  0  0  0
  186.3440  177.2070  145.9760 C   0  0  1  0  0  0  0  0  0  0  0  0
  187.3530  176.5800  146.8780 C   0  0  2  0  0  3  0  0  0  0  0  0
  187.2450  177.9810  146.7350 O   0  0  0  0  0  0  0  0  0  0  0  0
  186.6100  177.2780  144.4970 C   0  0  0  0  0  0  0  0  0  0  0  0
  187.2910  178.0350  142.5120 C   0  0  0  0  0  3  0  0  0  0  0  0
  187.1750  178.2900  143.9400 N   0  0  0  0  0  0  0  0  0  0  0  0
  186.2880  176.2650  143.6190 O   0  0  0  0  0  0  0  0  0  0  0  0
  186.6780  176.6460  142.3130 C   0  0  0  0  0  3  0  0  0  0  0  0
  184.0690  178.2920  145.8550 C   0  0  0  0  0  2  0  0  0  0  0  0
  184.5970  178.5020  147.2550 C   0  0  0  0  0  2  0  0  0  0  0  0
  184.9080  177.2080  146.5160 C   0  0  0  0  0  3  0  0  0  0  0  0
  1 19  1  0  0  0  0
  1  5  1  0  0  0  0
  2  4  2  0  0  0  0
  4  5  1  0  0  0  0
  5  3  2  0  0  0  0
  6  2  1  0  0  0  0
  6  1  1  0  0  0  0
  7 13  1  1  0  0  0
  7  8  1  0  0  0  0
  8  2  1  1  0  0  0
  9 16  1  6  0  0  0
  9  7  1  0  0  0  0
  9  8  1  0  0  0  0
 11 15  2  0  0  0  0
 11 13  1  0  0  0  0
 12 10  1  0  0  0  0
 13 12  2  0  0  0  0
 14 10  2  0  0  0  0
 15 14  1  0  0  0  0
 16 17  1  0  0  0  0
 18 17  1  0  0  0  0
 20 19  1  0  0  0  0
 21 24  1  6  0  0  0
 21 31  1  0  0  0  0
 21 23  1  0  0  0  0
 21 22  1  0  0  0  0
 22 20  1  6  0  0  0
 23 22  1  0  0  0  0
 25 26  1  0  0  0  0
 26 24  2  0  0  0  0
 27 24  1  0  0  0  0
 28 25  2  0  0  0  0
 28 27  1  0  0  0  0
 29 31  1  0  0  0  0
 29 30  1  0  0  0  0
 31 30  1  0  0  0  0
M  END
>  <MODEL>
8

>  <REMARK>
 VINA RESULT:      -6.0      2.045      7.062
  Name = 
  9 active torsions:
  status: ('A' for Active; 'I' for Inactive)
    1  A    between atoms: C_1  and  C_25
    2  A    between atoms: C_2  and  O_9
    3  A    between atoms: C_3  and  C_11
    4  A    between atoms: C_4  and  C_5
    5  A    between atoms: C_5  and  C_31
    6  A    between atoms: N_6  and  C_28
    7  A    between atoms: C_8  and  C_14
    8  A    between atoms: O_9  and  C_23
    9  A    between atoms: C_14  and  C_28
                            x       y       z     vdW  Elec       q    Type
                         _______ _______ _______ _____ _____    ______ ____

>  <TORSDO>
F 9

$$$$
=
 OpenBabel11062420553D

 31 36  0  0  1  0  0  0  0  0999 V2000
  189.8220  174.1870  142.7230 N   0  0  0  0  0  0  0  0  0  0  0  0
  191.9200  174.0790  143.0430 C   0  0  0  0  0  0  0  0  0  0  0  0
  189.3020  172.1150  143.5700 O   0  0  0  0  0  0  0  0  0  0  0  0
  191.4620  172.8890  143.5020 N   0  0  0  0  0  0  0  0  0  0  0  0
  190.1410  173.0110  143.2850 C   0  0  0  0  0  0  0  0  0  0  0  0
  190.9380  174.8710  142.5580 N   0  0  0  0  0  2  0  0  0  0  0  0
  193.8990  175.2870  144.1680 C   0  0  2  0  0  3  0  0  0  0  0  0
  193.3760  174.4500  142.9880 C   0  0  1  0  0  3  0  0  0  0  0  0
  194.1340  173.7860  144.1240 C   0  0  1  0  0  3  0  0  0  0  0  0
  191.0590  177.0530  145.8930 C   0  0  0  0  0  3  0  0  0  0  0  0
  192.7520  174.9060  146.3610 C   0  0  0  0  0  3  0  0  0  0  0  0
  192.0140  176.7160  144.9860 N   0  0  0  0  0  0  0  0  0  0  0  0
  192.8670  175.6710  145.1960 C   0  0  0  0  0  0  0  0  0  0  0  0
  190.9220  176.3160  147.0720 C   0  0  0  0  0  3  0  0  0  0  0  0
  191.7740  175.2340  147.3020 C   0  0  0  0  0  3  0  0  0  0  0  0
  195.4440  173.5380  143.7190 O   0  0  0  0  0  0  0  0  0  0  0  0
  196.2340  174.2080  144.6530 C   0  0  0  0  0  2  0  0  0  0  0  0
  196.5740  173.2710  145.7920 C   0  0  0  0  0  1  0  0  0  0  0  0
  188.5010  174.6550  142.3290 C   0  0  0  0  0  2  0  0  0  0  0  0
  187.9610  175.6550  143.3390 C   0  0  0  0  0  2  0  0  0  0  0  0
  186.2340  177.4900  143.6210 C   0  0  1  0  0  0  0  0  0  0  0  0
  187.0040  176.6360  142.6700 C   0  0  2  0  0  3  0  0  0  0  0  0
  185.6780  176.3280  143.0480 O   0  0  0  0  0  0  0  0  0  0  0  0
  186.4720  177.3600  145.1000 C   0  0  0  0  0  0  0  0  0  0  0  0
  186.1870  176.7920  147.2390 C   0  0  0  0  0  3  0  0  0  0  0  0
  185.6590  176.7440  145.8830 N   0  0  0  0  0  0  0  0  0  0  0  0
  187.5820  177.8720  145.7380 O   0  0  0  0  0  0  0  0  0  0  0  0
  187.5010  177.5690  147.1170 C   0  0  0  0  0  3  0  0  0  0  0  0
  185.3460  179.8000  144.1140 C   0  0  0  0  0  2  0  0  0  0  0  0
  184.2490  179.0340  143.4130 C   0  0  0  0  0  2  0  0  0  0  0  0
  185.7020  178.7990  143.0240 C   0  0  0  0  0  3  0  0  0  0  0  0
  1  5  1  0  0  0  0
  2  4  2  0  0  0  0
  5  4  1  0  0  0  0
  5  3  2  0  0  0  0
  6  1  1  0  0  0  0
  6  2  1  0  0  0  0
  7 13  1  1  0  0  0
  8  2  1  1  0  0  0
  8  9  1  0  0  0  0
  8  7  1  0  0  0  0
  9 16  1  6  0  0  0
  9  7  1  0  0  0  0
 10 14  1  0  0  0  0
 11 15  1  0  0  0  0
 12 13  1  0  0  0  0
 12 10  2  0  0  0  0
 13 11  2  0  0  0  0
 14 15  2  0  0  0  0
 16 17  1  0  0  0  0
 17 18  1  0  0  0  0
 19  1  1  0  0  0  0
 19 20  1  0  0  0  0
 21 31  1  6  0  0  0
 21 24  1  0  0  0  0
 22 23  1  0  0  0  0
 22 20  1  1  0  0  0
 22 21  1  0  0  0  0
 23 21  1  0  0  0  0
 24 27  1  0  0  0  0
 24 26  2  0  0  0  0
 26 25  1  0  0  0  0
 27 28  1  0  0  0  0
 28 25  2  0  0  0  0
 30 29  1  0  0  0  0
 31 30  1  0  0  0  0
 31 29  1  0  0  0  0
M  END
>  <MODEL>
9

>  <REMARK>
 VINA RESULT:      -5.9      2.164      7.773
  Name = 
  9 active torsions:
  status: ('A' for Active; 'I' for Inactive)
    1  A    between atoms: C_1  and  C_25
    2  A    between atoms: C_2  and  O_9
    3  A    between atoms: C_3  and  C_11
    4  A    between atoms: C_4  and  C_5
    5  A    between atoms: C_5  and  C_31
    6  A    between atoms: N_6  and  C_28
    7  A    between atoms: C_8  and  C_14
    8  A    between atoms: O_9  and  C_23
    9  A    between atoms: C_14  and  C_28
                            x       y       z     vdW  Elec       q    Type
                         _______ _______ _______ _____ _____    ______ ____

>  <TORSDO>
F 9

$$$$
