=
 OpenBabel11062419043D

 32 34  0  0  1  0  0  0  0  0999 V2000
  188.7940  174.2990  147.7640 O   0  0  0  0  0  0  0  0  0  0  0  0
  189.4840  176.9430  145.6590 C   0  0  0  0  0  0  0  0  0  0  0  0
  189.8210  175.7600  146.1460 C   0  0  0  0  0  0  0  0  0  0  0  0
  187.7980  176.3590  147.1910 N   0  0  0  0  0  2  0  0  0  0  0  0
  188.8070  175.3660  147.0980 C   0  0  0  0  0  0  0  0  0  0  0  0
  190.2890  177.7060  144.6630 C   0  0  0  0  0  1  0  0  0  0  0  0
  188.1920  177.4270  146.2720 C   0  0  2  0  0  3  0  0  0  0  0  0
  186.2000  178.7860  145.3820 C   0  0  0  0  0  3  0  0  0  0  0  0
  185.9810  176.7110  143.2250 C   0  0  1  0  0  3  0  0  0  0  0  0
  187.1380  177.6470  145.2280 C   0  0  0  0  0  0  0  0  0  0  0  0
  186.1270  175.5810  142.4370 F   0  0  0  0  0  0  0  0  0  0  0  0
  185.6360  179.2050  143.0170 N   0  0  0  0  0  2  0  0  0  0  0  0
  187.0510  176.7340  144.2600 C   0  0  0  0  0  3  0  0  0  0  0  0
  186.0110  177.9680  142.4140 C   0  0  0  0  0  0  0  0  0  0  0  0
  185.5510  179.4630  144.4250 C   0  0  0  0  0  3  0  0  0  0  0  0
  186.2670  177.9270  140.7970 S   0  0  0  0  0  0  0  0  0  0  0  0
  190.9910  175.0230  145.7700 N   0  0  0  0  0  2  0  0  0  0  0  0
  190.2770  173.0820  144.7590 C   0  0  0  0  0  1  0  0  0  0  0  0
  191.0650  174.2920  144.5730 N   0  0  0  0  0  0  0  0  0  0  0  0
  194.7070  176.1880  144.8610 C   0  0  0  0  0  0  0  0  0  0  0  0
  193.2580  173.7580  145.6030 C   0  0  0  0  0  2  0  0  0  0  0  0
  193.1680  174.8840  143.2740 C   0  0  0  0  0  2  0  0  0  0  0  0
  193.6580  176.1130  143.8850 N   0  0  0  0  0  2  0  0  0  0  0  0
  192.4750  173.9640  144.3040 C   0  0  2  0  0  3  0  0  0  0  0  0
  195.0190  177.3170  145.3200 O   0  0  0  0  0  0  0  0  0  0  0  0
  194.7440  173.6320  145.3120 C   0  0  0  0  0  2  0  0  0  0  0  0
  195.4690  174.9830  145.3670 C   0  0  1  0  0  3  0  0  0  0  0  0
  196.8300  174.8890  144.6890 C   0  0  0  0  0  2  0  0  0  0  0  0
  196.6800  174.5820  143.2060 C   0  0  0  0  0  2  0  0  0  0  0  0
  197.5310  175.5330  142.3780 C   0  0  0  0  0  2  0  0  0  0  0  0
  195.8960  176.9540  141.3650 O   0  0  0  0  0  1  0  0  0  0  0  0
  196.8000  175.9210  141.1020 C   0  0  0  0  0  2  0  0  0  0  0  0
  2  3  2  0  0  0  0
  2  7  1  0  0  0  0
  3  5  1  0  0  0  0
  5  4  1  0  0  0  0
  5  1  2  0  0  0  0
  6  2  1  0  0  0  0
  7 10  1  6  0  0  0
  7  4  1  0  0  0  0
  9 11  1  6  0  0  0
  9 13  1  0  0  0  0
 10  8  1  0  0  0  0
 12 15  1  0  0  0  0
 13 10  2  0  0  0  0
 14 12  1  0  0  0  0
 14  9  1  0  0  0  0
 15  8  2  0  0  0  0
 16 14  2  0  0  0  0
 17  3  1  0  0  0  0
 19 18  1  0  0  0  0
 19 17  1  0  0  0  0
 20 25  2  0  0  0  0
 20 27  1  0  0  0  0
 22 23  1  0  0  0  0
 22 24  1  0  0  0  0
 23 20  1  0  0  0  0
 24 19  1  1  0  0  0
 24 21  1  0  0  0  0
 26 27  1  0  0  0  0
 26 21  1  0  0  0  0
 27 28  1  6  0  0  0
 29 28  1  0  0  0  0
 30 29  1  0  0  0  0
 32 31  1  0  0  0  0
 32 30  1  0  0  0  0
M  END
>  <MODEL>
1

>  <REMARK>
 VINA RESULT:      -7.3      0.000      0.000
  Name = 
  8 active torsions:
  status: ('A' for Active; 'I' for Inactive)
    1  A    between atoms: C_5  and  C_10
    2  A    between atoms: C_5  and  C_20
    3  A    between atoms: C_6  and  C_28
    4  A    between atoms: C_9  and  N_22
    5  A    between atoms: C_10  and  C_32
    6  A    between atoms: C_16  and  N_31
    7  A    between atoms: C_20  and  C_25
    8  A    between atoms: N_22  and  N_31
                            x       y       z     vdW  Elec       q    Type
                         _______ _______ _______ _____ _____    ______ ____

>  <TORSDO>
F 8

$$$$
=
 OpenBabel11062419043D

 32 34  0  0  1  0  0  0  0  0999 V2000
  188.9920  174.4760  147.6680 O   0  0  0  0  0  0  0  0  0  0  0  0
  189.5290  177.1680  145.5800 C   0  0  0  0  0  0  0  0  0  0  0  0
  189.9640  176.0370  146.1110 C   0  0  0  0  0  0  0  0  0  0  0  0
  187.8080  176.3980  146.9840 N   0  0  0  0  0  2  0  0  0  0  0  0
  188.9310  175.5320  146.9870 C   0  0  0  0  0  0  0  0  0  0  0  0
  190.3150  178.0140  144.6360 C   0  0  0  0  0  1  0  0  0  0  0  0
  188.1440  177.4990  146.0810 C   0  0  2  0  0  3  0  0  0  0  0  0
  186.1460  178.6690  144.9640 C   0  0  0  0  0  3  0  0  0  0  0  0
  186.2060  176.4470  142.9460 C   0  0  1  0  0  3  0  0  0  0  0  0
  187.1580  177.5830  144.9540 C   0  0  0  0  0  0  0  0  0  0  0  0
  186.4760  175.2800  142.2500 F   0  0  0  0  0  0  0  0  0  0  0  0
  185.7330  178.8960  142.5420 N   0  0  0  0  0  2  0  0  0  0  0  0
  187.1950  176.6050  144.0480 C   0  0  0  0  0  3  0  0  0  0  0  0
  186.2220  177.6490  142.0540 C   0  0  0  0  0  0  0  0  0  0  0  0
  185.5300  179.2400  143.9190 C   0  0  0  0  0  3  0  0  0  0  0  0
  186.5980  177.5180  140.4640 S   0  0  0  0  0  0  0  0  0  0  0  0
  191.2400  175.4430  145.8400 N   0  0  0  0  0  2  0  0  0  0  0  0
  190.4520  173.8360  144.3920 C   0  0  0  0  0  1  0  0  0  0  0  0
  191.5230  174.7950  144.6270 N   0  0  0  0  0  0  0  0  0  0  0  0
  195.4650  175.6600  143.8220 C   0  0  0  0  0  0  0  0  0  0  0  0
  193.6500  174.6860  145.8980 C   0  0  0  0  0  2  0  0  0  0  0  0
  193.5930  173.9520  143.4170 C   0  0  0  0  0  2  0  0  0  0  0  0
  194.3490  175.1500  143.0780 N   0  0  0  0  0  2  0  0  0  0  0  0
  192.8220  174.1120  144.7460 C   0  0  2  0  0  3  0  0  0  0  0  0
  196.0170  176.7180  143.4250 O   0  0  0  0  0  0  0  0  0  0  0  0
  195.0600  174.1190  145.8710 C   0  0  0  0  0  2  0  0  0  0  0  0
  196.0270  174.9890  145.0560 C   0  0  1  0  0  3  0  0  0  0  0  0
  197.2890  174.2090  144.7130 C   0  0  0  0  0  2  0  0  0  0  0  0
  197.3750  172.9250  145.5260 C   0  0  0  0  0  2  0  0  0  0  0  0
  197.7750  171.7590  144.6350 C   0  0  0  0  0  2  0  0  0  0  0  0
  196.5400  170.6720  146.3720 O   0  0  0  0  0  1  0  0  0  0  0  0
  197.3960  170.4390  145.2910 C   0  0  0  0  0  2  0  0  0  0  0  0
  2  7  1  0  0  0  0
  2  3  2  0  0  0  0
  3  5  1  0  0  0  0
  4  5  1  0  0  0  0
  5  1  2  0  0  0  0
  6  2  1  0  0  0  0
  7 10  1  6  0  0  0
  7  4  1  0  0  0  0
  9 11  1  6  0  0  0
  9 13  1  0  0  0  0
 10  8  1  0  0  0  0
 12 15  1  0  0  0  0
 13 10  2  0  0  0  0
 14 12  1  0  0  0  0
 14  9  1  0  0  0  0
 15  8  2  0  0  0  0
 16 14  2  0  0  0  0
 17  3  1  0  0  0  0
 18 19  1  0  0  0  0
 19 17  1  0  0  0  0
 20 27  1  0  0  0  0
 22 24  1  0  0  0  0
 23 22  1  0  0  0  0
 23 20  1  0  0  0  0
 24 19  1  6  0  0  0
 24 21  1  0  0  0  0
 25 20  2  0  0  0  0
 26 21  1  0  0  0  0
 27 28  1  6  0  0  0
 27 26  1  0  0  0  0
 28 29  1  0  0  0  0
 30 32  1  0  0  0  0
 30 29  1  0  0  0  0
 32 31  1  0  0  0  0
M  END
>  <MODEL>
2

>  <REMARK>
 VINA RESULT:      -7.1      1.740      2.223
  Name = 
  8 active torsions:
  status: ('A' for Active; 'I' for Inactive)
    1  A    between atoms: C_5  and  C_10
    2  A    between atoms: C_5  and  C_20
    3  A    between atoms: C_6  and  C_28
    4  A    between atoms: C_9  and  N_22
    5  A    between atoms: C_10  and  C_32
    6  A    between atoms: C_16  and  N_31
    7  A    between atoms: C_20  and  C_25
    8  A    between atoms: N_22  and  N_31
                            x       y       z     vdW  Elec       q    Type
                         _______ _______ _______ _____ _____    ______ ____

>  <TORSDO>
F 8

$$$$
=
 OpenBabel11062419043D

 32 34  0  0  1  0  0  0  0  0999 V2000
  189.2520  174.5340  147.5610 O   0  0  0  0  0  0  0  0  0  0  0  0
  189.6710  177.1910  145.4010 C   0  0  0  0  0  0  0  0  0  0  0  0
  190.1380  176.0720  145.9310 C   0  0  0  0  0  0  0  0  0  0  0  0
  188.0250  176.4370  146.9020 N   0  0  0  0  0  2  0  0  0  0  0  0
  189.1520  175.5770  146.8650 C   0  0  0  0  0  0  0  0  0  0  0  0
  190.4040  178.0240  144.4050 C   0  0  0  0  0  1  0  0  0  0  0  0
  188.3100  177.5230  145.9640 C   0  0  2  0  0  3  0  0  0  0  0  0
  186.2290  178.6390  144.9480 C   0  0  0  0  0  3  0  0  0  0  0  0
  186.2550  176.4250  142.9210 C   0  0  1  0  0  3  0  0  0  0  0  0
  187.2690  177.5820  144.8860 C   0  0  0  0  0  0  0  0  0  0  0  0
  186.5230  175.2680  142.2090 F   0  0  0  0  0  0  0  0  0  0  0  0
  185.6950  178.8600  142.5490 N   0  0  0  0  0  2  0  0  0  0  0  0
  187.2910  176.6080  143.9750 C   0  0  0  0  0  3  0  0  0  0  0  0
  186.1950  177.6290  142.0340 C   0  0  0  0  0  0  0  0  0  0  0  0
  185.5480  179.1950  143.9360 C   0  0  0  0  0  3  0  0  0  0  0  0
  186.4980  177.5130  140.4280 S   0  0  0  0  0  0  0  0  0  0  0  0
  191.4020  175.4790  145.6080 N   0  0  0  0  0  2  0  0  0  0  0  0
  192.8840  173.7380  145.3350 C   0  0  0  0  0  1  0  0  0  0  0  0
  191.5120  174.1720  145.1070 N   0  0  0  0  0  0  0  0  0  0  0  0
  190.7280  171.4020  142.1650 C   0  0  0  0  0  0  0  0  0  0  0  0
  189.7280  173.8500  143.4140 C   0  0  0  0  0  2  0  0  0  0  0  0
  192.1980  173.4140  142.7800 C   0  0  0  0  0  2  0  0  0  0  0  0
  191.9030  171.9870  142.7430 N   0  0  0  0  0  2  0  0  0  0  0  0
  191.1990  174.1870  143.6690 C   0  0  2  0  0  3  0  0  0  0  0  0
  190.5930  170.1530  142.2180 O   0  0  0  0  0  0  0  0  0  0  0  0
  189.4760  173.6640  141.9270 C   0  0  0  0  0  2  0  0  0  0  0  0
  189.6410  172.2040  141.4830 C   0  0  1  0  0  3  0  0  0  0  0  0
  189.7840  172.1180  139.9690 C   0  0  0  0  0  2  0  0  0  0  0  0
  190.5250  173.3290  139.4210 C   0  0  0  0  0  2  0  0  0  0  0  0
  189.8770  173.8100  138.1320 C   0  0  0  0  0  2  0  0  0  0  0  0
  187.7070  174.8110  138.0150 O   0  0  0  0  0  1  0  0  0  0  0  0
  188.3710  173.5930  138.1850 C   0  0  0  0  0  2  0  0  0  0  0  0
  2  3  2  0  0  0  0
  2  7  1  0  0  0  0
  3  5  1  0  0  0  0
  5  4  1  0  0  0  0
  5  1  2  0  0  0  0
  6  2  1  0  0  0  0
  7 10  1  6  0  0  0
  7  4  1  0  0  0  0
  9 11  1  6  0  0  0
  9 13  1  0  0  0  0
 10  8  1  0  0  0  0
 12 15  1  0  0  0  0
 13 10  2  0  0  0  0
 14 12  1  0  0  0  0
 14  9  1  0  0  0  0
 15  8  2  0  0  0  0
 16 14  2  0  0  0  0
 17  3  1  0  0  0  0
 19 18  1  0  0  0  0
 19 17  1  0  0  0  0
 20 25  2  0  0  0  0
 20 23  1  0  0  0  0
 21 24  1  0  0  0  0
 22 24  1  0  0  0  0
 23 22  1  0  0  0  0
 24 19  1  1  0  0  0
 26 21  1  0  0  0  0
 27 28  1  6  0  0  0
 27 26  1  0  0  0  0
 27 20  1  0  0  0  0
 29 28  1  0  0  0  0
 30 32  1  0  0  0  0
 30 29  1  0  0  0  0
 31 32  1  0  0  0  0
M  END
>  <MODEL>
3

>  <REMARK>
 VINA RESULT:      -7.1      3.133      4.540
  Name = 
  8 active torsions:
  status: ('A' for Active; 'I' for Inactive)
    1  A    between atoms: C_5  and  C_10
    2  A    between atoms: C_5  and  C_20
    3  A    between atoms: C_6  and  C_28
    4  A    between atoms: C_9  and  N_22
    5  A    between atoms: C_10  and  C_32
    6  A    between atoms: C_16  and  N_31
    7  A    between atoms: C_20  and  C_25
    8  A    between atoms: N_22  and  N_31
                            x       y       z     vdW  Elec       q    Type
                         _______ _______ _______ _____ _____    ______ ____

>  <TORSDO>
F 8

$$$$
=
 OpenBabel11062419043D

 32 34  0  0  1  0  0  0  0  0999 V2000
  189.5650  174.7610  142.4400 O   0  0  0  0  0  0  0  0  0  0  0  0
  187.4270  176.6250  144.4030 C   0  0  0  0  0  0  0  0  0  0  0  0
  188.6570  176.2270  144.1240 C   0  0  0  0  0  0  0  0  0  0  0  0
  187.2480  175.1920  142.5480 N   0  0  0  0  0  2  0  0  0  0  0  0
  188.5890  175.3380  142.9870 C   0  0  0  0  0  0  0  0  0  0  0  0
  187.0690  177.5350  145.5300 C   0  0  0  0  0  1  0  0  0  0  0  0
  186.4340  176.0100  143.4460 C   0  0  2  0  0  3  0  0  0  0  0  0
  186.2310  177.5230  141.3790 C   0  0  0  0  0  3  0  0  0  0  0  0
  183.8380  178.7360  142.7250 C   0  0  1  0  0  3  0  0  0  0  0  0
  185.6870  177.0610  142.6800 C   0  0  0  0  0  0  0  0  0  0  0  0
  182.8520  179.0950  143.6290 F   0  0  0  0  0  0  0  0  0  0  0  0
  184.1460  178.2360  140.2680 N   0  0  0  0  0  2  0  0  0  0  0  0
  184.6140  177.5890  143.2700 C   0  0  0  0  0  3  0  0  0  0  0  0
  183.2710  178.3930  141.3830 C   0  0  0  0  0  0  0  0  0  0  0  0
  185.5640  178.0300  140.3330 C   0  0  0  0  0  3  0  0  0  0  0  0
  181.6540  178.3950  141.1220 S   0  0  0  0  0  0  0  0  0  0  0  0
  189.8300  176.6300  144.8420 N   0  0  0  0  0  2  0  0  0  0  0  0
  190.7040  176.7010  146.9710 C   0  0  0  0  0  1  0  0  0  0  0  0
  190.4100  175.8300  145.8410 N   0  0  0  0  0  0  0  0  0  0  0  0
  194.3620  176.9080  145.4400 C   0  0  0  0  0  0  0  0  0  0  0  0
  192.5900  174.8060  146.4350 C   0  0  0  0  0  2  0  0  0  0  0  0
  192.3150  176.0250  144.1690 C   0  0  0  0  0  2  0  0  0  0  0  0
  193.1600  177.0960  144.6800 N   0  0  0  0  0  2  0  0  0  0  0  0
  191.6430  175.2270  145.3090 C   0  0  2  0  0  3  0  0  0  0  0  0
  194.9880  177.9260  145.8340 O   0  0  0  0  0  0  0  0  0  0  0  0
  193.9350  174.3840  145.8680 C   0  0  0  0  0  2  0  0  0  0  0  0
  194.9300  175.5500  145.7890 C   0  0  1  0  0  3  0  0  0  0  0  0
  196.0900  175.2020  144.8650 C   0  0  0  0  0  2  0  0  0  0  0  0
  195.6480  174.2360  143.7750 C   0  0  0  0  0  2  0  0  0  0  0  0
  195.3800  174.9850  142.4780 C   0  0  0  0  0  2  0  0  0  0  0  0
  196.2690  176.9790  141.5010 O   0  0  0  0  0  1  0  0  0  0  0  0
  196.6260  175.7400  142.0380 C   0  0  0  0  0  2  0  0  0  0  0  0
  1  5  2  0  0  0  0
  2  6  1  0  0  0  0
  3  2  2  0  0  0  0
  3 17  1  0  0  0  0
  4  5  1  0  0  0  0
  4  7  1  0  0  0  0
  5  3  1  0  0  0  0
  7 10  1  6  0  0  0
  7  2  1  0  0  0  0
  8 10  1  0  0  0  0
  9 13  1  0  0  0  0
  9 11  1  1  0  0  0
 10 13  2  0  0  0  0
 12 15  1  0  0  0  0
 12 14  1  0  0  0  0
 14  9  1  0  0  0  0
 15  8  2  0  0  0  0
 16 14  2  0  0  0  0
 17 19  1  0  0  0  0
 19 18  1  0  0  0  0
 20 27  1  0  0  0  0
 20 25  2  0  0  0  0
 22 23  1  0  0  0  0
 22 24  1  0  0  0  0
 23 20  1  0  0  0  0
 24 19  1  1  0  0  0
 24 21  1  0  0  0  0
 26 21  1  0  0  0  0
 27 28  1  6  0  0  0
 27 26  1  0  0  0  0
 29 28  1  0  0  0  0
 30 29  1  0  0  0  0
 31 32  1  0  0  0  0
 32 30  1  0  0  0  0
M  END
>  <MODEL>
4

>  <REMARK>
 VINA RESULT:      -7.1      2.272      2.971
  Name = 
  8 active torsions:
  status: ('A' for Active; 'I' for Inactive)
    1  A    between atoms: C_5  and  C_10
    2  A    between atoms: C_5  and  C_20
    3  A    between atoms: C_6  and  C_28
    4  A    between atoms: C_9  and  N_22
    5  A    between atoms: C_10  and  C_32
    6  A    between atoms: C_16  and  N_31
    7  A    between atoms: C_20  and  C_25
    8  A    between atoms: N_22  and  N_31
                            x       y       z     vdW  Elec       q    Type
                         _______ _______ _______ _____ _____    ______ ____

>  <TORSDO>
F 8

$$$$
=
 OpenBabel11062419043D

 32 34  0  0  1  0  0  0  0  0999 V2000
  191.4100  176.7910  146.3560 O   0  0  0  0  0  0  0  0  0  0  0  0
  192.6330  173.8860  144.9540 C   0  0  0  0  0  0  0  0  0  0  0  0
  191.6880  174.8110  145.0100 C   0  0  0  0  0  0  0  0  0  0  0  0
  193.3110  175.4160  146.6070 N   0  0  0  0  0  2  0  0  0  0  0  0
  192.0690  175.7720  146.0210 C   0  0  0  0  0  0  0  0  0  0  0  0
  192.6010  172.7020  144.0480 C   0  0  0  0  0  1  0  0  0  0  0  0
  193.7300  174.1780  145.9500 C   0  0  2  0  0  3  0  0  0  0  0  0
  196.1130  173.3380  145.4780 C   0  0  0  0  0  3  0  0  0  0  0  0
  196.5220  175.9010  143.9690 C   0  0  1  0  0  3  0  0  0  0  0  0
  195.0540  174.3580  145.2700 C   0  0  0  0  0  0  0  0  0  0  0  0
  196.3870  177.1660  143.4210 F   0  0  0  0  0  0  0  0  0  0  0  0
  197.3820  173.6000  143.3780 N   0  0  0  0  0  2  0  0  0  0  0  0
  195.2310  175.4880  144.5850 C   0  0  0  0  0  3  0  0  0  0  0  0
  196.9600  174.8940  142.9520 C   0  0  0  0  0  0  0  0  0  0  0  0
  197.1200  173.0080  144.6580 C   0  0  0  0  0  3  0  0  0  0  0  0
  197.1610  175.3100  141.3810 S   0  0  0  0  0  0  0  0  0  0  0  0
  190.5110  174.8290  144.1950 N   0  0  0  0  0  2  0  0  0  0  0  0
  191.7150  176.0490  142.6580 C   0  0  0  0  0  1  0  0  0  0  0  0
  190.3730  175.6930  143.0950 N   0  0  0  0  0  0  0  0  0  0  0  0
  186.8350  177.5470  142.1000 C   0  0  0  0  0  0  0  0  0  0  0  0
  188.3930  176.5090  144.3470 C   0  0  0  0  0  2  0  0  0  0  0  0
  189.3570  177.9170  142.4020 C   0  0  0  0  0  2  0  0  0  0  0  0
  188.1840  177.5690  141.6110 N   0  0  0  0  0  2  0  0  0  0  0  0
  189.6250  176.8870  143.5220 C   0  0  2  0  0  3  0  0  0  0  0  0
  185.9170  177.2090  141.3100 O   0  0  0  0  0  0  0  0  0  0  0  0
  187.5250  177.7320  144.5950 C   0  0  0  0  0  2  0  0  0  0  0  0
  186.4510  177.9180  143.5150 C   0  0  1  0  0  3  0  0  0  0  0  0
  185.8830  179.3300  143.5620 C   0  0  0  0  0  2  0  0  0  0  0  0
  185.4590  179.7010  144.9760 C   0  0  0  0  0  2  0  0  0  0  0  0
  184.2330  178.9000  145.3890 C   0  0  0  0  0  2  0  0  0  0  0  0
  185.5620  178.8590  147.3770 O   0  0  0  0  0  1  0  0  0  0  0  0
  184.4410  178.2910  146.7680 C   0  0  0  0  0  2  0  0  0  0  0  0
  2  3  2  0  0  0  0
  2  7  1  0  0  0  0
  3  5  1  0  0  0  0
  5  1  2  0  0  0  0
  5  4  1  0  0  0  0
  6  2  1  0  0  0  0
  7 10  1  6  0  0  0
  7  4  1  0  0  0  0
  9 11  1  6  0  0  0
  9 13  1  0  0  0  0
 10  8  1  0  0  0  0
 12 15  1  0  0  0  0
 13 10  2  0  0  0  0
 14 12  1  0  0  0  0
 14  9  1  0  0  0  0
 15  8  2  0  0  0  0
 16 14  2  0  0  0  0
 17  3  1  0  0  0  0
 18 19  1  0  0  0  0
 19 17  1  0  0  0  0
 20 27  1  0  0  0  0
 21 26  1  0  0  0  0
 22 24  1  0  0  0  0
 23 20  1  0  0  0  0
 23 22  1  0  0  0  0
 24 19  1  6  0  0  0
 24 21  1  0  0  0  0
 25 20  2  0  0  0  0
 27 28  1  6  0  0  0
 27 26  1  0  0  0  0
 28 29  1  0  0  0  0
 29 30  1  0  0  0  0
 30 32  1  0  0  0  0
 32 31  1  0  0  0  0
M  END
>  <MODEL>
5

>  <REMARK>
 VINA RESULT:      -6.8      3.653      8.920
  Name = 
  8 active torsions:
  status: ('A' for Active; 'I' for Inactive)
    1  A    between atoms: C_5  and  C_10
    2  A    between atoms: C_5  and  C_20
    3  A    between atoms: C_6  and  C_28
    4  A    between atoms: C_9  and  N_22
    5  A    between atoms: C_10  and  C_32
    6  A    between atoms: C_16  and  N_31
    7  A    between atoms: C_20  and  C_25
    8  A    between atoms: N_22  and  N_31
                            x       y       z     vdW  Elec       q    Type
                         _______ _______ _______ _____ _____    ______ ____

>  <TORSDO>
F 8

$$$$
=
 OpenBabel11062419043D

 32 34  0  0  1  0  0  0  0  0999 V2000
  188.9740  174.5090  147.5770 O   0  0  0  0  0  0  0  0  0  0  0  0
  189.4280  177.2460  145.5260 C   0  0  0  0  0  0  0  0  0  0  0  0
  189.9100  176.1400  146.0690 C   0  0  0  0  0  0  0  0  0  0  0  0
  187.7020  176.3600  146.8560 N   0  0  0  0  0  2  0  0  0  0  0  0
  188.8760  175.5650  146.8990 C   0  0  0  0  0  0  0  0  0  0  0  0
  190.1970  178.1460  144.6200 C   0  0  0  0  0  1  0  0  0  0  0  0
  188.0050  177.4870  145.9720 C   0  0  2  0  0  3  0  0  0  0  0  0
  185.9640  178.5160  144.7990 C   0  0  0  0  0  3  0  0  0  0  0  0
  186.2920  176.3620  142.7340 C   0  0  1  0  0  3  0  0  0  0  0  0
  187.0630  177.5190  144.8070 C   0  0  0  0  0  0  0  0  0  0  0  0
  186.6870  175.2410  142.0230 F   0  0  0  0  0  0  0  0  0  0  0  0
  185.6310  178.7730  142.3670 N   0  0  0  0  0  2  0  0  0  0  0  0
  187.2190  176.5720  143.8810 C   0  0  0  0  0  3  0  0  0  0  0  0
  186.2430  177.5840  141.8720 C   0  0  0  0  0  0  0  0  0  0  0  0
  185.3450  179.0620  143.7430 C   0  0  0  0  0  3  0  0  0  0  0  0
  186.6930  177.5280  140.2970 S   0  0  0  0  0  0  0  0  0  0  0  0
  191.2300  175.6270  145.8470 N   0  0  0  0  0  2  0  0  0  0  0  0
  191.8930  176.4810  147.8800 C   0  0  0  0  0  1  0  0  0  0  0  0
  192.1480  175.4400  146.8940 N   0  0  0  0  0  0  0  0  0  0  0  0
  194.0060  174.8750  143.2650 C   0  0  0  0  0  0  0  0  0  0  0  0
  193.6580  176.7820  145.4550 C   0  0  0  0  0  2  0  0  0  0  0  0
  194.0790  174.2460  145.7520 C   0  0  0  0  0  2  0  0  0  0  0  0
  193.6410  174.0450  144.3770 N   0  0  0  0  0  2  0  0  0  0  0  0
  193.5120  175.5510  146.3530 C   0  0  2  0  0  3  0  0  0  0  0  0
  193.5400  174.5950  142.1300 O   0  0  0  0  0  0  0  0  0  0  0  0
  195.0010  176.7630  144.7430 C   0  0  0  0  0  2  0  0  0  0  0  0
  194.9300  176.0680  143.3770 C   0  0  1  0  0  3  0  0  0  0  0  0
  196.3260  175.7090  142.8850 C   0  0  0  0  0  2  0  0  0  0  0  0
  196.5770  176.2760  141.4950 C   0  0  0  0  0  2  0  0  0  0  0  0
  197.4930  175.3550  140.7030 C   0  0  0  0  0  2  0  0  0  0  0  0
  195.4900  175.1900  139.4060 O   0  0  0  0  0  1  0  0  0  0  0  0
  196.6840  174.5320  139.7110 C   0  0  0  0  0  2  0  0  0  0  0  0
  2  7  1  0  0  0  0
  2  3  2  0  0  0  0
  3  5  1  0  0  0  0
  4  5  1  0  0  0  0
  5  1  2  0  0  0  0
  6  2  1  0  0  0  0
  7 10  1  6  0  0  0
  7  4  1  0  0  0  0
  8 10  1  0  0  0  0
  9 11  1  6  0  0  0
  9 13  1  0  0  0  0
 12 15  1  0  0  0  0
 13 10  2  0  0  0  0
 14 12  1  0  0  0  0
 14  9  1  0  0  0  0
 15  8  2  0  0  0  0
 16 14  2  0  0  0  0
 17  3  1  0  0  0  0
 17 19  1  0  0  0  0
 19 18  1  0  0  0  0
 20 27  1  0  0  0  0
 20 23  1  0  0  0  0
 21 24  1  0  0  0  0
 22 24  1  0  0  0  0
 23 22  1  0  0  0  0
 24 19  1  6  0  0  0
 25 20  2  0  0  0  0
 26 21  1  0  0  0  0
 27 28  1  1  0  0  0
 27 26  1  0  0  0  0
 29 28  1  0  0  0  0
 30 29  1  0  0  0  0
 31 32  1  0  0  0  0
 32 30  1  0  0  0  0
M  END
>  <MODEL>
6

>  <REMARK>
 VINA RESULT:      -6.7      1.472      2.019
  Name = 
  8 active torsions:
  status: ('A' for Active; 'I' for Inactive)
    1  A    between atoms: C_5  and  C_10
    2  A    between atoms: C_5  and  C_20
    3  A    between atoms: C_6  and  C_28
    4  A    between atoms: C_9  and  N_22
    5  A    between atoms: C_10  and  C_32
    6  A    between atoms: C_16  and  N_31
    7  A    between atoms: C_20  and  C_25
    8  A    between atoms: N_22  and  N_31
                            x       y       z     vdW  Elec       q    Type
                         _______ _______ _______ _____ _____    ______ ____

>  <TORSDO>
F 8

$$$$
=
 OpenBabel11062419043D

 32 34  0  0  1  0  0  0  0  0999 V2000
  191.0890  177.7930  143.1350 O   0  0  0  0  0  0  0  0  0  0  0  0
  188.1390  176.1590  142.4080 C   0  0  0  0  0  0  0  0  0  0  0  0
  189.3420  176.1420  142.9600 C   0  0  0  0  0  0  0  0  0  0  0  0
  189.0600  178.2910  142.0390 N   0  0  0  0  0  2  0  0  0  0  0  0
  189.9440  177.4400  142.7510 C   0  0  0  0  0  0  0  0  0  0  0  0
  187.2040  174.9970  142.3880 C   0  0  0  0  0  1  0  0  0  0  0  0
  187.8560  177.5020  141.7790 C   0  0  2  0  0  3  0  0  0  0  0  0
  185.3980  178.2330  141.5980 C   0  0  0  0  0  3  0  0  0  0  0  0
  185.7700  179.5140  144.2870 C   0  0  1  0  0  3  0  0  0  0  0  0
  186.6510  178.1510  142.3900 C   0  0  0  0  0  0  0  0  0  0  0  0
  186.2930  180.0210  145.4650 F   0  0  0  0  0  0  0  0  0  0  0  0
  183.7370  178.2910  143.4210 N   0  0  0  0  0  2  0  0  0  0  0  0
  186.8110  178.7060  143.5920 C   0  0  0  0  0  3  0  0  0  0  0  0
  184.5440  178.6910  144.5260 C   0  0  0  0  0  0  0  0  0  0  0  0
  184.1360  178.2910  142.0430 C   0  0  0  0  0  3  0  0  0  0  0  0
  183.9940  178.4120  146.0440 S   0  0  0  0  0  0  0  0  0  0  0  0
  189.9140  175.0190  143.6420 N   0  0  0  0  0  2  0  0  0  0  0  0
  189.2420  176.0880  145.5670 C   0  0  0  0  0  1  0  0  0  0  0  0
  189.8380  174.8700  145.0360 N   0  0  0  0  0  0  0  0  0  0  0  0
  193.6900  175.6430  143.8090 C   0  0  0  0  0  0  0  0  0  0  0  0
  191.8130  176.0000  146.0240 C   0  0  0  0  0  2  0  0  0  0  0  0
  192.1210  173.8090  144.6810 C   0  0  0  0  0  2  0  0  0  0  0  0
  192.7390  174.5870  143.6150 N   0  0  0  0  0  2  0  0  0  0  0  0
  191.1970  174.6760  145.5670 C   0  0  2  0  0  3  0  0  0  0  0  0
  194.1320  176.2450  142.7970 O   0  0  0  0  0  0  0  0  0  0  0  0
  193.2810  175.8120  146.3670 C   0  0  0  0  0  2  0  0  0  0  0  0
  194.2020  176.0710  145.1670 C   0  0  1  0  0  3  0  0  0  0  0  0
  195.5880  175.4930  145.4210 C   0  0  0  0  0  2  0  0  0  0  0  0
  195.5090  174.0090  145.7500 C   0  0  0  0  0  2  0  0  0  0  0  0
  196.8800  173.4770  146.1390 C   0  0  0  0  0  2  0  0  0  0  0  0
  196.8160  171.0860  146.1380 O   0  0  0  0  0  1  0  0  0  0  0  0
  197.1850  172.1970  145.3750 C   0  0  0  0  0  2  0  0  0  0  0  0
  2  3  2  0  0  0  0
  3 17  1  0  0  0  0
  4  5  1  0  0  0  0
  5  3  1  0  0  0  0
  5  1  2  0  0  0  0
  6  2  1  0  0  0  0
  7  4  1  0  0  0  0
  7 10  1  1  0  0  0
  7  2  1  0  0  0  0
  8 15  2  0  0  0  0
  8 10  1  0  0  0  0
  9 14  1  0  0  0  0
  9 11  1  1  0  0  0
 10 13  2  0  0  0  0
 12 14  1  0  0  0  0
 13  9  1  0  0  0  0
 14 16  2  0  0  0  0
 15 12  1  0  0  0  0
 17 19  1  0  0  0  0
 19 18  1  0  0  0  0
 20 27  1  0  0  0  0
 21 26  1  0  0  0  0
 22 24  1  0  0  0  0
 23 20  1  0  0  0  0
 23 22  1  0  0  0  0
 24 19  1  6  0  0  0
 24 21  1  0  0  0  0
 25 20  2  0  0  0  0
 27 28  1  1  0  0  0
 27 26  1  0  0  0  0
 28 29  1  0  0  0  0
 29 30  1  0  0  0  0
 32 31  1  0  0  0  0
 32 30  1  0  0  0  0
M  END
>  <MODEL>
7

>  <REMARK>
 VINA RESULT:      -6.6      2.610      3.789
  Name = 
  8 active torsions:
  status: ('A' for Active; 'I' for Inactive)
    1  A    between atoms: C_5  and  C_10
    2  A    between atoms: C_5  and  C_20
    3  A    between atoms: C_6  and  C_28
    4  A    between atoms: C_9  and  N_22
    5  A    between atoms: C_10  and  C_32
    6  A    between atoms: C_16  and  N_31
    7  A    between atoms: C_20  and  C_25
    8  A    between atoms: N_22  and  N_31
                            x       y       z     vdW  Elec       q    Type
                         _______ _______ _______ _____ _____    ______ ____

>  <TORSDO>
F 8

$$$$
=
 OpenBabel11062419043D

 32 34  0  0  1  0  0  0  0  0999 V2000
  190.0560  173.1560  145.6000 O   0  0  0  0  0  0  0  0  0  0  0  0
  189.8810  176.5910  145.3300 C   0  0  0  0  0  0  0  0  0  0  0  0
  190.3570  175.4390  144.8870 C   0  0  0  0  0  0  0  0  0  0  0  0
  188.9690  174.9260  146.7180 N   0  0  0  0  0  2  0  0  0  0  0  0
  189.8200  174.3870  145.7200 C   0  0  0  0  0  0  0  0  0  0  0  0
  190.2190  177.9230  144.7510 C   0  0  0  0  0  1  0  0  0  0  0  0
  188.9730  176.3750  146.5180 C   0  0  2  0  0  3  0  0  0  0  0  0
  186.8000  177.4510  147.3690 C   0  0  0  0  0  3  0  0  0  0  0  0
  185.7090  177.0010  144.6090 C   0  0  1  0  0  3  0  0  0  0  0  0
  187.5870  176.8800  146.2480 C   0  0  0  0  0  0  0  0  0  0  0  0
  185.5160  176.6030  143.2970 F   0  0  0  0  0  0  0  0  0  0  0  0
  185.3250  178.9870  146.1230 N   0  0  0  0  0  2  0  0  0  0  0  0
  187.1090  176.6960  145.0170 C   0  0  0  0  0  3  0  0  0  0  0  0
  185.4150  178.4560  144.8030 C   0  0  0  0  0  0  0  0  0  0  0  0
  185.8220  178.3660  147.3160 C   0  0  0  0  0  3  0  0  0  0  0  0
  184.9910  179.4090  143.5400 S   0  0  0  0  0  0  0  0  0  0  0  0
  191.2450  175.2950  143.7710 N   0  0  0  0  0  2  0  0  0  0  0  0
  193.1100  176.0520  142.6540 C   0  0  0  0  0  1  0  0  0  0  0  0
  192.6350  175.4520  143.8930 N   0  0  0  0  0  0  0  0  0  0  0  0
  196.3740  173.9620  144.7540 C   0  0  0  0  0  0  0  0  0  0  0  0
  193.5690  173.8930  145.5810 C   0  0  0  0  0  2  0  0  0  0  0  0
  194.3950  173.7840  143.1300 C   0  0  0  0  0  2  0  0  0  0  0  0
  195.6650  174.3460  143.5670 N   0  0  0  0  0  2  0  0  0  0  0  0
  193.2450  174.1300  144.1040 C   0  0  2  0  0  3  0  0  0  0  0  0
  197.4570  174.5440  145.0210 O   0  0  0  0  0  0  0  0  0  0  0  0
  194.3850  172.6220  145.7480 C   0  0  0  0  0  2  0  0  0  0  0  0
  195.8970  172.8850  145.7030 C   0  0  1  0  0  3  0  0  0  0  0  0
  196.6590  171.5880  145.4660 C   0  0  0  0  0  2  0  0  0  0  0  0
  195.8750  170.3920  145.9860 C   0  0  0  0  0  2  0  0  0  0  0  0
  196.7990  169.4250  146.7110 C   0  0  0  0  0  2  0  0  0  0  0  0
  194.6300  168.6960  147.4070 O   0  0  0  0  0  1  0  0  0  0  0  0
  195.9980  168.5230  147.6380 C   0  0  0  0  0  2  0  0  0  0  0  0
  1  5  2  0  0  0  0
  2  7  1  0  0  0  0
  3  2  2  0  0  0  0
  3  5  1  0  0  0  0
  5  4  1  0  0  0  0
  6  2  1  0  0  0  0
  7 10  1  6  0  0  0
  7  4  1  0  0  0  0
  9 11  1  6  0  0  0
  9 14  1  0  0  0  0
  9 13  1  0  0  0  0
 10  8  1  0  0  0  0
 12 15  1  0  0  0  0
 13 10  2  0  0  0  0
 14 12  1  0  0  0  0
 15  8  2  0  0  0  0
 16 14  2  0  0  0  0
 17 19  1  0  0  0  0
 17  3  1  0  0  0  0
 18 19  1  0  0  0  0
 20 25  2  0  0  0  0
 20 27  1  0  0  0  0
 21 26  1  0  0  0  0
 22 23  1  0  0  0  0
 22 24  1  0  0  0  0
 23 20  1  0  0  0  0
 24 19  1  1  0  0  0
 24 21  1  0  0  0  0
 27 28  1  6  0  0  0
 27 26  1  0  0  0  0
 28 29  1  0  0  0  0
 29 30  1  0  0  0  0
 30 32  1  0  0  0  0
 31 32  1  0  0  0  0
M  END
>  <MODEL>
8

>  <REMARK>
 VINA RESULT:      -6.6      2.671      3.689
  Name = 
  8 active torsions:
  status: ('A' for Active; 'I' for Inactive)
    1  A    between atoms: C_5  and  C_10
    2  A    between atoms: C_5  and  C_20
    3  A    between atoms: C_6  and  C_28
    4  A    between atoms: C_9  and  N_22
    5  A    between atoms: C_10  and  C_32
    6  A    between atoms: C_16  and  N_31
    7  A    between atoms: C_20  and  C_25
    8  A    between atoms: N_22  and  N_31
                            x       y       z     vdW  Elec       q    Type
                         _______ _______ _______ _____ _____    ______ ____

>  <TORSDO>
F 8

$$$$
=
 OpenBabel11062419043D

 32 34  0  0  1  0  0  0  0  0999 V2000
  192.1160  177.3060  143.5860 O   0  0  0  0  0  0  0  0  0  0  0  0
  189.1080  175.9740  142.5490 C   0  0  0  0  0  0  0  0  0  0  0  0
  190.3310  175.7900  143.0190 C   0  0  0  0  0  0  0  0  0  0  0  0
  190.0550  178.1150  142.7720 N   0  0  0  0  0  2  0  0  0  0  0  0
  190.9490  177.0870  143.1670 C   0  0  0  0  0  0  0  0  0  0  0  0
  188.1490  174.8750  142.2350 C   0  0  0  0  0  1  0  0  0  0  0  0
  188.8260  177.4440  142.3480 C   0  0  2  0  0  3  0  0  0  0  0  0
  186.4790  178.4820  142.4890 C   0  0  0  0  0  3  0  0  0  0  0  0
  186.8060  178.3670  145.4710 C   0  0  1  0  0  3  0  0  0  0  0  0
  187.6590  177.8970  143.1730 C   0  0  0  0  0  0  0  0  0  0  0  0
  187.3000  178.2230  146.7570 F   0  0  0  0  0  0  0  0  0  0  0  0
  184.7150  177.9280  144.1230 N   0  0  0  0  0  2  0  0  0  0  0  0
  187.7970  177.8300  144.4980 C   0  0  0  0  0  3  0  0  0  0  0  0
  185.4850  177.6860  145.2990 C   0  0  0  0  0  0  0  0  0  0  0  0
  185.2030  178.4940  142.8990 C   0  0  0  0  0  3  0  0  0  0  0  0
  184.8080  176.8290  146.5200 S   0  0  0  0  0  0  0  0  0  0  0  0
  190.9070  174.5130  143.3210 N   0  0  0  0  0  2  0  0  0  0  0  0
  191.1350  172.7780  141.8250 C   0  0  0  0  0  1  0  0  0  0  0  0
  191.8300  173.8850  142.4680 N   0  0  0  0  0  0  0  0  0  0  0  0
  195.0460  175.5260  144.4430 C   0  0  0  0  0  0  0  0  0  0  0  0
  192.7720  173.7140  144.7560 C   0  0  0  0  0  2  0  0  0  0  0  0
  194.3570  173.7630  142.7110 C   0  0  0  0  0  2  0  0  0  0  0  0
  194.7660  175.1050  143.1010 N   0  0  0  0  0  2  0  0  0  0  0  0
  192.9630  173.3990  143.2710 C   0  0  2  0  0  3  0  0  0  0  0  0
  195.3740  176.7240  144.6400 O   0  0  0  0  0  0  0  0  0  0  0  0
  194.0380  173.3970  145.5330 C   0  0  0  0  0  2  0  0  0  0  0  0
  194.9780  174.6050  145.6410 C   0  0  1  0  0  3  0  0  0  0  0  0
  196.3760  174.1610  146.0530 C   0  0  0  0  0  2  0  0  0  0  0  0
  196.5670  172.6700  145.8150 C   0  0  0  0  0  2  0  0  0  0  0  0
  197.5880  172.4360  144.7120 C   0  0  0  0  0  2  0  0  0  0  0  0
  196.7620  170.2010  144.5010 O   0  0  0  0  0  1  0  0  0  0  0  0
  197.9320  170.9570  144.6160 C   0  0  0  0  0  2  0  0  0  0  0  0
  2  3  2  0  0  0  0
  3  5  1  0  0  0  0
  3 17  1  0  0  0  0
  4  5  1  0  0  0  0
  5  1  2  0  0  0  0
  6  2  1  0  0  0  0
  7  2  1  0  0  0  0
  7  4  1  0  0  0  0
  7 10  1  1  0  0  0
  8 15  2  0  0  0  0
  8 10  1  0  0  0  0
  9 11  1  1  0  0  0
 10 13  2  0  0  0  0
 12 14  1  0  0  0  0
 13  9  1  0  0  0  0
 14  9  1  0  0  0  0
 14 16  2  0  0  0  0
 15 12  1  0  0  0  0
 18 19  1  0  0  0  0
 19 17  1  0  0  0  0
 20 25  2  0  0  0  0
 20 27  1  0  0  0  0
 21 26  1  0  0  0  0
 22 23  1  0  0  0  0
 22 24  1  0  0  0  0
 23 20  1  0  0  0  0
 24 19  1  6  0  0  0
 24 21  1  0  0  0  0
 26 27  1  0  0  0  0
 27 28  1  6  0  0  0
 29 28  1  0  0  0  0
 30 29  1  0  0  0  0
 31 32  1  0  0  0  0
 32 30  1  0  0  0  0
M  END
>  <MODEL>
9

>  <REMARK>
 VINA RESULT:      -6.5      2.786      3.537
  Name = 
  8 active torsions:
  status: ('A' for Active; 'I' for Inactive)
    1  A    between atoms: C_5  and  C_10
    2  A    between atoms: C_5  and  C_20
    3  A    between atoms: C_6  and  C_28
    4  A    between atoms: C_9  and  N_22
    5  A    between atoms: C_10  and  C_32
    6  A    between atoms: C_16  and  N_31
    7  A    between atoms: C_20  and  C_25
    8  A    between atoms: N_22  and  N_31
                            x       y       z     vdW  Elec       q    Type
                         _______ _______ _______ _____ _____    ______ ____

>  <TORSDO>
F 8

$$$$
