=
 OpenBabel11072409153D

 39 41  0  0  1  0  0  0  0  0999 V2000
  189.0130  174.7010  141.5870 C   0  0  0  0  0  0  0  0  0  0  0  0
  188.8420  173.2240  139.7440 C   0  0  0  0  0  3  0  0  0  0  0  0
  189.5250  172.2670  140.4240 N   0  0  0  0  0  0  0  0  0  0  0  0
  189.9770  172.4880  141.6890 C   0  0  0  0  0  0  0  0  0  0  0  0
  189.7250  173.7250  142.2930 C   0  0  0  0  0  3  0  0  0  0  0  0
  188.5940  174.4260  140.3240 N   0  0  0  0  0  0  0  0  0  0  0  0
  190.8970  169.9400  141.6920 S   0  0  0  0  0  0  0  0  0  0  0  0
  190.7090  171.4180  142.3990 C   0  0  0  0  0  0  0  0  0  0  0  0
  192.2010  171.9340  144.2900 C   0  0  0  0  0  3  0  0  0  0  0  0
  191.0410  171.6280  143.7830 N   0  0  0  0  0  0  0  0  0  0  0  0
  193.4230  172.1990  143.4770 C   0  0  0  0  0  2  0  0  0  0  0  0
  193.5030  173.6150  143.1670 N   0  0  0  0  0  2  0  0  0  0  0  0
  195.8820  173.5650  143.6620 C   0  0  0  0  0  1  0  0  0  0  0  0
  194.5360  174.1780  144.0270 C   0  0  1  0  0  3  0  0  0  0  0  0
  194.5550  175.7230  143.9670 C   0  0  1  0  0  0  0  0  0  0  0  0
  195.4180  176.1460  142.8740 N   0  0  0  0  0  1  0  0  0  0  0  0
  193.1570  176.2760  143.7070 C   0  0  0  0  0  1  0  0  0  0  0  0
  195.1130  176.3310  145.2630 C   0  0  2  0  0  3  0  0  0  0  0  0
  195.1250  175.3960  146.2840 F   0  0  0  0  0  0  0  0  0  0  0  0
  194.3890  177.4570  145.6660 O   0  0  0  0  0  1  0  0  0  0  0  0
  188.7400  175.9690  142.1260 O   0  0  0  0  0  0  0  0  0  0  0  0
  185.3700  177.5270  142.4710 C   0  0  0  0  0  0  0  0  0  0  0  0
  187.4060  176.3790  144.0450 C   0  0  0  0  0  0  0  0  0  0  0  0
  187.5330  176.3990  142.7070 C   0  0  0  0  0  0  0  0  0  0  0  0
  188.5280  175.9890  144.9170 C   0  0  0  0  0  3  0  0  0  0  0  0
  185.3020  177.5900  143.8690 O   0  0  0  0  0  0  0  0  0  0  0  0
  188.4750  176.2280  146.2290 C   0  0  0  0  0  0  0  0  0  0  0  0
  186.0710  176.7010  144.6820 C   0  0  2  0  0  3  0  0  0  0  0  0
  186.2070  177.2010  146.1000 C   0  0  0  0  0  0  0  0  0  0  0  0
  186.4230  176.9450  141.8900 C   0  0  0  0  0  3  0  0  0  0  0  0
  187.3070  176.9290  146.8160 C   0  0  0  0  0  3  0  0  0  0  0  0
  183.1430  178.2400  142.1330 O   0  0  0  0  0  1  0  0  0  0  0  0
  184.3030  178.1220  141.6580 C   0  0  0  0  0  0  0  0  0  0  0  0
  184.5600  178.5590  140.3630 O   0  0  0  0  0  0  0  0  0  0  0  0
  185.0610  177.9050  146.7500 C   0  0  0  0  0  2  0  0  0  0  0  0
  185.5360  179.1460  147.4850 C   0  0  0  0  0  1  0  0  0  0  0  0
  189.5830  175.8470  147.0450 N   0  0  0  0  0  2  0  0  0  0  0  0
  190.9340  176.3280  146.8090 C   0  0  0  0  0  2  0  0  0  0  0  0
  191.9210  175.2090  147.0680 C   0  0  0  0  0  1  0  0  0  0  0  0
  1 21  1  0  0  0  0
  1  5  1  0  0  0  0
  2  6  1  0  0  0  0
  2  3  2  0  0  0  0
  3  4  1  0  0  0  0
  4  5  2  0  0  0  0
  4  8  1  0  0  0  0
  6  1  2  0  0  0  0
  7  8  2  0  0  0  0
  8 10  1  0  0  0  0
 10  9  2  0  0  0  0
 11  9  1  0  0  0  0
 12 11  1  0  0  0  0
 12 14  1  0  0  0  0
 14 13  1  6  0  0  0
 15 17  1  6  0  0  0
 15 14  1  0  0  0  0
 15 18  1  0  0  0  0
 16 15  1  0  0  0  0
 18 20  1  1  0  0  0
 18 19  1  0  0  0  0
 21 24  1  0  0  0  0
 22 26  1  0  0  0  0
 23 28  1  0  0  0  0
 23 25  1  0  0  0  0
 24 23  2  0  0  0  0
 25 27  2  0  0  0  0
 27 31  1  0  0  0  0
 27 37  1  0  0  0  0
 28 26  1  6  0  0  0
 28 29  1  0  0  0  0
 29 35  1  0  0  0  0
 29 31  2  0  0  0  0
 30 22  2  0  0  0  0
 30 24  1  0  0  0  0
 33 32  1  0  0  0  0
 33 22  1  0  0  0  0
 34 33  2  0  0  0  0
 35 36  1  0  0  0  0
 38 37  1  0  0  0  0
 38 39  1  0  0  0  0
M  END
>  <MODEL>
1

>  <REMARK>
 VINA RESULT:      -7.1      0.000      0.000
  Name = 
  13 active torsions:
  status: ('A' for Active; 'I' for Inactive)
    1  A    between atoms: C_1  and  O_35
    2  A    between atoms: C_2  and  C_32
    3  A    between atoms: C_3  and  N_20
    4  A    between atoms: C_7  and  C_13
    5  A    between atoms: C_8  and  C_17
    6  A    between atoms: C_8  and  C_36
    7  A    between atoms: C_10  and  O_35
    8  A    between atoms: C_12  and  N_18
    9  A    between atoms: C_12  and  C_33
   10  A    between atoms: C_13  and  N_34
   11  A    between atoms: N_18  and  C_36
   12  A    between atoms: N_20  and  C_22
   13  A    between atoms: C_21  and  C_25
                            x       y       z     vdW  Elec       q    Type
                         _______ _______ _______ _____ _____    ______ ____

>  <TORSDO>
F 13

$$$$
=
 OpenBabel11072409153D

 39 41  0  0  1  0  0  0  0  0999 V2000
  188.4290  174.5940  141.4050 C   0  0  0  0  0  0  0  0  0  0  0  0
  189.2170  173.9070  139.2800 C   0  0  0  0  0  3  0  0  0  0  0  0
  190.3300  173.3720  139.8460 N   0  0  0  0  0  0  0  0  0  0  0  0
  190.5360  173.4310  141.1900 C   0  0  0  0  0  0  0  0  0  0  0  0
  189.5760  174.0530  141.9960 C   0  0  0  0  0  3  0  0  0  0  0  0
  188.2820  174.5130  140.0570 N   0  0  0  0  0  0  0  0  0  0  0  0
  193.1810  172.9010  140.9420 S   0  0  0  0  0  0  0  0  0  0  0  0
  191.7550  172.8280  141.7680 C   0  0  0  0  0  0  0  0  0  0  0  0
  191.8210  172.3230  144.1780 C   0  0  0  0  0  3  0  0  0  0  0  0
  191.6130  171.9980  142.9340 N   0  0  0  0  0  0  0  0  0  0  0  0
  192.1920  173.6950  144.6310 C   0  0  0  0  0  2  0  0  0  0  0  0
  193.6350  173.8470  144.5850 N   0  0  0  0  0  2  0  0  0  0  0  0
  192.5940  175.8960  143.7950 C   0  0  0  0  0  1  0  0  0  0  0  0
  193.9040  175.1360  143.9630 C   0  0  1  0  0  3  0  0  0  0  0  0
  194.9600  175.9460  144.7510 C   0  0  1  0  0  0  0  0  0  0  0  0
  195.6660  175.0520  145.6570 N   0  0  0  0  0  1  0  0  0  0  0  0
  195.9840  176.5700  143.8080 C   0  0  0  0  0  1  0  0  0  0  0  0
  194.3070  177.0480  145.6000 C   0  0  2  0  0  3  0  0  0  0  0  0
  195.0890  178.1910  145.6140 F   0  0  0  0  0  0  0  0  0  0  0  0
  194.0690  176.6260  146.9110 O   0  0  0  0  0  1  0  0  0  0  0  0
  187.4350  175.2470  142.1520 O   0  0  0  0  0  0  0  0  0  0  0  0
  188.7140  176.2540  145.5070 C   0  0  0  0  0  0  0  0  0  0  0  0
  186.7560  176.9850  143.6170 C   0  0  0  0  0  0  0  0  0  0  0  0
  187.6150  175.9920  143.3310 C   0  0  0  0  0  0  0  0  0  0  0  0
  185.5890  177.2600  142.7610 C   0  0  0  0  0  3  0  0  0  0  0  0
  187.7480  177.2160  145.8280 O   0  0  0  0  0  0  0  0  0  0  0  0
  184.6120  178.0610  143.1930 C   0  0  0  0  0  0  0  0  0  0  0  0
  187.0140  177.8900  144.8030 C   0  0  2  0  0  3  0  0  0  0  0  0
  185.7540  178.5300  145.3330 C   0  0  0  0  0  0  0  0  0  0  0  0
  188.6820  175.6650  144.3080 C   0  0  0  0  0  3  0  0  0  0  0  0
  184.6680  178.6440  144.5550 C   0  0  0  0  0  3  0  0  0  0  0  0
  189.6610  174.7730  147.0860 O   0  0  0  0  0  1  0  0  0  0  0  0
  189.7340  175.8820  146.4940 C   0  0  0  0  0  0  0  0  0  0  0  0
  190.7840  176.7460  146.7860 O   0  0  0  0  0  0  0  0  0  0  0  0
  185.7520  179.1460  146.6950 C   0  0  0  0  0  2  0  0  0  0  0  0
  184.6960  178.5020  147.5760 C   0  0  0  0  0  1  0  0  0  0  0  0
  183.4880  178.2990  142.3430 N   0  0  0  0  0  2  0  0  0  0  0  0
  183.5640  178.1980  140.8950 C   0  0  0  0  0  2  0  0  0  0  0  0
  182.1710  178.0330  140.3270 C   0  0  0  0  0  1  0  0  0  0  0  0
  1  5  1  0  0  0  0
  1 21  1  0  0  0  0
  2  3  2  0  0  0  0
  2  6  1  0  0  0  0
  3  4  1  0  0  0  0
  4  8  1  0  0  0  0
  4  5  2  0  0  0  0
  6  1  2  0  0  0  0
  7  8  2  0  0  0  0
  8 10  1  0  0  0  0
  9 11  1  0  0  0  0
 10  9  2  0  0  0  0
 12 11  1  0  0  0  0
 14 13  1  1  0  0  0
 14 12  1  0  0  0  0
 14 15  1  0  0  0  0
 15 17  1  6  0  0  0
 15 18  1  0  0  0  0
 15 16  1  0  0  0  0
 18 19  1  1  0  0  0
 18 20  1  0  0  0  0
 21 24  1  0  0  0  0
 22 26  1  0  0  0  0
 22 33  1  0  0  0  0
 24 23  2  0  0  0  0
 24 30  1  0  0  0  0
 25 27  2  0  0  0  0
 25 23  1  0  0  0  0
 27 31  1  0  0  0  0
 28 23  1  6  0  0  0
 28 29  1  0  0  0  0
 28 26  1  0  0  0  0
 29 35  1  0  0  0  0
 30 22  2  0  0  0  0
 31 29  2  0  0  0  0
 33 34  2  0  0  0  0
 33 32  1  0  0  0  0
 35 36  1  0  0  0  0
 37 27  1  0  0  0  0
 38 37  1  0  0  0  0
 39 38  1  0  0  0  0
M  END
>  <MODEL>
2

>  <REMARK>
 VINA RESULT:      -6.7      2.146      4.296
  Name = 
  13 active torsions:
  status: ('A' for Active; 'I' for Inactive)
    1  A    between atoms: C_1  and  O_35
    2  A    between atoms: C_2  and  C_32
    3  A    between atoms: C_3  and  N_20
    4  A    between atoms: C_7  and  C_13
    5  A    between atoms: C_8  and  C_17
    6  A    between atoms: C_8  and  C_36
    7  A    between atoms: C_10  and  O_35
    8  A    between atoms: C_12  and  N_18
    9  A    between atoms: C_12  and  C_33
   10  A    between atoms: C_13  and  N_34
   11  A    between atoms: N_18  and  C_36
   12  A    between atoms: N_20  and  C_22
   13  A    between atoms: C_21  and  C_25
                            x       y       z     vdW  Elec       q    Type
                         _______ _______ _______ _____ _____    ______ ____

>  <TORSDO>
F 13

$$$$
=
 OpenBabel11072409153D

 39 41  0  0  1  0  0  0  0  0999 V2000
  189.4910  174.3860  141.8480 C   0  0  0  0  0  0  0  0  0  0  0  0
  189.3490  172.0240  141.9340 C   0  0  0  0  0  3  0  0  0  0  0  0
  190.6110  171.9120  141.4430 N   0  0  0  0  0  0  0  0  0  0  0  0
  191.3470  173.0150  141.1340 C   0  0  0  0  0  0  0  0  0  0  0  0
  190.7880  174.2820  141.3340 C   0  0  0  0  0  3  0  0  0  0  0  0
  188.8010  173.2500  142.1300 N   0  0  0  0  0  0  0  0  0  0  0  0
  193.5600  171.4670  140.9210 S   0  0  0  0  0  0  0  0  0  0  0  0
  192.7200  172.8520  140.6100 C   0  0  0  0  0  0  0  0  0  0  0  0
  194.1550  174.8540  140.6220 C   0  0  0  0  0  3  0  0  0  0  0  0
  193.3670  174.0000  140.0340 N   0  0  0  0  0  0  0  0  0  0  0  0
  194.5950  174.7410  142.0430 C   0  0  0  0  0  2  0  0  0  0  0  0
  194.1440  175.9040  142.7850 N   0  0  0  0  0  2  0  0  0  0  0  0
  196.2270  176.8250  143.6320 C   0  0  0  0  0  1  0  0  0  0  0  0
  194.9880  176.0040  143.9680 C   0  0  1  0  0  3  0  0  0  0  0  0
  194.2140  176.5720  145.1800 C   0  0  1  0  0  0  0  0  0  0  0  0
  194.8840  177.7760  145.6510 N   0  0  0  0  0  1  0  0  0  0  0  0
  192.7880  176.9470  144.7900 C   0  0  0  0  0  1  0  0  0  0  0  0
  194.1800  175.5720  146.3470 C   0  0  2  0  0  3  0  0  0  0  0  0
  195.4330  175.0260  146.5690 F   0  0  0  0  0  0  0  0  0  0  0  0
  193.2540  174.5480  146.1300 O   0  0  0  0  0  1  0  0  0  0  0  0
  188.8630  175.6250  142.0580 O   0  0  0  0  0  0  0  0  0  0  0  0
  188.7920  176.2230  145.7380 C   0  0  0  0  0  0  0  0  0  0  0  0
  187.6850  177.2280  143.3490 C   0  0  0  0  0  0  0  0  0  0  0  0
  188.5880  176.2350  143.2950 C   0  0  0  0  0  0  0  0  0  0  0  0
  186.9230  177.6390  142.1570 C   0  0  0  0  0  3  0  0  0  0  0  0
  187.7760  177.1860  145.7810 O   0  0  0  0  0  0  0  0  0  0  0  0
  185.8540  178.4300  142.2810 C   0  0  0  0  0  0  0  0  0  0  0  0
  187.4790  177.9930  144.6400 C   0  0  2  0  0  3  0  0  0  0  0  0
  186.1120  178.6260  144.7310 C   0  0  0  0  0  0  0  0  0  0  0  0
  189.2120  175.7640  144.5550 C   0  0  0  0  0  3  0  0  0  0  0  0
  185.3960  178.8660  143.6230 C   0  0  0  0  0  3  0  0  0  0  0  0
  190.3680  176.2760  147.4960 O   0  0  0  0  0  0  0  0  0  0  0  0
  189.3680  175.7090  146.9850 C   0  0  0  0  0  0  0  0  0  0  0  0
  188.8190  174.5950  147.6120 O   0  0  0  0  0  1  0  0  0  0  0  0
  185.6000  179.0960  146.0530 C   0  0  0  0  0  2  0  0  0  0  0  0
  184.3600  178.3180  146.4600 C   0  0  0  0  0  1  0  0  0  0  0  0
  185.1310  178.8020  141.1070 N   0  0  0  0  0  2  0  0  0  0  0  0
  184.1620  177.9250  140.4710 C   0  0  0  0  0  2  0  0  0  0  0  0
  182.7800  178.2240  141.0100 C   0  0  0  0  0  1  0  0  0  0  0  0
  1 21  1  0  0  0  0
  1  6  2  0  0  0  0
  2  6  1  0  0  0  0
  3  2  2  0  0  0  0
  4  5  2  0  0  0  0
  4  3  1  0  0  0  0
  5  1  1  0  0  0  0
  8  7  2  0  0  0  0
  8  4  1  0  0  0  0
  9 11  1  0  0  0  0
 10  8  1  0  0  0  0
 10  9  2  0  0  0  0
 11 12  1  0  0  0  0
 12 14  1  0  0  0  0
 14 13  1  6  0  0  0
 14 15  1  0  0  0  0
 15 17  1  6  0  0  0
 15 16  1  0  0  0  0
 15 18  1  0  0  0  0
 18 20  1  6  0  0  0
 18 19  1  0  0  0  0
 21 24  1  0  0  0  0
 22 26  1  0  0  0  0
 22 33  1  0  0  0  0
 24 23  2  0  0  0  0
 24 30  1  0  0  0  0
 25 27  2  0  0  0  0
 25 23  1  0  0  0  0
 27 31  1  0  0  0  0
 28 23  1  6  0  0  0
 28 29  1  0  0  0  0
 28 26  1  0  0  0  0
 29 35  1  0  0  0  0
 30 22  2  0  0  0  0
 31 29  2  0  0  0  0
 33 32  2  0  0  0  0
 33 34  1  0  0  0  0
 35 36  1  0  0  0  0
 37 27  1  0  0  0  0
 38 39  1  0  0  0  0
 38 37  1  0  0  0  0
M  END
>  <MODEL>
3

>  <REMARK>
 VINA RESULT:      -6.7      2.381      4.481
  Name = 
  13 active torsions:
  status: ('A' for Active; 'I' for Inactive)
    1  A    between atoms: C_1  and  O_35
    2  A    between atoms: C_2  and  C_32
    3  A    between atoms: C_3  and  N_20
    4  A    between atoms: C_7  and  C_13
    5  A    between atoms: C_8  and  C_17
    6  A    between atoms: C_8  and  C_36
    7  A    between atoms: C_10  and  O_35
    8  A    between atoms: C_12  and  N_18
    9  A    between atoms: C_12  and  C_33
   10  A    between atoms: C_13  and  N_34
   11  A    between atoms: N_18  and  C_36
   12  A    between atoms: N_20  and  C_22
   13  A    between atoms: C_21  and  C_25
                            x       y       z     vdW  Elec       q    Type
                         _______ _______ _______ _____ _____    ______ ____

>  <TORSDO>
F 13

$$$$
=
 OpenBabel11072409153D

 39 41  0  0  1  0  0  0  0  0999 V2000
  190.2850  174.4760  141.9940 C   0  0  0  0  0  0  0  0  0  0  0  0
  189.7230  172.2720  141.3340 C   0  0  0  0  0  3  0  0  0  0  0  0
  190.9880  172.0640  140.8850 N   0  0  0  0  0  0  0  0  0  0  0  0
  191.9340  173.0400  140.9650 C   0  0  0  0  0  0  0  0  0  0  0  0
  191.5890  174.2750  141.5260 C   0  0  0  0  0  3  0  0  0  0  0  0
  189.3810  173.4680  141.8790 N   0  0  0  0  0  0  0  0  0  0  0  0
  193.5530  172.4460  138.8770 S   0  0  0  0  0  0  0  0  0  0  0  0
  193.3020  172.7720  140.4740 C   0  0  0  0  0  0  0  0  0  0  0  0
  195.2770  173.4220  141.7940 C   0  0  0  0  0  3  0  0  0  0  0  0
  194.3460  172.5820  141.4450 N   0  0  0  0  0  0  0  0  0  0  0  0
  195.3820  174.8160  141.2710 C   0  0  0  0  0  2  0  0  0  0  0  0
  194.7620  175.7340  142.2090 N   0  0  0  0  0  2  0  0  0  0  0  0
  196.5930  176.7830  143.4150 C   0  0  0  0  0  1  0  0  0  0  0  0
  195.5450  175.6770  143.4360 C   0  0  1  0  0  3  0  0  0  0  0  0
  194.6480  175.7380  144.6940 C   0  0  1  0  0  0  0  0  0  0  0  0
  195.0890  174.7250  145.6420 N   0  0  0  0  0  1  0  0  0  0  0  0
  194.7540  177.0990  145.3740 C   0  0  0  0  0  1  0  0  0  0  0  0
  193.1780  175.4480  144.3530 C   0  0  2  0  0  3  0  0  0  0  0  0
  192.3630  176.4980  144.7410 F   0  0  0  0  0  0  0  0  0  0  0  0
  192.7290  174.2630  144.9420 O   0  0  0  0  0  1  0  0  0  0  0  0
  189.8670  175.6950  142.5520 O   0  0  0  0  0  0  0  0  0  0  0  0
  186.5370  177.2640  141.9570 C   0  0  0  0  0  0  0  0  0  0  0  0
  188.0340  176.0520  144.0150 C   0  0  0  0  0  0  0  0  0  0  0  0
  188.5420  176.1140  142.7730 C   0  0  0  0  0  0  0  0  0  0  0  0
  188.8560  175.6270  145.1610 C   0  0  0  0  0  3  0  0  0  0  0  0
  186.0660  177.2810  143.2760 O   0  0  0  0  0  0  0  0  0  0  0  0
  188.4240  175.8240  146.4090 C   0  0  0  0  0  0  0  0  0  0  0  0
  186.5700  176.3620  144.2480 C   0  0  2  0  0  3  0  0  0  0  0  0
  186.2880  176.8150  145.6600 C   0  0  0  0  0  0  0  0  0  0  0  0
  187.7150  176.6930  141.6870 C   0  0  0  0  0  3  0  0  0  0  0  0
  187.1340  176.5140  146.6550 C   0  0  0  0  0  3  0  0  0  0  0  0
  186.1470  177.8300  139.6970 O   0  0  0  0  0  0  0  0  0  0  0  0
  185.7490  177.8910  140.8900 C   0  0  0  0  0  0  0  0  0  0  0  0
  184.5630  178.5560  141.1830 O   0  0  0  0  0  1  0  0  0  0  0  0
  185.0000  177.5050  145.9730 C   0  0  0  0  0  2  0  0  0  0  0  0
  185.2480  178.9380  146.4110 C   0  0  0  0  0  1  0  0  0  0  0  0
  189.2490  175.4090  147.4980 N   0  0  0  0  0  2  0  0  0  0  0  0
  190.7010  175.4090  147.4280 C   0  0  0  0  0  2  0  0  0  0  0  0
  191.2280  176.7550  147.8770 C   0  0  0  0  0  1  0  0  0  0  0  0
  1 21  1  0  0  0  0
  2  6  1  0  0  0  0
  3  4  1  0  0  0  0
  3  2  2  0  0  0  0
  4  5  2  0  0  0  0
  5  1  1  0  0  0  0
  6  1  2  0  0  0  0
  7  8  2  0  0  0  0
  8  4  1  0  0  0  0
  8 10  1  0  0  0  0
 10  9  2  0  0  0  0
 11  9  1  0  0  0  0
 11 12  1  0  0  0  0
 12 14  1  0  0  0  0
 14 13  1  1  0  0  0
 14 15  1  0  0  0  0
 15 17  1  1  0  0  0
 15 16  1  0  0  0  0
 18 15  1  0  0  0  0
 18 19  1  1  0  0  0
 18 20  1  0  0  0  0
 21 24  1  0  0  0  0
 22 26  1  0  0  0  0
 23 28  1  0  0  0  0
 23 25  1  0  0  0  0
 24 23  2  0  0  0  0
 25 27  2  0  0  0  0
 27 31  1  0  0  0  0
 27 37  1  0  0  0  0
 28 26  1  6  0  0  0
 28 29  1  0  0  0  0
 29 35  1  0  0  0  0
 29 31  2  0  0  0  0
 30 22  2  0  0  0  0
 30 24  1  0  0  0  0
 32 33  2  0  0  0  0
 33 34  1  0  0  0  0
 33 22  1  0  0  0  0
 35 36  1  0  0  0  0
 38 37  1  0  0  0  0
 38 39  1  0  0  0  0
M  END
>  <MODEL>
4

>  <REMARK>
 VINA RESULT:      -6.5      1.801      2.314
  Name = 
  13 active torsions:
  status: ('A' for Active; 'I' for Inactive)
    1  A    between atoms: C_1  and  O_35
    2  A    between atoms: C_2  and  C_32
    3  A    between atoms: C_3  and  N_20
    4  A    between atoms: C_7  and  C_13
    5  A    between atoms: C_8  and  C_17
    6  A    between atoms: C_8  and  C_36
    7  A    between atoms: C_10  and  O_35
    8  A    between atoms: C_12  and  N_18
    9  A    between atoms: C_12  and  C_33
   10  A    between atoms: C_13  and  N_34
   11  A    between atoms: N_18  and  C_36
   12  A    between atoms: N_20  and  C_22
   13  A    between atoms: C_21  and  C_25
                            x       y       z     vdW  Elec       q    Type
                         _______ _______ _______ _____ _____    ______ ____

>  <TORSDO>
F 13

$$$$
=
 OpenBabel11072409153D

 39 41  0  0  1  0  0  0  0  0999 V2000
  189.5450  174.9730  141.8380 C   0  0  0  0  0  0  0  0  0  0  0  0
  188.5540  173.5020  140.2690 C   0  0  0  0  0  3  0  0  0  0  0  0
  189.3920  172.5030  140.6490 N   0  0  0  0  0  0  0  0  0  0  0  0
  190.3290  172.6990  141.6180 C   0  0  0  0  0  0  0  0  0  0  0  0
  190.4190  173.9530  142.2310 C   0  0  0  0  0  3  0  0  0  0  0  0
  188.6370  174.7220  140.8590 N   0  0  0  0  0  0  0  0  0  0  0  0
  191.7940  170.5490  140.8630 S   0  0  0  0  0  0  0  0  0  0  0  0
  191.2160  171.5840  142.0100 C   0  0  0  0  0  0  0  0  0  0  0  0
  192.3720  171.6010  144.1860 C   0  0  0  0  0  3  0  0  0  0  0  0
  191.3690  171.2990  143.4120 N   0  0  0  0  0  0  0  0  0  0  0  0
  193.5590  172.3900  143.7420 C   0  0  0  0  0  2  0  0  0  0  0  0
  193.5020  173.7190  144.3230 N   0  0  0  0  0  2  0  0  0  0  0  0
  195.6600  173.4340  143.2410 C   0  0  0  0  0  1  0  0  0  0  0  0
  194.8330  174.2970  144.1850 C   0  0  1  0  0  3  0  0  0  0  0  0
  194.7740  175.7750  143.7360 C   0  0  1  0  0  0  0  0  0  0  0  0
  193.9660  176.5290  144.6830 N   0  0  0  0  0  1  0  0  0  0  0  0
  196.1680  176.3930  143.7080 C   0  0  0  0  0  1  0  0  0  0  0  0
  194.1220  175.9180  142.3510 C   0  0  2  0  0  3  0  0  0  0  0  0
  194.9620  176.5840  141.4750 F   0  0  0  0  0  0  0  0  0  0  0  0
  192.8930  176.5800  142.4170 O   0  0  0  0  0  1  0  0  0  0  0  0
  189.5910  176.2600  142.3990 O   0  0  0  0  0  0  0  0  0  0  0  0
  190.0130  176.5290  146.0940 C   0  0  0  0  0  0  0  0  0  0  0  0
  188.1370  177.1040  144.0720 C   0  0  0  0  0  0  0  0  0  0  0  0
  189.3400  176.6090  143.7380 C   0  0  0  0  0  0  0  0  0  0  0  0
  187.0520  177.2190  143.0820 C   0  0  0  0  0  3  0  0  0  0  0  0
  188.7200  176.9480  146.4300 O   0  0  0  0  0  0  0  0  0  0  0  0
  185.8000  177.4560  143.4790 C   0  0  0  0  0  0  0  0  0  0  0  0
  187.8940  177.6180  145.4750 C   0  0  2  0  0  3  0  0  0  0  0  0
  186.4350  177.5860  145.8640 C   0  0  0  0  0  0  0  0  0  0  0  0
  190.3410  176.3750  144.8070 C   0  0  0  0  0  3  0  0  0  0  0  0
  185.4800  177.5610  144.9240 C   0  0  0  0  0  3  0  0  0  0  0  0
  191.1140  177.0260  148.1240 O   0  0  0  0  0  1  0  0  0  0  0  0
  190.9870  176.2370  147.1520 C   0  0  0  0  0  0  0  0  0  0  0  0
  191.7760  175.0930  147.0910 O   0  0  0  0  0  0  0  0  0  0  0  0
  186.0500  177.7000  147.3030 C   0  0  0  0  0  2  0  0  0  0  0  0
  184.7370  178.4490  147.4510 C   0  0  0  0  0  1  0  0  0  0  0  0
  184.7690  177.5510  142.4950 N   0  0  0  0  0  2  0  0  0  0  0  0
  185.0000  178.0940  141.1670 C   0  0  0  0  0  2  0  0  0  0  0  0
  183.6720  178.3380  140.4830 C   0  0  0  0  0  1  0  0  0  0  0  0
  1  5  1  0  0  0  0
  1 21  1  0  0  0  0
  2  3  2  0  0  0  0
  2  6  1  0  0  0  0
  3  4  1  0  0  0  0
  4  8  1  0  0  0  0
  4  5  2  0  0  0  0
  6  1  2  0  0  0  0
  7  8  2  0  0  0  0
  8 10  1  0  0  0  0
 10  9  2  0  0  0  0
 11  9  1  0  0  0  0
 11 12  1  0  0  0  0
 14 13  1  6  0  0  0
 14 12  1  0  0  0  0
 15 17  1  6  0  0  0
 15 14  1  0  0  0  0
 15 16  1  0  0  0  0
 18 19  1  6  0  0  0
 18 20  1  0  0  0  0
 18 15  1  0  0  0  0
 21 24  1  0  0  0  0
 22 26  1  0  0  0  0
 22 33  1  0  0  0  0
 24 23  2  0  0  0  0
 24 30  1  0  0  0  0
 25 27  2  0  0  0  0
 25 23  1  0  0  0  0
 27 31  1  0  0  0  0
 28 23  1  6  0  0  0
 28 29  1  0  0  0  0
 28 26  1  0  0  0  0
 29 35  1  0  0  0  0
 30 22  2  0  0  0  0
 31 29  2  0  0  0  0
 33 32  1  0  0  0  0
 34 33  2  0  0  0  0
 35 36  1  0  0  0  0
 37 27  1  0  0  0  0
 38 37  1  0  0  0  0
 39 38  1  0  0  0  0
M  END
>  <MODEL>
5

>  <REMARK>
 VINA RESULT:      -6.5      2.261      4.294
  Name = 
  13 active torsions:
  status: ('A' for Active; 'I' for Inactive)
    1  A    between atoms: C_1  and  O_35
    2  A    between atoms: C_2  and  C_32
    3  A    between atoms: C_3  and  N_20
    4  A    between atoms: C_7  and  C_13
    5  A    between atoms: C_8  and  C_17
    6  A    between atoms: C_8  and  C_36
    7  A    between atoms: C_10  and  O_35
    8  A    between atoms: C_12  and  N_18
    9  A    between atoms: C_12  and  C_33
   10  A    between atoms: C_13  and  N_34
   11  A    between atoms: N_18  and  C_36
   12  A    between atoms: N_20  and  C_22
   13  A    between atoms: C_21  and  C_25
                            x       y       z     vdW  Elec       q    Type
                         _______ _______ _______ _____ _____    ______ ____

>  <TORSDO>
F 13

$$$$
=
 OpenBabel11072409153D

 39 41  0  0  1  0  0  0  0  0999 V2000
  190.6190  176.9350  142.6380 C   0  0  0  0  0  0  0  0  0  0  0  0
  192.9300  176.4440  142.8060 C   0  0  0  0  0  3  0  0  0  0  0  0
  192.6860  175.1280  142.5740 N   0  0  0  0  0  0  0  0  0  0  0  0
  191.4200  174.6710  142.3750 C   0  0  0  0  0  0  0  0  0  0  0  0
  190.3570  175.5800  142.4060 C   0  0  0  0  0  3  0  0  0  0  0  0
  191.9040  177.3320  142.8390 N   0  0  0  0  0  0  0  0  0  0  0  0
  191.2010  172.6650  140.5670 S   0  0  0  0  0  0  0  0  0  0  0  0
  191.1960  173.2330  142.1160 C   0  0  0  0  0  0  0  0  0  0  0  0
  191.4890  171.7950  144.0950 C   0  0  0  0  0  3  0  0  0  0  0  0
  190.7560  172.4070  143.2090 N   0  0  0  0  0  0  0  0  0  0  0  0
  192.9750  171.9070  144.1690 C   0  0  0  0  0  2  0  0  0  0  0  0
  193.3340  173.0280  145.0170 N   0  0  0  0  0  2  0  0  0  0  0  0
  195.0600  171.3240  145.1710 C   0  0  0  0  0  1  0  0  0  0  0  0
  194.6510  172.7360  145.5680 C   0  0  1  0  0  3  0  0  0  0  0  0
  195.6980  173.7940  145.1470 C   0  0  1  0  0  0  0  0  0  0  0  0
  196.8280  173.7350  146.0620 N   0  0  0  0  0  1  0  0  0  0  0  0
  196.2150  173.5190  143.7380 C   0  0  0  0  0  1  0  0  0  0  0  0
  195.1200  175.2170  145.2120 C   0  0  2  0  0  3  0  0  0  0  0  0
  195.9740  176.1260  144.6100 F   0  0  0  0  0  0  0  0  0  0  0  0
  194.8590  175.6150  146.5260 O   0  0  0  0  0  1  0  0  0  0  0  0
  189.6000  177.8980  142.6990 O   0  0  0  0  0  0  0  0  0  0  0  0
  185.8770  177.8720  142.4850 C   0  0  0  0  0  0  0  0  0  0  0  0
  187.9530  177.3580  144.3200 C   0  0  0  0  0  0  0  0  0  0  0  0
  188.2550  177.6860  143.0520 C   0  0  0  0  0  0  0  0  0  0  0  0
  188.9920  177.2910  145.3630 C   0  0  0  0  0  3  0  0  0  0  0  0
  185.5840  177.6300  143.8330 O   0  0  0  0  0  0  0  0  0  0  0  0
  188.6480  177.2300  146.6520 C   0  0  0  0  0  0  0  0  0  0  0  0
  186.5320  176.9860  144.6870 C   0  0  2  0  0  3  0  0  0  0  0  0
  186.2280  177.2140  146.1480 C   0  0  0  0  0  0  0  0  0  0  0  0
  187.1510  177.8860  142.0820 C   0  0  0  0  0  3  0  0  0  0  0  0
  187.2190  177.2750  147.0490 C   0  0  0  0  0  3  0  0  0  0  0  0
  185.0380  178.2020  140.3010 O   0  0  0  0  0  0  0  0  0  0  0  0
  184.7910  178.1320  141.5340 C   0  0  0  0  0  0  0  0  0  0  0  0
  183.4850  178.3050  141.9800 O   0  0  0  0  0  1  0  0  0  0  0  0
  184.8090  177.2570  146.6110 C   0  0  0  0  0  2  0  0  0  0  0  0
  184.4320  178.6560  147.0670 C   0  0  0  0  0  1  0  0  0  0  0  0
  189.6780  177.1760  147.6390 N   0  0  0  0  0  2  0  0  0  0  0  0
  191.0270  176.7240  147.3430 C   0  0  0  0  0  2  0  0  0  0  0  0
  191.1720  175.2710  147.7440 C   0  0  0  0  0  1  0  0  0  0  0  0
  1 21  1  0  0  0  0
  1  6  2  0  0  0  0
  2  6  1  0  0  0  0
  3  2  2  0  0  0  0
  4  5  2  0  0  0  0
  4  3  1  0  0  0  0
  5  1  1  0  0  0  0
  7  8  2  0  0  0  0
  8  4  1  0  0  0  0
  8 10  1  0  0  0  0
  9 11  1  0  0  0  0
 10  9  2  0  0  0  0
 11 12  1  0  0  0  0
 12 14  1  0  0  0  0
 14 13  1  6  0  0  0
 15 17  1  6  0  0  0
 15 18  1  0  0  0  0
 15 14  1  0  0  0  0
 15 16  1  0  0  0  0
 18 19  1  1  0  0  0
 18 20  1  0  0  0  0
 21 24  1  0  0  0  0
 22 26  1  0  0  0  0
 23 28  1  0  0  0  0
 23 25  1  0  0  0  0
 24 23  2  0  0  0  0
 25 27  2  0  0  0  0
 27 31  1  0  0  0  0
 27 37  1  0  0  0  0
 28 26  1  6  0  0  0
 28 29  1  0  0  0  0
 29 35  1  0  0  0  0
 29 31  2  0  0  0  0
 30 22  2  0  0  0  0
 30 24  1  0  0  0  0
 32 33  2  0  0  0  0
 33 34  1  0  0  0  0
 33 22  1  0  0  0  0
 35 36  1  0  0  0  0
 38 37  1  0  0  0  0
 38 39  1  0  0  0  0
M  END
>  <MODEL>
6

>  <REMARK>
 VINA RESULT:      -6.4      1.686      2.363
  Name = 
  13 active torsions:
  status: ('A' for Active; 'I' for Inactive)
    1  A    between atoms: C_1  and  O_35
    2  A    between atoms: C_2  and  C_32
    3  A    between atoms: C_3  and  N_20
    4  A    between atoms: C_7  and  C_13
    5  A    between atoms: C_8  and  C_17
    6  A    between atoms: C_8  and  C_36
    7  A    between atoms: C_10  and  O_35
    8  A    between atoms: C_12  and  N_18
    9  A    between atoms: C_12  and  C_33
   10  A    between atoms: C_13  and  N_34
   11  A    between atoms: N_18  and  C_36
   12  A    between atoms: N_20  and  C_22
   13  A    between atoms: C_21  and  C_25
                            x       y       z     vdW  Elec       q    Type
                         _______ _______ _______ _____ _____    ______ ____

>  <TORSDO>
F 13

$$$$
=
 OpenBabel11072409153D

 39 41  0  0  1  0  0  0  0  0999 V2000
  192.0420  177.2140  143.3830 C   0  0  0  0  0  0  0  0  0  0  0  0
  193.5520  176.3100  144.9690 C   0  0  0  0  0  3  0  0  0  0  0  0
  194.1360  175.5510  144.0060 N   0  0  0  0  0  0  0  0  0  0  0  0
  193.6990  175.5870  142.7170 C   0  0  0  0  0  0  0  0  0  0  0  0
  192.6320  176.4290  142.3860 C   0  0  0  0  0  3  0  0  0  0  0  0
  192.5160  177.1290  144.6540 N   0  0  0  0  0  0  0  0  0  0  0  0
  194.9470  175.4450  140.3170 S   0  0  0  0  0  0  0  0  0  0  0  0
  194.3670  174.7520  141.6970 C   0  0  0  0  0  0  0  0  0  0  0  0
  193.4640  172.5030  141.2520 C   0  0  0  0  0  3  0  0  0  0  0  0
  194.2920  173.3220  141.8360 N   0  0  0  0  0  0  0  0  0  0  0  0
  192.4490  172.9230  140.2420 C   0  0  0  0  0  2  0  0  0  0  0  0
  191.1680  172.3240  140.5640 N   0  0  0  0  0  2  0  0  0  0  0  0
  189.4220  173.6540  139.5190 C   0  0  0  0  0  1  0  0  0  0  0  0
  190.2330  173.4200  140.7870 C   0  0  1  0  0  3  0  0  0  0  0  0
  189.3380  173.1690  142.0230 C   0  0  1  0  0  0  0  0  0  0  0  0
  189.4820  171.7830  142.4430 N   0  0  0  0  0  1  0  0  0  0  0  0
  189.7540  174.0610  143.1890 C   0  0  0  0  0  1  0  0  0  0  0  0
  187.8540  173.4050  141.7020 C   0  0  2  0  0  3  0  0  0  0  0  0
  187.3720  174.5160  142.3740 F   0  0  0  0  0  0  0  0  0  0  0  0
  187.0680  172.2920  142.0100 O   0  0  0  0  0  1  0  0  0  0  0  0
  190.9580  178.0670  143.1250 O   0  0  0  0  0  0  0  0  0  0  0  0
  187.3780  177.6900  142.1500 C   0  0  0  0  0  0  0  0  0  0  0  0
  189.0570  177.4440  144.4000 C   0  0  0  0  0  0  0  0  0  0  0  0
  189.5910  177.7460  143.2050 C   0  0  0  0  0  0  0  0  0  0  0  0
  189.8540  177.5140  145.6370 C   0  0  0  0  0  3  0  0  0  0  0  0
  186.8290  177.4760  143.4200 O   0  0  0  0  0  0  0  0  0  0  0  0
  189.2530  177.4720  146.8280 C   0  0  0  0  0  0  0  0  0  0  0  0
  187.6260  176.9570  144.4870 C   0  0  2  0  0  3  0  0  0  0  0  0
  187.0040  177.2140  145.8380 C   0  0  0  0  0  0  0  0  0  0  0  0
  188.7030  177.8060  142.0180 C   0  0  0  0  0  3  0  0  0  0  0  0
  187.7750  177.4010  146.9190 C   0  0  0  0  0  3  0  0  0  0  0  0
  186.9570  177.6100  139.8270 O   0  0  0  0  0  0  0  0  0  0  0  0
  186.4990  177.8120  140.9820 C   0  0  0  0  0  0  0  0  0  0  0  0
  185.1590  178.1490  141.1370 O   0  0  0  0  0  1  0  0  0  0  0  0
  185.5200  177.1450  145.9960 C   0  0  0  0  0  2  0  0  0  0  0  0
  185.0130  178.2980  146.8450 C   0  0  0  0  0  1  0  0  0  0  0  0
  190.0540  177.5530  148.0080 N   0  0  0  0  0  2  0  0  0  0  0  0
  191.3450  176.8960  148.1280 C   0  0  0  0  0  2  0  0  0  0  0  0
  191.1620  175.3980  148.0110 C   0  0  0  0  0  1  0  0  0  0  0  0
  1  6  2  0  0  0  0
  3  2  2  0  0  0  0
  4  3  1  0  0  0  0
  5  4  2  0  0  0  0
  5  1  1  0  0  0  0
  6  2  1  0  0  0  0
  7  8  2  0  0  0  0
  8 10  1  0  0  0  0
  8  4  1  0  0  0  0
  9 10  2  0  0  0  0
 11 12  1  0  0  0  0
 11  9  1  0  0  0  0
 12 14  1  0  0  0  0
 14 13  1  6  0  0  0
 14 15  1  0  0  0  0
 15 16  1  0  0  0  0
 15 17  1  1  0  0  0
 18 20  1  1  0  0  0
 18 15  1  0  0  0  0
 18 19  1  0  0  0  0
 21 24  1  0  0  0  0
 21  1  1  0  0  0  0
 22 26  1  0  0  0  0
 23 28  1  0  0  0  0
 23 25  1  0  0  0  0
 24 23  2  0  0  0  0
 25 27  2  0  0  0  0
 27 31  1  0  0  0  0
 27 37  1  0  0  0  0
 28 26  1  6  0  0  0
 28 29  1  0  0  0  0
 29 35  1  0  0  0  0
 29 31  2  0  0  0  0
 30 22  2  0  0  0  0
 30 24  1  0  0  0  0
 32 33  2  0  0  0  0
 33 34  1  0  0  0  0
 33 22  1  0  0  0  0
 35 36  1  0  0  0  0
 37 38  1  0  0  0  0
 39 38  1  0  0  0  0
M  END
>  <MODEL>
7

>  <REMARK>
 VINA RESULT:      -6.4      2.572      4.681
  Name = 
  13 active torsions:
  status: ('A' for Active; 'I' for Inactive)
    1  A    between atoms: C_1  and  O_35
    2  A    between atoms: C_2  and  C_32
    3  A    between atoms: C_3  and  N_20
    4  A    between atoms: C_7  and  C_13
    5  A    between atoms: C_8  and  C_17
    6  A    between atoms: C_8  and  C_36
    7  A    between atoms: C_10  and  O_35
    8  A    between atoms: C_12  and  N_18
    9  A    between atoms: C_12  and  C_33
   10  A    between atoms: C_13  and  N_34
   11  A    between atoms: N_18  and  C_36
   12  A    between atoms: N_20  and  C_22
   13  A    between atoms: C_21  and  C_25
                            x       y       z     vdW  Elec       q    Type
                         _______ _______ _______ _____ _____    ______ ____

>  <TORSDO>
F 13

$$$$
=
 OpenBabel11072409153D

 39 41  0  0  1  0  0  0  0  0999 V2000
  190.8780  173.4640  143.8960 C   0  0  0  0  0  0  0  0  0  0  0  0
  192.0150  171.4160  144.2450 C   0  0  0  0  0  3  0  0  0  0  0  0
  193.2070  172.0130  143.9850 N   0  0  0  0  0  0  0  0  0  0  0  0
  193.2800  173.3350  143.6690 C   0  0  0  0  0  0  0  0  0  0  0  0
  192.1000  174.0860  143.6180 C   0  0  0  0  0  3  0  0  0  0  0  0
  190.8670  172.1390  144.1970 N   0  0  0  0  0  0  0  0  0  0  0  0
  195.0610  174.2590  141.8490 S   0  0  0  0  0  0  0  0  0  0  0  0
  194.5970  173.9500  143.4010 C   0  0  0  0  0  0  0  0  0  0  0  0
  195.5810  174.9690  145.4170 C   0  0  0  0  0  3  0  0  0  0  0  0
  195.5300  174.0550  144.4910 N   0  0  0  0  0  0  0  0  0  0  0  0
  194.5910  176.0780  145.5490 C   0  0  0  0  0  2  0  0  0  0  0  0
  193.5680  175.7030  146.5070 N   0  0  0  0  0  2  0  0  0  0  0  0
  192.1040  177.0860  145.1460 C   0  0  0  0  0  1  0  0  0  0  0  0
  192.6110  176.8010  146.5540 C   0  0  1  0  0  3  0  0  0  0  0  0
  191.4620  176.5190  147.5500 C   0  0  1  0  0  0  0  0  0  0  0  0
  191.5650  175.1460  148.0200 N   0  0  0  0  0  1  0  0  0  0  0  0
  191.5520  177.4410  148.7620 C   0  0  0  0  0  1  0  0  0  0  0  0
  190.0860  176.6810  146.8840 C   0  0  2  0  0  3  0  0  0  0  0  0
  189.4930  177.8760  147.2550 F   0  0  0  0  0  0  0  0  0  0  0  0
  189.2300  175.6180  147.1870 O   0  0  0  0  0  1  0  0  0  0  0  0
  189.6550  174.1530  143.8460 O   0  0  0  0  0  0  0  0  0  0  0  0
  188.6540  174.4000  140.2630 C   0  0  0  0  0  0  0  0  0  0  0  0
  188.0560  175.5370  142.7710 C   0  0  0  0  0  0  0  0  0  0  0  0
  188.9420  174.5300  142.6940 C   0  0  0  0  0  0  0  0  0  0  0  0
  187.8710  176.3030  144.0160 C   0  0  0  0  0  3  0  0  0  0  0  0
  187.8120  175.5150  140.3490 O   0  0  0  0  0  0  0  0  0  0  0  0
  187.1950  177.4540  144.0030 C   0  0  0  0  0  0  0  0  0  0  0  0
  187.1770  175.8630  141.5820 C   0  0  2  0  0  3  0  0  0  0  0  0
  186.6940  177.2930  141.5890 C   0  0  0  0  0  0  0  0  0  0  0  0
  189.1950  173.8970  141.3760 C   0  0  0  0  0  3  0  0  0  0  0  0
  186.6630  177.9970  142.7300 C   0  0  0  0  0  3  0  0  0  0  0  0
  188.1750  173.9960  137.9850 O   0  0  0  0  0  0  0  0  0  0  0  0
  188.9560  173.8090  138.9540 C   0  0  0  0  0  0  0  0  0  0  0  0
  190.1010  173.0410  138.7710 O   0  0  0  0  0  1  0  0  0  0  0  0
  186.1360  177.8930  140.3390 C   0  0  0  0  0  2  0  0  0  0  0  0
  184.6860  178.2970  140.5350 C   0  0  0  0  0  1  0  0  0  0  0  0
  187.0420  178.1780  145.2250 N   0  0  0  0  0  2  0  0  0  0  0  0
  185.7420  178.4850  145.7980 C   0  0  0  0  0  2  0  0  0  0  0  0
  185.2030  177.2640  146.5130 C   0  0  0  0  0  1  0  0  0  0  0  0
  1  6  2  0  0  0  0
  3  2  2  0  0  0  0
  4  3  1  0  0  0  0
  5  4  2  0  0  0  0
  5  1  1  0  0  0  0
  6  2  1  0  0  0  0
  7  8  2  0  0  0  0
  8  4  1  0  0  0  0
  8 10  1  0  0  0  0
  9 11  1  0  0  0  0
 10  9  2  0  0  0  0
 11 12  1  0  0  0  0
 12 14  1  0  0  0  0
 14 13  1  6  0  0  0
 14 15  1  0  0  0  0
 15 16  1  0  0  0  0
 15 17  1  1  0  0  0
 18 20  1  1  0  0  0
 18 19  1  0  0  0  0
 18 15  1  0  0  0  0
 21  1  1  0  0  0  0
 22 26  1  0  0  0  0
 22 30  2  0  0  0  0
 23 25  1  0  0  0  0
 24 23  2  0  0  0  0
 24 21  1  0  0  0  0
 27 25  2  0  0  0  0
 27 37  1  0  0  0  0
 28 26  1  6  0  0  0
 28 29  1  0  0  0  0
 28 23  1  0  0  0  0
 29 31  2  0  0  0  0
 30 24  1  0  0  0  0
 31 27  1  0  0  0  0
 32 33  2  0  0  0  0
 33 22  1  0  0  0  0
 34 33  1  0  0  0  0
 35 36  1  0  0  0  0
 35 29  1  0  0  0  0
 37 38  1  0  0  0  0
 38 39  1  0  0  0  0
M  END
>  <MODEL>
8

>  <REMARK>
 VINA RESULT:      -6.3      2.727      5.073
  Name = 
  13 active torsions:
  status: ('A' for Active; 'I' for Inactive)
    1  A    between atoms: C_1  and  O_35
    2  A    between atoms: C_2  and  C_32
    3  A    between atoms: C_3  and  N_20
    4  A    between atoms: C_7  and  C_13
    5  A    between atoms: C_8  and  C_17
    6  A    between atoms: C_8  and  C_36
    7  A    between atoms: C_10  and  O_35
    8  A    between atoms: C_12  and  N_18
    9  A    between atoms: C_12  and  C_33
   10  A    between atoms: C_13  and  N_34
   11  A    between atoms: N_18  and  C_36
   12  A    between atoms: N_20  and  C_22
   13  A    between atoms: C_21  and  C_25
                            x       y       z     vdW  Elec       q    Type
                         _______ _______ _______ _____ _____    ______ ____

>  <TORSDO>
F 13

$$$$
=
 OpenBabel11072409153D

 39 41  0  0  1  0  0  0  0  0999 V2000
  189.9280  174.3580  141.9450 C   0  0  0  0  0  0  0  0  0  0  0  0
  189.5580  172.4370  140.6100 C   0  0  0  0  0  3  0  0  0  0  0  0
  190.4240  171.7190  141.3720 N   0  0  0  0  0  0  0  0  0  0  0  0
  191.0690  172.2850  142.4280 C   0  0  0  0  0  0  0  0  0  0  0  0
  190.8270  173.6300  142.7300 C   0  0  0  0  0  3  0  0  0  0  0  0
  189.3190  173.7420  140.8970 N   0  0  0  0  0  0  0  0  0  0  0  0
  192.2800  169.8950  142.8290 S   0  0  0  0  0  0  0  0  0  0  0  0
  191.9970  171.4680  143.2390 C   0  0  0  0  0  0  0  0  0  0  0  0
  193.5770  172.6070  144.7460 C   0  0  0  0  0  3  0  0  0  0  0  0
  192.4520  172.0030  144.4940 N   0  0  0  0  0  0  0  0  0  0  0  0
  194.6040  172.9230  143.7100 C   0  0  0  0  0  2  0  0  0  0  0  0
  195.4870  173.9630  144.2040 N   0  0  0  0  0  2  0  0  0  0  0  0
  194.4990  176.1760  144.3910 C   0  0  0  0  0  1  0  0  0  0  0  0
  195.1700  175.1750  143.4590 C   0  0  1  0  0  3  0  0  0  0  0  0
  196.4180  175.7630  142.7600 C   0  0  1  0  0  0  0  0  0  0  0  0
  196.7900  177.0060  143.4180 N   0  0  0  0  0  1  0  0  0  0  0  0
  197.6010  174.8040  142.8580 C   0  0  0  0  0  1  0  0  0  0  0  0
  196.1390  176.0830  141.2830 C   0  0  2  0  0  3  0  0  0  0  0  0
  195.1010  176.9910  141.1610 F   0  0  0  0  0  0  0  0  0  0  0  0
  195.8460  174.9330  140.5450 O   0  0  0  0  0  1  0  0  0  0  0  0
  189.6510  175.7140  142.1810 O   0  0  0  0  0  0  0  0  0  0  0  0
  186.3390  177.3780  141.7640 C   0  0  0  0  0  0  0  0  0  0  0  0
  188.1140  176.5420  143.7880 C   0  0  0  0  0  0  0  0  0  0  0  0
  188.4040  176.2800  142.5020 C   0  0  0  0  0  0  0  0  0  0  0  0
  189.1020  176.3200  144.8580 C   0  0  0  0  0  3  0  0  0  0  0  0
  186.1040  177.7310  143.0990 O   0  0  0  0  0  0  0  0  0  0  0  0
  188.9000  176.8280  146.0760 C   0  0  0  0  0  0  0  0  0  0  0  0
  186.7270  177.0160  144.1690 C   0  0  2  0  0  3  0  0  0  0  0  0
  186.7120  177.7980  145.4600 C   0  0  0  0  0  0  0  0  0  0  0  0
  187.4270  176.6660  141.4540 C   0  0  0  0  0  3  0  0  0  0  0  0
  187.7040  177.6600  146.3520 C   0  0  0  0  0  3  0  0  0  0  0  0
  185.6350  177.5180  139.5140 O   0  0  0  0  0  0  0  0  0  0  0  0
  185.4080  177.8110  140.7170 C   0  0  0  0  0  0  0  0  0  0  0  0
  184.2720  178.5460  141.0390 O   0  0  0  0  0  1  0  0  0  0  0  0
  185.5290  178.6440  145.8000 C   0  0  0  0  0  2  0  0  0  0  0  0
  184.4560  177.8200  146.4890 C   0  0  0  0  0  1  0  0  0  0  0  0
  189.8820  176.6030  147.0890 N   0  0  0  0  0  2  0  0  0  0  0  0
  190.3980  175.2820  147.4020 C   0  0  0  0  0  2  0  0  0  0  0  0
  191.9050  175.2800  147.2580 C   0  0  0  0  0  1  0  0  0  0  0  0
  1 21  1  0  0  0  0
  1  5  1  0  0  0  0
  2  6  1  0  0  0  0
  2  3  2  0  0  0  0
  3  4  1  0  0  0  0
  4  5  2  0  0  0  0
  4  8  1  0  0  0  0
  6  1  2  0  0  0  0
  7  8  2  0  0  0  0
  8 10  1  0  0  0  0
 10  9  2  0  0  0  0
 11 12  1  0  0  0  0
 11  9  1  0  0  0  0
 14 12  1  0  0  0  0
 14 13  1  1  0  0  0
 15 17  1  1  0  0  0
 15 16  1  0  0  0  0
 15 14  1  0  0  0  0
 18 20  1  6  0  0  0
 18 15  1  0  0  0  0
 19 18  1  0  0  0  0
 21 24  1  0  0  0  0
 22 26  1  0  0  0  0
 23 28  1  0  0  0  0
 23 25  1  0  0  0  0
 24 23  2  0  0  0  0
 25 27  2  0  0  0  0
 27 31  1  0  0  0  0
 27 37  1  0  0  0  0
 28 26  1  6  0  0  0
 28 29  1  0  0  0  0
 29 35  1  0  0  0  0
 29 31  2  0  0  0  0
 30 22  2  0  0  0  0
 30 24  1  0  0  0  0
 32 33  2  0  0  0  0
 33 34  1  0  0  0  0
 33 22  1  0  0  0  0
 35 36  1  0  0  0  0
 37 38  1  0  0  0  0
 39 38  1  0  0  0  0
M  END
>  <MODEL>
9

>  <REMARK>
 VINA RESULT:      -6.2      1.826      2.170
  Name = 
  13 active torsions:
  status: ('A' for Active; 'I' for Inactive)
    1  A    between atoms: C_1  and  O_35
    2  A    between atoms: C_2  and  C_32
    3  A    between atoms: C_3  and  N_20
    4  A    between atoms: C_7  and  C_13
    5  A    between atoms: C_8  and  C_17
    6  A    between atoms: C_8  and  C_36
    7  A    between atoms: C_10  and  O_35
    8  A    between atoms: C_12  and  N_18
    9  A    between atoms: C_12  and  C_33
   10  A    between atoms: C_13  and  N_34
   11  A    between atoms: N_18  and  C_36
   12  A    between atoms: N_20  and  C_22
   13  A    between atoms: C_21  and  C_25
                            x       y       z     vdW  Elec       q    Type
                         _______ _______ _______ _____ _____    ______ ____

>  <TORSDO>
F 13

$$$$
