=
 OpenBabel11062421033D

 38 39  0  0  1  0  0  0  0  0999 V2000
  192.5100  175.1180  145.2220 C   0  0  2  0  0  3  0  0  0  0  0  0
  191.3240  174.4700  144.4880 C   0  0  2  0  0  3  0  0  0  0  0  0
  190.7780  176.5170  147.9640 O   0  0  0  0  0  0  0  0  0  0  0  0
  190.9340  175.6770  147.0890 C   0  0  0  0  0  0  0  0  0  0  0  0
  189.9670  175.0450  144.9010 C   0  0  0  0  0  2  0  0  0  0  0  0
  192.9150  174.1240  142.2960 O   0  0  0  0  0  0  0  0  0  0  0  0
  193.0940  172.3550  143.9990 C   0  0  2  0  0  3  0  0  0  0  0  0
  191.3520  172.6410  144.5310 S   0  0  0  0  0  0  0  0  0  0  0  0
  192.3160  175.2170  146.7410 C   0  0  0  0  0  2  0  0  0  0  0  0
  193.0620  176.3800  143.0560 C   0  0  0  0  0  2  0  0  0  0  0  0
  194.1010  172.5750  145.1090 C   0  0  0  0  0  1  0  0  0  0  0  0
  193.5670  172.9370  142.6570 C   0  0  1  0  0  3  0  0  0  0  0  0
  189.7630  175.0110  146.4150 C   0  0  2  0  0  3  0  0  0  0  0  0
  194.2390  176.8480  145.1410 N   0  0  0  0  0  1  0  0  0  0  0  0
  192.9570  176.4400  144.5880 C   0  0  2  0  0  3  0  0  0  0  0  0
  193.8260  175.1620  142.5390 C   0  0  2  0  0  3  0  0  0  0  0  0
  192.3920  171.2090  141.4880 O   0  0  0  0  0  1  0  0  0  0  0  0
  194.4660  171.7460  140.6620 O   0  0  0  0  0  0  0  0  0  0  0  0
  193.4290  171.9220  141.5710 C   0  0  0  0  0  0  0  0  0  0  0  0
  188.4380  175.6770  146.7780 C   0  0  0  0  0  2  0  0  0  0  0  0
  187.7900  176.3090  145.5570 C   0  0  0  0  0  2  0  0  0  0  0  0
  187.2020  177.6640  145.9060 C   0  0  0  0  0  2  0  0  0  0  0  0
  185.7120  177.5310  146.1770 C   0  0  2  0  0  3  0  0  0  0  0  0
  184.9220  178.4550  145.2990 C   0  0  0  0  0  0  0  0  0  0  0  0
  183.7570  178.7170  145.5670 O   0  0  0  0  0  0  0  0  0  0  0  0
  185.5210  180.4300  144.1380 O   0  0  0  0  0  1  0  0  0  0  0  0
  185.5710  179.0360  144.0850 C   0  0  2  0  0  3  0  0  0  0  0  0
  184.8810  178.5360  142.8250 C   0  0  0  0  0  2  0  0  0  0  0  0
  185.8860  177.9140  141.8710 C   0  0  0  0  0  2  0  0  0  0  0  0
  188.2090  176.2710  141.6980 O   0  0  0  0  0  0  0  0  0  0  0  0
  188.3480  177.4370  142.1520 C   0  0  0  0  0  0  0  0  0  0  0  0
  189.6830  177.8970  142.6120 C   0  0  0  0  0  1  0  0  0  0  0  0
  187.2330  178.3240  142.2390 N   0  0  0  0  0  2  0  0  0  0  0  0
  185.4460  177.8050  147.5210 O   0  0  0  0  0  0  0  0  0  0  0  0
  186.3920  178.7650  147.8810 C   0  0  0  0  0  1  0  0  0  0  0  0
  194.4670  175.5030  141.3450 O   0  0  0  0  0  0  0  0  0  0  0  0
  195.4280  176.4480  141.7100 C   0  0  0  0  0  2  0  0  0  0  0  0
  196.5150  175.8030  142.3010 O   0  0  0  0  0  1  0  0  0  0  0  0
  1  9  1  1  0  0  0
  2  8  1  0  0  0  0
  2  5  1  1  0  0  0
  2  1  1  0  0  0  0
  4  3  2  0  0  0  0
  5 13  1  0  0  0  0
  6 16  1  0  0  0  0
  6 12  1  0  0  0  0
  7  8  1  0  0  0  0
  7 11  1  1  0  0  0
  9  4  1  0  0  0  0
 10 15  1  0  0  0  0
 12 19  1  6  0  0  0
 12  7  1  0  0  0  0
 13 20  1  6  0  0  0
 13  4  1  0  0  0  0
 15 14  1  1  0  0  0
 15  1  1  0  0  0  0
 16 36  1  6  0  0  0
 16 10  1  0  0  0  0
 17 19  1  0  0  0  0
 18 19  2  0  0  0  0
 21 22  1  0  0  0  0
 21 20  1  0  0  0  0
 23 22  1  1  0  0  0
 23 34  1  0  0  0  0
 24 25  2  0  0  0  0
 24 23  1  0  0  0  0
 27 26  1  1  0  0  0
 27 24  1  0  0  0  0
 28 27  1  0  0  0  0
 29 33  1  0  0  0  0
 29 28  1  0  0  0  0
 30 31  2  0  0  0  0
 31 33  1  0  0  0  0
 31 32  1  0  0  0  0
 34 35  1  0  0  0  0
 36 37  1  0  0  0  0
 37 38  1  0  0  0  0
M  END
>  <MODEL>
1

>  <REMARK>
 VINA RESULT:      -6.6      0.000      0.000
  Name = 
  13 active torsions:
  status: ('A' for Active; 'I' for Inactive)
    1  A    between atoms: C_4  and  C_26
    2  A    between atoms: C_4  and  C_29
    3  A    between atoms: C_9  and  C_29
    4  A    between atoms: C_9  and  C_30
    5  A    between atoms: C_10  and  O_33
    6  A    between atoms: C_14  and  C_26
    7  A    between atoms: C_14  and  C_37
    8  A    between atoms: C_20  and  N_23
    9  A    between atoms: C_20  and  C_31
   10  A    between atoms: C_22  and  C_28
   11  A    between atoms: C_26  and  O_32
   12  A    between atoms: C_31  and  C_37
   13  A    between atoms: O_33  and  C_38
                            x       y       z     vdW  Elec       q    Type
                         _______ _______ _______ _____ _____    ______ ____

>  <TORSDO>
F 13

$$$$
=
 OpenBabel11062421033D

 38 39  0  0  1  0  0  0  0  0999 V2000
  193.2550  175.2360  144.8930 C   0  0  2  0  0  3  0  0  0  0  0  0
  192.4350  176.0280  143.8610 C   0  0  2  0  0  3  0  0  0  0  0  0
  191.0410  175.4270  147.6380 O   0  0  0  0  0  0  0  0  0  0  0  0
  191.2910  175.3920  146.4410 C   0  0  0  0  0  0  0  0  0  0  0  0
  191.3570  176.9140  144.4920 C   0  0  0  0  0  2  0  0  0  0  0  0
  194.6450  176.1700  142.2640 O   0  0  0  0  0  0  0  0  0  0  0  0
  193.3280  174.1040  142.0330 C   0  0  2  0  0  3  0  0  0  0  0  0
  191.7830  174.9930  142.5000 S   0  0  0  0  0  0  0  0  0  0  0  0
  192.3970  174.5150  145.9410 C   0  0  0  0  0  2  0  0  0  0  0  0
  195.2000  176.8600  144.4800 C   0  0  0  0  0  2  0  0  0  0  0  0
  193.6700  172.9660  142.9730 C   0  0  0  0  0  1  0  0  0  0  0  0
  194.5650  174.9220  141.6320 C   0  0  1  0  0  3  0  0  0  0  0  0
  190.4460  176.1300  145.4360 C   0  0  2  0  0  3  0  0  0  0  0  0
  195.2920  175.1840  146.2490 N   0  0  0  0  0  1  0  0  0  0  0  0
  194.3930  176.0570  145.5110 C   0  0  2  0  0  3  0  0  0  0  0  0
  195.6250  176.0440  143.2600 C   0  0  2  0  0  3  0  0  0  0  0  0
  195.6730  175.5070  139.5910 O   0  0  0  0  0  1  0  0  0  0  0  0
  193.4940  174.8130  139.3850 O   0  0  0  0  0  0  0  0  0  0  0  0
  194.6210  175.0910  140.1490 C   0  0  0  0  0  0  0  0  0  0  0  0
  189.4520  177.0740  146.1050 C   0  0  0  0  0  2  0  0  0  0  0  0
  188.4960  177.6740  145.0860 C   0  0  0  0  0  2  0  0  0  0  0  0
  187.6170  176.5960  144.4790 C   0  0  0  0  0  2  0  0  0  0  0  0
  187.5110  176.7960  142.9760 C   0  0  2  0  0  3  0  0  0  0  0  0
  186.5950  177.9380  142.6500 C   0  0  0  0  0  0  0  0  0  0  0  0
  186.9820  178.8600  141.9450 O   0  0  0  0  0  0  0  0  0  0  0  0
  184.2770  177.7900  142.1840 O   0  0  0  0  0  1  0  0  0  0  0  0
  185.2100  177.9420  143.2120 C   0  0  2  0  0  3  0  0  0  0  0  0
  184.9480  179.2370  143.9670 C   0  0  0  0  0  2  0  0  0  0  0  0
  184.0430  178.9900  145.1620 C   0  0  0  0  0  2  0  0  0  0  0  0
  185.7570  179.3790  147.4050 O   0  0  0  0  0  0  0  0  0  0  0  0
  185.4730  178.1950  147.0830 C   0  0  0  0  0  0  0  0  0  0  0  0
  186.0610  177.0610  147.8400 C   0  0  0  0  0  1  0  0  0  0  0  0
  184.5970  177.9280  145.9880 N   0  0  0  0  0  2  0  0  0  0  0  0
  187.0470  175.6250  142.3710 O   0  0  0  0  0  0  0  0  0  0  0  0
  187.9700  175.3600  141.3590 C   0  0  0  0  0  1  0  0  0  0  0  0
  196.8390  176.5430  142.7810 O   0  0  0  0  0  0  0  0  0  0  0  0
  197.7950  175.6050  143.1770 C   0  0  0  0  0  2  0  0  0  0  0  0
  197.9320  174.6330  142.1870 O   0  0  0  0  0  1  0  0  0  0  0  0
  1 15  1  0  0  0  0
  1  9  1  1  0  0  0
  2  5  1  1  0  0  0
  2  1  1  0  0  0  0
  4  3  2  0  0  0  0
  5 13  1  0  0  0  0
  6 16  1  0  0  0  0
  7  8  1  0  0  0  0
  7 11  1  1  0  0  0
  8  2  1  0  0  0  0
  9  4  1  0  0  0  0
 10 15  1  0  0  0  0
 12 19  1  6  0  0  0
 12  7  1  0  0  0  0
 12  6  1  0  0  0  0
 13 20  1  1  0  0  0
 13  4  1  0  0  0  0
 15 14  1  6  0  0  0
 16 36  1  6  0  0  0
 16 10  1  0  0  0  0
 17 19  1  0  0  0  0
 18 19  2  0  0  0  0
 21 20  1  0  0  0  0
 22 21  1  0  0  0  0
 23 22  1  1  0  0  0
 24 23  1  0  0  0  0
 24 27  1  0  0  0  0
 25 24  2  0  0  0  0
 27 26  1  6  0  0  0
 27 28  1  0  0  0  0
 28 29  1  0  0  0  0
 29 33  1  0  0  0  0
 31 30  2  0  0  0  0
 31 32  1  0  0  0  0
 33 31  1  0  0  0  0
 34 23  1  0  0  0  0
 35 34  1  0  0  0  0
 36 37  1  0  0  0  0
 38 37  1  0  0  0  0
M  END
>  <MODEL>
2

>  <REMARK>
 VINA RESULT:      -6.5      1.965      3.525
  Name = 
  13 active torsions:
  status: ('A' for Active; 'I' for Inactive)
    1  A    between atoms: C_4  and  C_26
    2  A    between atoms: C_4  and  C_29
    3  A    between atoms: C_9  and  C_29
    4  A    between atoms: C_9  and  C_30
    5  A    between atoms: C_10  and  O_33
    6  A    between atoms: C_14  and  C_26
    7  A    between atoms: C_14  and  C_37
    8  A    between atoms: C_20  and  N_23
    9  A    between atoms: C_20  and  C_31
   10  A    between atoms: C_22  and  C_28
   11  A    between atoms: C_26  and  O_32
   12  A    between atoms: C_31  and  C_37
   13  A    between atoms: O_33  and  C_38
                            x       y       z     vdW  Elec       q    Type
                         _______ _______ _______ _____ _____    ______ ____

>  <TORSDO>
F 13

$$$$
=
 OpenBabel11062421033D

 38 39  0  0  1  0  0  0  0  0999 V2000
  192.2520  175.2690  145.3070 C   0  0  2  0  0  3  0  0  0  0  0  0
  191.0550  174.6420  144.5740 C   0  0  2  0  0  3  0  0  0  0  0  0
  190.5320  176.8050  147.9820 O   0  0  0  0  0  0  0  0  0  0  0  0
  190.6700  175.9350  147.1340 C   0  0  0  0  0  0  0  0  0  0  0  0
  189.7120  175.2750  144.9500 C   0  0  0  0  0  2  0  0  0  0  0  0
  192.6620  174.1790  142.4160 O   0  0  0  0  0  0  0  0  0  0  0  0
  192.7560  172.4540  144.1700 C   0  0  2  0  0  3  0  0  0  0  0  0
  191.0190  172.8150  144.6690 S   0  0  0  0  0  0  0  0  0  0  0  0
  192.0400  175.4180  146.8200 C   0  0  0  0  0  2  0  0  0  0  0  0
  192.8770  176.4500  143.1150 C   0  0  0  0  0  2  0  0  0  0  0  0
  193.7550  172.6710  145.2890 C   0  0  0  0  0  1  0  0  0  0  0  0
  193.2680  172.9810  142.8210 C   0  0  1  0  0  3  0  0  0  0  0  0
  189.4860  175.2910  146.4610 C   0  0  2  0  0  3  0  0  0  0  0  0
  194.0410  176.9370  145.2030 N   0  0  0  0  0  1  0  0  0  0  0  0
  192.7530  176.5570  144.6430 C   0  0  2  0  0  3  0  0  0  0  0  0
  193.6050  175.1920  142.6430 C   0  0  2  0  0  3  0  0  0  0  0  0
  192.1280  171.1490  141.7820 O   0  0  0  0  0  1  0  0  0  0  0  0
  194.0690  171.8300  140.7610 O   0  0  0  0  0  0  0  0  0  0  0  0
  193.1100  171.9410  141.7610 C   0  0  0  0  0  0  0  0  0  0  0  0
  188.1800  176.0120  146.7860 C   0  0  0  0  0  2  0  0  0  0  0  0
  187.7610  176.9250  145.6460 C   0  0  0  0  0  2  0  0  0  0  0  0
  186.6840  177.8910  146.1050 C   0  0  0  0  0  2  0  0  0  0  0  0
  185.4860  177.8170  145.1710 C   0  0  2  0  0  3  0  0  0  0  0  0
  185.6120  178.8120  144.0560 C   0  0  0  0  0  0  0  0  0  0  0  0
  185.5730  180.0120  144.2900 O   0  0  0  0  0  0  0  0  0  0  0  0
  184.6800  178.7250  141.8800 O   0  0  0  0  0  1  0  0  0  0  0  0
  185.7680  178.3160  142.6540 C   0  0  2  0  0  3  0  0  0  0  0  0
  185.8790  176.7990  142.6380 C   0  0  0  0  0  2  0  0  0  0  0  0
  187.1320  176.3590  141.9010 C   0  0  0  0  0  2  0  0  0  0  0  0
  188.6780  174.5370  140.3470 O   0  0  0  0  0  0  0  0  0  0  0  0
  188.2460  174.1380  141.4610 C   0  0  0  0  0  0  0  0  0  0  0  0
  188.5170  172.7460  141.9030 C   0  0  0  0  0  1  0  0  0  0  0  0
  187.4910  175.0080  142.3040 N   0  0  0  0  0  2  0  0  0  0  0  0
  184.3080  178.0490  145.8870 O   0  0  0  0  0  0  0  0  0  0  0  0
  184.7360  178.3740  147.1750 C   0  0  0  0  0  1  0  0  0  0  0  0
  194.2750  175.4760  141.4500 O   0  0  0  0  0  0  0  0  0  0  0  0
  195.4950  176.0300  141.8450 C   0  0  0  0  0  2  0  0  0  0  0  0
  196.1080  175.1890  142.7730 O   0  0  0  0  0  1  0  0  0  0  0  0
  1  9  1  1  0  0  0
  2  8  1  0  0  0  0
  2  5  1  1  0  0  0
  2  1  1  0  0  0  0
  4  3  2  0  0  0  0
  5 13  1  0  0  0  0
  6 16  1  0  0  0  0
  6 12  1  0  0  0  0
  7  8  1  0  0  0  0
  7 11  1  1  0  0  0
  9  4  1  0  0  0  0
 10 15  1  0  0  0  0
 12 19  1  6  0  0  0
 12  7  1  0  0  0  0
 13 20  1  6  0  0  0
 13  4  1  0  0  0  0
 15 14  1  1  0  0  0
 15  1  1  0  0  0  0
 16 36  1  6  0  0  0
 16 10  1  0  0  0  0
 18 19  2  0  0  0  0
 19 17  1  0  0  0  0
 21 22  1  0  0  0  0
 21 20  1  0  0  0  0
 23 34  1  0  0  0  0
 23 22  1  1  0  0  0
 24 25  2  0  0  0  0
 24 23  1  0  0  0  0
 27 26  1  6  0  0  0
 27 24  1  0  0  0  0
 28 27  1  0  0  0  0
 29 33  1  0  0  0  0
 29 28  1  0  0  0  0
 30 31  2  0  0  0  0
 31 32  1  0  0  0  0
 31 33  1  0  0  0  0
 34 35  1  0  0  0  0
 36 37  1  0  0  0  0
 37 38  1  0  0  0  0
M  END
>  <MODEL>
3

>  <REMARK>
 VINA RESULT:      -6.3      1.324      1.596
  Name = 
  13 active torsions:
  status: ('A' for Active; 'I' for Inactive)
    1  A    between atoms: C_4  and  C_26
    2  A    between atoms: C_4  and  C_29
    3  A    between atoms: C_9  and  C_29
    4  A    between atoms: C_9  and  C_30
    5  A    between atoms: C_10  and  O_33
    6  A    between atoms: C_14  and  C_26
    7  A    between atoms: C_14  and  C_37
    8  A    between atoms: C_20  and  N_23
    9  A    between atoms: C_20  and  C_31
   10  A    between atoms: C_22  and  C_28
   11  A    between atoms: C_26  and  O_32
   12  A    between atoms: C_31  and  C_37
   13  A    between atoms: O_33  and  C_38
                            x       y       z     vdW  Elec       q    Type
                         _______ _______ _______ _____ _____    ______ ____

>  <TORSDO>
F 13

$$$$
=
 OpenBabel11062421033D

 38 39  0  0  1  0  0  0  0  0999 V2000
  191.6150  173.5830  142.3120 C   0  0  2  0  0  3  0  0  0  0  0  0
  191.1850  174.7630  143.2010 C   0  0  2  0  0  3  0  0  0  0  0  0
  188.6790  173.2340  140.3810 O   0  0  0  0  0  0  0  0  0  0  0  0
  189.4830  173.8880  141.0300 C   0  0  0  0  0  0  0  0  0  0  0  0
  189.6680  174.9650  143.2500 C   0  0  0  0  0  2  0  0  0  0  0  0
  193.3240  174.2750  144.8260 O   0  0  0  0  0  0  0  0  0  0  0  0
  193.8130  175.6680  142.8560 C   0  0  2  0  0  3  0  0  0  0  0  0
  192.0870  176.3140  142.8390 S   0  0  0  0  0  0  0  0  0  0  0  0
  190.9440  173.5740  140.9330 C   0  0  0  0  0  2  0  0  0  0  0  0
  192.1120  172.2540  144.4520 C   0  0  0  0  0  2  0  0  0  0  0  0
  194.1910  174.9410  141.5820 C   0  0  0  0  0  1  0  0  0  0  0  0
  194.3260  174.9480  144.1130 C   0  0  1  0  0  3  0  0  0  0  0  0
  189.0560  175.0740  141.8540 C   0  0  2  0  0  3  0  0  0  0  0  0
  192.2100  171.2100  142.2500 N   0  0  0  0  0  1  0  0  0  0  0  0
  191.5300  172.2320  143.0300 C   0  0  2  0  0  3  0  0  0  0  0  0
  193.4880  172.9110  144.5420 C   0  0  2  0  0  3  0  0  0  0  0  0
  194.9360  175.8100  146.2620 O   0  0  0  0  0  1  0  0  0  0  0  0
  195.8010  176.9270  144.4520 O   0  0  0  0  0  0  0  0  0  0  0  0
  195.0400  175.9060  145.0080 C   0  0  0  0  0  0  0  0  0  0  0  0
  187.5370  175.1830  141.9580 C   0  0  0  0  0  2  0  0  0  0  0  0
  187.1200  175.7680  143.2980 C   0  0  0  0  0  2  0  0  0  0  0  0
  185.9910  176.7660  143.1150 C   0  0  0  0  0  2  0  0  0  0  0  0
  186.4990  178.1780  143.3570 C   0  0  2  0  0  3  0  0  0  0  0  0
  185.7660  178.8260  144.4940 C   0  0  0  0  0  0  0  0  0  0  0  0
  185.4600  180.0090  144.4380 O   0  0  0  0  0  0  0  0  0  0  0  0
  184.2910  178.5240  146.3230 O   0  0  0  0  0  1  0  0  0  0  0  0
  185.4310  178.0110  145.7010 C   0  0  2  0  0  3  0  0  0  0  0  0
  186.5990  178.0040  146.6760 C   0  0  0  0  0  2  0  0  0  0  0  0
  187.1090  176.5890  146.8960 C   0  0  0  0  0  2  0  0  0  0  0  0
  188.8210  174.4320  147.6310 O   0  0  0  0  0  0  0  0  0  0  0  0
  189.3470  175.4390  147.0880 C   0  0  0  0  0  0  0  0  0  0  0  0
  190.8170  175.4870  146.8880 C   0  0  0  0  0  1  0  0  0  0  0  0
  188.5450  176.5430  146.6670 N   0  0  0  0  0  2  0  0  0  0  0  0
  186.3520  178.9430  142.1960 O   0  0  0  0  0  0  0  0  0  0  0  0
  185.3780  178.2750  141.4540 C   0  0  0  0  0  1  0  0  0  0  0  0
  194.2120  172.3090  145.5750 O   0  0  0  0  0  0  0  0  0  0  0  0
  194.2730  170.9560  145.2300 C   0  0  0  0  0  2  0  0  0  0  0  0
  194.7280  170.2170  146.3210 O   0  0  0  0  0  1  0  0  0  0  0  0
  1  9  1  6  0  0  0
  1 15  1  0  0  0  0
  1  2  1  0  0  0  0
  2  5  1  6  0  0  0
  3  4  2  0  0  0  0
  4 13  1  0  0  0  0
  7 11  1  6  0  0  0
  7 12  1  0  0  0  0
  8  7  1  0  0  0  0
  8  2  1  0  0  0  0
  9  4  1  0  0  0  0
 10 16  1  0  0  0  0
 12  6  1  0  0  0  0
 12 19  1  1  0  0  0
 13 20  1  1  0  0  0
 13  5  1  0  0  0  0
 15 14  1  6  0  0  0
 15 10  1  0  0  0  0
 16  6  1  0  0  0  0
 16 36  1  1  0  0  0
 18 19  2  0  0  0  0
 19 17  1  0  0  0  0
 20 21  1  0  0  0  0
 22 21  1  0  0  0  0
 23 22  1  6  0  0  0
 23 24  1  0  0  0  0
 24 27  1  0  0  0  0
 25 24  2  0  0  0  0
 27 26  1  1  0  0  0
 27 28  1  0  0  0  0
 28 29  1  0  0  0  0
 31 30  2  0  0  0  0
 32 31  1  0  0  0  0
 33 29  1  0  0  0  0
 33 31  1  0  0  0  0
 34 23  1  0  0  0  0
 35 34  1  0  0  0  0
 37 36  1  0  0  0  0
 37 38  1  0  0  0  0
M  END
>  <MODEL>
4

>  <REMARK>
 VINA RESULT:      -6.3      2.656      4.870
  Name = 
  13 active torsions:
  status: ('A' for Active; 'I' for Inactive)
    1  A    between atoms: C_4  and  C_26
    2  A    between atoms: C_4  and  C_29
    3  A    between atoms: C_9  and  C_29
    4  A    between atoms: C_9  and  C_30
    5  A    between atoms: C_10  and  O_33
    6  A    between atoms: C_14  and  C_26
    7  A    between atoms: C_14  and  C_37
    8  A    between atoms: C_20  and  N_23
    9  A    between atoms: C_20  and  C_31
   10  A    between atoms: C_22  and  C_28
   11  A    between atoms: C_26  and  O_32
   12  A    between atoms: C_31  and  C_37
   13  A    between atoms: O_33  and  C_38
                            x       y       z     vdW  Elec       q    Type
                         _______ _______ _______ _____ _____    ______ ____

>  <TORSDO>
F 13

$$$$
=
 OpenBabel11062421033D

 38 39  0  0  1  0  0  0  0  0999 V2000
  192.7080  173.3850  143.5680 C   0  0  2  0  0  3  0  0  0  0  0  0
  192.3970  174.8680  143.3040 C   0  0  2  0  0  3  0  0  0  0  0  0
  189.4260  172.0880  143.4280 O   0  0  0  0  0  0  0  0  0  0  0  0
  190.2940  172.8900  143.1120 C   0  0  0  0  0  0  0  0  0  0  0  0
  190.9330  175.2370  143.5630 C   0  0  0  0  0  2  0  0  0  0  0  0
  194.9280  175.5060  144.1030 O   0  0  0  0  0  0  0  0  0  0  0  0
  194.7220  174.8300  141.7450 C   0  0  2  0  0  3  0  0  0  0  0  0
  192.9910  175.4590  141.6780 S   0  0  0  0  0  0  0  0  0  0  0  0
  191.7030  172.4200  142.9250 C   0  0  0  0  0  2  0  0  0  0  0  0
  193.8960  174.0980  145.7290 C   0  0  0  0  0  2  0  0  0  0  0  0
  194.8310  173.3490  141.4460 C   0  0  0  0  0  1  0  0  0  0  0  0
  195.6250  175.2590  142.9120 C   0  0  1  0  0  3  0  0  0  0  0  0
  189.9670  174.3270  142.8050 C   0  0  2  0  0  3  0  0  0  0  0  0
  193.5290  171.7480  145.1920 N   0  0  0  0  0  1  0  0  0  0  0  0
  192.9670  173.0820  145.0480 C   0  0  2  0  0  3  0  0  0  0  0  0
  195.1650  174.4010  144.9330 C   0  0  2  0  0  3  0  0  0  0  0  0
  197.1260  177.0600  143.3970 O   0  0  0  0  0  1  0  0  0  0  0  0
  196.4080  176.9120  141.2210 O   0  0  0  0  0  0  0  0  0  0  0  0
  196.4370  176.4530  142.5320 C   0  0  0  0  0  0  0  0  0  0  0  0
  188.5270  174.6790  143.1680 C   0  0  0  0  0  2  0  0  0  0  0  0
  188.2620  176.1640  142.9820 C   0  0  0  0  0  2  0  0  0  0  0  0
  186.8520  176.3940  142.4680 C   0  0  0  0  0  2  0  0  0  0  0  0
  186.4590  177.8490  142.6580 C   0  0  2  0  0  3  0  0  0  0  0  0
  185.1310  177.9630  143.3470 C   0  0  0  0  0  0  0  0  0  0  0  0
  184.0940  177.7680  142.7280 O   0  0  0  0  0  0  0  0  0  0  0  0
  185.9640  179.3970  145.0380 O   0  0  0  0  0  1  0  0  0  0  0  0
  185.0930  178.3340  144.7940 C   0  0  2  0  0  3  0  0  0  0  0  0
  185.4730  177.1390  145.6570 C   0  0  0  0  0  2  0  0  0  0  0  0
  186.7390  177.4280  146.4470 C   0  0  0  0  0  2  0  0  0  0  0  0
  189.5540  176.9940  146.3470 O   0  0  0  0  0  0  0  0  0  0  0  0
  188.8230  176.0240  146.6790 C   0  0  0  0  0  0  0  0  0  0  0  0
  189.4340  174.7010  146.9620 C   0  0  0  0  0  1  0  0  0  0  0  0
  187.4070  176.1790  146.7780 N   0  0  0  0  0  2  0  0  0  0  0  0
  186.4110  178.4960  141.4190 O   0  0  0  0  0  0  0  0  0  0  0  0
  186.4340  177.4640  140.4810 C   0  0  0  0  0  1  0  0  0  0  0  0
  196.1970  174.7060  145.8240 O   0  0  0  0  0  0  0  0  0  0  0  0
  196.8100  173.4800  146.0970 C   0  0  0  0  0  2  0  0  0  0  0  0
  196.9410  172.7520  144.9140 O   0  0  0  0  0  1  0  0  0  0  0  0
  1  9  1  1  0  0  0
  1 15  1  0  0  0  0
  2  5  1  6  0  0  0
  2  1  1  0  0  0  0
  4  3  2  0  0  0  0
  6 16  1  0  0  0  0
  7 11  1  1  0  0  0
  7 12  1  0  0  0  0
  8  7  1  0  0  0  0
  8  2  1  0  0  0  0
  9  4  1  0  0  0  0
 12 19  1  6  0  0  0
 12  6  1  0  0  0  0
 13  4  1  0  0  0  0
 13 20  1  1  0  0  0
 13  5  1  0  0  0  0
 15 14  1  6  0  0  0
 15 10  1  0  0  0  0
 16 10  1  0  0  0  0
 16 36  1  1  0  0  0
 18 19  2  0  0  0  0
 19 17  1  0  0  0  0
 21 20  1  0  0  0  0
 22 21  1  0  0  0  0
 23 22  1  6  0  0  0
 23 24  1  0  0  0  0
 24 27  1  0  0  0  0
 25 24  2  0  0  0  0
 27 26  1  6  0  0  0
 27 28  1  0  0  0  0
 28 29  1  0  0  0  0
 29 33  1  0  0  0  0
 30 31  2  0  0  0  0
 31 33  1  0  0  0  0
 31 32  1  0  0  0  0
 34 23  1  0  0  0  0
 35 34  1  0  0  0  0
 36 37  1  0  0  0  0
 38 37  1  0  0  0  0
M  END
>  <MODEL>
5

>  <REMARK>
 VINA RESULT:      -6.1      2.364      4.361
  Name = 
  13 active torsions:
  status: ('A' for Active; 'I' for Inactive)
    1  A    between atoms: C_4  and  C_26
    2  A    between atoms: C_4  and  C_29
    3  A    between atoms: C_9  and  C_29
    4  A    between atoms: C_9  and  C_30
    5  A    between atoms: C_10  and  O_33
    6  A    between atoms: C_14  and  C_26
    7  A    between atoms: C_14  and  C_37
    8  A    between atoms: C_20  and  N_23
    9  A    between atoms: C_20  and  C_31
   10  A    between atoms: C_22  and  C_28
   11  A    between atoms: C_26  and  O_32
   12  A    between atoms: C_31  and  C_37
   13  A    between atoms: O_33  and  C_38
                            x       y       z     vdW  Elec       q    Type
                         _______ _______ _______ _____ _____    ______ ____

>  <TORSDO>
F 13

$$$$
=
 OpenBabel11062421033D

 38 39  0  0  1  0  0  0  0  0999 V2000
  192.7000  173.6040  143.8370 C   0  0  2  0  0  3  0  0  0  0  0  0
  192.7180  175.1290  144.0420 C   0  0  2  0  0  3  0  0  0  0  0  0
  189.3110  172.9720  144.6030 O   0  0  0  0  0  0  0  0  0  0  0  0
  190.2190  173.6760  144.1840 C   0  0  0  0  0  0  0  0  0  0  0  0
  191.5470  175.6410  144.8870 C   0  0  0  0  0  2  0  0  0  0  0  0
  195.4470  175.0700  143.9950 O   0  0  0  0  0  0  0  0  0  0  0  0
  194.3710  175.1730  141.7830 C   0  0  2  0  0  3  0  0  0  0  0  0
  192.9240  176.0710  142.4870 S   0  0  0  0  0  0  0  0  0  0  0  0
  191.3350  173.0570  143.4000 C   0  0  0  0  0  2  0  0  0  0  0  0
  194.6270  173.4320  145.5240 C   0  0  0  0  0  2  0  0  0  0  0  0
  193.9990  173.8510  141.1420 C   0  0  0  0  0  1  0  0  0  0  0  0
  195.6630  175.0770  142.6100 C   0  0  1  0  0  3  0  0  0  0  0  0
  190.1970  175.1730  144.3450 C   0  0  2  0  0  3  0  0  0  0  0  0
  193.5210  171.4450  144.6440 N   0  0  0  0  0  1  0  0  0  0  0  0
  193.3060  172.8350  145.0150 C   0  0  2  0  0  3  0  0  0  0  0  0
  195.6290  173.7440  144.4140 C   0  0  2  0  0  3  0  0  0  0  0  0
  197.1450  176.8830  143.1350 O   0  0  0  0  0  1  0  0  0  0  0  0
  196.8550  176.4420  140.9000 O   0  0  0  0  0  0  0  0  0  0  0  0
  196.6020  176.1780  142.2410 C   0  0  0  0  0  0  0  0  0  0  0  0
  189.0760  175.6340  145.2720 C   0  0  0  0  0  2  0  0  0  0  0  0
  189.0200  177.1510  145.3520 C   0  0  0  0  0  2  0  0  0  0  0  0
  187.7570  177.6020  146.0640 C   0  0  0  0  0  2  0  0  0  0  0  0
  186.5490  177.3860  145.1680 C   0  0  2  0  0  3  0  0  0  0  0  0
  186.0380  178.6900  144.6310 C   0  0  0  0  0  0  0  0  0  0  0  0
  185.8400  179.6350  145.3840 O   0  0  0  0  0  0  0  0  0  0  0  0
  184.5830  178.1310  142.8470 O   0  0  0  0  0  1  0  0  0  0  0  0
  185.7570  178.8140  143.1680 C   0  0  2  0  0  3  0  0  0  0  0  0
  186.9200  178.2620  142.3580 C   0  0  0  0  0  2  0  0  0  0  0  0
  186.4160  177.4200  141.1980 C   0  0  0  0  0  2  0  0  0  0  0  0
  187.1490  174.9380  142.3920 O   0  0  0  0  0  0  0  0  0  0  0  0
  187.8100  175.3250  141.3940 C   0  0  0  0  0  0  0  0  0  0  0  0
  188.9530  174.5140  140.9040 C   0  0  0  0  0  1  0  0  0  0  0  0
  187.4790  176.5440  140.7280 N   0  0  0  0  0  2  0  0  0  0  0  0
  185.5370  176.7340  145.8790 O   0  0  0  0  0  0  0  0  0  0  0  0
  185.9380  176.8110  147.2140 C   0  0  0  0  0  1  0  0  0  0  0  0
  196.9240  173.5920  144.9170 O   0  0  0  0  0  0  0  0  0  0  0  0
  196.8010  172.6630  145.9520 C   0  0  0  0  0  2  0  0  0  0  0  0
  197.4340  171.4750  145.5890 O   0  0  0  0  0  1  0  0  0  0  0  0
  1  9  1  1  0  0  0
  1  2  1  0  0  0  0
  1 15  1  0  0  0  0
  2  5  1  6  0  0  0
  4 13  1  0  0  0  0
  4  3  2  0  0  0  0
  6 16  1  0  0  0  0
  7 11  1  1  0  0  0
  7  8  1  0  0  0  0
  7 12  1  0  0  0  0
  8  2  1  0  0  0  0
  9  4  1  0  0  0  0
 12 19  1  1  0  0  0
 12  6  1  0  0  0  0
 13  5  1  0  0  0  0
 13 20  1  1  0  0  0
 15 14  1  6  0  0  0
 15 10  1  0  0  0  0
 16 36  1  1  0  0  0
 16 10  1  0  0  0  0
 18 19  2  0  0  0  0
 19 17  1  0  0  0  0
 20 21  1  0  0  0  0
 21 22  1  0  0  0  0
 23 34  1  0  0  0  0
 23 22  1  1  0  0  0
 24 23  1  0  0  0  0
 24 25  2  0  0  0  0
 27 26  1  1  0  0  0
 27 24  1  0  0  0  0
 28 27  1  0  0  0  0
 29 28  1  0  0  0  0
 31 30  2  0  0  0  0
 32 31  1  0  0  0  0
 33 29  1  0  0  0  0
 33 31  1  0  0  0  0
 34 35  1  0  0  0  0
 36 37  1  0  0  0  0
 38 37  1  0  0  0  0
M  END
>  <MODEL>
6

>  <REMARK>
 VINA RESULT:      -6.0      2.386      3.536
  Name = 
  13 active torsions:
  status: ('A' for Active; 'I' for Inactive)
    1  A    between atoms: C_4  and  C_26
    2  A    between atoms: C_4  and  C_29
    3  A    between atoms: C_9  and  C_29
    4  A    between atoms: C_9  and  C_30
    5  A    between atoms: C_10  and  O_33
    6  A    between atoms: C_14  and  C_26
    7  A    between atoms: C_14  and  C_37
    8  A    between atoms: C_20  and  N_23
    9  A    between atoms: C_20  and  C_31
   10  A    between atoms: C_22  and  C_28
   11  A    between atoms: C_26  and  O_32
   12  A    between atoms: C_31  and  C_37
   13  A    between atoms: O_33  and  C_38
                            x       y       z     vdW  Elec       q    Type
                         _______ _______ _______ _____ _____    ______ ____

>  <TORSDO>
F 13

$$$$
=
 OpenBabel11062421033D

 38 39  0  0  1  0  0  0  0  0999 V2000
  193.0000  173.4680  144.0930 C   0  0  2  0  0  3  0  0  0  0  0  0
  192.9150  174.9770  144.3780 C   0  0  2  0  0  3  0  0  0  0  0  0
  189.7080  172.5430  144.9770 O   0  0  0  0  0  0  0  0  0  0  0  0
  190.5400  173.3330  144.5550 C   0  0  0  0  0  0  0  0  0  0  0  0
  191.7530  175.3570  145.3000 C   0  0  0  0  0  2  0  0  0  0  0  0
  195.6360  175.1280  144.2050 O   0  0  0  0  0  0  0  0  0  0  0  0
  194.4490  175.2580  142.0520 C   0  0  2  0  0  3  0  0  0  0  0  0
  192.9760  176.0080  142.8680 S   0  0  0  0  0  0  0  0  0  0  0  0
  191.6590  172.8400  143.6910 C   0  0  0  0  0  2  0  0  0  0  0  0
  195.0140  173.3600  145.6810 C   0  0  0  0  0  2  0  0  0  0  0  0
  194.1450  173.9450  141.3600 C   0  0  0  0  0  1  0  0  0  0  0  0
  195.7830  175.2200  142.8140 C   0  0  1  0  0  3  0  0  0  0  0  0
  190.4160  174.8150  144.7960 C   0  0  2  0  0  3  0  0  0  0  0  0
  194.0160  171.3400  144.7480 N   0  0  0  0  0  1  0  0  0  0  0  0
  193.7180  172.6890  145.2020 C   0  0  2  0  0  3  0  0  0  0  0  0
  195.9360  173.8010  144.5460 C   0  0  2  0  0  3  0  0  0  0  0  0
  197.0390  177.1840  143.3630 O   0  0  0  0  0  1  0  0  0  0  0  0
  196.9120  176.6670  141.1290 O   0  0  0  0  0  0  0  0  0  0  0  0
  196.6190  176.4060  142.4620 C   0  0  0  0  0  0  0  0  0  0  0  0
  189.3100  175.1430  145.7950 C   0  0  0  0  0  2  0  0  0  0  0  0
  188.3580  176.1870  145.2350 C   0  0  0  0  0  2  0  0  0  0  0  0
  187.9390  175.8240  143.8220 C   0  0  0  0  0  2  0  0  0  0  0  0
  188.1560  177.0080  142.8940 C   0  0  2  0  0  3  0  0  0  0  0  0
  187.1770  176.9870  141.7580 C   0  0  0  0  0  0  0  0  0  0  0  0
  187.4410  176.3890  140.7240 O   0  0  0  0  0  0  0  0  0  0  0  0
  185.4200  178.1230  140.6470 O   0  0  0  0  0  1  0  0  0  0  0  0
  185.8820  177.7210  141.9010 C   0  0  2  0  0  3  0  0  0  0  0  0
  186.0570  178.9310  142.8060 C   0  0  0  0  0  2  0  0  0  0  0  0
  185.1420  178.8350  144.0160 C   0  0  0  0  0  2  0  0  0  0  0  0
  184.0930  178.6660  146.6600 O   0  0  0  0  0  0  0  0  0  0  0  0
  185.3450  178.6840  146.5270 C   0  0  0  0  0  0  0  0  0  0  0  0
  186.2170  178.6590  147.7280 C   0  0  0  0  0  1  0  0  0  0  0  0
  185.9390  178.7380  145.2290 N   0  0  0  0  0  2  0  0  0  0  0  0
  189.4630  176.9920  142.3970 O   0  0  0  0  0  0  0  0  0  0  0  0
  190.0030  178.2190  142.7830 C   0  0  0  0  0  1  0  0  0  0  0  0
  197.2610  173.7240  144.9810 O   0  0  0  0  0  0  0  0  0  0  0  0
  197.8130  172.6580  144.2670 C   0  0  0  0  0  2  0  0  0  0  0  0
  197.7700  171.5030  145.0470 O   0  0  0  0  0  1  0  0  0  0  0  0
  1  9  1  1  0  0  0
  1  2  1  0  0  0  0
  1 15  1  0  0  0  0
  2  5  1  6  0  0  0
  4 13  1  0  0  0  0
  4  3  2  0  0  0  0
  6 16  1  0  0  0  0
  7 11  1  1  0  0  0
  7 12  1  0  0  0  0
  7  8  1  0  0  0  0
  8  2  1  0  0  0  0
  9  4  1  0  0  0  0
 12 19  1  1  0  0  0
 12  6  1  0  0  0  0
 13  5  1  0  0  0  0
 13 20  1  1  0  0  0
 15 14  1  6  0  0  0
 15 10  1  0  0  0  0
 16 36  1  1  0  0  0
 16 10  1  0  0  0  0
 18 19  2  0  0  0  0
 19 17  1  0  0  0  0
 21 20  1  0  0  0  0
 22 21  1  0  0  0  0
 23 22  1  1  0  0  0
 24 27  1  0  0  0  0
 24 23  1  0  0  0  0
 25 24  2  0  0  0  0
 27 26  1  6  0  0  0
 27 28  1  0  0  0  0
 28 29  1  0  0  0  0
 29 33  1  0  0  0  0
 31 30  2  0  0  0  0
 31 32  1  0  0  0  0
 33 31  1  0  0  0  0
 34 35  1  0  0  0  0
 34 23  1  0  0  0  0
 37 36  1  0  0  0  0
 37 38  1  0  0  0  0
M  END
>  <MODEL>
7

>  <REMARK>
 VINA RESULT:      -5.9      2.344      4.421
  Name = 
  13 active torsions:
  status: ('A' for Active; 'I' for Inactive)
    1  A    between atoms: C_4  and  C_26
    2  A    between atoms: C_4  and  C_29
    3  A    between atoms: C_9  and  C_29
    4  A    between atoms: C_9  and  C_30
    5  A    between atoms: C_10  and  O_33
    6  A    between atoms: C_14  and  C_26
    7  A    between atoms: C_14  and  C_37
    8  A    between atoms: C_20  and  N_23
    9  A    between atoms: C_20  and  C_31
   10  A    between atoms: C_22  and  C_28
   11  A    between atoms: C_26  and  O_32
   12  A    between atoms: C_31  and  C_37
   13  A    between atoms: O_33  and  C_38
                            x       y       z     vdW  Elec       q    Type
                         _______ _______ _______ _____ _____    ______ ____

>  <TORSDO>
F 13

$$$$
=
 OpenBabel11062421033D

 38 39  0  0  1  0  0  0  0  0999 V2000
  191.8720  173.5710  141.7480 C   0  0  2  0  0  3  0  0  0  0  0  0
  191.5670  174.5150  142.9240 C   0  0  2  0  0  3  0  0  0  0  0  0
  188.6660  173.4590  140.2690 O   0  0  0  0  0  0  0  0  0  0  0  0
  189.5510  174.0090  140.9100 C   0  0  0  0  0  0  0  0  0  0  0  0
  190.0740  174.6130  143.2520 C   0  0  0  0  0  2  0  0  0  0  0  0
  193.9560  173.8260  144.0520 O   0  0  0  0  0  0  0  0  0  0  0  0
  194.0790  175.6230  142.3740 C   0  0  2  0  0  3  0  0  0  0  0  0
  192.3580  176.1560  142.7650 S   0  0  0  0  0  0  0  0  0  0  0  0
  190.9820  173.8080  140.5200 C   0  0  0  0  0  2  0  0  0  0  0  0
  192.7470  171.8590  143.4490 C   0  0  0  0  0  2  0  0  0  0  0  0
  194.2580  175.1990  140.9300 C   0  0  0  0  0  1  0  0  0  0  0  0
  194.8090  174.6890  143.3510 C   0  0  1  0  0  3  0  0  0  0  0  0
  189.2370  174.9720  142.0250 C   0  0  2  0  0  3  0  0  0  0  0  0
  192.5050  171.3010  141.0870 N   0  0  0  0  0  1  0  0  0  0  0  0
  191.9390  172.0980  142.1640 C   0  0  2  0  0  3  0  0  0  0  0  0
  194.1030  172.5620  143.4610 C   0  0  2  0  0  3  0  0  0  0  0  0
  196.0080  176.6530  144.0180 O   0  0  0  0  0  0  0  0  0  0  0  0
  196.0270  174.9110  145.5140 O   0  0  0  0  0  1  0  0  0  0  0  0
  195.6390  175.4820  144.3080 C   0  0  0  0  0  0  0  0  0  0  0  0
  187.7540  174.9680  142.3860 C   0  0  0  0  0  2  0  0  0  0  0  0
  187.1520  176.3570  142.2470 C   0  0  0  0  0  2  0  0  0  0  0  0
  185.9470  176.5100  143.1570 C   0  0  0  0  0  2  0  0  0  0  0  0
  186.1650  177.6670  144.1190 C   0  0  2  0  0  3  0  0  0  0  0  0
  186.4370  177.1680  145.5070 C   0  0  0  0  0  0  0  0  0  0  0  0
  185.5110  176.8970  146.2600 O   0  0  0  0  0  0  0  0  0  0  0  0
  188.7020  177.7440  145.1210 O   0  0  0  0  0  1  0  0  0  0  0  0
  187.8530  177.0230  145.9630 C   0  0  2  0  0  3  0  0  0  0  0  0
  188.2560  175.5560  145.9790 C   0  0  0  0  0  2  0  0  0  0  0  0
  189.0020  175.2160  147.2590 C   0  0  0  0  0  2  0  0  0  0  0  0
  191.0380  177.1470  147.7560 O   0  0  0  0  0  0  0  0  0  0  0  0
  191.3800  176.0600  147.2220 C   0  0  0  0  0  0  0  0  0  0  0  0
  192.7970  175.8370  146.8380 C   0  0  0  0  0  1  0  0  0  0  0  0
  190.4160  175.0360  146.9720 N   0  0  0  0  0  2  0  0  0  0  0  0
  185.0440  178.5010  144.1230 O   0  0  0  0  0  0  0  0  0  0  0  0
  185.5650  179.7930  144.2170 C   0  0  0  0  0  1  0  0  0  0  0  0
  195.0020  171.8030  144.2150 O   0  0  0  0  0  0  0  0  0  0  0  0
  194.2000  171.0450  145.0720 C   0  0  0  0  0  2  0  0  0  0  0  0
  194.9670  170.5900  146.1450 O   0  0  0  0  0  1  0  0  0  0  0  0
  1  9  1  6  0  0  0
  1 15  1  0  0  0  0
  1  2  1  0  0  0  0
  2  5  1  6  0  0  0
  3  4  2  0  0  0  0
  4 13  1  0  0  0  0
  7 11  1  6  0  0  0
  7  8  1  0  0  0  0
  7 12  1  0  0  0  0
  8  2  1  0  0  0  0
  9  4  1  0  0  0  0
 10 16  1  0  0  0  0
 12  6  1  0  0  0  0
 12 19  1  1  0  0  0
 13 20  1  1  0  0  0
 13  5  1  0  0  0  0
 15 14  1  6  0  0  0
 15 10  1  0  0  0  0
 16  6  1  0  0  0  0
 16 36  1  1  0  0  0
 17 19  2  0  0  0  0
 19 18  1  0  0  0  0
 21 20  1  0  0  0  0
 21 22  1  0  0  0  0
 23 22  1  6  0  0  0
 23 34  1  0  0  0  0
 23 24  1  0  0  0  0
 24 27  1  0  0  0  0
 24 25  2  0  0  0  0
 27 26  1  6  0  0  0
 27 28  1  0  0  0  0
 28 29  1  0  0  0  0
 31 30  2  0  0  0  0
 32 31  1  0  0  0  0
 33 31  1  0  0  0  0
 33 29  1  0  0  0  0
 34 35  1  0  0  0  0
 36 37  1  0  0  0  0
 37 38  1  0  0  0  0
M  END
>  <MODEL>
8

>  <REMARK>
 VINA RESULT:      -5.9      2.613      4.961
  Name = 
  13 active torsions:
  status: ('A' for Active; 'I' for Inactive)
    1  A    between atoms: C_4  and  C_26
    2  A    between atoms: C_4  and  C_29
    3  A    between atoms: C_9  and  C_29
    4  A    between atoms: C_9  and  C_30
    5  A    between atoms: C_10  and  O_33
    6  A    between atoms: C_14  and  C_26
    7  A    between atoms: C_14  and  C_37
    8  A    between atoms: C_20  and  N_23
    9  A    between atoms: C_20  and  C_31
   10  A    between atoms: C_22  and  C_28
   11  A    between atoms: C_26  and  O_32
   12  A    between atoms: C_31  and  C_37
   13  A    between atoms: O_33  and  C_38
                            x       y       z     vdW  Elec       q    Type
                         _______ _______ _______ _____ _____    ______ ____

>  <TORSDO>
F 13

$$$$
=
 OpenBabel11062421033D

 38 39  0  0  1  0  0  0  0  0999 V2000
  190.7990  176.2420  145.4610 C   0  0  2  0  0  3  0  0  0  0  0  0
  190.3990  175.0570  144.5650 C   0  0  2  0  0  3  0  0  0  0  0  0
  193.9730  175.1060  146.5130 O   0  0  0  0  0  0  0  0  0  0  0  0
  193.0550  175.1780  145.7090 C   0  0  0  0  0  0  0  0  0  0  0  0
  191.2010  173.7830  144.8490 C   0  0  0  0  0  2  0  0  0  0  0  0
  187.8370  175.9980  144.5210 O   0  0  0  0  0  0  0  0  0  0  0  0
  189.3440  177.0130  142.8610 C   0  0  2  0  0  3  0  0  0  0  0  0
  190.3550  175.4740  142.7840 S   0  0  0  0  0  0  0  0  0  0  0  0
  192.3140  176.4690  145.5440 C   0  0  0  0  0  2  0  0  0  0  0  0
  188.6210  175.8840  146.7720 C   0  0  0  0  0  2  0  0  0  0  0  0
  190.1360  178.2250  143.3080 C   0  0  0  0  0  1  0  0  0  0  0  0
  187.9500  176.9570  143.5050 C   0  0  1  0  0  3  0  0  0  0  0  0
  192.7080  174.0280  144.8000 C   0  0  2  0  0  3  0  0  0  0  0  0
  190.3100  177.4800  147.5150 N   0  0  0  0  0  1  0  0  0  0  0  0
  190.1220  176.2070  146.8360 C   0  0  2  0  0  3  0  0  0  0  0  0
  187.8590  176.7050  145.7330 C   0  0  2  0  0  3  0  0  0  0  0  0
  187.2290  176.4470  141.2790 O   0  0  0  0  0  0  0  0  0  0  0  0
  185.5620  176.8600  142.8020 O   0  0  0  0  0  1  0  0  0  0  0  0
  186.9030  176.7300  142.4640 C   0  0  0  0  0  0  0  0  0  0  0  0
  193.4560  172.7520  145.1780 C   0  0  0  0  0  2  0  0  0  0  0  0
  193.0350  171.5890  144.2960 C   0  0  0  0  0  2  0  0  0  0  0  0
  194.2450  170.9570  143.6320 C   0  0  0  0  0  2  0  0  0  0  0  0
  195.2690  170.5620  144.6830 C   0  0  2  0  0  3  0  0  0  0  0  0
  196.6630  170.8600  144.2150 C   0  0  0  0  0  0  0  0  0  0  0  0
  197.1010  170.3350  143.2010 O   0  0  0  0  0  0  0  0  0  0  0  0
  196.8270  172.2050  146.1580 O   0  0  0  0  0  1  0  0  0  0  0  0
  197.5140  171.7950  145.0140 C   0  0  2  0  0  3  0  0  0  0  0  0
  197.9020  173.0040  144.1760 C   0  0  0  0  0  2  0  0  0  0  0  0
  197.0670  174.2140  144.5580 C   0  0  0  0  0  2  0  0  0  0  0  0
  196.0690  176.8000  143.8960 O   0  0  0  0  0  0  0  0  0  0  0  0
  195.6220  175.8160  143.2490 C   0  0  0  0  0  0  0  0  0  0  0  0
  194.5820  176.0250  142.2110 C   0  0  0  0  0  1  0  0  0  0  0  0
  196.1000  174.4960  143.5080 N   0  0  0  0  0  2  0  0  0  0  0  0
  195.1470  169.2020  144.9810 O   0  0  0  0  0  0  0  0  0  0  0  0
  195.0070  169.1550  146.3690 C   0  0  0  0  0  1  0  0  0  0  0  0
  186.5480  176.8970  146.1790 O   0  0  0  0  0  0  0  0  0  0  0  0
  186.6380  177.9190  147.1270 C   0  0  0  0  0  2  0  0  0  0  0  0
  185.5170  178.7420  147.0330 O   0  0  0  0  0  1  0  0  0  0  0  0
  1  9  1  1  0  0  0
  1 15  1  0  0  0  0
  2  5  1  6  0  0  0
  2  1  1  0  0  0  0
  4  3  2  0  0  0  0
  6 16  1  0  0  0  0
  7 11  1  1  0  0  0
  7 12  1  0  0  0  0
  8  7  1  0  0  0  0
  8  2  1  0  0  0  0
  9  4  1  0  0  0  0
 10 15  1  0  0  0  0
 12 19  1  6  0  0  0
 12  6  1  0  0  0  0
 13  5  1  0  0  0  0
 13 20  1  1  0  0  0
 13  4  1  0  0  0  0
 15 14  1  6  0  0  0
 16 36  1  1  0  0  0
 16 10  1  0  0  0  0
 17 19  2  0  0  0  0
 19 18  1  0  0  0  0
 21 20  1  0  0  0  0
 22 21  1  0  0  0  0
 23 22  1  6  0  0  0
 23 34  1  0  0  0  0
 24 23  1  0  0  0  0
 24 27  1  0  0  0  0
 25 24  2  0  0  0  0
 27 26  1  1  0  0  0
 28 29  1  0  0  0  0
 28 27  1  0  0  0  0
 31 33  1  0  0  0  0
 31 30  2  0  0  0  0
 32 31  1  0  0  0  0
 33 29  1  0  0  0  0
 34 35  1  0  0  0  0
 36 37  1  0  0  0  0
 38 37  1  0  0  0  0
M  END
>  <MODEL>
9

>  <REMARK>
 VINA RESULT:      -5.8      2.551      8.939
  Name = 
  13 active torsions:
  status: ('A' for Active; 'I' for Inactive)
    1  A    between atoms: C_4  and  C_26
    2  A    between atoms: C_4  and  C_29
    3  A    between atoms: C_9  and  C_29
    4  A    between atoms: C_9  and  C_30
    5  A    between atoms: C_10  and  O_33
    6  A    between atoms: C_14  and  C_26
    7  A    between atoms: C_14  and  C_37
    8  A    between atoms: C_20  and  N_23
    9  A    between atoms: C_20  and  C_31
   10  A    between atoms: C_22  and  C_28
   11  A    between atoms: C_26  and  O_32
   12  A    between atoms: C_31  and  C_37
   13  A    between atoms: O_33  and  C_38
                            x       y       z     vdW  Elec       q    Type
                         _______ _______ _______ _____ _____    ______ ____

>  <TORSDO>
F 13

$$$$
