=
 OpenBabel11062418553D

 33 38  0  0  1  0  0  0  0  0999 V2000
  190.0830  175.4910  145.1240 C   0  0  0  0  0  0  0  0  0  0  0  0
  187.9220  176.4960  144.6340 C   0  0  0  0  0  0  0  0  0  0  0  0
  189.1310  175.2100  142.9260 C   0  0  0  0  0  0  0  0  0  0  0  0
  189.2140  174.7030  141.6290 C   0  0  0  0  0  3  0  0  0  0  0  0
  191.1150  175.2760  146.1750 C   0  0  2  0  0  3  0  0  0  0  0  0
  187.0080  176.2220  142.3600 C   0  0  0  0  0  3  0  0  0  0  0  0
  190.1620  174.9640  143.8320 C   0  0  0  0  0  3  0  0  0  0  0  0
  190.7810  176.2240  147.3280 C   0  0  0  0  0  2  0  0  0  0  0  0
  188.9810  176.2200  145.5260 C   0  0  0  0  0  0  0  0  0  0  0  0
  188.1870  174.9670  140.7240 C   0  0  0  0  0  3  0  0  0  0  0  0
  188.0070  175.9810  143.3150 C   0  0  0  0  0  0  0  0  0  0  0  0
  189.0130  176.6820  147.2510 S   0  0  0  0  0  0  0  0  0  0  0  0
  187.1170  175.7150  141.1030 N   0  0  0  0  0  0  0  0  0  0  0  0
  194.3690  172.3960  145.0100 C   0  0  0  0  0  2  0  0  0  0  0  0
  194.5590  175.5060  143.0870 C   0  0  1  0  0  3  0  0  0  0  0  0
  193.0140  176.6820  145.8080 O   0  0  0  0  0  0  0  0  0  0  0  0
  196.7040  176.6030  143.1970 F   0  0  0  0  0  0  0  0  0  0  0  0
  194.5230  174.6780  144.3690 C   0  0  1  0  0  3  0  0  0  0  0  0
  197.9410  174.1560  142.2490 O   0  0  0  0  0  0  0  0  0  0  0  0
  193.0700  173.0960  145.4080 C   0  0  0  0  0  2  0  0  0  0  0  0
  194.0590  176.7930  143.2910 O   0  0  0  0  0  1  0  0  0  0  0  0
  196.8010  174.2790  142.7680 C   0  0  0  0  0  0  0  0  0  0  0  0
  196.0230  175.5730  142.5700 C   0  0  1  0  0  3  0  0  0  0  0  0
  193.2320  174.4940  145.0110 N   0  0  0  0  0  0  0  0  0  0  0  0
  196.2810  173.2270  143.5950 N   0  0  0  0  0  2  0  0  0  0  0  0
  192.5010  175.5380  145.6650 C   0  0  0  0  0  0  0  0  0  0  0  0
  194.8690  173.2960  143.9130 C   0  0  1  0  0  3  0  0  0  0  0  0
  186.6040  178.6210  144.6610 C   0  0  0  0  0  3  0  0  0  0  0  0
  185.5020  179.3720  145.0790 C   0  0  0  0  0  3  0  0  0  0  0  0
  186.7540  177.2900  145.0780 C   0  0  0  0  0  0  0  0  0  0  0  0
  184.5420  178.7960  145.9170 C   0  0  0  0  0  3  0  0  0  0  0  0
  184.6840  177.4700  146.3350 C   0  0  0  0  0  3  0  0  0  0  0  0
  185.7860  176.7200  145.9180 C   0  0  0  0  0  3  0  0  0  0  0  0
  1  9  1  0  0  0  0
  1  5  1  0  0  0  0
  2 30  1  0  0  0  0
  2  9  2  0  0  0  0
  3 11  1  0  0  0  0
  3  7  1  0  0  0  0
  4  3  2  0  0  0  0
  5 26  1  6  0  0  0
  5  8  1  0  0  0  0
  6 11  2  0  0  0  0
  7  1  2  0  0  0  0
  9 12  1  0  0  0  0
 10 13  2  0  0  0  0
 10  4  1  0  0  0  0
 11  2  1  0  0  0  0
 12  8  1  0  0  0  0
 13  6  1  0  0  0  0
 14 20  1  0  0  0  0
 15 21  1  1  0  0  0
 15 18  1  0  0  0  0
 18 24  1  6  0  0  0
 19 22  2  0  0  0  0
 22 25  1  0  0  0  0
 23 22  1  0  0  0  0
 23 15  1  0  0  0  0
 23 17  1  1  0  0  0
 24 20  1  0  0  0  0
 24 26  1  0  0  0  0
 25 27  1  0  0  0  0
 26 16  2  0  0  0  0
 27 18  1  0  0  0  0
 27 14  1  1  0  0  0
 28 30  2  0  0  0  0
 28 29  1  0  0  0  0
 29 31  2  0  0  0  0
 30 33  1  0  0  0  0
 31 32  1  0  0  0  0
 33 32  2  0  0  0  0
M  END
>  <MODEL>
1

>  <REMARK>
 VINA RESULT:      -8.4      0.000      0.000
  Name = 
  2 active torsions:
  status: ('A' for Active; 'I' for Inactive)
    1  A    between atoms: C_4  and  C_18
    2  A    between atoms: C_11  and  C_30
                            x       y       z     vdW  Elec       q    Type
                         _______ _______ _______ _____ _____    ______ ____

>  <TORSDO>
F 2

$$$$
=
 OpenBabel11062418553D

 33 38  0  0  1  0  0  0  0  0999 V2000
  189.4680  175.1820  143.4750 C   0  0  0  0  0  0  0  0  0  0  0  0
  188.1860  176.6070  144.9730 C   0  0  0  0  0  0  0  0  0  0  0  0
  190.4970  175.9720  145.5080 C   0  0  0  0  0  0  0  0  0  0  0  0
  191.5960  176.0190  146.3660 C   0  0  0  0  0  3  0  0  0  0  0  0
  189.4490  174.4490  142.1790 C   0  0  2  0  0  3  0  0  0  0  0  0
  189.2620  177.3540  147.0620 C   0  0  0  0  0  3  0  0  0  0  0  0
  190.5780  175.2420  144.3220 C   0  0  0  0  0  3  0  0  0  0  0  0
  187.9950  174.4130  141.7090 C   0  0  0  0  0  2  0  0  0  0  0  0
  188.3070  175.8650  143.7780 C   0  0  0  0  0  0  0  0  0  0  0  0
  191.5020  176.7380  147.5580 C   0  0  0  0  0  3  0  0  0  0  0  0
  189.3020  176.6540  145.8470 C   0  0  0  0  0  0  0  0  0  0  0  0
  187.0620  175.7700  142.5010 S   0  0  0  0  0  0  0  0  0  0  0  0
  190.3490  177.3820  147.8800 N   0  0  0  0  0  0  0  0  0  0  0  0
  192.4690  172.2620  139.6600 C   0  0  0  0  0  2  0  0  0  0  0  0
  192.5480  171.1450  143.1470 C   0  0  1  0  0  3  0  0  0  0  0  0
  189.3820  172.2130  143.0250 O   0  0  0  0  0  0  0  0  0  0  0  0
  192.2790  168.7650  143.4250 F   0  0  0  0  0  0  0  0  0  0  0  0
  191.8800  171.4190  141.8010 C   0  0  1  0  0  3  0  0  0  0  0  0
  194.5380  168.3590  141.6500 O   0  0  0  0  0  0  0  0  0  0  0  0
  191.5470  173.2750  140.3400 C   0  0  0  0  0  2  0  0  0  0  0  0
  191.6350  171.2200  144.1990 O   0  0  0  0  0  1  0  0  0  0  0  0
  193.8360  169.3970  141.7610 C   0  0  0  0  0  0  0  0  0  0  0  0
  193.2100  169.7400  143.1060 C   0  0  1  0  0  3  0  0  0  0  0  0
  191.2030  172.6950  141.6370 N   0  0  0  0  0  0  0  0  0  0  0  0
  193.5790  170.2070  140.6020 N   0  0  0  0  0  2  0  0  0  0  0  0
  189.9920  173.0570  142.3120 C   0  0  0  0  0  0  0  0  0  0  0  0
  193.0260  171.5240  140.8460 C   0  0  1  0  0  3  0  0  0  0  0  0
  186.6810  178.5910  144.7440 C   0  0  0  0  0  3  0  0  0  0  0  0
  185.4940  179.2670  145.0410 C   0  0  0  0  0  3  0  0  0  0  0  0
  186.9290  177.3220  145.2880 C   0  0  0  0  0  0  0  0  0  0  0  0
  184.5460  178.6780  145.8840 C   0  0  0  0  0  3  0  0  0  0  0  0
  184.7860  177.4130  146.4290 C   0  0  0  0  0  3  0  0  0  0  0  0
  185.9730  176.7380  146.1330 C   0  0  0  0  0  3  0  0  0  0  0  0
  1  9  2  0  0  0  0
  1  7  1  0  0  0  0
  2 30  1  0  0  0  0
  2 11  2  0  0  0  0
  3 11  1  0  0  0  0
  3  4  1  0  0  0  0
  4 10  2  0  0  0  0
  5 26  1  1  0  0  0
  5  1  1  0  0  0  0
  6 13  2  0  0  0  0
  7  3  2  0  0  0  0
  8  5  1  0  0  0  0
  8 12  1  0  0  0  0
  9  2  1  0  0  0  0
 10 13  1  0  0  0  0
 11  6  1  0  0  0  0
 12  9  1  0  0  0  0
 14 20  1  0  0  0  0
 15 21  1  1  0  0  0
 18 24  1  1  0  0  0
 18 15  1  0  0  0  0
 19 22  2  0  0  0  0
 20 24  1  0  0  0  0
 22 23  1  0  0  0  0
 23 15  1  0  0  0  0
 23 17  1  6  0  0  0
 24 26  1  0  0  0  0
 25 27  1  0  0  0  0
 25 22  1  0  0  0  0
 26 16  2  0  0  0  0
 27 14  1  6  0  0  0
 27 18  1  0  0  0  0
 28 29  2  0  0  0  0
 28 30  1  0  0  0  0
 29 31  1  0  0  0  0
 30 33  2  0  0  0  0
 31 32  2  0  0  0  0
 33 32  1  0  0  0  0
M  END
>  <MODEL>
2

>  <REMARK>
 VINA RESULT:      -8.3      3.573      4.816
  Name = 
  2 active torsions:
  status: ('A' for Active; 'I' for Inactive)
    1  A    between atoms: C_4  and  C_18
    2  A    between atoms: C_11  and  C_30
                            x       y       z     vdW  Elec       q    Type
                         _______ _______ _______ _____ _____    ______ ____

>  <TORSDO>
F 2

$$$$
=
 OpenBabel11062418553D

 33 38  0  0  1  0  0  0  0  0999 V2000
  189.3470  175.2690  144.3280 C   0  0  0  0  0  0  0  0  0  0  0  0
  187.3770  176.6530  144.6770 C   0  0  0  0  0  0  0  0  0  0  0  0
  188.1350  176.0870  142.4110 C   0  0  0  0  0  0  0  0  0  0  0  0
  187.9860  176.1820  141.0270 C   0  0  0  0  0  3  0  0  0  0  0  0
  190.4230  174.4920  145.0030 C   0  0  2  0  0  3  0  0  0  0  0  0
  186.1960  177.5060  142.6870 C   0  0  0  0  0  3  0  0  0  0  0  0
  189.1900  175.3450  142.9420 C   0  0  0  0  0  3  0  0  0  0  0  0
  190.3970  174.8840  146.4800 C   0  0  0  0  0  2  0  0  0  0  0  0
  188.4510  175.8870  145.1780 C   0  0  0  0  0  0  0  0  0  0  0  0
  186.9390  176.9400  140.5030 C   0  0  0  0  0  3  0  0  0  0  0  0
  187.2250  176.7510  143.2700 C   0  0  0  0  0  0  0  0  0  0  0  0
  188.7500  175.5510  146.9070 S   0  0  0  0  0  0  0  0  0  0  0  0
  186.0760  177.5820  141.3340 N   0  0  0  0  0  0  0  0  0  0  0  0
  193.2340  171.7630  142.7890 C   0  0  0  0  0  2  0  0  0  0  0  0
  193.5580  175.2370  141.6760 C   0  0  1  0  0  3  0  0  0  0  0  0
  192.4130  175.7960  144.7660 O   0  0  0  0  0  0  0  0  0  0  0  0
  195.8050  176.1040  141.7940 F   0  0  0  0  0  0  0  0  0  0  0  0
  193.5600  174.1150  142.7120 C   0  0  1  0  0  3  0  0  0  0  0  0
  196.6860  173.8910  140.1360 O   0  0  0  0  0  0  0  0  0  0  0  0
  192.0590  172.4360  143.4990 C   0  0  0  0  0  2  0  0  0  0  0  0
  193.2160  176.4640  142.2460 O   0  0  0  0  0  1  0  0  0  0  0  0
  195.6200  173.9650  140.8020 C   0  0  0  0  0  0  0  0  0  0  0  0
  194.9640  175.3220  141.0200 C   0  0  1  0  0  3  0  0  0  0  0  0
  192.3250  173.8720  143.4380 N   0  0  0  0  0  0  0  0  0  0  0  0
  195.0760  172.7790  141.4030 N   0  0  0  0  0  2  0  0  0  0  0  0
  191.7730  174.7690  144.4110 C   0  0  0  0  0  0  0  0  0  0  0  0
  193.7160  172.8720  141.8950 C   0  0  1  0  0  3  0  0  0  0  0  0
  186.7250  178.5930  146.1140 C   0  0  0  0  0  3  0  0  0  0  0  0
  185.8350  179.2250  146.9880 C   0  0  0  0  0  3  0  0  0  0  0  0
  186.4340  177.3200  145.6030 C   0  0  0  0  0  0  0  0  0  0  0  0
  184.6470  178.5860  147.3560 C   0  0  0  0  0  3  0  0  0  0  0  0
  184.3490  177.3180  146.8500 C   0  0  0  0  0  3  0  0  0  0  0  0
  185.2390  176.6870  145.9760 C   0  0  0  0  0  3  0  0  0  0  0  0
  1  5  1  0  0  0  0
  1  9  1  0  0  0  0
  2  9  2  0  0  0  0
  2 30  1  0  0  0  0
  3  7  1  0  0  0  0
  3 11  1  0  0  0  0
  4  3  2  0  0  0  0
  5 26  1  6  0  0  0
  5  8  1  0  0  0  0
  6 11  2  0  0  0  0
  7  1  2  0  0  0  0
  8 12  1  0  0  0  0
  9 12  1  0  0  0  0
 10  4  1  0  0  0  0
 10 13  2  0  0  0  0
 11  2  1  0  0  0  0
 13  6  1  0  0  0  0
 14 20  1  0  0  0  0
 15 21  1  1  0  0  0
 15 18  1  0  0  0  0
 18 24  1  6  0  0  0
 19 22  2  0  0  0  0
 22 23  1  0  0  0  0
 22 25  1  0  0  0  0
 23 15  1  0  0  0  0
 23 17  1  1  0  0  0
 24 20  1  0  0  0  0
 24 26  1  0  0  0  0
 25 27  1  0  0  0  0
 26 16  2  0  0  0  0
 27 18  1  0  0  0  0
 27 14  1  1  0  0  0
 28 29  1  0  0  0  0
 29 31  2  0  0  0  0
 30 33  1  0  0  0  0
 30 28  2  0  0  0  0
 32 31  1  0  0  0  0
 33 32  2  0  0  0  0
M  END
>  <MODEL>
3

>  <REMARK>
 VINA RESULT:      -8.2      1.617      1.731
  Name = 
  2 active torsions:
  status: ('A' for Active; 'I' for Inactive)
    1  A    between atoms: C_4  and  C_18
    2  A    between atoms: C_11  and  C_30
                            x       y       z     vdW  Elec       q    Type
                         _______ _______ _______ _____ _____    ______ ____

>  <TORSDO>
F 2

$$$$
=
 OpenBabel11062418553D

 33 38  0  0  1  0  0  0  0  0999 V2000
  189.0590  175.2090  142.9760 C   0  0  0  0  0  0  0  0  0  0  0  0
  188.0130  176.5370  144.7250 C   0  0  0  0  0  0  0  0  0  0  0  0
  190.2460  175.5670  145.0440 C   0  0  0  0  0  0  0  0  0  0  0  0
  191.3710  175.3590  145.8420 C   0  0  0  0  0  3  0  0  0  0  0  0
  188.9060  174.6820  141.5920 C   0  0  2  0  0  3  0  0  0  0  0  0
  189.2440  176.8390  146.8400 C   0  0  0  0  0  3  0  0  0  0  0  0
  190.1960  175.0150  143.7640 C   0  0  0  0  0  3  0  0  0  0  0  0
  187.4420  174.8840  141.1970 C   0  0  0  0  0  2  0  0  0  0  0  0
  188.0010  175.9700  143.4320 C   0  0  0  0  0  0  0  0  0  0  0  0
  191.4070  175.9010  147.1270 C   0  0  0  0  0  3  0  0  0  0  0  0
  189.1560  176.3260  145.5370 C   0  0  0  0  0  0  0  0  0  0  0  0
  186.7100  176.2090  142.2210 S   0  0  0  0  0  0  0  0  0  0  0  0
  190.3530  176.6200  147.5960 N   0  0  0  0  0  0  0  0  0  0  0  0
  191.2170  172.4830  138.4180 C   0  0  0  0  0  2  0  0  0  0  0  0
  191.6620  170.9610  141.7200 C   0  0  1  0  0  3  0  0  0  0  0  0
  188.6760  172.3830  142.2110 O   0  0  0  0  0  0  0  0  0  0  0  0
  191.1320  168.6100  141.7990 F   0  0  0  0  0  0  0  0  0  0  0  0
  190.8440  171.4640  140.5320 C   0  0  1  0  0  3  0  0  0  0  0  0
  193.0360  168.1660  139.6550 O   0  0  0  0  0  0  0  0  0  0  0  0
  190.5430  173.5060  139.3330 C   0  0  0  0  0  2  0  0  0  0  0  0
  190.9300  171.0130  142.9060 O   0  0  0  0  0  1  0  0  0  0  0  0
  192.4970  169.2560  139.9790 C   0  0  0  0  0  0  0  0  0  0  0  0
  192.1240  169.5050  141.4340 C   0  0  1  0  0  3  0  0  0  0  0  0
  190.3210  172.8180  140.6050 N   0  0  0  0  0  0  0  0  0  0  0  0
  192.1800  170.2200  138.9630 N   0  0  0  0  0  2  0  0  0  0  0  0
  189.2780  173.2320  141.4970 C   0  0  0  0  0  0  0  0  0  0  0  0
  191.8420  171.5520  139.4210 C   0  0  1  0  0  3  0  0  0  0  0  0
  185.9350  176.7840  146.0950 C   0  0  0  0  0  3  0  0  0  0  0  0
  184.8500  177.5400  146.5480 C   0  0  0  0  0  3  0  0  0  0  0  0
  186.8640  177.3390  145.2030 C   0  0  0  0  0  0  0  0  0  0  0  0
  184.6880  178.8590  146.1120 C   0  0  0  0  0  3  0  0  0  0  0  0
  185.6110  179.4200  145.2240 C   0  0  0  0  0  3  0  0  0  0  0  0
  186.6950  178.6630  144.7710 C   0  0  0  0  0  3  0  0  0  0  0  0
  1  9  2  0  0  0  0
  1  7  1  0  0  0  0
  2 30  1  0  0  0  0
  2 11  2  0  0  0  0
  3 11  1  0  0  0  0
  3  4  1  0  0  0  0
  4 10  2  0  0  0  0
  5 26  1  1  0  0  0
  5  1  1  0  0  0  0
  6 13  2  0  0  0  0
  7  3  2  0  0  0  0
  8  5  1  0  0  0  0
  8 12  1  0  0  0  0
  9  2  1  0  0  0  0
 10 13  1  0  0  0  0
 11  6  1  0  0  0  0
 12  9  1  0  0  0  0
 14 20  1  0  0  0  0
 15 21  1  1  0  0  0
 18 24  1  1  0  0  0
 18 15  1  0  0  0  0
 19 22  2  0  0  0  0
 20 24  1  0  0  0  0
 22 23  1  0  0  0  0
 23 15  1  0  0  0  0
 23 17  1  6  0  0  0
 24 26  1  0  0  0  0
 25 27  1  0  0  0  0
 25 22  1  0  0  0  0
 26 16  2  0  0  0  0
 27 14  1  6  0  0  0
 27 18  1  0  0  0  0
 28 29  1  0  0  0  0
 30 28  2  0  0  0  0
 31 29  2  0  0  0  0
 32 31  1  0  0  0  0
 33 30  1  0  0  0  0
 33 32  2  0  0  0  0
M  END
>  <MODEL>
4

>  <REMARK>
 VINA RESULT:      -7.8      3.995      5.451
  Name = 
  2 active torsions:
  status: ('A' for Active; 'I' for Inactive)
    1  A    between atoms: C_4  and  C_18
    2  A    between atoms: C_11  and  C_30
                            x       y       z     vdW  Elec       q    Type
                         _______ _______ _______ _____ _____    ______ ____

>  <TORSDO>
F 2

$$$$
=
 OpenBabel11062418553D

 33 38  0  0  1  0  0  0  0  0999 V2000
  188.9700  175.3620  143.6380 C   0  0  0  0  0  0  0  0  0  0  0  0
  187.1440  176.8250  144.3020 C   0  0  0  0  0  0  0  0  0  0  0  0
  187.6480  176.4340  141.9310 C   0  0  0  0  0  0  0  0  0  0  0  0
  187.3780  176.6710  140.5830 C   0  0  0  0  0  3  0  0  0  0  0  0
  190.0470  174.4590  144.1310 C   0  0  2  0  0  3  0  0  0  0  0  0
  185.8470  177.9360  142.5230 C   0  0  0  0  0  3  0  0  0  0  0  0
  188.6920  175.5800  142.2870 C   0  0  0  0  0  3  0  0  0  0  0  0
  190.1860  174.7080  145.6330 C   0  0  0  0  0  2  0  0  0  0  0  0
  188.2030  175.9500  144.6250 C   0  0  0  0  0  0  0  0  0  0  0  0
  186.3430  177.5390  140.2350 C   0  0  0  0  0  3  0  0  0  0  0  0
  186.8700  177.0670  142.9320 C   0  0  0  0  0  0  0  0  0  0  0  0
  188.6360  175.4320  146.2780 S   0  0  0  0  0  0  0  0  0  0  0  0
  185.6080  178.1490  141.2010 N   0  0  0  0  0  0  0  0  0  0  0  0
  193.4610  177.1650  145.2560 C   0  0  0  0  0  2  0  0  0  0  0  0
  194.6160  174.2220  143.4070 C   0  0  1  0  0  3  0  0  0  0  0  0
  191.4910  174.3740  142.2270 O   0  0  0  0  0  0  0  0  0  0  0  0
  195.9300  174.7410  141.4530 F   0  0  0  0  0  0  0  0  0  0  0  0
  193.7770  175.4830  143.6090 C   0  0  1  0  0  3  0  0  0  0  0  0
  197.7270  176.2750  143.1380 O   0  0  0  0  0  0  0  0  0  0  0  0
  192.1930  176.3150  145.1880 C   0  0  0  0  0  2  0  0  0  0  0  0
  193.9830  173.3150  142.5560 O   0  0  0  0  0  1  0  0  0  0  0  0
  196.5480  175.9260  143.4040 C   0  0  0  0  0  0  0  0  0  0  0  0
  196.0020  174.6250  142.8310 C   0  0  1  0  0  3  0  0  0  0  0  0
  192.4370  175.3160  144.1480 N   0  0  0  0  0  0  0  0  0  0  0  0
  195.7120  176.7930  144.1870 N   0  0  0  0  0  2  0  0  0  0  0  0
  191.3520  174.7080  143.4360 C   0  0  0  0  0  0  0  0  0  0  0  0
  194.4870  176.2150  144.7030 C   0  0  1  0  0  3  0  0  0  0  0  0
  186.7090  178.7070  145.8910 C   0  0  0  0  0  3  0  0  0  0  0  0
  185.9500  179.3050  146.9020 C   0  0  0  0  0  3  0  0  0  0  0  0
  186.3400  177.4570  145.3730 C   0  0  0  0  0  0  0  0  0  0  0  0
  184.8160  178.6560  147.4000 C   0  0  0  0  0  3  0  0  0  0  0  0
  184.4410  177.4110  146.8870 C   0  0  0  0  0  3  0  0  0  0  0  0
  185.2000  176.8130  145.8780 C   0  0  0  0  0  3  0  0  0  0  0  0
  1  5  1  0  0  0  0
  1  9  1  0  0  0  0
  2  9  2  0  0  0  0
  2 30  1  0  0  0  0
  3  7  1  0  0  0  0
  3 11  1  0  0  0  0
  4  3  2  0  0  0  0
  5 26  1  6  0  0  0
  5  8  1  0  0  0  0
  6 11  2  0  0  0  0
  7  1  2  0  0  0  0
  8 12  1  0  0  0  0
  9 12  1  0  0  0  0
 10  4  1  0  0  0  0
 10 13  2  0  0  0  0
 11  2  1  0  0  0  0
 13  6  1  0  0  0  0
 15 21  1  6  0  0  0
 15 18  1  0  0  0  0
 16 26  2  0  0  0  0
 18 24  1  1  0  0  0
 18 27  1  0  0  0  0
 19 22  2  0  0  0  0
 20 14  1  0  0  0  0
 22 25  1  0  0  0  0
 23 17  1  6  0  0  0
 23 22  1  0  0  0  0
 23 15  1  0  0  0  0
 24 20  1  0  0  0  0
 25 27  1  0  0  0  0
 26 24  1  0  0  0  0
 27 14  1  6  0  0  0
 28 29  1  0  0  0  0
 29 31  2  0  0  0  0
 30 33  1  0  0  0  0
 30 28  2  0  0  0  0
 32 31  1  0  0  0  0
 33 32  2  0  0  0  0
M  END
>  <MODEL>
5

>  <REMARK>
 VINA RESULT:      -7.8      1.875      2.408
  Name = 
  2 active torsions:
  status: ('A' for Active; 'I' for Inactive)
    1  A    between atoms: C_4  and  C_18
    2  A    between atoms: C_11  and  C_30
                            x       y       z     vdW  Elec       q    Type
                         _______ _______ _______ _____ _____    ______ ____

>  <TORSDO>
F 2

$$$$
=
 OpenBabel11062418553D

 33 38  0  0  1  0  0  0  0  0999 V2000
  191.9120  175.2930  143.9060 C   0  0  0  0  0  0  0  0  0  0  0  0
  193.3410  173.3250  143.9350 C   0  0  0  0  0  0  0  0  0  0  0  0
  191.0200  173.1850  143.1480 C   0  0  0  0  0  0  0  0  0  0  0  0
  189.9570  172.4330  142.6460 C   0  0  0  0  0  3  0  0  0  0  0  0
  191.8480  176.7550  144.1790 C   0  0  2  0  0  3  0  0  0  0  0  0
  192.3740  171.1810  143.1940 C   0  0  0  0  0  3  0  0  0  0  0  0
  190.8500  174.5490  143.3840 C   0  0  0  0  0  3  0  0  0  0  0  0
  193.1020  177.1150  144.9770 C   0  0  0  0  0  2  0  0  0  0  0  0
  193.1360  174.7040  144.1540 C   0  0  0  0  0  0  0  0  0  0  0  0
  190.1290  171.0670  142.4270 C   0  0  0  0  0  3  0  0  0  0  0  0
  192.2610  172.5600  143.4250 C   0  0  0  0  0  0  0  0  0  0  0  0
  194.3940  175.8550  144.6840 S   0  0  0  0  0  0  0  0  0  0  0  0
  191.3200  170.4740  142.7050 N   0  0  0  0  0  0  0  0  0  0  0  0
  187.9410  178.4530  142.7310 C   0  0  0  0  0  2  0  0  0  0  0  0
  187.4960  176.3830  145.7190 C   0  0  1  0  0  3  0  0  0  0  0  0
  190.6780  177.2890  146.1950 O   0  0  0  0  0  0  0  0  0  0  0  0
  186.3650  177.5010  147.5320 F   0  0  0  0  0  0  0  0  0  0  0  0
  188.0960  177.5350  144.9170 C   0  0  1  0  0  3  0  0  0  0  0  0
  184.1580  178.0640  145.7340 O   0  0  0  0  0  0  0  0  0  0  0  0
  189.3250  177.8250  142.8930 C   0  0  0  0  0  2  0  0  0  0  0  0
  188.3610  175.9510  146.7250 O   0  0  0  0  0  1  0  0  0  0  0  0
  185.3360  177.7540  145.4180 C   0  0  0  0  0  0  0  0  0  0  0  0
  186.1450  176.8440  146.3330 C   0  0  1  0  0  3  0  0  0  0  0  0
  189.3690  177.3000  144.2560 N   0  0  0  0  0  0  0  0  0  0  0  0
  185.9240  178.3180  144.2350 N   0  0  0  0  0  2  0  0  0  0  0  0
  190.6150  177.1310  144.9450 C   0  0  0  0  0  0  0  0  0  0  0  0
  187.1510  177.7040  143.7690 C   0  0  1  0  0  3  0  0  0  0  0  0
  195.6290  172.6180  143.2130 C   0  0  0  0  0  3  0  0  0  0  0  0
  196.8720  172.0350  143.4810 C   0  0  0  0  0  3  0  0  0  0  0  0
  194.6570  172.7070  144.2200 C   0  0  0  0  0  0  0  0  0  0  0  0
  197.1490  171.5390  144.7580 C   0  0  0  0  0  3  0  0  0  0  0  0
  196.1850  171.6260  145.7670 C   0  0  0  0  0  3  0  0  0  0  0  0
  194.9440  172.2080  145.4990 C   0  0  0  0  0  3  0  0  0  0  0  0
  1  9  1  0  0  0  0
  1  5  1  0  0  0  0
  2  9  2  0  0  0  0
  2 30  1  0  0  0  0
  3  7  1  0  0  0  0
  3 11  1  0  0  0  0
  4  3  2  0  0  0  0
  5 26  1  1  0  0  0
  5  8  1  0  0  0  0
  6 11  2  0  0  0  0
  7  1  2  0  0  0  0
  9 12  1  0  0  0  0
 10  4  1  0  0  0  0
 10 13  2  0  0  0  0
 11  2  1  0  0  0  0
 12  8  1  0  0  0  0
 13  6  1  0  0  0  0
 14 20  1  0  0  0  0
 15 23  1  0  0  0  0
 15 21  1  1  0  0  0
 18 24  1  6  0  0  0
 18 15  1  0  0  0  0
 20 24  1  0  0  0  0
 22 19  2  0  0  0  0
 22 23  1  0  0  0  0
 23 17  1  1  0  0  0
 24 26  1  0  0  0  0
 25 22  1  0  0  0  0
 26 16  2  0  0  0  0
 27 14  1  6  0  0  0
 27 25  1  0  0  0  0
 27 18  1  0  0  0  0
 28 29  2  0  0  0  0
 28 30  1  0  0  0  0
 29 31  1  0  0  0  0
 30 33  2  0  0  0  0
 31 32  2  0  0  0  0
 33 32  1  0  0  0  0
M  END
>  <MODEL>
6

>  <REMARK>
 VINA RESULT:      -7.8      3.606      8.346
  Name = 
  2 active torsions:
  status: ('A' for Active; 'I' for Inactive)
    1  A    between atoms: C_4  and  C_18
    2  A    between atoms: C_11  and  C_30
                            x       y       z     vdW  Elec       q    Type
                         _______ _______ _______ _____ _____    ______ ____

>  <TORSDO>
F 2

$$$$
=
 OpenBabel11062418553D

 33 38  0  0  1  0  0  0  0  0999 V2000
  192.3460  175.9820  144.1890 C   0  0  0  0  0  0  0  0  0  0  0  0
  194.3260  174.5680  144.1780 C   0  0  0  0  0  0  0  0  0  0  0  0
  193.8090  176.0290  142.2730 C   0  0  0  0  0  0  0  0  0  0  0  0
  194.1220  176.5170  141.0040 C   0  0  0  0  0  3  0  0  0  0  0  0
  191.1630  176.4130  144.9840 C   0  0  2  0  0  3  0  0  0  0  0  0
  195.7690  174.6150  142.1790 C   0  0  0  0  0  3  0  0  0  0  0  0
  192.6650  176.4880  142.9270 C   0  0  0  0  0  3  0  0  0  0  0  0
  191.0360  175.4410  146.1580 C   0  0  0  0  0  2  0  0  0  0  0  0
  193.1660  175.0610  144.8130 C   0  0  0  0  0  0  0  0  0  0  0  0
  195.2570  176.0410  140.3490 C   0  0  0  0  0  3  0  0  0  0  0  0
  194.6440  175.0630  142.8880 C   0  0  0  0  0  0  0  0  0  0  0  0
  192.6530  174.6490  146.4730 S   0  0  0  0  0  0  0  0  0  0  0  0
  196.0480  175.1070  140.9420 N   0  0  0  0  0  0  0  0  0  0  0  0
  186.9560  177.5220  146.1340 C   0  0  0  0  0  2  0  0  0  0  0  0
  187.6190  178.2010  142.5970 C   0  0  1  0  0  3  0  0  0  0  0  0
  189.8650  175.7730  143.0800 O   0  0  0  0  0  0  0  0  0  0  0  0
  186.0540  177.1620  141.0850 F   0  0  0  0  0  0  0  0  0  0  0  0
  187.5420  177.3190  143.8410 C   0  0  1  0  0  3  0  0  0  0  0  0
  183.8940  178.4810  142.5050 O   0  0  0  0  0  0  0  0  0  0  0  0
  188.4640  177.2850  146.0420 C   0  0  0  0  0  2  0  0  0  0  0  0
  188.5730  177.7330  141.6930 O   0  0  0  0  0  1  0  0  0  0  0  0
  185.0640  178.2800  142.9200 C   0  0  0  0  0  0  0  0  0  0  0  0
  186.2180  178.2500  141.9260 C   0  0  1  0  0  3  0  0  0  0  0  0
  188.7600  177.1470  144.6170 N   0  0  0  0  0  0  0  0  0  0  0  0
  185.2870  178.0140  144.3130 N   0  0  0  0  0  2  0  0  0  0  0  0
  189.9060  176.4130  144.1660 C   0  0  0  0  0  0  0  0  0  0  0  0
  186.6590  178.0870  144.7730 C   0  0  1  0  0  3  0  0  0  0  0  0
  194.8840  172.2050  144.7760 C   0  0  0  0  0  3  0  0  0  0  0  0
  195.6960  171.2630  145.4150 C   0  0  0  0  0  3  0  0  0  0  0  0
  195.1860  173.5720  144.8560 C   0  0  0  0  0  0  0  0  0  0  0  0
  196.8160  171.6840  146.1380 C   0  0  0  0  0  3  0  0  0  0  0  0
  197.1250  173.0440  146.2210 C   0  0  0  0  0  3  0  0  0  0  0  0
  196.3130  173.9850  145.5830 C   0  0  0  0  0  3  0  0  0  0  0  0
  1  9  1  0  0  0  0
  1  5  1  0  0  0  0
  2  9  2  0  0  0  0
  2 30  1  0  0  0  0
  3 11  1  0  0  0  0
  3  7  1  0  0  0  0
  4  3  2  0  0  0  0
  5 26  1  6  0  0  0
  5  8  1  0  0  0  0
  6 11  2  0  0  0  0
  7  1  2  0  0  0  0
  8 12  1  0  0  0  0
  9 12  1  0  0  0  0
 10 13  2  0  0  0  0
 10  4  1  0  0  0  0
 11  2  1  0  0  0  0
 13  6  1  0  0  0  0
 15 21  1  6  0  0  0
 15 18  1  0  0  0  0
 16 26  2  0  0  0  0
 18 24  1  1  0  0  0
 18 27  1  0  0  0  0
 19 22  2  0  0  0  0
 20 14  1  0  0  0  0
 22 25  1  0  0  0  0
 23 17  1  6  0  0  0
 23 15  1  0  0  0  0
 23 22  1  0  0  0  0
 24 20  1  0  0  0  0
 25 27  1  0  0  0  0
 26 24  1  0  0  0  0
 27 14  1  1  0  0  0
 28 30  2  0  0  0  0
 28 29  1  0  0  0  0
 29 31  2  0  0  0  0
 30 33  1  0  0  0  0
 31 32  1  0  0  0  0
 33 32  2  0  0  0  0
M  END
>  <MODEL>
7

>  <REMARK>
 VINA RESULT:      -7.6      3.503      8.558
  Name = 
  2 active torsions:
  status: ('A' for Active; 'I' for Inactive)
    1  A    between atoms: C_4  and  C_18
    2  A    between atoms: C_11  and  C_30
                            x       y       z     vdW  Elec       q    Type
                         _______ _______ _______ _____ _____    ______ ____

>  <TORSDO>
F 2

$$$$
=
 OpenBabel11062418553D

 33 38  0  0  1  0  0  0  0  0999 V2000
  190.2750  175.9550  142.6580 C   0  0  0  0  0  0  0  0  0  0  0  0
  192.1860  174.7080  143.5000 C   0  0  0  0  0  0  0  0  0  0  0  0
  190.2670  173.5500  142.4980 C   0  0  0  0  0  0  0  0  0  0  0  0
  189.6300  172.3660  142.1250 C   0  0  0  0  0  3  0  0  0  0  0  0
  189.7090  177.3150  142.4420 C   0  0  2  0  0  3  0  0  0  0  0  0
  192.1150  172.2470  143.3570 C   0  0  0  0  0  3  0  0  0  0  0  0
  189.6410  174.7740  142.2640 C   0  0  0  0  0  3  0  0  0  0  0  0
  190.5720  178.2910  143.2420 C   0  0  0  0  0  2  0  0  0  0  0  0
  191.5270  175.9290  143.2410 C   0  0  0  0  0  0  0  0  0  0  0  0
  190.2540  171.1440  142.3770 C   0  0  0  0  0  3  0  0  0  0  0  0
  191.5390  173.5040  143.1220 C   0  0  0  0  0  0  0  0  0  0  0  0
  192.2170  177.5490  143.5390 S   0  0  0  0  0  0  0  0  0  0  0  0
  191.4700  171.1100  142.9840 N   0  0  0  0  0  0  0  0  0  0  0  0
  187.8340  176.4350  146.4370 C   0  0  0  0  0  2  0  0  0  0  0  0
  186.0070  179.0420  144.6250 C   0  0  1  0  0  3  0  0  0  0  0  0
  187.3610  177.4570  142.0120 O   0  0  0  0  0  0  0  0  0  0  0  0
  183.6560  178.5830  144.3450 F   0  0  0  0  0  0  0  0  0  0  0  0
  186.6170  177.6520  144.8000 C   0  0  1  0  0  3  0  0  0  0  0  0
  183.4280  178.2910  147.2230 O   0  0  0  0  0  0  0  0  0  0  0  0
  188.7610  176.7100  145.2530 C   0  0  0  0  0  2  0  0  0  0  0  0
  185.9410  179.4100  143.2810 O   0  0  0  0  0  1  0  0  0  0  0  0
  184.4790  178.2310  146.5350 C   0  0  0  0  0  0  0  0  0  0  0  0
  184.5870  179.0530  145.2570 C   0  0  1  0  0  3  0  0  0  0  0  0
  187.9550  177.4380  144.2740 N   0  0  0  0  0  0  0  0  0  0  0  0
  185.5340  177.3380  146.9260 N   0  0  0  0  0  2  0  0  0  0  0  0
  188.2760  177.4040  142.8780 C   0  0  0  0  0  0  0  0  0  0  0  0
  186.8150  177.5300  146.2770 C   0  0  1  0  0  3  0  0  0  0  0  0
  193.6400  174.7450  145.5340 C   0  0  0  0  0  3  0  0  0  0  0  0
  194.9010  174.7350  146.1380 C   0  0  0  0  0  3  0  0  0  0  0  0
  193.5220  174.6980  144.1380 C   0  0  0  0  0  0  0  0  0  0  0  0
  196.0530  174.6760  145.3470 C   0  0  0  0  0  3  0  0  0  0  0  0
  195.9430  174.6270  143.9550 C   0  0  0  0  0  3  0  0  0  0  0  0
  194.6830  174.6380  143.3520 C   0  0  0  0  0  3  0  0  0  0  0  0
  1  9  1  0  0  0  0
  2 30  1  0  0  0  0
  3 11  1  0  0  0  0
  4 10  1  0  0  0  0
  4  3  2  0  0  0  0
  5  1  1  0  0  0  0
  5 26  1  1  0  0  0
  5  8  1  0  0  0  0
  7  3  1  0  0  0  0
  7  1  2  0  0  0  0
  8 12  1  0  0  0  0
  9  2  2  0  0  0  0
  9 12  1  0  0  0  0
 10 13  2  0  0  0  0
 11  6  2  0  0  0  0
 11  2  1  0  0  0  0
 13  6  1  0  0  0  0
 15 21  1  6  0  0  0
 15 18  1  0  0  0  0
 15 23  1  0  0  0  0
 16 26  2  0  0  0  0
 18 24  1  6  0  0  0
 18 27  1  0  0  0  0
 20 14  1  0  0  0  0
 22 25  1  0  0  0  0
 22 19  2  0  0  0  0
 23 17  1  6  0  0  0
 23 22  1  0  0  0  0
 24 20  1  0  0  0  0
 26 24  1  0  0  0  0
 27 14  1  6  0  0  0
 27 25  1  0  0  0  0
 28 29  1  0  0  0  0
 30 28  2  0  0  0  0
 31 29  2  0  0  0  0
 32 31  1  0  0  0  0
 33 32  2  0  0  0  0
 33 30  1  0  0  0  0
M  END
>  <MODEL>
8

>  <REMARK>
 VINA RESULT:      -7.5      4.120      8.323
  Name = 
  2 active torsions:
  status: ('A' for Active; 'I' for Inactive)
    1  A    between atoms: C_4  and  C_18
    2  A    between atoms: C_11  and  C_30
                            x       y       z     vdW  Elec       q    Type
                         _______ _______ _______ _____ _____    ______ ____

>  <TORSDO>
F 2

$$$$
=
 OpenBabel11062418553D

 33 38  0  0  1  0  0  0  0  0999 V2000
  190.5100  175.4680  143.6450 C   0  0  0  0  0  0  0  0  0  0  0  0
  188.8490  176.6080  145.0080 C   0  0  0  0  0  0  0  0  0  0  0  0
  191.1450  176.2940  145.8190 C   0  0  0  0  0  0  0  0  0  0  0  0
  192.1090  176.4580  146.8150 C   0  0  0  0  0  3  0  0  0  0  0  0
  190.7650  174.8090  142.3350 C   0  0  2  0  0  3  0  0  0  0  0  0
  189.5300  177.3960  147.2430 C   0  0  0  0  0  3  0  0  0  0  0  0
  191.4840  175.6470  144.6310 C   0  0  0  0  0  3  0  0  0  0  0  0
  189.4030  174.5830  141.6770 C   0  0  0  0  0  2  0  0  0  0  0  0
  189.2290  175.9550  143.8160 C   0  0  0  0  0  0  0  0  0  0  0  0
  191.7580  177.0920  148.0080 C   0  0  0  0  0  3  0  0  0  0  0  0
  189.8270  176.7740  146.0210 C   0  0  0  0  0  0  0  0  0  0  0  0
  188.1820  175.7450  142.3850 S   0  0  0  0  0  0  0  0  0  0  0  0
  190.4890  177.5410  148.1970 N   0  0  0  0  0  0  0  0  0  0  0  0
  195.0110  173.7220  141.3150 C   0  0  0  0  0  2  0  0  0  0  0  0
  193.7590  171.7800  144.1560 C   0  0  1  0  0  3  0  0  0  0  0  0
  190.8410  172.4420  142.6650 O   0  0  0  0  0  0  0  0  0  0  0  0
  193.9500  169.3930  143.8780 F   0  0  0  0  0  0  0  0  0  0  0  0
  193.7290  172.2990  142.7200 C   0  0  1  0  0  3  0  0  0  0  0  0
  196.7930  169.7320  143.4070 O   0  0  0  0  0  0  0  0  0  0  0  0
  193.6750  174.4080  141.6050 C   0  0  0  0  0  2  0  0  0  0  0  0
  192.4790  171.4730  144.6190 O   0  0  0  0  0  1  0  0  0  0  0  0
  195.8990  170.6130  143.3230 C   0  0  0  0  0  0  0  0  0  0  0  0
  194.6710  170.5240  144.2210 C   0  0  1  0  0  3  0  0  0  0  0  0
  192.9260  173.4810  142.4510 N   0  0  0  0  0  0  0  0  0  0  0  0
  196.0150  171.6500  142.3360 N   0  0  0  0  0  2  0  0  0  0  0  0
  191.4940  173.5080  142.4910 C   0  0  0  0  0  0  0  0  0  0  0  0
  195.1240  172.7840  142.4840 C   0  0  1  0  0  3  0  0  0  0  0  0
  187.0600  178.2900  144.5380 C   0  0  0  0  0  3  0  0  0  0  0  0
  185.7550  178.7680  144.6990 C   0  0  0  0  0  3  0  0  0  0  0  0
  187.4670  177.1120  145.1800 C   0  0  0  0  0  0  0  0  0  0  0  0
  184.8500  178.0680  145.5030 C   0  0  0  0  0  3  0  0  0  0  0  0
  185.2490  176.8920  146.1450 C   0  0  0  0  0  3  0  0  0  0  0  0
  186.5530  176.4160  145.9840 C   0  0  0  0  0  3  0  0  0  0  0  0
  1  9  2  0  0  0  0
  1  7  1  0  0  0  0
  2 30  1  0  0  0  0
  2 11  2  0  0  0  0
  3 11  1  0  0  0  0
  3  4  1  0  0  0  0
  4 10  2  0  0  0  0
  5 26  1  1  0  0  0
  5  1  1  0  0  0  0
  6 13  2  0  0  0  0
  7  3  2  0  0  0  0
  8  5  1  0  0  0  0
  8 12  1  0  0  0  0
  9  2  1  0  0  0  0
 10 13  1  0  0  0  0
 11  6  1  0  0  0  0
 12  9  1  0  0  0  0
 14 20  1  0  0  0  0
 15 23  1  0  0  0  0
 15 21  1  6  0  0  0
 18 24  1  1  0  0  0
 18 15  1  0  0  0  0
 20 24  1  0  0  0  0
 22 19  2  0  0  0  0
 22 23  1  0  0  0  0
 23 17  1  6  0  0  0
 24 26  1  0  0  0  0
 25 27  1  0  0  0  0
 25 22  1  0  0  0  0
 26 16  2  0  0  0  0
 27 14  1  6  0  0  0
 27 18  1  0  0  0  0
 28 29  2  0  0  0  0
 28 30  1  0  0  0  0
 29 31  1  0  0  0  0
 30 33  2  0  0  0  0
 31 32  2  0  0  0  0
 33 32  1  0  0  0  0
M  END
>  <MODEL>
9

>  <REMARK>
 VINA RESULT:      -7.4      2.883      4.258
  Name = 
  2 active torsions:
  status: ('A' for Active; 'I' for Inactive)
    1  A    between atoms: C_4  and  C_18
    2  A    between atoms: C_11  and  C_30
                            x       y       z     vdW  Elec       q    Type
                         _______ _______ _______ _____ _____    ______ ____

>  <TORSDO>
F 2

$$$$
