=
 OpenBabel11062420413D

 60 63  0  0  1  0  0  0  0  0999 V2000
  190.9540  170.9910  141.3530 C   0  0  2  0  0  3  0  0  0  0  0  0
  190.7930  170.9660  138.8600 C   0  0  0  0  0  2  0  0  0  0  0  0
  190.1880  171.5120  140.1420 C   0  0  0  0  0  2  0  0  0  0  0  0
  191.5400  168.9040  140.0430 C   0  0  0  0  0  2  0  0  0  0  0  0
  190.9770  169.4540  141.3530 C   0  0  1  0  0  3  0  0  0  0  0  0
  190.7580  169.4400  138.8500 C   0  0  2  0  0  3  0  0  0  0  0  0
  191.7420  168.9840  142.4030 F   0  0  0  0  0  0  0  0  0  0  0  0
  190.2670  171.4960  142.6110 C   0  0  0  0  0  2  0  0  0  0  0  0
  190.6010  172.8980  142.8360 N   0  0  0  0  0  2  0  0  0  0  0  0
  189.5810  173.4710  143.7030 C   0  0  0  0  0  2  0  0  0  0  0  0
  189.9410  173.2670  145.1670 C   0  0  0  0  0  2  0  0  0  0  0  0
  190.7460  174.4460  145.6990 C   0  0  0  0  0  2  0  0  0  0  0  0
  190.2700  175.7370  145.0770 C   0  0  0  0  0  2  0  0  0  0  0  0
  191.3660  176.7780  145.1350 C   0  0  0  0  0  2  0  0  0  0  0  0
  191.6490  177.3410  143.7520 C   0  0  0  0  0  2  0  0  0  0  0  0
  190.5800  176.8880  142.7670 C   0  0  0  0  0  2  0  0  0  0  0  0
  189.5230  177.9220  142.5890 C   0  0  0  0  0  2  0  0  0  0  0  0
  188.6060  177.8210  141.6230 C   0  0  0  0  0  2  0  0  0  0  0  0
  187.5340  178.0740  140.7950 O   0  0  0  0  0  0  0  0  0  0  0  0
  186.2240  177.6350  141.1190 C   0  0  0  0  0  2  0  0  0  0  0  0
  185.7850  176.3840  143.0980 O   0  0  0  0  0  0  0  0  0  0  0  0
  186.2480  178.6590  143.4370 N   0  0  0  0  0  2  0  0  0  0  0  0
  186.0780  177.5020  142.5990 C   0  0  0  0  0  0  0  0  0  0  0  0
  184.6590  178.1230  146.8330 C   0  0  1  0  0  3  0  0  0  0  0  0
  187.6540  176.0440  147.0760 O   0  0  0  0  0  0  0  0  0  0  0  0
  186.8480  176.8570  146.6420 C   0  0  0  0  0  0  0  0  0  0  0  0
  187.2580  177.7040  145.4580 C   0  0  0  0  0  2  0  0  0  0  0  0
  186.1700  178.6310  144.8940 C   0  0  2  0  0  3  0  0  0  0  0  0
  184.7460  178.2890  145.3260 C   0  0  0  0  0  2  0  0  0  0  0  0
  185.4850  176.9220  147.2790 C   0  0  0  0  0  2  0  0  0  0  0  0
  185.0770  179.2850  147.4940 O   0  0  0  0  0  1  0  0  0  0  0  0
  191.3700  168.9790  137.6060 N   0  0  0  0  0  2  0  0  0  0  0  0
  192.2070  170.0450  137.0330 C   0  0  0  0  0  2  0  0  0  0  0  0
  193.6000  169.6160  136.9100 N   0  0  0  0  0  2  0  0  0  0  0  0
  194.3600  170.3380  137.8410 N   0  0  0  0  0  2  0  0  0  0  0  0
  194.3860  171.7240  137.4020 C   0  0  1  0  0  3  0  0  0  0  0  0
  196.2330  174.1260  139.7280 C   0  0  0  0  0  3  0  0  0  0  0  0
  193.9250  173.9610  140.4430 C   0  0  0  0  0  3  0  0  0  0  0  0
  194.7020  172.6660  138.5400 C   0  0  0  0  0  0  0  0  0  0  0  0
  195.9780  173.2230  138.6910 C   0  0  0  0  0  3  0  0  0  0  0  0
  195.2130  174.4910  140.6170 C   0  0  0  0  0  0  0  0  0  0  0  0
  193.6770  173.0470  139.4140 C   0  0  0  0  0  3  0  0  0  0  0  0
  195.8030  175.0400  142.8910 O   0  0  0  0  0  1  0  0  0  0  0  0
  195.4630  175.4580  141.6480 N   0  0  0  0  0  0  0  0  0  0  0  0
  195.7340  176.7810  141.2940 N   0  0  0  0  0  1  0  0  0  0  0  0
  195.3840  171.8620  136.3510 N   0  0  0  0  0  2  0  0  0  0  0  0
  195.7620  173.4480  134.5420 C   0  0  0  0  0  1  0  0  0  0  0  0
  194.7740  172.5010  135.1920 C   0  0  2  0  0  3  0  0  0  0  0  0
  190.6090  174.4460  135.7100 C   0  0  0  0  0  0  0  0  0  0  0  0
  193.8190  174.7780  135.5810 C   0  0  0  0  0  2  0  0  0  0  0  0
  191.0670  176.7500  134.8640 C   0  0  0  0  0  1  0  0  0  0  0  0
  193.2290  176.8980  136.4930 F   0  0  0  0  0  0  0  0  0  0  0  0
  192.7750  175.5960  136.3390 C   0  0  1  0  0  3  0  0  0  0  0  0
  193.5210  173.2790  135.6040 C   0  0  1  0  0  3  0  0  0  0  0  0
  192.3470  172.9620  134.6670 C   0  0  0  0  0  2  0  0  0  0  0  0
  191.0110  173.2380  135.2980 C   0  0  0  0  0  3  0  0  0  0  0  0
  191.4890  175.5870  135.6240 N   0  0  0  0  0  0  0  0  0  0  0  0
  188.9190  174.1300  137.5020 O   0  0  0  0  0  1  0  0  0  0  0  0
  188.3350  175.0650  135.5040 O   0  0  0  0  0  0  0  0  0  0  0  0
  189.2460  174.6030  136.2400 C   0  0  0  0  0  0  0  0  0  0  0  0
  1  5  1  0  0  0  0
  1  8  1  1  0  0  0
  2  3  1  0  0  0  0
  3  1  1  0  0  0  0
  4  5  1  0  0  0  0
  5  7  1  1  0  0  0
  6 32  1  6  0  0  0
  6  2  1  0  0  0  0
  6  4  1  0  0  0  0
  8  9  1  0  0  0  0
  9 10  1  0  0  0  0
 10 11  1  0  0  0  0
 11 12  1  0  0  0  0
 13 14  1  0  0  0  0
 13 12  1  0  0  0  0
 15 14  1  0  0  0  0
 16 15  1  0  0  0  0
 17 16  1  0  0  0  0
 18 17  1  0  0  0  0
 19 20  1  0  0  0  0
 19 18  1  0  0  0  0
 20 23  1  0  0  0  0
 23 21  2  0  0  0  0
 23 22  1  0  0  0  0
 24 30  1  0  0  0  0
 24 31  1  1  0  0  0
 26 25  2  0  0  0  0
 26 30  1  0  0  0  0
 27 26  1  0  0  0  0
 28 22  1  6  0  0  0
 28 29  1  0  0  0  0
 28 27  1  0  0  0  0
 29 24  1  0  0  0  0
 33 32  1  0  0  0  0
 34 33  1  0  0  0  0
 34 35  1  0  0  0  0
 36 46  1  6  0  0  0
 36 35  1  0  0  0  0
 36 39  1  0  0  0  0
 37 41  1  0  0  0  0
 38 41  2  0  0  0  0
 39 40  1  0  0  0  0
 39 42  2  0  0  0  0
 40 37  2  0  0  0  0
 41 44  1  0  0  0  0
 42 38  1  0  0  0  0
 44 43  1  0  0  0  0
 45 44  1  0  0  0  0
 48 47  1  1  0  0  0
 48 46  1  0  0  0  0
 49 60  1  0  0  0  0
 50 54  1  0  0  0  0
 50 53  1  0  0  0  0
 51 57  1  0  0  0  0
 53 52  1  6  0  0  0
 54 48  1  6  0  0  0
 55 56  1  0  0  0  0
 55 54  1  0  0  0  0
 56 49  2  0  0  0  0
 57 49  1  0  0  0  0
 57 53  1  0  0  0  0
 59 60  2  0  0  0  0
 60 58  1  0  0  0  0
M  END
>  <MODEL>
1

>  <REMARK>
 VINA RESULT:      -5.5      0.000      0.000
  Name = 
  25 active torsions:
  status: ('A' for Active; 'I' for Inactive)
    1  A    between atoms: N_3  and  C_22
    2  A    between atoms: N_3  and  C_53
    3  A    between atoms: C_6  and  C_40
    4  A    between atoms: C_7  and  C_25
    5  A    between atoms: C_7  and  C_46
    6  A    between atoms: C_8  and  C_25
    7  A    between atoms: C_11  and  N_48
    8  A    between atoms: C_11  and  N_56
    9  A    between atoms: C_12  and  C_53
   10  A    between atoms: N_13  and  C_55
   11  A    between atoms: N_14  and  C_42
   12  A    between atoms: C_17  and  C_37
   13  A    between atoms: C_18  and  C_39
   14  A    between atoms: C_18  and  N_43
   15  A    between atoms: C_18  and  N_47
   16  A    between atoms: C_22  and  C_52
   17  A    between atoms: C_23  and  C_44
   18  A    between atoms: C_23  and  C_46
   19  A    between atoms: O_24  and  C_30
   20  A    between atoms: O_24  and  C_37
   21  A    between atoms: C_35  and  N_56
   22  A    between atoms: C_36  and  C_45
   23  A    between atoms: N_43  and  C_45
   24  A    between atoms: C_44  and  C_52
   25  A    between atoms: N_47  and  N_48
                            x       y       z     vdW  Elec       q    Type
                         _______ _______ _______ _____ _____    ______ ____

>  <TORSDO>
F 25

$$$$
=
 OpenBabel11062420413D

 60 63  0  0  1  0  0  0  0  0999 V2000
  186.6540  177.3980  142.0730 C   0  0  2  0  0  3  0  0  0  0  0  0
  187.5270  175.2790  143.0690 C   0  0  0  0  0  2  0  0  0  0  0  0
  186.3580  176.2480  143.0300 C   0  0  0  0  0  2  0  0  0  0  0  0
  189.1250  177.1220  142.5600 C   0  0  0  0  0  2  0  0  0  0  0  0
  187.9590  178.1070  142.4730 C   0  0  1  0  0  3  0  0  0  0  0  0
  188.8020  175.9840  143.5210 C   0  0  2  0  0  3  0  0  0  0  0  0
  188.2710  179.0920  141.5570 F   0  0  0  0  0  0  0  0  0  0  0  0
  185.4970  178.3810  142.1270 C   0  0  0  0  0  2  0  0  0  0  0  0
  184.3270  177.7460  142.7250 N   0  0  0  0  0  2  0  0  0  0  0  0
  183.4460  178.7960  143.2160 C   0  0  0  0  0  2  0  0  0  0  0  0
  184.0670  179.5090  144.4080 C   0  0  0  0  0  2  0  0  0  0  0  0
  184.2770  178.5440  145.5690 C   0  0  0  0  0  2  0  0  0  0  0  0
  185.7350  178.4880  145.9550 C   0  0  0  0  0  2  0  0  0  0  0  0
  185.8770  178.0240  147.3870 C   0  0  0  0  0  2  0  0  0  0  0  0
  186.6240  176.7010  147.4540 C   0  0  0  0  0  2  0  0  0  0  0  0
  188.1040  176.9130  147.1650 C   0  0  0  0  0  2  0  0  0  0  0  0
  188.8160  175.6200  146.9700 C   0  0  0  0  0  2  0  0  0  0  0  0
  190.1420  175.5290  147.1070 C   0  0  0  0  0  2  0  0  0  0  0  0
  191.4280  175.0390  147.1530 O   0  0  0  0  0  0  0  0  0  0  0  0
  192.5480  175.8560  146.8460 C   0  0  0  0  0  2  0  0  0  0  0  0
  193.3070  174.0730  145.4620 O   0  0  0  0  0  0  0  0  0  0  0  0
  193.9230  176.2220  144.7490 N   0  0  0  0  0  2  0  0  0  0  0  0
  193.2650  175.3170  145.6540 C   0  0  0  0  0  0  0  0  0  0  0  0
  196.8050  175.9000  142.3130 C   0  0  1  0  0  3  0  0  0  0  0  0
  195.8860  172.4050  142.8450 O   0  0  0  0  0  0  0  0  0  0  0  0
  195.8380  173.6270  142.8850 C   0  0  0  0  0  0  0  0  0  0  0  0
  194.5760  174.2730  143.4110 C   0  0  0  0  0  2  0  0  0  0  0  0
  194.6140  175.8040  143.5340 C   0  0  2  0  0  3  0  0  0  0  0  0
  196.0110  176.4190  143.5000 C   0  0  0  0  0  2  0  0  0  0  0  0
  197.0560  174.4040  142.4610 C   0  0  0  0  0  2  0  0  0  0  0  0
  196.1490  176.1770  141.1080 O   0  0  0  0  0  1  0  0  0  0  0  0
  189.8880  175.0070  143.5180 N   0  0  0  0  0  2  0  0  0  0  0  0
  190.9130  175.3990  142.5380 C   0  0  0  0  0  2  0  0  0  0  0  0
  191.2070  174.3060  141.6120 N   0  0  0  0  0  2  0  0  0  0  0  0
  192.3650  174.6430  140.8960 N   0  0  0  0  0  2  0  0  0  0  0  0
  192.3470  173.8830  139.6570 C   0  0  1  0  0  3  0  0  0  0  0  0
  195.9970  173.1680  138.7860 C   0  0  0  0  0  3  0  0  0  0  0  0
  195.0510  174.6050  137.0800 C   0  0  0  0  0  3  0  0  0  0  0  0
  193.6920  173.9040  138.9690 C   0  0  0  0  0  0  0  0  0  0  0  0
  194.7740  173.1670  139.4650 C   0  0  0  0  0  3  0  0  0  0  0  0
  196.1470  173.8960  137.5970 C   0  0  0  0  0  0  0  0  0  0  0  0
  193.8340  174.6130  137.7690 C   0  0  0  0  0  3  0  0  0  0  0  0
  197.8100  172.6820  136.3420 O   0  0  0  0  0  1  0  0  0  0  0  0
  197.3860  173.8530  136.8730 N   0  0  0  0  0  0  0  0  0  0  0  0
  197.9380  175.0420  136.3910 N   0  0  0  0  0  1  0  0  0  0  0  0
  191.9620  172.5120  139.9540 N   0  0  0  0  0  2  0  0  0  0  0  0
  192.0170  171.2960  137.8450 C   0  0  0  0  0  1  0  0  0  0  0  0
  191.1420  171.9970  138.8640 C   0  0  2  0  0  3  0  0  0  0  0  0
  188.1020  174.9010  136.9370 C   0  0  0  0  0  0  0  0  0  0  0  0
  190.9280  173.3470  136.7730 C   0  0  0  0  0  2  0  0  0  0  0  0
  188.5950  174.5450  134.5150 C   0  0  0  0  0  1  0  0  0  0  0  0
  191.2320  174.9270  135.0150 F   0  0  0  0  0  0  0  0  0  0  0  0
  190.5060  174.6880  136.1740 C   0  0  1  0  0  3  0  0  0  0  0  0
  190.3780  173.1350  138.1830 C   0  0  1  0  0  3  0  0  0  0  0  0
  188.8760  172.8240  138.1190 C   0  0  0  0  0  2  0  0  0  0  0  0
  188.0330  174.0610  137.9760 C   0  0  0  0  0  3  0  0  0  0  0  0
  189.0640  174.6950  135.8820 N   0  0  0  0  0  0  0  0  0  0  0  0
  185.8310  175.8690  137.1990 O   0  0  0  0  0  1  0  0  0  0  0  0
  187.5530  177.1410  136.4090 O   0  0  0  0  0  0  0  0  0  0  0  0
  187.1680  176.0360  136.8730 C   0  0  0  0  0  0  0  0  0  0  0  0
  1  8  1  1  0  0  0
  1  5  1  0  0  0  0
  1  3  1  0  0  0  0
  2  6  1  0  0  0  0
  3  2  1  0  0  0  0
  4  6  1  0  0  0  0
  5  7  1  6  0  0  0
  5  4  1  0  0  0  0
  6 32  1  6  0  0  0
  8  9  1  0  0  0  0
  9 10  1  0  0  0  0
 10 11  1  0  0  0  0
 11 12  1  0  0  0  0
 12 13  1  0  0  0  0
 13 14  1  0  0  0  0
 14 15  1  0  0  0  0
 16 15  1  0  0  0  0
 17 18  1  0  0  0  0
 17 16  1  0  0  0  0
 18 19  1  0  0  0  0
 20 19  1  0  0  0  0
 21 23  2  0  0  0  0
 22 23  1  0  0  0  0
 23 20  1  0  0  0  0
 24 31  1  6  0  0  0
 24 30  1  0  0  0  0
 24 29  1  0  0  0  0
 25 26  2  0  0  0  0
 26 27  1  0  0  0  0
 27 28  1  0  0  0  0
 28 22  1  1  0  0  0
 29 28  1  0  0  0  0
 30 26  1  0  0  0  0
 33 32  1  0  0  0  0
 34 33  1  0  0  0  0
 35 34  1  0  0  0  0
 36 46  1  1  0  0  0
 36 35  1  0  0  0  0
 37 40  1  0  0  0  0
 38 41  1  0  0  0  0
 38 42  2  0  0  0  0
 39 40  2  0  0  0  0
 39 36  1  0  0  0  0
 41 37  2  0  0  0  0
 42 39  1  0  0  0  0
 43 44  1  0  0  0  0
 44 41  1  0  0  0  0
 45 44  1  0  0  0  0
 48 47  1  6  0  0  0
 48 46  1  0  0  0  0
 49 56  2  0  0  0  0
 50 54  1  0  0  0  0
 51 57  1  0  0  0  0
 53 52  1  6  0  0  0
 53 50  1  0  0  0  0
 54 48  1  6  0  0  0
 55 54  1  0  0  0  0
 56 55  1  0  0  0  0
 57 53  1  0  0  0  0
 57 49  1  0  0  0  0
 59 60  2  0  0  0  0
 60 49  1  0  0  0  0
 60 58  1  0  0  0  0
M  END
>  <MODEL>
2

>  <REMARK>
 VINA RESULT:      -5.4      2.960      7.025
  Name = 
  25 active torsions:
  status: ('A' for Active; 'I' for Inactive)
    1  A    between atoms: N_3  and  C_22
    2  A    between atoms: N_3  and  C_53
    3  A    between atoms: C_6  and  C_40
    4  A    between atoms: C_7  and  C_25
    5  A    between atoms: C_7  and  C_46
    6  A    between atoms: C_8  and  C_25
    7  A    between atoms: C_11  and  N_48
    8  A    between atoms: C_11  and  N_56
    9  A    between atoms: C_12  and  C_53
   10  A    between atoms: N_13  and  C_55
   11  A    between atoms: N_14  and  C_42
   12  A    between atoms: C_17  and  C_37
   13  A    between atoms: C_18  and  C_39
   14  A    between atoms: C_18  and  N_43
   15  A    between atoms: C_18  and  N_47
   16  A    between atoms: C_22  and  C_52
   17  A    between atoms: C_23  and  C_44
   18  A    between atoms: C_23  and  C_46
   19  A    between atoms: O_24  and  C_30
   20  A    between atoms: O_24  and  C_37
   21  A    between atoms: C_35  and  N_56
   22  A    between atoms: C_36  and  C_45
   23  A    between atoms: N_43  and  C_45
   24  A    between atoms: C_44  and  C_52
   25  A    between atoms: N_47  and  N_48
                            x       y       z     vdW  Elec       q    Type
                         _______ _______ _______ _____ _____    ______ ____

>  <TORSDO>
F 25

$$$$
=
 OpenBabel11062420413D

 60 63  0  0  1  0  0  0  0  0999 V2000
  190.9110  171.5180  142.8880 C   0  0  2  0  0  3  0  0  0  0  0  0
  190.8430  172.6280  140.6500 C   0  0  0  0  0  2  0  0  0  0  0  0
  191.7170  172.2830  141.8440 C   0  0  0  0  0  2  0  0  0  0  0  0
  188.8220  172.7180  142.1050 C   0  0  0  0  0  2  0  0  0  0  0  0
  189.6750  172.3290  143.3120 C   0  0  1  0  0  3  0  0  0  0  0  0
  189.6510  173.4790  141.0780 C   0  0  2  0  0  3  0  0  0  0  0  0
  188.9010  171.6000  144.1930 F   0  0  0  0  0  0  0  0  0  0  0  0
  191.7990  171.2660  144.0950 C   0  0  0  0  0  2  0  0  0  0  0  0
  192.9430  170.4450  143.7120 N   0  0  0  0  0  2  0  0  0  0  0  0
  193.6790  170.1050  144.9220 C   0  0  0  0  0  2  0  0  0  0  0  0
  194.2790  171.3510  145.5560 C   0  0  0  0  0  2  0  0  0  0  0  0
  195.5410  171.7820  144.8190 C   0  0  0  0  0  2  0  0  0  0  0  0
  196.6680  172.0250  145.7940 C   0  0  0  0  0  2  0  0  0  0  0  0
  196.7730  173.5010  146.1100 C   0  0  0  0  0  2  0  0  0  0  0  0
  196.5920  174.3360  144.8530 C   0  0  0  0  0  2  0  0  0  0  0  0
  197.9370  174.5770  144.1800 C   0  0  0  0  0  2  0  0  0  0  0  0
  197.8120  174.5950  142.6960 C   0  0  0  0  0  2  0  0  0  0  0  0
  197.1240  173.6530  142.0450 C   0  0  0  0  0  2  0  0  0  0  0  0
  196.5360  172.9080  141.0470 O   0  0  0  0  0  0  0  0  0  0  0  0
  197.3100  172.2470  140.0570 C   0  0  0  0  0  2  0  0  0  0  0  0
  196.9330  171.3980  137.8630 O   0  0  0  0  0  0  0  0  0  0  0  0
  195.0020  171.7060  139.1600 N   0  0  0  0  0  2  0  0  0  0  0  0
  196.4260  171.7510  138.9610 C   0  0  0  0  0  0  0  0  0  0  0  0
  192.0550  169.7150  137.8590 C   0  0  1  0  0  3  0  0  0  0  0  0
  191.2200  173.0930  136.7460 O   0  0  0  0  0  0  0  0  0  0  0  0
  191.8590  172.1590  137.2120 C   0  0  0  0  0  0  0  0  0  0  0  0
  193.3290  172.3730  137.4950 C   0  0  0  0  0  2  0  0  0  0  0  0
  194.0540  171.2000  138.1730 C   0  0  2  0  0  3  0  0  0  0  0  0
  193.1370  170.1670  138.8240 C   0  0  0  0  0  2  0  0  0  0  0  0
  191.1300  170.8790  137.5240 C   0  0  0  0  0  2  0  0  0  0  0  0
  192.6110  169.1720  136.6950 O   0  0  0  0  0  1  0  0  0  0  0  0
  188.8430  173.7580  139.8930 N   0  0  0  0  0  2  0  0  0  0  0  0
  187.9810  174.9250  140.1370 C   0  0  0  0  0  2  0  0  0  0  0  0
  188.4350  175.6840  141.3020 N   0  0  0  0  0  2  0  0  0  0  0  0
  187.3100  176.0090  142.0730 N   0  0  0  0  0  2  0  0  0  0  0  0
  187.0900  177.4400  141.9420 C   0  0  1  0  0  3  0  0  0  0  0  0
  183.5060  178.3910  142.8640 C   0  0  0  0  0  3  0  0  0  0  0  0
  183.6860  178.2530  140.4520 C   0  0  0  0  0  3  0  0  0  0  0  0
  185.6200  177.7740  141.8430 C   0  0  0  0  0  0  0  0  0  0  0  0
  184.8550  178.0430  142.9850 C   0  0  0  0  0  3  0  0  0  0  0  0
  182.9100  178.4870  141.5980 C   0  0  0  0  0  0  0  0  0  0  0  0
  185.0310  177.8910  140.5780 C   0  0  0  0  0  3  0  0  0  0  0  0
  180.8950  178.7210  140.2940 O   0  0  0  0  0  1  0  0  0  0  0  0
  181.5400  178.8970  141.4720 N   0  0  0  0  0  0  0  0  0  0  0  0
  180.7790  179.1020  142.6240 N   0  0  0  0  0  1  0  0  0  0  0  0
  187.6740  178.1100  143.0950 N   0  0  0  0  0  2  0  0  0  0  0  0
  186.9270  177.5000  145.3300 C   0  0  0  0  0  1  0  0  0  0  0  0
  187.8410  177.1460  144.1760 C   0  0  2  0  0  3  0  0  0  0  0  0
  192.3460  176.4780  144.9830 C   0  0  0  0  0  0  0  0  0  0  0  0
  189.3350  176.7010  146.1290 C   0  0  0  0  0  2  0  0  0  0  0  0
  192.2420  175.0540  147.0310 C   0  0  0  0  0  1  0  0  0  0  0  0
  190.5560  176.8470  148.1690 F   0  0  0  0  0  0  0  0  0  0  0  0
  190.6690  177.0280  146.7970 C   0  0  1  0  0  3  0  0  0  0  0  0
  189.2920  177.1300  144.6620 C   0  0  1  0  0  3  0  0  0  0  0  0
  190.1440  176.1780  143.8110 C   0  0  0  0  0  2  0  0  0  0  0  0
  191.6100  176.5050  143.8650 C   0  0  0  0  0  3  0  0  0  0  0  0
  191.7420  176.1780  146.2590 N   0  0  0  0  0  0  0  0  0  0  0  0
  194.5020  177.1620  146.0070 O   0  0  0  0  0  1  0  0  0  0  0  0
  194.3680  176.7020  143.7760 O   0  0  0  0  0  0  0  0  0  0  0  0
  193.7900  176.7420  144.8940 C   0  0  0  0  0  0  0  0  0  0  0  0
  1  5  1  0  0  0  0
  1  8  1  1  0  0  0
  2  6  1  0  0  0  0
  2  3  1  0  0  0  0
  3  1  1  0  0  0  0
  4  5  1  0  0  0  0
  5  7  1  1  0  0  0
  6 32  1  6  0  0  0
  6  4  1  0  0  0  0
  9  8  1  0  0  0  0
  9 10  1  0  0  0  0
 10 11  1  0  0  0  0
 12 11  1  0  0  0  0
 12 13  1  0  0  0  0
 13 14  1  0  0  0  0
 15 14  1  0  0  0  0
 16 15  1  0  0  0  0
 17 16  1  0  0  0  0
 18 17  1  0  0  0  0
 19 18  1  0  0  0  0
 20 19  1  0  0  0  0
 21 23  2  0  0  0  0
 23 22  1  0  0  0  0
 23 20  1  0  0  0  0
 24 31  1  6  0  0  0
 24 29  1  0  0  0  0
 25 26  2  0  0  0  0
 26 27  1  0  0  0  0
 26 30  1  0  0  0  0
 27 28  1  0  0  0  0
 28 29  1  0  0  0  0
 28 22  1  1  0  0  0
 30 24  1  0  0  0  0
 32 33  1  0  0  0  0
 33 34  1  0  0  0  0
 34 35  1  0  0  0  0
 36 35  1  1  0  0  0
 36 46  1  0  0  0  0
 37 40  1  0  0  0  0
 38 42  2  0  0  0  0
 38 41  1  0  0  0  0
 39 36  1  0  0  0  0
 39 40  2  0  0  0  0
 41 37  2  0  0  0  0
 42 39  1  0  0  0  0
 43 44  1  0  0  0  0
 44 41  1  0  0  0  0
 44 45  1  0  0  0  0
 46 48  1  0  0  0  0
 48 47  1  1  0  0  0
 49 57  1  0  0  0  0
 50 53  1  0  0  0  0
 53 52  1  1  0  0  0
 54 48  1  6  0  0  0
 54 50  1  0  0  0  0
 55 56  1  0  0  0  0
 55 54  1  0  0  0  0
 56 49  2  0  0  0  0
 57 53  1  0  0  0  0
 57 51  1  0  0  0  0
 59 60  2  0  0  0  0
 60 49  1  0  0  0  0
 60 58  1  0  0  0  0
M  END
>  <MODEL>
3

>  <REMARK>
 VINA RESULT:      -5.4      3.433     10.382
  Name = 
  25 active torsions:
  status: ('A' for Active; 'I' for Inactive)
    1  A    between atoms: N_3  and  C_22
    2  A    between atoms: N_3  and  C_53
    3  A    between atoms: C_6  and  C_40
    4  A    between atoms: C_7  and  C_25
    5  A    between atoms: C_7  and  C_46
    6  A    between atoms: C_8  and  C_25
    7  A    between atoms: C_11  and  N_48
    8  A    between atoms: C_11  and  N_56
    9  A    between atoms: C_12  and  C_53
   10  A    between atoms: N_13  and  C_55
   11  A    between atoms: N_14  and  C_42
   12  A    between atoms: C_17  and  C_37
   13  A    between atoms: C_18  and  C_39
   14  A    between atoms: C_18  and  N_43
   15  A    between atoms: C_18  and  N_47
   16  A    between atoms: C_22  and  C_52
   17  A    between atoms: C_23  and  C_44
   18  A    between atoms: C_23  and  C_46
   19  A    between atoms: O_24  and  C_30
   20  A    between atoms: O_24  and  C_37
   21  A    between atoms: C_35  and  N_56
   22  A    between atoms: C_36  and  C_45
   23  A    between atoms: N_43  and  C_45
   24  A    between atoms: C_44  and  C_52
   25  A    between atoms: N_47  and  N_48
                            x       y       z     vdW  Elec       q    Type
                         _______ _______ _______ _____ _____    ______ ____

>  <TORSDO>
F 25

$$$$
=
 OpenBabel11062420413D

 60 63  0  0  1  0  0  0  0  0999 V2000
  188.2750  174.1630  142.1620 C   0  0  2  0  0  3  0  0  0  0  0  0
  189.6060  172.1720  142.8760 C   0  0  0  0  0  2  0  0  0  0  0  0
  189.2390  173.6090  143.2060 C   0  0  0  0  0  2  0  0  0  0  0  0
  189.2980  172.6100  140.4420 C   0  0  0  0  0  2  0  0  0  0  0  0
  188.8840  174.0480  140.7550 C   0  0  1  0  0  3  0  0  0  0  0  0
  190.2590  172.0810  141.5000 C   0  0  2  0  0  3  0  0  0  0  0  0
  187.9770  174.4710  139.8030 F   0  0  0  0  0  0  0  0  0  0  0  0
  188.0010  175.6220  142.4860 C   0  0  0  0  0  2  0  0  0  0  0  0
  186.5630  175.8510  142.5870 N   0  0  0  0  0  2  0  0  0  0  0  0
  186.2490  177.0730  141.8600 C   0  0  0  0  0  2  0  0  0  0  0  0
  186.9470  178.2690  142.4890 C   0  0  0  0  0  2  0  0  0  0  0  0
  185.9480  179.1620  143.2140 C   0  0  0  0  0  2  0  0  0  0  0  0
  185.3950  178.4610  144.4320 C   0  0  0  0  0  2  0  0  0  0  0  0
  185.7940  179.2050  145.6870 C   0  0  0  0  0  2  0  0  0  0  0  0
  185.3820  178.4290  146.9270 C   0  0  0  0  0  2  0  0  0  0  0  0
  186.4060  177.3460  147.2380 C   0  0  0  0  0  2  0  0  0  0  0  0
  187.7970  177.8780  147.2060 C   0  0  0  0  0  2  0  0  0  0  0  0
  188.8220  177.1230  146.8040 C   0  0  0  0  0  2  0  0  0  0  0  0
  190.0880  176.6930  146.4730 O   0  0  0  0  0  0  0  0  0  0  0  0
  190.2990  175.6620  145.5200 C   0  0  0  0  0  2  0  0  0  0  0  0
  192.1650  175.5060  144.0480 O   0  0  0  0  0  0  0  0  0  0  0  0
  192.6790  175.3500  146.3320 N   0  0  0  0  0  2  0  0  0  0  0  0
  191.7570  175.5120  145.2400 C   0  0  0  0  0  0  0  0  0  0  0  0
  195.9550  173.8060  145.2250 C   0  0  1  0  0  3  0  0  0  0  0  0
  196.1710  177.1440  143.7570 O   0  0  0  0  0  0  0  0  0  0  0  0
  195.7650  176.2060  144.4290 C   0  0  0  0  0  0  0  0  0  0  0  0
  194.6640  176.4730  145.4320 C   0  0  0  0  0  2  0  0  0  0  0  0
  194.1250  175.2390  146.1720 C   0  0  2  0  0  3  0  0  0  0  0  0
  194.4690  173.8990  145.5260 C   0  0  0  0  0  2  0  0  0  0  0  0
  196.3450  174.8400  144.1760 C   0  0  0  0  0  2  0  0  0  0  0  0
  196.7160  173.9670  146.3880 O   0  0  0  0  0  1  0  0  0  0  0  0
  190.5670  170.6770  141.2340 N   0  0  0  0  0  2  0  0  0  0  0  0
  191.9730  170.5420  140.8220 C   0  0  0  0  0  2  0  0  0  0  0  0
  192.4980  169.2170  141.1540 N   0  0  0  0  0  2  0  0  0  0  0  0
  193.8980  169.2930  141.1560 N   0  0  0  0  0  2  0  0  0  0  0  0
  194.2730  170.3960  142.0250 C   0  0  1  0  0  3  0  0  0  0  0  0
  196.1800  170.0460  145.3170 C   0  0  0  0  0  3  0  0  0  0  0  0
  194.3240  168.4910  145.3170 C   0  0  0  0  0  3  0  0  0  0  0  0
  194.7180  169.9110  143.3850 C   0  0  0  0  0  0  0  0  0  0  0  0
  195.8150  170.4840  144.0400 C   0  0  0  0  0  3  0  0  0  0  0  0
  195.4450  169.0390  145.9580 C   0  0  0  0  0  0  0  0  0  0  0  0
  193.9700  168.9210  144.0350 C   0  0  0  0  0  3  0  0  0  0  0  0
  194.8220  168.1670  148.1180 O   0  0  0  0  0  1  0  0  0  0  0  0
  195.7890  168.6290  147.2900 N   0  0  0  0  0  0  0  0  0  0  0  0
  197.1210  168.3410  147.5950 N   0  0  0  0  0  1  0  0  0  0  0  0
  195.3460  171.1470  141.3910 N   0  0  0  0  0  2  0  0  0  0  0  0
  193.6850  172.7770  142.1080 C   0  0  0  0  0  1  0  0  0  0  0  0
  195.0220  172.5680  141.4260 C   0  0  2  0  0  3  0  0  0  0  0  0
  194.0930  174.7250  137.4400 C   0  0  0  0  0  0  0  0  0  0  0  0
  194.8570  172.0000  138.9980 C   0  0  0  0  0  2  0  0  0  0  0  0
  193.1580  172.8360  136.1010 C   0  0  0  0  0  1  0  0  0  0  0  0
  195.3130  171.3280  136.7580 F   0  0  0  0  0  0  0  0  0  0  0  0
  195.1840  172.4440  137.5730 C   0  0  1  0  0  3  0  0  0  0  0  0
  194.9650  173.1420  140.0080 C   0  0  1  0  0  3  0  0  0  0  0  0
  193.7720  174.0960  139.8520 C   0  0  0  0  0  2  0  0  0  0  0  0
  193.9550  175.0740  138.7250 C   0  0  0  0  0  3  0  0  0  0  0  0
  194.1350  173.3350  137.0530 N   0  0  0  0  0  0  0  0  0  0  0  0
  193.1120  176.6180  136.1700 O   0  0  0  0  0  1  0  0  0  0  0  0
  195.2050  175.8510  135.6820 O   0  0  0  0  0  0  0  0  0  0  0  0
  194.1870  175.7790  136.4200 C   0  0  0  0  0  0  0  0  0  0  0  0
  1  8  1  1  0  0  0
  1  3  1  0  0  0  0
  2  3  1  0  0  0  0
  4  5  1  0  0  0  0
  4  6  1  0  0  0  0
  5  7  1  6  0  0  0
  5  1  1  0  0  0  0
  6 32  1  6  0  0  0
  6  2  1  0  0  0  0
  8  9  1  0  0  0  0
 10 11  1  0  0  0  0
 10  9  1  0  0  0  0
 11 12  1  0  0  0  0
 12 13  1  0  0  0  0
 13 14  1  0  0  0  0
 14 15  1  0  0  0  0
 15 16  1  0  0  0  0
 17 16  1  0  0  0  0
 18 17  1  0  0  0  0
 19 18  1  0  0  0  0
 20 19  1  0  0  0  0
 21 23  2  0  0  0  0
 23 20  1  0  0  0  0
 23 22  1  0  0  0  0
 24 29  1  0  0  0  0
 24 31  1  1  0  0  0
 25 26  2  0  0  0  0
 26 27  1  0  0  0  0
 27 28  1  0  0  0  0
 28 22  1  6  0  0  0
 29 28  1  0  0  0  0
 30 26  1  0  0  0  0
 30 24  1  0  0  0  0
 33 34  1  0  0  0  0
 33 32  1  0  0  0  0
 34 35  1  0  0  0  0
 36 35  1  6  0  0  0
 36 39  1  0  0  0  0
 37 41  1  0  0  0  0
 38 41  2  0  0  0  0
 39 42  2  0  0  0  0
 39 40  1  0  0  0  0
 40 37  2  0  0  0  0
 41 44  1  0  0  0  0
 42 38  1  0  0  0  0
 44 45  1  0  0  0  0
 44 43  1  0  0  0  0
 46 48  1  0  0  0  0
 46 36  1  0  0  0  0
 48 47  1  6  0  0  0
 49 56  2  0  0  0  0
 50 54  1  0  0  0  0
 51 57  1  0  0  0  0
 53 52  1  6  0  0  0
 53 50  1  0  0  0  0
 54 48  1  1  0  0  0
 55 54  1  0  0  0  0
 56 55  1  0  0  0  0
 57 49  1  0  0  0  0
 57 53  1  0  0  0  0
 58 60  1  0  0  0  0
 59 60  2  0  0  0  0
 60 49  1  0  0  0  0
M  END
>  <MODEL>
4

>  <REMARK>
 VINA RESULT:      -5.3      3.751      6.671
  Name = 
  25 active torsions:
  status: ('A' for Active; 'I' for Inactive)
    1  A    between atoms: N_3  and  C_22
    2  A    between atoms: N_3  and  C_53
    3  A    between atoms: C_6  and  C_40
    4  A    between atoms: C_7  and  C_25
    5  A    between atoms: C_7  and  C_46
    6  A    between atoms: C_8  and  C_25
    7  A    between atoms: C_11  and  N_48
    8  A    between atoms: C_11  and  N_56
    9  A    between atoms: C_12  and  C_53
   10  A    between atoms: N_13  and  C_55
   11  A    between atoms: N_14  and  C_42
   12  A    between atoms: C_17  and  C_37
   13  A    between atoms: C_18  and  C_39
   14  A    between atoms: C_18  and  N_43
   15  A    between atoms: C_18  and  N_47
   16  A    between atoms: C_22  and  C_52
   17  A    between atoms: C_23  and  C_44
   18  A    between atoms: C_23  and  C_46
   19  A    between atoms: O_24  and  C_30
   20  A    between atoms: O_24  and  C_37
   21  A    between atoms: C_35  and  N_56
   22  A    between atoms: C_36  and  C_45
   23  A    between atoms: N_43  and  C_45
   24  A    between atoms: C_44  and  C_52
   25  A    between atoms: N_47  and  N_48
                            x       y       z     vdW  Elec       q    Type
                         _______ _______ _______ _____ _____    ______ ____

>  <TORSDO>
F 25

$$$$
=
 OpenBabel11062420413D

 60 63  0  0  1  0  0  0  0  0999 V2000
  187.0350  177.0350  142.9990 C   0  0  2  0  0  3  0  0  0  0  0  0
  189.1050  175.6730  143.3220 C   0  0  0  0  0  2  0  0  0  0  0  0
  188.3660  176.9340  143.7370 C   0  0  0  0  0  2  0  0  0  0  0  0
  188.0470  175.7470  141.0670 C   0  0  0  0  0  2  0  0  0  0  0  0
  187.2600  176.9910  141.4790 C   0  0  1  0  0  3  0  0  0  0  0  0
  189.3700  175.6690  141.8190 C   0  0  2  0  0  3  0  0  0  0  0  0
  186.0500  176.9970  140.8130 F   0  0  0  0  0  0  0  0  0  0  0  0
  186.3700  178.3460  143.3830 C   0  0  0  0  0  2  0  0  0  0  0  0
  186.4620  178.5520  144.8240 N   0  0  0  0  0  2  0  0  0  0  0  0
  185.5360  177.6330  145.4710 C   0  0  0  0  0  2  0  0  0  0  0  0
  186.0090  177.2920  146.8760 C   0  0  0  0  0  2  0  0  0  0  0  0
  187.3960  176.6610  146.8450 C   0  0  0  0  0  2  0  0  0  0  0  0
  188.4160  177.5930  147.4520 C   0  0  0  0  0  2  0  0  0  0  0  0
  189.8010  177.2440  146.9560 C   0  0  0  0  0  2  0  0  0  0  0  0
  190.1090  175.7770  147.2040 C   0  0  0  0  0  2  0  0  0  0  0  0
  191.6050  175.5210  147.0810 C   0  0  0  0  0  2  0  0  0  0  0  0
  192.1170  175.8930  145.7340 C   0  0  0  0  0  2  0  0  0  0  0  0
  193.4030  176.1970  145.5380 C   0  0  0  0  0  2  0  0  0  0  0  0
  194.5930  176.5610  144.9480 O   0  0  0  0  0  0  0  0  0  0  0  0
  195.6240  175.6140  144.7060 C   0  0  0  0  0  2  0  0  0  0  0  0
  194.6100  174.1910  143.0870 O   0  0  0  0  0  0  0  0  0  0  0  0
  196.3970  175.4900  142.2960 N   0  0  0  0  0  2  0  0  0  0  0  0
  195.4940  175.0550  143.3280 C   0  0  0  0  0  0  0  0  0  0  0  0
  197.4450  175.2140  138.6670 C   0  0  1  0  0  3  0  0  0  0  0  0
  197.3350  171.7060  139.6790 O   0  0  0  0  0  0  0  0  0  0  0  0
  197.1950  172.9210  139.7190 C   0  0  0  0  0  0  0  0  0  0  0  0
  196.3840  173.5070  140.8530 C   0  0  0  0  0  2  0  0  0  0  0  0
  196.3300  175.0410  140.9090 C   0  0  2  0  0  3  0  0  0  0  0  0
  197.4000  175.7540  140.0860 C   0  0  0  0  0  2  0  0  0  0  0  0
  197.8840  173.7550  138.6720 C   0  0  0  0  0  2  0  0  0  0  0  0
  196.2040  175.3570  138.0340 O   0  0  0  0  0  1  0  0  0  0  0  0
  190.0620  174.4270  141.4820 N   0  0  0  0  0  2  0  0  0  0  0  0
  190.4440  173.7160  142.7120 C   0  0  0  0  0  2  0  0  0  0  0  0
  191.7310  173.0400  142.5560 N   0  0  0  0  0  2  0  0  0  0  0  0
  191.5120  171.6590  142.6640 N   0  0  0  0  0  2  0  0  0  0  0  0
  192.7040  170.9890  142.1700 C   0  0  1  0  0  3  0  0  0  0  0  0
  195.3570  169.0990  144.1670 C   0  0  0  0  0  3  0  0  0  0  0  0
  194.3860  170.8120  145.5780 C   0  0  0  0  0  3  0  0  0  0  0  0
  193.5910  170.5200  143.3000 C   0  0  0  0  0  0  0  0  0  0  0  0
  194.5170  169.4860  143.1180 C   0  0  0  0  0  3  0  0  0  0  0  0
  195.2880  169.7510  145.4060 C   0  0  0  0  0  0  0  0  0  0  0  0
  193.5370  171.1860  144.5310 C   0  0  0  0  0  3  0  0  0  0  0  0
  195.6920  168.8860  147.6210 O   0  0  0  0  0  1  0  0  0  0  0  0
  196.1870  169.3890  146.4650 N   0  0  0  0  0  0  0  0  0  0  0  0
  197.5390  169.1890  146.1770 N   0  0  0  0  0  1  0  0  0  0  0  0
  192.2980  169.8540  141.3540 N   0  0  0  0  0  2  0  0  0  0  0  0
  194.1900  170.2950  139.8870 C   0  0  0  0  0  1  0  0  0  0  0  0
  192.6910  170.0940  139.9710 C   0  0  2  0  0  3  0  0  0  0  0  0
  190.2950  173.2720  137.6140 C   0  0  0  0  0  0  0  0  0  0  0  0
  193.0010  172.4400  139.1690 C   0  0  0  0  0  2  0  0  0  0  0  0
  192.1550  174.5830  136.5860 C   0  0  0  0  0  1  0  0  0  0  0  0
  193.3260  174.7960  139.0230 F   0  0  0  0  0  0  0  0  0  0  0  0
  192.3490  173.8100  138.9930 C   0  0  1  0  0  3  0  0  0  0  0  0
  191.9800  171.3300  139.4170 C   0  0  1  0  0  3  0  0  0  0  0  0
  191.2390  170.9970  138.1140 C   0  0  0  0  0  2  0  0  0  0  0  0
  190.1230  171.9600  137.8180 C   0  0  0  0  0  3  0  0  0  0  0  0
  191.6030  173.8710  137.7260 N   0  0  0  0  0  0  0  0  0  0  0  0
  188.0930  174.2820  138.1530 O   0  0  0  0  0  1  0  0  0  0  0  0
  189.0190  174.5470  136.0840 O   0  0  0  0  0  0  0  0  0  0  0  0
  189.1330  174.0970  137.2550 C   0  0  0  0  0  0  0  0  0  0  0  0
  1  8  1  6  0  0  0
  1  3  1  0  0  0  0
  2  3  1  0  0  0  0
  4  5  1  0  0  0  0
  4  6  1  0  0  0  0
  5  7  1  6  0  0  0
  5  1  1  0  0  0  0
  6 32  1  6  0  0  0
  6  2  1  0  0  0  0
  8  9  1  0  0  0  0
  9 10  1  0  0  0  0
 10 11  1  0  0  0  0
 12 11  1  0  0  0  0
 12 13  1  0  0  0  0
 14 15  1  0  0  0  0
 14 13  1  0  0  0  0
 16 15  1  0  0  0  0
 17 16  1  0  0  0  0
 18 17  1  0  0  0  0
 19 18  1  0  0  0  0
 20 19  1  0  0  0  0
 21 23  2  0  0  0  0
 22 23  1  0  0  0  0
 23 20  1  0  0  0  0
 24 31  1  1  0  0  0
 24 30  1  0  0  0  0
 24 29  1  0  0  0  0
 25 26  2  0  0  0  0
 26 27  1  0  0  0  0
 27 28  1  0  0  0  0
 28 22  1  1  0  0  0
 29 28  1  0  0  0  0
 30 26  1  0  0  0  0
 32 33  1  0  0  0  0
 34 35  1  0  0  0  0
 34 33  1  0  0  0  0
 36 46  1  1  0  0  0
 36 35  1  0  0  0  0
 36 39  1  0  0  0  0
 37 41  1  0  0  0  0
 39 42  2  0  0  0  0
 40 39  1  0  0  0  0
 40 37  2  0  0  0  0
 41 38  2  0  0  0  0
 41 44  1  0  0  0  0
 42 38  1  0  0  0  0
 44 43  1  0  0  0  0
 45 44  1  0  0  0  0
 48 47  1  1  0  0  0
 48 46  1  0  0  0  0
 49 57  1  0  0  0  0
 49 56  2  0  0  0  0
 50 54  1  0  0  0  0
 51 57  1  0  0  0  0
 53 52  1  6  0  0  0
 53 50  1  0  0  0  0
 54 48  1  6  0  0  0
 55 54  1  0  0  0  0
 56 55  1  0  0  0  0
 57 53  1  0  0  0  0
 59 60  2  0  0  0  0
 60 49  1  0  0  0  0
 60 58  1  0  0  0  0
M  END
>  <MODEL>
5

>  <REMARK>
 VINA RESULT:      -5.2      3.181      7.701
  Name = 
  25 active torsions:
  status: ('A' for Active; 'I' for Inactive)
    1  A    between atoms: N_3  and  C_22
    2  A    between atoms: N_3  and  C_53
    3  A    between atoms: C_6  and  C_40
    4  A    between atoms: C_7  and  C_25
    5  A    between atoms: C_7  and  C_46
    6  A    between atoms: C_8  and  C_25
    7  A    between atoms: C_11  and  N_48
    8  A    between atoms: C_11  and  N_56
    9  A    between atoms: C_12  and  C_53
   10  A    between atoms: N_13  and  C_55
   11  A    between atoms: N_14  and  C_42
   12  A    between atoms: C_17  and  C_37
   13  A    between atoms: C_18  and  C_39
   14  A    between atoms: C_18  and  N_43
   15  A    between atoms: C_18  and  N_47
   16  A    between atoms: C_22  and  C_52
   17  A    between atoms: C_23  and  C_44
   18  A    between atoms: C_23  and  C_46
   19  A    between atoms: O_24  and  C_30
   20  A    between atoms: O_24  and  C_37
   21  A    between atoms: C_35  and  N_56
   22  A    between atoms: C_36  and  C_45
   23  A    between atoms: N_43  and  C_45
   24  A    between atoms: C_44  and  C_52
   25  A    between atoms: N_47  and  N_48
                            x       y       z     vdW  Elec       q    Type
                         _______ _______ _______ _____ _____    ______ ____

>  <TORSDO>
F 25

$$$$
=
 OpenBabel11062420413D

 60 63  0  0  1  0  0  0  0  0999 V2000
  190.3000  171.7460  140.9770 C   0  0  2  0  0  3  0  0  0  0  0  0
  190.9190  171.4730  143.3830 C   0  0  0  0  0  2  0  0  0  0  0  0
  190.2650  172.3880  142.3610 C   0  0  0  0  0  2  0  0  0  0  0  0
  192.4190  170.5230  141.6340 C   0  0  0  0  0  2  0  0  0  0  0  0
  191.7450  171.4030  140.5810 C   0  0  1  0  0  3  0  0  0  0  0  0
  192.3690  171.1860  143.0060 C   0  0  2  0  0  3  0  0  0  0  0  0
  191.7680  170.7460  139.3660 F   0  0  0  0  0  0  0  0  0  0  0  0
  189.7120  172.7270  139.9770 C   0  0  0  0  0  2  0  0  0  0  0  0
  189.7750  174.0840  140.5080 N   0  0  0  0  0  2  0  0  0  0  0  0
  188.4840  174.7190  140.2810 C   0  0  0  0  0  2  0  0  0  0  0  0
  187.8380  175.1140  141.6010 C   0  0  0  0  0  2  0  0  0  0  0  0
  187.6340  176.6220  141.6760 C   0  0  0  0  0  2  0  0  0  0  0  0
  186.8880  177.1170  140.4600 C   0  0  0  0  0  2  0  0  0  0  0  0
  185.7930  178.0750  140.8760 C   0  0  0  0  0  2  0  0  0  0  0  0
  185.8380  178.3280  142.3740 C   0  0  0  0  0  2  0  0  0  0  0  0
  184.4640  178.1050  142.9900 C   0  0  0  0  0  2  0  0  0  0  0  0
  184.2210  179.0230  144.1370 C   0  0  0  0  0  2  0  0  0  0  0  0
  184.3310  178.6030  145.4000 C   0  0  0  0  0  2  0  0  0  0  0  0
  184.3410  178.5640  146.7770 O   0  0  0  0  0  0  0  0  0  0  0  0
  185.5200  178.8280  147.5220 C   0  0  0  0  0  2  0  0  0  0  0  0
  186.2260  176.5770  147.8550 O   0  0  0  0  0  0  0  0  0  0  0  0
  187.7290  177.9290  146.6640 N   0  0  0  0  0  2  0  0  0  0  0  0
  186.4910  177.7050  147.3610 C   0  0  0  0  0  0  0  0  0  0  0  0
  189.2530  174.8900  144.9950 C   0  0  1  0  0  3  0  0  0  0  0  0
  191.9110  177.3650  144.6030 O   0  0  0  0  0  0  0  0  0  0  0  0
  190.8680  176.8440  144.9760 C   0  0  0  0  0  0  0  0  0  0  0  0
  190.0740  177.5380  146.0610 C   0  0  0  0  0  2  0  0  0  0  0  0
  188.7250  176.8920  146.4140 C   0  0  2  0  0  3  0  0  0  0  0  0
  188.1920  175.9070  145.3760 C   0  0  0  0  0  2  0  0  0  0  0  0
  190.4160  175.5800  144.2940 C   0  0  0  0  0  2  0  0  0  0  0  0
  189.6990  174.1820  146.1180 O   0  0  0  0  0  1  0  0  0  0  0  0
  192.9320  170.2890  144.0120 N   0  0  0  0  0  2  0  0  0  0  0  0
  193.2820  169.0000  143.3960 C   0  0  0  0  0  2  0  0  0  0  0  0
  194.6810  168.6550  143.6470 N   0  0  0  0  0  2  0  0  0  0  0  0
  195.3400  169.8090  144.0940 N   0  0  0  0  0  2  0  0  0  0  0  0
  196.6530  169.8310  143.4690 C   0  0  1  0  0  3  0  0  0  0  0  0
  197.9400  172.0280  140.6210 C   0  0  0  0  0  3  0  0  0  0  0  0
  195.7300  172.7880  141.2600 C   0  0  0  0  0  3  0  0  0  0  0  0
  196.7610  170.9250  142.4320 C   0  0  0  0  0  0  0  0  0  0  0  0
  197.8820  171.0330  141.6020 C   0  0  0  0  0  3  0  0  0  0  0  0
  196.8700  172.9190  140.4520 C   0  0  0  0  0  0  0  0  0  0  0  0
  195.6830  171.8000  142.2500 C   0  0  0  0  0  3  0  0  0  0  0  0
  197.5390  173.6250  138.2460 O   0  0  0  0  0  1  0  0  0  0  0  0
  196.9070  173.9060  139.4100 N   0  0  0  0  0  0  0  0  0  0  0  0
  195.9950  174.9620  139.4350 N   0  0  0  0  0  1  0  0  0  0  0  0
  197.6590  170.0250  144.5030 N   0  0  0  0  0  2  0  0  0  0  0  0
  195.9730  169.9870  146.2590 C   0  0  0  0  0  1  0  0  0  0  0  0
  197.0770  170.7880  145.6000 C   0  0  2  0  0  3  0  0  0  0  0  0
  196.1650  175.1410  144.3270 C   0  0  0  0  0  0  0  0  0  0  0  0
  195.2360  172.4570  145.8640 C   0  0  0  0  0  2  0  0  0  0  0  0
  194.6430  175.8530  146.1740 C   0  0  0  0  0  1  0  0  0  0  0  0
  193.1570  173.6190  145.7840 F   0  0  0  0  0  0  0  0  0  0  0  0
  194.4010  173.5350  145.1750 C   0  0  1  0  0  3  0  0  0  0  0  0
  196.5080  172.1150  145.0910 C   0  0  1  0  0  3  0  0  0  0  0  0
  197.5360  173.2450  145.2440 C   0  0  0  0  0  2  0  0  0  0  0  0
  197.2770  174.3960  144.3110 C   0  0  0  0  0  3  0  0  0  0  0  0
  195.0850  174.8370  145.2340 N   0  0  0  0  0  0  0  0  0  0  0  0
  197.0150  177.2980  143.4390 O   0  0  0  0  0  1  0  0  0  0  0  0
  195.0460  176.4250  142.6860 O   0  0  0  0  0  0  0  0  0  0  0  0
  196.0630  176.2900  143.4150 C   0  0  0  0  0  0  0  0  0  0  0  0
  1  8  1  6  0  0  0
  1  3  1  0  0  0  0
  3  2  1  0  0  0  0
  4  6  1  0  0  0  0
  5  7  1  6  0  0  0
  5  1  1  0  0  0  0
  5  4  1  0  0  0  0
  6  2  1  0  0  0  0
  6 32  1  1  0  0  0
  8  9  1  0  0  0  0
 10  9  1  0  0  0  0
 10 11  1  0  0  0  0
 11 12  1  0  0  0  0
 13 14  1  0  0  0  0
 13 12  1  0  0  0  0
 14 15  1  0  0  0  0
 15 16  1  0  0  0  0
 16 17  1  0  0  0  0
 17 18  1  0  0  0  0
 18 19  1  0  0  0  0
 19 20  1  0  0  0  0
 22 23  1  0  0  0  0
 23 20  1  0  0  0  0
 23 21  2  0  0  0  0
 24 29  1  0  0  0  0
 24 31  1  1  0  0  0
 25 26  2  0  0  0  0
 26 27  1  0  0  0  0
 27 28  1  0  0  0  0
 28 22  1  6  0  0  0
 29 28  1  0  0  0  0
 30 26  1  0  0  0  0
 30 24  1  0  0  0  0
 33 34  1  0  0  0  0
 33 32  1  0  0  0  0
 34 35  1  0  0  0  0
 36 35  1  1  0  0  0
 36 46  1  0  0  0  0
 37 40  1  0  0  0  0
 38 42  2  0  0  0  0
 39 36  1  0  0  0  0
 40 39  2  0  0  0  0
 41 37  2  0  0  0  0
 41 38  1  0  0  0  0
 42 39  1  0  0  0  0
 43 44  1  0  0  0  0
 44 45  1  0  0  0  0
 44 41  1  0  0  0  0
 46 48  1  0  0  0  0
 48 47  1  6  0  0  0
 49 57  1  0  0  0  0
 53 57  1  0  0  0  0
 53 52  1  1  0  0  0
 53 50  1  0  0  0  0
 54 55  1  0  0  0  0
 54 48  1  1  0  0  0
 54 50  1  0  0  0  0
 56 49  2  0  0  0  0
 56 55  1  0  0  0  0
 57 51  1  0  0  0  0
 59 60  2  0  0  0  0
 60 58  1  0  0  0  0
 60 49  1  0  0  0  0
M  END
>  <MODEL>
6

>  <REMARK>
 VINA RESULT:      -5.2      3.850      6.742
  Name = 
  25 active torsions:
  status: ('A' for Active; 'I' for Inactive)
    1  A    between atoms: N_3  and  C_22
    2  A    between atoms: N_3  and  C_53
    3  A    between atoms: C_6  and  C_40
    4  A    between atoms: C_7  and  C_25
    5  A    between atoms: C_7  and  C_46
    6  A    between atoms: C_8  and  C_25
    7  A    between atoms: C_11  and  N_48
    8  A    between atoms: C_11  and  N_56
    9  A    between atoms: C_12  and  C_53
   10  A    between atoms: N_13  and  C_55
   11  A    between atoms: N_14  and  C_42
   12  A    between atoms: C_17  and  C_37
   13  A    between atoms: C_18  and  C_39
   14  A    between atoms: C_18  and  N_43
   15  A    between atoms: C_18  and  N_47
   16  A    between atoms: C_22  and  C_52
   17  A    between atoms: C_23  and  C_44
   18  A    between atoms: C_23  and  C_46
   19  A    between atoms: O_24  and  C_30
   20  A    between atoms: O_24  and  C_37
   21  A    between atoms: C_35  and  N_56
   22  A    between atoms: C_36  and  C_45
   23  A    between atoms: N_43  and  C_45
   24  A    between atoms: C_44  and  C_52
   25  A    between atoms: N_47  and  N_48
                            x       y       z     vdW  Elec       q    Type
                         _______ _______ _______ _____ _____    ______ ____

>  <TORSDO>
F 25

$$$$
=
 OpenBabel11062420413D

 60 63  0  0  1  0  0  0  0  0999 V2000
  190.3300  172.4910  137.6770 C   0  0  2  0  0  3  0  0  0  0  0  0
  189.8850  171.4940  139.9240 C   0  0  0  0  0  2  0  0  0  0  0  0
  189.2560  171.9650  138.6230 C   0  0  0  0  0  2  0  0  0  0  0  0
  191.7260  173.1550  139.6830 C   0  0  0  0  0  2  0  0  0  0  0  0
  191.1350  173.6150  138.3500 C   0  0  1  0  0  3  0  0  0  0  0  0
  190.6330  172.6340  140.6090 C   0  0  2  0  0  3  0  0  0  0  0  0
  192.1610  174.0320  137.5250 F   0  0  0  0  0  0  0  0  0  0  0  0
  189.6510  173.0240  136.4260 C   0  0  0  0  0  2  0  0  0  0  0  0
  190.2150  172.3890  135.2400 N   0  0  0  0  0  2  0  0  0  0  0  0
  190.9870  171.2320  135.6710 C   0  0  0  0  0  2  0  0  0  0  0  0
  192.2340  171.0660  134.8150 C   0  0  0  0  0  2  0  0  0  0  0  0
  193.2110  172.2120  135.0500 C   0  0  0  0  0  2  0  0  0  0  0  0
  194.1190  171.9040  136.2150 C   0  0  0  0  0  2  0  0  0  0  0  0
  194.6430  170.4890  136.1070 C   0  0  0  0  0  2  0  0  0  0  0  0
  194.2400  169.6710  137.3240 C   0  0  0  0  0  2  0  0  0  0  0  0
  194.5050  170.4560  138.6010 C   0  0  0  0  0  2  0  0  0  0  0  0
  195.9630  170.5670  138.8860 C   0  0  0  0  0  2  0  0  0  0  0  0
  196.5400  171.7510  139.1110 C   0  0  0  0  0  2  0  0  0  0  0  0
  197.4700  172.7300  139.3810 O   0  0  0  0  0  0  0  0  0  0  0  0
  197.0850  174.0730  139.6330 C   0  0  0  0  0  2  0  0  0  0  0  0
  195.0440  174.6450  140.7210 O   0  0  0  0  0  0  0  0  0  0  0  0
  196.6590  173.6370  142.0930 N   0  0  0  0  0  2  0  0  0  0  0  0
  196.1910  174.1360  140.8270 C   0  0  0  0  0  0  0  0  0  0  0  0
  195.9170  173.1280  145.7720 C   0  0  1  0  0  3  0  0  0  0  0  0
  194.8060  176.5700  145.2570 O   0  0  0  0  0  0  0  0  0  0  0  0
  195.2050  175.4400  145.0110 C   0  0  0  0  0  0  0  0  0  0  0  0
  195.2470  175.0000  143.5640 C   0  0  0  0  0  2  0  0  0  0  0  0
  195.8540  173.6110  143.3090 C   0  0  2  0  0  3  0  0  0  0  0  0
  196.6820  173.0480  144.4620 C   0  0  0  0  0  2  0  0  0  0  0  0
  195.6800  174.5840  146.1550 C   0  0  0  0  0  2  0  0  0  0  0  0
  194.7040  172.4330  145.6910 O   0  0  0  0  0  1  0  0  0  0  0  0
  191.2290  172.1130  141.8380 N   0  0  0  0  0  2  0  0  0  0  0  0
  192.2780  173.0280  142.3130 C   0  0  0  0  0  2  0  0  0  0  0  0
  191.7120  174.1110  143.1180 N   0  0  0  0  0  2  0  0  0  0  0  0
  190.6850  173.5740  143.9070 N   0  0  0  0  0  2  0  0  0  0  0  0
  189.6090  174.5520  143.9450 C   0  0  1  0  0  3  0  0  0  0  0  0
  190.0490  177.8220  145.8700 C   0  0  0  0  0  3  0  0  0  0  0  0
  189.8830  175.9960  147.4530 C   0  0  0  0  0  3  0  0  0  0  0  0
  189.7960  175.5460  145.0670 C   0  0  0  0  0  0  0  0  0  0  0  0
  189.9200  176.9170  144.8110 C   0  0  0  0  0  3  0  0  0  0  0  0
  190.0440  177.3660  147.1960 C   0  0  0  0  0  0  0  0  0  0  0  0
  189.7690  175.0930  146.3920 C   0  0  0  0  0  3  0  0  0  0  0  0
  189.0040  178.9450  148.6940 O   0  0  0  0  0  1  0  0  0  0  0  0
  190.1230  178.3010  148.2830 N   0  0  0  0  0  0  0  0  0  0  0  0
  191.2210  178.2580  149.1440 N   0  0  0  0  0  1  0  0  0  0  0  0
  189.5650  175.2470  142.6670 N   0  0  0  0  0  2  0  0  0  0  0  0
  188.3250  175.0170  140.5840 C   0  0  0  0  0  1  0  0  0  0  0  0
  188.2320  175.1100  142.0930 C   0  0  2  0  0  3  0  0  0  0  0  0
  185.1850  178.1310  143.8230 C   0  0  0  0  0  0  0  0  0  0  0  0
  186.6050  176.8050  141.2420 C   0  0  0  0  0  2  0  0  0  0  0  0
  183.5420  178.2540  141.9470 C   0  0  0  0  0  1  0  0  0  0  0  0
  185.5800  178.6950  140.2150 F   0  0  0  0  0  0  0  0  0  0  0  0
  186.0240  178.2050  141.4350 C   0  0  1  0  0  3  0  0  0  0  0  0
  187.3560  176.3050  142.4760 C   0  0  1  0  0  3  0  0  0  0  0  0
  186.3580  175.9220  143.5790 C   0  0  0  0  0  2  0  0  0  0  0  0
  185.8690  177.1120  144.3570 C   0  0  0  0  0  3  0  0  0  0  0  0
  184.9180  178.1790  142.4050 N   0  0  0  0  0  0  0  0  0  0  0  0
  185.2850  180.4520  144.6960 O   0  0  0  0  0  0  0  0  0  0  0  0
  183.8010  178.9490  145.5580 O   0  0  0  0  0  1  0  0  0  0  0  0
  184.6920  179.1990  144.7040 C   0  0  0  0  0  0  0  0  0  0  0  0
  1  8  1  6  0  0  0
  1  5  1  0  0  0  0
  1  3  1  0  0  0  0
  2  6  1  0  0  0  0
  3  2  1  0  0  0  0
  4  6  1  0  0  0  0
  5  7  1  6  0  0  0
  5  4  1  0  0  0  0
  6 32  1  1  0  0  0
  9 10  1  0  0  0  0
  9  8  1  0  0  0  0
 11 12  1  0  0  0  0
 11 10  1  0  0  0  0
 12 13  1  0  0  0  0
 14 13  1  0  0  0  0
 14 15  1  0  0  0  0
 15 16  1  0  0  0  0
 16 17  1  0  0  0  0
 17 18  1  0  0  0  0
 18 19  1  0  0  0  0
 19 20  1  0  0  0  0
 20 23  1  0  0  0  0
 21 23  2  0  0  0  0
 23 22  1  0  0  0  0
 24 31  1  6  0  0  0
 24 30  1  0  0  0  0
 26 25  2  0  0  0  0
 26 30  1  0  0  0  0
 27 26  1  0  0  0  0
 28 22  1  6  0  0  0
 28 27  1  0  0  0  0
 28 29  1  0  0  0  0
 29 24  1  0  0  0  0
 32 33  1  0  0  0  0
 33 34  1  0  0  0  0
 34 35  1  0  0  0  0
 35 36  1  0  0  0  0
 36 46  1  6  0  0  0
 36 39  1  0  0  0  0
 37 41  1  0  0  0  0
 39 42  2  0  0  0  0
 40 39  1  0  0  0  0
 40 37  2  0  0  0  0
 41 38  2  0  0  0  0
 41 44  1  0  0  0  0
 42 38  1  0  0  0  0
 44 43  1  0  0  0  0
 44 45  1  0  0  0  0
 48 47  1  6  0  0  0
 48 46  1  0  0  0  0
 49 56  2  0  0  0  0
 49 60  1  0  0  0  0
 50 53  1  0  0  0  0
 50 54  1  0  0  0  0
 51 57  1  0  0  0  0
 53 52  1  6  0  0  0
 53 57  1  0  0  0  0
 54 48  1  6  0  0  0
 54 55  1  0  0  0  0
 55 56  1  0  0  0  0
 57 49  1  0  0  0  0
 58 60  2  0  0  0  0
 60 59  1  0  0  0  0
M  END
>  <MODEL>
7

>  <REMARK>
 VINA RESULT:      -5.1      3.032      9.317
  Name = 
  25 active torsions:
  status: ('A' for Active; 'I' for Inactive)
    1  A    between atoms: N_3  and  C_22
    2  A    between atoms: N_3  and  C_53
    3  A    between atoms: C_6  and  C_40
    4  A    between atoms: C_7  and  C_25
    5  A    between atoms: C_7  and  C_46
    6  A    between atoms: C_8  and  C_25
    7  A    between atoms: C_11  and  N_48
    8  A    between atoms: C_11  and  N_56
    9  A    between atoms: C_12  and  C_53
   10  A    between atoms: N_13  and  C_55
   11  A    between atoms: N_14  and  C_42
   12  A    between atoms: C_17  and  C_37
   13  A    between atoms: C_18  and  C_39
   14  A    between atoms: C_18  and  N_43
   15  A    between atoms: C_18  and  N_47
   16  A    between atoms: C_22  and  C_52
   17  A    between atoms: C_23  and  C_44
   18  A    between atoms: C_23  and  C_46
   19  A    between atoms: O_24  and  C_30
   20  A    between atoms: O_24  and  C_37
   21  A    between atoms: C_35  and  N_56
   22  A    between atoms: C_36  and  C_45
   23  A    between atoms: N_43  and  C_45
   24  A    between atoms: C_44  and  C_52
   25  A    between atoms: N_47  and  N_48
                            x       y       z     vdW  Elec       q    Type
                         _______ _______ _______ _____ _____    ______ ____

>  <TORSDO>
F 25

$$$$
=
 OpenBabel11062420413D

 60 63  0  0  1  0  0  0  0  0999 V2000
  195.4550  174.9030  142.2670 C   0  0  2  0  0  3  0  0  0  0  0  0
  193.0550  174.7590  141.5860 C   0  0  0  0  0  2  0  0  0  0  0  0
  194.4930  174.6410  141.1120 C   0  0  0  0  0  2  0  0  0  0  0  0
  193.7210  176.4180  143.3220 C   0  0  0  0  0  2  0  0  0  0  0  0
  195.1810  176.2820  142.8900 C   0  0  1  0  0  3  0  0  0  0  0  0
  192.7830  176.1500  142.1510 C   0  0  2  0  0  3  0  0  0  0  0  0
  195.9950  176.4830  143.9880 F   0  0  0  0  0  0  0  0  0  0  0  0
  196.8760  174.8540  141.7310 C   0  0  0  0  0  2  0  0  0  0  0  0
  197.1130  175.9820  140.8350 N   0  0  0  0  0  2  0  0  0  0  0  0
  197.8160  175.4850  139.6610 C   0  0  0  0  0  2  0  0  0  0  0  0
  197.3110  174.1030  139.2750 C   0  0  0  0  0  2  0  0  0  0  0  0
  197.3500  173.9120  137.7640 C   0  0  0  0  0  2  0  0  0  0  0  0
  196.3880  174.8560  137.0840 C   0  0  0  0  0  2  0  0  0  0  0  0
  195.5840  174.1160  136.0380 C   0  0  0  0  0  2  0  0  0  0  0  0
  194.1150  174.0620  136.4250 C   0  0  0  0  0  2  0  0  0  0  0  0
  193.6070  175.4550  136.7720 C   0  0  0  0  0  2  0  0  0  0  0  0
  192.4190  175.8260  135.9540 C   0  0  0  0  0  2  0  0  0  0  0  0
  191.2530  175.1900  136.0930 C   0  0  0  0  0  2  0  0  0  0  0  0
  189.9400  174.8020  135.9400 O   0  0  0  0  0  0  0  0  0  0  0  0
  189.2140  174.1970  136.9990 C   0  0  0  0  0  2  0  0  0  0  0  0
  189.3110  171.8170  136.9720 O   0  0  0  0  0  0  0  0  0  0  0  0
  191.0160  172.8720  138.1900 N   0  0  0  0  0  2  0  0  0  0  0  0
  189.8370  172.8910  137.3670 C   0  0  0  0  0  0  0  0  0  0  0  0
  193.8560  170.7850  139.5780 C   0  0  1  0  0  3  0  0  0  0  0  0
  191.0240  169.6030  141.5610 O   0  0  0  0  0  0  0  0  0  0  0  0
  191.6580  170.1880  140.6930 C   0  0  0  0  0  0  0  0  0  0  0  0
  190.8860  170.8510  139.5730 C   0  0  0  0  0  2  0  0  0  0  0  0
  191.7280  171.6570  138.5710 C   0  0  2  0  0  3  0  0  0  0  0  0
  193.1330  172.0120  139.0510 C   0  0  0  0  0  2  0  0  0  0  0  0
  193.1560  170.2570  140.8250 C   0  0  0  0  0  2  0  0  0  0  0  0
  193.9390  169.7890  138.5970 O   0  0  0  0  0  1  0  0  0  0  0  0
  191.3950  176.1930  142.6060 N   0  0  0  0  0  2  0  0  0  0  0  0
  190.6190  175.1270  141.9520 C   0  0  0  0  0  2  0  0  0  0  0  0
  190.4970  173.9530  142.8150 N   0  0  0  0  0  2  0  0  0  0  0  0
  189.5640  174.2480  143.8190 N   0  0  0  0  0  2  0  0  0  0  0  0
  190.0230  173.6100  145.0420 C   0  0  1  0  0  3  0  0  0  0  0  0
  193.8160  173.7470  145.4820 C   0  0  0  0  0  3  0  0  0  0  0  0
  193.2270  171.6620  144.3980 C   0  0  0  0  0  3  0  0  0  0  0  0
  191.4920  173.2640  144.9740 C   0  0  0  0  0  0  0  0  0  0  0  0
  192.4660  174.1110  145.5190 C   0  0  0  0  0  3  0  0  0  0  0  0
  194.2060  172.5280  144.9100 C   0  0  0  0  0  0  0  0  0  0  0  0
  191.8790  172.0360  144.4240 C   0  0  0  0  0  3  0  0  0  0  0  0
  196.5540  173.0790  144.8950 O   0  0  0  0  0  1  0  0  0  0  0  0
  195.5860  172.1320  144.9210 N   0  0  0  0  0  0  0  0  0  0  0  0
  195.9250  170.8440  145.3410 N   0  0  0  0  0  1  0  0  0  0  0  0
  189.7760  174.5100  146.1590 N   0  0  0  0  0  2  0  0  0  0  0  0
  190.3670  176.7840  146.7990 C   0  0  0  0  0  1  0  0  0  0  0  0
  189.8530  175.8880  145.6900 C   0  0  2  0  0  3  0  0  0  0  0  0
  186.1700  178.0090  143.8640 C   0  0  0  0  0  0  0  0  0  0  0  0
  187.6450  176.7710  146.4570 C   0  0  0  0  0  2  0  0  0  0  0  0
  185.3380  179.2780  145.8470 C   0  0  0  0  0  1  0  0  0  0  0  0
  185.4360  177.0040  147.3200 F   0  0  0  0  0  0  0  0  0  0  0  0
  186.1560  176.8960  146.1380 C   0  0  1  0  0  3  0  0  0  0  0  0
  188.4770  176.3800  145.2360 C   0  0  1  0  0  3  0  0  0  0  0  0
  188.6100  177.5780  144.2850 C   0  0  0  0  0  2  0  0  0  0  0  0
  187.4030  177.7580  143.4070 C   0  0  0  0  0  3  0  0  0  0  0  0
  185.9060  178.0660  145.2820 N   0  0  0  0  0  0  0  0  0  0  0  0
  183.7730  178.3710  143.3300 O   0  0  0  0  0  1  0  0  0  0  0  0
  185.3250  178.2150  141.6640 O   0  0  0  0  0  0  0  0  0  0  0  0
  185.0850  178.2440  142.9000 C   0  0  0  0  0  0  0  0  0  0  0  0
  1  8  1  6  0  0  0
  1  5  1  0  0  0  0
  2  6  1  0  0  0  0
  3  2  1  0  0  0  0
  3  1  1  0  0  0  0
  5  4  1  0  0  0  0
  5  7  1  1  0  0  0
  6 32  1  1  0  0  0
  6  4  1  0  0  0  0
  9  8  1  0  0  0  0
 10  9  1  0  0  0  0
 11 10  1  0  0  0  0
 12 11  1  0  0  0  0
 13 12  1  0  0  0  0
 14 15  1  0  0  0  0
 14 13  1  0  0  0  0
 15 16  1  0  0  0  0
 17 18  1  0  0  0  0
 17 16  1  0  0  0  0
 19 18  1  0  0  0  0
 19 20  1  0  0  0  0
 20 23  1  0  0  0  0
 21 23  2  0  0  0  0
 23 22  1  0  0  0  0
 24 31  1  6  0  0  0
 24 30  1  0  0  0  0
 26 30  1  0  0  0  0
 26 25  2  0  0  0  0
 27 26  1  0  0  0  0
 28 22  1  1  0  0  0
 28 29  1  0  0  0  0
 28 27  1  0  0  0  0
 29 24  1  0  0  0  0
 33 32  1  0  0  0  0
 33 34  1  0  0  0  0
 34 35  1  0  0  0  0
 36 35  1  6  0  0  0
 36 46  1  0  0  0  0
 37 40  1  0  0  0  0
 38 42  2  0  0  0  0
 38 41  1  0  0  0  0
 39 36  1  0  0  0  0
 39 40  2  0  0  0  0
 41 44  1  0  0  0  0
 41 37  2  0  0  0  0
 42 39  1  0  0  0  0
 43 44  1  0  0  0  0
 44 45  1  0  0  0  0
 48 46  1  0  0  0  0
 48 47  1  1  0  0  0
 49 57  1  0  0  0  0
 53 50  1  0  0  0  0
 53 52  1  1  0  0  0
 54 48  1  1  0  0  0
 54 50  1  0  0  0  0
 55 54  1  0  0  0  0
 56 49  2  0  0  0  0
 56 55  1  0  0  0  0
 57 51  1  0  0  0  0
 57 53  1  0  0  0  0
 59 60  2  0  0  0  0
 60 58  1  0  0  0  0
 60 49  1  0  0  0  0
M  END
>  <MODEL>
8

>  <REMARK>
 VINA RESULT:      -5.0      3.060      9.293
  Name = 
  25 active torsions:
  status: ('A' for Active; 'I' for Inactive)
    1  A    between atoms: N_3  and  C_22
    2  A    between atoms: N_3  and  C_53
    3  A    between atoms: C_6  and  C_40
    4  A    between atoms: C_7  and  C_25
    5  A    between atoms: C_7  and  C_46
    6  A    between atoms: C_8  and  C_25
    7  A    between atoms: C_11  and  N_48
    8  A    between atoms: C_11  and  N_56
    9  A    between atoms: C_12  and  C_53
   10  A    between atoms: N_13  and  C_55
   11  A    between atoms: N_14  and  C_42
   12  A    between atoms: C_17  and  C_37
   13  A    between atoms: C_18  and  C_39
   14  A    between atoms: C_18  and  N_43
   15  A    between atoms: C_18  and  N_47
   16  A    between atoms: C_22  and  C_52
   17  A    between atoms: C_23  and  C_44
   18  A    between atoms: C_23  and  C_46
   19  A    between atoms: O_24  and  C_30
   20  A    between atoms: O_24  and  C_37
   21  A    between atoms: C_35  and  N_56
   22  A    between atoms: C_36  and  C_45
   23  A    between atoms: N_43  and  C_45
   24  A    between atoms: C_44  and  C_52
   25  A    between atoms: N_47  and  N_48
                            x       y       z     vdW  Elec       q    Type
                         _______ _______ _______ _____ _____    ______ ____

>  <TORSDO>
F 25

$$$$
=
 OpenBabel11062420413D

 60 63  0  0  1  0  0  0  0  0999 V2000
  194.1330  175.4410  144.0440 C   0  0  2  0  0  3  0  0  0  0  0  0
  192.5130  173.8030  145.0090 C   0  0  0  0  0  2  0  0  0  0  0  0
  193.8560  174.4860  145.2000 C   0  0  0  0  0  2  0  0  0  0  0  0
  192.7360  173.9640  142.5330 C   0  0  0  0  0  2  0  0  0  0  0  0
  194.0690  174.6930  142.7020 C   0  0  1  0  0  3  0  0  0  0  0  0
  192.4830  173.0190  143.7010 C   0  0  2  0  0  3  0  0  0  0  0  0
  194.2360  175.5740  141.6520 F   0  0  0  0  0  0  0  0  0  0  0  0
  195.5170  176.0390  144.2340 C   0  0  0  0  0  2  0  0  0  0  0  0
  196.4600  175.4250  143.3050 N   0  0  0  0  0  2  0  0  0  0  0  0
  196.7310  174.0710  143.7670 C   0  0  0  0  0  2  0  0  0  0  0  0
  197.6120  174.0910  145.0080 C   0  0  0  0  0  2  0  0  0  0  0  0
  196.9790  173.2860  146.1360 C   0  0  0  0  0  2  0  0  0  0  0  0
  196.8480  171.8340  145.7440 C   0  0  0  0  0  2  0  0  0  0  0  0
  195.3940  171.4190  145.7620 C   0  0  0  0  0  2  0  0  0  0  0  0
  195.2090  170.0720  145.0820 C   0  0  0  0  0  2  0  0  0  0  0  0
  194.4920  170.2450  143.7500 C   0  0  0  0  0  2  0  0  0  0  0  0
  195.4450  170.5570  142.6490 C   0  0  0  0  0  2  0  0  0  0  0  0
  195.5210  169.7920  141.5570 C   0  0  0  0  0  2  0  0  0  0  0  0
  195.8890  169.2820  140.3310 O   0  0  0  0  0  0  0  0  0  0  0  0
  194.9890  169.2600  139.2330 C   0  0  0  0  0  2  0  0  0  0  0  0
  193.7070  171.2630  139.1040 O   0  0  0  0  0  0  0  0  0  0  0  0
  195.6830  171.2590  137.8380 N   0  0  0  0  0  2  0  0  0  0  0  0
  194.7440  170.6480  138.7420 C   0  0  0  0  0  0  0  0  0  0  0  0
  195.8440  175.0410  137.9430 C   0  0  1  0  0  3  0  0  0  0  0  0
  197.9400  174.2860  135.0480 O   0  0  0  0  0  0  0  0  0  0  0  0
  197.1620  174.1280  135.9780 C   0  0  0  0  0  0  0  0  0  0  0  0
  196.4470  172.7990  136.0900 C   0  0  0  0  0  2  0  0  0  0  0  0
  195.5620  172.6220  137.3340 C   0  0  2  0  0  3  0  0  0  0  0  0
  195.8330  173.6140  138.4620 C   0  0  0  0  0  2  0  0  0  0  0  0
  197.0080  175.2420  136.9800 C   0  0  0  0  0  2  0  0  0  0  0  0
  194.6290  175.3630  137.3260 O   0  0  0  0  0  1  0  0  0  0  0  0
  191.1640  172.4050  143.5680 N   0  0  0  0  0  2  0  0  0  0  0  0
  190.2420  172.9760  144.5620 C   0  0  0  0  0  2  0  0  0  0  0  0
  189.4650  174.0770  143.9930 N   0  0  0  0  0  2  0  0  0  0  0  0
  188.8780  173.6240  142.8030 N   0  0  0  0  0  2  0  0  0  0  0  0
  188.9790  174.7000  141.8300 C   0  0  1  0  0  3  0  0  0  0  0  0
  190.3470  172.7950  138.8150 C   0  0  0  0  0  3  0  0  0  0  0  0
  188.3360  173.9710  138.1530 C   0  0  0  0  0  3  0  0  0  0  0  0
  189.1660  174.1700  140.4280 C   0  0  0  0  0  0  0  0  0  0  0  0
  190.2210  173.3060  140.1110 C   0  0  0  0  0  3  0  0  0  0  0  0
  189.4140  173.1340  137.8250 C   0  0  0  0  0  0  0  0  0  0  0  0
  188.2210  174.4910  139.4460 C   0  0  0  0  0  3  0  0  0  0  0  0
  189.7260  173.3770  135.4460 O   0  0  0  0  0  1  0  0  0  0  0  0
  189.5140  172.5660  136.5100 N   0  0  0  0  0  0  0  0  0  0  0  0
  189.7810  171.2030  136.3720 N   0  0  0  0  0  1  0  0  0  0  0  0
  187.7700  175.5080  141.8990 N   0  0  0  0  0  2  0  0  0  0  0  0
  189.6480  177.0490  142.0640 C   0  0  0  0  0  1  0  0  0  0  0  0
  188.1400  176.9110  142.0380 C   0  0  2  0  0  3  0  0  0  0  0  0
  186.1300  177.8130  146.1050 C   0  0  0  0  0  0  0  0  0  0  0  0
  186.4820  178.5290  142.9760 C   0  0  0  0  0  2  0  0  0  0  0  0
  183.9730  178.8140  145.3420 C   0  0  0  0  0  1  0  0  0  0  0  0
  185.3490  180.4900  143.7150 F   0  0  0  0  0  0  0  0  0  0  0  0
  186.1280  179.4310  144.1570 C   0  0  1  0  0  3  0  0  0  0  0  0
  187.5530  177.4970  143.3250 C   0  0  1  0  0  3  0  0  0  0  0  0
  186.9500  176.3910  144.2030 C   0  0  0  0  0  2  0  0  0  0  0  0
  186.8580  176.7860  145.6510 C   0  0  0  0  0  3  0  0  0  0  0  0
  185.4110  178.6700  145.1930 N   0  0  0  0  0  0  0  0  0  0  0  0
  185.9410  176.9910  148.4400 O   0  0  0  0  0  1  0  0  0  0  0  0
  185.9820  179.2280  147.9950 O   0  0  0  0  0  0  0  0  0  0  0  0
  186.0570  178.0510  147.5540 C   0  0  0  0  0  0  0  0  0  0  0  0
  1  8  1  1  0  0  0
  1  3  1  0  0  0  0
  2  3  1  0  0  0  0
  4  5  1  0  0  0  0
  4  6  1  0  0  0  0
  5  7  1  6  0  0  0
  5  1  1  0  0  0  0
  6 32  1  6  0  0  0
  6  2  1  0  0  0  0
  9 10  1  0  0  0  0
  9  8  1  0  0  0  0
 10 11  1  0  0  0  0
 11 12  1  0  0  0  0
 13 14  1  0  0  0  0
 13 12  1  0  0  0  0
 15 14  1  0  0  0  0
 16 15  1  0  0  0  0
 17 16  1  0  0  0  0
 18 17  1  0  0  0  0
 19 18  1  0  0  0  0
 20 19  1  0  0  0  0
 22 23  1  0  0  0  0
 23 21  2  0  0  0  0
 23 20  1  0  0  0  0
 24 31  1  6  0  0  0
 24 29  1  0  0  0  0
 25 26  2  0  0  0  0
 26 27  1  0  0  0  0
 26 30  1  0  0  0  0
 27 28  1  0  0  0  0
 28 22  1  1  0  0  0
 28 29  1  0  0  0  0
 30 24  1  0  0  0  0
 32 33  1  0  0  0  0
 34 33  1  0  0  0  0
 35 34  1  0  0  0  0
 36 46  1  6  0  0  0
 36 35  1  0  0  0  0
 37 40  1  0  0  0  0
 38 42  2  0  0  0  0
 39 36  1  0  0  0  0
 40 39  2  0  0  0  0
 41 38  1  0  0  0  0
 41 37  2  0  0  0  0
 42 39  1  0  0  0  0
 43 44  1  0  0  0  0
 44 41  1  0  0  0  0
 45 44  1  0  0  0  0
 46 48  1  0  0  0  0
 48 47  1  1  0  0  0
 49 60  1  0  0  0  0
 50 54  1  0  0  0  0
 50 53  1  0  0  0  0
 53 52  1  6  0  0  0
 53 57  1  0  0  0  0
 54 48  1  6  0  0  0
 54 55  1  0  0  0  0
 55 56  1  0  0  0  0
 56 49  2  0  0  0  0
 57 51  1  0  0  0  0
 57 49  1  0  0  0  0
 60 59  2  0  0  0  0
 60 58  1  0  0  0  0
M  END
>  <MODEL>
9

>  <REMARK>
 VINA RESULT:      -5.0      3.594     10.153
  Name = 
  25 active torsions:
  status: ('A' for Active; 'I' for Inactive)
    1  A    between atoms: N_3  and  C_22
    2  A    between atoms: N_3  and  C_53
    3  A    between atoms: C_6  and  C_40
    4  A    between atoms: C_7  and  C_25
    5  A    between atoms: C_7  and  C_46
    6  A    between atoms: C_8  and  C_25
    7  A    between atoms: C_11  and  N_48
    8  A    between atoms: C_11  and  N_56
    9  A    between atoms: C_12  and  C_53
   10  A    between atoms: N_13  and  C_55
   11  A    between atoms: N_14  and  C_42
   12  A    between atoms: C_17  and  C_37
   13  A    between atoms: C_18  and  C_39
   14  A    between atoms: C_18  and  N_43
   15  A    between atoms: C_18  and  N_47
   16  A    between atoms: C_22  and  C_52
   17  A    between atoms: C_23  and  C_44
   18  A    between atoms: C_23  and  C_46
   19  A    between atoms: O_24  and  C_30
   20  A    between atoms: O_24  and  C_37
   21  A    between atoms: C_35  and  N_56
   22  A    between atoms: C_36  and  C_45
   23  A    between atoms: N_43  and  C_45
   24  A    between atoms: C_44  and  C_52
   25  A    between atoms: N_47  and  N_48
                            x       y       z     vdW  Elec       q    Type
                         _______ _______ _______ _____ _____    ______ ____

>  <TORSDO>
F 25

$$$$
