=
 OpenBabel11062419143D

 54 58  0  0  1  0  0  0  0  0999 V2000
  190.5300  174.0650  142.3100 C   0  0  2  0  0  3  0  0  0  0  0  0
  190.3920  174.2210  140.8000 C   0  0  0  0  0  2  0  0  0  0  0  0
  189.1650  174.7290  144.3040 C   0  0  0  0  0  2  0  0  0  0  0  0
  193.0000  174.3530  139.7370 N   0  0  0  0  0  1  0  0  0  0  0  0
  192.0910  175.2190  144.8750 C   0  0  2  0  0  3  0  0  0  0  0  0
  190.9930  173.1330  140.1260 O   0  0  0  0  0  0  0  0  0  0  0  0
  192.2440  173.8710  144.1760 C   0  0  2  0  0  3  0  0  0  0  0  0
  196.5770  176.2040  144.0670 C   0  0  0  0  0  2  0  0  0  0  0  0
  195.4450  177.0760  144.6130 C   0  0  0  0  0  2  0  0  0  0  0  0
  194.2120  174.3140  145.5510 C   0  0  2  0  0  3  0  0  0  0  0  0
  194.0720  176.5340  144.2450 C   0  0  0  0  0  2  0  0  0  0  0  0
  196.3340  174.7030  144.2070 C   0  0  0  0  0  2  0  0  0  0  0  0
  193.4780  175.6420  145.3500 C   0  0  1  0  0  0  0  0  0  0  0  0
  189.7600  175.1980  142.9800 C   0  0  0  0  0  2  0  0  0  0  0  0
  195.7470  174.3460  145.5720 C   0  0  0  0  0  2  0  0  0  0  0  0
  193.6260  173.3240  144.5600 C   0  0  1  0  0  3  0  0  0  0  0  0
  192.3920  173.1650  140.3370 C   0  0  2  0  0  3  0  0  0  0  0  0
  191.0410  175.0930  145.9710 C   0  0  0  0  0  2  0  0  0  0  0  0
  192.0290  174.0800  142.6650 C   0  0  1  0  0  3  0  0  0  0  0  0
  193.4140  176.3540  146.5540 O   0  0  0  0  0  1  0  0  0  0  0  0
  192.7550  173.0360  141.8160 C   0  0  0  0  0  2  0  0  0  0  0  0
  189.6830  175.5690  145.4700 C   0  0  2  0  0  3  0  0  0  0  0  0
  188.9210  174.8710  147.6250 O   0  0  0  0  0  0  0  0  0  0  0  0
  187.5290  176.3690  146.5050 N   0  0  0  0  0  2  0  0  0  0  0  0
  188.7060  175.5650  146.5980 C   0  0  0  0  0  0  0  0  0  0  0  0
  186.6330  176.4180  147.5220 O   0  0  0  0  0  0  0  0  0  0  0  0
  185.7300  177.4240  147.1640 C   0  0  0  0  0  2  0  0  0  0  0  0
  186.3140  178.2680  146.0460 C   0  0  0  0  0  2  0  0  0  0  0  0
  185.4390  179.3930  145.7590 N   0  0  0  0  0  2  0  0  0  0  0  0
  185.5300  179.6320  144.3300 C   0  0  0  0  0  1  0  0  0  0  0  0
  193.4730  171.9760  145.2510 C   0  0  0  0  0  2  0  0  0  0  0  0
  194.5460  169.5810  141.6920 C   0  0  0  0  0  0  0  0  0  0  0  0
  195.0260  168.7160  140.9750 O   0  0  0  0  0  0  0  0  0  0  0  0
  191.5770  170.8610  143.5180 O   0  0  0  0  0  1  0  0  0  0  0  0
  192.8840  170.3780  143.4570 C   0  0  0  0  0  0  0  0  0  0  0  0
  196.0370  170.8220  143.2070 O   0  0  0  0  0  0  0  0  0  0  0  0
  193.2440  169.3130  142.4260 C   0  0  1  0  0  3  0  0  0  0  0  0
  195.2240  170.3040  144.2580 C   0  0  2  0  0  3  0  0  0  0  0  0
  193.8080  170.8520  144.3180 C   0  0  0  0  0  0  0  0  0  0  0  0
  195.3180  170.8600  141.9760 C   0  0  1  0  0  3  0  0  0  0  0  0
  191.0880  169.4130  139.1860 C   0  0  0  0  0  0  0  0  0  0  0  0
  192.0700  169.6770  140.2010 N   0  0  0  0  0  2  0  0  0  0  0  0
  190.2040  168.5280  139.3490 O   0  0  0  0  0  0  0  0  0  0  0  0
  192.1300  169.0150  141.4710 C   0  0  0  0  0  0  0  0  0  0  0  0
  191.2560  168.1670  141.8000 O   0  0  0  0  0  0  0  0  0  0  0  0
  189.7750  170.0590  137.2080 C   0  0  0  0  0  1  0  0  0  0  0  0
  191.1030  170.2080  137.9290 C   0  0  0  0  0  2  0  0  0  0  0  0
  195.5440  169.6320  146.5080 O   0  0  0  0  0  0  0  0  0  0  0  0
  195.9510  170.3020  145.5720 C   0  0  0  0  0  0  0  0  0  0  0  0
  197.1890  171.1180  145.7350 C   0  0  0  0  0  1  0  0  0  0  0  0
  196.2380  171.2850  140.8310 C   0  0  1  0  0  3  0  0  0  0  0  0
  195.4810  171.5800  139.6910 O   0  0  0  0  0  1  0  0  0  0  0  0
  197.0350  172.5180  141.2350 C   0  0  0  0  0  2  0  0  0  0  0  0
  196.3740  173.7660  140.6660 C   0  0  0  0  0  1  0  0  0  0  0  0
  1  2  1  6  0  0  0
  1 19  1  0  0  0  0
  1 14  1  0  0  0  0
  3 22  1  0  0  0  0
  4 17  1  0  0  0  0
  5 13  1  0  0  0  0
  5 18  1  1  0  0  0
  6 17  1  0  0  0  0
  6  2  1  0  0  0  0
  7 16  1  0  0  0  0
  7  5  1  0  0  0  0
  8 12  1  0  0  0  0
  8  9  1  0  0  0  0
 10 15  1  0  0  0  0
 11  9  1  0  0  0  0
 11 13  1  0  0  0  0
 12 15  1  0  0  0  0
 13 10  1  0  0  0  0
 13 20  1  0  0  0  0
 14  3  1  0  0  0  0
 16 31  1  0  0  0  0
 16 10  1  0  0  0  0
 17 21  1  0  0  0  0
 19  7  1  0  0  0  0
 21 19  1  0  0  0  0
 22 18  1  0  0  0  0
 22 25  1  0  0  0  0
 24 25  1  0  0  0  0
 24 26  1  0  0  0  0
 25 23  2  0  0  0  0
 27 26  1  0  0  0  0
 28 27  1  0  0  0  0
 29 28  1  0  0  0  0
 30 29  1  0  0  0  0
 32 40  1  0  0  0  0
 32 37  1  0  0  0  0
 33 32  2  0  0  0  0
 35 34  1  0  0  0  0
 35 39  2  0  0  0  0
 36 38  1  0  0  0  0
 37 35  1  0  0  0  0
 38 39  1  0  0  0  0
 38 49  1  0  0  0  0
 39 31  1  0  0  0  0
 40 36  1  0  0  0  0
 41 43  2  0  0  0  0
 41 42  1  0  0  0  0
 42 44  1  0  0  0  0
 44 45  2  0  0  0  0
 44 37  1  0  0  0  0
 46 47  1  0  0  0  0
 47 41  1  0  0  0  0
 49 50  1  0  0  0  0
 49 48  2  0  0  0  0
 51 53  1  0  0  0  0
 51 40  1  0  0  0  0
 52 51  1  0  0  0  0
 54 53  1  0  0  0  0
M  END
>  <MODEL>
1

>  <REMARK>
 VINA RESULT:      -6.5      0.000      0.000
  Name = 
  12 active torsions:
  status: ('A' for Active; 'I' for Inactive)
    1  A    between atoms: C_3  and  O_31
    2  A    between atoms: C_3  and  C_52
    3  A    between atoms: C_11  and  C_28
    4  A    between atoms: C_11  and  C_34
    5  A    between atoms: N_12  and  C_52
    6  A    between atoms: C_18  and  C_33
    7  A    between atoms: C_23  and  C_40
    8  A    between atoms: C_23  and  C_41
    9  A    between atoms: C_29  and  C_50
   10  A    between atoms: O_31  and  N_38
   11  A    between atoms: C_42  and  C_49
   12  A    between atoms: C_46  and  C_53
                            x       y       z     vdW  Elec       q    Type
                         _______ _______ _______ _____ _____    ______ ____

>  <TORSDO>
F 12

$$$$
=
 OpenBabel11062419143D

 54 58  0  0  1  0  0  0  0  0999 V2000
  190.5430  173.4390  142.8450 C   0  0  2  0  0  3  0  0  0  0  0  0
  190.4750  172.8210  144.2370 C   0  0  0  0  0  2  0  0  0  0  0  0
  188.8910  174.4710  141.2690 C   0  0  0  0  0  2  0  0  0  0  0  0
  192.5050  170.8700  144.3790 N   0  0  0  0  0  1  0  0  0  0  0  0
  190.7960  172.7070  139.7230 C   0  0  2  0  0  3  0  0  0  0  0  0
  191.6830  173.0330  144.9400 O   0  0  0  0  0  0  0  0  0  0  0  0
  191.8230  173.3490  140.6520 C   0  0  2  0  0  3  0  0  0  0  0  0
  193.7210  169.1820  138.8440 C   0  0  0  0  0  2  0  0  0  0  0  0
  192.2490  169.3760  138.4740 C   0  0  0  0  0  2  0  0  0  0  0  0
  192.9440  172.4590  138.6730 C   0  0  2  0  0  3  0  0  0  0  0  0
  191.5600  170.3950  139.3680 C   0  0  0  0  0  2  0  0  0  0  0  0
  194.4620  170.4790  139.1600 C   0  0  0  0  0  2  0  0  0  0  0  0
  191.5610  171.8070  138.7560 C   0  0  1  0  0  0  0  0  0  0  0  0
  189.1770  173.2860  142.1860 C   0  0  0  0  0  2  0  0  0  0  0  0
  194.1090  171.5920  138.1750 C   0  0  0  0  0  2  0  0  0  0  0  0
  193.2000  173.1340  140.0090 C   0  0  1  0  0  3  0  0  0  0  0  0
  192.7260  172.3140  144.3080 C   0  0  2  0  0  3  0  0  0  0  0  0
  189.9640  173.8020  139.0690 C   0  0  0  0  0  2  0  0  0  0  0  0
  191.6610  172.7340  142.0550 C   0  0  1  0  0  3  0  0  0  0  0  0
  190.9560  171.7800  137.4940 O   0  0  0  0  0  1  0  0  0  0  0  0
  192.9550  172.7760  142.8690 C   0  0  0  0  0  2  0  0  0  0  0  0
  188.6600  174.0100  139.8300 C   0  0  2  0  0  3  0  0  0  0  0  0
  187.4860  174.7810  137.8960 O   0  0  0  0  0  0  0  0  0  0  0  0
  187.3400  176.1570  139.7720 N   0  0  0  0  0  2  0  0  0  0  0  0
  187.8050  174.9890  139.0950 C   0  0  0  0  0  0  0  0  0  0  0  0
  186.5340  177.0530  139.1500 O   0  0  0  0  0  0  0  0  0  0  0  0
  185.9160  177.7650  140.1830 C   0  0  0  0  0  2  0  0  0  0  0  0
  186.4140  177.2630  141.5260 C   0  0  0  0  0  2  0  0  0  0  0  0
  185.3350  177.2890  142.5010 N   0  0  0  0  0  2  0  0  0  0  0  0
  185.8800  176.7490  143.7340 C   0  0  0  0  0  1  0  0  0  0  0  0
  193.8650  174.4800  139.7540 C   0  0  0  0  0  2  0  0  0  0  0  0
  196.6110  174.2840  143.2160 C   0  0  0  0  0  0  0  0  0  0  0  0
  197.6230  174.3100  143.8980 O   0  0  0  0  0  0  0  0  0  0  0  0
  193.5530  176.0430  142.0560 O   0  0  0  0  0  1  0  0  0  0  0  0
  194.7860  175.4280  141.8450 C   0  0  0  0  0  0  0  0  0  0  0  0
  196.5760  172.8600  141.2080 O   0  0  0  0  0  0  0  0  0  0  0  0
  195.8900  175.5790  142.8870 C   0  0  1  0  0  3  0  0  0  0  0  0
  196.3440  174.0670  140.4860 C   0  0  2  0  0  3  0  0  0  0  0  0
  194.9890  174.7160  140.7170 C   0  0  0  0  0  0  0  0  0  0  0  0
  196.1560  172.9870  142.5650 C   0  0  1  0  0  3  0  0  0  0  0  0
  193.8720  176.3180  146.1340 C   0  0  0  0  0  0  0  0  0  0  0  0
  194.3390  175.7640  144.8940 N   0  0  0  0  0  2  0  0  0  0  0  0
  194.4410  177.3150  146.6580 O   0  0  0  0  0  0  0  0  0  0  0  0
  195.4370  176.2820  144.1300 C   0  0  0  0  0  0  0  0  0  0  0  0
  196.0420  177.3260  144.4940 O   0  0  0  0  0  0  0  0  0  0  0  0
  191.4170  176.1710  146.1070 C   0  0  0  0  0  1  0  0  0  0  0  0
  192.6880  175.7180  146.8030 C   0  0  0  0  0  2  0  0  0  0  0  0
  197.0930  172.8590  138.5890 O   0  0  0  0  0  0  0  0  0  0  0  0
  196.7370  173.9350  139.0420 C   0  0  0  0  0  0  0  0  0  0  0  0
  196.6820  175.1290  138.1490 C   0  0  0  0  0  1  0  0  0  0  0  0
  196.5350  171.7380  143.3620 C   0  0  1  0  0  3  0  0  0  0  0  0
  196.0060  171.8160  144.6570 O   0  0  0  0  0  1  0  0  0  0  0  0
  195.9870  170.4960  142.6730 C   0  0  0  0  0  2  0  0  0  0  0  0
  195.7770  169.3900  143.6980 C   0  0  0  0  0  1  0  0  0  0  0  0
  1 14  1  6  0  0  0
  1  2  1  0  0  0  0
  2  6  1  0  0  0  0
  3 14  1  0  0  0  0
  5 18  1  6  0  0  0
  5  7  1  0  0  0  0
  7 19  1  0  0  0  0
  8 12  1  0  0  0  0
  9  8  1  0  0  0  0
  9 11  1  0  0  0  0
 10 13  1  0  0  0  0
 10 16  1  0  0  0  0
 13 11  1  0  0  0  0
 13  5  1  0  0  0  0
 15 10  1  0  0  0  0
 15 12  1  0  0  0  0
 16  7  1  0  0  0  0
 17  4  1  0  0  0  0
 17  6  1  0  0  0  0
 18 22  1  0  0  0  0
 19  1  1  0  0  0  0
 19 21  1  0  0  0  0
 20 13  1  0  0  0  0
 21 17  1  0  0  0  0
 22  3  1  0  0  0  0
 23 25  2  0  0  0  0
 25 24  1  0  0  0  0
 25 22  1  0  0  0  0
 26 24  1  0  0  0  0
 26 27  1  0  0  0  0
 27 28  1  0  0  0  0
 28 29  1  0  0  0  0
 29 30  1  0  0  0  0
 31 16  1  0  0  0  0
 31 39  1  0  0  0  0
 32 33  2  0  0  0  0
 35 34  1  0  0  0  0
 35 37  1  0  0  0  0
 36 40  1  0  0  0  0
 37 32  1  0  0  0  0
 37 44  1  0  0  0  0
 38 39  1  0  0  0  0
 38 36  1  0  0  0  0
 39 35  2  0  0  0  0
 40 32  1  0  0  0  0
 40 51  1  0  0  0  0
 41 43  2  0  0  0  0
 41 47  1  0  0  0  0
 42 41  1  0  0  0  0
 44 45  2  0  0  0  0
 44 42  1  0  0  0  0
 46 47  1  0  0  0  0
 48 49  2  0  0  0  0
 49 38  1  0  0  0  0
 50 49  1  0  0  0  0
 51 52  1  0  0  0  0
 53 51  1  0  0  0  0
 53 54  1  0  0  0  0
M  END
>  <MODEL>
2

>  <REMARK>
 VINA RESULT:      -6.2      2.689      6.833
  Name = 
  12 active torsions:
  status: ('A' for Active; 'I' for Inactive)
    1  A    between atoms: C_3  and  O_31
    2  A    between atoms: C_3  and  C_52
    3  A    between atoms: C_11  and  C_28
    4  A    between atoms: C_11  and  C_34
    5  A    between atoms: N_12  and  C_52
    6  A    between atoms: C_18  and  C_33
    7  A    between atoms: C_23  and  C_40
    8  A    between atoms: C_23  and  C_41
    9  A    between atoms: C_29  and  C_50
   10  A    between atoms: O_31  and  N_38
   11  A    between atoms: C_42  and  C_49
   12  A    between atoms: C_46  and  C_53
                            x       y       z     vdW  Elec       q    Type
                         _______ _______ _______ _____ _____    ______ ____

>  <TORSDO>
F 12

$$$$
=
 OpenBabel11062419143D

 54 58  0  0  1  0  0  0  0  0999 V2000
  189.3010  173.3950  140.6290 C   0  0  2  0  0  3  0  0  0  0  0  0
  188.2660  173.0310  141.6870 C   0  0  0  0  0  2  0  0  0  0  0  0
  189.2600  173.7850  138.1540 C   0  0  0  0  0  2  0  0  0  0  0  0
  189.6080  171.5760  143.6950 N   0  0  0  0  0  1  0  0  0  0  0  0
  191.7180  172.1880  138.8840 C   0  0  2  0  0  3  0  0  0  0  0  0
  188.6050  173.5980  142.9370 O   0  0  0  0  0  0  0  0  0  0  0  0
  191.7640  173.1740  140.0480 C   0  0  2  0  0  3  0  0  0  0  0  0
  194.4360  169.2130  141.2310 C   0  0  0  0  0  2  0  0  0  0  0  0
  193.6690  169.0430  139.9190 C   0  0  0  0  0  2  0  0  0  0  0  0
  193.9730  172.1880  139.7150 C   0  0  2  0  0  3  0  0  0  0  0  0
  192.5350  170.0480  139.7800 C   0  0  0  0  0  2  0  0  0  0  0  0
  194.7120  170.6650  141.6110 C   0  0  0  0  0  2  0  0  0  0  0  0
  192.9560  171.3010  138.9930 C   0  0  1  0  0  0  0  0  0  0  0  0
  188.8180  172.8610  139.2850 C   0  0  0  0  0  2  0  0  0  0  0  0
  195.1550  171.4950  140.4070 C   0  0  0  0  0  2  0  0  0  0  0  0
  193.1900  173.1260  140.6160 C   0  0  1  0  0  3  0  0  0  0  0  0
  189.7950  173.0000  143.4170 C   0  0  2  0  0  3  0  0  0  0  0  0
  191.5900  172.9650  137.5800 C   0  0  0  0  0  2  0  0  0  0  0  0
  190.6560  172.7970  141.0490 C   0  0  1  0  0  3  0  0  0  0  0  0
  193.4360  170.9330  137.7310 O   0  0  0  0  0  1  0  0  0  0  0  0
  190.9780  173.2370  142.4780 C   0  0  0  0  0  2  0  0  0  0  0  0
  190.1320  173.0420  137.1440 C   0  0  2  0  0  3  0  0  0  0  0  0
  190.0920  172.9890  134.7540 O   0  0  0  0  0  0  0  0  0  0  0  0
  189.9000  175.1050  135.7140 N   0  0  0  0  0  2  0  0  0  0  0  0
  190.0480  173.6870  135.8000 C   0  0  0  0  0  0  0  0  0  0  0  0
  189.7850  175.7250  134.5130 O   0  0  0  0  0  0  0  0  0  0  0  0
  188.7250  176.6240  134.6670 C   0  0  0  0  0  2  0  0  0  0  0  0
  187.4030  175.8940  134.5140 C   0  0  0  0  0  2  0  0  0  0  0  0
  186.3820  176.5310  135.3300 N   0  0  0  0  0  2  0  0  0  0  0  0
  186.6350  176.1210  136.7010 C   0  0  0  0  0  1  0  0  0  0  0  0
  193.8200  174.5100  140.5450 C   0  0  0  0  0  2  0  0  0  0  0  0
  194.0870  175.0630  144.9240 C   0  0  0  0  0  0  0  0  0  0  0  0
  194.5050  175.3470  146.0360 O   0  0  0  0  0  0  0  0  0  0  0  0
  191.9720  176.0070  142.0220 O   0  0  0  0  0  1  0  0  0  0  0  0
  193.1940  175.7020  142.6200 C   0  0  0  0  0  0  0  0  0  0  0  0
  195.4640  173.6230  143.4770 O   0  0  0  0  0  0  0  0  0  0  0  0
  193.4580  176.1390  144.0570 C   0  0  1  0  0  3  0  0  0  0  0  0
  195.4660  174.7220  142.5680 C   0  0  2  0  0  3  0  0  0  0  0  0
  194.1290  175.0320  141.9150 C   0  0  0  0  0  0  0  0  0  0  0  0
  194.3310  173.6790  144.3430 C   0  0  1  0  0  3  0  0  0  0  0  0
  190.1850  176.3920  146.1520 C   0  0  0  0  0  0  0  0  0  0  0  0
  191.3250  175.9090  145.4230 N   0  0  0  0  0  2  0  0  0  0  0  0
  189.9450  177.6270  146.2430 O   0  0  0  0  0  0  0  0  0  0  0  0
  192.2580  176.7410  144.7210 C   0  0  0  0  0  0  0  0  0  0  0  0
  192.0910  177.9900  144.6590 O   0  0  0  0  0  0  0  0  0  0  0  0
  187.8770  176.0270  146.9210 C   0  0  0  0  0  1  0  0  0  0  0  0
  189.2620  175.4180  146.7940 C   0  0  0  0  0  2  0  0  0  0  0  0
  196.7880  175.5150  140.7680 O   0  0  0  0  0  0  0  0  0  0  0  0
  196.6270  174.6530  141.6170 C   0  0  0  0  0  0  0  0  0  0  0  0
  197.5990  173.5260  141.7170 C   0  0  0  0  0  1  0  0  0  0  0  0
  194.4110  172.5770  145.4000 C   0  0  1  0  0  3  0  0  0  0  0  0
  193.5540  171.5230  145.0600 O   0  0  0  0  0  1  0  0  0  0  0  0
  195.8370  172.0510  145.4960 C   0  0  0  0  0  2  0  0  0  0  0  0
  195.8440  170.5430  145.2830 C   0  0  0  0  0  1  0  0  0  0  0  0
  1 14  1  6  0  0  0
  1 19  1  0  0  0  0
  1  2  1  0  0  0  0
  2  6  1  0  0  0  0
  3 14  1  0  0  0  0
  5 18  1  6  0  0  0
  5 13  1  0  0  0  0
  5  7  1  0  0  0  0
  6 17  1  0  0  0  0
  7 16  1  0  0  0  0
  7 19  1  0  0  0  0
  8 12  1  0  0  0  0
  9  8  1  0  0  0  0
 10 15  1  0  0  0  0
 10 16  1  0  0  0  0
 11  9  1  0  0  0  0
 13 10  1  0  0  0  0
 13 11  1  0  0  0  0
 15 12  1  0  0  0  0
 17  4  1  0  0  0  0
 19 21  1  0  0  0  0
 20 13  1  0  0  0  0
 21 17  1  0  0  0  0
 22 18  1  0  0  0  0
 22  3  1  0  0  0  0
 23 25  2  0  0  0  0
 24 25  1  0  0  0  0
 25 22  1  0  0  0  0
 26 27  1  0  0  0  0
 26 24  1  0  0  0  0
 28 27  1  0  0  0  0
 28 29  1  0  0  0  0
 29 30  1  0  0  0  0
 31 16  1  0  0  0  0
 31 39  1  0  0  0  0
 32 33  2  0  0  0  0
 34 35  1  0  0  0  0
 35 37  1  0  0  0  0
 36 40  1  0  0  0  0
 37 44  1  0  0  0  0
 37 32  1  0  0  0  0
 38 36  1  0  0  0  0
 39 38  1  0  0  0  0
 39 35  2  0  0  0  0
 40 32  1  0  0  0  0
 40 51  1  0  0  0  0
 41 43  2  0  0  0  0
 41 47  1  0  0  0  0
 42 41  1  0  0  0  0
 44 42  1  0  0  0  0
 45 44  2  0  0  0  0
 47 46  1  0  0  0  0
 48 49  2  0  0  0  0
 49 50  1  0  0  0  0
 49 38  1  0  0  0  0
 51 53  1  0  0  0  0
 52 51  1  0  0  0  0
 54 53  1  0  0  0  0
M  END
>  <MODEL>
3

>  <REMARK>
 VINA RESULT:      -6.0      3.150      7.713
  Name = 
  12 active torsions:
  status: ('A' for Active; 'I' for Inactive)
    1  A    between atoms: C_3  and  O_31
    2  A    between atoms: C_3  and  C_52
    3  A    between atoms: C_11  and  C_28
    4  A    between atoms: C_11  and  C_34
    5  A    between atoms: N_12  and  C_52
    6  A    between atoms: C_18  and  C_33
    7  A    between atoms: C_23  and  C_40
    8  A    between atoms: C_23  and  C_41
    9  A    between atoms: C_29  and  C_50
   10  A    between atoms: O_31  and  N_38
   11  A    between atoms: C_42  and  C_49
   12  A    between atoms: C_46  and  C_53
                            x       y       z     vdW  Elec       q    Type
                         _______ _______ _______ _____ _____    ______ ____

>  <TORSDO>
F 12

$$$$
=
 OpenBabel11062419143D

 54 58  0  0  1  0  0  0  0  0999 V2000
  190.9680  172.7300  143.2030 C   0  0  2  0  0  3  0  0  0  0  0  0
  191.3250  171.7300  144.2970 C   0  0  0  0  0  2  0  0  0  0  0  0
  189.1200  174.3820  142.8310 C   0  0  0  0  0  2  0  0  0  0  0  0
  192.7000  169.6030  143.0580 N   0  0  0  0  0  1  0  0  0  0  0  0
  189.7440  172.9610  140.2380 C   0  0  2  0  0  3  0  0  0  0  0  0
  192.7270  171.5720  144.3960 O   0  0  0  0  0  0  0  0  0  0  0  0
  191.1810  173.1630  140.7090 C   0  0  2  0  0  3  0  0  0  0  0  0
  191.1110  169.5540  137.3620 C   0  0  0  0  0  2  0  0  0  0  0  0
  189.7110  170.0230  137.7610 C   0  0  0  0  0  2  0  0  0  0  0  0
  191.1480  172.7930  138.2950 C   0  0  2  0  0  3  0  0  0  0  0  0
  189.7140  170.7950  139.0720 C   0  0  0  0  0  2  0  0  0  0  0  0
  192.2060  170.5950  137.5820 C   0  0  0  0  0  2  0  0  0  0  0  0
  189.8070  172.3160  138.8560 C   0  0  1  0  0  0  0  0  0  0  0  0
  189.4590  172.9480  143.2290 C   0  0  0  0  0  2  0  0  0  0  0  0
  191.7620  171.9890  137.1410 C   0  0  0  0  0  2  0  0  0  0  0  0
  192.0810  172.9940  139.4770 C   0  0  1  0  0  3  0  0  0  0  0  0
  193.2150  170.9630  143.2140 C   0  0  2  0  0  3  0  0  0  0  0  0
  189.0090  174.2940  140.2980 C   0  0  0  0  0  2  0  0  0  0  0  0
  191.4610  172.1730  141.8550 C   0  0  1  0  0  3  0  0  0  0  0  0
  188.7530  172.7470  138.0410 O   0  0  0  0  0  1  0  0  0  0  0  0
  192.9420  171.8120  141.9730 C   0  0  0  0  0  2  0  0  0  0  0  0
  188.2210  174.4130  141.5970 C   0  0  2  0  0  3  0  0  0  0  0  0
  187.4350  176.4240  140.5700 O   0  0  0  0  0  0  0  0  0  0  0  0
  186.5760  175.9780  142.6910 N   0  0  0  0  0  2  0  0  0  0  0  0
  187.4050  175.6620  141.5720 C   0  0  0  0  0  0  0  0  0  0  0  0
  185.7940  177.0860  142.6930 O   0  0  0  0  0  0  0  0  0  0  0  0
  186.1410  177.7740  143.8610 C   0  0  0  0  0  2  0  0  0  0  0  0
  186.7220  176.8080  144.8760 C   0  0  0  0  0  2  0  0  0  0  0  0
  187.7040  177.4850  145.7070 N   0  0  0  0  0  2  0  0  0  0  0  0
  188.9450  177.4960  144.9520 C   0  0  0  0  0  1  0  0  0  0  0  0
  192.8880  174.2650  139.2500 C   0  0  0  0  0  2  0  0  0  0  0  0
  196.7600  172.5490  140.5230 C   0  0  0  0  0  0  0  0  0  0  0  0
  197.9400  172.2350  140.5470 O   0  0  0  0  0  0  0  0  0  0  0  0
  194.0880  174.8360  141.7140 O   0  0  0  0  0  1  0  0  0  0  0  0
  194.8790  174.2620  140.7190 C   0  0  0  0  0  0  0  0  0  0  0  0
  195.4370  172.0160  138.5170 O   0  0  0  0  0  0  0  0  0  0  0  0
  196.3340  173.9190  141.0190 C   0  0  1  0  0  3  0  0  0  0  0  0
  195.2220  173.4220  138.4160 C   0  0  2  0  0  3  0  0  0  0  0  0
  194.3470  174.0280  139.5010 C   0  0  0  0  0  0  0  0  0  0  0  0
  195.7370  171.6400  139.8600 C   0  0  1  0  0  3  0  0  0  0  0  0
  196.7090  173.1970  144.8270 C   0  0  0  0  0  0  0  0  0  0  0  0
  196.3430  173.1380  143.4380 N   0  0  0  0  0  2  0  0  0  0  0  0
  197.4210  174.1380  145.2740 O   0  0  0  0  0  0  0  0  0  0  0  0
  196.7040  174.1180  142.4570 C   0  0  0  0  0  0  0  0  0  0  0  0
  197.3430  175.1550  142.7830 O   0  0  0  0  0  0  0  0  0  0  0  0
  197.0810  170.8940  145.6080 C   0  0  0  0  0  1  0  0  0  0  0  0
  196.2260  172.1400  145.7550 C   0  0  0  0  0  2  0  0  0  0  0  0
  194.5510  174.9840  136.7640 O   0  0  0  0  0  0  0  0  0  0  0  0
  194.8570  173.8290  137.0170 C   0  0  0  0  0  0  0  0  0  0  0  0
  194.8770  172.8160  135.9230 C   0  0  0  0  0  1  0  0  0  0  0  0
  196.1000  170.1560  139.9310 C   0  0  1  0  0  3  0  0  0  0  0  0
  195.0550  169.4340  140.5220 O   0  0  0  0  0  1  0  0  0  0  0  0
  196.3520  169.6140  138.5310 C   0  0  0  0  0  2  0  0  0  0  0  0
  197.8470  169.4240  138.3140 C   0  0  0  0  0  1  0  0  0  0  0  0
  1 14  1  6  0  0  0
  1  2  1  0  0  0  0
  2  6  1  0  0  0  0
  3 14  1  0  0  0  0
  4 17  1  0  0  0  0
  5 18  1  6  0  0  0
  5  7  1  0  0  0  0
  7 19  1  0  0  0  0
  8 12  1  0  0  0  0
  8  9  1  0  0  0  0
  9 11  1  0  0  0  0
 10 13  1  0  0  0  0
 10 16  1  0  0  0  0
 13 11  1  0  0  0  0
 13  5  1  0  0  0  0
 15 12  1  0  0  0  0
 15 10  1  0  0  0  0
 16  7  1  0  0  0  0
 17  6  1  0  0  0  0
 18 22  1  0  0  0  0
 19 21  1  0  0  0  0
 19  1  1  0  0  0  0
 20 13  1  0  0  0  0
 21 17  1  0  0  0  0
 22  3  1  0  0  0  0
 23 25  2  0  0  0  0
 24 26  1  0  0  0  0
 25 22  1  0  0  0  0
 25 24  1  0  0  0  0
 26 27  1  0  0  0  0
 27 28  1  0  0  0  0
 28 29  1  0  0  0  0
 30 29  1  0  0  0  0
 31 16  1  0  0  0  0
 31 39  1  0  0  0  0
 32 33  2  0  0  0  0
 32 37  1  0  0  0  0
 35 37  1  0  0  0  0
 35 34  1  0  0  0  0
 36 40  1  0  0  0  0
 37 44  1  0  0  0  0
 38 36  1  0  0  0  0
 38 39  1  0  0  0  0
 39 35  2  0  0  0  0
 40 51  1  0  0  0  0
 40 32  1  0  0  0  0
 41 43  2  0  0  0  0
 41 47  1  0  0  0  0
 42 41  1  0  0  0  0
 44 45  2  0  0  0  0
 44 42  1  0  0  0  0
 46 47  1  0  0  0  0
 48 49  2  0  0  0  0
 49 38  1  0  0  0  0
 50 49  1  0  0  0  0
 51 52  1  0  0  0  0
 53 51  1  0  0  0  0
 54 53  1  0  0  0  0
M  END
>  <MODEL>
4

>  <REMARK>
 VINA RESULT:      -6.0      2.693      6.607
  Name = 
  12 active torsions:
  status: ('A' for Active; 'I' for Inactive)
    1  A    between atoms: C_3  and  O_31
    2  A    between atoms: C_3  and  C_52
    3  A    between atoms: C_11  and  C_28
    4  A    between atoms: C_11  and  C_34
    5  A    between atoms: N_12  and  C_52
    6  A    between atoms: C_18  and  C_33
    7  A    between atoms: C_23  and  C_40
    8  A    between atoms: C_23  and  C_41
    9  A    between atoms: C_29  and  C_50
   10  A    between atoms: O_31  and  N_38
   11  A    between atoms: C_42  and  C_49
   12  A    between atoms: C_46  and  C_53
                            x       y       z     vdW  Elec       q    Type
                         _______ _______ _______ _____ _____    ______ ____

>  <TORSDO>
F 12

$$$$
=
 OpenBabel11062419143D

 54 58  0  0  1  0  0  0  0  0999 V2000
  190.9680  172.0290  140.5370 C   0  0  2  0  0  3  0  0  0  0  0  0
  190.4270  170.9070  141.4140 C   0  0  0  0  0  2  0  0  0  0  0  0
  190.5200  172.8490  138.2120 C   0  0  0  0  0  2  0  0  0  0  0  0
  192.5140  170.1240  143.1410 N   0  0  0  0  0  1  0  0  0  0  0  0
  193.4950  172.8920  138.7420 C   0  0  2  0  0  3  0  0  0  0  0  0
  190.4610  171.2740  142.7790 O   0  0  0  0  0  0  0  0  0  0  0  0
  193.0400  173.4330  140.0950 C   0  0  2  0  0  3  0  0  0  0  0  0
  197.6090  171.6610  140.5620 C   0  0  0  0  0  2  0  0  0  0  0  0
  196.9920  171.3640  139.1930 C   0  0  0  0  0  2  0  0  0  0  0  0
  195.3740  174.0370  139.7080 C   0  0  2  0  0  3  0  0  0  0  0  0
  195.4770  171.5100  139.2000 C   0  0  0  0  0  2  0  0  0  0  0  0
  197.0060  172.8710  141.2700 C   0  0  0  0  0  2  0  0  0  0  0  0
  195.0210  172.9050  138.7400 C   0  0  1  0  0  0  0  0  0  0  0  0
  190.7920  171.6230  139.0780 C   0  0  0  0  0  2  0  0  0  0  0  0
  196.7850  174.0410  140.3120 C   0  0  0  0  0  2  0  0  0  0  0  0
  194.2590  174.1090  140.7370 C   0  0  1  0  0  3  0  0  0  0  0  0
  191.8080  171.4040  143.1970 C   0  0  2  0  0  3  0  0  0  0  0  0
  192.8370  173.7060  137.6360 C   0  0  0  0  0  2  0  0  0  0  0  0
  192.4440  172.2690  140.9090 C   0  0  1  0  0  3  0  0  0  0  0  0
  195.5290  173.1760  137.4640 O   0  0  0  0  0  1  0  0  0  0  0  0
  192.5510  172.4890  142.4180 C   0  0  0  0  0  2  0  0  0  0  0  0
  191.5850  173.0040  137.1260 C   0  0  2  0  0  3  0  0  0  0  0  0
  191.8080  174.1990  135.0680 O   0  0  0  0  0  0  0  0  0  0  0  0
  189.6250  173.9340  135.8430 N   0  0  0  0  0  2  0  0  0  0  0  0
  191.0370  173.7500  135.9550 C   0  0  0  0  0  0  0  0  0  0  0  0
  189.0850  174.5770  134.7770 O   0  0  0  0  0  0  0  0  0  0  0  0
  188.4970  175.7300  135.3060 C   0  0  0  0  0  2  0  0  0  0  0  0
  187.2310  176.0630  134.5380 C   0  0  0  0  0  2  0  0  0  0  0  0
  186.1920  176.5050  135.4540 N   0  0  0  0  0  2  0  0  0  0  0  0
  186.5810  176.0420  136.7740 C   0  0  0  0  0  1  0  0  0  0  0  0
  193.9490  175.5740  141.0150 C   0  0  0  0  0  2  0  0  0  0  0  0
  193.7250  175.1450  145.4110 C   0  0  0  0  0  0  0  0  0  0  0  0
  193.9020  175.3250  146.6070 O   0  0  0  0  0  0  0  0  0  0  0  0
  191.5420  175.6280  142.4460 O   0  0  0  0  0  1  0  0  0  0  0  0
  192.7300  175.8050  143.1560 C   0  0  0  0  0  0  0  0  0  0  0  0
  195.6920  174.9100  143.9490 O   0  0  0  0  0  0  0  0  0  0  0  0
  192.6830  175.9660  144.6710 C   0  0  1  0  0  3  0  0  0  0  0  0
  195.1890  176.0580  143.2680 C   0  0  2  0  0  3  0  0  0  0  0  0
  193.9020  175.8430  142.4890 C   0  0  0  0  0  0  0  0  0  0  0  0
  194.6450  174.2200  144.6300 C   0  0  1  0  0  3  0  0  0  0  0  0
  189.0040  176.7090  145.7060 C   0  0  0  0  0  0  0  0  0  0  0  0
  190.3600  176.8240  145.2460 N   0  0  0  0  0  2  0  0  0  0  0  0
  188.5490  175.6100  146.1270 O   0  0  0  0  0  0  0  0  0  0  0  0
  191.3160  175.7560  145.2460 C   0  0  0  0  0  0  0  0  0  0  0  0
  191.0210  174.6250  145.7180 O   0  0  0  0  0  0  0  0  0  0  0  0
  187.2580  177.9110  144.4560 C   0  0  0  0  0  1  0  0  0  0  0  0
  188.1260  177.9100  145.7020 C   0  0  0  0  0  2  0  0  0  0  0  0
  196.0690  177.1800  141.3750 O   0  0  0  0  0  0  0  0  0  0  0  0
  196.2710  176.7700  142.5070 C   0  0  0  0  0  0  0  0  0  0  0  0
  197.6030  176.9870  143.1430 C   0  0  0  0  0  1  0  0  0  0  0  0
  195.2150  173.0740  145.4670 C   0  0  1  0  0  3  0  0  0  0  0  0
  194.2070  172.1450  145.7560 O   0  0  0  0  0  1  0  0  0  0  0  0
  196.3320  172.3780  144.7020 C   0  0  0  0  0  2  0  0  0  0  0  0
  197.0250  171.3700  145.6090 C   0  0  0  0  0  1  0  0  0  0  0  0
  1 14  1  6  0  0  0
  1 19  1  0  0  0  0
  1  2  1  0  0  0  0
  2  6  1  0  0  0  0
  3 14  1  0  0  0  0
  4 17  1  0  0  0  0
  5 18  1  6  0  0  0
  5  7  1  0  0  0  0
  6 17  1  0  0  0  0
  7 16  1  0  0  0  0
  7 19  1  0  0  0  0
  8 12  1  0  0  0  0
  9 11  1  0  0  0  0
  9  8  1  0  0  0  0
 10 15  1  0  0  0  0
 10 16  1  0  0  0  0
 13  5  1  0  0  0  0
 13 11  1  0  0  0  0
 13 10  1  0  0  0  0
 15 12  1  0  0  0  0
 16 31  1  0  0  0  0
 19 21  1  0  0  0  0
 20 13  1  0  0  0  0
 21 17  1  0  0  0  0
 22 18  1  0  0  0  0
 22  3  1  0  0  0  0
 23 25  2  0  0  0  0
 24 25  1  0  0  0  0
 25 22  1  0  0  0  0
 26 27  1  0  0  0  0
 26 24  1  0  0  0  0
 28 27  1  0  0  0  0
 28 29  1  0  0  0  0
 29 30  1  0  0  0  0
 31 39  1  0  0  0  0
 32 33  2  0  0  0  0
 34 35  1  0  0  0  0
 35 37  1  0  0  0  0
 36 40  1  0  0  0  0
 37 44  1  0  0  0  0
 37 32  1  0  0  0  0
 38 36  1  0  0  0  0
 39 35  2  0  0  0  0
 39 38  1  0  0  0  0
 40 32  1  0  0  0  0
 40 51  1  0  0  0  0
 41 43  2  0  0  0  0
 42 44  1  0  0  0  0
 42 41  1  0  0  0  0
 44 45  2  0  0  0  0
 46 47  1  0  0  0  0
 47 41  1  0  0  0  0
 48 49  2  0  0  0  0
 49 50  1  0  0  0  0
 49 38  1  0  0  0  0
 51 52  1  0  0  0  0
 53 51  1  0  0  0  0
 53 54  1  0  0  0  0
M  END
>  <MODEL>
5

>  <REMARK>
 VINA RESULT:      -5.9      3.079      7.582
  Name = 
  12 active torsions:
  status: ('A' for Active; 'I' for Inactive)
    1  A    between atoms: C_3  and  O_31
    2  A    between atoms: C_3  and  C_52
    3  A    between atoms: C_11  and  C_28
    4  A    between atoms: C_11  and  C_34
    5  A    between atoms: N_12  and  C_52
    6  A    between atoms: C_18  and  C_33
    7  A    between atoms: C_23  and  C_40
    8  A    between atoms: C_23  and  C_41
    9  A    between atoms: C_29  and  C_50
   10  A    between atoms: O_31  and  N_38
   11  A    between atoms: C_42  and  C_49
   12  A    between atoms: C_46  and  C_53
                            x       y       z     vdW  Elec       q    Type
                         _______ _______ _______ _____ _____    ______ ____

>  <TORSDO>
F 12

$$$$
=
 OpenBabel11062419143D

 54 58  0  0  1  0  0  0  0  0999 V2000
  191.0040  172.4000  140.1790 C   0  0  2  0  0  3  0  0  0  0  0  0
  189.5020  172.2930  140.4140 C   0  0  0  0  0  2  0  0  0  0  0  0
  192.5530  171.8810  138.2790 C   0  0  0  0  0  2  0  0  0  0  0  0
  189.1240  171.8440  143.1720 N   0  0  0  0  0  1  0  0  0  0  0  0
  193.8160  171.0040  140.8800 C   0  0  2  0  0  3  0  0  0  0  0  0
  189.0580  173.3070  141.2950 O   0  0  0  0  0  0  0  0  0  0  0  0
  193.2490  172.3340  141.3680 C   0  0  2  0  0  3  0  0  0  0  0  0
  194.1120  169.4610  145.2710 C   0  0  0  0  0  2  0  0  0  0  0  0
  194.3100  168.7330  143.9400 C   0  0  0  0  0  2  0  0  0  0  0  0
  195.0500  171.6120  142.8500 C   0  0  2  0  0  3  0  0  0  0  0  0
  193.6370  169.4550  142.7820 C   0  0  0  0  0  2  0  0  0  0  0  0
  194.2650  170.9770  145.1830 C   0  0  0  0  0  2  0  0  0  0  0  0
  194.6010  170.3950  142.0380 C   0  0  1  0  0  0  0  0  0  0  0  0
  191.3990  171.3640  139.1320 C   0  0  0  0  0  2  0  0  0  0  0  0
  195.4540  171.3800  144.3130 C   0  0  0  0  0  2  0  0  0  0  0  0
  193.9960  172.6890  142.6610 C   0  0  1  0  0  3  0  0  0  0  0  0
  189.6130  173.0890  142.5790 C   0  0  2  0  0  3  0  0  0  0  0  0
  194.6180  171.2440  139.6070 C   0  0  0  0  0  2  0  0  0  0  0  0
  191.7230  172.1840  141.5240 C   0  0  1  0  0  3  0  0  0  0  0  0
  195.7120  169.6740  141.5820 O   0  0  0  0  0  1  0  0  0  0  0  0
  191.1400  173.1410  142.5640 C   0  0  0  0  0  2  0  0  0  0  0  0
  193.7670  170.9580  138.3760 C   0  0  2  0  0  3  0  0  0  0  0  0
  194.3590  170.3640  136.1380 O   0  0  0  0  0  0  0  0  0  0  0  0
  195.7000  171.9910  137.1330 N   0  0  0  0  0  2  0  0  0  0  0  0
  194.6110  171.0670  137.1500 C   0  0  0  0  0  0  0  0  0  0  0  0
  196.4700  172.1450  136.0260 O   0  0  0  0  0  0  0  0  0  0  0  0
  196.1420  173.4090  135.5270 C   0  0  0  0  0  2  0  0  0  0  0  0
  197.2870  174.3740  135.7730 C   0  0  0  0  0  2  0  0  0  0  0  0
  196.8980  175.3730  136.7550 N   0  0  0  0  0  2  0  0  0  0  0  0
  197.8110  175.2290  137.8750 C   0  0  0  0  0  1  0  0  0  0  0  0
  194.6950  174.0320  142.5000 C   0  0  0  0  0  2  0  0  0  0  0  0
  191.9620  176.2560  145.1730 C   0  0  0  0  0  0  0  0  0  0  0  0
  191.5410  176.9940  146.0500 O   0  0  0  0  0  0  0  0  0  0  0  0
  192.6890  175.7480  141.5670 O   0  0  0  0  0  1  0  0  0  0  0  0
  193.0630  175.8460  142.9070 C   0  0  0  0  0  0  0  0  0  0  0  0
  193.6320  174.5470  145.7700 O   0  0  0  0  0  0  0  0  0  0  0  0
  192.3400  176.8310  143.8190 C   0  0  1  0  0  3  0  0  0  0  0  0
  194.4810  175.2030  144.8310 C   0  0  2  0  0  3  0  0  0  0  0  0
  194.0660  175.0740  143.3740 C   0  0  0  0  0  0  0  0  0  0  0  0
  192.2580  174.7950  145.4760 C   0  0  1  0  0  3  0  0  0  0  0  0
  188.8360  177.2600  142.1750 C   0  0  0  0  0  0  0  0  0  0  0  0
  190.0370  176.7170  142.7470 N   0  0  0  0  0  2  0  0  0  0  0  0
  188.6910  178.5040  142.0250 O   0  0  0  0  0  0  0  0  0  0  0  0
  191.1680  177.4930  143.1630 C   0  0  0  0  0  0  0  0  0  0  0  0
  191.1920  178.7430  142.9920 O   0  0  0  0  0  0  0  0  0  0  0  0
  186.8270  176.0410  142.9010 C   0  0  0  0  0  1  0  0  0  0  0  0
  187.7540  176.3400  141.7360 C   0  0  0  0  0  2  0  0  0  0  0  0
  196.8010  175.3750  144.3750 O   0  0  0  0  0  0  0  0  0  0  0  0
  195.9310  174.9140  145.0970 C   0  0  0  0  0  0  0  0  0  0  0  0
  196.3140  174.0630  146.2610 C   0  0  0  0  0  1  0  0  0  0  0  0
  191.3620  174.2030  146.5650 C   0  0  1  0  0  3  0  0  0  0  0  0
  191.5260  174.9160  147.7600 O   0  0  0  0  0  1  0  0  0  0  0  0
  189.9030  174.2770  146.1360 C   0  0  0  0  0  2  0  0  0  0  0  0
  189.0650  174.8650  147.2630 C   0  0  0  0  0  1  0  0  0  0  0  0
  1 14  1  6  0  0  0
  1  2  1  0  0  0  0
  1 19  1  0  0  0  0
  2  6  1  0  0  0  0
  3 22  1  0  0  0  0
  3 14  1  0  0  0  0
  5 18  1  6  0  0  0
  5  7  1  0  0  0  0
  5 13  1  0  0  0  0
  6 17  1  0  0  0  0
  7 19  1  0  0  0  0
  7 16  1  0  0  0  0
  9  8  1  0  0  0  0
 10 15  1  0  0  0  0
 11  9  1  0  0  0  0
 12  8  1  0  0  0  0
 13 11  1  0  0  0  0
 13 10  1  0  0  0  0
 15 12  1  0  0  0  0
 16 10  1  0  0  0  0
 17  4  1  0  0  0  0
 19 21  1  0  0  0  0
 20 13  1  0  0  0  0
 21 17  1  0  0  0  0
 22 18  1  0  0  0  0
 23 25  2  0  0  0  0
 24 25  1  0  0  0  0
 25 22  1  0  0  0  0
 26 24  1  0  0  0  0
 27 28  1  0  0  0  0
 27 26  1  0  0  0  0
 28 29  1  0  0  0  0
 29 30  1  0  0  0  0
 31 16  1  0  0  0  0
 31 39  1  0  0  0  0
 32 40  1  0  0  0  0
 32 33  2  0  0  0  0
 34 35  1  0  0  0  0
 35 39  2  0  0  0  0
 35 37  1  0  0  0  0
 37 32  1  0  0  0  0
 38 49  1  0  0  0  0
 38 36  1  0  0  0  0
 39 38  1  0  0  0  0
 40 36  1  0  0  0  0
 40 51  1  0  0  0  0
 41 42  1  0  0  0  0
 42 44  1  0  0  0  0
 43 41  2  0  0  0  0
 44 37  1  0  0  0  0
 45 44  2  0  0  0  0
 47 41  1  0  0  0  0
 47 46  1  0  0  0  0
 48 49  2  0  0  0  0
 49 50  1  0  0  0  0
 51 52  1  0  0  0  0
 53 51  1  0  0  0  0
 53 54  1  0  0  0  0
M  END
>  <MODEL>
6

>  <REMARK>
 VINA RESULT:      -5.7      2.752      8.365
  Name = 
  12 active torsions:
  status: ('A' for Active; 'I' for Inactive)
    1  A    between atoms: C_3  and  O_31
    2  A    between atoms: C_3  and  C_52
    3  A    between atoms: C_11  and  C_28
    4  A    between atoms: C_11  and  C_34
    5  A    between atoms: N_12  and  C_52
    6  A    between atoms: C_18  and  C_33
    7  A    between atoms: C_23  and  C_40
    8  A    between atoms: C_23  and  C_41
    9  A    between atoms: C_29  and  C_50
   10  A    between atoms: O_31  and  N_38
   11  A    between atoms: C_42  and  C_49
   12  A    between atoms: C_46  and  C_53
                            x       y       z     vdW  Elec       q    Type
                         _______ _______ _______ _____ _____    ______ ____

>  <TORSDO>
F 12

$$$$
=
 OpenBabel11062419143D

 54 58  0  0  1  0  0  0  0  0999 V2000
  191.5810  174.0420  139.6740 C   0  0  2  0  0  3  0  0  0  0  0  0
  190.2370  173.3770  139.3970 C   0  0  0  0  0  2  0  0  0  0  0  0
  193.6250  174.5610  138.3220 C   0  0  0  0  0  2  0  0  0  0  0  0
  189.4000  172.1660  141.8020 N   0  0  0  0  0  1  0  0  0  0  0  0
  194.4470  173.5600  141.0520 C   0  0  2  0  0  3  0  0  0  0  0  0
  189.2250  173.9310  140.2130 O   0  0  0  0  0  0  0  0  0  0  0  0
  193.2960  174.4550  141.5020 C   0  0  2  0  0  3  0  0  0  0  0  0
  194.2370  171.1860  145.0600 C   0  0  0  0  0  2  0  0  0  0  0  0
  195.0300  170.9180  143.7800 C   0  0  0  0  0  2  0  0  0  0  0  0
  194.8080  174.0500  143.3760 C   0  0  2  0  0  3  0  0  0  0  0  0
  194.4340  171.6270  142.5740 C   0  0  0  0  0  2  0  0  0  0  0  0
  193.7900  172.6360  145.2270 C   0  0  0  0  0  2  0  0  0  0  0  0
  195.0970  172.9910  142.3100 C   0  0  1  0  0  0  0  0  0  0  0  0
  192.6000  173.4910  138.6830 C   0  0  0  0  0  2  0  0  0  0  0  0
  194.8960  173.6200  144.8470 C   0  0  0  0  0  2  0  0  0  0  0  0
  193.4950  174.7150  143.0020 C   0  0  1  0  0  3  0  0  0  0  0  0
  189.4840  173.6080  141.5670 C   0  0  2  0  0  3  0  0  0  0  0  0
  195.3750  174.3610  140.1480 C   0  0  0  0  0  2  0  0  0  0  0  0
  191.9690  173.7620  141.1370 C   0  0  1  0  0  3  0  0  0  0  0  0
  196.4770  172.8260  142.1440 O   0  0  0  0  0  1  0  0  0  0  0  0
  190.8160  174.1790  142.0510 C   0  0  0  0  0  2  0  0  0  0  0  0
  195.0410  174.1130  138.6820 C   0  0  2  0  0  3  0  0  0  0  0  0
  197.2250  174.9700  138.2250 O   0  0  0  0  0  0  0  0  0  0  0  0
  195.6610  175.2460  136.5180 N   0  0  0  0  0  2  0  0  0  0  0  0
  196.0460  174.7990  137.8180 C   0  0  0  0  0  0  0  0  0  0  0  0
  196.5540  175.8440  135.6900 O   0  0  0  0  0  0  0  0  0  0  0  0
  195.7770  176.5540  134.7690 C   0  0  0  0  0  2  0  0  0  0  0  0
  196.0670  178.0390  134.8850 C   0  0  0  0  0  2  0  0  0  0  0  0
  194.8860  178.8090  134.5290 N   0  0  0  0  0  2  0  0  0  0  0  0
  193.7390  178.0210  134.9450 C   0  0  0  0  0  1  0  0  0  0  0  0
  193.6190  176.2120  143.2520 C   0  0  0  0  0  2  0  0  0  0  0  0
  189.9750  176.5330  145.7360 C   0  0  0  0  0  0  0  0  0  0  0  0
  189.2110  176.8120  146.6480 O   0  0  0  0  0  0  0  0  0  0  0  0
  191.2170  177.3120  142.3250 O   0  0  0  0  0  1  0  0  0  0  0  0
  191.3800  177.1640  143.7020 C   0  0  0  0  0  0  0  0  0  0  0  0
  192.1000  175.4160  146.2770 O   0  0  0  0  0  0  0  0  0  0  0  0
  190.2410  177.5490  144.6400 C   0  0  1  0  0  3  0  0  0  0  0  0
  192.7250  176.5540  145.6880 C   0  0  2  0  0  3  0  0  0  0  0  0
  192.5490  176.6920  144.1850 C   0  0  0  0  0  0  0  0  0  0  0  0
  190.7770  175.2420  145.7740 C   0  0  1  0  0  3  0  0  0  0  0  0
  186.4740  178.3240  144.0350 C   0  0  0  0  0  0  0  0  0  0  0  0
  187.7260  177.9200  144.6120 N   0  0  0  0  0  2  0  0  0  0  0  0
  186.4090  178.7430  142.8460 O   0  0  0  0  0  0  0  0  0  0  0  0
  188.9810  177.9170  143.9190 C   0  0  0  0  0  0  0  0  0  0  0  0
  189.0470  178.2320  142.6990 O   0  0  0  0  0  0  0  0  0  0  0  0
  185.3540  177.0970  145.8490 C   0  0  0  0  0  1  0  0  0  0  0  0
  185.2310  178.2300  144.8460 C   0  0  0  0  0  2  0  0  0  0  0  0
  194.6570  175.8830  146.8870 O   0  0  0  0  0  0  0  0  0  0  0  0
  194.1370  176.7240  146.1710 C   0  0  0  0  0  0  0  0  0  0  0  0
  194.9180  177.9280  145.7640 C   0  0  0  0  0  1  0  0  0  0  0  0
  190.0690  174.1040  146.5110 C   0  0  1  0  0  3  0  0  0  0  0  0
  189.1600  174.6260  147.4400 O   0  0  0  0  0  1  0  0  0  0  0  0
  189.3200  173.2280  145.5160 C   0  0  0  0  0  2  0  0  0  0  0  0
  190.2480  172.1440  144.9850 C   0  0  0  0  0  1  0  0  0  0  0  0
  1 14  1  6  0  0  0
  1 19  1  0  0  0  0
  2  1  1  0  0  0  0
  2  6  1  0  0  0  0
  3 22  1  0  0  0  0
  3 14  1  0  0  0  0
  5 18  1  1  0  0  0
  5  7  1  0  0  0  0
  5 13  1  0  0  0  0
  6 17  1  0  0  0  0
  7 16  1  0  0  0  0
  8 12  1  0  0  0  0
  9  8  1  0  0  0  0
 10 15  1  0  0  0  0
 11  9  1  0  0  0  0
 13 11  1  0  0  0  0
 13 10  1  0  0  0  0
 15 12  1  0  0  0  0
 16 31  1  0  0  0  0
 16 10  1  0  0  0  0
 17  4  1  0  0  0  0
 17 21  1  0  0  0  0
 19  7  1  0  0  0  0
 19 21  1  0  0  0  0
 20 13  1  0  0  0  0
 22 18  1  0  0  0  0
 24 25  1  0  0  0  0
 25 23  2  0  0  0  0
 25 22  1  0  0  0  0
 26 24  1  0  0  0  0
 27 28  1  0  0  0  0
 27 26  1  0  0  0  0
 29 28  1  0  0  0  0
 29 30  1  0  0  0  0
 31 39  1  0  0  0  0
 32 40  1  0  0  0  0
 32 33  2  0  0  0  0
 34 35  1  0  0  0  0
 35 39  2  0  0  0  0
 35 37  1  0  0  0  0
 37 32  1  0  0  0  0
 38 49  1  0  0  0  0
 38 36  1  0  0  0  0
 39 38  1  0  0  0  0
 40 36  1  0  0  0  0
 40 51  1  0  0  0  0
 41 42  1  0  0  0  0
 41 47  1  0  0  0  0
 43 41  2  0  0  0  0
 44 42  1  0  0  0  0
 44 37  1  0  0  0  0
 45 44  2  0  0  0  0
 47 46  1  0  0  0  0
 49 48  2  0  0  0  0
 50 49  1  0  0  0  0
 51 52  1  0  0  0  0
 53 51  1  0  0  0  0
 54 53  1  0  0  0  0
M  END
>  <MODEL>
7

>  <REMARK>
 VINA RESULT:      -5.6      3.043      8.538
  Name = 
  12 active torsions:
  status: ('A' for Active; 'I' for Inactive)
    1  A    between atoms: C_3  and  O_31
    2  A    between atoms: C_3  and  C_52
    3  A    between atoms: C_11  and  C_28
    4  A    between atoms: C_11  and  C_34
    5  A    between atoms: N_12  and  C_52
    6  A    between atoms: C_18  and  C_33
    7  A    between atoms: C_23  and  C_40
    8  A    between atoms: C_23  and  C_41
    9  A    between atoms: C_29  and  C_50
   10  A    between atoms: O_31  and  N_38
   11  A    between atoms: C_42  and  C_49
   12  A    between atoms: C_46  and  C_53
                            x       y       z     vdW  Elec       q    Type
                         _______ _______ _______ _____ _____    ______ ____

>  <TORSDO>
F 12

$$$$
=
 OpenBabel11062419143D

 54 58  0  0  1  0  0  0  0  0999 V2000
  194.8710  175.9450  143.3120 C   0  0  2  0  0  3  0  0  0  0  0  0
  196.3820  176.1270  143.4010 C   0  0  0  0  0  2  0  0  0  0  0  0
  192.8940  176.7880  144.5990 C   0  0  0  0  0  2  0  0  0  0  0  0
  197.5620  173.7620  142.4190 N   0  0  0  0  0  1  0  0  0  0  0  0
  192.4960  173.8680  143.9350 C   0  0  2  0  0  3  0  0  0  0  0  0
  196.9740  176.0500  142.1200 O   0  0  0  0  0  0  0  0  0  0  0  0
  193.0700  174.3050  142.5900 C   0  0  2  0  0  3  0  0  0  0  0  0
  193.5840  169.4270  143.0120 C   0  0  0  0  0  2  0  0  0  0  0  0
  193.0750  170.0860  144.2960 C   0  0  0  0  0  2  0  0  0  0  0  0
  191.8280  172.2200  142.3180 C   0  0  2  0  0  3  0  0  0  0  0  0
  193.3320  171.5850  144.3150 C   0  0  0  0  0  2  0  0  0  0  0  0
  193.2920  170.2230  141.7430 C   0  0  0  0  0  2  0  0  0  0  0  0
  192.1230  172.3930  143.8100 C   0  0  1  0  0  0  0  0  0  0  0  0
  194.2800  176.1600  144.7000 C   0  0  0  0  0  2  0  0  0  0  0  0
  191.8750  170.7970  141.7440 C   0  0  0  0  0  2  0  0  0  0  0  0
  192.6950  173.2190  141.5720 C   0  0  1  0  0  3  0  0  0  0  0  0
  196.8270  174.7360  141.6130 C   0  0  2  0  0  3  0  0  0  0  0  0
  191.3490  174.7970  144.3110 C   0  0  0  0  0  2  0  0  0  0  0  0
  194.5830  174.5370  142.7590 C   0  0  1  0  0  3  0  0  0  0  0  0
  190.9910  172.0840  144.5730 O   0  0  0  0  0  1  0  0  0  0  0  0
  195.3590  174.3400  141.4560 C   0  0  0  0  0  2  0  0  0  0  0  0
  191.8360  175.8960  145.2470 C   0  0  2  0  0  3  0  0  0  0  0  0
  190.5570  177.0280  146.9200 O   0  0  0  0  0  0  0  0  0  0  0  0
  189.6970  177.1370  144.7550 N   0  0  0  0  0  2  0  0  0  0  0  0
  190.6720  176.7100  145.7080 C   0  0  0  0  0  0  0  0  0  0  0  0
  188.6440  177.9050  145.1290 O   0  0  0  0  0  0  0  0  0  0  0  0
  187.7000  177.7500  144.1080 C   0  0  0  0  0  2  0  0  0  0  0  0
  186.3940  178.4100  144.5070 C   0  0  0  0  0  2  0  0  0  0  0  0
  185.2740  177.5390  144.1880 N   0  0  0  0  0  2  0  0  0  0  0  0
  184.3080  178.3540  143.4720 C   0  0  0  0  0  1  0  0  0  0  0  0
  191.8720  173.8320  140.4460 C   0  0  0  0  0  2  0  0  0  0  0  0
  194.4230  172.2660  137.1900 C   0  0  0  0  0  0  0  0  0  0  0  0
  194.7860  171.7710  136.1340 O   0  0  0  0  0  0  0  0  0  0  0  0
  193.8760  175.3400  139.2000 O   0  0  0  0  0  1  0  0  0  0  0  0
  193.4390  174.1790  138.5620 C   0  0  0  0  0  0  0  0  0  0  0  0
  192.7720  171.0550  138.5560 O   0  0  0  0  0  0  0  0  0  0  0  0
  194.0940  173.7470  137.2550 C   0  0  1  0  0  3  0  0  0  0  0  0
  191.9500  172.2090  138.3940 C   0  0  2  0  0  3  0  0  0  0  0  0
  192.4340  173.4610  139.1060 C   0  0  0  0  0  0  0  0  0  0  0  0
  194.1510  171.3830  138.3980 C   0  0  1  0  0  3  0  0  0  0  0  0
  196.1910  176.5540  135.5570 C   0  0  0  0  0  0  0  0  0  0  0  0
  195.1400  175.6480  135.9310 N   0  0  0  0  0  2  0  0  0  0  0  0
  197.3330  176.4810  136.0870 O   0  0  0  0  0  0  0  0  0  0  0  0
  195.2780  174.5850  136.8820 C   0  0  0  0  0  0  0  0  0  0  0  0
  196.3900  174.3450  137.4260 O   0  0  0  0  0  0  0  0  0  0  0  0
  194.5530  178.1850  134.7150 C   0  0  0  0  0  1  0  0  0  0  0  0
  195.9330  177.5840  134.5160 C   0  0  0  0  0  2  0  0  0  0  0  0
  189.6560  172.7740  138.5790 O   0  0  0  0  0  0  0  0  0  0  0  0
  190.4970  171.8900  138.6050 C   0  0  0  0  0  0  0  0  0  0  0  0
  190.0760  170.4780  138.8380 C   0  0  0  0  0  1  0  0  0  0  0  0
  195.0100  170.1180  138.4370 C   0  0  1  0  0  3  0  0  0  0  0  0
  195.7910  170.1050  139.6000 O   0  0  0  0  0  1  0  0  0  0  0  0
  194.1190  168.8840  138.4200 C   0  0  0  0  0  2  0  0  0  0  0  0
  194.1060  168.2790  137.0240 C   0  0  0  0  0  1  0  0  0  0  0  0
  1  2  1  1  0  0  0
  1 14  1  0  0  0  0
  3 14  1  0  0  0  0
  3 22  1  0  0  0  0
  5 18  1  6  0  0  0
  6  2  1  0  0  0  0
  7 19  1  0  0  0  0
  7  5  1  0  0  0  0
  8  9  1  0  0  0  0
  9 11  1  0  0  0  0
 10 13  1  0  0  0  0
 12 15  1  0  0  0  0
 12  8  1  0  0  0  0
 13  5  1  0  0  0  0
 13 11  1  0  0  0  0
 13 20  1  0  0  0  0
 15 10  1  0  0  0  0
 16 10  1  0  0  0  0
 16  7  1  0  0  0  0
 17  6  1  0  0  0  0
 17  4  1  0  0  0  0
 18 22  1  0  0  0  0
 19  1  1  0  0  0  0
 21 17  1  0  0  0  0
 21 19  1  0  0  0  0
 22 25  1  0  0  0  0
 24 26  1  0  0  0  0
 24 25  1  0  0  0  0
 25 23  2  0  0  0  0
 27 28  1  0  0  0  0
 27 26  1  0  0  0  0
 29 28  1  0  0  0  0
 30 29  1  0  0  0  0
 31 16  1  0  0  0  0
 32 37  1  0  0  0  0
 32 40  1  0  0  0  0
 33 32  2  0  0  0  0
 35 39  2  0  0  0  0
 35 34  1  0  0  0  0
 37 35  1  0  0  0  0
 38 36  1  0  0  0  0
 38 49  1  0  0  0  0
 38 39  1  0  0  0  0
 39 31  1  0  0  0  0
 40 51  1  0  0  0  0
 40 36  1  0  0  0  0
 41 42  1  0  0  0  0
 41 43  2  0  0  0  0
 42 44  1  0  0  0  0
 44 37  1  0  0  0  0
 44 45  2  0  0  0  0
 47 46  1  0  0  0  0
 47 41  1  0  0  0  0
 48 49  2  0  0  0  0
 49 50  1  0  0  0  0
 51 52  1  0  0  0  0
 53 51  1  0  0  0  0
 54 53  1  0  0  0  0
M  END
>  <MODEL>
8

>  <REMARK>
 VINA RESULT:      -5.5      3.048      5.967
  Name = 
  12 active torsions:
  status: ('A' for Active; 'I' for Inactive)
    1  A    between atoms: C_3  and  O_31
    2  A    between atoms: C_3  and  C_52
    3  A    between atoms: C_11  and  C_28
    4  A    between atoms: C_11  and  C_34
    5  A    between atoms: N_12  and  C_52
    6  A    between atoms: C_18  and  C_33
    7  A    between atoms: C_23  and  C_40
    8  A    between atoms: C_23  and  C_41
    9  A    between atoms: C_29  and  C_50
   10  A    between atoms: O_31  and  N_38
   11  A    between atoms: C_42  and  C_49
   12  A    between atoms: C_46  and  C_53
                            x       y       z     vdW  Elec       q    Type
                         _______ _______ _______ _____ _____    ______ ____

>  <TORSDO>
F 12

$$$$
=
 OpenBabel11062419143D

 54 58  0  0  1  0  0  0  0  0999 V2000
  194.9140  175.9310  143.1870 C   0  0  2  0  0  3  0  0  0  0  0  0
  196.0340  176.7750  142.5900 C   0  0  0  0  0  2  0  0  0  0  0  0
  193.2870  176.2030  145.0730 C   0  0  0  0  0  2  0  0  0  0  0  0
  197.9410  174.9910  141.5270 N   0  0  0  0  0  1  0  0  0  0  0  0
  194.3450  173.3720  145.0510 C   0  0  2  0  0  3  0  0  0  0  0  0
  196.1590  176.5360  141.2020 O   0  0  0  0  0  0  0  0  0  0  0  0
  194.1590  173.5310  143.5450 C   0  0  2  0  0  3  0  0  0  0  0  0
  197.3120  169.8410  144.3640 C   0  0  0  0  0  2  0  0  0  0  0  0
  196.9420  170.6020  145.6380 C   0  0  0  0  0  2  0  0  0  0  0  0
  194.2180  171.1600  144.1220 C   0  0  2  0  0  3  0  0  0  0  0  0
  196.3440  171.9680  145.3400 C   0  0  0  0  0  2  0  0  0  0  0  0
  196.2740  169.9440  143.2500 C   0  0  0  0  0  2  0  0  0  0  0  0
  194.8060  171.9390  145.3010 C   0  0  1  0  0  0  0  0  0  0  0  0
  194.7480  176.3220  144.6510 C   0  0  0  0  0  2  0  0  0  0  0  0
  194.8490  169.8010  143.7840 C   0  0  0  0  0  2  0  0  0  0  0  0
  194.1420  172.1180  142.9470 C   0  0  1  0  0  3  0  0  0  0  0  0
  196.5960  175.2050  140.9930 C   0  0  2  0  0  3  0  0  0  0  0  0
  193.0540  173.7710  145.7550 C   0  0  0  0  0  2  0  0  0  0  0  0
  195.2780  174.4450  143.0110 C   0  0  1  0  0  3  0  0  0  0  0  0
  194.3080  171.4440  146.5130 O   0  0  0  0  0  1  0  0  0  0  0  0
  195.6050  174.1790  141.5400 C   0  0  0  0  0  2  0  0  0  0  0  0
  193.1270  175.2170  146.2290 C   0  0  2  0  0  3  0  0  0  0  0  0
  191.6990  174.9610  148.1290 O   0  0  0  0  0  0  0  0  0  0  0  0
  190.9960  176.5250  146.5490 N   0  0  0  0  0  2  0  0  0  0  0  0
  191.9110  175.5400  147.0320 C   0  0  0  0  0  0  0  0  0  0  0  0
  189.8970  176.8710  147.2640 O   0  0  0  0  0  0  0  0  0  0  0  0
  188.9160  177.1570  146.3090 C   0  0  0  0  0  2  0  0  0  0  0  0
  187.5390  176.8910  146.8890 C   0  0  0  0  0  2  0  0  0  0  0  0
  186.5410  177.6830  146.1890 N   0  0  0  0  0  2  0  0  0  0  0  0
  185.3360  176.8730  146.1330 C   0  0  0  0  0  1  0  0  0  0  0  0
  192.8270  171.8850  142.2140 C   0  0  0  0  0  2  0  0  0  0  0  0
  192.1160  173.0200  137.9990 C   0  0  0  0  0  0  0  0  0  0  0  0
  191.9100  173.6820  136.9930 O   0  0  0  0  0  0  0  0  0  0  0  0
  194.5600  171.2020  140.1230 O   0  0  0  0  0  1  0  0  0  0  0  0
  193.6210  172.2080  139.8940 C   0  0  0  0  0  0  0  0  0  0  0  0
  190.6290  173.3250  139.9370 O   0  0  0  0  0  0  0  0  0  0  0  0
  193.5350  172.8540  138.5150 C   0  0  1  0  0  3  0  0  0  0  0  0
  191.8050  173.7120  140.6440 C   0  0  2  0  0  3  0  0  0  0  0  0
  192.8100  172.6010  140.8980 C   0  0  0  0  0  0  0  0  0  0  0  0
  190.9520  172.4940  138.8240 C   0  0  1  0  0  3  0  0  0  0  0  0
  194.7200  170.3100  135.8160 C   0  0  0  0  0  0  0  0  0  0  0  0
  193.9900  170.9840  136.8550 N   0  0  0  0  0  2  0  0  0  0  0  0
  195.8040  170.7790  135.3730 O   0  0  0  0  0  0  0  0  0  0  0  0
  194.4120  172.1940  137.4960 C   0  0  0  0  0  0  0  0  0  0  0  0
  195.5190  172.7260  137.2090 O   0  0  0  0  0  0  0  0  0  0  0  0
  192.7010  168.9410  135.5020 C   0  0  0  0  0  1  0  0  0  0  0  0
  194.1980  169.0300  135.2680 C   0  0  0  0  0  2  0  0  0  0  0  0
  192.0300  175.6240  142.0270 O   0  0  0  0  0  0  0  0  0  0  0  0
  191.4790  174.5490  141.8480 C   0  0  0  0  0  0  0  0  0  0  0  0
  190.4650  174.0680  142.8310 C   0  0  0  0  0  1  0  0  0  0  0  0
  189.7010  172.1980  137.9950 C   0  0  1  0  0  3  0  0  0  0  0  0
  189.3690  170.8410  138.0960 O   0  0  0  0  0  1  0  0  0  0  0  0
  188.5340  173.0360  138.4990 C   0  0  0  0  0  2  0  0  0  0  0  0
  188.3010  174.2110  137.5590 C   0  0  0  0  0  1  0  0  0  0  0  0
  1  2  1  1  0  0  0
  1 14  1  0  0  0  0
  3 22  1  0  0  0  0
  5 13  1  0  0  0  0
  5 18  1  1  0  0  0
  6  2  1  0  0  0  0
  7  5  1  0  0  0  0
  8  9  1  0  0  0  0
 10 13  1  0  0  0  0
 11  9  1  0  0  0  0
 12 15  1  0  0  0  0
 12  8  1  0  0  0  0
 13 11  1  0  0  0  0
 13 20  1  0  0  0  0
 14  3  1  0  0  0  0
 15 10  1  0  0  0  0
 16  7  1  0  0  0  0
 16 10  1  0  0  0  0
 17  6  1  0  0  0  0
 17  4  1  0  0  0  0
 17 21  1  0  0  0  0
 18 22  1  0  0  0  0
 19  1  1  0  0  0  0
 19  7  1  0  0  0  0
 21 19  1  0  0  0  0
 22 25  1  0  0  0  0
 24 25  1  0  0  0  0
 24 26  1  0  0  0  0
 25 23  2  0  0  0  0
 27 28  1  0  0  0  0
 27 26  1  0  0  0  0
 29 28  1  0  0  0  0
 30 29  1  0  0  0  0
 31 16  1  0  0  0  0
 32 37  1  0  0  0  0
 32 40  1  0  0  0  0
 33 32  2  0  0  0  0
 35 34  1  0  0  0  0
 35 39  2  0  0  0  0
 36 38  1  0  0  0  0
 37 35  1  0  0  0  0
 38 39  1  0  0  0  0
 38 49  1  0  0  0  0
 39 31  1  0  0  0  0
 40 36  1  0  0  0  0
 41 42  1  0  0  0  0
 42 44  1  0  0  0  0
 43 41  2  0  0  0  0
 44 37  1  0  0  0  0
 45 44  2  0  0  0  0
 47 46  1  0  0  0  0
 47 41  1  0  0  0  0
 49 48  2  0  0  0  0
 49 50  1  0  0  0  0
 51 52  1  0  0  0  0
 51 53  1  0  0  0  0
 51 40  1  0  0  0  0
 54 53  1  0  0  0  0
M  END
>  <MODEL>
9

>  <REMARK>
 VINA RESULT:      -5.4      2.410      5.230
  Name = 
  12 active torsions:
  status: ('A' for Active; 'I' for Inactive)
    1  A    between atoms: C_3  and  O_31
    2  A    between atoms: C_3  and  C_52
    3  A    between atoms: C_11  and  C_28
    4  A    between atoms: C_11  and  C_34
    5  A    between atoms: N_12  and  C_52
    6  A    between atoms: C_18  and  C_33
    7  A    between atoms: C_23  and  C_40
    8  A    between atoms: C_23  and  C_41
    9  A    between atoms: C_29  and  C_50
   10  A    between atoms: O_31  and  N_38
   11  A    between atoms: C_42  and  C_49
   12  A    between atoms: C_46  and  C_53
                            x       y       z     vdW  Elec       q    Type
                         _______ _______ _______ _____ _____    ______ ____

>  <TORSDO>
F 12

$$$$
