=
 OpenBabel11072409223D

 58 65  0  0  1  0  0  0  0  0999 V2000
  191.8540  174.9010  147.2560 C   0  0  0  0  0  1  0  0  0  0  0  0
  189.5210  171.9890  143.5090 C   0  0  0  0  0  2  0  0  0  0  0  0
  194.5480  174.3570  144.8630 C   0  0  1  0  0  3  0  0  0  0  0  0
  190.2610  171.0960  142.5830 C   0  0  0  0  0  2  0  0  0  0  0  0
  193.2810  173.8970  145.4890 C   0  0  1  0  0  3  0  0  0  0  0  0
  191.7100  171.3150  142.9880 C   0  0  2  0  0  3  0  0  0  0  0  0
  193.5260  176.1340  146.1260 O   0  0  0  0  0  0  0  0  0  0  0  0
  191.5200  175.6680  144.8370 C   0  0  1  0  0  3  0  0  0  0  0  0
  192.5280  175.1560  145.9150 C   0  0  2  0  0  0  0  0  0  0  0  0
  191.7620  172.7200  143.6260 C   0  0  2  0  0  0  0  0  0  0  0  0
  194.6660  175.7800  145.3640 C   0  0  2  0  0  3  0  0  0  0  0  0
  192.5610  171.1520  141.8950 O   0  0  0  0  0  1  0  0  0  0  0  0
  190.0590  175.2200  144.9830 C   0  0  0  0  0  2  0  0  0  0  0  0
  189.8680  173.7270  145.1980 C   0  0  0  0  0  2  0  0  0  0  0  0
  192.6400  172.6280  144.8880 C   0  0  0  0  0  2  0  0  0  0  0  0
  190.3260  172.9000  144.0390 C   0  0  2  0  0  3  0  0  0  0  0  0
  191.1490  174.2070  141.6080 C   0  0  0  0  0  1  0  0  0  0  0  0
  193.3900  173.4780  141.9680 O   0  0  0  0  0  1  0  0  0  0  0  0
  192.2120  173.8260  142.6290 C   0  0  2  0  0  3  0  0  0  0  0  0
  195.7080  173.5250  145.4090 C   0  0  0  0  0  2  0  0  0  0  0  0
  197.6510  172.1290  144.9920 O   0  0  0  0  0  0  0  0  0  0  0  0
  196.6040  172.8310  144.3670 C   0  0  1  0  0  3  0  0  0  0  0  0
  196.6010  171.3540  144.4580 C   0  0  1  0  0  3  0  0  0  0  0  0
  197.0170  170.7890  143.1830 N   0  0  0  0  0  2  0  0  0  0  0  0
  195.8680  170.0990  142.6160 C   0  0  0  0  0  2  0  0  0  0  0  0
  197.0370  170.8190  140.6740 O   0  0  0  0  0  0  0  0  0  0  0  0
  196.0590  169.9150  141.1230 C   0  0  2  0  0  3  0  0  0  0  0  0
  195.6960  171.1600  140.4120 C   0  0  2  0  0  3  0  0  0  0  0  0
  193.6810  171.8430  137.8630 C   0  0  0  0  0  0  0  0  0  0  0  0
  195.4160  170.8890  138.9420 C   0  0  1  0  0  3  0  0  0  0  0  0
  193.9800  170.8880  138.6910 N   0  0  0  0  0  0  0  0  0  0  0  0
  197.0470  172.4590  138.0280 O   0  0  0  0  0  0  0  0  0  0  0  0
  194.7770  172.6370  137.4270 N   0  0  0  0  0  2  0  0  0  0  0  0
  195.8580  172.0440  138.1190 C   0  0  0  0  0  0  0  0  0  0  0  0
  192.2940  172.0520  137.3610 C   0  0  0  0  0  2  0  0  0  0  0  0
  191.3390  171.6400  138.3800 N   0  0  0  0  0  2  0  0  0  0  0  0
  189.0620  172.3260  137.8260 O   0  0  0  0  0  1  0  0  0  0  0  0
  189.5770  169.9160  137.7190 C   0  0  1  0  0  3  0  0  0  0  0  0
  190.0610  171.3560  137.7370 C   0  0  2  0  0  0  0  0  0  0  0  0
  190.1090  170.5780  136.4450 C   0  0  0  0  0  2  0  0  0  0  0  0
  190.6140  168.9400  138.2420 C   0  0  0  0  0  1  0  0  0  0  0  0
  194.8440  176.7350  144.1900 C   0  0  0  0  0  2  0  0  0  0  0  0
  196.2570  176.6700  143.6190 C   0  0  0  0  0  2  0  0  0  0  0  0
  196.2430  176.3590  142.1550 C   0  0  0  0  0  0  0  0  0  0  0  0
  195.2460  176.6060  141.4910 O   0  0  0  0  0  0  0  0  0  0  0  0
  197.4580  175.7720  141.4990 C   0  0  0  0  0  3  0  0  0  0  0  0
  197.1230  174.4080  140.9050 C   0  0  0  0  0  2  0  0  0  0  0  0
  197.2220  175.6230  140.0030 C   0  0  0  0  0  2  0  0  0  0  0  0
  191.5350  177.1910  144.6840 C   0  0  0  0  0  2  0  0  0  0  0  0
  190.1300  177.7660  144.7120 C   0  0  0  0  0  2  0  0  0  0  0  0
  189.5240  177.7360  143.3200 C   0  0  0  0  0  2  0  0  0  0  0  0
  188.0190  177.5410  143.4060 C   0  0  2  0  0  3  0  0  0  0  0  0
  187.3170  178.2060  142.2690 C   0  0  0  0  0  0  0  0  0  0  0  0
  187.6870  177.9000  140.9670 O   0  0  0  0  0  0  0  0  0  0  0  0
  186.3920  179.0300  142.4760 O   0  0  0  0  0  1  0  0  0  0  0  0
  187.4420  177.9470  144.7640 C   0  0  0  0  0  2  0  0  0  0  0  0
  186.4850  176.9030  145.3360 C   0  0  0  0  0  2  0  0  0  0  0  0
  186.1540  177.2410  146.6460 O   0  0  0  0  0  1  0  0  0  0  0  0
  3 11  1  0  0  0  0
  3 20  1  1  0  0  0
  3  5  1  0  0  0  0
  4  6  1  0  0  0  0
  4  2  1  0  0  0  0
  5 15  1  6  0  0  0
  5  9  1  0  0  0  0
  6 12  1  6  0  0  0
  6 10  1  0  0  0  0
  8 49  1  1  0  0  0
  8 13  1  0  0  0  0
  8  9  1  0  0  0  0
  9  7  1  0  0  0  0
  9  1  1  1  0  0  0
 10 19  1  6  0  0  0
 10 16  1  0  0  0  0
 10 15  1  0  0  0  0
 11 42  1  6  0  0  0
 11  7  1  0  0  0  0
 13 14  1  0  0  0  0
 16  2  1  1  0  0  0
 16 14  1  0  0  0  0
 18 19  1  0  0  0  0
 19 17  1  6  0  0  0
 22 23  1  0  0  0  0
 22 21  1  0  0  0  0
 22 20  1  1  0  0  0
 23 24  1  6  0  0  0
 23 21  1  0  0  0  0
 25 24  1  0  0  0  0
 26 27  1  0  0  0  0
 27 25  1  1  0  0  0
 28 26  1  6  0  0  0
 28 27  1  0  0  0  0
 29 31  2  0  0  0  0
 30 34  1  6  0  0  0
 30 28  1  0  0  0  0
 31 30  1  0  0  0  0
 32 34  2  0  0  0  0
 33 29  1  0  0  0  0
 33 34  1  0  0  0  0
 35 29  1  0  0  0  0
 35 36  1  0  0  0  0
 38 39  1  0  0  0  0
 38 41  1  1  0  0  0
 39 37  1  1  0  0  0
 39 36  1  0  0  0  0
 40 38  1  0  0  0  0
 40 39  1  0  0  0  0
 43 42  1  0  0  0  0
 44 43  1  0  0  0  0
 45 44  2  0  0  0  0
 46 44  1  0  0  0  0
 47 46  1  0  0  0  0
 48 47  1  0  0  0  0
 48 46  1  0  0  0  0
 49 50  1  0  0  0  0
 51 50  1  0  0  0  0
 52 51  1  1  0  0  0
 52 56  1  0  0  0  0
 53 55  1  0  0  0  0
 53 52  1  0  0  0  0
 54 53  2  0  0  0  0
 56 57  1  0  0  0  0
 57 58  1  0  0  0  0
M  END
>  <MODEL>
1

>  <REMARK>
 VINA RESULT:      -6.0      0.000      0.000
  Name = 
  21 active torsions:
  status: ('A' for Active; 'I' for Inactive)
    1  A    between atoms: C_2  and  C_22
    2  A    between atoms: C_2  and  C_26
    3  A    between atoms: C_2  and  C_29
    4  A    between atoms: C_3  and  C_40
    5  A    between atoms: C_7  and  C_19
    6  A    between atoms: C_9  and  C_11
    7  A    between atoms: C_9  and  C_21
    8  A    between atoms: C_10  and  C_11
    9  A    between atoms: C_12  and  C_55
   10  A    between atoms: C_16  and  C_20
   11  A    between atoms: C_16  and  C_22
   12  A    between atoms: C_19  and  C_44
   13  A    between atoms: C_20  and  C_30
   14  A    between atoms: C_21  and  C_38
   15  A    between atoms: C_26  and  C_28
   16  A    between atoms: N_27  and  C_39
   17  A    between atoms: N_27  and  C_40
   18  A    between atoms: N_31  and  C_42
   19  A    between atoms: N_31  and  C_52
   20  A    between atoms: C_34  and  C_42
   21  A    between atoms: C_37  and  C_48
                            x       y       z     vdW  Elec       q    Type
                         _______ _______ _______ _____ _____    ______ ____

>  <TORSDO>
F 21

$$$$
=
 OpenBabel11072409223D

 58 65  0  0  1  0  0  0  0  0999 V2000
  192.6040  176.9390  144.4700 C   0  0  0  0  0  1  0  0  0  0  0  0
  196.5460  173.8480  146.1640 C   0  0  0  0  0  2  0  0  0  0  0  0
  192.6870  174.2920  141.9660 C   0  0  1  0  0  3  0  0  0  0  0  0
  197.3120  172.9340  145.2800 C   0  0  0  0  0  2  0  0  0  0  0  0
  193.3960  175.1200  142.9780 C   0  0  1  0  0  3  0  0  0  0  0  0
  196.6370  173.1250  143.9320 C   0  0  2  0  0  3  0  0  0  0  0  0
  191.1160  175.4800  143.3510 O   0  0  0  0  0  0  0  0  0  0  0  0
  192.3050  174.5140  145.2370 C   0  0  1  0  0  3  0  0  0  0  0  0
  192.3560  175.5030  144.0280 C   0  0  2  0  0  0  0  0  0  0  0  0
  195.2010  173.6000  144.2410 C   0  0  2  0  0  0  0  0  0  0  0  0
  191.2340  174.6210  142.2320 C   0  0  2  0  0  3  0  0  0  0  0  0
  196.7020  171.9560  143.1740 O   0  0  0  0  0  1  0  0  0  0  0  0
  193.1240  174.8920  146.4790 C   0  0  0  0  0  2  0  0  0  0  0  0
  194.5660  175.2870  146.1970 C   0  0  0  0  0  2  0  0  0  0  0  0
  194.8660  174.7430  143.2640 C   0  0  0  0  0  2  0  0  0  0  0  0
  195.3810  174.1720  145.6220 C   0  0  2  0  0  3  0  0  0  0  0  0
  194.2780  171.5000  145.4230 C   0  0  0  0  0  1  0  0  0  0  0  0
  194.2150  171.7080  143.0490 O   0  0  0  0  0  1  0  0  0  0  0  0
  194.1610  172.4430  144.2330 C   0  0  2  0  0  3  0  0  0  0  0  0
  193.0720  174.7690  140.5670 C   0  0  0  0  0  2  0  0  0  0  0  0
  193.8660  173.8690  138.4560 O   0  0  0  0  0  0  0  0  0  0  0  0
  194.1460  173.9460  139.8330 C   0  0  1  0  0  3  0  0  0  0  0  0
  194.9240  174.7190  138.8400 C   0  0  1  0  0  3  0  0  0  0  0  0
  196.1940  174.0530  138.5930 N   0  0  0  0  0  2  0  0  0  0  0  0
  196.9590  174.8940  137.6840 C   0  0  0  0  0  2  0  0  0  0  0  0
  197.0650  175.7150  135.4550 O   0  0  0  0  0  0  0  0  0  0  0  0
  196.3050  174.9070  136.3160 C   0  0  2  0  0  3  0  0  0  0  0  0
  195.8840  176.2820  135.9710 C   0  0  2  0  0  3  0  0  0  0  0  0
  192.6300  176.1250  135.3310 C   0  0  0  0  0  0  0  0  0  0  0  0
  194.8330  176.2750  134.8730 C   0  0  1  0  0  3  0  0  0  0  0  0
  193.7150  175.4160  135.2460 N   0  0  0  0  0  0  0  0  0  0  0  0
  194.7530  178.6880  134.5130 O   0  0  0  0  0  0  0  0  0  0  0  0
  192.7870  177.5130  135.0630 N   0  0  0  0  0  2  0  0  0  0  0  0
  194.1720  177.6020  134.7920 C   0  0  0  0  0  0  0  0  0  0  0  0
  191.3060  175.5140  135.6310 C   0  0  0  0  0  2  0  0  0  0  0  0
  191.4410  174.0680  135.7060 N   0  0  0  0  0  2  0  0  0  0  0  0
  189.2340  174.4050  136.6970 O   0  0  0  0  0  1  0  0  0  0  0  0
  190.3400  172.2370  137.1050 C   0  0  1  0  0  3  0  0  0  0  0  0
  190.2220  173.5110  136.2830 C   0  0  2  0  0  0  0  0  0  0  0  0
  189.7290  172.2090  135.7010 C   0  0  0  0  0  2  0  0  0  0  0  0
  191.7300  171.6310  137.0540 C   0  0  0  0  0  1  0  0  0  0  0  0
  190.4400  173.3400  142.4540 C   0  0  0  0  0  2  0  0  0  0  0  0
  188.9650  173.6280  142.7170 C   0  0  0  0  0  2  0  0  0  0  0  0
  188.3990  174.5670  141.6980 C   0  0  0  0  0  0  0  0  0  0  0  0
  188.5680  174.3450  140.5080 O   0  0  0  0  0  0  0  0  0  0  0  0
  187.6040  175.7620  142.1350 C   0  0  0  0  0  3  0  0  0  0  0  0
  188.4360  177.0290  141.9770 C   0  0  0  0  0  2  0  0  0  0  0  0
  187.3680  176.6910  140.9550 C   0  0  0  0  0  2  0  0  0  0  0  0
  190.8760  174.2020  145.6890 C   0  0  0  0  0  2  0  0  0  0  0  0
  190.5470  174.8860  147.0040 C   0  0  0  0  0  2  0  0  0  0  0  0
  189.0670  175.2170  147.0660 C   0  0  0  0  0  2  0  0  0  0  0  0
  188.6960  176.1840  145.9540 C   0  0  2  0  0  3  0  0  0  0  0  0
  189.3950  177.4930  146.1130 C   0  0  0  0  0  0  0  0  0  0  0  0
  189.6490  178.2700  144.9910 O   0  0  0  0  0  0  0  0  0  0  0  0
  189.7480  177.9020  147.2460 O   0  0  0  0  0  1  0  0  0  0  0  0
  187.1830  176.3480  145.7870 C   0  0  0  0  0  2  0  0  0  0  0  0
  186.6230  177.5180  146.5930 C   0  0  0  0  0  2  0  0  0  0  0  0
  185.9640  177.0350  147.7210 O   0  0  0  0  0  1  0  0  0  0  0  0
  3 20  1  6  0  0  0
  3 11  1  0  0  0  0
  3  5  1  0  0  0  0
  4  2  1  0  0  0  0
  5 15  1  1  0  0  0
  5  9  1  0  0  0  0
  6 12  1  1  0  0  0
  6 10  1  0  0  0  0
  6  4  1  0  0  0  0
  7  9  1  0  0  0  0
  8 49  1  1  0  0  0
  8 13  1  0  0  0  0
  9  1  1  1  0  0  0
  9  8  1  0  0  0  0
 10 19  1  6  0  0  0
 10 16  1  0  0  0  0
 11 42  1  1  0  0  0
 11  7  1  0  0  0  0
 14 13  1  0  0  0  0
 15 10  1  0  0  0  0
 16  2  1  6  0  0  0
 16 14  1  0  0  0  0
 18 19  1  0  0  0  0
 19 17  1  1  0  0  0
 21 23  1  0  0  0  0
 21 22  1  0  0  0  0
 22 20  1  1  0  0  0
 23 24  1  6  0  0  0
 23 22  1  0  0  0  0
 25 24  1  0  0  0  0
 26 27  1  0  0  0  0
 27 25  1  1  0  0  0
 28 26  1  6  0  0  0
 28 27  1  0  0  0  0
 29 35  1  0  0  0  0
 30 34  1  1  0  0  0
 30 31  1  0  0  0  0
 30 28  1  0  0  0  0
 31 29  2  0  0  0  0
 32 34  2  0  0  0  0
 33 29  1  0  0  0  0
 34 33  1  0  0  0  0
 35 36  1  0  0  0  0
 36 39  1  0  0  0  0
 38 41  1  6  0  0  0
 39 37  1  1  0  0  0
 39 38  1  0  0  0  0
 40 39  1  0  0  0  0
 40 38  1  0  0  0  0
 42 43  1  0  0  0  0
 44 46  1  0  0  0  0
 44 43  1  0  0  0  0
 45 44  2  0  0  0  0
 47 46  1  0  0  0  0
 48 47  1  0  0  0  0
 48 46  1  0  0  0  0
 49 50  1  0  0  0  0
 50 51  1  0  0  0  0
 52 56  1  1  0  0  0
 52 53  1  0  0  0  0
 52 51  1  0  0  0  0
 53 55  1  0  0  0  0
 54 53  2  0  0  0  0
 56 57  1  0  0  0  0
 57 58  1  0  0  0  0
M  END
>  <MODEL>
2

>  <REMARK>
 VINA RESULT:      -5.9      2.813      5.413
  Name = 
  21 active torsions:
  status: ('A' for Active; 'I' for Inactive)
    1  A    between atoms: C_2  and  C_22
    2  A    between atoms: C_2  and  C_26
    3  A    between atoms: C_2  and  C_29
    4  A    between atoms: C_3  and  C_40
    5  A    between atoms: C_7  and  C_19
    6  A    between atoms: C_9  and  C_11
    7  A    between atoms: C_9  and  C_21
    8  A    between atoms: C_10  and  C_11
    9  A    between atoms: C_12  and  C_55
   10  A    between atoms: C_16  and  C_20
   11  A    between atoms: C_16  and  C_22
   12  A    between atoms: C_19  and  C_44
   13  A    between atoms: C_20  and  C_30
   14  A    between atoms: C_21  and  C_38
   15  A    between atoms: C_26  and  C_28
   16  A    between atoms: N_27  and  C_39
   17  A    between atoms: N_27  and  C_40
   18  A    between atoms: N_31  and  C_42
   19  A    between atoms: N_31  and  C_52
   20  A    between atoms: C_34  and  C_42
   21  A    between atoms: C_37  and  C_48
                            x       y       z     vdW  Elec       q    Type
                         _______ _______ _______ _____ _____    ______ ____

>  <TORSDO>
F 21

$$$$
=
 OpenBabel11072409223D

 58 65  0  0  1  0  0  0  0  0999 V2000
  189.2410  178.0060  142.2550 C   0  0  0  0  0  1  0  0  0  0  0  0
  190.3650  177.3990  147.3870 C   0  0  0  0  0  2  0  0  0  0  0  0
  190.9150  174.7700  142.3370 C   0  0  1  0  0  3  0  0  0  0  0  0
  191.4500  176.5230  147.8920 C   0  0  0  0  0  2  0  0  0  0  0  0
  190.7150  176.1230  142.9210 C   0  0  1  0  0  3  0  0  0  0  0  0
  192.0100  175.9100  146.6190 C   0  0  2  0  0  3  0  0  0  0  0  0
  188.9440  175.8120  141.4270 O   0  0  0  0  0  0  0  0  0  0  0  0
  188.2650  176.1570  143.7340 C   0  0  1  0  0  3  0  0  0  0  0  0
  189.2770  176.5240  142.6000 C   0  0  2  0  0  0  0  0  0  0  0  0
  190.8610  175.9540  145.5880 C   0  0  2  0  0  0  0  0  0  0  0  0
  189.7740  174.6670  141.3480 C   0  0  2  0  0  3  0  0  0  0  0  0
  192.5110  174.6310  146.8610 O   0  0  0  0  0  1  0  0  0  0  0  0
  187.9310  177.2590  144.7490 C   0  0  0  0  0  2  0  0  0  0  0  0
  189.1380  177.9660  145.3450 C   0  0  0  0  0  2  0  0  0  0  0  0
  191.4560  176.4150  144.2440 C   0  0  0  0  0  2  0  0  0  0  0  0
  190.0120  177.0610  146.1550 C   0  0  2  0  0  3  0  0  0  0  0  0
  189.2570  174.2970  146.7450 C   0  0  0  0  0  1  0  0  0  0  0  0
  190.9060  173.5420  145.1990 O   0  0  0  0  0  1  0  0  0  0  0  0
  190.0700  174.6170  145.4990 C   0  0  2  0  0  3  0  0  0  0  0  0
  192.2460  174.7380  141.5880 C   0  0  0  0  0  2  0  0  0  0  0  0
  193.2550  172.8010  142.6500 O   0  0  0  0  0  0  0  0  0  0  0  0
  193.4500  174.1630  142.3550 C   0  0  1  0  0  3  0  0  0  0  0  0
  194.1770  173.1000  141.6260 C   0  0  1  0  0  3  0  0  0  0  0  0
  195.5310  172.9920  142.1470 N   0  0  0  0  0  2  0  0  0  0  0  0
  196.3790  172.5150  141.0650 C   0  0  0  0  0  2  0  0  0  0  0  0
  196.8290  170.4520  139.9700 O   0  0  0  0  0  0  0  0  0  0  0  0
  195.7870  171.2570  140.4600 C   0  0  2  0  0  3  0  0  0  0  0  0
  196.1060  171.1940  139.0170 C   0  0  2  0  0  3  0  0  0  0  0  0
  194.1860  170.8020  136.3370 C   0  0  0  0  0  0  0  0  0  0  0  0
  195.1670  170.2450  138.2890 C   0  0  1  0  0  3  0  0  0  0  0  0
  194.1090  170.9920  137.6200 N   0  0  0  0  0  0  0  0  0  0  0  0
  196.8850  168.8820  137.2150 O   0  0  0  0  0  0  0  0  0  0  0  0
  195.2460  169.9560  135.9080 N   0  0  0  0  0  2  0  0  0  0  0  0
  195.8660  169.6240  137.1350 C   0  0  0  0  0  0  0  0  0  0  0  0
  193.1950  171.3830  135.3890 C   0  0  0  0  0  2  0  0  0  0  0  0
  191.9680  171.7040  136.1020 N   0  0  0  0  0  2  0  0  0  0  0  0
  191.1650  169.7350  134.9000 O   0  0  0  0  0  1  0  0  0  0  0  0
  189.7380  171.7470  134.8580 C   0  0  1  0  0  3  0  0  0  0  0  0
  190.8670  170.9580  135.5010 C   0  0  2  0  0  0  0  0  0  0  0  0
  189.5320  171.0390  136.2010 C   0  0  0  0  0  2  0  0  0  0  0  0
  189.8540  173.2410  135.0970 C   0  0  0  0  0  1  0  0  0  0  0  0
  188.9680  173.4010  141.6090 C   0  0  0  0  0  2  0  0  0  0  0  0
  189.2700  172.3170  140.5800 C   0  0  0  0  0  2  0  0  0  0  0  0
  190.3990  171.4390  141.0220 C   0  0  0  0  0  0  0  0  0  0  0  0
  190.4170  171.0020  142.1650 O   0  0  0  0  0  0  0  0  0  0  0  0
  191.4900  171.0740  140.0600 C   0  0  0  0  0  3  0  0  0  0  0  0
  192.1230  169.7490  140.4670 C   0  0  0  0  0  2  0  0  0  0  0  0
  191.1280  169.7930  139.3240 C   0  0  0  0  0  2  0  0  0  0  0  0
  186.9480  175.5930  143.1960 C   0  0  0  0  0  2  0  0  0  0  0  0
  185.8140  176.5910  143.3470 C   0  0  0  0  0  2  0  0  0  0  0  0
  185.6810  177.4280  142.0880 C   0  0  0  0  0  2  0  0  0  0  0  0
  184.6590  178.5340  142.2970 C   0  0  2  0  0  3  0  0  0  0  0  0
  184.8400  179.2030  143.6190 C   0  0  0  0  0  0  0  0  0  0  0  0
  183.9210  178.9680  144.6320 O   0  0  0  0  0  1  0  0  0  0  0  0
  185.8160  179.9650  143.8280 O   0  0  0  0  0  0  0  0  0  0  0  0
  183.2190  178.0650  142.0730 C   0  0  0  0  0  2  0  0  0  0  0  0
  182.7540  178.2490  140.6300 C   0  0  0  0  0  2  0  0  0  0  0  0
  181.5240  178.9020  140.6160 O   0  0  0  0  0  1  0  0  0  0  0  0
  2  4  1  0  0  0  0
  3 20  1  6  0  0  0
  3  5  1  0  0  0  0
  5 15  1  1  0  0  0
  6 12  1  1  0  0  0
  6  4  1  0  0  0  0
  7  9  1  0  0  0  0
  8 49  1  6  0  0  0
  8 13  1  0  0  0  0
  9  1  1  6  0  0  0
  9  5  1  0  0  0  0
  9  8  1  0  0  0  0
 10 19  1  6  0  0  0
 10 16  1  0  0  0  0
 10  6  1  0  0  0  0
 11  7  1  0  0  0  0
 11 42  1  1  0  0  0
 11  3  1  0  0  0  0
 13 14  1  0  0  0  0
 15 10  1  0  0  0  0
 16 14  1  6  0  0  0
 16  2  1  0  0  0  0
 18 19  1  0  0  0  0
 19 17  1  1  0  0  0
 22 20  1  6  0  0  0
 22 21  1  0  0  0  0
 23 24  1  1  0  0  0
 23 22  1  0  0  0  0
 23 21  1  0  0  0  0
 25 24  1  0  0  0  0
 26 27  1  0  0  0  0
 27 25  1  1  0  0  0
 28 26  1  1  0  0  0
 28 27  1  0  0  0  0
 29 31  2  0  0  0  0
 30 34  1  6  0  0  0
 30 28  1  0  0  0  0
 31 30  1  0  0  0  0
 33 29  1  0  0  0  0
 33 34  1  0  0  0  0
 34 32  2  0  0  0  0
 35 36  1  0  0  0  0
 35 29  1  0  0  0  0
 38 41  1  1  0  0  0
 38 39  1  0  0  0  0
 38 40  1  0  0  0  0
 39 37  1  6  0  0  0
 39 36  1  0  0  0  0
 39 40  1  0  0  0  0
 43 44  1  0  0  0  0
 43 42  1  0  0  0  0
 44 45  2  0  0  0  0
 46 47  1  0  0  0  0
 46 44  1  0  0  0  0
 48 46  1  0  0  0  0
 48 47  1  0  0  0  0
 49 50  1  0  0  0  0
 51 52  1  0  0  0  0
 51 50  1  0  0  0  0
 52 56  1  1  0  0  0
 52 53  1  0  0  0  0
 53 55  2  0  0  0  0
 53 54  1  0  0  0  0
 57 56  1  0  0  0  0
 58 57  1  0  0  0  0
M  END
>  <MODEL>
3

>  <REMARK>
 VINA RESULT:      -5.9      2.400      4.913
  Name = 
  21 active torsions:
  status: ('A' for Active; 'I' for Inactive)
    1  A    between atoms: C_2  and  C_22
    2  A    between atoms: C_2  and  C_26
    3  A    between atoms: C_2  and  C_29
    4  A    between atoms: C_3  and  C_40
    5  A    between atoms: C_7  and  C_19
    6  A    between atoms: C_9  and  C_11
    7  A    between atoms: C_9  and  C_21
    8  A    between atoms: C_10  and  C_11
    9  A    between atoms: C_12  and  C_55
   10  A    between atoms: C_16  and  C_20
   11  A    between atoms: C_16  and  C_22
   12  A    between atoms: C_19  and  C_44
   13  A    between atoms: C_20  and  C_30
   14  A    between atoms: C_21  and  C_38
   15  A    between atoms: C_26  and  C_28
   16  A    between atoms: N_27  and  C_39
   17  A    between atoms: N_27  and  C_40
   18  A    between atoms: N_31  and  C_42
   19  A    between atoms: N_31  and  C_52
   20  A    between atoms: C_34  and  C_42
   21  A    between atoms: C_37  and  C_48
                            x       y       z     vdW  Elec       q    Type
                         _______ _______ _______ _____ _____    ______ ____

>  <TORSDO>
F 21

$$$$
=
 OpenBabel11072409223D

 58 65  0  0  1  0  0  0  0  0999 V2000
  187.2770  172.3100  141.7720 C   0  0  0  0  0  1  0  0  0  0  0  0
  192.2690  170.5670  141.8530 C   0  0  0  0  0  2  0  0  0  0  0  0
  189.0520  175.0230  143.4370 C   0  0  1  0  0  3  0  0  0  0  0  0
  193.2870  171.0350  142.8270 C   0  0  0  0  0  2  0  0  0  0  0  0
  188.9430  173.5770  143.1070 C   0  0  1  0  0  3  0  0  0  0  0  0
  192.5270  172.0710  143.6380 C   0  0  2  0  0  3  0  0  0  0  0  0
  187.4500  174.6660  141.6750 O   0  0  0  0  0  0  0  0  0  0  0  0
  189.2170  173.4430  140.5440 C   0  0  1  0  0  3  0  0  0  0  0  0
  188.2340  173.4940  141.7580 C   0  0  2  0  0  0  0  0  0  0  0  0
  191.3970  172.5830  142.7180 C   0  0  2  0  0  0  0  0  0  0  0  0
  188.0240  175.6480  142.5180 C   0  0  2  0  0  3  0  0  0  0  0  0
  193.3860  173.0700  144.0970 O   0  0  0  0  0  1  0  0  0  0  0  0
  189.5750  172.0530  139.9990 C   0  0  0  0  0  2  0  0  0  0  0  0
  190.0050  171.0440  141.0530 C   0  0  0  0  0  2  0  0  0  0  0  0
  190.1130  172.6800  143.5640 C   0  0  0  0  0  2  0  0  0  0  0  0
  191.2670  171.4300  141.7590 C   0  0  2  0  0  3  0  0  0  0  0  0
  192.8350  173.7340  140.9110 C   0  0  0  0  0  1  0  0  0  0  0  0
  192.1440  174.9050  142.8690 O   0  0  0  0  0  1  0  0  0  0  0  0
  191.7620  173.9020  141.9780 C   0  0  2  0  0  3  0  0  0  0  0  0
  188.6380  175.2390  144.8910 C   0  0  0  0  0  2  0  0  0  0  0  0
  188.6190  176.7740  146.7730 O   0  0  0  0  0  0  0  0  0  0  0  0
  189.3630  176.3630  145.6510 C   0  0  1  0  0  3  0  0  0  0  0  0
  189.7680  175.9980  147.0270 C   0  0  1  0  0  3  0  0  0  0  0  0
  190.8520  176.8660  147.4600 N   0  0  0  0  0  2  0  0  0  0  0  0
  191.9940  176.0180  147.7700 C   0  0  0  0  0  2  0  0  0  0  0  0
  192.9620  176.8150  145.7490 O   0  0  0  0  0  0  0  0  0  0  0  0
  193.2410  176.5650  147.1030 C   0  0  2  0  0  3  0  0  0  0  0  0
  193.6870  175.6420  146.0360 C   0  0  2  0  0  3  0  0  0  0  0  0
  196.5270  174.2000  145.1010 C   0  0  0  0  0  0  0  0  0  0  0  0
  195.1440  175.8850  145.6760 C   0  0  1  0  0  3  0  0  0  0  0  0
  195.9700  174.7710  146.1260 N   0  0  0  0  0  0  0  0  0  0  0  0
  194.7740  176.5770  143.3640 O   0  0  0  0  0  0  0  0  0  0  0  0
  196.2030  174.7650  143.8370 N   0  0  0  0  0  2  0  0  0  0  0  0
  195.3230  175.8100  144.2040 C   0  0  0  0  0  0  0  0  0  0  0  0
  197.4850  173.0690  145.2470 C   0  0  0  0  0  2  0  0  0  0  0  0
  196.8620  171.9970  146.0100 N   0  0  0  0  0  2  0  0  0  0  0  0
  197.9390  170.7490  144.2080 O   0  0  0  0  0  1  0  0  0  0  0  0
  195.9840  169.7090  145.2950 C   0  0  1  0  0  3  0  0  0  0  0  0
  197.1090  170.7310  145.3280 C   0  0  2  0  0  0  0  0  0  0  0  0
  197.2040  169.5010  146.1980 C   0  0  0  0  0  2  0  0  0  0  0  0
  194.7970  170.1120  146.1490 C   0  0  0  0  0  1  0  0  0  0  0  0
  188.6650  176.7560  141.6930 C   0  0  0  0  0  2  0  0  0  0  0  0
  188.5350  178.1150  142.3740 C   0  0  0  0  0  2  0  0  0  0  0  0
  187.1060  178.4470  142.6680 C   0  0  0  0  0  0  0  0  0  0  0  0
  186.3070  178.5590  141.7480 O   0  0  0  0  0  0  0  0  0  0  0  0
  186.6480  178.6150  144.0870 C   0  0  0  0  0  3  0  0  0  0  0  0
  185.1650  178.9650  144.1190 C   0  0  0  0  0  2  0  0  0  0  0  0
  185.6160  177.5520  144.4310 C   0  0  0  0  0  2  0  0  0  0  0  0
  188.7570  174.3080  139.3690 C   0  0  0  0  0  2  0  0  0  0  0  0
  188.3650  173.4590  138.1730 C   0  0  0  0  0  2  0  0  0  0  0  0
  188.9870  174.0180  136.9060 C   0  0  0  0  0  2  0  0  0  0  0  0
  190.3730  173.4300  136.6970 C   0  0  2  0  0  3  0  0  0  0  0  0
  191.4240  174.4910  136.7120 C   0  0  0  0  0  0  0  0  0  0  0  0
  191.3370  175.5470  135.8160 O   0  0  0  0  0  0  0  0  0  0  0  0
  192.3770  174.4430  137.5280 O   0  0  0  0  0  1  0  0  0  0  0  0
  190.4620  172.5390  135.4560 C   0  0  0  0  0  2  0  0  0  0  0  0
  189.4850  171.3660  135.5000 C   0  0  0  0  0  2  0  0  0  0  0  0
  189.7950  170.5400  136.5780 O   0  0  0  0  0  1  0  0  0  0  0  0
  2  4  1  0  0  0  0
  3 20  1  1  0  0  0
  4  6  1  0  0  0  0
  5  3  1  0  0  0  0
  5 15  1  6  0  0  0
  6 12  1  6  0  0  0
  7  9  1  0  0  0  0
  7 11  1  0  0  0  0
  8 49  1  6  0  0  0
  8  9  1  0  0  0  0
  9  1  1  6  0  0  0
  9  5  1  0  0  0  0
 10 19  1  6  0  0  0
 10 15  1  0  0  0  0
 10  6  1  0  0  0  0
 11 42  1  6  0  0  0
 11  3  1  0  0  0  0
 13  8  1  0  0  0  0
 13 14  1  0  0  0  0
 16 14  1  1  0  0  0
 16  2  1  0  0  0  0
 16 10  1  0  0  0  0
 19 17  1  6  0  0  0
 19 18  1  0  0  0  0
 21 23  1  0  0  0  0
 22 20  1  6  0  0  0
 22 21  1  0  0  0  0
 22 23  1  0  0  0  0
 23 24  1  1  0  0  0
 24 25  1  0  0  0  0
 26 27  1  0  0  0  0
 27 25  1  1  0  0  0
 28 26  1  6  0  0  0
 28 27  1  0  0  0  0
 29 35  1  0  0  0  0
 29 31  2  0  0  0  0
 30 34  1  6  0  0  0
 30 28  1  0  0  0  0
 30 31  1  0  0  0  0
 32 34  2  0  0  0  0
 33 34  1  0  0  0  0
 33 29  1  0  0  0  0
 35 36  1  0  0  0  0
 38 39  1  0  0  0  0
 38 41  1  1  0  0  0
 38 40  1  0  0  0  0
 39 37  1  6  0  0  0
 39 36  1  0  0  0  0
 39 40  1  0  0  0  0
 42 43  1  0  0  0  0
 43 44  1  0  0  0  0
 44 46  1  0  0  0  0
 45 44  2  0  0  0  0
 46 47  1  0  0  0  0
 46 48  1  0  0  0  0
 47 48  1  0  0  0  0
 50 49  1  0  0  0  0
 51 50  1  0  0  0  0
 52 56  1  6  0  0  0
 52 53  1  0  0  0  0
 52 51  1  0  0  0  0
 53 55  1  0  0  0  0
 54 53  2  0  0  0  0
 56 57  1  0  0  0  0
 57 58  1  0  0  0  0
M  END
>  <MODEL>
4

>  <REMARK>
 VINA RESULT:      -5.9      2.839      8.077
  Name = 
  21 active torsions:
  status: ('A' for Active; 'I' for Inactive)
    1  A    between atoms: C_2  and  C_22
    2  A    between atoms: C_2  and  C_26
    3  A    between atoms: C_2  and  C_29
    4  A    between atoms: C_3  and  C_40
    5  A    between atoms: C_7  and  C_19
    6  A    between atoms: C_9  and  C_11
    7  A    between atoms: C_9  and  C_21
    8  A    between atoms: C_10  and  C_11
    9  A    between atoms: C_12  and  C_55
   10  A    between atoms: C_16  and  C_20
   11  A    between atoms: C_16  and  C_22
   12  A    between atoms: C_19  and  C_44
   13  A    between atoms: C_20  and  C_30
   14  A    between atoms: C_21  and  C_38
   15  A    between atoms: C_26  and  C_28
   16  A    between atoms: N_27  and  C_39
   17  A    between atoms: N_27  and  C_40
   18  A    between atoms: N_31  and  C_42
   19  A    between atoms: N_31  and  C_52
   20  A    between atoms: C_34  and  C_42
   21  A    between atoms: C_37  and  C_48
                            x       y       z     vdW  Elec       q    Type
                         _______ _______ _______ _____ _____    ______ ____

>  <TORSDO>
F 21

$$$$
=
 OpenBabel11072409223D

 58 65  0  0  1  0  0  0  0  0999 V2000
  190.2430  172.3890  144.6170 C   0  0  0  0  0  1  0  0  0  0  0  0
  187.8440  176.7840  146.3160 C   0  0  0  0  0  2  0  0  0  0  0  0
  190.0390  174.4160  141.5960 C   0  0  1  0  0  3  0  0  0  0  0  0
  187.0870  177.7020  145.4300 C   0  0  0  0  0  2  0  0  0  0  0  0
  189.4920  174.0460  142.9280 C   0  0  1  0  0  3  0  0  0  0  0  0
  187.2580  177.0660  144.0600 C   0  0  2  0  0  3  0  0  0  0  0  0
  191.6250  173.0930  142.8320 O   0  0  0  0  0  0  0  0  0  0  0  0
  191.3240  174.7090  144.6210 C   0  0  1  0  0  3  0  0  0  0  0  0
  190.6790  173.5730  143.7650 C   0  0  2  0  0  0  0  0  0  0  0  0
  188.5660  176.2480  144.1340 C   0  0  2  0  0  0  0  0  0  0  0  0
  191.3830  173.7220  141.5870 C   0  0  2  0  0  3  0  0  0  0  0  0
  187.2470  178.0360  143.0570 O   0  0  0  0  0  1  0  0  0  0  0  0
  190.8520  174.8360  146.0760 C   0  0  0  0  0  2  0  0  0  0  0  0
  189.3420  174.8490  146.2590 C   0  0  0  0  0  2  0  0  0  0  0  0
  188.3110  174.8950  143.4440 C   0  0  0  0  0  2  0  0  0  0  0  0
  188.6800  176.0280  145.6190 C   0  0  2  0  0  3  0  0  0  0  0  0
  190.3250  178.0990  144.5040 C   0  0  0  0  0  1  0  0  0  0  0  0
  189.5380  177.5650  142.3190 O   0  0  0  0  0  1  0  0  0  0  0  0
  189.7980  177.0160  143.5750 C   0  0  2  0  0  3  0  0  0  0  0  0
  189.1490  173.8230  140.5050 C   0  0  0  0  0  2  0  0  0  0  0  0
  189.7290  171.6270  139.6450 O   0  0  0  0  0  0  0  0  0  0  0  0
  189.8580  173.0090  139.4090 C   0  0  1  0  0  3  0  0  0  0  0  0
  188.9490  172.1660  138.6000 C   0  0  1  0  0  3  0  0  0  0  0  0
  189.5760  171.8630  137.3230 N   0  0  0  0  0  2  0  0  0  0  0  0
  189.8560  170.4340  137.3010 C   0  0  0  0  0  2  0  0  0  0  0  0
  191.4800  168.9040  136.4790 O   0  0  0  0  0  0  0  0  0  0  0  0
  190.8320  170.1150  136.1850 C   0  0  2  0  0  3  0  0  0  0  0  0
  192.2120  170.0830  136.7170 C   0  0  2  0  0  3  0  0  0  0  0  0
  194.7170  171.9390  135.5750 C   0  0  0  0  0  0  0  0  0  0  0  0
  193.2320  170.2420  135.6010 C   0  0  1  0  0  3  0  0  0  0  0  0
  193.4730  171.6540  135.3310 N   0  0  0  0  0  0  0  0  0  0  0  0
  194.8580  168.6280  136.4450 O   0  0  0  0  0  0  0  0  0  0  0  0
  195.5110  170.8540  136.0400 N   0  0  0  0  0  2  0  0  0  0  0  0
  194.5700  169.7980  136.0690 C   0  0  0  0  0  0  0  0  0  0  0  0
  195.2830  173.2940  135.3280 C   0  0  0  0  0  2  0  0  0  0  0  0
  194.2010  174.2550  135.1750 N   0  0  0  0  0  2  0  0  0  0  0  0
  195.7630  175.9000  136.0800 O   0  0  0  0  0  1  0  0  0  0  0  0
  193.6820  175.4990  137.3430 C   0  0  1  0  0  3  0  0  0  0  0  0
  194.4620  175.3990  136.0420 C   0  0  2  0  0  0  0  0  0  0  0  0
  193.3590  176.4220  136.1650 C   0  0  0  0  0  2  0  0  0  0  0  0
  192.5970  174.4450  137.4610 C   0  0  0  0  0  1  0  0  0  0  0  0
  192.4870  174.7210  141.2670 C   0  0  0  0  0  2  0  0  0  0  0  0
  193.8300  174.0300  141.0510 C   0  0  0  0  0  2  0  0  0  0  0  0
  194.9270  175.0230  140.8220 C   0  0  0  0  0  0  0  0  0  0  0  0
  194.6770  176.2200  140.8370 O   0  0  0  0  0  0  0  0  0  0  0  0
  196.3340  174.5510  140.6030 C   0  0  0  0  0  3  0  0  0  0  0  0
  196.5350  174.1680  139.1420 C   0  0  0  0  0  2  0  0  0  0  0  0
  197.0580  175.4950  139.6550 C   0  0  0  0  0  2  0  0  0  0  0  0
  192.8540  174.6570  144.6230 C   0  0  0  0  0  2  0  0  0  0  0  0
  193.3790  173.7890  145.7530 C   0  0  0  0  0  2  0  0  0  0  0  0
  194.8470  173.4710  145.5300 C   0  0  0  0  0  2  0  0  0  0  0  0
  195.0670  171.9670  145.5440 C   0  0  2  0  0  3  0  0  0  0  0  0
  196.5030  171.6270  145.7700 C   0  0  0  0  0  0  0  0  0  0  0  0
  196.8370  170.3710  146.2560 O   0  0  0  0  0  1  0  0  0  0  0  0
  197.4100  172.4580  145.5170 O   0  0  0  0  0  0  0  0  0  0  0  0
  194.4910  171.2700  144.3090 C   0  0  0  0  0  2  0  0  0  0  0  0
  193.7880  169.9560  144.6450 C   0  0  0  0  0  2  0  0  0  0  0  0
  192.5620  169.9000  143.9860 O   0  0  0  0  0  1  0  0  0  0  0  0
  3 20  1  6  0  0  0
  3  5  1  0  0  0  0
  4  2  1  0  0  0  0
  5 15  1  1  0  0  0
  5  9  1  0  0  0  0
  6 12  1  6  0  0  0
  6 10  1  0  0  0  0
  6  4  1  0  0  0  0
  7  9  1  0  0  0  0
  8 49  1  1  0  0  0
  8 13  1  0  0  0  0
  9  1  1  1  0  0  0
  9  8  1  0  0  0  0
 10 19  1  6  0  0  0
 10 16  1  0  0  0  0
 11 42  1  1  0  0  0
 11  3  1  0  0  0  0
 11  7  1  0  0  0  0
 13 14  1  0  0  0  0
 15 10  1  0  0  0  0
 16 14  1  6  0  0  0
 16  2  1  0  0  0  0
 18 19  1  0  0  0  0
 19 17  1  1  0  0  0
 22 21  1  0  0  0  0
 22 20  1  1  0  0  0
 23 24  1  6  0  0  0
 23 22  1  0  0  0  0
 23 21  1  0  0  0  0
 25 24  1  0  0  0  0
 27 26  1  0  0  0  0
 27 28  1  0  0  0  0
 27 25  1  1  0  0  0
 28 26  1  6  0  0  0
 29 33  1  0  0  0  0
 30 31  1  1  0  0  0
 30 34  1  0  0  0  0
 30 28  1  0  0  0  0
 31 29  2  0  0  0  0
 33 34  1  0  0  0  0
 34 32  2  0  0  0  0
 35 29  1  0  0  0  0
 36 35  1  0  0  0  0
 36 39  1  0  0  0  0
 38 41  1  6  0  0  0
 39 37  1  1  0  0  0
 39 40  1  0  0  0  0
 39 38  1  0  0  0  0
 40 38  1  0  0  0  0
 43 42  1  0  0  0  0
 44 45  2  0  0  0  0
 44 43  1  0  0  0  0
 46 44  1  0  0  0  0
 47 48  1  0  0  0  0
 47 46  1  0  0  0  0
 48 46  1  0  0  0  0
 49 50  1  0  0  0  0
 51 52  1  0  0  0  0
 51 50  1  0  0  0  0
 52 56  1  6  0  0  0
 52 53  1  0  0  0  0
 53 54  1  0  0  0  0
 55 53  2  0  0  0  0
 56 57  1  0  0  0  0
 58 57  1  0  0  0  0
M  END
>  <MODEL>
5

>  <REMARK>
 VINA RESULT:      -5.8      2.368      6.504
  Name = 
  21 active torsions:
  status: ('A' for Active; 'I' for Inactive)
    1  A    between atoms: C_2  and  C_22
    2  A    between atoms: C_2  and  C_26
    3  A    between atoms: C_2  and  C_29
    4  A    between atoms: C_3  and  C_40
    5  A    between atoms: C_7  and  C_19
    6  A    between atoms: C_9  and  C_11
    7  A    between atoms: C_9  and  C_21
    8  A    between atoms: C_10  and  C_11
    9  A    between atoms: C_12  and  C_55
   10  A    between atoms: C_16  and  C_20
   11  A    between atoms: C_16  and  C_22
   12  A    between atoms: C_19  and  C_44
   13  A    between atoms: C_20  and  C_30
   14  A    between atoms: C_21  and  C_38
   15  A    between atoms: C_26  and  C_28
   16  A    between atoms: N_27  and  C_39
   17  A    between atoms: N_27  and  C_40
   18  A    between atoms: N_31  and  C_42
   19  A    between atoms: N_31  and  C_52
   20  A    between atoms: C_34  and  C_42
   21  A    between atoms: C_37  and  C_48
                            x       y       z     vdW  Elec       q    Type
                         _______ _______ _______ _____ _____    ______ ____

>  <TORSDO>
F 21

$$$$
=
 OpenBabel11072409223D

 58 65  0  0  1  0  0  0  0  0999 V2000
  191.8450  177.4100  143.3070 C   0  0  0  0  0  1  0  0  0  0  0  0
  195.6930  175.0020  146.0210 C   0  0  0  0  0  2  0  0  0  0  0  0
  192.3090  174.3010  141.4640 C   0  0  1  0  0  3  0  0  0  0  0  0
  196.5870  173.9700  145.4380 C   0  0  0  0  0  2  0  0  0  0  0  0
  192.8680  175.3670  142.3350 C   0  0  1  0  0  3  0  0  0  0  0  0
  196.0590  173.8270  144.0200 C   0  0  2  0  0  3  0  0  0  0  0  0
  190.5490  175.6570  142.3910 O   0  0  0  0  0  0  0  0  0  0  0  0
  191.5580  175.1910  144.5520 C   0  0  1  0  0  3  0  0  0  0  0  0
  191.7040  175.9010  143.1670 C   0  0  2  0  0  0  0  0  0  0  0  0
  194.5800  174.2670  144.0740 C   0  0  2  0  0  0  0  0  0  0  0  0
  190.8230  174.5880  141.5050 C   0  0  2  0  0  3  0  0  0  0  0  0
  196.2530  172.5290  143.5470 O   0  0  0  0  0  1  0  0  0  0  0  0
  192.2190  175.8750  145.7560 C   0  0  0  0  0  2  0  0  0  0  0  0
  193.6660  176.2890  145.5400 C   0  0  0  0  0  2  0  0  0  0  0  0
  194.3110  175.1520  142.8420 C   0  0  0  0  0  2  0  0  0  0  0  0
  194.5830  175.1300  145.3070 C   0  0  2  0  0  3  0  0  0  0  0  0
  193.6080  172.4200  145.5900 C   0  0  0  0  0  1  0  0  0  0  0  0
  193.8120  172.1030  143.2370 O   0  0  0  0  0  1  0  0  0  0  0  0
  193.5930  173.0720  144.2150 C   0  0  2  0  0  3  0  0  0  0  0  0
  192.8280  174.4920  140.0400 C   0  0  0  0  0  2  0  0  0  0  0  0
  193.7160  173.0610  138.2900 O   0  0  0  0  0  0  0  0  0  0  0  0
  193.9560  173.5480  139.5880 C   0  0  1  0  0  3  0  0  0  0  0  0
  194.7230  174.0390  138.4220 C   0  0  1  0  0  3  0  0  0  0  0  0
  196.0280  173.3970  138.3940 N   0  0  0  0  0  2  0  0  0  0  0  0
  196.9600  174.3280  137.7740 C   0  0  0  0  0  2  0  0  0  0  0  0
  197.5660  175.3130  135.6960 O   0  0  0  0  0  0  0  0  0  0  0  0
  196.5390  174.6080  136.3450 C   0  0  2  0  0  3  0  0  0  0  0  0
  196.4550  176.0670  136.1200 C   0  0  2  0  0  3  0  0  0  0  0  0
  193.4670  177.0790  135.0880 C   0  0  0  0  0  0  0  0  0  0  0  0
  195.6040  176.3860  134.9020 C   0  0  1  0  0  3  0  0  0  0  0  0
  194.2140  176.0190  135.1430 N   0  0  0  0  0  0  0  0  0  0  0  0
  196.4630  178.6380  134.5130 O   0  0  0  0  0  0  0  0  0  0  0  0
  194.1540  178.2970  134.8290 N   0  0  0  0  0  2  0  0  0  0  0  0
  195.4950  177.8570  134.7290 C   0  0  0  0  0  0  0  0  0  0  0  0
  191.9850  177.0140  135.2290 C   0  0  0  0  0  2  0  0  0  0  0  0
  191.5920  175.6690  135.6220 N   0  0  0  0  0  2  0  0  0  0  0  0
  189.4870  176.5670  134.7660 O   0  0  0  0  0  1  0  0  0  0  0  0
  189.3620  174.5840  136.2290 C   0  0  1  0  0  3  0  0  0  0  0  0
  190.1770  175.4860  135.3160 C   0  0  2  0  0  0  0  0  0  0  0  0
  189.7610  174.1210  134.8250 C   0  0  0  0  0  2  0  0  0  0  0  0
  190.2150  173.8580  137.2520 C   0  0  0  0  0  1  0  0  0  0  0  0
  190.0600  173.3370  141.9210 C   0  0  0  0  0  2  0  0  0  0  0  0
  189.3320  172.7010  140.7400 C   0  0  0  0  0  2  0  0  0  0  0  0
  190.0460  171.4800  140.2490 C   0  0  0  0  0  0  0  0  0  0  0  0
  189.7650  171.0110  139.1550 O   0  0  0  0  0  0  0  0  0  0  0  0
  191.1210  170.8500  141.0840 C   0  0  0  0  0  3  0  0  0  0  0  0
  191.0890  169.3350  140.9200 C   0  0  0  0  0  2  0  0  0  0  0  0
  192.1350  170.1540  140.1890 C   0  0  0  0  0  2  0  0  0  0  0  0
  190.1010  174.8940  144.9160 C   0  0  0  0  0  2  0  0  0  0  0  0
  189.5640  175.8980  145.9200 C   0  0  0  0  0  2  0  0  0  0  0  0
  188.7580  176.9700  145.2090 C   0  0  0  0  0  2  0  0  0  0  0  0
  187.4710  176.3810  144.6550 C   0  0  2  0  0  3  0  0  0  0  0  0
  187.3300  176.6540  143.1940 C   0  0  0  0  0  0  0  0  0  0  0  0
  187.4070  177.9610  142.7350 O   0  0  0  0  0  1  0  0  0  0  0  0
  187.1520  175.7160  142.3780 O   0  0  0  0  0  0  0  0  0  0  0  0
  186.2320  176.8040  145.4490 C   0  0  0  0  0  2  0  0  0  0  0  0
  186.4490  178.0910  146.2410 C   0  0  0  0  0  2  0  0  0  0  0  0
  185.9610  179.1750  145.5150 O   0  0  0  0  0  1  0  0  0  0  0  0
  3 20  1  6  0  0  0
  3 11  1  0  0  0  0
  3  5  1  0  0  0  0
  4  2  1  0  0  0  0
  5 15  1  1  0  0  0
  5  9  1  0  0  0  0
  6 12  1  1  0  0  0
  6 10  1  0  0  0  0
  6  4  1  0  0  0  0
  7  9  1  0  0  0  0
  8 49  1  1  0  0  0
  8 13  1  0  0  0  0
  9  1  1  1  0  0  0
  9  8  1  0  0  0  0
 10 19  1  1  0  0  0
 10 16  1  0  0  0  0
 11 42  1  1  0  0  0
 11  7  1  0  0  0  0
 14 13  1  0  0  0  0
 15 10  1  0  0  0  0
 16 14  1  6  0  0  0
 16  2  1  0  0  0  0
 18 19  1  0  0  0  0
 19 17  1  1  0  0  0
 21 23  1  0  0  0  0
 21 22  1  0  0  0  0
 22 20  1  6  0  0  0
 23 24  1  1  0  0  0
 23 22  1  0  0  0  0
 25 24  1  0  0  0  0
 26 27  1  0  0  0  0
 27 25  1  1  0  0  0
 28 26  1  6  0  0  0
 28 27  1  0  0  0  0
 29 31  2  0  0  0  0
 29 35  1  0  0  0  0
 30 34  1  1  0  0  0
 30 31  1  0  0  0  0
 30 28  1  0  0  0  0
 32 34  2  0  0  0  0
 33 29  1  0  0  0  0
 34 33  1  0  0  0  0
 35 36  1  0  0  0  0
 38 41  1  1  0  0  0
 39 37  1  6  0  0  0
 39 36  1  0  0  0  0
 39 38  1  0  0  0  0
 40 39  1  0  0  0  0
 40 38  1  0  0  0  0
 43 42  1  0  0  0  0
 44 43  1  0  0  0  0
 44 46  1  0  0  0  0
 45 44  2  0  0  0  0
 47 46  1  0  0  0  0
 48 47  1  0  0  0  0
 48 46  1  0  0  0  0
 49 50  1  0  0  0  0
 51 50  1  0  0  0  0
 52 51  1  1  0  0  0
 52 56  1  0  0  0  0
 53 52  1  0  0  0  0
 54 53  1  0  0  0  0
 55 53  2  0  0  0  0
 56 57  1  0  0  0  0
 58 57  1  0  0  0  0
M  END
>  <MODEL>
6

>  <REMARK>
 VINA RESULT:      -5.8      2.999      5.352
  Name = 
  21 active torsions:
  status: ('A' for Active; 'I' for Inactive)
    1  A    between atoms: C_2  and  C_22
    2  A    between atoms: C_2  and  C_26
    3  A    between atoms: C_2  and  C_29
    4  A    between atoms: C_3  and  C_40
    5  A    between atoms: C_7  and  C_19
    6  A    between atoms: C_9  and  C_11
    7  A    between atoms: C_9  and  C_21
    8  A    between atoms: C_10  and  C_11
    9  A    between atoms: C_12  and  C_55
   10  A    between atoms: C_16  and  C_20
   11  A    between atoms: C_16  and  C_22
   12  A    between atoms: C_19  and  C_44
   13  A    between atoms: C_20  and  C_30
   14  A    between atoms: C_21  and  C_38
   15  A    between atoms: C_26  and  C_28
   16  A    between atoms: N_27  and  C_39
   17  A    between atoms: N_27  and  C_40
   18  A    between atoms: N_31  and  C_42
   19  A    between atoms: N_31  and  C_52
   20  A    between atoms: C_34  and  C_42
   21  A    between atoms: C_37  and  C_48
                            x       y       z     vdW  Elec       q    Type
                         _______ _______ _______ _____ _____    ______ ____

>  <TORSDO>
F 21

$$$$
=
 OpenBabel11072409223D

 58 65  0  0  1  0  0  0  0  0999 V2000
  191.8130  175.3040  146.8080 C   0  0  0  0  0  1  0  0  0  0  0  0
  189.7310  171.3160  144.0290 C   0  0  0  0  0  2  0  0  0  0  0  0
  192.1830  176.4400  143.3660 C   0  0  1  0  0  3  0  0  0  0  0  0
  190.0670  171.0400  142.6110 C   0  0  0  0  0  2  0  0  0  0  0  0
  192.0860  175.3220  144.3410 C   0  0  1  0  0  3  0  0  0  0  0  0
  191.0320  172.1630  142.2670 C   0  0  2  0  0  3  0  0  0  0  0  0
  191.4150  177.2360  145.5040 O   0  0  0  0  0  0  0  0  0  0  0  0
  189.7180  175.5050  145.3510 C   0  0  1  0  0  3  0  0  0  0  0  0
  191.2380  175.8340  145.5030 C   0  0  2  0  0  0  0  0  0  0  0  0
  190.6990  173.3170  143.2370 C   0  0  2  0  0  0  0  0  0  0  0  0
  191.7920  177.6400  144.2010 C   0  0  2  0  0  3  0  0  0  0  0  0
  190.9370  172.5040  140.9180 O   0  0  0  0  0  1  0  0  0  0  0  0
  189.2090  174.2370  146.0520 C   0  0  0  0  0  2  0  0  0  0  0  0
  190.0350  172.9880  145.7920 C   0  0  0  0  0  2  0  0  0  0  0  0
  192.0310  173.8980  143.7470 C   0  0  0  0  0  2  0  0  0  0  0  0
  190.0300  172.5650  144.3560 C   0  0  2  0  0  3  0  0  0  0  0  0
  188.2940  173.9390  142.5400 C   0  0  0  0  0  1  0  0  0  0  0  0
  190.1790  174.7840  141.3530 O   0  0  0  0  0  1  0  0  0  0  0  0
  189.7480  174.3800  142.6160 C   0  0  2  0  0  3  0  0  0  0  0  0
  193.6330  176.5850  142.9090 C   0  0  0  0  0  2  0  0  0  0  0  0
  195.1000  176.4580  140.9780 O   0  0  0  0  0  0  0  0  0  0  0  0
  194.0300  175.8210  141.6330 C   0  0  1  0  0  3  0  0  0  0  0  0
  195.4000  175.2640  141.6650 C   0  0  1  0  0  3  0  0  0  0  0  0
  195.5010  174.1690  140.7120 N   0  0  0  0  0  2  0  0  0  0  0  0
  196.7630  174.3240  140.0010 C   0  0  0  0  0  2  0  0  0  0  0  0
  197.6420  174.5660  137.8050 O   0  0  0  0  0  0  0  0  0  0  0  0
  196.5670  174.0210  138.5280 C   0  0  2  0  0  3  0  0  0  0  0  0
  196.4300  175.2820  137.7690 C   0  0  2  0  0  3  0  0  0  0  0  0
  193.6600  175.6900  135.9850 C   0  0  0  0  0  0  0  0  0  0  0  0
  195.7750  175.0400  136.4190 C   0  0  1  0  0  3  0  0  0  0  0  0
  194.3520  174.7700  136.5860 N   0  0  0  0  0  0  0  0  0  0  0  0
  196.7630  176.9450  135.2550 O   0  0  0  0  0  0  0  0  0  0  0  0
  194.4220  176.7050  135.3450 N   0  0  0  0  0  2  0  0  0  0  0  0
  195.7460  176.3000  135.6340 C   0  0  0  0  0  0  0  0  0  0  0  0
  192.1720  175.6500  135.9230 C   0  0  0  0  0  2  0  0  0  0  0  0
  191.7310  174.2890  135.6570 N   0  0  0  0  0  2  0  0  0  0  0  0
  191.3180  173.9930  138.0460 O   0  0  0  0  0  1  0  0  0  0  0  0
  189.9390  172.6700  136.4850 C   0  0  1  0  0  3  0  0  0  0  0  0
  190.8510  173.8600  136.7380 C   0  0  2  0  0  0  0  0  0  0  0  0
  189.3730  174.0920  136.5420 C   0  0  0  0  0  2  0  0  0  0  0  0
  189.9680  172.2040  135.0430 C   0  0  0  0  0  1  0  0  0  0  0  0
  190.6580  178.4010  143.5260 C   0  0  0  0  0  2  0  0  0  0  0  0
  190.0410  177.6000  142.3840 C   0  0  0  0  0  2  0  0  0  0  0  0
  188.6170  177.9930  142.1450 C   0  0  0  0  0  0  0  0  0  0  0  0
  188.1200  178.9010  142.7950 O   0  0  0  0  0  0  0  0  0  0  0  0
  187.8100  177.2930  141.0910 C   0  0  0  0  0  3  0  0  0  0  0  0
  186.6230  176.5810  141.7300 C   0  0  0  0  0  2  0  0  0  0  0  0
  186.4170  177.9000  141.0120 C   0  0  0  0  0  2  0  0  0  0  0  0
  188.8130  176.6690  145.7610 C   0  0  0  0  0  2  0  0  0  0  0  0
  187.3760  176.4350  145.3290 C   0  0  0  0  0  2  0  0  0  0  0  0
  186.4250  176.7920  146.4570 C   0  0  0  0  0  2  0  0  0  0  0  0
  186.0700  178.2690  146.3980 C   0  0  2  0  0  3  0  0  0  0  0  0
  186.5440  178.9940  147.6140 C   0  0  0  0  0  0  0  0  0  0  0  0
  185.8980  180.1580  148.0080 O   0  0  0  0  0  0  0  0  0  0  0  0
  187.5100  178.5590  148.2890 O   0  0  0  0  0  1  0  0  0  0  0  0
  184.5860  178.5140  146.1150 C   0  0  0  0  0  2  0  0  0  0  0  0
  184.3330  179.0430  144.7050 C   0  0  0  0  0  2  0  0  0  0  0  0
  184.3760  177.9880  143.7960 O   0  0  0  0  0  1  0  0  0  0  0  0
  3 20  1  1  0  0  0
  3 11  1  0  0  0  0
  3  5  1  0  0  0  0
  4  2  1  0  0  0  0
  5 15  1  6  0  0  0
  5  9  1  0  0  0  0
  6 12  1  6  0  0  0
  6  4  1  0  0  0  0
  6 10  1  0  0  0  0
  8  9  1  0  0  0  0
  8 49  1  1  0  0  0
  8 13  1  0  0  0  0
  9  7  1  0  0  0  0
  9  1  1  1  0  0  0
 10 19  1  6  0  0  0
 10 15  1  0  0  0  0
 10 16  1  0  0  0  0
 11 42  1  6  0  0  0
 11  7  1  0  0  0  0
 14 13  1  0  0  0  0
 16  2  1  1  0  0  0
 16 14  1  0  0  0  0
 18 19  1  0  0  0  0
 19 17  1  6  0  0  0
 21 22  1  0  0  0  0
 21 23  1  0  0  0  0
 22 23  1  0  0  0  0
 22 20  1  1  0  0  0
 23 24  1  6  0  0  0
 25 24  1  0  0  0  0
 26 27  1  0  0  0  0
 27 25  1  1  0  0  0
 28 26  1  6  0  0  0
 28 27  1  0  0  0  0
 29 31  2  0  0  0  0
 30 34  1  6  0  0  0
 30 31  1  0  0  0  0
 30 28  1  0  0  0  0
 32 34  2  0  0  0  0
 33 34  1  0  0  0  0
 33 29  1  0  0  0  0
 35 29  1  0  0  0  0
 36 35  1  0  0  0  0
 36 39  1  0  0  0  0
 38 41  1  6  0  0  0
 38 40  1  0  0  0  0
 38 39  1  0  0  0  0
 39 37  1  1  0  0  0
 40 39  1  0  0  0  0
 43 42  1  0  0  0  0
 44 43  1  0  0  0  0
 44 45  2  0  0  0  0
 46 47  1  0  0  0  0
 46 44  1  0  0  0  0
 48 46  1  0  0  0  0
 48 47  1  0  0  0  0
 50 49  1  0  0  0  0
 50 51  1  0  0  0  0
 52 56  1  1  0  0  0
 52 51  1  0  0  0  0
 52 53  1  0  0  0  0
 53 54  2  0  0  0  0
 53 55  1  0  0  0  0
 57 56  1  0  0  0  0
 58 57  1  0  0  0  0
M  END
>  <MODEL>
7

>  <REMARK>
 VINA RESULT:      -5.6      2.678      4.656
  Name = 
  21 active torsions:
  status: ('A' for Active; 'I' for Inactive)
    1  A    between atoms: C_2  and  C_22
    2  A    between atoms: C_2  and  C_26
    3  A    between atoms: C_2  and  C_29
    4  A    between atoms: C_3  and  C_40
    5  A    between atoms: C_7  and  C_19
    6  A    between atoms: C_9  and  C_11
    7  A    between atoms: C_9  and  C_21
    8  A    between atoms: C_10  and  C_11
    9  A    between atoms: C_12  and  C_55
   10  A    between atoms: C_16  and  C_20
   11  A    between atoms: C_16  and  C_22
   12  A    between atoms: C_19  and  C_44
   13  A    between atoms: C_20  and  C_30
   14  A    between atoms: C_21  and  C_38
   15  A    between atoms: C_26  and  C_28
   16  A    between atoms: N_27  and  C_39
   17  A    between atoms: N_27  and  C_40
   18  A    between atoms: N_31  and  C_42
   19  A    between atoms: N_31  and  C_52
   20  A    between atoms: C_34  and  C_42
   21  A    between atoms: C_37  and  C_48
                            x       y       z     vdW  Elec       q    Type
                         _______ _______ _______ _____ _____    ______ ____

>  <TORSDO>
F 21

$$$$
=
 OpenBabel11072409223D

 58 65  0  0  1  0  0  0  0  0999 V2000
  191.8670  175.3290  146.7300 C   0  0  0  0  0  1  0  0  0  0  0  0
  189.9320  171.1990  144.0530 C   0  0  0  0  0  2  0  0  0  0  0  0
  192.4090  176.2920  143.2570 C   0  0  1  0  0  3  0  0  0  0  0  0
  190.3400  170.8530  142.6690 C   0  0  0  0  0  2  0  0  0  0  0  0
  192.2640  175.2240  144.2810 C   0  0  1  0  0  3  0  0  0  0  0  0
  191.3200  171.9610  142.3190 C   0  0  2  0  0  3  0  0  0  0  0  0
  191.5340  177.1920  145.3120 O   0  0  0  0  0  0  0  0  0  0  0  0
  189.8480  175.4490  145.1610 C   0  0  1  0  0  3  0  0  0  0  0  0
  191.3580  175.7910  145.3720 C   0  0  2  0  0  0  0  0  0  0  0  0
  190.9370  173.1620  143.2120 C   0  0  2  0  0  0  0  0  0  0  0  0
  191.9750  177.5310  144.0110 C   0  0  2  0  0  3  0  0  0  0  0  0
  191.2920  172.2340  140.9510 O   0  0  0  0  0  1  0  0  0  0  0  0
  189.3060  174.2160  145.8980 C   0  0  0  0  0  2  0  0  0  0  0  0
  190.1450  172.9580  145.7430 C   0  0  0  0  0  2  0  0  0  0  0  0
  192.2410  173.7720  143.7580 C   0  0  0  0  0  2  0  0  0  0  0  0
  190.2130  172.4640  144.3320 C   0  0  2  0  0  3  0  0  0  0  0  0
  188.5720  173.7340  142.3540 C   0  0  0  0  0  1  0  0  0  0  0  0
  190.5170  174.5380  141.2360 O   0  0  0  0  0  1  0  0  0  0  0  0
  190.0180  174.1890  142.4900 C   0  0  2  0  0  3  0  0  0  0  0  0
  193.8800  176.4190  142.8680 C   0  0  0  0  0  2  0  0  0  0  0  0
  195.5340  176.8460  141.1410 O   0  0  0  0  0  0  0  0  0  0  0  0
  194.1860  176.5080  141.3620 C   0  0  1  0  0  3  0  0  0  0  0  0
  195.1680  175.5090  140.8860 C   0  0  1  0  0  3  0  0  0  0  0  0
  195.0080  175.3160  139.4520 N   0  0  0  0  0  2  0  0  0  0  0  0
  196.2780  174.8280  138.9330 C   0  0  0  0  0  2  0  0  0  0  0  0
  197.8080  173.0140  139.0800 O   0  0  0  0  0  0  0  0  0  0  0  0
  196.7580  173.6520  139.7620 C   0  0  2  0  0  3  0  0  0  0  0  0
  196.5460  172.3920  139.0170 C   0  0  2  0  0  3  0  0  0  0  0  0
  195.4320  171.1950  141.9060 C   0  0  0  0  0  0  0  0  0  0  0  0
  196.5600  171.1950  139.9540 C   0  0  1  0  0  3  0  0  0  0  0  0
  196.5150  171.6360  141.3430 N   0  0  0  0  0  0  0  0  0  0  0  0
  194.8590  169.8820  138.7930 O   0  0  0  0  0  0  0  0  0  0  0  0
  194.5760  170.4290  141.0670 N   0  0  0  0  0  2  0  0  0  0  0  0
  195.2820  170.4460  139.8410 C   0  0  0  0  0  0  0  0  0  0  0  0
  195.1370  171.4260  143.3480 C   0  0  0  0  0  2  0  0  0  0  0  0
  196.2360  172.1570  143.9600 N   0  0  0  0  0  2  0  0  0  0  0  0
  194.6000  172.2730  145.7690 O   0  0  0  0  0  1  0  0  0  0  0  0
  195.9580  174.2880  145.3380 C   0  0  1  0  0  3  0  0  0  0  0  0
  195.7570  172.7890  145.1840 C   0  0  2  0  0  0  0  0  0  0  0  0
  196.8070  173.2970  146.1410 C   0  0  0  0  0  2  0  0  0  0  0  0
  196.8050  174.8850  144.2300 C   0  0  0  0  0  1  0  0  0  0  0  0
  190.8760  178.2530  143.2420 C   0  0  0  0  0  2  0  0  0  0  0  0
  190.0320  177.2850  142.4200 C   0  0  0  0  0  2  0  0  0  0  0  0
  188.6750  177.8470  142.1310 C   0  0  0  0  0  0  0  0  0  0  0  0
  188.5290  179.0570  142.0260 O   0  0  0  0  0  0  0  0  0  0  0  0
  187.5040  176.9290  141.9450 C   0  0  0  0  0  3  0  0  0  0  0  0
  186.5160  177.5370  140.9560 C   0  0  0  0  0  2  0  0  0  0  0  0
  187.4540  176.4330  140.5080 C   0  0  0  0  0  2  0  0  0  0  0  0
  188.9220  176.6290  145.4660 C   0  0  0  0  0  2  0  0  0  0  0  0
  187.6360  176.1690  146.1290 C   0  0  0  0  0  2  0  0  0  0  0  0
  186.4380  176.8030  145.4450 C   0  0  0  0  0  2  0  0  0  0  0  0
  186.3880  178.2920  145.7450 C   0  0  2  0  0  3  0  0  0  0  0  0
  185.8520  178.5560  147.1130 C   0  0  0  0  0  0  0  0  0  0  0  0
  186.6910  179.0850  148.0830 O   0  0  0  0  0  1  0  0  0  0  0  0
  184.6510  178.3140  147.3920 O   0  0  0  0  0  0  0  0  0  0  0  0
  185.6540  179.0930  144.6670 C   0  0  0  0  0  2  0  0  0  0  0  0
  184.5980  178.2680  143.9340 C   0  0  0  0  0  2  0  0  0  0  0  0
  183.4500  179.0350  143.7500 O   0  0  0  0  0  1  0  0  0  0  0  0
  3 20  1  1  0  0  0
  3 11  1  0  0  0  0
  3  5  1  0  0  0  0
  4  2  1  0  0  0  0
  5 15  1  6  0  0  0
  5  9  1  0  0  0  0
  6 12  1  6  0  0  0
  6  4  1  0  0  0  0
  6 10  1  0  0  0  0
  7  9  1  0  0  0  0
  8  9  1  0  0  0  0
  8 49  1  1  0  0  0
  8 13  1  0  0  0  0
  9  1  1  1  0  0  0
 10 19  1  6  0  0  0
 10 15  1  0  0  0  0
 10 16  1  0  0  0  0
 11 42  1  6  0  0  0
 11  7  1  0  0  0  0
 14 13  1  0  0  0  0
 16  2  1  1  0  0  0
 16 14  1  0  0  0  0
 18 19  1  0  0  0  0
 19 17  1  6  0  0  0
 21 22  1  0  0  0  0
 22 20  1  1  0  0  0
 23 24  1  6  0  0  0
 23 21  1  0  0  0  0
 23 22  1  0  0  0  0
 25 24  1  0  0  0  0
 26 27  1  0  0  0  0
 27 25  1  6  0  0  0
 28 26  1  6  0  0  0
 28 27  1  0  0  0  0
 28 30  1  0  0  0  0
 29 35  1  0  0  0  0
 30 34  1  6  0  0  0
 30 31  1  0  0  0  0
 31 29  2  0  0  0  0
 32 34  2  0  0  0  0
 33 29  1  0  0  0  0
 34 33  1  0  0  0  0
 35 36  1  0  0  0  0
 36 39  1  0  0  0  0
 38 41  1  6  0  0  0
 38 40  1  0  0  0  0
 39 38  1  0  0  0  0
 39 37  1  1  0  0  0
 39 40  1  0  0  0  0
 43 42  1  0  0  0  0
 44 43  1  0  0  0  0
 45 44  2  0  0  0  0
 46 44  1  0  0  0  0
 47 46  1  0  0  0  0
 48 47  1  0  0  0  0
 48 46  1  0  0  0  0
 49 50  1  0  0  0  0
 51 52  1  0  0  0  0
 51 50  1  0  0  0  0
 52 56  1  6  0  0  0
 52 53  1  0  0  0  0
 53 55  2  0  0  0  0
 53 54  1  0  0  0  0
 57 56  1  0  0  0  0
 58 57  1  0  0  0  0
M  END
>  <MODEL>
8

>  <REMARK>
 VINA RESULT:      -5.5      2.300      5.407
  Name = 
  21 active torsions:
  status: ('A' for Active; 'I' for Inactive)
    1  A    between atoms: C_2  and  C_22
    2  A    between atoms: C_2  and  C_26
    3  A    between atoms: C_2  and  C_29
    4  A    between atoms: C_3  and  C_40
    5  A    between atoms: C_7  and  C_19
    6  A    between atoms: C_9  and  C_11
    7  A    between atoms: C_9  and  C_21
    8  A    between atoms: C_10  and  C_11
    9  A    between atoms: C_12  and  C_55
   10  A    between atoms: C_16  and  C_20
   11  A    between atoms: C_16  and  C_22
   12  A    between atoms: C_19  and  C_44
   13  A    between atoms: C_20  and  C_30
   14  A    between atoms: C_21  and  C_38
   15  A    between atoms: C_26  and  C_28
   16  A    between atoms: N_27  and  C_39
   17  A    between atoms: N_27  and  C_40
   18  A    between atoms: N_31  and  C_42
   19  A    between atoms: N_31  and  C_52
   20  A    between atoms: C_34  and  C_42
   21  A    between atoms: C_37  and  C_48
                            x       y       z     vdW  Elec       q    Type
                         _______ _______ _______ _____ _____    ______ ____

>  <TORSDO>
F 21

$$$$
=
 OpenBabel11072409223D

 58 65  0  0  1  0  0  0  0  0999 V2000
  192.2560  172.7150  143.2440 C   0  0  0  0  0  1  0  0  0  0  0  0
  194.0570  168.3390  145.6050 C   0  0  0  0  0  2  0  0  0  0  0  0
  195.8290  173.3670  143.5350 C   0  0  1  0  0  3  0  0  0  0  0  0
  195.3160  168.2870  146.3880 C   0  0  0  0  0  2  0  0  0  0  0  0
  194.6060  172.6930  144.0440 C   0  0  1  0  0  3  0  0  0  0  0  0
  195.8570  169.7010  146.2530 C   0  0  2  0  0  3  0  0  0  0  0  0
  194.0540  173.4790  141.9120 O   0  0  0  0  0  0  0  0  0  0  0  0
  193.8950  171.0690  142.1680 C   0  0  1  0  0  3  0  0  0  0  0  0
  193.7010  172.4690  142.8340 C   0  0  2  0  0  0  0  0  0  0  0  0
  195.2600  170.2580  144.9420 C   0  0  2  0  0  0  0  0  0  0  0  0
  195.3790  173.8940  142.1890 C   0  0  2  0  0  3  0  0  0  0  0  0
  197.2520  169.7060  146.2930 O   0  0  0  0  0  1  0  0  0  0  0  0
  192.9330  169.9540  142.6010 C   0  0  0  0  0  2  0  0  0  0  0  0
  192.7790  169.7910  144.1050 C   0  0  0  0  0  2  0  0  0  0  0  0
  194.8040  171.7050  145.2130 C   0  0  0  0  0  2  0  0  0  0  0  0
  194.0460  169.3820  144.7860 C   0  0  2  0  0  3  0  0  0  0  0  0
  196.2690  168.7210  143.1320 C   0  0  0  0  0  1  0  0  0  0  0  0
  197.5160  170.5370  144.0430 O   0  0  0  0  0  1  0  0  0  0  0  0
  196.2220  170.1210  143.7270 C   0  0  2  0  0  3  0  0  0  0  0  0
  196.1770  174.5380  144.4530 C   0  0  0  0  0  2  0  0  0  0  0  0
  195.1410  176.5480  145.3370 O   0  0  0  0  0  0  0  0  0  0  0  0
  195.0140  175.1490  145.2540 C   0  0  1  0  0  3  0  0  0  0  0  0
  194.1480  176.0540  144.4660 C   0  0  1  0  0  3  0  0  0  0  0  0
  192.8460  176.1600  145.1060 N   0  0  0  0  0  2  0  0  0  0  0  0
  191.9740  176.8990  144.2040 C   0  0  0  0  0  2  0  0  0  0  0  0
  190.8320  175.6010  142.5710 O   0  0  0  0  0  0  0  0  0  0  0  0
  190.7390  176.0770  143.8890 C   0  0  2  0  0  3  0  0  0  0  0  0
  189.9850  176.7050  142.7830 C   0  0  2  0  0  3  0  0  0  0  0  0
  186.8190  177.6040  142.3420 C   0  0  0  0  0  0  0  0  0  0  0  0
  188.5470  176.2140  142.7520 C   0  0  1  0  0  3  0  0  0  0  0  0
  187.6490  177.2380  143.2720 N   0  0  0  0  0  0  0  0  0  0  0  0
  188.5760  175.3290  140.4770 O   0  0  0  0  0  0  0  0  0  0  0  0
  186.9850  176.9540  141.0880 N   0  0  0  0  0  2  0  0  0  0  0  0
  188.0790  176.0970  141.3480 C   0  0  0  0  0  0  0  0  0  0  0  0
  185.7330  178.5920  142.5920 C   0  0  0  0  0  2  0  0  0  0  0  0
  184.8360  178.0820  143.6180 N   0  0  0  0  0  2  0  0  0  0  0  0
  184.9420  180.4020  144.3750 O   0  0  0  0  0  1  0  0  0  0  0  0
  185.2530  178.6400  146.0740 C   0  0  1  0  0  3  0  0  0  0  0  0
  184.7560  179.0580  144.7000 C   0  0  2  0  0  0  0  0  0  0  0  0
  183.7540  178.7780  145.7930 C   0  0  0  0  0  2  0  0  0  0  0  0
  185.6120  177.1680  146.1480 C   0  0  0  0  0  1  0  0  0  0  0  0
  196.3290  173.4210  141.0970 C   0  0  0  0  0  2  0  0  0  0  0  0
  196.0340  174.0950  139.7610 C   0  0  0  0  0  2  0  0  0  0  0  0
  197.2330  174.8210  139.2350 C   0  0  0  0  0  0  0  0  0  0  0  0
  197.7890  175.6590  139.9310 O   0  0  0  0  0  0  0  0  0  0  0  0
  197.7680  174.5010  137.8700 C   0  0  0  0  0  3  0  0  0  0  0  0
  197.9180  172.9930  137.7090 C   0  0  0  0  0  2  0  0  0  0  0  0
  196.7380  173.7080  137.0800 C   0  0  0  0  0  2  0  0  0  0  0  0
  193.8890  171.1320  140.6380 C   0  0  0  0  0  2  0  0  0  0  0  0
  192.4990  170.8920  140.0770 C   0  0  0  0  0  2  0  0  0  0  0  0
  191.9190  172.1890  139.5420 C   0  0  0  0  0  2  0  0  0  0  0  0
  190.6570  171.9110  138.7430 C   0  0  2  0  0  3  0  0  0  0  0  0
  189.4290  172.1580  139.5560 C   0  0  0  0  0  0  0  0  0  0  0  0
  188.1870  172.1360  138.9380 O   0  0  0  0  0  0  0  0  0  0  0  0
  189.5070  172.3740  140.7900 O   0  0  0  0  0  1  0  0  0  0  0  0
  190.6560  170.5240  138.0930 C   0  0  0  0  0  2  0  0  0  0  0  0
  190.6930  170.5870  136.5680 C   0  0  0  0  0  2  0  0  0  0  0  0
  190.0980  171.7700  136.1340 O   0  0  0  0  0  1  0  0  0  0  0  0
  2  4  1  0  0  0  0
  3  5  1  0  0  0  0
  3 20  1  1  0  0  0
  5 15  1  6  0  0  0
  6 12  1  6  0  0  0
  6  4  1  0  0  0  0
  7 11  1  0  0  0  0
  7  9  1  0  0  0  0
  8 49  1  6  0  0  0
  8 13  1  0  0  0  0
  8  9  1  0  0  0  0
  9  1  1  1  0  0  0
  9  5  1  0  0  0  0
 10 19  1  6  0  0  0
 10 15  1  0  0  0  0
 10  6  1  0  0  0  0
 11 42  1  6  0  0  0
 11  3  1  0  0  0  0
 13 14  1  0  0  0  0
 16 14  1  1  0  0  0
 16 10  1  0  0  0  0
 16  2  1  0  0  0  0
 19 17  1  1  0  0  0
 19 18  1  0  0  0  0
 22 20  1  6  0  0  0
 22 21  1  0  0  0  0
 23 24  1  1  0  0  0
 23 22  1  0  0  0  0
 23 21  1  0  0  0  0
 25 24  1  0  0  0  0
 26 27  1  0  0  0  0
 27 25  1  6  0  0  0
 28 26  1  6  0  0  0
 28 27  1  0  0  0  0
 29 35  1  0  0  0  0
 29 31  2  0  0  0  0
 30 34  1  6  0  0  0
 30 28  1  0  0  0  0
 30 31  1  0  0  0  0
 32 34  2  0  0  0  0
 33 34  1  0  0  0  0
 33 29  1  0  0  0  0
 35 36  1  0  0  0  0
 36 39  1  0  0  0  0
 38 41  1  6  0  0  0
 39 37  1  6  0  0  0
 39 40  1  0  0  0  0
 39 38  1  0  0  0  0
 40 38  1  0  0  0  0
 43 42  1  0  0  0  0
 44 43  1  0  0  0  0
 44 45  2  0  0  0  0
 46 44  1  0  0  0  0
 47 46  1  0  0  0  0
 48 47  1  0  0  0  0
 48 46  1  0  0  0  0
 50 49  1  0  0  0  0
 51 50  1  0  0  0  0
 52 56  1  1  0  0  0
 52 51  1  0  0  0  0
 52 53  1  0  0  0  0
 53 55  1  0  0  0  0
 54 53  2  0  0  0  0
 57 56  1  0  0  0  0
 58 57  1  0  0  0  0
M  END
>  <MODEL>
9

>  <REMARK>
 VINA RESULT:      -5.5      3.007      7.610
  Name = 
  21 active torsions:
  status: ('A' for Active; 'I' for Inactive)
    1  A    between atoms: C_2  and  C_22
    2  A    between atoms: C_2  and  C_26
    3  A    between atoms: C_2  and  C_29
    4  A    between atoms: C_3  and  C_40
    5  A    between atoms: C_7  and  C_19
    6  A    between atoms: C_9  and  C_11
    7  A    between atoms: C_9  and  C_21
    8  A    between atoms: C_10  and  C_11
    9  A    between atoms: C_12  and  C_55
   10  A    between atoms: C_16  and  C_20
   11  A    between atoms: C_16  and  C_22
   12  A    between atoms: C_19  and  C_44
   13  A    between atoms: C_20  and  C_30
   14  A    between atoms: C_21  and  C_38
   15  A    between atoms: C_26  and  C_28
   16  A    between atoms: N_27  and  C_39
   17  A    between atoms: N_27  and  C_40
   18  A    between atoms: N_31  and  C_42
   19  A    between atoms: N_31  and  C_52
   20  A    between atoms: C_34  and  C_42
   21  A    between atoms: C_37  and  C_48
                            x       y       z     vdW  Elec       q    Type
                         _______ _______ _______ _____ _____    ______ ____

>  <TORSDO>
F 21

$$$$
