=
 OpenBabel11062419503D

 46 50  0  0  1  0  0  0  0  0999 V2000
  192.2020  176.4090  143.9280 C   0  0  2  0  0  3  0  0  0  0  0  0
  192.9880  176.5020  145.1760 C   0  0  2  0  0  3  0  0  0  0  0  0
  193.6060  176.3580  143.9140 O   0  0  0  0  0  0  0  0  0  0  0  0
  193.8260  174.2670  145.6460 C   0  0  0  0  0  0  0  0  0  0  0  0
  194.7100  173.3340  145.3940 C   0  0  0  0  0  3  0  0  0  0  0  0
  192.9360  175.1900  145.8960 C   0  0  0  0  0  0  0  0  0  0  0  0
  196.0870  173.6240  145.1170 N   0  0  0  0  0  0  0  0  0  0  0  0
  196.4770  174.6270  144.3990 C   0  0  0  0  0  3  0  0  0  0  0  0
  197.8330  174.8380  144.1820 O   0  0  0  0  0  1  0  0  0  0  0  0
  192.1290  175.0720  147.1500 C   0  0  0  0  0  2  0  0  0  0  0  0
  189.6210  174.8410  146.4750 C   0  0  0  0  0  2  0  0  0  0  0  0
  188.0470  176.4400  146.9890 C   0  0  1  0  0  3  0  0  0  0  0  0
  188.4710  175.1090  147.2440 O   0  0  0  0  0  0  0  0  0  0  0  0
  190.7640  175.6630  146.9860 C   0  0  0  0  0  0  0  0  0  0  0  0
  190.5230  176.9210  147.3630 C   0  0  0  0  0  3  0  0  0  0  0  0
  189.1330  177.5040  147.2690 C   0  0  0  0  0  2  0  0  0  0  0  0
  187.5180  176.5880  145.6340 N   0  0  0  0  0  2  0  0  0  0  0  0
  184.1500  178.8600  145.3110 S   0  0  0  0  0  0  0  0  0  0  0  0
  186.5050  177.5360  145.2760 C   0  0  0  0  0  0  0  0  0  0  0  0
  185.5040  179.4060  144.1960 C   0  0  0  0  0  2  0  0  0  0  0  0
  186.6920  178.5220  144.4140 C   0  0  0  0  0  3  0  0  0  0  0  0
  185.1800  177.5130  145.8460 C   0  0  0  0  0  0  0  0  0  0  0  0
  184.7710  176.6060  146.6180 O   0  0  0  0  0  0  0  0  0  0  0  0
  191.7310  177.7920  143.5160 C   0  0  0  0  0  2  0  0  0  0  0  0
  190.2130  177.8830  143.5410 C   0  0  0  0  0  2  0  0  0  0  0  0
  188.5680  178.1280  141.7110 C   0  0  0  0  0  1  0  0  0  0  0  0
  189.6080  177.2080  142.3210 C   0  0  2  0  0  3  0  0  0  0  0  0
  188.9640  175.9030  142.7310 C   0  0  0  0  0  2  0  0  0  0  0  0
  187.9780  175.4460  141.6740 C   0  0  0  0  0  2  0  0  0  0  0  0
  188.4820  174.1630  141.0510 C   0  0  0  0  0  2  0  0  0  0  0  0
  189.8740  173.8500  141.5770 C   0  0  0  0  0  2  0  0  0  0  0  0
  190.8990  173.6370  140.4600 C   0  0  2  0  0  3  0  0  0  0  0  0
  190.2540  173.4770  139.0930 C   0  0  0  0  0  1  0  0  0  0  0  0
  192.5310  172.5750  142.0150 O   0  0  0  0  0  0  0  0  0  0  0  0
  191.9060  172.5130  140.7530 C   0  0  2  0  0  0  0  0  0  0  0  0
  193.3490  172.8500  140.8960 C   0  0  1  0  0  3  0  0  0  0  0  0
  193.5960  174.2850  140.8160 N   0  0  0  0  0  2  0  0  0  0  0  0
  195.4660  175.8360  140.6060 C   0  0  0  0  0  2  0  0  0  0  0  0
  197.2720  173.6340  140.9950 N   0  0  0  0  0  2  0  0  0  0  0  0
  196.6350  175.6360  139.7500 N   0  0  0  0  0  2  0  0  0  0  0  0
  194.9750  174.5150  141.2100 C   0  0  0  0  0  3  0  0  0  0  0  0
  197.6730  174.9790  140.5460 C   0  0  0  0  0  2  0  0  0  0  0  0
  195.8540  173.3460  140.7590 C   0  0  0  0  0  2  0  0  0  0  0  0
  191.6880  171.2120  140.2570 O   0  0  0  0  0  0  0  0  0  0  0  0
  190.6110  170.6550  140.9610 C   0  0  0  0  0  2  0  0  0  0  0  0
  191.1290  169.6260  141.9440 C   0  0  0  0  0  1  0  0  0  0  0  0
  1 24  1  6  0  0  0
  1  2  1  0  0  0  0
  2  6  1  1  0  0  0
  3  1  1  0  0  0  0
  3  2  1  0  0  0  0
  4  6  2  0  0  0  0
  5  4  2  0  0  0  0
  6 10  1  0  0  0  0
  7  5  1  0  0  0  0
  8  7  2  0  0  0  0
  9  8  1  0  0  0  0
 11 14  1  0  0  0  0
 11 13  1  0  0  0  0
 12 17  1  6  0  0  0
 12 13  1  0  0  0  0
 12 16  1  0  0  0  0
 14 10  1  0  0  0  0
 14 15  2  0  0  0  0
 16 15  1  0  0  0  0
 18 22  1  0  0  0  0
 19 17  1  0  0  0  0
 19 22  1  0  0  0  0
 20 21  1  0  0  0  0
 20 18  1  0  0  0  0
 21 19  2  0  0  0  0
 22 23  2  0  0  0  0
 24 25  1  0  0  0  0
 27 26  1  1  0  0  0
 27 28  1  0  0  0  0
 27 25  1  0  0  0  0
 29 28  1  0  0  0  0
 30 31  1  0  0  0  0
 30 29  1  0  0  0  0
 32 33  1  6  0  0  0
 32 35  1  0  0  0  0
 32 31  1  0  0  0  0
 35 44  1  6  0  0  0
 35 36  1  0  0  0  0
 35 34  1  0  0  0  0
 36 37  1  1  0  0  0
 36 34  1  0  0  0  0
 37 41  1  0  0  0  0
 38 41  1  0  0  0  0
 40 42  1  0  0  0  0
 40 38  1  0  0  0  0
 42 39  1  0  0  0  0
 43 39  1  0  0  0  0
 43 41  1  0  0  0  0
 44 45  1  0  0  0  0
 45 46  1  0  0  0  0
M  END
>  <MODEL>
1

>  <REMARK>
 VINA RESULT:      -6.1      0.000      0.000
  Name = 
  19 active torsions:
  status: ('A' for Active; 'I' for Inactive)
    1  A    between atoms: C_1  and  C_17
    2  A    between atoms: C_1  and  C_21
    3  A    between atoms: C_2  and  C_46
    4  A    between atoms: C_8  and  O_32
    5  A    between atoms: C_9  and  C_21
    6  A    between atoms: C_9  and  O_32
    7  A    between atoms: C_11  and  C_15
    8  A    between atoms: C_11  and  C_38
    9  A    between atoms: C_12  and  N_44
   10  A    between atoms: C_13  and  C_38
   11  A    between atoms: C_16  and  N_18
   12  A    between atoms: C_17  and  C_30
   13  A    between atoms: C_19  and  N_44
   14  A    between atoms: C_27  and  N_36
   15  A    between atoms: C_29  and  C_33
   16  A    between atoms: C_29  and  C_45
   17  A    between atoms: C_30  and  C_33
   18  A    between atoms: C_35  and  N_36
   19  A    between atoms: C_45  and  C_46
                            x       y       z     vdW  Elec       q    Type
                         _______ _______ _______ _____ _____    ______ ____

>  <TORSDO>
F 19

$$$$
=
 OpenBabel11062419503D

 46 50  0  0  1  0  0  0  0  0999 V2000
  191.7780  176.1000  143.1210 C   0  0  2  0  0  3  0  0  0  0  0  0
  192.6140  176.4740  144.2810 C   0  0  2  0  0  3  0  0  0  0  0  0
  193.1170  176.4950  142.9620 O   0  0  0  0  0  0  0  0  0  0  0  0
  194.1410  174.6140  144.6330 C   0  0  0  0  0  0  0  0  0  0  0  0
  195.2280  173.9810  144.2650 C   0  0  0  0  0  3  0  0  0  0  0  0
  193.0530  175.2350  144.9990 C   0  0  0  0  0  0  0  0  0  0  0  0
  196.4060  174.6600  143.8110 N   0  0  0  0  0  0  0  0  0  0  0  0
  196.4490  175.9290  143.5600 C   0  0  0  0  0  3  0  0  0  0  0  0
  197.6330  176.5100  143.1250 O   0  0  0  0  0  1  0  0  0  0  0  0
  192.4830  174.9280  146.3480 C   0  0  0  0  0  2  0  0  0  0  0  0
  189.9010  174.6900  146.0780 C   0  0  0  0  0  2  0  0  0  0  0  0
  188.4130  176.1360  147.0740 C   0  0  1  0  0  3  0  0  0  0  0  0
  188.8960  174.8010  147.0600 O   0  0  0  0  0  0  0  0  0  0  0  0
  191.1010  175.4800  146.5030 C   0  0  0  0  0  0  0  0  0  0  0  0
  190.9070  176.6620  147.0920 C   0  0  0  0  0  3  0  0  0  0  0  0
  189.5130  177.1940  147.3170 C   0  0  0  0  0  2  0  0  0  0  0  0
  187.6550  176.4490  145.8630 N   0  0  0  0  0  2  0  0  0  0  0  0
  184.4880  178.8700  145.0200 S   0  0  0  0  0  0  0  0  0  0  0  0
  186.4310  177.1920  145.8620 C   0  0  0  0  0  0  0  0  0  0  0  0
  184.2770  177.9130  146.5740 C   0  0  0  0  0  2  0  0  0  0  0  0
  185.4800  177.0470  146.7710 C   0  0  0  0  0  3  0  0  0  0  0  0
  186.1100  178.1660  144.8470 C   0  0  0  0  0  0  0  0  0  0  0  0
  186.9150  178.5180  143.9420 O   0  0  0  0  0  0  0  0  0  0  0  0
  190.8550  177.2500  142.7640 C   0  0  0  0  0  2  0  0  0  0  0  0
  189.4020  176.8870  143.0280 C   0  0  0  0  0  2  0  0  0  0  0  0
  187.7990  176.4790  141.1890 C   0  0  0  0  0  1  0  0  0  0  0  0
  188.9070  175.8610  142.0210 C   0  0  2  0  0  3  0  0  0  0  0  0
  188.3840  174.6460  142.7520 C   0  0  0  0  0  2  0  0  0  0  0  0
  187.6750  173.7140  141.7870 C   0  0  0  0  0  2  0  0  0  0  0  0
  188.7000  172.8290  141.1130 C   0  0  0  0  0  2  0  0  0  0  0  0
  189.4970  172.0740  142.1650 C   0  0  0  0  0  2  0  0  0  0  0  0
  190.9900  171.9920  141.8350 C   0  0  2  0  0  3  0  0  0  0  0  0
  191.4520  173.1090  140.9140 C   0  0  0  0  0  1  0  0  0  0  0  0
  190.8470  169.5090  141.9820 O   0  0  0  0  0  0  0  0  0  0  0  0
  191.4340  170.6100  141.3280 C   0  0  2  0  0  0  0  0  0  0  0  0
  192.2220  169.7250  142.2280 C   0  0  1  0  0  3  0  0  0  0  0  0
  192.3930  170.2950  143.5600 N   0  0  0  0  0  2  0  0  0  0  0  0
  193.4880  168.3420  144.5270 C   0  0  0  0  0  2  0  0  0  0  0  0
  195.2860  170.1010  145.9170 N   0  0  0  0  0  2  0  0  0  0  0  0
  193.7980  168.1660  145.9450 N   0  0  0  0  0  2  0  0  0  0  0  0
  193.6530  169.8020  144.0900 C   0  0  0  0  0  3  0  0  0  0  0  0
  195.1570  168.6560  146.1780 C   0  0  0  0  0  2  0  0  0  0  0  0
  194.1090  170.6770  145.2600 C   0  0  0  0  0  2  0  0  0  0  0  0
  191.7240  170.4110  139.9630 O   0  0  0  0  0  0  0  0  0  0  0  0
  190.6440  169.7270  139.3870 C   0  0  0  0  0  2  0  0  0  0  0  0
  189.9360  170.6380  138.4060 C   0  0  0  0  0  1  0  0  0  0  0  0
  1 24  1  6  0  0  0
  1  2  1  0  0  0  0
  2  6  1  1  0  0  0
  3  1  1  0  0  0  0
  3  2  1  0  0  0  0
  4  6  2  0  0  0  0
  5  4  2  0  0  0  0
  6 10  1  0  0  0  0
  7  5  1  0  0  0  0
  8  7  2  0  0  0  0
  9  8  1  0  0  0  0
 10 14  1  0  0  0  0
 11 14  1  0  0  0  0
 11 13  1  0  0  0  0
 12 17  1  6  0  0  0
 12 16  1  0  0  0  0
 13 12  1  0  0  0  0
 14 15  2  0  0  0  0
 15 16  1  0  0  0  0
 18 20  1  0  0  0  0
 19 17  1  0  0  0  0
 19 21  2  0  0  0  0
 20 21  1  0  0  0  0
 22 18  1  0  0  0  0
 22 19  1  0  0  0  0
 23 22  2  0  0  0  0
 24 25  1  0  0  0  0
 27 26  1  1  0  0  0
 27 28  1  0  0  0  0
 27 25  1  0  0  0  0
 29 28  1  0  0  0  0
 30 29  1  0  0  0  0
 30 31  1  0  0  0  0
 32 33  1  6  0  0  0
 32 31  1  0  0  0  0
 34 36  1  0  0  0  0
 35 44  1  6  0  0  0
 35 32  1  0  0  0  0
 35 34  1  0  0  0  0
 35 36  1  0  0  0  0
 36 37  1  1  0  0  0
 37 41  1  0  0  0  0
 38 40  1  0  0  0  0
 39 42  1  0  0  0  0
 40 42  1  0  0  0  0
 41 38  1  0  0  0  0
 41 43  1  0  0  0  0
 43 39  1  0  0  0  0
 45 44  1  0  0  0  0
 46 45  1  0  0  0  0
M  END
>  <MODEL>
2

>  <REMARK>
 VINA RESULT:      -6.0      2.095      3.354
  Name = 
  19 active torsions:
  status: ('A' for Active; 'I' for Inactive)
    1  A    between atoms: C_1  and  C_17
    2  A    between atoms: C_1  and  C_21
    3  A    between atoms: C_2  and  C_46
    4  A    between atoms: C_8  and  O_32
    5  A    between atoms: C_9  and  C_21
    6  A    between atoms: C_9  and  O_32
    7  A    between atoms: C_11  and  C_15
    8  A    between atoms: C_11  and  C_38
    9  A    between atoms: C_12  and  N_44
   10  A    between atoms: C_13  and  C_38
   11  A    between atoms: C_16  and  N_18
   12  A    between atoms: C_17  and  C_30
   13  A    between atoms: C_19  and  N_44
   14  A    between atoms: C_27  and  N_36
   15  A    between atoms: C_29  and  C_33
   16  A    between atoms: C_29  and  C_45
   17  A    between atoms: C_30  and  C_33
   18  A    between atoms: C_35  and  N_36
   19  A    between atoms: C_45  and  C_46
                            x       y       z     vdW  Elec       q    Type
                         _______ _______ _______ _____ _____    ______ ____

>  <TORSDO>
F 19

$$$$
=
 OpenBabel11062419503D

 46 50  0  0  1  0  0  0  0  0999 V2000
  188.5630  172.9560  140.0000 C   0  0  2  0  0  3  0  0  0  0  0  0
  189.4180  173.9240  139.2800 C   0  0  2  0  0  3  0  0  0  0  0  0
  188.0190  173.8860  139.0980 O   0  0  0  0  0  0  0  0  0  0  0  0
  189.8040  173.4940  136.9180 C   0  0  0  0  0  0  0  0  0  0  0  0
  189.4860  173.7500  135.6730 C   0  0  0  0  0  3  0  0  0  0  0  0
  190.1210  173.2280  138.1560 C   0  0  0  0  0  0  0  0  0  0  0  0
  189.1300  175.0620  135.2170 N   0  0  0  0  0  0  0  0  0  0  0  0
  188.1370  175.7410  135.6940 C   0  0  0  0  0  3  0  0  0  0  0  0
  187.8610  177.0080  135.1980 O   0  0  0  0  0  1  0  0  0  0  0  0
  191.4210  172.5340  138.4200 C   0  0  0  0  0  2  0  0  0  0  0  0
  192.6520  173.4670  140.5200 C   0  0  0  0  0  2  0  0  0  0  0  0
  194.5260  174.7950  140.3690 C   0  0  1  0  0  3  0  0  0  0  0  0
  194.0370  173.5270  140.7780 O   0  0  0  0  0  0  0  0  0  0  0  0
  192.4220  173.4570  139.0400 C   0  0  0  0  0  0  0  0  0  0  0  0
  193.1850  174.2400  138.2740 C   0  0  0  0  0  3  0  0  0  0  0  0
  194.2480  175.1210  138.8840 C   0  0  0  0  0  2  0  0  0  0  0  0
  194.0340  175.8680  141.2330 N   0  0  0  0  0  2  0  0  0  0  0  0
  195.3300  176.2150  145.0810 S   0  0  0  0  0  0  0  0  0  0  0  0
  194.1860  175.8730  142.6580 C   0  0  0  0  0  0  0  0  0  0  0  0
  193.5740  175.6920  144.9510 C   0  0  0  0  0  2  0  0  0  0  0  0
  193.2000  175.6190  143.5040 C   0  0  0  0  0  3  0  0  0  0  0  0
  195.4370  176.1770  143.3080 C   0  0  0  0  0  0  0  0  0  0  0  0
  196.5180  176.3590  142.6850 O   0  0  0  0  0  0  0  0  0  0  0  0
  188.3430  173.4300  141.4250 C   0  0  0  0  0  2  0  0  0  0  0  0
  188.4980  172.2830  142.4120 C   0  0  0  0  0  2  0  0  0  0  0  0
  190.5550  170.9110  142.3390 C   0  0  0  0  0  1  0  0  0  0  0  0
  189.9340  172.1760  142.9000 C   0  0  2  0  0  3  0  0  0  0  0  0
  189.9540  172.1340  144.4100 C   0  0  0  0  0  2  0  0  0  0  0  0
  190.8720  173.2110  144.9570 C   0  0  0  0  0  2  0  0  0  0  0  0
  190.0380  174.2580  145.6610 C   0  0  0  0  0  2  0  0  0  0  0  0
  189.3260  175.1250  144.6330 C   0  0  0  0  0  2  0  0  0  0  0  0
  189.3620  176.6150  144.9820 C   0  0  2  0  0  3  0  0  0  0  0  0
  190.3580  176.9360  146.0850 C   0  0  0  0  0  1  0  0  0  0  0  0
  186.9030  176.6130  144.5820 O   0  0  0  0  0  0  0  0  0  0  0  0
  187.9770  177.2150  145.2690 C   0  0  2  0  0  0  0  0  0  0  0  0
  187.2520  177.9230  144.1800 C   0  0  1  0  0  3  0  0  0  0  0  0
  187.9650  177.8660  142.9090 N   0  0  0  0  0  2  0  0  0  0  0  0
  185.7180  178.7250  142.5090 C   0  0  0  0  0  2  0  0  0  0  0  0
  185.8710  177.7300  139.8160 N   0  0  0  0  0  2  0  0  0  0  0  0
  184.6230  177.9700  141.9020 N   0  0  0  0  0  2  0  0  0  0  0  0
  187.0690  178.3660  141.8800 C   0  0  0  0  0  3  0  0  0  0  0  0
  184.6400  178.2240  140.4600 C   0  0  0  0  0  2  0  0  0  0  0  0
  186.8990  177.3190  140.7760 C   0  0  0  0  0  2  0  0  0  0  0  0
  187.6640  177.7070  146.5530 O   0  0  0  0  0  0  0  0  0  0  0  0
  186.9220  176.7250  147.2240 C   0  0  0  0  0  2  0  0  0  0  0  0
  185.4760  177.1660  147.3220 C   0  0  0  0  0  1  0  0  0  0  0  0
  1 24  1  1  0  0  0
  2  6  1  6  0  0  0
  2  1  1  0  0  0  0
  3  2  1  0  0  0  0
  3  1  1  0  0  0  0
  4  6  2  0  0  0  0
  5  4  2  0  0  0  0
  6 10  1  0  0  0  0
  7  5  1  0  0  0  0
  7  8  2  0  0  0  0
  9  8  1  0  0  0  0
 10 14  1  0  0  0  0
 11 13  1  0  0  0  0
 12 13  1  0  0  0  0
 12 17  1  1  0  0  0
 14 11  1  0  0  0  0
 15 16  1  0  0  0  0
 15 14  2  0  0  0  0
 16 12  1  0  0  0  0
 17 19  1  0  0  0  0
 19 22  1  0  0  0  0
 19 21  2  0  0  0  0
 20 18  1  0  0  0  0
 21 20  1  0  0  0  0
 22 18  1  0  0  0  0
 23 22  2  0  0  0  0
 24 25  1  0  0  0  0
 25 27  1  0  0  0  0
 27 26  1  6  0  0  0
 27 28  1  0  0  0  0
 28 29  1  0  0  0  0
 29 30  1  0  0  0  0
 31 32  1  0  0  0  0
 31 30  1  0  0  0  0
 32 35  1  0  0  0  0
 32 33  1  1  0  0  0
 34 35  1  0  0  0  0
 35 44  1  1  0  0  0
 36 37  1  6  0  0  0
 36 34  1  0  0  0  0
 36 35  1  0  0  0  0
 39 42  1  0  0  0  0
 39 43  1  0  0  0  0
 40 38  1  0  0  0  0
 41 38  1  0  0  0  0
 41 37  1  0  0  0  0
 42 40  1  0  0  0  0
 43 41  1  0  0  0  0
 44 45  1  0  0  0  0
 45 46  1  0  0  0  0
M  END
>  <MODEL>
3

>  <REMARK>
 VINA RESULT:      -5.9      3.403      9.056
  Name = 
  19 active torsions:
  status: ('A' for Active; 'I' for Inactive)
    1  A    between atoms: C_1  and  C_17
    2  A    between atoms: C_1  and  C_21
    3  A    between atoms: C_2  and  C_46
    4  A    between atoms: C_8  and  O_32
    5  A    between atoms: C_9  and  C_21
    6  A    between atoms: C_9  and  O_32
    7  A    between atoms: C_11  and  C_15
    8  A    between atoms: C_11  and  C_38
    9  A    between atoms: C_12  and  N_44
   10  A    between atoms: C_13  and  C_38
   11  A    between atoms: C_16  and  N_18
   12  A    between atoms: C_17  and  C_30
   13  A    between atoms: C_19  and  N_44
   14  A    between atoms: C_27  and  N_36
   15  A    between atoms: C_29  and  C_33
   16  A    between atoms: C_29  and  C_45
   17  A    between atoms: C_30  and  C_33
   18  A    between atoms: C_35  and  N_36
   19  A    between atoms: C_45  and  C_46
                            x       y       z     vdW  Elec       q    Type
                         _______ _______ _______ _____ _____    ______ ____

>  <TORSDO>
F 19

$$$$
=
 OpenBabel11062419503D

 46 50  0  0  1  0  0  0  0  0999 V2000
  192.0380  176.3900  143.7660 C   0  0  2  0  0  3  0  0  0  0  0  0
  192.9680  176.4740  144.9120 C   0  0  2  0  0  3  0  0  0  0  0  0
  193.4270  176.2620  143.5940 O   0  0  0  0  0  0  0  0  0  0  0  0
  193.7690  174.2270  145.3890 C   0  0  0  0  0  0  0  0  0  0  0  0
  194.6010  173.2570  145.0990 C   0  0  0  0  0  3  0  0  0  0  0  0
  192.9320  175.1860  145.6770 C   0  0  0  0  0  0  0  0  0  0  0  0
  195.9600  173.4910  144.7050 N   0  0  0  0  0  0  0  0  0  0  0  0
  196.4440  174.6670  144.4660 C   0  0  0  0  0  3  0  0  0  0  0  0
  197.7740  174.8070  144.0920 O   0  0  0  0  0  1  0  0  0  0  0  0
  192.2240  175.1350  146.9940 C   0  0  0  0  0  2  0  0  0  0  0  0
  189.6850  174.7390  146.5480 C   0  0  0  0  0  2  0  0  0  0  0  0
  188.0810  176.3130  147.0440 C   0  0  1  0  0  3  0  0  0  0  0  0
  188.5870  175.0300  147.3820 O   0  0  0  0  0  0  0  0  0  0  0  0
  190.8240  175.6510  146.8890 C   0  0  0  0  0  0  0  0  0  0  0  0
  190.5510  176.9280  147.1700 C   0  0  0  0  0  3  0  0  0  0  0  0
  189.1320  177.4420  147.1370 C   0  0  0  0  0  2  0  0  0  0  0  0
  187.4420  176.3120  145.7280 N   0  0  0  0  0  2  0  0  0  0  0  0
  184.1500  178.7140  145.7520 S   0  0  0  0  0  0  0  0  0  0  0  0
  186.2760  177.0810  145.4110 C   0  0  0  0  0  0  0  0  0  0  0  0
  184.6060  178.1240  144.0730 C   0  0  0  0  0  2  0  0  0  0  0  0
  185.8340  177.2750  144.1790 C   0  0  0  0  0  3  0  0  0  0  0  0
  185.4790  177.7400  146.4180 C   0  0  0  0  0  0  0  0  0  0  0  0
  185.6770  177.6100  147.6550 O   0  0  0  0  0  0  0  0  0  0  0  0
  191.5960  177.7850  143.3650 C   0  0  0  0  0  2  0  0  0  0  0  0
  190.0840  177.9270  143.4580 C   0  0  0  0  0  2  0  0  0  0  0  0
  188.3110  178.2840  141.7720 C   0  0  0  0  0  1  0  0  0  0  0  0
  189.4070  177.3410  142.2300 C   0  0  2  0  0  3  0  0  0  0  0  0
  188.8150  175.9930  142.5730 C   0  0  0  0  0  2  0  0  0  0  0  0
  188.0750  175.4210  141.3780 C   0  0  0  0  0  2  0  0  0  0  0  0
  188.8730  174.2690  140.8100 C   0  0  0  0  0  2  0  0  0  0  0  0
  190.2740  174.2720  141.4040 C   0  0  0  0  0  2  0  0  0  0  0  0
  190.7040  172.8970  141.9210 C   0  0  2  0  0  3  0  0  0  0  0  0
  190.8470  172.8560  143.4340 C   0  0  0  0  0  1  0  0  0  0  0  0
  192.0200  172.5840  139.8290 O   0  0  0  0  0  0  0  0  0  0  0  0
  191.9470  172.3330  141.2140 C   0  0  2  0  0  0  0  0  0  0  0  0
  191.7810  171.2450  140.2120 C   0  0  1  0  0  3  0  0  0  0  0  0
  190.3800  170.9150  139.9750 N   0  0  0  0  0  2  0  0  0  0  0  0
  191.6620  169.5910  138.3780 C   0  0  0  0  0  2  0  0  0  0  0  0
  189.9490  170.5550  136.2800 N   0  0  0  0  0  2  0  0  0  0  0  0
  192.1970  170.0860  137.1110 N   0  0  0  0  0  2  0  0  0  0  0  0
  190.3020  170.2210  138.7010 C   0  0  0  0  0  3  0  0  0  0  0  0
  191.2080  169.8200  136.0640 C   0  0  0  0  0  2  0  0  0  0  0  0
  189.8710  171.1900  137.5990 C   0  0  0  0  0  2  0  0  0  0  0  0
  193.1880  172.2880  141.8800 O   0  0  0  0  0  0  0  0  0  0  0  0
  193.9220  173.4230  141.5070 C   0  0  0  0  0  2  0  0  0  0  0  0
  195.3360  173.0150  141.1490 C   0  0  0  0  0  1  0  0  0  0  0  0
  1 24  1  6  0  0  0
  1  2  1  0  0  0  0
  2  6  1  1  0  0  0
  3  1  1  0  0  0  0
  3  2  1  0  0  0  0
  4  6  2  0  0  0  0
  5  4  2  0  0  0  0
  6 10  1  0  0  0  0
  7  5  1  0  0  0  0
  8  7  2  0  0  0  0
  9  8  1  0  0  0  0
 11 14  1  0  0  0  0
 11 13  1  0  0  0  0
 12 17  1  6  0  0  0
 12 16  1  0  0  0  0
 12 13  1  0  0  0  0
 14 10  1  0  0  0  0
 14 15  2  0  0  0  0
 16 15  1  0  0  0  0
 18 22  1  0  0  0  0
 19 17  1  0  0  0  0
 19 22  1  0  0  0  0
 20 21  1  0  0  0  0
 20 18  1  0  0  0  0
 21 19  2  0  0  0  0
 22 23  2  0  0  0  0
 24 25  1  0  0  0  0
 27 26  1  1  0  0  0
 27 28  1  0  0  0  0
 27 25  1  0  0  0  0
 29 28  1  0  0  0  0
 30 29  1  0  0  0  0
 30 31  1  0  0  0  0
 31 32  1  0  0  0  0
 32 33  1  1  0  0  0
 34 36  1  0  0  0  0
 34 35  1  0  0  0  0
 35 44  1  1  0  0  0
 35 32  1  0  0  0  0
 36 37  1  6  0  0  0
 36 35  1  0  0  0  0
 38 41  1  0  0  0  0
 39 43  1  0  0  0  0
 40 38  1  0  0  0  0
 41 37  1  0  0  0  0
 42 39  1  0  0  0  0
 42 40  1  0  0  0  0
 43 41  1  0  0  0  0
 45 44  1  0  0  0  0
 46 45  1  0  0  0  0
M  END
>  <MODEL>
4

>  <REMARK>
 VINA RESULT:      -5.8      1.936      3.322
  Name = 
  19 active torsions:
  status: ('A' for Active; 'I' for Inactive)
    1  A    between atoms: C_1  and  C_17
    2  A    between atoms: C_1  and  C_21
    3  A    between atoms: C_2  and  C_46
    4  A    between atoms: C_8  and  O_32
    5  A    between atoms: C_9  and  C_21
    6  A    between atoms: C_9  and  O_32
    7  A    between atoms: C_11  and  C_15
    8  A    between atoms: C_11  and  C_38
    9  A    between atoms: C_12  and  N_44
   10  A    between atoms: C_13  and  C_38
   11  A    between atoms: C_16  and  N_18
   12  A    between atoms: C_17  and  C_30
   13  A    between atoms: C_19  and  N_44
   14  A    between atoms: C_27  and  N_36
   15  A    between atoms: C_29  and  C_33
   16  A    between atoms: C_29  and  C_45
   17  A    between atoms: C_30  and  C_33
   18  A    between atoms: C_35  and  N_36
   19  A    between atoms: C_45  and  C_46
                            x       y       z     vdW  Elec       q    Type
                         _______ _______ _______ _____ _____    ______ ____

>  <TORSDO>
F 19

$$$$
=
 OpenBabel11062419503D

 46 50  0  0  1  0  0  0  0  0999 V2000
  192.1780  174.1840  140.3640 C   0  0  2  0  0  3  0  0  0  0  0  0
  191.6160  173.2390  141.3520 C   0  0  2  0  0  3  0  0  0  0  0  0
  192.1900  172.7970  140.1400 O   0  0  0  0  0  0  0  0  0  0  0  0
  189.5260  172.8270  140.1780 C   0  0  0  0  0  0  0  0  0  0  0  0
  188.9220  172.4080  139.0940 C   0  0  0  0  0  3  0  0  0  0  0  0
  190.1210  173.2530  141.2590 C   0  0  0  0  0  0  0  0  0  0  0  0
  189.3950  171.2960  138.3210 N   0  0  0  0  0  0  0  0  0  0  0  0
  189.7550  171.3870  137.0820 C   0  0  0  0  0  3  0  0  0  0  0  0
  190.2040  170.2600  136.4060 O   0  0  0  0  0  1  0  0  0  0  0  0
  189.3090  173.3820  142.5100 C   0  0  0  0  0  2  0  0  0  0  0  0
  189.4670  175.9500  142.9320 C   0  0  0  0  0  2  0  0  0  0  0  0
  187.7410  177.3940  142.4450 C   0  0  1  0  0  3  0  0  0  0  0  0
  189.0620  177.0090  142.0940 O   0  0  0  0  0  0  0  0  0  0  0  0
  188.6630  174.7280  142.6110 C   0  0  0  0  0  0  0  0  0  0  0  0
  187.3630  174.8750  142.3460 C   0  0  0  0  0  3  0  0  0  0  0  0
  186.7170  176.2390  142.3750 C   0  0  0  0  0  2  0  0  0  0  0  0
  187.6980  178.0420  143.7560 N   0  0  0  0  0  2  0  0  0  0  0  0
  184.6670  177.9420  146.4780 S   0  0  0  0  0  0  0  0  0  0  0  0
  186.4940  178.2310  144.5090 C   0  0  0  0  0  0  0  0  0  0  0  0
  184.4110  179.1870  145.1520 C   0  0  0  0  0  2  0  0  0  0  0  0
  185.5870  179.1530  144.2280 C   0  0  0  0  0  3  0  0  0  0  0  0
  186.1650  177.4360  145.6670 C   0  0  0  0  0  0  0  0  0  0  0  0
  186.8500  176.4490  146.0500 O   0  0  0  0  0  0  0  0  0  0  0  0
  193.5500  174.6440  140.8220 C   0  0  0  0  0  2  0  0  0  0  0  0
  194.4550  174.9300  139.6330 C   0  0  0  0  0  2  0  0  0  0  0  0
  196.5530  173.7890  140.2740 C   0  0  0  0  0  1  0  0  0  0  0  0
  195.8920  175.1400  140.0820 C   0  0  2  0  0  3  0  0  0  0  0  0
  195.9090  175.9110  141.3820 C   0  0  0  0  0  2  0  0  0  0  0  0
  197.2660  175.7910  142.0490 C   0  0  0  0  0  2  0  0  0  0  0  0
  197.0740  175.7260  143.5480 C   0  0  0  0  0  2  0  0  0  0  0  0
  197.0640  174.2740  144.0010 C   0  0  0  0  0  2  0  0  0  0  0  0
  196.1820  174.0400  145.2300 C   0  0  2  0  0  3  0  0  0  0  0  0
  196.9850  173.7030  146.4760 C   0  0  0  0  0  1  0  0  0  0  0  0
  194.4430  173.0910  143.7190 O   0  0  0  0  0  0  0  0  0  0  0  0
  195.0460  173.0320  144.9910 C   0  0  2  0  0  0  0  0  0  0  0  0
  193.6570  173.5330  144.8080 C   0  0  1  0  0  3  0  0  0  0  0  0
  193.5880  174.9900  144.7970 N   0  0  0  0  0  2  0  0  0  0  0  0
  192.4470  176.0770  146.6590 C   0  0  0  0  0  2  0  0  0  0  0  0
  190.1280  174.4690  146.1110 N   0  0  0  0  0  2  0  0  0  0  0  0
  191.7190  175.3840  147.7210 N   0  0  0  0  0  2  0  0  0  0  0  0
  192.2810  175.3700  145.3080 C   0  0  0  0  0  3  0  0  0  0  0  0
  190.3140  175.2880  147.3220 C   0  0  0  0  0  2  0  0  0  0  0  0
  191.3870  174.1360  145.4400 C   0  0  0  0  0  2  0  0  0  0  0  0
  195.1000  171.7470  145.5690 O   0  0  0  0  0  0  0  0  0  0  0  0
  195.6420  170.8690  144.6200 C   0  0  0  0  0  2  0  0  0  0  0  0
  196.9650  170.3320  145.1270 C   0  0  0  0  0  1  0  0  0  0  0  0
  1 24  1  1  0  0  0
  1  2  1  0  0  0  0
  2  6  1  6  0  0  0
  3  1  1  0  0  0  0
  3  2  1  0  0  0  0
  4  6  2  0  0  0  0
  5  4  2  0  0  0  0
  6 10  1  0  0  0  0
  7  5  1  0  0  0  0
  8  7  2  0  0  0  0
  9  8  1  0  0  0  0
 10 14  1  0  0  0  0
 12 17  1  1  0  0  0
 13 12  1  0  0  0  0
 13 11  1  0  0  0  0
 14 11  1  0  0  0  0
 15 16  1  0  0  0  0
 15 14  2  0  0  0  0
 16 12  1  0  0  0  0
 17 19  1  0  0  0  0
 19 22  1  0  0  0  0
 20 18  1  0  0  0  0
 21 19  2  0  0  0  0
 21 20  1  0  0  0  0
 22 23  2  0  0  0  0
 22 18  1  0  0  0  0
 25 27  1  0  0  0  0
 25 24  1  0  0  0  0
 27 26  1  1  0  0  0
 27 28  1  0  0  0  0
 28 29  1  0  0  0  0
 29 30  1  0  0  0  0
 30 31  1  0  0  0  0
 31 32  1  0  0  0  0
 32 33  1  1  0  0  0
 34 36  1  0  0  0  0
 34 35  1  0  0  0  0
 35 32  1  0  0  0  0
 35 44  1  1  0  0  0
 36 37  1  6  0  0  0
 36 35  1  0  0  0  0
 37 41  1  0  0  0  0
 38 40  1  0  0  0  0
 39 42  1  0  0  0  0
 41 43  1  0  0  0  0
 41 38  1  0  0  0  0
 42 40  1  0  0  0  0
 43 39  1  0  0  0  0
 45 46  1  0  0  0  0
 45 44  1  0  0  0  0
M  END
>  <MODEL>
5

>  <REMARK>
 VINA RESULT:      -5.7      2.275      6.564
  Name = 
  19 active torsions:
  status: ('A' for Active; 'I' for Inactive)
    1  A    between atoms: C_1  and  C_17
    2  A    between atoms: C_1  and  C_21
    3  A    between atoms: C_2  and  C_46
    4  A    between atoms: C_8  and  O_32
    5  A    between atoms: C_9  and  C_21
    6  A    between atoms: C_9  and  O_32
    7  A    between atoms: C_11  and  C_15
    8  A    between atoms: C_11  and  C_38
    9  A    between atoms: C_12  and  N_44
   10  A    between atoms: C_13  and  C_38
   11  A    between atoms: C_16  and  N_18
   12  A    between atoms: C_17  and  C_30
   13  A    between atoms: C_19  and  N_44
   14  A    between atoms: C_27  and  N_36
   15  A    between atoms: C_29  and  C_33
   16  A    between atoms: C_29  and  C_45
   17  A    between atoms: C_30  and  C_33
   18  A    between atoms: C_35  and  N_36
   19  A    between atoms: C_45  and  C_46
                            x       y       z     vdW  Elec       q    Type
                         _______ _______ _______ _____ _____    ______ ____

>  <TORSDO>
F 19

$$$$
=
 OpenBabel11062419503D

 46 50  0  0  1  0  0  0  0  0999 V2000
  191.7380  175.7390  146.4160 C   0  0  2  0  0  3  0  0  0  0  0  0
  190.7930  176.4840  147.2760 C   0  0  2  0  0  3  0  0  0  0  0  0
  190.9620  175.0870  147.3910 O   0  0  0  0  0  0  0  0  0  0  0  0
  189.6550  177.2540  145.2690 C   0  0  0  0  0  0  0  0  0  0  0  0
  189.7440  177.7090  144.0440 C   0  0  0  0  0  3  0  0  0  0  0  0
  189.5580  176.8080  146.4930 C   0  0  0  0  0  0  0  0  0  0  0  0
  190.7400  177.2560  143.1170 N   0  0  0  0  0  0  0  0  0  0  0  0
  192.0100  177.2820  143.3630 C   0  0  0  0  0  3  0  0  0  0  0  0
  192.9090  176.8200  142.4100 O   0  0  0  0  0  1  0  0  0  0  0  0
  188.2380  176.2700  146.9470 C   0  0  0  0  0  2  0  0  0  0  0  0
  186.3650  176.9190  145.2540 C   0  0  0  0  0  2  0  0  0  0  0  0
  184.7070  178.4330  145.7600 C   0  0  1  0  0  3  0  0  0  0  0  0
  184.9820  177.0680  145.4810 O   0  0  0  0  0  0  0  0  0  0  0  0
  187.1080  177.1580  146.5320 C   0  0  0  0  0  0  0  0  0  0  0  0
  186.6920  178.1420  147.3330 C   0  0  0  0  0  3  0  0  0  0  0  0
  185.5070  178.9980  146.9560 C   0  0  0  0  0  2  0  0  0  0  0  0
  184.8880  179.2730  144.5760 N   0  0  0  0  0  2  0  0  0  0  0  0
  184.8220  178.0510  140.6890 S   0  0  0  0  0  0  0  0  0  0  0  0
  184.5340  178.8630  143.2500 C   0  0  0  0  0  0  0  0  0  0  0  0
  183.1490  178.1880  141.4360 C   0  0  0  0  0  2  0  0  0  0  0  0
  183.2930  178.6190  142.8620 C   0  0  0  0  0  3  0  0  0  0  0  0
  185.5130  178.6570  142.2100 C   0  0  0  0  0  0  0  0  0  0  0  0
  186.7380  178.9190  142.3470 O   0  0  0  0  0  0  0  0  0  0  0  0
  193.1540  175.9310  146.9270 C   0  0  0  0  0  2  0  0  0  0  0  0
  194.1280  176.1300  145.7760 C   0  0  0  0  0  2  0  0  0  0  0  0
  196.1690  175.2250  144.7130 C   0  0  0  0  0  1  0  0  0  0  0  0
  194.9390  174.8690  145.5270 C   0  0  2  0  0  3  0  0  0  0  0  0
  194.0960  173.8650  144.7740 C   0  0  0  0  0  2  0  0  0  0  0  0
  193.8910  172.6160  145.6100 C   0  0  0  0  0  2  0  0  0  0  0  0
  195.1010  171.7210  145.4640 C   0  0  0  0  0  2  0  0  0  0  0  0
  194.8930  170.7630  144.3010 C   0  0  0  0  0  2  0  0  0  0  0  0
  193.4540  170.2510  144.2000 C   0  0  2  0  0  3  0  0  0  0  0  0
  193.2720  168.8790  144.8270 C   0  0  0  0  0  1  0  0  0  0  0  0
  193.0300  171.5470  142.1140 O   0  0  0  0  0  0  0  0  0  0  0  0
  192.8770  170.3120  142.7770 C   0  0  2  0  0  0  0  0  0  0  0  0
  191.7160  171.2010  142.5020 C   0  0  1  0  0  3  0  0  0  0  0  0
  191.3300  171.9900  143.6660 N   0  0  0  0  0  2  0  0  0  0  0  0
  189.0160  172.1750  142.9190 C   0  0  0  0  0  2  0  0  0  0  0  0
  189.7260  174.5570  141.4740 N   0  0  0  0  0  2  0  0  0  0  0  0
  188.5910  172.3950  141.5370 N   0  0  0  0  0  2  0  0  0  0  0  0
  190.3100  172.9330  143.2400 C   0  0  0  0  0  3  0  0  0  0  0  0
  188.4470  173.8370  141.3300 C   0  0  0  0  0  2  0  0  0  0  0  0
  190.7980  173.7230  142.0240 C   0  0  0  0  0  2  0  0  0  0  0  0
  192.9140  169.1770  141.9430 O   0  0  0  0  0  0  0  0  0  0  0  0
  194.0190  169.3040  141.0880 C   0  0  0  0  0  2  0  0  0  0  0  0
  193.5810  169.0580  139.6590 C   0  0  0  0  0  1  0  0  0  0  0  0
  1 24  1  1  0  0  0
  1  2  1  0  0  0  0
  1  3  1  0  0  0  0
  2  6  1  6  0  0  0
  2  3  1  0  0  0  0
  4  6  2  0  0  0  0
  5  4  2  0  0  0  0
  6 10  1  0  0  0  0
  7  8  2  0  0  0  0
  7  5  1  0  0  0  0
  9  8  1  0  0  0  0
 11 13  1  0  0  0  0
 11 14  1  0  0  0  0
 12 17  1  6  0  0  0
 12 16  1  0  0  0  0
 13 12  1  0  0  0  0
 14 10  1  0  0  0  0
 14 15  2  0  0  0  0
 16 15  1  0  0  0  0
 18 20  1  0  0  0  0
 18 22  1  0  0  0  0
 19 17  1  0  0  0  0
 20 21  1  0  0  0  0
 21 19  2  0  0  0  0
 22 23  2  0  0  0  0
 22 19  1  0  0  0  0
 25 24  1  0  0  0  0
 27 26  1  6  0  0  0
 27 25  1  0  0  0  0
 28 27  1  0  0  0  0
 28 29  1  0  0  0  0
 30 29  1  0  0  0  0
 31 30  1  0  0  0  0
 32 31  1  0  0  0  0
 32 33  1  6  0  0  0
 34 36  1  0  0  0  0
 34 35  1  0  0  0  0
 35 44  1  6  0  0  0
 35 32  1  0  0  0  0
 36 35  1  0  0  0  0
 36 37  1  1  0  0  0
 38 41  1  0  0  0  0
 39 43  1  0  0  0  0
 40 38  1  0  0  0  0
 41 37  1  0  0  0  0
 42 39  1  0  0  0  0
 42 40  1  0  0  0  0
 43 41  1  0  0  0  0
 45 44  1  0  0  0  0
 46 45  1  0  0  0  0
M  END
>  <MODEL>
6

>  <REMARK>
 VINA RESULT:      -5.6      2.822      5.383
  Name = 
  19 active torsions:
  status: ('A' for Active; 'I' for Inactive)
    1  A    between atoms: C_1  and  C_17
    2  A    between atoms: C_1  and  C_21
    3  A    between atoms: C_2  and  C_46
    4  A    between atoms: C_8  and  O_32
    5  A    between atoms: C_9  and  C_21
    6  A    between atoms: C_9  and  O_32
    7  A    between atoms: C_11  and  C_15
    8  A    between atoms: C_11  and  C_38
    9  A    between atoms: C_12  and  N_44
   10  A    between atoms: C_13  and  C_38
   11  A    between atoms: C_16  and  N_18
   12  A    between atoms: C_17  and  C_30
   13  A    between atoms: C_19  and  N_44
   14  A    between atoms: C_27  and  N_36
   15  A    between atoms: C_29  and  C_33
   16  A    between atoms: C_29  and  C_45
   17  A    between atoms: C_30  and  C_33
   18  A    between atoms: C_35  and  N_36
   19  A    between atoms: C_45  and  C_46
                            x       y       z     vdW  Elec       q    Type
                         _______ _______ _______ _____ _____    ______ ____

>  <TORSDO>
F 19

$$$$
=
 OpenBabel11062419503D

 46 50  0  0  1  0  0  0  0  0999 V2000
  187.9460  176.4100  145.0670 C   0  0  2  0  0  3  0  0  0  0  0  0
  188.7840  177.5580  144.6610 C   0  0  2  0  0  3  0  0  0  0  0  0
  187.3770  177.6520  144.7390 O   0  0  0  0  0  0  0  0  0  0  0  0
  188.3620  177.0420  142.3220 C   0  0  0  0  0  0  0  0  0  0  0  0
  187.5020  176.7010  141.3950 C   0  0  0  0  0  3  0  0  0  0  0  0
  189.2270  177.3740  143.2420 C   0  0  0  0  0  0  0  0  0  0  0  0
  186.1540  177.1880  141.3690 N   0  0  0  0  0  0  0  0  0  0  0  0
  185.7290  178.0730  140.5250 C   0  0  0  0  0  3  0  0  0  0  0  0
  184.4050  178.4900  140.5660 O   0  0  0  0  0  1  0  0  0  0  0  0
  190.5450  177.9340  142.8060 C   0  0  0  0  0  2  0  0  0  0  0  0
  192.2600  175.9760  142.6480 C   0  0  0  0  0  2  0  0  0  0  0  0
  194.0840  175.8120  144.0420 C   0  0  1  0  0  3  0  0  0  0  0  0
  193.6670  176.0290  142.7030 O   0  0  0  0  0  0  0  0  0  0  0  0
  191.6890  177.1560  143.3740 C   0  0  0  0  0  0  0  0  0  0  0  0
  192.2740  177.5460  144.5090 C   0  0  0  0  0  3  0  0  0  0  0  0
  193.4750  176.8110  145.0530 C   0  0  0  0  0  2  0  0  0  0  0  0
  193.8390  174.4340  144.4680 N   0  0  0  0  0  2  0  0  0  0  0  0
  196.2070  171.3270  145.6280 S   0  0  0  0  0  0  0  0  0  0  0  0
  194.8490  173.5830  145.0220 C   0  0  0  0  0  0  0  0  0  0  0  0
  196.8720  172.9680  146.1170 C   0  0  0  0  0  2  0  0  0  0  0  0
  195.9400  174.0300  145.6230 C   0  0  0  0  0  3  0  0  0  0  0  0
  194.7770  172.1440  144.9580 C   0  0  0  0  0  0  0  0  0  0  0  0
  193.7810  171.5170  144.5070 O   0  0  0  0  0  0  0  0  0  0  0  0
  187.9980  176.2470  146.5740 C   0  0  0  0  0  2  0  0  0  0  0  0
  189.4130  176.4380  147.0960 C   0  0  0  0  0  2  0  0  0  0  0  0
  191.4070  175.2900  148.0060 C   0  0  0  0  0  1  0  0  0  0  0  0
  190.1430  175.1070  147.1870 C   0  0  2  0  0  3  0  0  0  0  0  0
  190.4940  174.6260  145.7980 C   0  0  0  0  0  2  0  0  0  0  0  0
  189.6840  173.3930  145.4460 C   0  0  0  0  0  2  0  0  0  0  0  0
  190.4870  172.5290  144.4990 C   0  0  0  0  0  2  0  0  0  0  0  0
  190.5780  173.2050  143.1390 C   0  0  0  0  0  2  0  0  0  0  0  0
  190.3970  172.2270  141.9750 C   0  0  2  0  0  3  0  0  0  0  0  0
  190.5900  170.7770  142.3890 C   0  0  0  0  0  1  0  0  0  0  0  0
  191.0210  173.8780  140.2160 O   0  0  0  0  0  0  0  0  0  0  0  0
  191.2320  172.5850  140.7350 C   0  0  2  0  0  0  0  0  0  0  0  0
  190.5430  172.8020  139.4340 C   0  0  1  0  0  3  0  0  0  0  0  0
  189.0910  172.7230  139.5530 N   0  0  0  0  0  2  0  0  0  0  0  0
  189.5960  173.0920  137.1960 C   0  0  0  0  0  2  0  0  0  0  0  0
  187.5410  175.1020  137.1220 N   0  0  0  0  0  2  0  0  0  0  0  0
  189.8150  174.3980  136.5750 N   0  0  0  0  0  2  0  0  0  0  0  0
  188.5230  173.1590  138.2890 C   0  0  0  0  0  3  0  0  0  0  0  0
  188.5330  174.8750  136.0550 C   0  0  0  0  0  2  0  0  0  0  0  0
  187.9650  174.5780  138.4240 C   0  0  0  0  0  2  0  0  0  0  0  0
  192.5430  172.0890  140.5900 O   0  0  0  0  0  0  0  0  0  0  0  0
  193.4200  173.1830  140.5660 C   0  0  0  0  0  2  0  0  0  0  0  0
  194.6840  172.8340  141.3230 C   0  0  0  0  0  1  0  0  0  0  0  0
  1 24  1  1  0  0  0
  2  6  1  6  0  0  0
  2  3  1  0  0  0  0
  2  1  1  0  0  0  0
  3  1  1  0  0  0  0
  4  6  2  0  0  0  0
  5  4  2  0  0  0  0
  7  5  1  0  0  0  0
  8  9  1  0  0  0  0
  8  7  2  0  0  0  0
 10  6  1  0  0  0  0
 10 14  1  0  0  0  0
 11 13  1  0  0  0  0
 11 14  1  0  0  0  0
 12 17  1  1  0  0  0
 12 16  1  0  0  0  0
 13 12  1  0  0  0  0
 14 15  2  0  0  0  0
 15 16  1  0  0  0  0
 17 19  1  0  0  0  0
 18 20  1  0  0  0  0
 19 21  2  0  0  0  0
 21 20  1  0  0  0  0
 22 19  1  0  0  0  0
 22 18  1  0  0  0  0
 23 22  2  0  0  0  0
 24 25  1  0  0  0  0
 25 27  1  0  0  0  0
 27 26  1  1  0  0  0
 28 27  1  0  0  0  0
 29 28  1  0  0  0  0
 30 29  1  0  0  0  0
 31 30  1  0  0  0  0
 32 33  1  1  0  0  0
 32 31  1  0  0  0  0
 34 35  1  0  0  0  0
 35 44  1  6  0  0  0
 35 32  1  0  0  0  0
 36 37  1  1  0  0  0
 36 34  1  0  0  0  0
 36 35  1  0  0  0  0
 38 41  1  0  0  0  0
 39 43  1  0  0  0  0
 40 38  1  0  0  0  0
 41 43  1  0  0  0  0
 41 37  1  0  0  0  0
 42 40  1  0  0  0  0
 42 39  1  0  0  0  0
 45 44  1  0  0  0  0
 45 46  1  0  0  0  0
M  END
>  <MODEL>
7

>  <REMARK>
 VINA RESULT:      -5.5      3.308      7.356
  Name = 
  19 active torsions:
  status: ('A' for Active; 'I' for Inactive)
    1  A    between atoms: C_1  and  C_17
    2  A    between atoms: C_1  and  C_21
    3  A    between atoms: C_2  and  C_46
    4  A    between atoms: C_8  and  O_32
    5  A    between atoms: C_9  and  C_21
    6  A    between atoms: C_9  and  O_32
    7  A    between atoms: C_11  and  C_15
    8  A    between atoms: C_11  and  C_38
    9  A    between atoms: C_12  and  N_44
   10  A    between atoms: C_13  and  C_38
   11  A    between atoms: C_16  and  N_18
   12  A    between atoms: C_17  and  C_30
   13  A    between atoms: C_19  and  N_44
   14  A    between atoms: C_27  and  N_36
   15  A    between atoms: C_29  and  C_33
   16  A    between atoms: C_29  and  C_45
   17  A    between atoms: C_30  and  C_33
   18  A    between atoms: C_35  and  N_36
   19  A    between atoms: C_45  and  C_46
                            x       y       z     vdW  Elec       q    Type
                         _______ _______ _______ _____ _____    ______ ____

>  <TORSDO>
F 19

$$$$
=
 OpenBabel11062419503D

 46 50  0  0  1  0  0  0  0  0999 V2000
  193.7500  170.9750  141.2790 C   0  0  2  0  0  3  0  0  0  0  0  0
  193.1430  170.7190  139.9550 C   0  0  2  0  0  3  0  0  0  0  0  0
  194.5210  170.9860  140.1040 O   0  0  0  0  0  0  0  0  0  0  0  0
  193.0700  172.9740  139.0470 C   0  0  0  0  0  0  0  0  0  0  0  0
  193.7270  174.0160  138.6020 C   0  0  0  0  0  3  0  0  0  0  0  0
  192.4090  171.9420  139.4990 C   0  0  0  0  0  0  0  0  0  0  0  0
  194.9180  173.9030  137.8110 N   0  0  0  0  0  0  0  0  0  0  0  0
  195.4500  174.8960  137.1730 C   0  0  0  0  0  3  0  0  0  0  0  0
  196.6080  174.7020  136.4320 O   0  0  0  0  0  1  0  0  0  0  0  0
  190.9470  171.8510  139.1960 C   0  0  0  0  0  2  0  0  0  0  0  0
  189.1700  173.6960  139.6870 C   0  0  0  0  0  2  0  0  0  0  0  0
  188.2120  173.9710  141.7610 C   0  0  1  0  0  3  0  0  0  0  0  0
  187.9680  173.5920  140.4150 O   0  0  0  0  0  0  0  0  0  0  0  0
  190.1320  172.6500  140.1630 C   0  0  0  0  0  0  0  0  0  0  0  0
  190.1940  172.3950  141.4720 C   0  0  0  0  0  3  0  0  0  0  0  0
  189.3230  173.1460  142.4490 C   0  0  0  0  0  2  0  0  0  0  0  0
  188.4870  175.4030  141.8770 N   0  0  0  0  0  2  0  0  0  0  0  0
  186.3040  178.7370  142.7320 S   0  0  0  0  0  0  0  0  0  0  0  0
  187.5300  176.3600  142.3490 C   0  0  0  0  0  0  0  0  0  0  0  0
  185.5550  177.1910  143.3860 C   0  0  0  0  0  2  0  0  0  0  0  0
  186.4230  176.0350  142.9960 C   0  0  0  0  0  3  0  0  0  0  0  0
  187.6800  177.7800  142.1410 C   0  0  0  0  0  0  0  0  0  0  0  0
  188.7040  178.3020  141.6250 O   0  0  0  0  0  0  0  0  0  0  0  0
  193.9470  169.6620  142.0130 C   0  0  0  0  0  2  0  0  0  0  0  0
  195.1830  169.7100  142.8970 C   0  0  0  0  0  2  0  0  0  0  0  0
  196.6710  171.3560  143.9900 C   0  0  0  0  0  1  0  0  0  0  0  0
  195.2260  170.9990  143.7020 C   0  0  2  0  0  3  0  0  0  0  0  0
  194.4740  170.8110  145.0000 C   0  0  0  0  0  2  0  0  0  0  0  0
  193.8210  172.1130  145.4250 C   0  0  0  0  0  2  0  0  0  0  0  0
  192.6180  172.3720  144.5450 C   0  0  0  0  0  2  0  0  0  0  0  0
  191.9700  173.6910  144.9360 C   0  0  0  0  0  2  0  0  0  0  0  0
  192.9900  174.7570  145.3440 C   0  0  2  0  0  3  0  0  0  0  0  0
  192.7720  175.2700  146.7580 C   0  0  0  0  0  1  0  0  0  0  0  0
  193.2310  175.5150  142.9820 O   0  0  0  0  0  0  0  0  0  0  0  0
  193.1170  175.9070  144.3310 C   0  0  2  0  0  0  0  0  0  0  0  0
  194.3880  176.0710  143.5750 C   0  0  1  0  0  3  0  0  0  0  0  0
  195.3460  175.0080  143.8590 N   0  0  0  0  0  2  0  0  0  0  0  0
  196.4950  176.5120  142.3200 C   0  0  0  0  0  2  0  0  0  0  0  0
  197.0400  174.2660  140.6110 N   0  0  0  0  0  2  0  0  0  0  0  0
  196.2740  176.5690  140.8760 N   0  0  0  0  0  2  0  0  0  0  0  0
  196.3910  175.0770  142.8510 C   0  0  0  0  0  3  0  0  0  0  0  0
  197.2400  175.6770  140.2330 C   0  0  0  0  0  2  0  0  0  0  0  0
  196.0940  174.0930  141.7170 C   0  0  0  0  0  2  0  0  0  0  0  0
  192.4400  177.1250  144.5450 O   0  0  0  0  0  0  0  0  0  0  0  0
  191.1870  177.0380  143.9210 C   0  0  0  0  0  2  0  0  0  0  0  0
  190.1140  177.5220  144.8750 C   0  0  0  0  0  1  0  0  0  0  0  0
  1 24  1  1  0  0  0
  2  6  1  6  0  0  0
  2  3  1  0  0  0  0
  2  1  1  0  0  0  0
  3  1  1  0  0  0  0
  4  6  2  0  0  0  0
  5  4  2  0  0  0  0
  7  5  1  0  0  0  0
  8  7  2  0  0  0  0
  9  8  1  0  0  0  0
 10  6  1  0  0  0  0
 10 14  1  0  0  0  0
 11 14  1  0  0  0  0
 11 13  1  0  0  0  0
 12 17  1  6  0  0  0
 12 16  1  0  0  0  0
 13 12  1  0  0  0  0
 14 15  2  0  0  0  0
 15 16  1  0  0  0  0
 17 19  1  0  0  0  0
 18 20  1  0  0  0  0
 19 21  2  0  0  0  0
 21 20  1  0  0  0  0
 22 19  1  0  0  0  0
 22 18  1  0  0  0  0
 23 22  2  0  0  0  0
 24 25  1  0  0  0  0
 25 27  1  0  0  0  0
 27 26  1  1  0  0  0
 27 28  1  0  0  0  0
 28 29  1  0  0  0  0
 30 31  1  0  0  0  0
 30 29  1  0  0  0  0
 31 32  1  0  0  0  0
 32 33  1  1  0  0  0
 34 36  1  0  0  0  0
 34 35  1  0  0  0  0
 35 44  1  1  0  0  0
 35 32  1  0  0  0  0
 36 37  1  1  0  0  0
 36 35  1  0  0  0  0
 38 41  1  0  0  0  0
 39 43  1  0  0  0  0
 40 38  1  0  0  0  0
 41 37  1  0  0  0  0
 42 39  1  0  0  0  0
 42 40  1  0  0  0  0
 43 41  1  0  0  0  0
 45 44  1  0  0  0  0
 45 46  1  0  0  0  0
M  END
>  <MODEL>
8

>  <REMARK>
 VINA RESULT:      -5.4      2.546      6.276
  Name = 
  19 active torsions:
  status: ('A' for Active; 'I' for Inactive)
    1  A    between atoms: C_1  and  C_17
    2  A    between atoms: C_1  and  C_21
    3  A    between atoms: C_2  and  C_46
    4  A    between atoms: C_8  and  O_32
    5  A    between atoms: C_9  and  C_21
    6  A    between atoms: C_9  and  O_32
    7  A    between atoms: C_11  and  C_15
    8  A    between atoms: C_11  and  C_38
    9  A    between atoms: C_12  and  N_44
   10  A    between atoms: C_13  and  C_38
   11  A    between atoms: C_16  and  N_18
   12  A    between atoms: C_17  and  C_30
   13  A    between atoms: C_19  and  N_44
   14  A    between atoms: C_27  and  N_36
   15  A    between atoms: C_29  and  C_33
   16  A    between atoms: C_29  and  C_45
   17  A    between atoms: C_30  and  C_33
   18  A    between atoms: C_35  and  N_36
   19  A    between atoms: C_45  and  C_46
                            x       y       z     vdW  Elec       q    Type
                         _______ _______ _______ _____ _____    ______ ____

>  <TORSDO>
F 19

$$$$
=
 OpenBabel11062419503D

 46 50  0  0  1  0  0  0  0  0999 V2000
  187.5160  176.6860  144.6870 C   0  0  2  0  0  3  0  0  0  0  0  0
  187.2540  178.0310  144.1330 C   0  0  2  0  0  3  0  0  0  0  0  0
  186.2070  177.1360  144.4410 O   0  0  0  0  0  0  0  0  0  0  0  0
  186.5720  177.8640  141.8040 C   0  0  0  0  0  0  0  0  0  0  0  0
  185.6050  177.6910  140.9380 C   0  0  0  0  0  3  0  0  0  0  0  0
  187.5420  178.0290  142.6630 C   0  0  0  0  0  0  0  0  0  0  0  0
  184.2900  178.2320  141.1230 N   0  0  0  0  0  0  0  0  0  0  0  0
  183.6240  178.1330  142.2280 C   0  0  0  0  0  3  0  0  0  0  0  0
  182.3550  178.6890  142.3250 O   0  0  0  0  0  1  0  0  0  0  0  0
  188.8380  178.5890  142.1670 C   0  0  0  0  0  2  0  0  0  0  0  0
  191.1730  178.3340  143.2970 C   0  0  0  0  0  2  0  0  0  0  0  0
  192.0850  176.2830  143.8080 C   0  0  1  0  0  3  0  0  0  0  0  0
  191.5550  177.4810  144.3530 O   0  0  0  0  0  0  0  0  0  0  0  0
  189.9990  177.7410  142.5800 C   0  0  0  0  0  0  0  0  0  0  0  0
  189.9780  176.4220  142.3790 C   0  0  0  0  0  3  0  0  0  0  0  0
  191.1130  175.5480  142.8570 C   0  0  0  0  0  2  0  0  0  0  0  0
  193.3730  176.5110  143.1520 N   0  0  0  0  0  2  0  0  0  0  0  0
  197.2380  175.3360  143.6860 S   0  0  0  0  0  0  0  0  0  0  0  0
  194.6020  175.9210  143.5920 C   0  0  0  0  0  0  0  0  0  0  0  0
  196.0980  174.6870  144.9720 C   0  0  0  0  0  2  0  0  0  0  0  0
  194.7190  175.1960  144.6920 C   0  0  0  0  0  3  0  0  0  0  0  0
  195.8440  176.0820  142.8750 C   0  0  0  0  0  0  0  0  0  0  0  0
  195.9320  176.6600  141.7590 O   0  0  0  0  0  0  0  0  0  0  0  0
  187.8300  176.7950  146.1670 C   0  0  0  0  0  2  0  0  0  0  0  0
  189.1730  176.1590  146.4890 C   0  0  0  0  0  2  0  0  0  0  0  0
  189.2580  174.1980  147.9940 C   0  0  0  0  0  1  0  0  0  0  0  0
  189.0550  174.6450  146.5590 C   0  0  2  0  0  3  0  0  0  0  0  0
  190.1030  174.0140  145.6700 C   0  0  0  0  0  2  0  0  0  0  0  0
  189.6990  172.5990  145.3010 C   0  0  0  0  0  2  0  0  0  0  0  0
  190.5330  172.1400  144.1250 C   0  0  0  0  0  2  0  0  0  0  0  0
  189.7750  172.3880  142.8300 C   0  0  0  0  0  2  0  0  0  0  0  0
  190.2210  171.4660  141.6930 C   0  0  2  0  0  3  0  0  0  0  0  0
  190.7020  170.1110  142.1880 C   0  0  0  0  0  1  0  0  0  0  0  0
  190.8650  173.3850  140.2400 O   0  0  0  0  0  0  0  0  0  0  0  0
  191.2300  172.1150  140.7320 C   0  0  2  0  0  0  0  0  0  0  0  0
  190.8470  172.3220  139.3090 C   0  0  1  0  0  3  0  0  0  0  0  0
  189.4670  171.9330  139.0410 N   0  0  0  0  0  2  0  0  0  0  0  0
  190.2520  172.8610  136.9260 C   0  0  0  0  0  2  0  0  0  0  0  0
  188.0830  174.7460  137.0060 N   0  0  0  0  0  2  0  0  0  0  0  0
  190.4540  174.2830  136.6540 N   0  0  0  0  0  2  0  0  0  0  0  0
  189.0410  172.6280  137.8380 C   0  0  0  0  0  3  0  0  0  0  0  0
  189.2210  174.8150  136.0720 C   0  0  0  0  0  2  0  0  0  0  0  0
  188.3680  173.9520  138.2040 C   0  0  0  0  0  2  0  0  0  0  0  0
  192.6140  171.9180  140.9100 O   0  0  0  0  0  0  0  0  0  0  0  0
  193.1440  173.0740  141.5000 C   0  0  0  0  0  2  0  0  0  0  0  0
  194.6170  173.1810  141.1680 C   0  0  0  0  0  1  0  0  0  0  0  0
  1 24  1  1  0  0  0
  2  6  1  6  0  0  0
  2  3  1  0  0  0  0
  2  1  1  0  0  0  0
  3  1  1  0  0  0  0
  4  6  2  0  0  0  0
  5  7  1  0  0  0  0
  5  4  2  0  0  0  0
  7  8  2  0  0  0  0
  8  9  1  0  0  0  0
 10 14  1  0  0  0  0
 10  6  1  0  0  0  0
 11 13  1  0  0  0  0
 12 17  1  6  0  0  0
 12 13  1  0  0  0  0
 14 11  1  0  0  0  0
 15 14  2  0  0  0  0
 15 16  1  0  0  0  0
 16 12  1  0  0  0  0
 17 19  1  0  0  0  0
 18 20  1  0  0  0  0
 19 21  2  0  0  0  0
 21 20  1  0  0  0  0
 22 19  1  0  0  0  0
 22 18  1  0  0  0  0
 23 22  2  0  0  0  0
 24 25  1  0  0  0  0
 25 27  1  0  0  0  0
 27 26  1  1  0  0  0
 28 27  1  0  0  0  0
 29 28  1  0  0  0  0
 30 29  1  0  0  0  0
 31 30  1  0  0  0  0
 32 33  1  1  0  0  0
 32 31  1  0  0  0  0
 34 35  1  0  0  0  0
 35 44  1  1  0  0  0
 35 32  1  0  0  0  0
 36 37  1  1  0  0  0
 36 34  1  0  0  0  0
 36 35  1  0  0  0  0
 38 41  1  0  0  0  0
 39 43  1  0  0  0  0
 40 38  1  0  0  0  0
 41 43  1  0  0  0  0
 41 37  1  0  0  0  0
 42 40  1  0  0  0  0
 42 39  1  0  0  0  0
 44 45  1  0  0  0  0
 46 45  1  0  0  0  0
M  END
>  <MODEL>
9

>  <REMARK>
 VINA RESULT:      -5.4      3.271      7.593
  Name = 
  19 active torsions:
  status: ('A' for Active; 'I' for Inactive)
    1  A    between atoms: C_1  and  C_17
    2  A    between atoms: C_1  and  C_21
    3  A    between atoms: C_2  and  C_46
    4  A    between atoms: C_8  and  O_32
    5  A    between atoms: C_9  and  C_21
    6  A    between atoms: C_9  and  O_32
    7  A    between atoms: C_11  and  C_15
    8  A    between atoms: C_11  and  C_38
    9  A    between atoms: C_12  and  N_44
   10  A    between atoms: C_13  and  C_38
   11  A    between atoms: C_16  and  N_18
   12  A    between atoms: C_17  and  C_30
   13  A    between atoms: C_19  and  N_44
   14  A    between atoms: C_27  and  N_36
   15  A    between atoms: C_29  and  C_33
   16  A    between atoms: C_29  and  C_45
   17  A    between atoms: C_30  and  C_33
   18  A    between atoms: C_35  and  N_36
   19  A    between atoms: C_45  and  C_46
                            x       y       z     vdW  Elec       q    Type
                         _______ _______ _______ _____ _____    ______ ____

>  <TORSDO>
F 19

$$$$
