=
 OpenBabel11062418383D

 55 62  0  0  1  0  0  0  0  0999 V2000
  191.6660  172.8230  141.6370 C   0  0  2  0  0  3  0  0  0  0  0  0
  192.6600  170.6500  141.7920 O   0  0  0  0  0  0  0  0  0  0  0  0
  191.2450  172.0060  140.4430 C   0  0  1  0  0  3  0  0  0  0  0  0
  191.6500  170.5970  140.8070 C   0  0  0  0  0  2  0  0  0  0  0  0
  192.8910  172.0140  142.0350 C   0  0  2  0  0  3  0  0  0  0  0  0
  190.5520  172.9330  142.7040 C   0  0  1  0  0  3  0  0  0  0  0  0
  190.6300  171.9430  143.6840 O   0  0  0  0  0  1  0  0  0  0  0  0
  190.5090  174.3170  143.3220 C   0  0  0  0  0  2  0  0  0  0  0  0
  188.9930  176.0510  144.2560 C   0  0  1  0  0  3  0  0  0  0  0  0
  188.8930  175.8690  145.6650 O   0  0  0  0  0  0  0  0  0  0  0  0
  185.6560  178.2310  142.5500 C   0  0  1  0  0  3  0  0  0  0  0  0
  183.9680  178.8990  144.1570 O   0  0  0  0  0  1  0  0  0  0  0  0
  187.6650  176.3130  146.1290 C   0  0  0  0  0  0  0  0  0  0  0  0
  184.9420  177.9330  143.8970 C   0  0  2  0  0  3  0  0  0  0  0  0
  188.3000  175.0490  141.8580 S   0  0  0  0  0  0  0  0  0  0  0  0
  187.3570  176.3440  147.3510 O   0  0  0  0  0  0  0  0  0  0  0  0
  187.0260  176.0110  142.7200 C   0  0  2  0  0  3  0  0  0  0  0  0
  189.0630  174.7420  143.4870 C   0  0  1  0  0  3  0  0  0  0  0  0
  185.9150  177.8840  145.0940 C   0  0  0  0  0  2  0  0  0  0  0  0
  186.2350  176.9770  141.8310 C   0  0  0  0  0  2  0  0  0  0  0  0
  186.7400  176.6140  145.0180 C   0  0  1  0  0  3  0  0  0  0  0  0
  187.6910  176.7340  143.8540 C   0  0  1  0  0  3  0  0  0  0  0  0
  184.7790  178.9220  141.6630 O   0  0  0  0  0  0  0  0  0  0  0  0
  182.8330  178.1860  140.5980 C   0  0  0  0  0  0  0  0  0  0  0  0
  181.5940  178.1170  140.5780 O   0  0  0  0  0  0  0  0  0  0  0  0
  184.1350  178.2610  140.6190 C   0  0  0  0  0  3  0  0  0  0  0  0
  193.6450  172.3100  143.3490 C   0  0  1  0  0  3  0  0  0  0  0  0
  197.3130  170.4390  145.4840 O   0  0  0  0  0  0  0  0  0  0  0  0
  195.7310  170.9390  143.7960 C   0  0  2  0  0  3  0  0  0  0  0  0
  196.0630  169.8560  142.8910 N   0  0  0  0  0  1  0  0  0  0  0  0
  193.8630  170.9290  145.3340 O   0  0  0  0  0  0  0  0  0  0  0  0
  194.8620  169.3080  146.6110 O   0  0  0  0  0  1  0  0  0  0  0  0
  196.1520  170.6130  145.1500 C   0  0  0  0  0  0  0  0  0  0  0  0
  195.0130  170.5890  146.0770 C   0  0  1  0  0  3  0  0  0  0  0  0
  194.2190  171.0220  143.9610 C   0  0  1  0  0  3  0  0  0  0  0  0
  195.8590  175.2370  144.5090 N   0  0  0  0  0  2  0  0  0  0  0  0
  195.0040  175.7390  142.3230 C   0  0  1  0  0  3  0  0  0  0  0  0
  194.2980  176.8030  141.7590 O   0  0  0  0  0  1  0  0  0  0  0  0
  194.7060  173.4120  143.2050 C   0  0  2  0  0  3  0  0  0  0  0  0
  194.6350  174.4670  144.3040 C   0  0  2  0  0  0  0  0  0  0  0  0
  195.8640  176.2510  143.4640 C   0  0  2  0  0  3  0  0  0  0  0  0
  194.0360  174.7670  142.9550 C   0  0  1  0  0  3  0  0  0  0  0  0
  197.9410  175.5710  142.2080 N   0  0  0  0  0  1  0  0  0  0  0  0
  197.8510  177.5870  143.3440 O   0  0  0  0  0  0  0  0  0  0  0  0
  197.2530  176.5380  142.9930 C   0  0  0  0  0  0  0  0  0  0  0  0
  193.6300  174.3880  145.4520 C   0  0  0  0  0  2  0  0  0  0  0  0
  194.2940  176.2790  146.7420 O   0  0  0  0  0  1  0  0  0  0  0  0
  193.3920  175.7290  146.0610 C   0  0  0  0  0  0  0  0  0  0  0  0
  192.1660  176.3620  145.9010 O   0  0  0  0  0  0  0  0  0  0  0  0
  189.7800  172.1240  140.0320 C   0  0  0  0  0  2  0  0  0  0  0  0
  188.2900  174.1670  137.4180 C   0  0  0  0  0  2  0  0  0  0  0  0
  189.5860  173.3080  139.0930 C   0  0  1  0  0  3  0  0  0  0  0  0
  190.6790  173.1810  137.6580 S   0  0  0  0  0  0  0  0  0  0  0  0
  189.3930  173.7440  136.5810 N   0  0  0  0  0  2  0  0  0  0  0  0
  188.2180  173.3350  138.6010 N   0  0  0  0  0  2  0  0  0  0  0  0
  1  5  1  0  0  0  0
  1  6  1  1  0  0  0
  2  5  1  0  0  0  0
  3 50  1  1  0  0  0
  3  4  1  0  0  0  0
  3  1  1  0  0  0  0
  4  2  1  0  0  0  0
  5 27  1  1  0  0  0
  6  8  1  0  0  0  0
  6  7  1  1  0  0  0
  9 10  1  1  0  0  0
 10 13  1  0  0  0  0
 11 23  1  6  0  0  0
 11 14  1  0  0  0  0
 13 16  2  0  0  0  0
 14 12  1  1  0  0  0
 14 19  1  0  0  0  0
 15 17  1  0  0  0  0
 15 18  1  0  0  0  0
 17 20  1  6  0  0  0
 17 22  1  0  0  0  0
 18  8  1  6  0  0  0
 18  9  1  0  0  0  0
 20 11  1  0  0  0  0
 21 19  1  1  0  0  0
 21 13  1  0  0  0  0
 22  9  1  0  0  0  0
 22 21  1  0  0  0  0
 24 26  2  0  0  0  0
 25 24  2  0  0  0  0
 26 23  1  0  0  0  0
 27 35  1  0  0  0  0
 29 35  1  0  0  0  0
 29 33  1  0  0  0  0
 30 29  1  0  0  0  0
 31 34  1  0  0  0  0
 33 28  2  0  0  0  0
 33 34  1  0  0  0  0
 34 32  1  0  0  0  0
 35 31  1  0  0  0  0
 37 42  1  0  0  0  0
 37 41  1  0  0  0  0
 38 37  1  0  0  0  0
 39 27  1  0  0  0  0
 39 40  1  0  0  0  0
 40 36  1  0  0  0  0
 40 46  1  0  0  0  0
 41 36  1  0  0  0  0
 42 39  1  0  0  0  0
 42 40  1  0  0  0  0
 43 45  1  0  0  0  0
 45 44  2  0  0  0  0
 45 41  1  0  0  0  0
 46 48  1  0  0  0  0
 48 47  1  0  0  0  0
 49 48  2  0  0  0  0
 51 55  1  0  0  0  0
 52 50  1  0  0  0  0
 53 52  1  0  0  0  0
 54 51  1  0  0  0  0
 54 53  1  0  0  0  0
 55 52  1  0  0  0  0
M  END
>  <MODEL>
1

>  <REMARK>
 VINA RESULT:      -7.7      0.000      0.000
  Name = 
  13 active torsions:
  status: ('A' for Active; 'I' for Inactive)
    1  A    between atoms: C_5  and  O_28
    2  A    between atoms: C_8  and  C_26
    3  A    between atoms: C_16  and  C_47
    4  A    between atoms: C_19  and  C_34
    5  A    between atoms: C_19  and  C_35
    6  A    between atoms: C_19  and  C_52
    7  A    between atoms: C_21  and  C_23
    8  A    between atoms: C_22  and  C_23
    9  A    between atoms: C_26  and  C_44
   10  A    between atoms: O_28  and  C_32
   11  A    between atoms: C_29  and  C_44
   12  A    between atoms: C_38  and  C_47
   13  A    between atoms: C_42  and  C_48
                            x       y       z     vdW  Elec       q    Type
                         _______ _______ _______ _____ _____    ______ ____

>  <TORSDO>
F 13

$$$$
=
 OpenBabel11062418383D

 55 62  0  0  1  0  0  0  0  0999 V2000
  190.5700  173.6570  140.9750 C   0  0  2  0  0  3  0  0  0  0  0  0
  189.7290  173.0440  138.8180 O   0  0  0  0  0  0  0  0  0  0  0  0
  189.2550  174.3550  140.7460 C   0  0  1  0  0  3  0  0  0  0  0  0
  188.6800  173.6580  139.5360 C   0  0  0  0  0  2  0  0  0  0  0  0
  190.9070  173.3410  139.5250 C   0  0  2  0  0  3  0  0  0  0  0  0
  190.4390  172.4400  141.9200 C   0  0  1  0  0  3  0  0  0  0  0  0
  189.9960  171.2870  141.2710 O   0  0  0  0  0  1  0  0  0  0  0  0
  191.7270  172.1830  142.6780 C   0  0  0  0  0  2  0  0  0  0  0  0
  192.2890  174.1650  144.0690 C   0  0  1  0  0  3  0  0  0  0  0  0
  193.6680  174.1110  144.4170 O   0  0  0  0  0  0  0  0  0  0  0  0
  189.9180  176.6060  146.7570 C   0  0  1  0  0  3  0  0  0  0  0  0
  191.1750  177.6110  148.5700 O   0  0  0  0  0  1  0  0  0  0  0  0
  193.8910  174.7440  145.6300 C   0  0  0  0  0  0  0  0  0  0  0  0
  191.1400  176.5110  147.7110 C   0  0  2  0  0  3  0  0  0  0  0  0
  189.8710  173.0690  144.5020 S   0  0  0  0  0  0  0  0  0  0  0  0
  195.0400  174.9130  146.1210 O   0  0  0  0  0  0  0  0  0  0  0  0
  190.4470  174.2510  145.7520 C   0  0  2  0  0  3  0  0  0  0  0  0
  191.6200  172.8000  144.0590 C   0  0  1  0  0  3  0  0  0  0  0  0
  192.4850  176.4360  146.9570 C   0  0  0  0  0  2  0  0  0  0  0  0
  189.3820  175.2350  146.2490 C   0  0  0  0  0  2  0  0  0  0  0  0
  192.6250  175.0690  146.3150 C   0  0  1  0  0  3  0  0  0  0  0  0
  191.6330  174.9730  145.1830 C   0  0  1  0  0  3  0  0  0  0  0  0
  188.8570  177.3290  147.3760 O   0  0  0  0  0  0  0  0  0  0  0  0
  186.6520  178.0980  147.2610 C   0  0  0  0  0  0  0  0  0  0  0  0
  185.8090  178.9560  147.5650 O   0  0  0  0  0  0  0  0  0  0  0  0
  187.5400  177.1960  146.9420 C   0  0  0  0  0  3  0  0  0  0  0  0
  192.1110  172.4460  139.1670 C   0  0  1  0  0  3  0  0  0  0  0  0
  193.6010  170.0220  135.5040 O   0  0  0  0  0  0  0  0  0  0  0  0
  192.4260  171.6260  136.7880 C   0  0  2  0  0  3  0  0  0  0  0  0
  191.4530  172.0040  135.7830 N   0  0  0  0  0  1  0  0  0  0  0  0
  192.0070  170.0850  138.6060 O   0  0  0  0  0  0  0  0  0  0  0  0
  191.8740  168.3240  137.1450 O   0  0  0  0  0  1  0  0  0  0  0  0
  192.9590  170.3020  136.5030 C   0  0  0  0  0  0  0  0  0  0  0  0
  192.6860  169.3650  137.6000 C   0  0  1  0  0  3  0  0  0  0  0  0
  191.7240  171.3900  138.1180 C   0  0  1  0  0  3  0  0  0  0  0  0
  195.8780  173.0980  138.7240 N   0  0  0  0  0  2  0  0  0  0  0  0
  194.8440  175.0970  139.5610 C   0  0  1  0  0  3  0  0  0  0  0  0
  195.0650  175.9400  140.6510 O   0  0  0  0  0  1  0  0  0  0  0  0
  193.3600  173.2420  138.7610 C   0  0  2  0  0  3  0  0  0  0  0  0
  194.6420  172.7270  139.4080 C   0  0  2  0  0  0  0  0  0  0  0  0
  196.1580  174.4670  139.1360 C   0  0  2  0  0  3  0  0  0  0  0  0
  193.9640  173.9440  139.9820 C   0  0  1  0  0  3  0  0  0  0  0  0
  196.1070  175.3710  136.7830 N   0  0  0  0  0  1  0  0  0  0  0  0
  197.9410  175.7340  138.1520 O   0  0  0  0  0  0  0  0  0  0  0  0
  196.7870  175.2480  138.0280 C   0  0  0  0  0  0  0  0  0  0  0  0
  194.6630  171.5070  140.3280 C   0  0  0  0  0  2  0  0  0  0  0  0
  195.5370  172.1030  142.4630 O   0  0  0  0  0  1  0  0  0  0  0  0
  195.7610  171.6020  141.3330 C   0  0  0  0  0  0  0  0  0  0  0  0
  197.0390  171.1590  141.0150 O   0  0  0  0  0  0  0  0  0  0  0  0
  188.2970  174.3890  141.9340 C   0  0  0  0  0  2  0  0  0  0  0  0
  187.4270  177.8810  141.4060 C   0  0  0  0  0  2  0  0  0  0  0  0
  187.9270  175.8270  142.2760 C   0  0  1  0  0  3  0  0  0  0  0  0
  189.3980  176.7900  142.6970 S   0  0  0  0  0  0  0  0  0  0  0  0
  188.7870  178.1870  141.7980 N   0  0  0  0  0  2  0  0  0  0  0  0
  187.2990  176.4660  141.1300 N   0  0  0  0  0  2  0  0  0  0  0  0
  1  6  1  1  0  0  0
  2  5  1  0  0  0  0
  2  4  1  0  0  0  0
  3  1  1  0  0  0  0
  3 50  1  1  0  0  0
  4  3  1  0  0  0  0
  5 27  1  1  0  0  0
  5  1  1  0  0  0  0
  6  7  1  6  0  0  0
  6  8  1  0  0  0  0
  9 10  1  1  0  0  0
  9 22  1  0  0  0  0
 10 13  1  0  0  0  0
 11 23  1  1  0  0  0
 11 14  1  0  0  0  0
 13 16  2  0  0  0  0
 13 21  1  0  0  0  0
 14 12  1  1  0  0  0
 15 17  1  0  0  0  0
 17 20  1  6  0  0  0
 18  8  1  6  0  0  0
 18  9  1  0  0  0  0
 18 15  1  0  0  0  0
 19 14  1  0  0  0  0
 20 11  1  0  0  0  0
 21 19  1  6  0  0  0
 22 17  1  0  0  0  0
 22 21  1  0  0  0  0
 24 25  2  0  0  0  0
 26 24  2  0  0  0  0
 26 23  1  0  0  0  0
 28 33  2  0  0  0  0
 29 35  1  0  0  0  0
 30 29  1  0  0  0  0
 32 34  1  0  0  0  0
 33 29  1  0  0  0  0
 33 34  1  0  0  0  0
 34 31  1  0  0  0  0
 35 31  1  0  0  0  0
 35 27  1  0  0  0  0
 36 41  1  0  0  0  0
 36 40  1  0  0  0  0
 37 42  1  0  0  0  0
 37 38  1  0  0  0  0
 39 27  1  0  0  0  0
 39 40  1  0  0  0  0
 39 42  1  0  0  0  0
 40 42  1  0  0  0  0
 40 46  1  0  0  0  0
 41 37  1  0  0  0  0
 43 45  1  0  0  0  0
 45 44  2  0  0  0  0
 45 41  1  0  0  0  0
 46 48  1  0  0  0  0
 48 47  1  0  0  0  0
 49 48  2  0  0  0  0
 50 52  1  0  0  0  0
 51 54  1  0  0  0  0
 52 53  1  0  0  0  0
 54 53  1  0  0  0  0
 55 51  1  0  0  0  0
 55 52  1  0  0  0  0
M  END
>  <MODEL>
2

>  <REMARK>
 VINA RESULT:      -7.0      3.286      6.049
  Name = 
  13 active torsions:
  status: ('A' for Active; 'I' for Inactive)
    1  A    between atoms: C_5  and  O_28
    2  A    between atoms: C_8  and  C_26
    3  A    between atoms: C_16  and  C_47
    4  A    between atoms: C_19  and  C_34
    5  A    between atoms: C_19  and  C_35
    6  A    between atoms: C_19  and  C_52
    7  A    between atoms: C_21  and  C_23
    8  A    between atoms: C_22  and  C_23
    9  A    between atoms: C_26  and  C_44
   10  A    between atoms: O_28  and  C_32
   11  A    between atoms: C_29  and  C_44
   12  A    between atoms: C_38  and  C_47
   13  A    between atoms: C_42  and  C_48
                            x       y       z     vdW  Elec       q    Type
                         _______ _______ _______ _____ _____    ______ ____

>  <TORSDO>
F 13

$$$$
=
 OpenBabel11062418383D

 55 62  0  0  1  0  0  0  0  0999 V2000
  191.6730  172.1490  141.1650 C   0  0  2  0  0  3  0  0  0  0  0  0
  193.3160  170.4060  141.1680 O   0  0  0  0  0  0  0  0  0  0  0  0
  191.5460  171.3550  139.8910 C   0  0  1  0  0  3  0  0  0  0  0  0
  192.3830  170.1240  140.1460 C   0  0  0  0  0  2  0  0  0  0  0  0
  193.0910  171.7430  141.5370 C   0  0  2  0  0  3  0  0  0  0  0  0
  190.5760  171.7940  142.1970 C   0  0  1  0  0  3  0  0  0  0  0  0
  190.6120  170.4580  142.5980 O   0  0  0  0  0  1  0  0  0  0  0  0
  190.6120  172.7280  143.3910 C   0  0  0  0  0  2  0  0  0  0  0  0
  188.7100  173.9510  142.3590 C   0  0  1  0  0  3  0  0  0  0  0  0
  188.7370  173.7470  140.9510 O   0  0  0  0  0  0  0  0  0  0  0  0
  186.5450  177.5130  143.5520 C   0  0  1  0  0  3  0  0  0  0  0  0
  185.6200  178.7890  141.7090 O   0  0  0  0  0  1  0  0  0  0  0  0
  188.1800  174.8290  140.2890 C   0  0  0  0  0  0  0  0  0  0  0  0
  186.6600  177.9240  142.0590 C   0  0  2  0  0  3  0  0  0  0  0  0
  189.9200  175.1800  144.4230 S   0  0  0  0  0  0  0  0  0  0  0  0
  188.0030  174.8620  139.0410 O   0  0  0  0  0  0  0  0  0  0  0  0
  188.8050  176.2060  143.4250 C   0  0  2  0  0  3  0  0  0  0  0  0
  190.0950  174.0890  142.9700 C   0  0  1  0  0  3  0  0  0  0  0  0
  186.6340  176.7150  141.1000 C   0  0  0  0  0  2  0  0  0  0  0  0
  187.8970  177.1430  144.2300 C   0  0  0  0  0  2  0  0  0  0  0  0
  187.9480  175.9650  141.2040 C   0  0  1  0  0  3  0  0  0  0  0  0
  188.0040  175.2880  142.5500 C   0  0  1  0  0  3  0  0  0  0  0  0
  185.9050  178.5410  144.3050 O   0  0  0  0  0  0  0  0  0  0  0  0
  185.2490  178.5440  146.5490 C   0  0  0  0  0  0  0  0  0  0  0  0
  184.3600  178.3670  147.3960 O   0  0  0  0  0  0  0  0  0  0  0  0
  186.1830  178.7290  145.6570 C   0  0  0  0  0  3  0  0  0  0  0  0
  193.7000  172.1410  142.8970 C   0  0  1  0  0  3  0  0  0  0  0  0
  196.9770  170.5730  145.7810 O   0  0  0  0  0  0  0  0  0  0  0  0
  195.7380  170.9290  143.7960 C   0  0  2  0  0  3  0  0  0  0  0  0
  196.3170  169.8560  143.0120 N   0  0  0  0  0  1  0  0  0  0  0  0
  193.6030  170.8150  144.9300 O   0  0  0  0  0  0  0  0  0  0  0  0
  194.4290  169.2930  146.4320 O   0  0  0  0  0  1  0  0  0  0  0  0
  195.8980  170.6590  145.2170 C   0  0  0  0  0  0  0  0  0  0  0  0
  194.6010  170.5710  145.8980 C   0  0  1  0  0  3  0  0  0  0  0  0
  194.2220  170.9080  143.6530 C   0  0  1  0  0  3  0  0  0  0  0  0
  195.8810  175.0590  144.1400 N   0  0  0  0  0  2  0  0  0  0  0  0
  195.0570  175.5940  141.9490 C   0  0  1  0  0  3  0  0  0  0  0  0
  194.3530  176.6630  141.3930 O   0  0  0  0  0  1  0  0  0  0  0  0
  194.7570  173.2510  142.7880 C   0  0  2  0  0  3  0  0  0  0  0  0
  194.6640  174.2870  143.9030 C   0  0  2  0  0  0  0  0  0  0  0  0
  195.8960  176.0910  143.1120 C   0  0  2  0  0  3  0  0  0  0  0  0
  194.0840  174.6060  142.5500 C   0  0  1  0  0  3  0  0  0  0  0  0
  197.9410  175.5160  141.7550 N   0  0  0  0  0  1  0  0  0  0  0  0
  197.9260  177.3670  143.1470 O   0  0  0  0  0  0  0  0  0  0  0  0
  197.2910  176.3930  142.6670 C   0  0  0  0  0  0  0  0  0  0  0  0
  193.6410  174.1840  145.0340 C   0  0  0  0  0  2  0  0  0  0  0  0
  192.7540  176.2720  145.7620 O   0  0  0  0  0  0  0  0  0  0  0  0
  193.6530  175.4040  145.8920 C   0  0  0  0  0  0  0  0  0  0  0  0
  194.6700  175.5970  146.8190 O   0  0  0  0  0  1  0  0  0  0  0  0
  190.1250  171.0340  139.4380 C   0  0  0  0  0  2  0  0  0  0  0  0
  190.7660  171.0370  135.8580 C   0  0  0  0  0  2  0  0  0  0  0  0
  189.9470  171.3780  137.9650 C   0  0  1  0  0  3  0  0  0  0  0  0
  190.6960  172.9790  137.5800 S   0  0  0  0  0  0  0  0  0  0  0  0
  191.3310  172.3560  136.0500 N   0  0  0  0  0  2  0  0  0  0  0  0
  190.6020  170.3780  137.1370 N   0  0  0  0  0  2  0  0  0  0  0  0
  1  5  1  0  0  0  0
  1  6  1  1  0  0  0
  2  5  1  0  0  0  0
  3 50  1  1  0  0  0
  3  4  1  0  0  0  0
  3  1  1  0  0  0  0
  4  2  1  0  0  0  0
  5 27  1  1  0  0  0
  6  7  1  1  0  0  0
  6  8  1  0  0  0  0
  9 10  1  6  0  0  0
  9 22  1  0  0  0  0
  9 18  1  0  0  0  0
 11 20  1  0  0  0  0
 11 23  1  1  0  0  0
 13 10  1  0  0  0  0
 13 21  1  0  0  0  0
 14 12  1  6  0  0  0
 14 11  1  0  0  0  0
 16 13  2  0  0  0  0
 17 20  1  1  0  0  0
 17 15  1  0  0  0  0
 18  8  1  1  0  0  0
 18 15  1  0  0  0  0
 19 14  1  0  0  0  0
 21 19  1  6  0  0  0
 21 22  1  0  0  0  0
 22 17  1  0  0  0  0
 23 26  1  0  0  0  0
 24 25  2  0  0  0  0
 26 24  2  0  0  0  0
 27 35  1  0  0  0  0
 29 33  1  0  0  0  0
 30 29  1  0  0  0  0
 31 34  1  0  0  0  0
 33 28  2  0  0  0  0
 33 34  1  0  0  0  0
 34 32  1  0  0  0  0
 35 29  1  0  0  0  0
 35 31  1  0  0  0  0
 37 42  1  0  0  0  0
 37 41  1  0  0  0  0
 38 37  1  0  0  0  0
 39 27  1  0  0  0  0
 39 40  1  0  0  0  0
 40 36  1  0  0  0  0
 40 46  1  0  0  0  0
 41 36  1  0  0  0  0
 42 39  1  0  0  0  0
 42 40  1  0  0  0  0
 43 45  1  0  0  0  0
 45 41  1  0  0  0  0
 45 44  2  0  0  0  0
 46 48  1  0  0  0  0
 47 48  2  0  0  0  0
 48 49  1  0  0  0  0
 51 54  1  0  0  0  0
 51 55  1  0  0  0  0
 52 50  1  0  0  0  0
 53 52  1  0  0  0  0
 54 53  1  0  0  0  0
 55 52  1  0  0  0  0
M  END
>  <MODEL>
3

>  <REMARK>
 VINA RESULT:      -6.5      1.668      2.794
  Name = 
  13 active torsions:
  status: ('A' for Active; 'I' for Inactive)
    1  A    between atoms: C_5  and  O_28
    2  A    between atoms: C_8  and  C_26
    3  A    between atoms: C_16  and  C_47
    4  A    between atoms: C_19  and  C_34
    5  A    between atoms: C_19  and  C_35
    6  A    between atoms: C_19  and  C_52
    7  A    between atoms: C_21  and  C_23
    8  A    between atoms: C_22  and  C_23
    9  A    between atoms: C_26  and  C_44
   10  A    between atoms: O_28  and  C_32
   11  A    between atoms: C_29  and  C_44
   12  A    between atoms: C_38  and  C_47
   13  A    between atoms: C_42  and  C_48
                            x       y       z     vdW  Elec       q    Type
                         _______ _______ _______ _____ _____    ______ ____

>  <TORSDO>
F 13

$$$$
=
 OpenBabel11062418383D

 55 62  0  0  1  0  0  0  0  0999 V2000
  193.3490  174.0890  142.4310 C   0  0  2  0  0  3  0  0  0  0  0  0
  195.0720  174.7910  140.9230 O   0  0  0  0  0  0  0  0  0  0  0  0
  194.6150  174.3260  143.2120 C   0  0  1  0  0  3  0  0  0  0  0  0
  195.5100  175.0580  142.2390 C   0  0  0  0  0  2  0  0  0  0  0  0
  193.9680  173.9320  141.0500 C   0  0  2  0  0  3  0  0  0  0  0  0
  192.3310  175.2430  142.5880 C   0  0  1  0  0  3  0  0  0  0  0  0
  192.7020  176.4000  141.9020 O   0  0  0  0  0  1  0  0  0  0  0  0
  190.9300  174.8040  142.2080 C   0  0  0  0  0  2  0  0  0  0  0  0
  188.5370  175.4770  142.2060 C   0  0  1  0  0  3  0  0  0  0  0  0
  188.1650  175.8600  140.8870 O   0  0  0  0  0  0  0  0  0  0  0  0
  185.9760  177.1440  145.2820 C   0  0  1  0  0  3  0  0  0  0  0  0
  184.1930  178.5580  144.4450 O   0  0  0  0  0  1  0  0  0  0  0  0
  187.1490  176.8020  140.9200 C   0  0  0  0  0  0  0  0  0  0  0  0
  185.4860  178.1090  144.1680 C   0  0  2  0  0  3  0  0  0  0  0  0
  189.9580  176.1820  144.3790 S   0  0  0  0  0  0  0  0  0  0  0  0
  186.5780  177.2410  139.8850 O   0  0  0  0  0  0  0  0  0  0  0  0
  188.3430  176.9880  144.1840 C   0  0  2  0  0  3  0  0  0  0  0  0
  189.9500  175.9000  142.5760 C   0  0  1  0  0  3  0  0  0  0  0  0
  185.4880  177.4590  142.7680 C   0  0  0  0  0  2  0  0  0  0  0  0
  187.5210  177.1040  145.4730 C   0  0  0  0  0  2  0  0  0  0  0  0
  186.9190  177.3070  142.2880 C   0  0  1  0  0  3  0  0  0  0  0  0
  187.5890  176.2440  143.1210 C   0  0  1  0  0  3  0  0  0  0  0  0
  185.3550  177.4620  146.5260 O   0  0  0  0  0  0  0  0  0  0  0  0
  186.3510  178.9930  147.9840 C   0  0  0  0  0  0  0  0  0  0  0  0
  187.2100  179.2360  148.8450 O   0  0  0  0  0  0  0  0  0  0  0  0
  185.4480  178.7370  147.0780 C   0  0  0  0  0  3  0  0  0  0  0  0
  193.0830  173.8370  139.7900 C   0  0  1  0  0  3  0  0  0  0  0  0
  194.3510  173.2160  135.3710 O   0  0  0  0  0  0  0  0  0  0  0  0
  194.5000  173.4590  137.7210 C   0  0  2  0  0  3  0  0  0  0  0  0
  195.9300  173.6800  137.8020 N   0  0  0  0  0  1  0  0  0  0  0  0
  192.8250  175.2030  137.7980 O   0  0  0  0  0  0  0  0  0  0  0  0
  193.4730  175.9820  135.7420 O   0  0  0  0  0  1  0  0  0  0  0  0
  194.0120  173.7930  136.3920 C   0  0  0  0  0  0  0  0  0  0  0  0
  193.0100  174.8650  136.4410 C   0  0  1  0  0  3  0  0  0  0  0  0
  193.7730  174.4860  138.5780 C   0  0  1  0  0  3  0  0  0  0  0  0
  190.7590  171.1410  138.3250 N   0  0  0  0  0  2  0  0  0  0  0  0
  191.3780  170.4950  140.5530 C   0  0  1  0  0  3  0  0  0  0  0  0
  190.6790  170.1380  141.7070 O   0  0  0  0  0  1  0  0  0  0  0  0
  192.6000  172.4100  139.4920 C   0  0  2  0  0  3  0  0  0  0  0  0
  191.1380  172.3410  139.0650 C   0  0  2  0  0  0  0  0  0  0  0  0
  190.5680  170.1050  139.3310 C   0  0  2  0  0  3  0  0  0  0  0  0
  191.5080  171.9990  140.4850 C   0  0  1  0  0  3  0  0  0  0  0  0
  192.1780  168.1660  139.3270 N   0  0  0  0  0  1  0  0  0  0  0  0
  190.3620  168.2000  137.8890 O   0  0  0  0  0  0  0  0  0  0  0  0
  190.9930  168.7670  138.8180 C   0  0  0  0  0  0  0  0  0  0  0  0
  190.2710  173.5910  138.9100 C   0  0  0  0  0  2  0  0  0  0  0  0
  188.2850  172.6920  139.8730 O   0  0  0  0  0  1  0  0  0  0  0  0
  188.8200  173.2470  138.8810 C   0  0  0  0  0  0  0  0  0  0  0  0
  188.0610  173.5150  137.7480 O   0  0  0  0  0  0  0  0  0  0  0  0
  194.4570  175.0500  144.5460 C   0  0  0  0  0  2  0  0  0  0  0  0
  197.1760  173.3510  146.2630 C   0  0  0  0  0  2  0  0  0  0  0  0
  195.1860  174.2940  145.6490 C   0  0  1  0  0  3  0  0  0  0  0  0
  194.8120  172.5260  145.5770 S   0  0  0  0  0  0  0  0  0  0  0  0
  196.4970  172.1160  145.9290 N   0  0  0  0  0  2  0  0  0  0  0  0
  196.6240  174.4440  145.4890 N   0  0  0  0  0  2  0  0  0  0  0  0
  1  6  1  6  0  0  0
  1  3  1  0  0  0  0
  2  5  1  0  0  0  0
  2  4  1  0  0  0  0
  3 50  1  1  0  0  0
  4  3  1  0  0  0  0
  5 27  1  6  0  0  0
  5  1  1  0  0  0  0
  6  7  1  6  0  0  0
  8  6  1  0  0  0  0
  9 10  1  6  0  0  0
  9 18  1  0  0  0  0
  9 22  1  0  0  0  0
 10 13  1  0  0  0  0
 11 20  1  0  0  0  0
 11 23  1  1  0  0  0
 13 21  1  0  0  0  0
 14 12  1  1  0  0  0
 14 11  1  0  0  0  0
 16 13  2  0  0  0  0
 17 15  1  0  0  0  0
 17 20  1  1  0  0  0
 18  8  1  1  0  0  0
 18 15  1  0  0  0  0
 19 14  1  0  0  0  0
 21 19  1  1  0  0  0
 21 22  1  0  0  0  0
 22 17  1  0  0  0  0
 23 26  1  0  0  0  0
 24 25  2  0  0  0  0
 26 24  2  0  0  0  0
 28 33  2  0  0  0  0
 29 30  1  0  0  0  0
 29 35  1  0  0  0  0
 31 35  1  0  0  0  0
 32 34  1  0  0  0  0
 33 34  1  0  0  0  0
 33 29  1  0  0  0  0
 34 31  1  0  0  0  0
 35 27  1  0  0  0  0
 36 40  1  0  0  0  0
 36 41  1  0  0  0  0
 37 38  1  0  0  0  0
 39 27  1  0  0  0  0
 39 42  1  0  0  0  0
 40 39  1  0  0  0  0
 40 42  1  0  0  0  0
 41 37  1  0  0  0  0
 42 37  1  0  0  0  0
 44 45  2  0  0  0  0
 45 43  1  0  0  0  0
 45 41  1  0  0  0  0
 46 40  1  0  0  0  0
 48 46  1  0  0  0  0
 48 47  1  0  0  0  0
 49 48  2  0  0  0  0
 50 52  1  0  0  0  0
 53 52  1  0  0  0  0
 53 54  1  0  0  0  0
 54 51  1  0  0  0  0
 55 52  1  0  0  0  0
 55 51  1  0  0  0  0
M  END
>  <MODEL>
4

>  <REMARK>
 VINA RESULT:      -6.5      3.234      7.300
  Name = 
  13 active torsions:
  status: ('A' for Active; 'I' for Inactive)
    1  A    between atoms: C_5  and  O_28
    2  A    between atoms: C_8  and  C_26
    3  A    between atoms: C_16  and  C_47
    4  A    between atoms: C_19  and  C_34
    5  A    between atoms: C_19  and  C_35
    6  A    between atoms: C_19  and  C_52
    7  A    between atoms: C_21  and  C_23
    8  A    between atoms: C_22  and  C_23
    9  A    between atoms: C_26  and  C_44
   10  A    between atoms: O_28  and  C_32
   11  A    between atoms: C_29  and  C_44
   12  A    between atoms: C_38  and  C_47
   13  A    between atoms: C_42  and  C_48
                            x       y       z     vdW  Elec       q    Type
                         _______ _______ _______ _____ _____    ______ ____

>  <TORSDO>
F 13

$$$$
=
 OpenBabel11062418383D

 55 62  0  0  1  0  0  0  0  0999 V2000
  195.1410  173.4760  142.0810 C   0  0  2  0  0  3  0  0  0  0  0  0
  197.1560  173.0830  140.8470 O   0  0  0  0  0  0  0  0  0  0  0  0
  196.2150  173.0140  143.0310 C   0  0  1  0  0  3  0  0  0  0  0  0
  197.4850  173.1120  142.2200 C   0  0  0  0  0  2  0  0  0  0  0  0
  195.7570  172.9640  140.7880 C   0  0  2  0  0  3  0  0  0  0  0  0
  194.8990  175.0020  142.1570 C   0  0  1  0  0  3  0  0  0  0  0  0
  195.8990  175.7480  141.5330 O   0  0  0  0  0  1  0  0  0  0  0  0
  193.5260  175.3730  141.6310 C   0  0  0  0  0  2  0  0  0  0  0  0
  192.2880  176.4110  143.5200 C   0  0  1  0  0  3  0  0  0  0  0  0
  193.1580  176.5170  144.6410 O   0  0  0  0  0  0  0  0  0  0  0  0
  188.0830  176.4450  144.5800 C   0  0  1  0  0  3  0  0  0  0  0  0
  187.6500  176.6290  146.9590 O   0  0  0  0  0  1  0  0  0  0  0  0
  192.4390  176.4600  145.8250 C   0  0  0  0  0  0  0  0  0  0  0  0
  188.5800  176.1650  146.0250 C   0  0  2  0  0  3  0  0  0  0  0  0
  190.8830  174.7050  141.9860 S   0  0  0  0  0  0  0  0  0  0  0  0
  192.9620  176.6190  146.9610 O   0  0  0  0  0  0  0  0  0  0  0  0
  190.1260  175.1640  143.5700 C   0  0  2  0  0  3  0  0  0  0  0  0
  192.4980  175.1360  142.7190 C   0  0  1  0  0  3  0  0  0  0  0  0
  189.9450  176.8190  146.3280 C   0  0  0  0  0  2  0  0  0  0  0  0
  188.6220  175.4560  143.5050 C   0  0  0  0  0  2  0  0  0  0  0  0
  191.0360  176.0660  145.5900 C   0  0  1  0  0  3  0  0  0  0  0  0
  190.8860  176.3370  144.1150 C   0  0  1  0  0  3  0  0  0  0  0  0
  186.6580  176.4610  144.5360 O   0  0  0  0  0  0  0  0  0  0  0  0
  185.8690  178.6520  144.3320 C   0  0  0  0  0  0  0  0  0  0  0  0
  185.7780  179.7960  144.8020 O   0  0  0  0  0  0  0  0  0  0  0  0
  185.9650  177.4480  143.8390 C   0  0  0  0  0  3  0  0  0  0  0  0
  195.1420  173.3240  139.4190 C   0  0  1  0  0  3  0  0  0  0  0  0
  196.2590  173.7210  134.9350 O   0  0  0  0  0  0  0  0  0  0  0  0
  196.2470  172.9400  137.1690 C   0  0  2  0  0  3  0  0  0  0  0  0
  197.4810  172.1800  137.1160 N   0  0  0  0  0  1  0  0  0  0  0  0
  196.0310  175.1610  138.1040 O   0  0  0  0  0  0  0  0  0  0  0  0
  197.2620  176.0540  136.3880 O   0  0  0  0  0  1  0  0  0  0  0  0
  196.2360  173.9600  136.1320 C   0  0  0  0  0  0  0  0  0  0  0  0
  196.1250  175.3070  136.7030 C   0  0  1  0  0  3  0  0  0  0  0  0
  196.2240  173.7910  138.4310 C   0  0  1  0  0  3  0  0  0  0  0  0
  192.3730  171.8150  137.2120 N   0  0  0  0  0  2  0  0  0  0  0  0
  192.2570  170.8070  139.3870 C   0  0  1  0  0  3  0  0  0  0  0  0
  191.2580  170.6430  140.3470 O   0  0  0  0  0  1  0  0  0  0  0  0
  194.2620  172.2080  138.8360 C   0  0  2  0  0  3  0  0  0  0  0  0
  192.9880  172.7240  138.1750 C   0  0  2  0  0  0  0  0  0  0  0  0
  191.6300  170.8470  138.0060 C   0  0  2  0  0  3  0  0  0  0  0  0
  192.9160  172.1540  139.5680 C   0  0  1  0  0  3  0  0  0  0  0  0
  190.5460  168.6180  137.5460 N   0  0  0  0  0  1  0  0  0  0  0  0
  192.6720  169.0870  136.7540 O   0  0  0  0  0  0  0  0  0  0  0  0
  191.6550  169.4930  137.3730 C   0  0  0  0  0  0  0  0  0  0  0  0
  192.6660  174.2140  138.0720 C   0  0  0  0  0  2  0  0  0  0  0  0
  192.8120  174.8370  135.7770 O   0  0  0  0  0  0  0  0  0  0  0  0
  192.0680  174.5520  136.7480 C   0  0  0  0  0  0  0  0  0  0  0  0
  190.6870  174.5780  136.5910 O   0  0  0  0  0  1  0  0  0  0  0  0
  196.2940  173.7510  144.3660 C   0  0  0  0  0  2  0  0  0  0  0  0
  196.5460  170.6460  146.2440 C   0  0  0  0  0  2  0  0  0  0  0  0
  196.1230  172.7730  145.5220 C   0  0  1  0  0  3  0  0  0  0  0  0
  194.4770  172.0250  145.4980 S   0  0  0  0  0  0  0  0  0  0  0  0
  195.1470  170.4450  145.9280 N   0  0  0  0  0  2  0  0  0  0  0  0
  197.0950  171.6970  145.4120 N   0  0  0  0  0  2  0  0  0  0  0  0
  1  6  1  6  0  0  0
  1  3  1  0  0  0  0
  2  4  1  0  0  0  0
  3 50  1  1  0  0  0
  4  3  1  0  0  0  0
  5 27  1  6  0  0  0
  5  2  1  0  0  0  0
  5  1  1  0  0  0  0
  6  7  1  6  0  0  0
  8  6  1  0  0  0  0
  9 22  1  0  0  0  0
  9 10  1  1  0  0  0
 10 13  1  0  0  0  0
 11 23  1  1  0  0  0
 11 14  1  0  0  0  0
 13 16  2  0  0  0  0
 14 19  1  0  0  0  0
 14 12  1  1  0  0  0
 15 18  1  0  0  0  0
 15 17  1  0  0  0  0
 17 20  1  6  0  0  0
 17 22  1  0  0  0  0
 18  8  1  6  0  0  0
 18  9  1  0  0  0  0
 20 11  1  0  0  0  0
 21 13  1  0  0  0  0
 21 19  1  1  0  0  0
 22 21  1  0  0  0  0
 24 25  2  0  0  0  0
 26 24  2  0  0  0  0
 26 23  1  0  0  0  0
 28 33  2  0  0  0  0
 29 35  1  0  0  0  0
 30 29  1  0  0  0  0
 31 35  1  0  0  0  0
 32 34  1  0  0  0  0
 33 34  1  0  0  0  0
 33 29  1  0  0  0  0
 34 31  1  0  0  0  0
 35 27  1  0  0  0  0
 36 41  1  0  0  0  0
 36 40  1  0  0  0  0
 37 42  1  0  0  0  0
 37 38  1  0  0  0  0
 39 27  1  0  0  0  0
 39 42  1  0  0  0  0
 40 39  1  0  0  0  0
 40 42  1  0  0  0  0
 41 37  1  0  0  0  0
 44 45  2  0  0  0  0
 45 43  1  0  0  0  0
 45 41  1  0  0  0  0
 46 40  1  0  0  0  0
 47 48  2  0  0  0  0
 48 46  1  0  0  0  0
 49 48  1  0  0  0  0
 50 52  1  0  0  0  0
 53 52  1  0  0  0  0
 53 54  1  0  0  0  0
 54 51  1  0  0  0  0
 55 52  1  0  0  0  0
 55 51  1  0  0  0  0
M  END
>  <MODEL>
5

>  <REMARK>
 VINA RESULT:      -6.4      3.634      7.334
  Name = 
  13 active torsions:
  status: ('A' for Active; 'I' for Inactive)
    1  A    between atoms: C_5  and  O_28
    2  A    between atoms: C_8  and  C_26
    3  A    between atoms: C_16  and  C_47
    4  A    between atoms: C_19  and  C_34
    5  A    between atoms: C_19  and  C_35
    6  A    between atoms: C_19  and  C_52
    7  A    between atoms: C_21  and  C_23
    8  A    between atoms: C_22  and  C_23
    9  A    between atoms: C_26  and  C_44
   10  A    between atoms: O_28  and  C_32
   11  A    between atoms: C_29  and  C_44
   12  A    between atoms: C_38  and  C_47
   13  A    between atoms: C_42  and  C_48
                            x       y       z     vdW  Elec       q    Type
                         _______ _______ _______ _____ _____    ______ ____

>  <TORSDO>
F 13

$$$$
=
 OpenBabel11062418383D

 55 62  0  0  1  0  0  0  0  0999 V2000
  192.9450  174.2960  143.2490 C   0  0  2  0  0  3  0  0  0  0  0  0
  195.3390  174.3760  143.2810 O   0  0  0  0  0  0  0  0  0  0  0  0
  193.4130  174.3650  144.6790 C   0  0  1  0  0  3  0  0  0  0  0  0
  194.8740  174.7340  144.5650 C   0  0  0  0  0  2  0  0  0  0  0  0
  194.2390  173.8050  142.6180 C   0  0  2  0  0  3  0  0  0  0  0  0
  192.4130  175.6530  142.7320 C   0  0  1  0  0  3  0  0  0  0  0  0
  193.4000  176.4390  142.1350 O   0  0  0  0  0  1  0  0  0  0  0  0
  191.2230  175.4690  141.8100 C   0  0  0  0  0  2  0  0  0  0  0  0
  189.7460  177.0270  143.0610 C   0  0  1  0  0  3  0  0  0  0  0  0
  190.3370  177.3120  144.3240 O   0  0  0  0  0  0  0  0  0  0  0  0
  185.4620  177.6920  142.9630 C   0  0  1  0  0  3  0  0  0  0  0  0
  184.5190  178.4640  145.0600 O   0  0  0  0  0  1  0  0  0  0  0  0
  189.3620  177.5980  145.2670 C   0  0  0  0  0  0  0  0  0  0  0  0
  185.5620  177.7120  144.5130 C   0  0  2  0  0  3  0  0  0  0  0  0
  188.5020  175.1470  141.5940 S   0  0  0  0  0  0  0  0  0  0  0  0
  189.6230  177.9690  146.4430 O   0  0  0  0  0  0  0  0  0  0  0  0
  187.4720  176.0290  142.8000 C   0  0  2  0  0  3  0  0  0  0  0  0
  189.9470  175.5870  142.6180 C   0  0  1  0  0  3  0  0  0  0  0  0
  186.9000  178.2910  145.0210 C   0  0  0  0  0  2  0  0  0  0  0  0
  186.0850  176.4340  142.2890 C   0  0  0  0  0  2  0  0  0  0  0  0
  188.0090  177.2900  144.7610 C   0  0  1  0  0  3  0  0  0  0  0  0
  188.2490  177.2220  143.2740 C   0  0  1  0  0  3  0  0  0  0  0  0
  184.1040  177.8270  142.5490 O   0  0  0  0  0  0  0  0  0  0  0  0
  182.5340  178.3800  140.9080 C   0  0  0  0  0  0  0  0  0  0  0  0
  181.3520  178.5900  140.5970 O   0  0  0  0  0  0  0  0  0  0  0  0
  183.7770  178.1590  141.2360 C   0  0  0  0  0  3  0  0  0  0  0  0
  194.3920  173.7190  141.0850 C   0  0  1  0  0  3  0  0  0  0  0  0
  197.9080  172.6150  138.2690 O   0  0  0  0  0  0  0  0  0  0  0  0
  196.6310  172.8750  140.2440 C   0  0  2  0  0  3  0  0  0  0  0  0
  197.7030  172.6660  141.1970 N   0  0  0  0  0  1  0  0  0  0  0  0
  195.7710  175.0380  139.5830 O   0  0  0  0  0  0  0  0  0  0  0  0
  197.7190  175.5270  138.4770 O   0  0  0  0  0  1  0  0  0  0  0  0
  197.1710  173.2980  138.9610 C   0  0  0  0  0  0  0  0  0  0  0  0
  196.6620  174.6190  138.5720 C   0  0  1  0  0  3  0  0  0  0  0  0
  195.8170  174.0970  140.6470 C   0  0  1  0  0  3  0  0  0  0  0  0
  193.0500  171.3170  138.3930 N   0  0  0  0  0  2  0  0  0  0  0  0
  191.9840  170.8050  140.4810 C   0  0  1  0  0  3  0  0  0  0  0  0
  190.6610  170.6880  140.9120 O   0  0  0  0  0  1  0  0  0  0  0  0
  193.9410  172.3700  140.5040 C   0  0  2  0  0  3  0  0  0  0  0  0
  193.0990  172.5060  139.2400 C   0  0  2  0  0  0  0  0  0  0  0  0
  192.0710  170.4350  139.0120 C   0  0  2  0  0  3  0  0  0  0  0  0
  192.4140  172.2500  140.5580 C   0  0  1  0  0  3  0  0  0  0  0  0
  193.6570  168.5240  139.4450 N   0  0  0  0  0  1  0  0  0  0  0  0
  191.7740  168.2260  138.1280 O   0  0  0  0  0  0  0  0  0  0  0  0
  192.4550  169.0000  138.8490 C   0  0  0  0  0  0  0  0  0  0  0  0
  192.7880  173.8610  138.6050 C   0  0  0  0  0  2  0  0  0  0  0  0
  190.5480  173.6560  137.8190 O   0  0  0  0  0  1  0  0  0  0  0  0
  191.7670  173.7350  137.5250 C   0  0  0  0  0  0  0  0  0  0  0  0
  192.1600  173.6780  136.1940 O   0  0  0  0  0  0  0  0  0  0  0  0
  192.6280  175.2960  145.5990 C   0  0  0  0  0  2  0  0  0  0  0  0
  189.3950  173.9930  146.6360 C   0  0  0  0  0  2  0  0  0  0  0  0
  191.6110  174.5040  146.4120 C   0  0  1  0  0  3  0  0  0  0  0  0
  191.1650  175.3880  147.9250 S   0  0  0  0  0  0  0  0  0  0  0  0
  189.4640  174.9380  147.7310 N   0  0  0  0  0  2  0  0  0  0  0  0
  190.3930  174.3170  145.6390 N   0  0  0  0  0  2  0  0  0  0  0  0
  1  6  1  6  0  0  0
  1  3  1  0  0  0  0
  2  4  1  0  0  0  0
  3 50  1  1  0  0  0
  4  3  1  0  0  0  0
  5 27  1  6  0  0  0
  5  1  1  0  0  0  0
  5  2  1  0  0  0  0
  6  7  1  6  0  0  0
  8  6  1  0  0  0  0
  9 22  1  0  0  0  0
  9 10  1  1  0  0  0
 10 13  1  0  0  0  0
 11 23  1  1  0  0  0
 11 14  1  0  0  0  0
 13 16  2  0  0  0  0
 14 19  1  0  0  0  0
 14 12  1  1  0  0  0
 15 18  1  0  0  0  0
 15 17  1  0  0  0  0
 17 20  1  6  0  0  0
 17 22  1  0  0  0  0
 18  8  1  6  0  0  0
 18  9  1  0  0  0  0
 20 11  1  0  0  0  0
 21 19  1  6  0  0  0
 21 13  1  0  0  0  0
 22 21  1  0  0  0  0
 24 26  2  0  0  0  0
 25 24  2  0  0  0  0
 26 23  1  0  0  0  0
 28 33  2  0  0  0  0
 29 35  1  0  0  0  0
 29 30  1  0  0  0  0
 31 35  1  0  0  0  0
 32 34  1  0  0  0  0
 33 29  1  0  0  0  0
 34 33  1  0  0  0  0
 34 31  1  0  0  0  0
 35 27  1  0  0  0  0
 36 41  1  0  0  0  0
 36 40  1  0  0  0  0
 37 42  1  0  0  0  0
 37 38  1  0  0  0  0
 39 42  1  0  0  0  0
 39 27  1  0  0  0  0
 40 39  1  0  0  0  0
 40 42  1  0  0  0  0
 41 37  1  0  0  0  0
 44 45  2  0  0  0  0
 45 41  1  0  0  0  0
 45 43  1  0  0  0  0
 46 40  1  0  0  0  0
 48 47  1  0  0  0  0
 48 46  1  0  0  0  0
 49 48  2  0  0  0  0
 50 52  1  0  0  0  0
 51 54  1  0  0  0  0
 52 53  1  0  0  0  0
 54 53  1  0  0  0  0
 55 52  1  0  0  0  0
 55 51  1  0  0  0  0
M  END
>  <MODEL>
6

>  <REMARK>
 VINA RESULT:      -6.4      3.070      6.038
  Name = 
  13 active torsions:
  status: ('A' for Active; 'I' for Inactive)
    1  A    between atoms: C_5  and  O_28
    2  A    between atoms: C_8  and  C_26
    3  A    between atoms: C_16  and  C_47
    4  A    between atoms: C_19  and  C_34
    5  A    between atoms: C_19  and  C_35
    6  A    between atoms: C_19  and  C_52
    7  A    between atoms: C_21  and  C_23
    8  A    between atoms: C_22  and  C_23
    9  A    between atoms: C_26  and  C_44
   10  A    between atoms: O_28  and  C_32
   11  A    between atoms: C_29  and  C_44
   12  A    between atoms: C_38  and  C_47
   13  A    between atoms: C_42  and  C_48
                            x       y       z     vdW  Elec       q    Type
                         _______ _______ _______ _____ _____    ______ ____

>  <TORSDO>
F 13

$$$$
=
 OpenBabel11062418383D

 55 62  0  0  1  0  0  0  0  0999 V2000
  190.8910  173.4560  140.2570 C   0  0  2  0  0  3  0  0  0  0  0  0
  191.0460  171.0720  140.1020 O   0  0  0  0  0  0  0  0  0  0  0  0
  190.2850  173.0110  138.9520 C   0  0  1  0  0  3  0  0  0  0  0  0
  190.1460  171.5150  139.1080 C   0  0  0  0  0  2  0  0  0  0  0  0
  191.7260  172.2190  140.5460 C   0  0  2  0  0  3  0  0  0  0  0  0
  189.8200  173.8130  141.3160 C   0  0  1  0  0  3  0  0  0  0  0  0
  189.6190  172.8010  142.2560 O   0  0  0  0  0  1  0  0  0  0  0  0
  190.1250  175.1370  141.9900 C   0  0  0  0  0  2  0  0  0  0  0  0
  189.5330  176.6070  143.9040 C   0  0  1  0  0  3  0  0  0  0  0  0
  190.5430  176.5000  144.9010 O   0  0  0  0  0  0  0  0  0  0  0  0
  185.7250  177.9990  145.4420 C   0  0  1  0  0  3  0  0  0  0  0  0
  185.7060  178.4360  147.8270 O   0  0  0  0  0  1  0  0  0  0  0  0
  190.0150  176.7310  146.1610 C   0  0  0  0  0  0  0  0  0  0  0  0
  186.3120  177.6570  146.8380 C   0  0  2  0  0  3  0  0  0  0  0  0
  187.4810  175.3400  142.7130 S   0  0  0  0  0  0  0  0  0  0  0  0
  190.7150  176.7820  147.2070 O   0  0  0  0  0  0  0  0  0  0  0  0
  187.1260  176.0960  144.3250 C   0  0  2  0  0  3  0  0  0  0  0  0
  189.2360  175.2890  143.2080 C   0  0  1  0  0  3  0  0  0  0  0  0
  187.8390  177.8720  146.9160 C   0  0  0  0  0  2  0  0  0  0  0  0
  185.7860  176.8350  144.4090 C   0  0  0  0  0  2  0  0  0  0  0  0
  188.5390  176.7790  146.1300 C   0  0  1  0  0  3  0  0  0  0  0  0
  188.2720  177.0030  144.6640 C   0  0  1  0  0  3  0  0  0  0  0  0
  184.3790  178.4530  145.5640 O   0  0  0  0  0  0  0  0  0  0  0  0
  183.7000  178.7270  143.3440 C   0  0  0  0  0  0  0  0  0  0  0  0
  183.6320  178.2760  142.1910 O   0  0  0  0  0  0  0  0  0  0  0  0
  183.7720  179.2010  144.5580 C   0  0  0  0  0  3  0  0  0  0  0  0
  192.4510  172.0480  141.8970 C   0  0  1  0  0  3  0  0  0  0  0  0
  195.3240  168.7210  143.3770 O   0  0  0  0  0  0  0  0  0  0  0  0
  193.9280  169.9870  141.9460 C   0  0  2  0  0  3  0  0  0  0  0  0
  193.7950  169.0060  140.8870 N   0  0  0  0  0  1  0  0  0  0  0  0
  192.2780  170.3940  143.6680 O   0  0  0  0  0  0  0  0  0  0  0  0
  192.7030  168.3550  144.6240 O   0  0  0  0  0  1  0  0  0  0  0  0
  194.2850  169.3360  143.1960 C   0  0  0  0  0  0  0  0  0  0  0  0
  193.2720  169.5690  144.2330 C   0  0  1  0  0  3  0  0  0  0  0  0
  192.5600  170.5640  142.2850 C   0  0  1  0  0  3  0  0  0  0  0  0
  195.2700  174.1230  143.4970 N   0  0  0  0  0  2  0  0  0  0  0  0
  194.9220  174.9010  141.2530 C   0  0  1  0  0  3  0  0  0  0  0  0
  194.6600  176.1400  140.6670 O   0  0  0  0  0  1  0  0  0  0  0  0
  193.8070  172.7680  141.9540 C   0  0  2  0  0  3  0  0  0  0  0  0
  193.9100  173.7750  143.0940 C   0  0  2  0  0  0  0  0  0  0  0  0
  195.7300  175.1020  142.5220 C   0  0  2  0  0  3  0  0  0  0  0  0
  193.6250  174.2680  141.6990 C   0  0  1  0  0  3  0  0  0  0  0  0
  197.7580  173.6480  142.1700 N   0  0  0  0  0  1  0  0  0  0  0  0
  197.9410  175.9570  142.1660 O   0  0  0  0  0  0  0  0  0  0  0  0
  197.1910  174.9510  142.2490 C   0  0  0  0  0  0  0  0  0  0  0  0
  192.7790  173.9940  144.0980 C   0  0  0  0  0  2  0  0  0  0  0  0
  193.0660  174.5520  146.3970 O   0  0  0  0  0  1  0  0  0  0  0  0
  193.2220  173.6960  145.4910 C   0  0  0  0  0  0  0  0  0  0  0  0
  193.8300  172.4820  145.7860 O   0  0  0  0  0  0  0  0  0  0  0  0
  188.9840  173.6970  138.5450 C   0  0  0  0  0  2  0  0  0  0  0  0
  190.0160  174.6680  135.1960 C   0  0  0  0  0  2  0  0  0  0  0  0
  188.9200  173.8590  137.0320 C   0  0  1  0  0  3  0  0  0  0  0  0
  187.9060  175.2860  136.5760 S   0  0  0  0  0  0  0  0  0  0  0  0
  189.0490  175.7400  135.3040 N   0  0  0  0  0  2  0  0  0  0  0  0
  190.2550  174.0830  136.4990 N   0  0  0  0  0  2  0  0  0  0  0  0
  1  5  1  0  0  0  0
  1  6  1  1  0  0  0
  2  5  1  0  0  0  0
  3 50  1  1  0  0  0
  3  4  1  0  0  0  0
  3  1  1  0  0  0  0
  4  2  1  0  0  0  0
  5 27  1  1  0  0  0
  6  8  1  0  0  0  0
  6  7  1  1  0  0  0
  9 22  1  0  0  0  0
  9 10  1  1  0  0  0
 10 13  1  0  0  0  0
 11 23  1  1  0  0  0
 11 14  1  0  0  0  0
 13 16  2  0  0  0  0
 14 19  1  0  0  0  0
 14 12  1  1  0  0  0
 15 18  1  0  0  0  0
 15 17  1  0  0  0  0
 17 20  1  6  0  0  0
 17 22  1  0  0  0  0
 18  8  1  6  0  0  0
 18  9  1  0  0  0  0
 20 11  1  0  0  0  0
 21 13  1  0  0  0  0
 21 19  1  1  0  0  0
 22 21  1  0  0  0  0
 24 26  2  0  0  0  0
 25 24  2  0  0  0  0
 26 23  1  0  0  0  0
 27 39  1  0  0  0  0
 27 35  1  0  0  0  0
 29 35  1  0  0  0  0
 29 33  1  0  0  0  0
 30 29  1  0  0  0  0
 31 34  1  0  0  0  0
 33 28  2  0  0  0  0
 33 34  1  0  0  0  0
 34 32  1  0  0  0  0
 35 31  1  0  0  0  0
 37 42  1  0  0  0  0
 37 41  1  0  0  0  0
 38 37  1  0  0  0  0
 39 40  1  0  0  0  0
 40 36  1  0  0  0  0
 40 46  1  0  0  0  0
 41 36  1  0  0  0  0
 42 39  1  0  0  0  0
 42 40  1  0  0  0  0
 43 45  1  0  0  0  0
 44 45  2  0  0  0  0
 45 41  1  0  0  0  0
 46 48  1  0  0  0  0
 48 49  2  0  0  0  0
 48 47  1  0  0  0  0
 51 54  1  0  0  0  0
 51 55  1  0  0  0  0
 52 50  1  0  0  0  0
 53 52  1  0  0  0  0
 54 53  1  0  0  0  0
 55 52  1  0  0  0  0
M  END
>  <MODEL>
7

>  <REMARK>
 VINA RESULT:      -6.4      1.909      2.462
  Name = 
  13 active torsions:
  status: ('A' for Active; 'I' for Inactive)
    1  A    between atoms: C_5  and  O_28
    2  A    between atoms: C_8  and  C_26
    3  A    between atoms: C_16  and  C_47
    4  A    between atoms: C_19  and  C_34
    5  A    between atoms: C_19  and  C_35
    6  A    between atoms: C_19  and  C_52
    7  A    between atoms: C_21  and  C_23
    8  A    between atoms: C_22  and  C_23
    9  A    between atoms: C_26  and  C_44
   10  A    between atoms: O_28  and  C_32
   11  A    between atoms: C_29  and  C_44
   12  A    between atoms: C_38  and  C_47
   13  A    between atoms: C_42  and  C_48
                            x       y       z     vdW  Elec       q    Type
                         _______ _______ _______ _____ _____    ______ ____

>  <TORSDO>
F 13

$$$$
=
 OpenBabel11062418383D

 55 62  0  0  1  0  0  0  0  0999 V2000
  190.7860  173.4800  139.2520 C   0  0  2  0  0  3  0  0  0  0  0  0
  192.4170  172.5150  137.7870 O   0  0  0  0  0  0  0  0  0  0  0  0
  190.4270  173.8200  137.8280 C   0  0  1  0  0  3  0  0  0  0  0  0
  191.3100  172.9110  137.0060 C   0  0  0  0  0  2  0  0  0  0  0  0
  192.2530  173.1420  139.0340 C   0  0  2  0  0  3  0  0  0  0  0  0
  189.9080  172.3450  139.8300 C   0  0  1  0  0  3  0  0  0  0  0  0
  190.2640  171.0810  139.3580 O   0  0  0  0  0  1  0  0  0  0  0  0
  189.8840  172.3790  141.3460 C   0  0  0  0  0  2  0  0  0  0  0  0
  188.2320  174.1920  141.7470 C   0  0  1  0  0  3  0  0  0  0  0  0
  187.8490  174.7550  140.4970 O   0  0  0  0  0  0  0  0  0  0  0  0
  187.5740  176.8430  145.1150 C   0  0  1  0  0  3  0  0  0  0  0  0
  186.6400  179.0020  144.5240 O   0  0  0  0  0  1  0  0  0  0  0  0
  187.4900  176.0850  140.6490 C   0  0  0  0  0  0  0  0  0  0  0  0
  187.4330  177.9580  144.0420 C   0  0  2  0  0  3  0  0  0  0  0  0
  190.2200  173.9910  143.5470 S   0  0  0  0  0  0  0  0  0  0  0  0
  187.0280  176.7890  139.7110 O   0  0  0  0  0  0  0  0  0  0  0  0
  189.2460  175.5210  143.6010 C   0  0  2  0  0  3  0  0  0  0  0  0
  189.7020  173.8120  141.8070 C   0  0  1  0  0  3  0  0  0  0  0  0
  186.8170  177.4460  142.7220 C   0  0  0  0  0  2  0  0  0  0  0  0
  188.8810  176.0030  145.0100 C   0  0  0  0  0  2  0  0  0  0  0  0
  187.8350  176.5910  141.9920 C   0  0  1  0  0  3  0  0  0  0  0  0
  188.0200  175.3090  142.7630 C   0  0  1  0  0  3  0  0  0  0  0  0
  187.4710  177.3960  146.4250 O   0  0  0  0  0  0  0  0  0  0  0  0
  185.3400  177.7440  147.3230 C   0  0  0  0  0  0  0  0  0  0  0  0
  184.3000  178.4180  147.3580 O   0  0  0  0  0  0  0  0  0  0  0  0
  186.4350  177.0350  147.2840 C   0  0  0  0  0  3  0  0  0  0  0  0
  193.1050  172.5390  140.1700 C   0  0  1  0  0  3  0  0  0  0  0  0
  196.9830  170.0210  140.5390 O   0  0  0  0  0  0  0  0  0  0  0  0
  195.3290  171.4470  139.6270 C   0  0  2  0  0  3  0  0  0  0  0  0
  195.7570  171.3820  138.2440 N   0  0  0  0  0  1  0  0  0  0  0  0
  193.4990  170.1750  140.5690 O   0  0  0  0  0  0  0  0  0  0  0  0
  194.6820  168.2240  140.3550 O   0  0  0  0  0  1  0  0  0  0  0  0
  195.8050  170.2840  140.3600 C   0  0  0  0  0  0  0  0  0  0  0  0
  194.6910  169.5040  140.9130 C   0  0  1  0  0  3  0  0  0  0  0  0
  193.8200  171.2580  139.7060 C   0  0  1  0  0  3  0  0  0  0  0  0
  195.4040  173.9660  142.9070 N   0  0  0  0  0  2  0  0  0  0  0  0
  194.0900  175.7560  141.9950 C   0  0  1  0  0  3  0  0  0  0  0  0
  193.2430  176.7290  142.5280 O   0  0  0  0  0  1  0  0  0  0  0  0
  194.0710  173.5490  140.8070 C   0  0  2  0  0  3  0  0  0  0  0  0
  194.1940  173.3980  142.3200 C   0  0  2  0  0  0  0  0  0  0  0  0
  195.1520  175.3960  143.0190 C   0  0  2  0  0  3  0  0  0  0  0  0
  193.3130  174.4830  141.7570 C   0  0  1  0  0  3  0  0  0  0  0  0
  197.1600  175.9670  141.6080 N   0  0  0  0  0  1  0  0  0  0  0  0
  196.8280  176.9860  143.6610 O   0  0  0  0  0  0  0  0  0  0  0  0
  196.3990  176.1860  142.7900 C   0  0  0  0  0  0  0  0  0  0  0  0
  193.4550  172.3080  143.0960 C   0  0  0  0  0  2  0  0  0  0  0  0
  193.3330  173.1910  145.3070 O   0  0  0  0  0  1  0  0  0  0  0  0
  193.8250  172.3240  144.5420 C   0  0  0  0  0  0  0  0  0  0  0  0
  194.7320  171.3980  145.0410 O   0  0  0  0  0  0  0  0  0  0  0  0
  188.9490  173.7140  137.4650 C   0  0  0  0  0  2  0  0  0  0  0  0
  189.3130  176.2260  134.8590 C   0  0  0  0  0  2  0  0  0  0  0  0
  188.6660  174.4710  136.1720 C   0  0  1  0  0  3  0  0  0  0  0  0
  187.3020  175.6380  136.3920 S   0  0  0  0  0  0  0  0  0  0  0  0
  188.1460  176.8620  135.4330 N   0  0  0  0  0  2  0  0  0  0  0  0
  189.8370  175.2350  135.7760 N   0  0  0  0  0  2  0  0  0  0  0  0
  1  6  1  6  0  0  0
  2  5  1  0  0  0  0
  3 50  1  1  0  0  0
  3  1  1  0  0  0  0
  4  2  1  0  0  0  0
  4  3  1  0  0  0  0
  5  1  1  0  0  0  0
  5 27  1  1  0  0  0
  6  7  1  1  0  0  0
  6  8  1  0  0  0  0
  9 10  1  6  0  0  0
  9 18  1  0  0  0  0
  9 22  1  0  0  0  0
 10 13  1  0  0  0  0
 11 23  1  1  0  0  0
 13 21  1  0  0  0  0
 14 12  1  1  0  0  0
 14 11  1  0  0  0  0
 15 17  1  0  0  0  0
 16 13  2  0  0  0  0
 17 20  1  1  0  0  0
 18  8  1  1  0  0  0
 18 15  1  0  0  0  0
 19 14  1  0  0  0  0
 20 11  1  0  0  0  0
 21 19  1  1  0  0  0
 21 22  1  0  0  0  0
 22 17  1  0  0  0  0
 23 26  1  0  0  0  0
 24 25  2  0  0  0  0
 26 24  2  0  0  0  0
 27 39  1  0  0  0  0
 29 35  1  0  0  0  0
 29 33  1  0  0  0  0
 30 29  1  0  0  0  0
 31 34  1  0  0  0  0
 32 34  1  0  0  0  0
 33 28  2  0  0  0  0
 33 34  1  0  0  0  0
 35 27  1  0  0  0  0
 35 31  1  0  0  0  0
 36 41  1  0  0  0  0
 37 38  1  0  0  0  0
 37 41  1  0  0  0  0
 39 42  1  0  0  0  0
 39 40  1  0  0  0  0
 40 36  1  0  0  0  0
 40 46  1  0  0  0  0
 42 37  1  0  0  0  0
 42 40  1  0  0  0  0
 43 45  1  0  0  0  0
 45 41  1  0  0  0  0
 45 44  2  0  0  0  0
 46 48  1  0  0  0  0
 48 49  2  0  0  0  0
 48 47  1  0  0  0  0
 51 54  1  0  0  0  0
 51 55  1  0  0  0  0
 52 53  1  0  0  0  0
 52 50  1  0  0  0  0
 54 53  1  0  0  0  0
 55 52  1  0  0  0  0
M  END
>  <MODEL>
8

>  <REMARK>
 VINA RESULT:      -6.2      2.424      4.012
  Name = 
  13 active torsions:
  status: ('A' for Active; 'I' for Inactive)
    1  A    between atoms: C_5  and  O_28
    2  A    between atoms: C_8  and  C_26
    3  A    between atoms: C_16  and  C_47
    4  A    between atoms: C_19  and  C_34
    5  A    between atoms: C_19  and  C_35
    6  A    between atoms: C_19  and  C_52
    7  A    between atoms: C_21  and  C_23
    8  A    between atoms: C_22  and  C_23
    9  A    between atoms: C_26  and  C_44
   10  A    between atoms: O_28  and  C_32
   11  A    between atoms: C_29  and  C_44
   12  A    between atoms: C_38  and  C_47
   13  A    between atoms: C_42  and  C_48
                            x       y       z     vdW  Elec       q    Type
                         _______ _______ _______ _____ _____    ______ ____

>  <TORSDO>
F 13

$$$$
=
 OpenBabel11062418383D

 55 62  0  0  1  0  0  0  0  0999 V2000
  195.0230  173.5220  142.0960 C   0  0  2  0  0  3  0  0  0  0  0  0
  196.8560  174.1920  140.7070 O   0  0  0  0  0  0  0  0  0  0  0  0
  196.2870  173.5150  142.9160 C   0  0  1  0  0  3  0  0  0  0  0  0
  197.2850  174.2480  142.0510 C   0  0  0  0  0  2  0  0  0  0  0  0
  195.6570  173.4580  140.7150 C   0  0  2  0  0  3  0  0  0  0  0  0
  194.1400  174.7600  142.3780 C   0  0  1  0  0  3  0  0  0  0  0  0
  193.8410  175.4950  141.2300 O   0  0  0  0  0  1  0  0  0  0  0  0
  192.8790  174.3830  143.1330 C   0  0  0  0  0  2  0  0  0  0  0  0
  190.4140  174.5340  142.8560 C   0  0  1  0  0  3  0  0  0  0  0  0
  190.0260  173.7550  141.7300 O   0  0  0  0  0  0  0  0  0  0  0  0
  187.5470  177.6130  143.9040 C   0  0  1  0  0  3  0  0  0  0  0  0
  185.5960  177.6980  142.4660 O   0  0  0  0  0  1  0  0  0  0  0  0
  188.8790  174.2720  141.1490 C   0  0  0  0  0  0  0  0  0  0  0  0
  186.9490  177.3530  142.4940 C   0  0  2  0  0  3  0  0  0  0  0  0
  191.6510  176.7890  143.6440 S   0  0  0  0  0  0  0  0  0  0  0  0
  188.2780  173.7180  140.1900 O   0  0  0  0  0  0  0  0  0  0  0  0
  189.9400  176.9760  143.0690 C   0  0  2  0  0  3  0  0  0  0  0  0
  191.7360  175.2570  142.6560 C   0  0  1  0  0  3  0  0  0  0  0  0
  187.0880  175.8820  142.0460 C   0  0  0  0  0  2  0  0  0  0  0  0
  189.0740  177.9150  143.9160 C   0  0  0  0  0  2  0  0  0  0  0  0
  188.5380  175.5970  141.7050 C   0  0  1  0  0  3  0  0  0  0  0  0
  189.3370  175.6050  142.9840 C   0  0  1  0  0  3  0  0  0  0  0  0
  186.8500  178.6750  144.5530 O   0  0  0  0  0  0  0  0  0  0  0  0
  185.6600  177.4440  146.1450 C   0  0  0  0  0  0  0  0  0  0  0  0
  185.0250  176.4200  146.4380 O   0  0  0  0  0  0  0  0  0  0  0  0
  186.3280  178.5210  145.8350 C   0  0  0  0  0  3  0  0  0  0  0  0
  194.8020  173.6180  139.4400 C   0  0  1  0  0  3  0  0  0  0  0  0
  195.4430  173.3080  134.8570 O   0  0  0  0  0  0  0  0  0  0  0  0
  195.7940  173.0320  137.1810 C   0  0  2  0  0  3  0  0  0  0  0  0
  197.1690  172.5790  137.1170 N   0  0  0  0  0  1  0  0  0  0  0  0
  195.1050  175.2910  137.7070 O   0  0  0  0  0  0  0  0  0  0  0  0
  195.9430  176.0600  135.7160 O   0  0  0  0  0  1  0  0  0  0  0  0
  195.4520  173.7810  135.9820 C   0  0  0  0  0  0  0  0  0  0  0  0
  195.0530  175.1570  136.3030 C   0  0  1  0  0  3  0  0  0  0  0  0
  195.6560  174.1010  138.2560 C   0  0  1  0  0  3  0  0  0  0  0  0
  192.0070  171.5980  137.7320 N   0  0  0  0  0  2  0  0  0  0  0  0
  192.1760  170.8930  140.0200 C   0  0  1  0  0  3  0  0  0  0  0  0
  191.2830  170.7810  141.0880 O   0  0  0  0  0  1  0  0  0  0  0  0
  193.9840  172.3640  139.0970 C   0  0  2  0  0  3  0  0  0  0  0  0
  192.6140  172.6780  138.5040 C   0  0  2  0  0  0  0  0  0  0  0  0
  191.4300  170.6900  138.7140 C   0  0  2  0  0  3  0  0  0  0  0  0
  192.7180  172.3010  139.9590 C   0  0  1  0  0  3  0  0  0  0  0  0
  190.3440  168.5670  137.8990 N   0  0  0  0  0  1  0  0  0  0  0  0
  192.6290  168.6610  138.2730 O   0  0  0  0  0  0  0  0  0  0  0  0
  191.5270  169.2690  138.2630 C   0  0  0  0  0  0  0  0  0  0  0  0
  192.1450  174.1080  138.2410 C   0  0  0  0  0  2  0  0  0  0  0  0
  189.9600  174.1380  137.2900 O   0  0  0  0  0  1  0  0  0  0  0  0
  191.2000  174.1680  137.0880 C   0  0  0  0  0  0  0  0  0  0  0  0
  191.6860  174.2310  135.7880 O   0  0  0  0  0  0  0  0  0  0  0  0
  196.1760  174.0900  144.3260 C   0  0  0  0  0  2  0  0  0  0  0  0
  197.0150  170.8470  145.7420 C   0  0  0  0  0  2  0  0  0  0  0  0
  196.2790  172.9770  145.3610 C   0  0  1  0  0  3  0  0  0  0  0  0
  194.7310  172.0500  145.4700 S   0  0  0  0  0  0  0  0  0  0  0  0
  195.6110  170.5200  145.5990 N   0  0  0  0  0  2  0  0  0  0  0  0
  197.3250  172.0400  144.9830 N   0  0  0  0  0  2  0  0  0  0  0  0
  1  6  1  6  0  0  0
  1  3  1  0  0  0  0
  2  5  1  0  0  0  0
  2  4  1  0  0  0  0
  3 50  1  1  0  0  0
  4  3  1  0  0  0  0
  5 27  1  6  0  0  0
  5  1  1  0  0  0  0
  6  7  1  6  0  0  0
  6  8  1  0  0  0  0
  9 10  1  6  0  0  0
  9 22  1  0  0  0  0
 11 20  1  0  0  0  0
 11 23  1  6  0  0  0
 13 21  1  0  0  0  0
 13 10  1  0  0  0  0
 14 12  1  1  0  0  0
 14 11  1  0  0  0  0
 16 13  2  0  0  0  0
 17 15  1  0  0  0  0
 17 20  1  1  0  0  0
 18  9  1  0  0  0  0
 18  8  1  1  0  0  0
 18 15  1  0  0  0  0
 19 14  1  0  0  0  0
 21 19  1  1  0  0  0
 21 22  1  0  0  0  0
 22 17  1  0  0  0  0
 23 26  1  0  0  0  0
 24 25  2  0  0  0  0
 26 24  2  0  0  0  0
 28 33  2  0  0  0  0
 29 35  1  0  0  0  0
 30 29  1  0  0  0  0
 31 35  1  0  0  0  0
 32 34  1  0  0  0  0
 33 34  1  0  0  0  0
 33 29  1  0  0  0  0
 34 31  1  0  0  0  0
 35 27  1  0  0  0  0
 36 40  1  0  0  0  0
 36 41  1  0  0  0  0
 37 38  1  0  0  0  0
 39 27  1  0  0  0  0
 39 42  1  0  0  0  0
 40 39  1  0  0  0  0
 40 42  1  0  0  0  0
 41 37  1  0  0  0  0
 42 37  1  0  0  0  0
 43 45  1  0  0  0  0
 45 44  2  0  0  0  0
 45 41  1  0  0  0  0
 46 40  1  0  0  0  0
 48 47  1  0  0  0  0
 48 46  1  0  0  0  0
 49 48  2  0  0  0  0
 50 52  1  0  0  0  0
 52 53  1  0  0  0  0
 53 54  1  0  0  0  0
 54 51  1  0  0  0  0
 55 52  1  0  0  0  0
 55 51  1  0  0  0  0
M  END
>  <MODEL>
9

>  <REMARK>
 VINA RESULT:      -6.2      3.588      7.315
  Name = 
  13 active torsions:
  status: ('A' for Active; 'I' for Inactive)
    1  A    between atoms: C_5  and  O_28
    2  A    between atoms: C_8  and  C_26
    3  A    between atoms: C_16  and  C_47
    4  A    between atoms: C_19  and  C_34
    5  A    between atoms: C_19  and  C_35
    6  A    between atoms: C_19  and  C_52
    7  A    between atoms: C_21  and  C_23
    8  A    between atoms: C_22  and  C_23
    9  A    between atoms: C_26  and  C_44
   10  A    between atoms: O_28  and  C_32
   11  A    between atoms: C_29  and  C_44
   12  A    between atoms: C_38  and  C_47
   13  A    between atoms: C_42  and  C_48
                            x       y       z     vdW  Elec       q    Type
                         _______ _______ _______ _____ _____    ______ ____

>  <TORSDO>
F 13

$$$$
