=
 OpenBabel11072408343D

 26 28  0  0  1  0  0  0  0  0999 V2000
  189.3900  176.2450  145.8240 C   0  0  2  0  0  3  0  0  0  0  0  0
  186.2590  178.2130  144.8600 C   0  0  0  0  0  0  0  0  0  0  0  0
  185.8110  176.9010  146.8590 C   0  0  0  0  0  3  0  0  0  0  0  0
  187.5690  177.7100  144.8530 C   0  0  0  0  0  3  0  0  0  0  0  0
  185.3760  177.7990  145.8800 C   0  0  0  0  0  0  0  0  0  0  0  0
  187.1160  176.4080  146.8390 C   0  0  0  0  0  3  0  0  0  0  0  0
  184.0710  178.2710  145.9420 O   0  0  0  0  0  1  0  0  0  0  0  0
  188.0050  176.8160  145.8410 C   0  0  0  0  0  0  0  0  0  0  0  0
  185.5810  180.3550  144.0830 O   0  0  0  0  0  1  0  0  0  0  0  0
  185.8520  179.1570  143.7970 C   0  0  0  0  0  0  0  0  0  0  0  0
  185.7690  178.7500  142.4700 O   0  0  0  0  0  0  0  0  0  0  0  0
  189.7270  173.7530  145.5080 C   0  0  0  0  0  3  0  0  0  0  0  0
  189.8090  172.6280  144.6820 C   0  0  0  0  0  3  0  0  0  0  0  0
  189.3930  174.0280  142.7450 C   0  0  0  0  0  0  0  0  0  0  0  0
  189.4940  175.0210  144.9580 C   0  0  0  0  0  0  0  0  0  0  0  0
  189.3200  175.1490  143.5760 C   0  0  0  0  0  3  0  0  0  0  0  0
  189.6410  172.7590  143.2990 C   0  0  0  0  0  0  0  0  0  0  0  0
  189.1640  174.2480  141.0170 Cl  0  0  0  0  0  0  0  0  0  0  0  0
  191.0230  171.4500  141.9020 O   0  0  0  0  0  1  0  0  0  0  0  0
  189.7400  171.5430  142.4430 C   0  0  0  0  0  2  0  0  0  0  0  0
  189.9160  176.0400  147.2450 C   0  0  0  0  0  2  0  0  0  0  0  0
  191.6120  177.1780  148.4190 O   0  0  0  0  0  0  0  0  0  0  0  0
  191.3050  176.5800  147.3990 C   0  0  0  0  0  0  0  0  0  0  0  0
  192.2830  176.4810  146.2690 C   0  0  0  0  0  3  0  0  0  0  0  0
  193.7020  176.4950  146.8120 C   0  0  0  0  0  2  0  0  0  0  0  0
  193.0780  175.1890  146.3730 C   0  0  0  0  0  2  0  0  0  0  0  0
  1  8  1  0  0  0  0
  1 21  1  1  0  0  0
  2  5  1  0  0  0  0
  4  2  2  0  0  0  0
  4  8  1  0  0  0  0
  5  7  1  0  0  0  0
  5  3  2  0  0  0  0
  6  3  1  0  0  0  0
  8  6  2  0  0  0  0
 10  9  1  0  0  0  0
 10  2  1  0  0  0  0
 11 10  2  0  0  0  0
 13 12  2  0  0  0  0
 14 17  2  0  0  0  0
 14 16  1  0  0  0  0
 15 12  1  0  0  0  0
 15  1  1  0  0  0  0
 16 15  2  0  0  0  0
 17 13  1  0  0  0  0
 18 14  1  0  0  0  0
 19 20  1  0  0  0  0
 20 17  1  0  0  0  0
 21 23  1  0  0  0  0
 23 22  2  0  0  0  0
 24 26  1  0  0  0  0
 24 25  1  0  0  0  0
 24 23  1  0  0  0  0
 26 25  1  0  0  0  0
M  END
>  <MODEL>
1

>  <REMARK>
 VINA RESULT:      -7.2      0.000      0.000
  Name = 
  7 active torsions:
  status: ('A' for Active; 'I' for Inactive)
    1  A    between atoms: C_2  and  C_9
    2  A    between atoms: C_4  and  C_14
    3  A    between atoms: C_8  and  C_14
    4  A    between atoms: C_8  and  C_26
    5  A    between atoms: C_18  and  C_26
    6  A    between atoms: C_20  and  C_26
    7  A    between atoms: C_22  and  C_25
                            x       y       z     vdW  Elec       q    Type
                         _______ _______ _______ _____ _____    ______ ____

>  <TORSDO>
F 7

$$$$
=
 OpenBabel11072408343D

 26 28  0  0  1  0  0  0  0  0999 V2000
  188.3170  177.5820  144.7730 C   0  0  2  0  0  3  0  0  0  0  0  0
  187.9980  175.6450  141.4950 C   0  0  0  0  0  0  0  0  0  0  0  0
  187.0600  177.8730  141.2170 C   0  0  0  0  0  3  0  0  0  0  0  0
  188.3140  175.9700  142.8230 C   0  0  0  0  0  3  0  0  0  0  0  0
  187.3630  176.6150  140.6890 C   0  0  0  0  0  0  0  0  0  0  0  0
  187.3800  178.1820  142.5400 C   0  0  0  0  0  3  0  0  0  0  0  0
  187.0350  176.3520  139.3650 O   0  0  0  0  0  1  0  0  0  0  0  0
  188.0160  177.2360  143.3470 C   0  0  0  0  0  0  0  0  0  0  0  0
  189.1900  174.1620  140.0700 O   0  0  0  0  0  0  0  0  0  0  0  0
  188.3380  174.2970  140.9910 C   0  0  0  0  0  0  0  0  0  0  0  0
  187.7390  173.1610  141.5200 O   0  0  0  0  0  1  0  0  0  0  0  0
  190.8240  177.5560  144.4010 C   0  0  0  0  0  3  0  0  0  0  0  0
  192.1140  177.1920  144.8020 C   0  0  0  0  0  3  0  0  0  0  0  0
  191.1920  176.1220  146.7750 C   0  0  0  0  0  0  0  0  0  0  0  0
  189.7130  177.1940  145.1740 C   0  0  0  0  0  0  0  0  0  0  0  0
  189.9060  176.4840  146.3640 C   0  0  0  0  0  3  0  0  0  0  0  0
  192.3040  176.4770  145.9890 C   0  0  0  0  0  0  0  0  0  0  0  0
  191.3740  175.2340  148.2790 Cl  0  0  0  0  0  0  0  0  0  0  0  0
  194.4150  177.2390  146.7210 O   0  0  0  0  0  1  0  0  0  0  0  0
  193.6890  176.0960  146.3870 C   0  0  0  0  0  2  0  0  0  0  0  0
  187.2360  177.0410  145.7100 C   0  0  0  0  0  2  0  0  0  0  0  0
  186.8350  178.2990  147.6600 O   0  0  0  0  0  0  0  0  0  0  0  0
  186.5730  178.1440  146.4770 C   0  0  0  0  0  0  0  0  0  0  0  0
  185.5200  178.9880  145.8290 C   0  0  0  0  0  3  0  0  0  0  0  0
  184.6560  178.1300  144.9210 C   0  0  0  0  0  2  0  0  0  0  0  0
  184.1380  178.5430  146.2810 C   0  0  0  0  0  2  0  0  0  0  0  0
  1 15  1  0  0  0  0
  1 21  1  1  0  0  0
  2  4  1  0  0  0  0
  3  6  2  0  0  0  0
  4  8  2  0  0  0  0
  5  3  1  0  0  0  0
  5  2  2  0  0  0  0
  6  8  1  0  0  0  0
  7  5  1  0  0  0  0
  8  1  1  0  0  0  0
  9 10  2  0  0  0  0
 10  2  1  0  0  0  0
 10 11  1  0  0  0  0
 12 13  2  0  0  0  0
 12 15  1  0  0  0  0
 13 17  1  0  0  0  0
 14 18  1  0  0  0  0
 15 16  2  0  0  0  0
 16 14  1  0  0  0  0
 17 20  1  0  0  0  0
 17 14  2  0  0  0  0
 20 19  1  0  0  0  0
 21 23  1  0  0  0  0
 23 22  2  0  0  0  0
 24 26  1  0  0  0  0
 24 23  1  0  0  0  0
 25 24  1  0  0  0  0
 25 26  1  0  0  0  0
M  END
>  <MODEL>
2

>  <REMARK>
 VINA RESULT:      -7.0      2.792      5.900
  Name = 
  7 active torsions:
  status: ('A' for Active; 'I' for Inactive)
    1  A    between atoms: C_2  and  C_9
    2  A    between atoms: C_4  and  C_14
    3  A    between atoms: C_8  and  C_14
    4  A    between atoms: C_8  and  C_26
    5  A    between atoms: C_18  and  C_26
    6  A    between atoms: C_20  and  C_26
    7  A    between atoms: C_22  and  C_25
                            x       y       z     vdW  Elec       q    Type
                         _______ _______ _______ _____ _____    ______ ____

>  <TORSDO>
F 7

$$$$
=
 OpenBabel11072408343D

 26 28  0  0  1  0  0  0  0  0999 V2000
  189.8090  176.0740  145.3920 C   0  0  2  0  0  3  0  0  0  0  0  0
  189.6930  173.5670  142.5110 C   0  0  0  0  0  0  0  0  0  0  0  0
  189.9700  172.3750  144.6140 C   0  0  0  0  0  3  0  0  0  0  0  0
  189.6740  174.7750  143.2250 C   0  0  0  0  0  3  0  0  0  0  0  0
  189.8430  172.3570  143.2220 C   0  0  0  0  0  0  0  0  0  0  0  0
  189.9500  173.5850  145.3110 C   0  0  0  0  0  3  0  0  0  0  0  0
  189.8600  171.1310  142.5680 O   0  0  0  0  0  1  0  0  0  0  0  0
  189.7940  174.7890  144.6220 C   0  0  0  0  0  0  0  0  0  0  0  0
  190.5790  173.7690  140.3140 O   0  0  0  0  0  0  0  0  0  0  0  0
  189.5590  173.6070  141.0390 C   0  0  0  0  0  0  0  0  0  0  0  0
  188.3190  173.4620  140.4270 O   0  0  0  0  0  1  0  0  0  0  0  0
  187.6580  176.2840  146.7150 C   0  0  0  0  0  3  0  0  0  0  0  0
  186.3810  176.8280  146.8900 C   0  0  0  0  0  3  0  0  0  0  0  0
  186.6510  178.1050  144.8450 C   0  0  0  0  0  0  0  0  0  0  0  0
  188.4290  176.6340  145.5990 C   0  0  0  0  0  0  0  0  0  0  0  0
  187.9230  177.5510  144.6730 C   0  0  0  0  0  3  0  0  0  0  0  0
  185.8730  177.7400  145.9590 C   0  0  0  0  0  0  0  0  0  0  0  0
  186.0660  179.2530  143.6510 Cl  0  0  0  0  0  0  0  0  0  0  0  0
  184.3240  178.6070  147.5170 O   0  0  0  0  0  1  0  0  0  0  0  0
  184.5060  178.2980  146.1690 C   0  0  0  0  0  2  0  0  0  0  0  0
  190.7910  177.0720  144.7740 C   0  0  0  0  0  2  0  0  0  0  0  0
  192.9550  176.5430  144.0090 O   0  0  0  0  0  0  0  0  0  0  0  0
  192.2110  176.6370  144.9730 C   0  0  0  0  0  0  0  0  0  0  0  0
  192.6910  176.2190  146.3290 C   0  0  0  0  0  3  0  0  0  0  0  0
  193.9650  175.4020  146.1970 C   0  0  0  0  0  2  0  0  0  0  0  0
  194.0410  176.8500  146.6270 C   0  0  0  0  0  2  0  0  0  0  0  0
  1 21  1  6  0  0  0
  1 15  1  0  0  0  0
  2  5  2  0  0  0  0
  2  4  1  0  0  0  0
  3  6  2  0  0  0  0
  4  8  2  0  0  0  0
  5  3  1  0  0  0  0
  7  5  1  0  0  0  0
  8  6  1  0  0  0  0
  8  1  1  0  0  0  0
  9 10  2  0  0  0  0
 10  2  1  0  0  0  0
 11 10  1  0  0  0  0
 12 13  1  0  0  0  0
 14 17  1  0  0  0  0
 15 12  2  0  0  0  0
 16 14  2  0  0  0  0
 16 15  1  0  0  0  0
 17 20  1  0  0  0  0
 17 13  2  0  0  0  0
 18 14  1  0  0  0  0
 20 19  1  0  0  0  0
 21 23  1  0  0  0  0
 22 23  2  0  0  0  0
 23 24  1  0  0  0  0
 24 26  1  0  0  0  0
 25 24  1  0  0  0  0
 25 26  1  0  0  0  0
M  END
>  <MODEL>
3

>  <REMARK>
 VINA RESULT:      -6.9      2.213      5.828
  Name = 
  7 active torsions:
  status: ('A' for Active; 'I' for Inactive)
    1  A    between atoms: C_2  and  C_9
    2  A    between atoms: C_4  and  C_14
    3  A    between atoms: C_8  and  C_14
    4  A    between atoms: C_8  and  C_26
    5  A    between atoms: C_18  and  C_26
    6  A    between atoms: C_20  and  C_26
    7  A    between atoms: C_22  and  C_25
                            x       y       z     vdW  Elec       q    Type
                         _______ _______ _______ _____ _____    ______ ____

>  <TORSDO>
F 7

$$$$
=
 OpenBabel11072408343D

 26 28  0  0  1  0  0  0  0  0999 V2000
  189.4850  176.6240  145.6390 C   0  0  2  0  0  3  0  0  0  0  0  0
  186.1170  178.2860  144.9360 C   0  0  0  0  0  0  0  0  0  0  0  0
  185.9550  176.9500  146.9630 C   0  0  0  0  0  3  0  0  0  0  0  0
  187.4630  177.9070  144.8220 C   0  0  0  0  0  3  0  0  0  0  0  0
  185.3610  177.7970  146.0230 C   0  0  0  0  0  0  0  0  0  0  0  0
  187.2960  176.5800  146.8350 C   0  0  0  0  0  3  0  0  0  0  0  0
  184.0270  178.1460  146.1920 O   0  0  0  0  0  1  0  0  0  0  0  0
  188.0580  177.0630  145.7700 C   0  0  0  0  0  0  0  0  0  0  0  0
  185.4950  180.4270  144.1090 O   0  0  0  0  0  1  0  0  0  0  0  0
  185.5390  179.1820  143.9110 C   0  0  0  0  0  0  0  0  0  0  0  0
  185.0440  178.6770  142.7140 O   0  0  0  0  0  0  0  0  0  0  0  0
  190.2620  176.2660  143.2530 C   0  0  0  0  0  3  0  0  0  0  0  0
  190.4690  175.4320  142.1500 C   0  0  0  0  0  3  0  0  0  0  0  0
  189.5970  173.5530  143.4130 C   0  0  0  0  0  0  0  0  0  0  0  0
  189.7080  175.7530  144.4340 C   0  0  0  0  0  0  0  0  0  0  0  0
  189.3860  174.3940  144.5090 C   0  0  0  0  0  3  0  0  0  0  0  0
  190.1410  174.0740  142.2250 C   0  0  0  0  0  0  0  0  0  0  0  0
  189.1760  171.8540  143.5650 Cl  0  0  0  0  0  0  0  0  0  0  0  0
  189.5580  173.6400  139.9780 O   0  0  0  0  0  1  0  0  0  0  0  0
  190.3670  173.2110  141.0300 C   0  0  0  0  0  2  0  0  0  0  0  0
  189.9900  176.0080  146.9450 C   0  0  0  0  0  2  0  0  0  0  0  0
  191.6070  176.9530  148.3740 O   0  0  0  0  0  0  0  0  0  0  0  0
  191.3740  176.4790  147.2730 C   0  0  0  0  0  0  0  0  0  0  0  0
  192.4450  176.4650  146.2260 C   0  0  0  0  0  3  0  0  0  0  0  0
  193.8130  176.4020  146.8850 C   0  0  0  0  0  2  0  0  0  0  0  0
  193.2140  175.1540  146.2760 C   0  0  0  0  0  2  0  0  0  0  0  0
  1  8  1  0  0  0  0
  1 21  1  1  0  0  0
  2  5  1  0  0  0  0
  4  2  2  0  0  0  0
  4  8  1  0  0  0  0
  5  7  1  0  0  0  0
  5  3  2  0  0  0  0
  6  3  1  0  0  0  0
  8  6  2  0  0  0  0
 10  9  1  0  0  0  0
 10  2  1  0  0  0  0
 11 10  2  0  0  0  0
 12 15  1  0  0  0  0
 13 17  1  0  0  0  0
 13 12  2  0  0  0  0
 14 18  1  0  0  0  0
 14 16  1  0  0  0  0
 15 16  2  0  0  0  0
 15  1  1  0  0  0  0
 17 14  2  0  0  0  0
 19 20  1  0  0  0  0
 20 17  1  0  0  0  0
 21 23  1  0  0  0  0
 23 22  2  0  0  0  0
 24 26  1  0  0  0  0
 24 25  1  0  0  0  0
 24 23  1  0  0  0  0
 26 25  1  0  0  0  0
M  END
>  <MODEL>
4

>  <REMARK>
 VINA RESULT:      -6.9      1.202      1.545
  Name = 
  7 active torsions:
  status: ('A' for Active; 'I' for Inactive)
    1  A    between atoms: C_2  and  C_9
    2  A    between atoms: C_4  and  C_14
    3  A    between atoms: C_8  and  C_14
    4  A    between atoms: C_8  and  C_26
    5  A    between atoms: C_18  and  C_26
    6  A    between atoms: C_20  and  C_26
    7  A    between atoms: C_22  and  C_25
                            x       y       z     vdW  Elec       q    Type
                         _______ _______ _______ _____ _____    ______ ____

>  <TORSDO>
F 7

$$$$
=
 OpenBabel11072408343D

 26 28  0  0  1  0  0  0  0  0999 V2000
  188.7480  175.5870  144.3280 C   0  0  2  0  0  3  0  0  0  0  0  0
  186.1040  178.2320  145.1070 C   0  0  0  0  0  0  0  0  0  0  0  0
  186.9120  177.2560  147.1830 C   0  0  0  0  0  3  0  0  0  0  0  0
  186.9850  177.3990  144.4000 C   0  0  0  0  0  3  0  0  0  0  0  0
  186.0740  178.1530  146.5150 C   0  0  0  0  0  0  0  0  0  0  0  0
  187.7820  176.4320  146.4670 C   0  0  0  0  0  3  0  0  0  0  0  0
  185.2290  178.9600  147.2670 O   0  0  0  0  0  1  0  0  0  0  0  0
  187.8290  176.5050  145.0730 C   0  0  0  0  0  0  0  0  0  0  0  0
  185.5650  180.3720  144.2210 O   0  0  0  0  0  1  0  0  0  0  0  0
  185.2370  179.1600  144.3480 C   0  0  0  0  0  0  0  0  0  0  0  0
  184.0590  178.7200  143.7570 O   0  0  0  0  0  0  0  0  0  0  0  0
  190.6900  177.1970  144.0790 C   0  0  0  0  0  3  0  0  0  0  0  0
  192.0370  177.5210  144.2650 C   0  0  0  0  0  3  0  0  0  0  0  0
  192.4010  175.3740  145.3330 C   0  0  0  0  0  0  0  0  0  0  0  0
  190.1950  175.9570  144.5040 C   0  0  0  0  0  0  0  0  0  0  0  0
  191.0540  175.0540  145.1380 C   0  0  0  0  0  3  0  0  0  0  0  0
  192.8970  176.6150  144.8930 C   0  0  0  0  0  0  0  0  0  0  0  0
  193.4340  174.2020  146.1370 Cl  0  0  0  0  0  0  0  0  0  0  0  0
  194.5350  177.4750  146.3610 O   0  0  0  0  0  1  0  0  0  0  0  0
  194.3310  176.9860  145.0710 C   0  0  0  0  0  2  0  0  0  0  0  0
  188.3220  175.4530  142.8650 C   0  0  0  0  0  2  0  0  0  0  0  0
  189.9370  174.5260  141.4210 O   0  0  0  0  0  0  0  0  0  0  0  0
  189.0180  174.3070  142.1950 C   0  0  0  0  0  0  0  0  0  0  0  0
  188.5250  172.9060  142.3890 C   0  0  0  0  0  3  0  0  0  0  0  0
  189.6230  171.9180  142.0350 C   0  0  0  0  0  2  0  0  0  0  0  0
  189.3200  172.2160  143.4860 C   0  0  0  0  0  2  0  0  0  0  0  0
  1 21  1  6  0  0  0
  1 15  1  0  0  0  0
  1  8  1  0  0  0  0
  2  5  1  0  0  0  0
  4  8  1  0  0  0  0
  4  2  2  0  0  0  0
  5  3  2  0  0  0  0
  5  7  1  0  0  0  0
  6  3  1  0  0  0  0
  8  6  2  0  0  0  0
  9 10  1  0  0  0  0
 10  2  1  0  0  0  0
 11 10  2  0  0  0  0
 12 13  2  0  0  0  0
 12 15  1  0  0  0  0
 13 17  1  0  0  0  0
 14 18  1  0  0  0  0
 15 16  2  0  0  0  0
 16 14  1  0  0  0  0
 17 20  1  0  0  0  0
 17 14  2  0  0  0  0
 20 19  1  0  0  0  0
 22 23  2  0  0  0  0
 23 24  1  0  0  0  0
 23 21  1  0  0  0  0
 24 26  1  0  0  0  0
 25 24  1  0  0  0  0
 25 26  1  0  0  0  0
M  END
>  <MODEL>
5

>  <REMARK>
 VINA RESULT:      -6.8      2.080      4.538
  Name = 
  7 active torsions:
  status: ('A' for Active; 'I' for Inactive)
    1  A    between atoms: C_2  and  C_9
    2  A    between atoms: C_4  and  C_14
    3  A    between atoms: C_8  and  C_14
    4  A    between atoms: C_8  and  C_26
    5  A    between atoms: C_18  and  C_26
    6  A    between atoms: C_20  and  C_26
    7  A    between atoms: C_22  and  C_25
                            x       y       z     vdW  Elec       q    Type
                         _______ _______ _______ _____ _____    ______ ____

>  <TORSDO>
F 7

$$$$
=
 OpenBabel11072408343D

 26 28  0  0  1  0  0  0  0  0999 V2000
  189.3460  175.9670  145.7040 C   0  0  2  0  0  3  0  0  0  0  0  0
  189.6090  173.6310  142.6910 C   0  0  0  0  0  0  0  0  0  0  0  0
  189.8250  172.3400  144.7420 C   0  0  0  0  0  3  0  0  0  0  0  0
  189.4540  174.7910  143.4660 C   0  0  0  0  0  3  0  0  0  0  0  0
  189.7970  172.3950  143.3450 C   0  0  0  0  0  0  0  0  0  0  0  0
  189.6710  173.5020  145.5000 C   0  0  0  0  0  3  0  0  0  0  0  0
  189.9460  171.2140  142.6290 O   0  0  0  0  0  1  0  0  0  0  0  0
  189.4760  174.7320  144.8670 C   0  0  0  0  0  0  0  0  0  0  0  0
  188.4700  173.8610  140.6170 O   0  0  0  0  0  1  0  0  0  0  0  0
  189.5740  173.7490  141.2170 C   0  0  0  0  0  0  0  0  0  0  0  0
  190.7450  173.7470  140.4690 O   0  0  0  0  0  0  0  0  0  0  0  0
  188.2100  177.6490  144.1850 C   0  0  0  0  0  3  0  0  0  0  0  0
  187.0940  178.4120  143.8290 C   0  0  0  0  0  3  0  0  0  0  0  0
  185.8630  177.4740  145.6970 C   0  0  0  0  0  0  0  0  0  0  0  0
  188.1650  176.8080  145.3050 C   0  0  0  0  0  0  0  0  0  0  0  0
  186.9860  176.7190  146.0510 C   0  0  0  0  0  3  0  0  0  0  0  0
  185.9170  178.3270  144.5800 C   0  0  0  0  0  0  0  0  0  0  0  0
  184.4080  177.3210  146.6700 Cl  0  0  0  0  0  0  0  0  0  0  0  0
  183.9440  178.4470  143.2880 O   0  0  0  0  0  1  0  0  0  0  0  0
  184.7450  179.1580  144.1800 C   0  0  0  0  0  2  0  0  0  0  0  0
  190.6650  176.7410  145.7470 C   0  0  0  0  0  2  0  0  0  0  0  0
  191.2680  176.9490  148.0140 O   0  0  0  0  0  0  0  0  0  0  0  0
  191.4740  176.3780  146.9550 C   0  0  0  0  0  0  0  0  0  0  0  0
  192.5990  175.3960  146.8430 C   0  0  0  0  0  3  0  0  0  0  0  0
  193.1180  175.3640  145.4150 C   0  0  0  0  0  2  0  0  0  0  0  0
  193.8890  176.1120  146.4800 C   0  0  0  0  0  2  0  0  0  0  0  0
  1 21  1  6  0  0  0
  2  5  2  0  0  0  0
  2  4  1  0  0  0  0
  3  6  2  0  0  0  0
  4  8  2  0  0  0  0
  5  3  1  0  0  0  0
  7  5  1  0  0  0  0
  8  6  1  0  0  0  0
  8  1  1  0  0  0  0
  9 10  1  0  0  0  0
 10  2  1  0  0  0  0
 11 10  2  0  0  0  0
 12 15  1  0  0  0  0
 13 12  2  0  0  0  0
 13 17  1  0  0  0  0
 14 16  1  0  0  0  0
 14 18  1  0  0  0  0
 15  1  1  0  0  0  0
 15 16  2  0  0  0  0
 17 14  2  0  0  0  0
 19 20  1  0  0  0  0
 20 17  1  0  0  0  0
 21 23  1  0  0  0  0
 23 22  2  0  0  0  0
 24 23  1  0  0  0  0
 25 26  1  0  0  0  0
 25 24  1  0  0  0  0
 26 24  1  0  0  0  0
M  END
>  <MODEL>
6

>  <REMARK>
 VINA RESULT:      -6.8      2.004      5.732
  Name = 
  7 active torsions:
  status: ('A' for Active; 'I' for Inactive)
    1  A    between atoms: C_2  and  C_9
    2  A    between atoms: C_4  and  C_14
    3  A    between atoms: C_8  and  C_14
    4  A    between atoms: C_8  and  C_26
    5  A    between atoms: C_18  and  C_26
    6  A    between atoms: C_20  and  C_26
    7  A    between atoms: C_22  and  C_25
                            x       y       z     vdW  Elec       q    Type
                         _______ _______ _______ _____ _____    ______ ____

>  <TORSDO>
F 7

$$$$
=
 OpenBabel11072408343D

 26 28  0  0  1  0  0  0  0  0999 V2000
  188.6030  175.7550  143.6950 C   0  0  2  0  0  3  0  0  0  0  0  0
  186.1280  178.2170  145.2500 C   0  0  0  0  0  0  0  0  0  0  0  0
  186.5790  178.8630  142.9480 C   0  0  0  0  0  3  0  0  0  0  0  0
  186.9960  177.1260  145.0890 C   0  0  0  0  0  3  0  0  0  0  0  0
  185.9230  179.0910  144.1610 C   0  0  0  0  0  0  0  0  0  0  0  0
  187.4410  177.7740  142.8030 C   0  0  0  0  0  3  0  0  0  0  0  0
  185.0680  180.1810  144.2610 O   0  0  0  0  0  1  0  0  0  0  0  0
  187.6480  176.8960  143.8690 C   0  0  0  0  0  0  0  0  0  0  0  0
  186.1280  178.8120  147.5520 O   0  0  0  0  0  1  0  0  0  0  0  0
  185.4640  178.4120  146.5570 C   0  0  0  0  0  0  0  0  0  0  0  0
  184.1040  178.1680  146.7130 O   0  0  0  0  0  0  0  0  0  0  0  0
  190.9870  176.6100  143.7850 C   0  0  0  0  0  3  0  0  0  0  0  0
  192.1830  176.8190  144.4800 C   0  0  0  0  0  3  0  0  0  0  0  0
  191.2080  175.8010  146.4540 C   0  0  0  0  0  0  0  0  0  0  0  0
  189.9030  175.9830  144.4140 C   0  0  0  0  0  0  0  0  0  0  0  0
  190.0180  175.5890  145.7510 C   0  0  0  0  0  3  0  0  0  0  0  0
  192.2980  176.4190  145.8150 C   0  0  0  0  0  0  0  0  0  0  0  0
  191.2940  175.2880  148.1320 Cl  0  0  0  0  0  0  0  0  0  0  0  0
  194.4870  177.2940  145.6780 O   0  0  0  0  0  1  0  0  0  0  0  0
  193.5880  176.6500  146.5280 C   0  0  0  0  0  2  0  0  0  0  0  0
  188.7720  175.4010  142.2170 C   0  0  0  0  0  2  0  0  0  0  0  0
  190.4890  173.9850  141.4460 O   0  0  0  0  0  0  0  0  0  0  0  0
  189.4280  174.0650  142.0450 C   0  0  0  0  0  0  0  0  0  0  0  0
  188.7400  172.8190  142.5120 C   0  0  0  0  0  3  0  0  0  0  0  0
  189.6950  171.6400  142.4340 C   0  0  0  0  0  2  0  0  0  0  0  0
  189.4090  172.2890  143.7700 C   0  0  0  0  0  2  0  0  0  0  0  0
  1 21  1  6  0  0  0
  1  8  1  0  0  0  0
  1 15  1  0  0  0  0
  2 10  1  0  0  0  0
  3  5  1  0  0  0  0
  4  2  1  0  0  0  0
  5  7  1  0  0  0  0
  5  2  2  0  0  0  0
  6  3  2  0  0  0  0
  6  8  1  0  0  0  0
  8  4  2  0  0  0  0
 10 11  2  0  0  0  0
 10  9  1  0  0  0  0
 12 15  2  0  0  0  0
 12 13  1  0  0  0  0
 13 17  2  0  0  0  0
 14 18  1  0  0  0  0
 15 16  1  0  0  0  0
 16 14  2  0  0  0  0
 17 14  1  0  0  0  0
 17 20  1  0  0  0  0
 19 20  1  0  0  0  0
 22 23  2  0  0  0  0
 23 21  1  0  0  0  0
 23 24  1  0  0  0  0
 24 26  1  0  0  0  0
 25 24  1  0  0  0  0
 25 26  1  0  0  0  0
M  END
>  <MODEL>
7

>  <REMARK>
 VINA RESULT:      -6.6      2.094      4.891
  Name = 
  7 active torsions:
  status: ('A' for Active; 'I' for Inactive)
    1  A    between atoms: C_2  and  C_9
    2  A    between atoms: C_4  and  C_14
    3  A    between atoms: C_8  and  C_14
    4  A    between atoms: C_8  and  C_26
    5  A    between atoms: C_18  and  C_26
    6  A    between atoms: C_20  and  C_26
    7  A    between atoms: C_22  and  C_25
                            x       y       z     vdW  Elec       q    Type
                         _______ _______ _______ _____ _____    ______ ____

>  <TORSDO>
F 7

$$$$
=
 OpenBabel11072408343D

 26 28  0  0  1  0  0  0  0  0999 V2000
  189.9830  176.8310  144.0000 C   0  0  2  0  0  3  0  0  0  0  0  0
  186.5000  178.1330  144.8790 C   0  0  0  0  0  0  0  0  0  0  0  0
  186.9070  178.4450  142.5010 C   0  0  0  0  0  3  0  0  0  0  0  0
  187.7740  177.5560  144.9970 C   0  0  0  0  0  3  0  0  0  0  0  0
  186.0700  178.5810  143.6120 C   0  0  0  0  0  0  0  0  0  0  0  0
  188.1720  177.8690  142.6340 C   0  0  0  0  0  3  0  0  0  0  0  0
  184.8150  179.1510  143.4350 O   0  0  0  0  0  1  0  0  0  0  0  0
  188.6080  177.4150  143.8800 C   0  0  0  0  0  0  0  0  0  0  0  0
  185.7440  179.2800  146.8200 O   0  0  0  0  0  1  0  0  0  0  0  0
  185.6580  178.2550  146.0890 C   0  0  0  0  0  0  0  0  0  0  0  0
  184.7570  177.2560  146.4390 O   0  0  0  0  0  0  0  0  0  0  0  0
  189.5440  174.3690  144.4100 C   0  0  0  0  0  3  0  0  0  0  0  0
  189.5900  173.0350  143.9930 C   0  0  0  0  0  3  0  0  0  0  0  0
  190.5890  173.7330  141.8950 C   0  0  0  0  0  0  0  0  0  0  0  0
  190.0320  175.3880  143.5810 C   0  0  0  0  0  0  0  0  0  0  0  0
  190.5450  175.0630  142.3220 C   0  0  0  0  0  3  0  0  0  0  0  0
  190.1100  172.7110  142.7350 C   0  0  0  0  0  0  0  0  0  0  0  0
  191.2420  173.3840  140.3020 Cl  0  0  0  0  0  0  0  0  0  0  0  0
  191.3940  170.7310  142.6460 O   0  0  0  0  0  1  0  0  0  0  0  0
  190.1530  171.2800  142.3200 C   0  0  0  0  0  2  0  0  0  0  0  0
  190.5690  177.0880  145.3890 C   0  0  0  0  0  2  0  0  0  0  0  0
  192.7170  177.1990  144.4300 O   0  0  0  0  0  0  0  0  0  0  0  0
  192.0530  176.8840  145.4050 C   0  0  0  0  0  0  0  0  0  0  0  0
  192.7100  176.2020  146.5660 C   0  0  0  0  0  3  0  0  0  0  0  0
  191.7100  175.3000  147.2690 C   0  0  0  0  0  2  0  0  0  0  0  0
  192.7440  174.6990  146.3430 C   0  0  0  0  0  2  0  0  0  0  0  0
  1 21  1  1  0  0  0
  2  4  1  0  0  0  0
  2 10  1  0  0  0  0
  3  6  2  0  0  0  0
  3  5  1  0  0  0  0
  5  2  2  0  0  0  0
  6  8  1  0  0  0  0
  7  5  1  0  0  0  0
  8  1  1  0  0  0  0
  8  4  2  0  0  0  0
 10 11  2  0  0  0  0
 10  9  1  0  0  0  0
 13 12  1  0  0  0  0
 14 16  2  0  0  0  0
 14 17  1  0  0  0  0
 15  1  1  0  0  0  0
 15 12  2  0  0  0  0
 16 15  1  0  0  0  0
 17 13  2  0  0  0  0
 18 14  1  0  0  0  0
 20 19  1  0  0  0  0
 20 17  1  0  0  0  0
 21 23  1  0  0  0  0
 22 23  2  0  0  0  0
 23 24  1  0  0  0  0
 24 25  1  0  0  0  0
 26 24  1  0  0  0  0
 26 25  1  0  0  0  0
M  END
>  <MODEL>
8

>  <REMARK>
 VINA RESULT:      -6.5      1.526      2.406
  Name = 
  7 active torsions:
  status: ('A' for Active; 'I' for Inactive)
    1  A    between atoms: C_2  and  C_9
    2  A    between atoms: C_4  and  C_14
    3  A    between atoms: C_8  and  C_14
    4  A    between atoms: C_8  and  C_26
    5  A    between atoms: C_18  and  C_26
    6  A    between atoms: C_20  and  C_26
    7  A    between atoms: C_22  and  C_25
                            x       y       z     vdW  Elec       q    Type
                         _______ _______ _______ _____ _____    ______ ____

>  <TORSDO>
F 7

$$$$
=
 OpenBabel11072408343D

 26 28  0  0  1  0  0  0  0  0999 V2000
  189.4750  176.6110  144.8850 C   0  0  2  0  0  3  0  0  0  0  0  0
  186.1260  178.3580  145.4560 C   0  0  0  0  0  0  0  0  0  0  0  0
  186.8160  178.6630  143.1430 C   0  0  0  0  0  3  0  0  0  0  0  0
  187.2910  177.6090  145.6810 C   0  0  0  0  0  3  0  0  0  0  0  0
  185.8940  178.8880  144.1690 C   0  0  0  0  0  0  0  0  0  0  0  0
  187.9720  177.9170  143.3820 C   0  0  0  0  0  3  0  0  0  0  0  0
  184.7520  179.6280  143.8870 O   0  0  0  0  0  1  0  0  0  0  0  0
  188.2110  177.3800  144.6480 C   0  0  0  0  0  0  0  0  0  0  0  0
  184.0690  177.9810  146.5880 O   0  0  0  0  0  0  0  0  0  0  0  0
  185.1860  178.5680  146.5790 C   0  0  0  0  0  0  0  0  0  0  0  0
  185.5130  179.4020  147.6420 O   0  0  0  0  0  1  0  0  0  0  0  0
  191.0530  175.7780  143.0840 C   0  0  0  0  0  3  0  0  0  0  0  0
  191.3480  174.9110  142.0270 C   0  0  0  0  0  3  0  0  0  0  0  0
  189.1770  173.8610  142.2880 C   0  0  0  0  0  0  0  0  0  0  0  0
  189.8150  175.7010  143.7380 C   0  0  0  0  0  0  0  0  0  0  0  0
  188.8860  174.7350  143.3390 C   0  0  0  0  0  3  0  0  0  0  0  0
  190.4150  173.9490  141.6260 C   0  0  0  0  0  0  0  0  0  0  0  0
  187.9730  172.6650  141.8320 Cl  0  0  0  0  0  0  0  0  0  0  0  0
  191.1960  173.7980  139.4020 O   0  0  0  0  0  1  0  0  0  0  0  0
  190.7560  173.0450  140.4900 C   0  0  0  0  0  2  0  0  0  0  0  0
  189.4420  175.9050  146.2410 C   0  0  0  0  0  2  0  0  0  0  0  0
  190.1350  177.6880  147.6160 O   0  0  0  0  0  0  0  0  0  0  0  0
  190.3690  176.5560  147.2210 C   0  0  0  0  0  0  0  0  0  0  0  0
  191.6330  175.8690  147.6390 C   0  0  0  0  0  3  0  0  0  0  0  0
  192.0840  174.9100  146.5490 C   0  0  0  0  0  2  0  0  0  0  0  0
  192.7710  176.2480  146.7050 C   0  0  0  0  0  2  0  0  0  0  0  0
  1 21  1  1  0  0  0
  2  4  1  0  0  0  0
  2 10  1  0  0  0  0
  3  6  2  0  0  0  0
  3  5  1  0  0  0  0
  5  2  2  0  0  0  0
  6  8  1  0  0  0  0
  7  5  1  0  0  0  0
  8  1  1  0  0  0  0
  8  4  2  0  0  0  0
 10  9  2  0  0  0  0
 10 11  1  0  0  0  0
 12 15  1  0  0  0  0
 13 12  2  0  0  0  0
 14 16  1  0  0  0  0
 15  1  1  0  0  0  0
 16 15  2  0  0  0  0
 17 13  1  0  0  0  0
 17 14  2  0  0  0  0
 18 14  1  0  0  0  0
 19 20  1  0  0  0  0
 20 17  1  0  0  0  0
 21 23  1  0  0  0  0
 23 22  2  0  0  0  0
 23 24  1  0  0  0  0
 25 26  1  0  0  0  0
 25 24  1  0  0  0  0
 26 24  1  0  0  0  0
M  END
>  <MODEL>
9

>  <REMARK>
 VINA RESULT:      -6.4      1.540      2.554
  Name = 
  7 active torsions:
  status: ('A' for Active; 'I' for Inactive)
    1  A    between atoms: C_2  and  C_9
    2  A    between atoms: C_4  and  C_14
    3  A    between atoms: C_8  and  C_14
    4  A    between atoms: C_8  and  C_26
    5  A    between atoms: C_18  and  C_26
    6  A    between atoms: C_20  and  C_26
    7  A    between atoms: C_22  and  C_25
                            x       y       z     vdW  Elec       q    Type
                         _______ _______ _______ _____ _____    ______ ____

>  <TORSDO>
F 7

$$$$
