=
 OpenBabel11062421023D

 38 40  0  0  1  0  0  0  0  0999 V2000
  188.3570  174.3320  140.1650 C   0  0  0  0  0  2  0  0  0  0  0  0
  190.1470  173.4160  142.6230 C   0  0  0  0  0  0  0  0  0  0  0  0
  190.6650  173.2220  140.1200 C   0  0  0  0  0  0  0  0  0  0  0  0
  189.5980  173.7820  139.5320 C   0  0  0  0  0  3  0  0  0  0  0  0
  190.9190  173.0990  141.5760 C   0  0  0  0  0  3  0  0  0  0  0  0
  191.6660  172.7550  139.2800 O   0  0  0  0  0  1  0  0  0  0  0  0
  188.7430  173.9100  142.5190 C   0  0  0  0  0  2  0  0  0  0  0  0
  188.6270  175.0100  141.4900 C   0  0  2  0  0  3  0  0  0  0  0  0
  187.5020  175.9280  141.8350 C   0  0  0  0  0  0  0  0  0  0  0  0
  186.9990  175.9350  143.1700 N   0  0  0  0  0  2  0  0  0  0  0  0
  187.0270  176.7150  140.9680 O   0  0  0  0  0  0  0  0  0  0  0  0
  185.8700  176.7650  143.5670 C   0  0  0  0  0  2  0  0  0  0  0  0
  187.7660  177.6720  144.8280 C   0  0  0  0  0  1  0  0  0  0  0  0
  186.2600  177.8020  144.6340 C   0  0  2  0  0  0  0  0  0  0  0  0
  186.4240  177.8290  147.1780 C   0  0  0  0  0  1  0  0  0  0  0  0
  184.2790  178.4170  146.1200 C   0  0  0  0  0  1  0  0  0  0  0  0
  185.5210  177.5430  145.9850 C   0  0  0  0  0  0  0  0  0  0  0  0
  185.1180  176.2210  146.0660 F   0  0  0  0  0  0  0  0  0  0  0  0
  185.5650  179.4020  143.0010 O   0  0  0  0  0  0  0  0  0  0  0  0
  186.0090  179.1980  144.1210 C   0  0  0  0  0  3  0  0  0  0  0  0
  190.7170  173.2490  143.9990 C   0  0  0  0  0  2  0  0  0  0  0  0
  192.1250  175.2710  143.4340 C   0  0  0  0  0  2  0  0  0  0  0  0
  195.9880  175.3850  143.5230 C   0  0  0  0  0  0  0  0  0  0  0  0
  196.2630  174.3140  142.6910 F   0  0  0  0  0  0  0  0  0  0  0  0
  196.9210  176.3750  143.2920 F   0  0  0  0  0  0  0  0  0  0  0  0
  193.6830  174.8260  145.1460 N   0  0  1  0  0  0  0  0  0  0  0  0
  191.3960  174.5120  144.5460 C   0  0  2  0  0  0  0  0  0  0  0  0
  192.4960  174.0740  145.5160 C   0  0  0  0  0  2  0  0  0  0  0  0
  196.1020  174.9240  144.9920 C   0  0  0  0  0  2  0  0  0  0  0  0
  194.8970  174.0690  145.4150 C   0  0  0  0  0  2  0  0  0  0  0  0
  194.5880  175.9340  143.1980 C   0  0  0  0  0  2  0  0  0  0  0  0
  193.5640  174.9350  143.7080 C   0  0  2  0  0  3  0  0  0  0  0  0
  190.3610  175.4000  145.2540 C   0  0  0  0  0  2  0  0  0  0  0  0
  189.0030  174.8610  147.2890 C   0  0  0  0  0  1  0  0  0  0  0  0
  190.3720  175.2780  146.7760 C   0  0  2  0  0  3  0  0  0  0  0  0
  189.9280  177.5040  147.4930 O   0  0  0  0  0  0  0  0  0  0  0  0
  192.0680  176.7740  147.8520 O   0  0  0  0  0  1  0  0  0  0  0  0
  190.7740  176.5800  147.3830 C   0  0  0  0  0  0  0  0  0  0  0  0
  1  8  1  0  0  0  0
  2 21  1  0  0  0  0
  3  5  1  0  0  0  0
  4  3  2  0  0  0  0
  4  1  1  0  0  0  0
  5  2  2  0  0  0  0
  6  3  1  0  0  0  0
  7  2  1  0  0  0  0
  8  9  1  1  0  0  0
  8  7  1  0  0  0  0
  9 10  1  0  0  0  0
 10 12  1  0  0  0  0
 11  9  2  0  0  0  0
 12 14  1  0  0  0  0
 14 13  1  1  0  0  0
 14 17  1  0  0  0  0
 17 18  1  0  0  0  0
 17 16  1  0  0  0  0
 17 15  1  0  0  0  0
 19 20  2  0  0  0  0
 20 14  1  0  0  0  0
 22 32  1  0  0  0  0
 22 27  1  0  0  0  0
 23 29  1  0  0  0  0
 24 23  1  0  0  0  0
 25 23  1  0  0  0  0
 26 30  1  6  0  0  0
 26 28  1  0  0  0  0
 27 21  1  6  0  0  0
 27 33  1  0  0  0  0
 27 28  1  0  0  0  0
 29 30  1  0  0  0  0
 31 23  1  0  0  0  0
 32 31  1  1  0  0  0
 32 26  1  0  0  0  0
 33 35  1  0  0  0  0
 35 34  1  1  0  0  0
 35 38  1  0  0  0  0
 38 36  2  0  0  0  0
 38 37  1  0  0  0  0
M  END
>  <MODEL>
1

>  <REMARK>
 VINA RESULT:      -7.6      0.000      0.000
  Name = 
  10 active torsions:
  status: ('A' for Active; 'I' for Inactive)
    1  A    between atoms: C_1  and  N_17
    2  A    between atoms: C_1  and  C_31
    3  A    between atoms: C_3  and  C_22
    4  A    between atoms: C_15  and  C_19
    5  A    between atoms: C_15  and  C_38
    6  A    between atoms: C_16  and  C_35
    7  A    between atoms: C_18  and  C_19
    8  A    between atoms: C_18  and  C_22
    9  A    between atoms: C_21  and  C_31
   10  A    between atoms: C_31  and  C_33
                            x       y       z     vdW  Elec       q    Type
                         _______ _______ _______ _____ _____    ______ ____

>  <TORSDO>
F 10

$$$$
=
 OpenBabel11062421023D

 38 40  0  0  1  0  0  0  0  0999 V2000
  183.6150  179.1560  144.3010 C   0  0  0  0  0  2  0  0  0  0  0  0
  186.6980  178.4250  144.0920 C   0  0  0  0  0  0  0  0  0  0  0  0
  185.2310  178.5390  146.1910 C   0  0  0  0  0  0  0  0  0  0  0  0
  184.0200  178.8610  145.7120 C   0  0  0  0  0  3  0  0  0  0  0  0
  186.4650  178.2980  145.4050 C   0  0  0  0  0  3  0  0  0  0  0  0
  185.3300  178.3560  147.5630 O   0  0  0  0  0  1  0  0  0  0  0  0
  185.7130  178.9540  143.1060 C   0  0  0  0  0  2  0  0  0  0  0  0
  184.3580  178.3120  143.2890 C   0  0  2  0  0  3  0  0  0  0  0  0
  183.6140  178.2880  141.9960 C   0  0  0  0  0  0  0  0  0  0  0  0
  182.1900  178.3690  142.0160 N   0  0  0  0  0  2  0  0  0  0  0  0
  184.2370  178.2360  140.8980 O   0  0  0  0  0  0  0  0  0  0  0  0
  181.3940  178.2990  140.7980 C   0  0  0  0  0  2  0  0  0  0  0  0
  179.9270  179.4360  142.3970 C   0  0  0  0  0  1  0  0  0  0  0  0
  180.0710  179.0720  140.9250 C   0  0  2  0  0  0  0  0  0  0  0  0
  179.1860  177.3920  139.2220 C   0  0  0  0  0  1  0  0  0  0  0  0
  178.4160  177.2350  141.5570 C   0  0  0  0  0  1  0  0  0  0  0  0
  178.8540  178.2060  140.4660 C   0  0  0  0  0  0  0  0  0  0  0  0
  177.7730  179.0180  140.1660 F   0  0  0  0  0  0  0  0  0  0  0  0
  179.5300  181.3630  140.5190 O   0  0  0  0  0  0  0  0  0  0  0  0
  180.1490  180.3710  140.1640 C   0  0  0  0  0  3  0  0  0  0  0  0
  188.0460  178.0270  143.5720 C   0  0  0  0  0  2  0  0  0  0  0  0
  188.1890  176.2780  145.3910 C   0  0  0  0  0  2  0  0  0  0  0  0
  191.2440  175.7050  147.6890 C   0  0  0  0  0  0  0  0  0  0  0  0
  191.3910  176.9860  148.1900 F   0  0  0  0  0  0  0  0  0  0  0  0
  191.5290  174.8020  148.6930 F   0  0  0  0  0  0  0  0  0  0  0  0
  190.4480  175.7930  144.9290 N   0  0  1  0  0  0  0  0  0  0  0  0
  188.4400  176.5830  143.9130 C   0  0  2  0  0  0  0  0  0  0  0  0
  189.9540  176.4520  143.7310 C   0  0  0  0  0  2  0  0  0  0  0  0
  192.2450  175.4980  146.5320 C   0  0  0  0  0  2  0  0  0  0  0  0
  191.7980  176.2290  145.2560 C   0  0  0  0  0  2  0  0  0  0  0  0
  189.7880  175.5010  147.2350 C   0  0  0  0  0  2  0  0  0  0  0  0
  189.5770  176.3060  145.9650 C   0  0  2  0  0  3  0  0  0  0  0  0
  187.6910  175.6030  142.9960 C   0  0  0  0  0  2  0  0  0  0  0  0
  188.1990  175.1380  140.5870 C   0  0  0  0  0  1  0  0  0  0  0  0
  188.5930  174.8440  142.0260 C   0  0  2  0  0  3  0  0  0  0  0  0
  187.7600  172.6580  141.5780 O   0  0  0  0  0  0  0  0  0  0  0  0
  189.2460  172.7980  143.3150 O   0  0  0  0  0  1  0  0  0  0  0  0
  188.5010  173.3790  142.2960 C   0  0  0  0  0  0  0  0  0  0  0  0
  1  4  1  0  0  0  0
  2  5  2  0  0  0  0
  3  6  1  0  0  0  0
  4  3  2  0  0  0  0
  5  3  1  0  0  0  0
  7  8  1  0  0  0  0
  7  2  1  0  0  0  0
  8  9  1  6  0  0  0
  8  1  1  0  0  0  0
  9 10  1  0  0  0  0
 11  9  2  0  0  0  0
 12 14  1  0  0  0  0
 12 10  1  0  0  0  0
 14 13  1  1  0  0  0
 15 17  1  0  0  0  0
 17 14  1  0  0  0  0
 17 16  1  0  0  0  0
 18 17  1  0  0  0  0
 20 19  2  0  0  0  0
 20 14  1  0  0  0  0
 21 27  1  0  0  0  0
 21  2  1  0  0  0  0
 23 24  1  0  0  0  0
 23 25  1  0  0  0  0
 26 28  1  6  0  0  0
 26 30  1  0  0  0  0
 26 32  1  0  0  0  0
 27 33  1  6  0  0  0
 27 22  1  0  0  0  0
 28 27  1  0  0  0  0
 29 23  1  0  0  0  0
 30 29  1  0  0  0  0
 31 23  1  0  0  0  0
 32 22  1  6  0  0  0
 32 31  1  0  0  0  0
 35 34  1  6  0  0  0
 35 38  1  0  0  0  0
 35 33  1  0  0  0  0
 36 38  2  0  0  0  0
 38 37  1  0  0  0  0
M  END
>  <MODEL>
2

>  <REMARK>
 VINA RESULT:      -7.4      4.400      6.878
  Name = 
  10 active torsions:
  status: ('A' for Active; 'I' for Inactive)
    1  A    between atoms: C_1  and  N_17
    2  A    between atoms: C_1  and  C_31
    3  A    between atoms: C_3  and  C_22
    4  A    between atoms: C_15  and  C_19
    5  A    between atoms: C_15  and  C_38
    6  A    between atoms: C_16  and  C_35
    7  A    between atoms: C_18  and  C_19
    8  A    between atoms: C_18  and  C_22
    9  A    between atoms: C_21  and  C_31
   10  A    between atoms: C_31  and  C_33
                            x       y       z     vdW  Elec       q    Type
                         _______ _______ _______ _____ _____    ______ ____

>  <TORSDO>
F 10

$$$$
=
 OpenBabel11062421023D

 38 40  0  0  1  0  0  0  0  0999 V2000
  191.1440  174.4720  141.8740 C   0  0  0  0  0  2  0  0  0  0  0  0
  188.6210  176.1860  142.7560 C   0  0  0  0  0  0  0  0  0  0  0  0
  188.6760  173.7840  141.8660 C   0  0  0  0  0  0  0  0  0  0  0  0
  189.9830  173.5460  141.6800 C   0  0  0  0  0  3  0  0  0  0  0  0
  188.0630  175.0180  142.4120 C   0  0  0  0  0  3  0  0  0  0  0  0
  187.8050  172.7450  141.5670 O   0  0  0  0  0  1  0  0  0  0  0  0
  190.0600  176.5270  142.5610 C   0  0  0  0  0  2  0  0  0  0  0  0
  190.9540  175.4110  143.0450 C   0  0  2  0  0  3  0  0  0  0  0  0
  192.2730  175.9550  143.4840 C   0  0  0  0  0  0  0  0  0  0  0  0
  193.4680  175.3240  143.0270 N   0  0  0  0  0  2  0  0  0  0  0  0
  192.3320  176.9810  144.2180 O   0  0  0  0  0  0  0  0  0  0  0  0
  194.7880  175.7660  143.4540 C   0  0  0  0  0  2  0  0  0  0  0  0
  195.2860  173.4040  143.0370 C   0  0  0  0  0  1  0  0  0  0  0  0
  195.6750  174.5940  143.9050 C   0  0  2  0  0  0  0  0  0  0  0  0
  196.7300  173.7230  146.0570 C   0  0  0  0  0  1  0  0  0  0  0  0
  195.0060  175.4770  146.2040 C   0  0  0  0  0  1  0  0  0  0  0  0
  195.4540  174.2520  145.4130 C   0  0  0  0  0  0  0  0  0  0  0  0
  194.4760  173.2820  145.5480 F   0  0  0  0  0  0  0  0  0  0  0  0
  197.5000  176.0100  143.2910 O   0  0  0  0  0  0  0  0  0  0  0  0
  197.1240  174.8900  143.6080 C   0  0  0  0  0  3  0  0  0  0  0  0
  187.7420  177.2380  143.3630 C   0  0  0  0  0  2  0  0  0  0  0  0
  188.2590  178.0410  145.7040 C   0  0  0  0  0  2  0  0  0  0  0  0
  191.1450  176.7300  147.9170 C   0  0  0  0  0  0  0  0  0  0  0  0
  192.2040  176.9400  147.0510 F   0  0  0  0  0  0  0  0  0  0  0  0
  191.5640  177.0040  149.2030 F   0  0  0  0  0  0  0  0  0  0  0  0
  188.8160  175.8800  146.4620 N   0  0  1  0  0  0  0  0  0  0  0  0
  187.4750  177.0320  144.8610 C   0  0  2  0  0  0  0  0  0  0  0  0
  188.0350  175.6630  145.2550 C   0  0  0  0  0  2  0  0  0  0  0  0
  190.7140  175.2500  147.8360 C   0  0  0  0  0  2  0  0  0  0  0  0
  189.9360  174.9540  146.5440 C   0  0  0  0  0  2  0  0  0  0  0  0
  189.9950  177.6860  147.5530 C   0  0  0  0  0  2  0  0  0  0  0  0
  189.3750  177.1990  146.2560 C   0  0  2  0  0  3  0  0  0  0  0  0
  185.9660  177.1090  145.1420 C   0  0  0  0  0  2  0  0  0  0  0  0
  184.4630  178.2890  146.7620 C   0  0  0  0  0  1  0  0  0  0  0  0
  185.4970  178.4660  145.6620 C   0  0  2  0  0  3  0  0  0  0  0  0
  185.6210  180.1510  143.9840 O   0  0  0  0  0  0  0  0  0  0  0  0
  183.6350  179.0160  144.0810 O   0  0  0  0  0  1  0  0  0  0  0  0
  184.9230  179.2630  144.5390 C   0  0  0  0  0  0  0  0  0  0  0  0
  1  8  1  0  0  0  0
  2 21  1  0  0  0  0
  3  5  1  0  0  0  0
  4  3  2  0  0  0  0
  4  1  1  0  0  0  0
  5  2  2  0  0  0  0
  6  3  1  0  0  0  0
  7  2  1  0  0  0  0
  7  8  1  0  0  0  0
  8  9  1  6  0  0  0
  9 11  2  0  0  0  0
 10 12  1  0  0  0  0
 10  9  1  0  0  0  0
 12 14  1  0  0  0  0
 14 13  1  6  0  0  0
 14 17  1  0  0  0  0
 17 18  1  0  0  0  0
 17 15  1  0  0  0  0
 17 16  1  0  0  0  0
 19 20  2  0  0  0  0
 20 14  1  0  0  0  0
 23 25  1  0  0  0  0
 24 23  1  0  0  0  0
 26 28  1  6  0  0  0
 26 30  1  0  0  0  0
 27 21  1  6  0  0  0
 27 33  1  0  0  0  0
 27 28  1  0  0  0  0
 27 22  1  0  0  0  0
 29 23  1  0  0  0  0
 30 29  1  0  0  0  0
 31 23  1  0  0  0  0
 32 22  1  1  0  0  0
 32 26  1  0  0  0  0
 32 31  1  0  0  0  0
 33 35  1  0  0  0  0
 35 34  1  1  0  0  0
 36 38  2  0  0  0  0
 37 38  1  0  0  0  0
 38 35  1  0  0  0  0
M  END
>  <MODEL>
3

>  <REMARK>
 VINA RESULT:      -7.4      2.587      7.026
  Name = 
  10 active torsions:
  status: ('A' for Active; 'I' for Inactive)
    1  A    between atoms: C_1  and  N_17
    2  A    between atoms: C_1  and  C_31
    3  A    between atoms: C_3  and  C_22
    4  A    between atoms: C_15  and  C_19
    5  A    between atoms: C_15  and  C_38
    6  A    between atoms: C_16  and  C_35
    7  A    between atoms: C_18  and  C_19
    8  A    between atoms: C_18  and  C_22
    9  A    between atoms: C_21  and  C_31
   10  A    between atoms: C_31  and  C_33
                            x       y       z     vdW  Elec       q    Type
                         _______ _______ _______ _____ _____    ______ ____

>  <TORSDO>
F 10

$$$$
=
 OpenBabel11062421023D

 38 40  0  0  1  0  0  0  0  0999 V2000
  188.2460  175.0530  142.3150 C   0  0  0  0  0  2  0  0  0  0  0  0
  190.5820  173.3970  143.6870 C   0  0  0  0  0  0  0  0  0  0  0  0
  189.6170  173.1280  141.3270 C   0  0  0  0  0  0  0  0  0  0  0  0
  188.6840  174.0880  141.2560 C   0  0  0  0  0  3  0  0  0  0  0  0
  190.5260  172.8490  142.4660 C   0  0  0  0  0  3  0  0  0  0  0  0
  189.7920  172.3440  140.1960 O   0  0  0  0  0  1  0  0  0  0  0  0
  189.6160  174.4070  144.2060 C   0  0  0  0  0  2  0  0  0  0  0  0
  189.3860  175.5090  143.1990 C   0  0  2  0  0  3  0  0  0  0  0  0
  189.0190  176.7790  143.8930 C   0  0  0  0  0  0  0  0  0  0  0  0
  187.6670  176.9800  144.3000 N   0  0  0  0  0  2  0  0  0  0  0  0
  189.9010  177.6470  144.1510 O   0  0  0  0  0  0  0  0  0  0  0  0
  187.2250  178.2140  144.9350 C   0  0  0  0  0  2  0  0  0  0  0  0
  185.5790  179.8690  144.1940 C   0  0  0  0  0  1  0  0  0  0  0  0
  185.7190  178.4560  144.7460 C   0  0  2  0  0  0  0  0  0  0  0  0
  184.8570  176.8780  146.5530 C   0  0  0  0  0  1  0  0  0  0  0  0
  185.6130  179.1300  147.2040 C   0  0  0  0  0  1  0  0  0  0  0  0
  184.9420  178.3280  146.0950 C   0  0  0  0  0  0  0  0  0  0  0  0
  183.6500  178.8050  145.9520 F   0  0  0  0  0  0  0  0  0  0  0  0
  184.2730  177.8670  142.9370 O   0  0  0  0  0  0  0  0  0  0  0  0
  185.1680  177.5250  143.6950 C   0  0  0  0  0  3  0  0  0  0  0  0
  191.6780  172.9560  144.6090 C   0  0  0  0  0  2  0  0  0  0  0  0
  192.6620  175.1680  143.8820 C   0  0  0  0  0  2  0  0  0  0  0  0
  195.7350  175.5830  141.5730 C   0  0  0  0  0  0  0  0  0  0  0  0
  195.3090  174.8260  140.4960 F   0  0  0  0  0  0  0  0  0  0  0  0
  196.4340  176.6740  141.0980 F   0  0  0  0  0  0  0  0  0  0  0  0
  194.8780  174.3830  144.0410 N   0  0  1  0  0  0  0  0  0  0  0  0
  192.6920  174.0610  144.9380 C   0  0  2  0  0  0  0  0  0  0  0  0
  194.0950  173.4570  144.8410 C   0  0  0  0  0  2  0  0  0  0  0  0
  196.6770  174.7290  142.4480 C   0  0  0  0  0  2  0  0  0  0  0  0
  195.9000  173.6880  143.2700 C   0  0  0  0  0  2  0  0  0  0  0  0
  194.5090  176.0800  142.3590 C   0  0  0  0  0  2  0  0  0  0  0  0
  193.9110  174.8930  143.0920 C   0  0  2  0  0  3  0  0  0  0  0  0
  192.4290  174.6140  146.3470 C   0  0  0  0  0  2  0  0  0  0  0  0
  193.7110  176.7160  146.8150 C   0  0  0  0  0  1  0  0  0  0  0  0
  192.3620  176.1380  146.4160 C   0  0  2  0  0  3  0  0  0  0  0  0
  190.1130  176.2450  147.1910 O   0  0  0  0  0  0  0  0  0  0  0  0
  191.6610  177.2450  148.5500 O   0  0  0  0  0  1  0  0  0  0  0  0
  191.3160  176.5510  147.3970 C   0  0  0  0  0  0  0  0  0  0  0  0
  1  8  1  0  0  0  0
  2  7  1  0  0  0  0
  2 21  1  0  0  0  0
  3  5  1  0  0  0  0
  4  3  2  0  0  0  0
  4  1  1  0  0  0  0
  5  2  2  0  0  0  0
  6  3  1  0  0  0  0
  8  9  1  1  0  0  0
  8  7  1  0  0  0  0
  9 11  2  0  0  0  0
  9 10  1  0  0  0  0
 10 12  1  0  0  0  0
 14 13  1  6  0  0  0
 14 12  1  0  0  0  0
 14 17  1  0  0  0  0
 17 15  1  0  0  0  0
 17 16  1  0  0  0  0
 18 17  1  0  0  0  0
 19 20  2  0  0  0  0
 20 14  1  0  0  0  0
 22 27  1  0  0  0  0
 23 31  1  0  0  0  0
 23 29  1  0  0  0  0
 24 23  1  0  0  0  0
 25 23  1  0  0  0  0
 26 30  1  6  0  0  0
 26 28  1  0  0  0  0
 27 21  1  6  0  0  0
 27 33  1  0  0  0  0
 28 27  1  0  0  0  0
 29 30  1  0  0  0  0
 32 31  1  1  0  0  0
 32 22  1  0  0  0  0
 32 26  1  0  0  0  0
 33 35  1  0  0  0  0
 35 34  1  1  0  0  0
 35 38  1  0  0  0  0
 36 38  2  0  0  0  0
 38 37  1  0  0  0  0
M  END
>  <MODEL>
4

>  <REMARK>
 VINA RESULT:      -7.3      1.590      2.148
  Name = 
  10 active torsions:
  status: ('A' for Active; 'I' for Inactive)
    1  A    between atoms: C_1  and  N_17
    2  A    between atoms: C_1  and  C_31
    3  A    between atoms: C_3  and  C_22
    4  A    between atoms: C_15  and  C_19
    5  A    between atoms: C_15  and  C_38
    6  A    between atoms: C_16  and  C_35
    7  A    between atoms: C_18  and  C_19
    8  A    between atoms: C_18  and  C_22
    9  A    between atoms: C_21  and  C_31
   10  A    between atoms: C_31  and  C_33
                            x       y       z     vdW  Elec       q    Type
                         _______ _______ _______ _____ _____    ______ ____

>  <TORSDO>
F 10

$$$$
=
 OpenBabel11062421023D

 38 40  0  0  1  0  0  0  0  0999 V2000
  189.4510  171.8220  142.0350 C   0  0  0  0  0  2  0  0  0  0  0  0
  191.3040  172.9790  144.3400 C   0  0  0  0  0  0  0  0  0  0  0  0
  191.7670  171.0090  142.7670 C   0  0  0  0  0  0  0  0  0  0  0  0
  190.6820  170.9710  141.9800 C   0  0  0  0  0  3  0  0  0  0  0  0
  192.0550  171.9880  143.8420 C   0  0  0  0  0  3  0  0  0  0  0  0
  192.7530  170.0650  142.5140 O   0  0  0  0  0  1  0  0  0  0  0  0
  189.8940  173.2540  143.9390 C   0  0  0  0  0  2  0  0  0  0  0  0
  189.7440  173.2510  142.4360 C   0  0  2  0  0  3  0  0  0  0  0  0
  188.6190  174.1400  142.0240 C   0  0  0  0  0  0  0  0  0  0  0  0
  188.1060  175.0870  142.9600 N   0  0  0  0  0  2  0  0  0  0  0  0
  188.1520  174.0830  140.8510 O   0  0  0  0  0  0  0  0  0  0  0  0
  186.9770  175.9510  142.6460 C   0  0  0  0  0  2  0  0  0  0  0  0
  188.8320  177.5410  142.8170 C   0  0  0  0  0  1  0  0  0  0  0  0
  187.3130  177.4380  142.8430 C   0  0  2  0  0  0  0  0  0  0  0  0
  185.9410  179.2460  144.0070 C   0  0  0  0  0  1  0  0  0  0  0  0
  185.8730  176.9480  144.8920 C   0  0  0  0  0  1  0  0  0  0  0  0
  186.7620  177.9770  144.2020 C   0  0  0  0  0  0  0  0  0  0  0  0
  187.8070  178.2750  145.0600 F   0  0  0  0  0  0  0  0  0  0  0  0
  187.0210  177.9150  140.5200 O   0  0  0  0  0  0  0  0  0  0  0  0
  186.8040  178.2470  141.6760 C   0  0  0  0  0  3  0  0  0  0  0  0
  191.9060  173.8660  145.3870 C   0  0  0  0  0  2  0  0  0  0  0  0
  192.4060  175.3390  143.3950 C   0  0  0  0  0  2  0  0  0  0  0  0
  195.9450  176.2210  142.1130 C   0  0  0  0  0  0  0  0  0  0  0  0
  196.4490  174.9420  141.9520 F   0  0  0  0  0  0  0  0  0  0  0  0
  196.4220  177.0170  141.0920 F   0  0  0  0  0  0  0  0  0  0  0  0
  194.2620  176.3460  144.4400 N   0  0  1  0  0  0  0  0  0  0  0  0
  192.1700  175.2990  144.9060 C   0  0  2  0  0  0  0  0  0  0  0  0
  193.4890  175.7690  145.5270 C   0  0  0  0  0  2  0  0  0  0  0  0
  196.4380  176.7900  143.4610 C   0  0  0  0  0  2  0  0  0  0  0  0
  195.6910  176.1630  144.6500 C   0  0  0  0  0  2  0  0  0  0  0  0
  194.4090  176.1740  142.0340 C   0  0  0  0  0  2  0  0  0  0  0  0
  193.8950  175.5250  143.3070 C   0  0  2  0  0  3  0  0  0  0  0  0
  191.0100  176.2160  145.3240 C   0  0  0  0  0  2  0  0  0  0  0  0
  188.9330  175.4980  146.5270 C   0  0  0  0  0  1  0  0  0  0  0  0
  190.3990  175.8710  146.6800 C   0  0  2  0  0  3  0  0  0  0  0  0
  189.6510  177.9220  147.6300 O   0  0  0  0  0  0  0  0  0  0  0  0
  191.6310  177.1270  148.4620 O   0  0  0  0  0  1  0  0  0  0  0  0
  190.5410  177.0330  147.6060 C   0  0  0  0  0  0  0  0  0  0  0  0
  1  8  1  0  0  0  0
  2 21  1  0  0  0  0
  3  5  1  0  0  0  0
  4  1  1  0  0  0  0
  4  3  2  0  0  0  0
  5  2  2  0  0  0  0
  6  3  1  0  0  0  0
  7  2  1  0  0  0  0
  8  9  1  1  0  0  0
  8  7  1  0  0  0  0
  9 10  1  0  0  0  0
 11  9  2  0  0  0  0
 12 14  1  0  0  0  0
 12 10  1  0  0  0  0
 14 13  1  1  0  0  0
 14 17  1  0  0  0  0
 15 17  1  0  0  0  0
 17 16  1  0  0  0  0
 17 18  1  0  0  0  0
 19 20  2  0  0  0  0
 20 14  1  0  0  0  0
 22 27  1  0  0  0  0
 23 29  1  0  0  0  0
 24 23  1  0  0  0  0
 25 23  1  0  0  0  0
 26 30  1  1  0  0  0
 26 28  1  0  0  0  0
 27 33  1  1  0  0  0
 27 21  1  0  0  0  0
 27 28  1  0  0  0  0
 29 30  1  0  0  0  0
 31 23  1  0  0  0  0
 32 31  1  6  0  0  0
 32 22  1  0  0  0  0
 32 26  1  0  0  0  0
 33 35  1  0  0  0  0
 35 34  1  6  0  0  0
 35 38  1  0  0  0  0
 38 36  2  0  0  0  0
 38 37  1  0  0  0  0
M  END
>  <MODEL>
5

>  <REMARK>
 VINA RESULT:      -7.1      1.680      2.287
  Name = 
  10 active torsions:
  status: ('A' for Active; 'I' for Inactive)
    1  A    between atoms: C_1  and  N_17
    2  A    between atoms: C_1  and  C_31
    3  A    between atoms: C_3  and  C_22
    4  A    between atoms: C_15  and  C_19
    5  A    between atoms: C_15  and  C_38
    6  A    between atoms: C_16  and  C_35
    7  A    between atoms: C_18  and  C_19
    8  A    between atoms: C_18  and  C_22
    9  A    between atoms: C_21  and  C_31
   10  A    between atoms: C_31  and  C_33
                            x       y       z     vdW  Elec       q    Type
                         _______ _______ _______ _____ _____    ______ ____

>  <TORSDO>
F 10

$$$$
=
 OpenBabel11062421023D

 38 40  0  0  1  0  0  0  0  0999 V2000
  190.7890  176.6730  147.3660 C   0  0  0  0  0  2  0  0  0  0  0  0
  191.5360  176.3990  144.2920 C   0  0  0  0  0  0  0  0  0  0  0  0
  193.0820  176.1980  146.3260 C   0  0  0  0  0  0  0  0  0  0  0  0
  192.2560  176.3680  147.3680 C   0  0  0  0  0  3  0  0  0  0  0  0
  192.7130  176.1760  144.8900 C   0  0  0  0  0  3  0  0  0  0  0  0
  194.4180  175.9640  146.6210 O   0  0  0  0  0  1  0  0  0  0  0  0
  190.2960  176.8310  144.9990 C   0  0  0  0  0  2  0  0  0  0  0  0
  190.0530  175.9940  146.2320 C   0  0  2  0  0  3  0  0  0  0  0  0
  188.5930  175.9290  146.5370 C   0  0  0  0  0  0  0  0  0  0  0  0
  187.6720  176.5540  145.6450 N   0  0  0  0  0  2  0  0  0  0  0  0
  188.1760  175.2960  147.5480 O   0  0  0  0  0  0  0  0  0  0  0  0
  186.2390  176.5760  145.9040 C   0  0  0  0  0  2  0  0  0  0  0  0
  184.2360  177.8970  146.4010 C   0  0  0  0  0  1  0  0  0  0  0  0
  185.6700  178.0050  145.8990 C   0  0  2  0  0  0  0  0  0  0  0  0
  184.9990  177.7240  143.4550 C   0  0  0  0  0  1  0  0  0  0  0  0
  184.9940  179.9830  144.4370 C   0  0  0  0  0  1  0  0  0  0  0  0
  185.6920  178.6280  144.4670 C   0  0  0  0  0  0  0  0  0  0  0  0
  186.9970  178.8160  144.0450 F   0  0  0  0  0  0  0  0  0  0  0  0
  186.2170  178.7730  148.0950 O   0  0  0  0  0  0  0  0  0  0  0  0
  186.4120  178.8650  146.8920 C   0  0  0  0  0  3  0  0  0  0  0  0
  191.4540  176.2240  142.8050 C   0  0  0  0  0  2  0  0  0  0  0  0
  190.6160  173.9700  143.5840 C   0  0  0  0  0  2  0  0  0  0  0  0
  192.8130  170.8260  144.0650 C   0  0  0  0  0  0  0  0  0  0  0  0
  193.7670  171.3480  144.9210 F   0  0  0  0  0  0  0  0  0  0  0  0
  192.5510  169.5230  144.4370 F   0  0  0  0  0  0  0  0  0  0  0  0
  192.0330  172.7900  142.1170 N   0  0  1  0  0  0  0  0  0  0  0  0
  190.8850  174.8660  142.3730 C   0  0  2  0  0  0  0  0  0  0  0  0
  191.9670  174.1360  141.5710 C   0  0  0  0  0  2  0  0  0  0  0  0
  193.3710  170.8310  142.6250 C   0  0  0  0  0  2  0  0  0  0  0  0
  193.3800  172.2460  142.0240 C   0  0  0  0  0  2  0  0  0  0  0  0
  191.5190  171.6490  144.1840 C   0  0  0  0  0  2  0  0  0  0  0  0
  191.7580  172.9950  143.5230 C   0  0  2  0  0  3  0  0  0  0  0  0
  189.6200  175.0700  141.5260 C   0  0  0  0  0  2  0  0  0  0  0  0
  187.2810  174.9150  142.4120 C   0  0  0  0  0  1  0  0  0  0  0  0
  188.4980  175.8120  142.2500 C   0  0  2  0  0  3  0  0  0  0  0  0
  187.1590  177.0140  140.6900 O   0  0  0  0  0  0  0  0  0  0  0  0
  188.8420  178.2220  141.6650 O   0  0  0  0  0  1  0  0  0  0  0  0
  188.1330  177.0400  141.4860 C   0  0  0  0  0  0  0  0  0  0  0  0
  1  4  1  0  0  0  0
  2  5  2  0  0  0  0
  2  7  1  0  0  0  0
  3  6  1  0  0  0  0
  3  4  2  0  0  0  0
  5  3  1  0  0  0  0
  7  8  1  0  0  0  0
  8  9  1  1  0  0  0
  8  1  1  0  0  0  0
  9 11  2  0  0  0  0
 10 12  1  0  0  0  0
 10  9  1  0  0  0  0
 14 12  1  0  0  0  0
 14 13  1  1  0  0  0
 14 20  1  0  0  0  0
 15 17  1  0  0  0  0
 16 17  1  0  0  0  0
 17 14  1  0  0  0  0
 18 17  1  0  0  0  0
 20 19  2  0  0  0  0
 21  2  1  0  0  0  0
 23 31  1  0  0  0  0
 23 25  1  0  0  0  0
 23 24  1  0  0  0  0
 26 28  1  6  0  0  0
 26 32  1  0  0  0  0
 27 33  1  6  0  0  0
 27 21  1  0  0  0  0
 27 22  1  0  0  0  0
 28 27  1  0  0  0  0
 29 23  1  0  0  0  0
 30 26  1  0  0  0  0
 30 29  1  0  0  0  0
 32 22  1  6  0  0  0
 32 31  1  0  0  0  0
 33 35  1  0  0  0  0
 35 34  1  6  0  0  0
 36 38  2  0  0  0  0
 38 37  1  0  0  0  0
 38 35  1  0  0  0  0
M  END
>  <MODEL>
6

>  <REMARK>
 VINA RESULT:      -7.0      2.594      5.085
  Name = 
  10 active torsions:
  status: ('A' for Active; 'I' for Inactive)
    1  A    between atoms: C_1  and  N_17
    2  A    between atoms: C_1  and  C_31
    3  A    between atoms: C_3  and  C_22
    4  A    between atoms: C_15  and  C_19
    5  A    between atoms: C_15  and  C_38
    6  A    between atoms: C_16  and  C_35
    7  A    between atoms: C_18  and  C_19
    8  A    between atoms: C_18  and  C_22
    9  A    between atoms: C_21  and  C_31
   10  A    between atoms: C_31  and  C_33
                            x       y       z     vdW  Elec       q    Type
                         _______ _______ _______ _____ _____    ______ ____

>  <TORSDO>
F 10

$$$$
=
 OpenBabel11062421023D

 38 40  0  0  1  0  0  0  0  0999 V2000
  192.7140  175.7430  145.6920 C   0  0  0  0  0  2  0  0  0  0  0  0
  189.6800  175.6360  146.6240 C   0  0  0  0  0  0  0  0  0  0  0  0
  191.6580  176.7880  147.7790 C   0  0  0  0  0  0  0  0  0  0  0  0
  192.6880  176.5480  146.9550 C   0  0  0  0  0  3  0  0  0  0  0  0
  190.2450  176.3840  147.5810 C   0  0  0  0  0  3  0  0  0  0  0  0
  191.9290  177.5410  148.9130 O   0  0  0  0  0  1  0  0  0  0  0  0
  190.4330  174.9410  145.5410 C   0  0  0  0  0  2  0  0  0  0  0  0
  191.4350  175.8660  144.8930 C   0  0  2  0  0  3  0  0  0  0  0  0
  191.6760  175.4630  143.4760 C   0  0  0  0  0  0  0  0  0  0  0  0
  190.6700  174.7220  142.7880 N   0  0  0  0  0  2  0  0  0  0  0  0
  192.7370  175.8060  142.8830 O   0  0  0  0  0  0  0  0  0  0  0  0
  190.8560  174.2500  141.4220 C   0  0  0  0  0  2  0  0  0  0  0  0
  188.9220  172.9400  142.1640 C   0  0  0  0  0  1  0  0  0  0  0  0
  190.0450  172.9750  141.1340 C   0  0  2  0  0  0  0  0  0  0  0  0
  190.4410  170.7890  142.3850 C   0  0  0  0  0  1  0  0  0  0  0  0
  190.9130  170.8780  139.9690 C   0  0  0  0  0  1  0  0  0  0  0  0
  190.9270  171.6920  141.2590 C   0  0  0  0  0  0  0  0  0  0  0  0
  192.2400  172.0360  141.5260 F   0  0  0  0  0  0  0  0  0  0  0  0
  188.1720  173.0530  139.6520 O   0  0  0  0  0  0  0  0  0  0  0  0
  189.3870  173.0700  139.7800 C   0  0  0  0  0  3  0  0  0  0  0  0
  188.1910  175.4640  146.6470 C   0  0  0  0  0  2  0  0  0  0  0  0
  186.5140  176.1310  144.8780 C   0  0  0  0  0  2  0  0  0  0  0  0
  187.3870  177.1130  141.2430 C   0  0  0  0  0  0  0  0  0  0  0  0
  188.1100  175.9920  140.8750 F   0  0  0  0  0  0  0  0  0  0  0  0
  186.6420  177.5340  140.1600 F   0  0  0  0  0  0  0  0  0  0  0  0
  187.9220  177.7950  143.9840 N   0  0  1  0  0  0  0  0  0  0  0  0
  187.4240  176.6270  146.0030 C   0  0  2  0  0  0  0  0  0  0  0  0
  188.4430  177.5400  145.3160 C   0  0  0  0  0  2  0  0  0  0  0  0
  188.3690  178.2370  141.6400 C   0  0  0  0  0  2  0  0  0  0  0  0
  188.9970  177.9820  143.0200 C   0  0  0  0  0  2  0  0  0  0  0  0
  186.4330  176.7480  142.3930 C   0  0  0  0  0  2  0  0  0  0  0  0
  187.2670  176.5490  143.6470 C   0  0  2  0  0  3  0  0  0  0  0  0
  186.6350  177.3950  147.0750 C   0  0  0  0  0  2  0  0  0  0  0  0
  186.3170  179.7060  147.9910 C   0  0  0  0  0  1  0  0  0  0  0  0
  186.3760  178.8590  146.7290 C   0  0  2  0  0  3  0  0  0  0  0  0
  184.0230  178.5770  146.4910 O   0  0  0  0  0  1  0  0  0  0  0  0
  185.0740  179.5520  144.7050 O   0  0  0  0  0  0  0  0  0  0  0  0
  185.0960  178.9780  145.9700 C   0  0  0  0  0  0  0  0  0  0  0  0
  1  4  1  0  0  0  0
  2 21  1  0  0  0  0
  2  5  2  0  0  0  0
  3  6  1  0  0  0  0
  4  3  2  0  0  0  0
  5  3  1  0  0  0  0
  7  2  1  0  0  0  0
  8  9  1  6  0  0  0
  8  7  1  0  0  0  0
  8  1  1  0  0  0  0
 10  9  1  0  0  0  0
 11  9  2  0  0  0  0
 12 10  1  0  0  0  0
 14 17  1  0  0  0  0
 14 12  1  0  0  0  0
 14 13  1  1  0  0  0
 16 17  1  0  0  0  0
 17 18  1  0  0  0  0
 17 15  1  0  0  0  0
 19 20  2  0  0  0  0
 20 14  1  0  0  0  0
 22 27  1  0  0  0  0
 23 29  1  0  0  0  0
 23 31  1  0  0  0  0
 24 23  1  0  0  0  0
 25 23  1  0  0  0  0
 26 30  1  6  0  0  0
 26 28  1  0  0  0  0
 27 21  1  1  0  0  0
 27 33  1  0  0  0  0
 28 27  1  0  0  0  0
 29 30  1  0  0  0  0
 32 31  1  6  0  0  0
 32 26  1  0  0  0  0
 32 22  1  0  0  0  0
 35 33  1  0  0  0  0
 35 34  1  1  0  0  0
 37 38  2  0  0  0  0
 38 36  1  0  0  0  0
 38 35  1  0  0  0  0
M  END
>  <MODEL>
7

>  <REMARK>
 VINA RESULT:      -7.0      2.576      7.294
  Name = 
  10 active torsions:
  status: ('A' for Active; 'I' for Inactive)
    1  A    between atoms: C_1  and  N_17
    2  A    between atoms: C_1  and  C_31
    3  A    between atoms: C_3  and  C_22
    4  A    between atoms: C_15  and  C_19
    5  A    between atoms: C_15  and  C_38
    6  A    between atoms: C_16  and  C_35
    7  A    between atoms: C_18  and  C_19
    8  A    between atoms: C_18  and  C_22
    9  A    between atoms: C_21  and  C_31
   10  A    between atoms: C_31  and  C_33
                            x       y       z     vdW  Elec       q    Type
                         _______ _______ _______ _____ _____    ______ ____

>  <TORSDO>
F 10

$$$$
=
 OpenBabel11062421023D

 38 40  0  0  1  0  0  0  0  0999 V2000
  192.3970  175.8750  147.0150 C   0  0  0  0  0  2  0  0  0  0  0  0
  190.6240  177.0020  144.6340 C   0  0  0  0  0  0  0  0  0  0  0  0
  190.3340  177.3890  147.1520 C   0  0  0  0  0  0  0  0  0  0  0  0
  191.3590  176.7160  147.6940 C   0  0  0  0  0  3  0  0  0  0  0  0
  190.0330  177.5430  145.7080 C   0  0  0  0  0  3  0  0  0  0  0  0
  189.4940  178.0590  148.0300 O   0  0  0  0  0  1  0  0  0  0  0  0
  191.7250  175.9970  144.6910 C   0  0  0  0  0  2  0  0  0  0  0  0
  192.8000  176.4210  145.6630 C   0  0  2  0  0  3  0  0  0  0  0  0
  194.1200  175.8580  145.2560 C   0  0  0  0  0  0  0  0  0  0  0  0
  194.6700  174.7740  146.0040 N   0  0  0  0  0  2  0  0  0  0  0  0
  194.7250  176.3070  144.2420 O   0  0  0  0  0  0  0  0  0  0  0  0
  195.9770  174.2080  145.6980 C   0  0  0  0  0  2  0  0  0  0  0  0
  196.9990  171.9860  145.5600 C   0  0  0  0  0  1  0  0  0  0  0  0
  195.8680  172.8400  145.0040 C   0  0  2  0  0  0  0  0  0  0  0  0
  196.7640  171.7880  142.8600 C   0  0  0  0  0  1  0  0  0  0  0  0
  194.6430  173.0380  142.7740 C   0  0  0  0  0  1  0  0  0  0  0  0
  196.0060  172.9700  143.4530 C   0  0  0  0  0  0  0  0  0  0  0  0
  196.6980  174.1240  143.1280 F   0  0  0  0  0  0  0  0  0  0  0  0
  194.5680  171.1390  146.0670 O   0  0  0  0  0  0  0  0  0  0  0  0
  194.5790  172.1590  145.3920 C   0  0  0  0  0  3  0  0  0  0  0  0
  190.1390  177.4150  143.2770 C   0  0  0  0  0  2  0  0  0  0  0  0
  187.7720  178.0790  142.6900 C   0  0  0  0  0  2  0  0  0  0  0  0
  184.9440  178.7270  145.2450 C   0  0  0  0  0  0  0  0  0  0  0  0
  185.5690  179.6790  146.0330 F   0  0  0  0  0  0  0  0  0  0  0  0
  183.6090  179.0550  145.1320 F   0  0  0  0  0  0  0  0  0  0  0  0
  186.8360  176.7390  144.3880 N   0  0  1  0  0  0  0  0  0  0  0  0
  188.7280  176.9110  142.9450 C   0  0  2  0  0  0  0  0  0  0  0  0
  188.1740  176.2080  144.1880 C   0  0  0  0  0  2  0  0  0  0  0  0
  185.0640  177.3490  145.9300 C   0  0  0  0  0  2  0  0  0  0  0  0
  186.4830  176.7710  145.8000 C   0  0  0  0  0  2  0  0  0  0  0  0
  185.5800  178.7320  143.8440 C   0  0  0  0  0  2  0  0  0  0  0  0
  186.9630  178.1150  143.9560 C   0  0  2  0  0  3  0  0  0  0  0  0
  188.7800  175.9490  141.7490 C   0  0  0  0  0  2  0  0  0  0  0  0
  190.5400  174.1680  141.8570 C   0  0  0  0  0  1  0  0  0  0  0  0
  189.0810  174.5000  142.1270 C   0  0  2  0  0  3  0  0  0  0  0  0
  188.1920  173.6320  140.0940 O   0  0  0  0  0  0  0  0  0  0  0  0
  187.3880  172.6590  142.0040 O   0  0  0  0  0  1  0  0  0  0  0  0
  188.1930  173.5840  141.3520 C   0  0  0  0  0  0  0  0  0  0  0  0
  1  4  1  0  0  0  0
  2  7  1  0  0  0  0
  2  5  2  0  0  0  0
  3  4  2  0  0  0  0
  3  6  1  0  0  0  0
  5  3  1  0  0  0  0
  7  8  1  0  0  0  0
  8  9  1  6  0  0  0
  8  1  1  0  0  0  0
  9 10  1  0  0  0  0
 11  9  2  0  0  0  0
 12 10  1  0  0  0  0
 14 20  1  0  0  0  0
 14 13  1  1  0  0  0
 14 12  1  0  0  0  0
 15 17  1  0  0  0  0
 16 17  1  0  0  0  0
 17 14  1  0  0  0  0
 18 17  1  0  0  0  0
 20 19  2  0  0  0  0
 21  2  1  0  0  0  0
 22 27  1  0  0  0  0
 23 29  1  0  0  0  0
 23 24  1  0  0  0  0
 25 23  1  0  0  0  0
 26 28  1  1  0  0  0
 26 30  1  0  0  0  0
 27 33  1  6  0  0  0
 27 21  1  0  0  0  0
 27 28  1  0  0  0  0
 30 29  1  0  0  0  0
 31 32  1  0  0  0  0
 31 23  1  0  0  0  0
 32 22  1  6  0  0  0
 32 26  1  0  0  0  0
 33 35  1  0  0  0  0
 35 34  1  6  0  0  0
 36 38  2  0  0  0  0
 38 37  1  0  0  0  0
 38 35  1  0  0  0  0
M  END
>  <MODEL>
8

>  <REMARK>
 VINA RESULT:      -6.9      2.366      9.009
  Name = 
  10 active torsions:
  status: ('A' for Active; 'I' for Inactive)
    1  A    between atoms: C_1  and  N_17
    2  A    between atoms: C_1  and  C_31
    3  A    between atoms: C_3  and  C_22
    4  A    between atoms: C_15  and  C_19
    5  A    between atoms: C_15  and  C_38
    6  A    between atoms: C_16  and  C_35
    7  A    between atoms: C_18  and  C_19
    8  A    between atoms: C_18  and  C_22
    9  A    between atoms: C_21  and  C_31
   10  A    between atoms: C_31  and  C_33
                            x       y       z     vdW  Elec       q    Type
                         _______ _______ _______ _____ _____    ______ ____

>  <TORSDO>
F 10

$$$$
=
 OpenBabel11062421023D

 38 40  0  0  1  0  0  0  0  0999 V2000
  187.7780  175.5380  140.4110 C   0  0  0  0  0  2  0  0  0  0  0  0
  188.9320  173.1260  142.1230 C   0  0  0  0  0  0  0  0  0  0  0  0
  188.7550  173.3220  139.5740 C   0  0  0  0  0  0  0  0  0  0  0  0
  188.2280  174.5410  139.3870 C   0  0  0  0  0  3  0  0  0  0  0  0
  189.1160  172.6960  140.8680 C   0  0  0  0  0  3  0  0  0  0  0  0
  189.0460  172.5870  138.4330 O   0  0  0  0  0  1  0  0  0  0  0  0
  188.1970  174.3700  142.4910 C   0  0  0  0  0  2  0  0  0  0  0  0
  188.6480  175.5390  141.6480 C   0  0  2  0  0  3  0  0  0  0  0  0
  188.4720  176.8190  142.3960 C   0  0  0  0  0  0  0  0  0  0  0  0
  187.5580  176.8600  143.4900 N   0  0  0  0  0  2  0  0  0  0  0  0
  189.1510  177.8400  142.0890 O   0  0  0  0  0  0  0  0  0  0  0  0
  187.2960  178.0850  144.2330 C   0  0  0  0  0  2  0  0  0  0  0  0
  185.5450  179.7940  144.3550 C   0  0  0  0  0  1  0  0  0  0  0  0
  185.7950  178.2980  144.4910 C   0  0  2  0  0  0  0  0  0  0  0  0
  186.4660  178.1160  146.9450 C   0  0  0  0  0  1  0  0  0  0  0  0
  184.0950  178.4830  146.3850 C   0  0  0  0  0  1  0  0  0  0  0  0
  185.3820  177.8130  145.9170 C   0  0  0  0  0  0  0  0  0  0  0  0
  185.1690  176.4450  145.9160 F   0  0  0  0  0  0  0  0  0  0  0  0
  184.1080  178.2180  142.8010 O   0  0  0  0  0  0  0  0  0  0  0  0
  184.9810  177.6230  143.4160 C   0  0  0  0  0  3  0  0  0  0  0  0
  189.4840  172.2960  143.2430 C   0  0  0  0  0  2  0  0  0  0  0  0
  191.3730  173.9670  143.0810 C   0  0  0  0  0  2  0  0  0  0  0  0
  194.9610  173.1580  141.8880 C   0  0  0  0  0  0  0  0  0  0  0  0
  194.6650  172.5890  140.6620 F   0  0  0  0  0  0  0  0  0  0  0  0
  196.1180  173.9000  141.7650 F   0  0  0  0  0  0  0  0  0  0  0  0
  192.9810  172.4180  143.8370 N   0  0  1  0  0  0  0  0  0  0  0  0
  190.6610  172.9520  143.9780 C   0  0  2  0  0  0  0  0  0  0  0  0
  191.7040  171.8680  144.2590 C   0  0  0  0  0  2  0  0  0  0  0  0
  195.1950  172.0350  142.9210 C   0  0  0  0  0  2  0  0  0  0  0  0
  193.8750  171.3760  143.3540 C   0  0  0  0  0  2  0  0  0  0  0  0
  193.8110  174.0920  142.3040 C   0  0  0  0  0  2  0  0  0  0  0  0
  192.6240  173.2290  142.6920 C   0  0  2  0  0  3  0  0  0  0  0  0
  190.1720  173.5950  145.2850 C   0  0  0  0  0  2  0  0  0  0  0  0
  191.9940  174.9640  146.3280 C   0  0  0  0  0  1  0  0  0  0  0  0
  190.7050  175.0060  145.5230 C   0  0  2  0  0  3  0  0  0  0  0  0
  188.5610  175.3060  146.5160 O   0  0  0  0  0  0  0  0  0  0  0  0
  189.9510  177.1220  146.6310 O   0  0  0  0  0  1  0  0  0  0  0  0
  189.6770  175.8170  146.2400 C   0  0  0  0  0  0  0  0  0  0  0  0
  1  8  1  0  0  0  0
  2  7  1  0  0  0  0
  2 21  1  0  0  0  0
  3  5  1  0  0  0  0
  4  3  2  0  0  0  0
  4  1  1  0  0  0  0
  5  2  2  0  0  0  0
  6  3  1  0  0  0  0
  8  9  1  1  0  0  0
  8  7  1  0  0  0  0
  9 10  1  0  0  0  0
 10 12  1  0  0  0  0
 11  9  2  0  0  0  0
 12 14  1  0  0  0  0
 14 13  1  6  0  0  0
 14 17  1  0  0  0  0
 17 16  1  0  0  0  0
 17 15  1  0  0  0  0
 18 17  1  0  0  0  0
 19 20  2  0  0  0  0
 20 14  1  0  0  0  0
 22 27  1  0  0  0  0
 23 31  1  0  0  0  0
 23 29  1  0  0  0  0
 24 23  1  0  0  0  0
 25 23  1  0  0  0  0
 26 30  1  6  0  0  0
 26 28  1  0  0  0  0
 27 21  1  6  0  0  0
 27 28  1  0  0  0  0
 27 33  1  0  0  0  0
 29 30  1  0  0  0  0
 32 31  1  1  0  0  0
 32 22  1  0  0  0  0
 32 26  1  0  0  0  0
 33 35  1  0  0  0  0
 35 38  1  0  0  0  0
 35 34  1  1  0  0  0
 38 36  2  0  0  0  0
 38 37  1  0  0  0  0
M  END
>  <MODEL>
9

>  <REMARK>
 VINA RESULT:      -6.9      1.718      2.138
  Name = 
  10 active torsions:
  status: ('A' for Active; 'I' for Inactive)
    1  A    between atoms: C_1  and  N_17
    2  A    between atoms: C_1  and  C_31
    3  A    between atoms: C_3  and  C_22
    4  A    between atoms: C_15  and  C_19
    5  A    between atoms: C_15  and  C_38
    6  A    between atoms: C_16  and  C_35
    7  A    between atoms: C_18  and  C_19
    8  A    between atoms: C_18  and  C_22
    9  A    between atoms: C_21  and  C_31
   10  A    between atoms: C_31  and  C_33
                            x       y       z     vdW  Elec       q    Type
                         _______ _______ _______ _____ _____    ______ ____

>  <TORSDO>
F 10

$$$$
