=
 OpenBabel11062422083D

 27 30  0  0  1  0  0  0  0  0999 V2000
  187.9230  177.2470  143.0310 C   0  0  1  0  0  3  0  0  0  0  0  0
  188.0040  174.9010  142.6260 O   0  0  0  0  0  1  0  0  0  0  0  0
  187.8280  176.0490  142.1430 C   0  0  0  0  0  0  0  0  0  0  0  0
  187.5200  176.1880  140.7940 O   0  0  0  0  0  0  0  0  0  0  0  0
  187.6770  176.8750  144.4910 C   0  0  0  0  0  2  0  0  0  0  0  0
  185.7430  178.4200  144.0430 C   0  0  1  0  0  3  0  0  0  0  0  0
  185.8280  176.9810  146.1800 C   0  0  2  0  0  3  0  0  0  0  0  0
  184.1960  178.5930  146.0170 C   0  0  0  0  0  2  0  0  0  0  0  0
  186.6260  177.7770  145.1250 C   0  0  1  0  0  3  0  0  0  0  0  0
  184.3990  178.9520  144.5530 C   0  0  1  0  0  3  0  0  0  0  0  0
  184.4310  177.2160  146.1840 O   0  0  0  0  0  0  0  0  0  0  0  0
  185.5750  179.8880  144.3840 C   0  0  0  0  0  2  0  0  0  0  0  0
  187.2350  178.3130  147.5760 O   0  0  0  0  0  1  0  0  0  0  0  0
  186.4250  177.1780  147.5650 C   0  0  0  0  0  2  0  0  0  0  0  0
  189.2360  178.0070  142.8280 C   0  0  0  0  0  2  0  0  0  0  0  0
  190.1680  177.8970  144.0290 C   0  0  0  0  0  2  0  0  0  0  0  0
  191.4710  176.3240  142.7650 N   0  0  0  0  0  0  0  0  0  0  0  0
  190.0050  175.9850  147.2860 C   0  0  0  0  0  3  0  0  0  0  0  0
  191.0030  176.6600  143.9300 C   0  0  0  0  0  0  0  0  0  0  0  0
  189.6300  173.9850  145.9330 C   0  0  0  0  0  3  0  0  0  0  0  0
  191.0370  173.6270  144.0070 C   0  0  0  0  0  3  0  0  0  0  0  0
  192.2070  175.1310  142.4440 C   0  0  0  0  0  3  0  0  0  0  0  0
  189.3270  174.7070  147.0110 C   0  0  0  0  0  3  0  0  0  0  0  0
  191.9970  173.9680  142.9940 N   0  0  0  0  0  0  0  0  0  0  0  0
  190.9090  176.4880  146.4410 C   0  0  0  0  0  3  0  0  0  0  0  0
  191.2760  175.8090  145.1400 C   0  0  0  0  0  0  0  0  0  0  0  0
  190.6450  174.4520  144.9770 C   0  0  2  0  0  3  0  0  0  0  0  0
  1 15  1  1  0  0  0
  1  5  1  0  0  0  0
  3  2  1  0  0  0  0
  3  1  1  0  0  0  0
  4  3  2  0  0  0  0
  6 12  1  1  0  0  0
  6 10  1  0  0  0  0
  6  9  1  0  0  0  0
  7 11  1  0  0  0  0
  7 14  1  1  0  0  0
  8 11  1  0  0  0  0
  9  5  1  6  0  0  0
  9  7  1  0  0  0  0
 10 12  1  1  0  0  0
 10  8  1  0  0  0  0
 14 13  1  0  0  0  0
 15 16  1  0  0  0  0
 17 19  1  0  0  0  0
 19 16  1  0  0  0  0
 19 26  2  0  0  0  0
 20 23  2  0  0  0  0
 22 17  2  0  0  0  0
 22 24  1  0  0  0  0
 23 18  1  0  0  0  0
 24 21  2  0  0  0  0
 25 18  2  0  0  0  0
 26 25  1  0  0  0  0
 27 21  1  1  0  0  0
 27 26  1  0  0  0  0
 27 20  1  0  0  0  0
M  END
>  <MODEL>
1

>  <REMARK>
 VINA RESULT:      -7.1      0.000      0.000
  Name = 
  7 active torsions:
  status: ('A' for Active; 'I' for Inactive)
    1  A    between atoms: C_3  and  C_20
    2  A    between atoms: C_7  and  C_18
    3  A    between atoms: C_12  and  C_24
    4  A    between atoms: C_13  and  C_16
    5  A    between atoms: C_16  and  C_24
    6  A    between atoms: C_18  and  C_27
    7  A    between atoms: C_24  and  C_27
                            x       y       z     vdW  Elec       q    Type
                         _______ _______ _______ _____ _____    ______ ____

>  <TORSDO>
F 7

$$$$
=
 OpenBabel11062422083D

 27 30  0  0  1  0  0  0  0  0999 V2000
  188.7040  175.4480  143.1650 C   0  0  1  0  0  3  0  0  0  0  0  0
  188.1210  175.4430  140.8560 O   0  0  0  0  0  0  0  0  0  0  0  0
  188.1610  174.7970  141.9350 C   0  0  0  0  0  0  0  0  0  0  0  0
  187.7260  173.4770  141.9630 O   0  0  0  0  0  1  0  0  0  0  0  0
  189.9620  174.7380  143.6590 C   0  0  0  0  0  2  0  0  0  0  0  0
  189.6070  174.9790  146.1370 C   0  0  1  0  0  3  0  0  0  0  0  0
  191.9780  175.0000  145.1250 C   0  0  2  0  0  3  0  0  0  0  0  0
  191.7360  175.5520  147.3440 C   0  0  0  0  0  2  0  0  0  0  0  0
  190.4900  175.3680  144.9400 C   0  0  1  0  0  3  0  0  0  0  0  0
  190.2770  175.1520  147.5050 C   0  0  1  0  0  3  0  0  0  0  0  0
  192.3560  174.6640  146.4480 O   0  0  0  0  0  0  0  0  0  0  0  0
  189.3600  176.2250  146.9650 C   0  0  0  0  0  2  0  0  0  0  0  0
  192.1520  177.2720  144.4090 O   0  0  0  0  0  1  0  0  0  0  0  0
  192.8750  176.0880  144.5540 C   0  0  0  0  0  2  0  0  0  0  0  0
  188.9120  176.9520  142.9720 C   0  0  0  0  0  2  0  0  0  0  0  0
  187.9870  177.7890  143.8480 C   0  0  0  0  0  2  0  0  0  0  0  0
  186.3000  177.9840  142.1500 N   0  0  0  0  0  0  0  0  0  0  0  0
  185.7210  177.1070  146.7970 C   0  0  0  0  0  3  0  0  0  0  0  0
  186.5720  177.6640  143.3790 C   0  0  0  0  0  0  0  0  0  0  0  0
  184.2480  178.8310  145.8880 C   0  0  0  0  0  3  0  0  0  0  0  0
  183.7570  178.7870  143.5270 C   0  0  0  0  0  3  0  0  0  0  0  0
  184.9990  178.0260  141.5390 C   0  0  0  0  0  3  0  0  0  0  0  0
  184.8330  178.2720  146.9460 C   0  0  0  0  0  3  0  0  0  0  0  0
  183.9070  178.3830  142.1560 N   0  0  0  0  0  0  0  0  0  0  0  0
  186.0120  176.6030  145.5940 C   0  0  0  0  0  3  0  0  0  0  0  0
  185.4840  177.2030  144.3100 C   0  0  0  0  0  0  0  0  0  0  0  0
  184.4850  178.3080  144.5340 C   0  0  2  0  0  3  0  0  0  0  0  0
  1 15  1  6  0  0  0
  1  5  1  0  0  0  0
  2  3  2  0  0  0  0
  3  4  1  0  0  0  0
  3  1  1  0  0  0  0
  6 12  1  1  0  0  0
  6 10  1  0  0  0  0
  7 14  1  1  0  0  0
  7 11  1  0  0  0  0
  8 10  1  0  0  0  0
  9  5  1  6  0  0  0
  9  7  1  0  0  0  0
  9  6  1  0  0  0  0
 10 12  1  1  0  0  0
 11  8  1  0  0  0  0
 13 14  1  0  0  0  0
 15 16  1  0  0  0  0
 17 19  1  0  0  0  0
 18 23  1  0  0  0  0
 19 16  1  0  0  0  0
 19 26  2  0  0  0  0
 20 23  2  0  0  0  0
 22 17  2  0  0  0  0
 22 24  1  0  0  0  0
 24 21  2  0  0  0  0
 25 18  2  0  0  0  0
 26 27  1  0  0  0  0
 26 25  1  0  0  0  0
 27 21  1  1  0  0  0
 27 20  1  0  0  0  0
M  END
>  <MODEL>
2

>  <REMARK>
 VINA RESULT:      -7.1      2.699      5.907
  Name = 
  7 active torsions:
  status: ('A' for Active; 'I' for Inactive)
    1  A    between atoms: C_3  and  C_20
    2  A    between atoms: C_7  and  C_18
    3  A    between atoms: C_12  and  C_24
    4  A    between atoms: C_13  and  C_16
    5  A    between atoms: C_16  and  C_24
    6  A    between atoms: C_18  and  C_27
    7  A    between atoms: C_24  and  C_27
                            x       y       z     vdW  Elec       q    Type
                         _______ _______ _______ _____ _____    ______ ____

>  <TORSDO>
F 7

$$$$
=
 OpenBabel11062422083D

 27 30  0  0  1  0  0  0  0  0999 V2000
  187.8180  176.5400  142.8930 C   0  0  1  0  0  3  0  0  0  0  0  0
  189.3060  178.1990  142.0510 O   0  0  0  0  0  1  0  0  0  0  0  0
  188.2420  177.5490  141.8760 C   0  0  0  0  0  0  0  0  0  0  0  0
  187.4900  177.7580  140.7260 O   0  0  0  0  0  0  0  0  0  0  0  0
  186.3160  176.2760  142.8190 C   0  0  0  0  0  2  0  0  0  0  0  0
  186.3950  177.1570  145.1740 C   0  0  1  0  0  3  0  0  0  0  0  0
  185.1340  178.4280  143.3190 C   0  0  2  0  0  3  0  0  0  0  0  0
  184.8760  179.1350  145.4920 C   0  0  0  0  0  2  0  0  0  0  0  0
  185.5610  177.0570  143.8850 C   0  0  1  0  0  3  0  0  0  0  0  0
  185.9660  178.2810  146.1230 C   0  0  1  0  0  3  0  0  0  0  0  0
  185.2900  179.5220  144.2050 O   0  0  0  0  0  0  0  0  0  0  0  0
  185.4820  176.8660  146.3490 C   0  0  0  0  0  2  0  0  0  0  0  0
  183.7570  178.2340  141.3770 O   0  0  0  0  0  1  0  0  0  0  0  0
  183.7180  178.3630  142.7660 C   0  0  0  0  0  2  0  0  0  0  0  0
  188.6480  175.2570  142.8050 C   0  0  0  0  0  2  0  0  0  0  0  0
  189.4930  175.0190  144.0510 C   0  0  0  0  0  2  0  0  0  0  0  0
  191.6150  175.4180  142.9970 N   0  0  0  0  0  0  0  0  0  0  0  0
  189.9780  177.1960  147.1030 C   0  0  0  0  0  3  0  0  0  0  0  0
  190.7930  175.7530  143.9460 C   0  0  0  0  0  0  0  0  0  0  0  0
  192.2530  176.3110  147.2030 C   0  0  0  0  0  3  0  0  0  0  0  0
  193.5340  176.2160  145.1620 C   0  0  0  0  0  3  0  0  0  0  0  0
  192.9410  175.9310  142.7870 C   0  0  0  0  0  3  0  0  0  0  0  0
  191.1380  176.6670  147.8400 C   0  0  0  0  0  3  0  0  0  0  0  0
  193.7600  176.2680  143.7440 N   0  0  0  0  0  0  0  0  0  0  0  0
  189.9840  177.2900  145.7710 C   0  0  0  0  0  3  0  0  0  0  0  0
  191.1540  176.8350  144.9260 C   0  0  0  0  0  0  0  0  0  0  0  0
  192.3520  176.4240  145.7400 C   0  0  2  0  0  3  0  0  0  0  0  0
  1 15  1  6  0  0  0
  3  2  1  0  0  0  0
  3  1  1  0  0  0  0
  4  3  2  0  0  0  0
  5  1  1  0  0  0  0
  6 10  1  0  0  0  0
  6 12  1  1  0  0  0
  7 14  1  1  0  0  0
  7  9  1  0  0  0  0
  7 11  1  0  0  0  0
  9  5  1  6  0  0  0
  9  6  1  0  0  0  0
 10  8  1  6  0  0  0
 10 12  1  0  0  0  0
 11  8  1  0  0  0  0
 13 14  1  0  0  0  0
 15 16  1  0  0  0  0
 17 19  1  0  0  0  0
 18 23  1  0  0  0  0
 19 16  1  0  0  0  0
 19 26  2  0  0  0  0
 20 23  2  0  0  0  0
 22 17  2  0  0  0  0
 22 24  1  0  0  0  0
 24 21  2  0  0  0  0
 25 18  2  0  0  0  0
 26 27  1  0  0  0  0
 26 25  1  0  0  0  0
 27 21  1  1  0  0  0
 27 20  1  0  0  0  0
M  END
>  <MODEL>
3

>  <REMARK>
 VINA RESULT:      -6.9      1.783      2.912
  Name = 
  7 active torsions:
  status: ('A' for Active; 'I' for Inactive)
    1  A    between atoms: C_3  and  C_20
    2  A    between atoms: C_7  and  C_18
    3  A    between atoms: C_12  and  C_24
    4  A    between atoms: C_13  and  C_16
    5  A    between atoms: C_16  and  C_24
    6  A    between atoms: C_18  and  C_27
    7  A    between atoms: C_24  and  C_27
                            x       y       z     vdW  Elec       q    Type
                         _______ _______ _______ _____ _____    ______ ____

>  <TORSDO>
F 7

$$$$
=
 OpenBabel11062422083D

 27 30  0  0  1  0  0  0  0  0999 V2000
  188.2900  177.1360  142.5810 C   0  0  1  0  0  3  0  0  0  0  0  0
  187.7460  175.9710  140.5760 O   0  0  0  0  0  0  0  0  0  0  0  0
  188.4160  175.9810  141.6410 C   0  0  0  0  0  0  0  0  0  0  0  0
  189.2860  174.9330  141.9170 O   0  0  0  0  0  1  0  0  0  0  0  0
  187.8350  176.6780  143.9640 C   0  0  0  0  0  2  0  0  0  0  0  0
  186.6360  177.9600  145.7670 C   0  0  1  0  0  3  0  0  0  0  0  0
  186.0950  178.3450  143.2760 C   0  0  2  0  0  3  0  0  0  0  0  0
  184.7290  179.3160  144.8500 C   0  0  0  0  0  2  0  0  0  0  0  0
  186.5230  177.3380  144.3650 C   0  0  1  0  0  3  0  0  0  0  0  0
  185.5800  179.0260  146.0770 C   0  0  1  0  0  3  0  0  0  0  0  0
  185.5770  179.5720  143.7580 O   0  0  0  0  0  0  0  0  0  0  0  0
  185.3860  177.6000  146.5450 C   0  0  0  0  0  2  0  0  0  0  0  0
  185.2760  178.2860  141.0330 O   0  0  0  0  0  1  0  0  0  0  0  0
  185.1390  177.6930  142.2880 C   0  0  0  0  0  2  0  0  0  0  0  0
  189.5680  177.9770  142.6280 C   0  0  0  0  0  2  0  0  0  0  0  0
  190.1960  178.0120  144.0170 C   0  0  0  0  0  2  0  0  0  0  0  0
  191.9810  176.6570  143.1540 N   0  0  0  0  0  0  0  0  0  0  0  0
  189.5380  176.0890  147.2050 C   0  0  0  0  0  3  0  0  0  0  0  0
  191.2030  176.9150  144.1610 C   0  0  0  0  0  0  0  0  0  0  0  0
  189.7990  174.0590  145.8710 C   0  0  0  0  0  3  0  0  0  0  0  0
  191.6640  173.9220  144.3480 C   0  0  0  0  0  3  0  0  0  0  0  0
  192.9400  175.5900  143.0580 C   0  0  0  0  0  3  0  0  0  0  0  0
  189.1420  174.7250  146.8210 C   0  0  0  0  0  3  0  0  0  0  0  0
  192.7790  174.4070  143.5820 N   0  0  0  0  0  0  0  0  0  0  0  0
  190.5350  176.7250  146.5830 C   0  0  0  0  0  3  0  0  0  0  0  0
  191.3000  176.1130  145.4310 C   0  0  0  0  0  0  0  0  0  0  0  0
  190.9340  174.6760  145.1690 C   0  0  2  0  0  3  0  0  0  0  0  0
  1 15  1  1  0  0  0
  1  5  1  0  0  0  0
  2  3  2  0  0  0  0
  3  4  1  0  0  0  0
  3  1  1  0  0  0  0
  6 10  1  0  0  0  0
  6 12  1  1  0  0  0
  7 14  1  1  0  0  0
  7 11  1  0  0  0  0
  7  9  1  0  0  0  0
  9  5  1  6  0  0  0
  9  6  1  0  0  0  0
 10  8  1  6  0  0  0
 10 12  1  0  0  0  0
 11  8  1  0  0  0  0
 13 14  1  0  0  0  0
 15 16  1  0  0  0  0
 16 19  1  0  0  0  0
 17 19  1  0  0  0  0
 19 26  2  0  0  0  0
 20 23  2  0  0  0  0
 22 17  2  0  0  0  0
 22 24  1  0  0  0  0
 23 18  1  0  0  0  0
 24 21  2  0  0  0  0
 25 18  2  0  0  0  0
 26 25  1  0  0  0  0
 27 21  1  1  0  0  0
 27 26  1  0  0  0  0
 27 20  1  0  0  0  0
M  END
>  <MODEL>
4

>  <REMARK>
 VINA RESULT:      -6.9      1.330      2.256
  Name = 
  7 active torsions:
  status: ('A' for Active; 'I' for Inactive)
    1  A    between atoms: C_3  and  C_20
    2  A    between atoms: C_7  and  C_18
    3  A    between atoms: C_12  and  C_24
    4  A    between atoms: C_13  and  C_16
    5  A    between atoms: C_16  and  C_24
    6  A    between atoms: C_18  and  C_27
    7  A    between atoms: C_24  and  C_27
                            x       y       z     vdW  Elec       q    Type
                         _______ _______ _______ _____ _____    ______ ____

>  <TORSDO>
F 7

$$$$
=
 OpenBabel11062422083D

 27 30  0  0  1  0  0  0  0  0999 V2000
  186.4270  176.8860  147.0270 C   0  0  1  0  0  3  0  0  0  0  0  0
  184.8020  178.5160  147.6410 O   0  0  0  0  0  0  0  0  0  0  0  0
  186.0150  178.1820  147.6470 C   0  0  0  0  0  0  0  0  0  0  0  0
  186.9530  179.0070  148.2560 O   0  0  0  0  0  1  0  0  0  0  0  0
  185.5920  176.5750  145.7870 C   0  0  0  0  0  2  0  0  0  0  0  0
  186.9830  176.5430  143.6920 C   0  0  1  0  0  3  0  0  0  0  0  0
  184.8340  177.9590  143.8400 C   0  0  2  0  0  3  0  0  0  0  0  0
  186.2040  178.2480  142.0170 C   0  0  0  0  0  2  0  0  0  0  0  0
  186.0580  177.3850  144.5850 C   0  0  1  0  0  3  0  0  0  0  0  0
  187.1310  177.0650  142.2580 C   0  0  1  0  0  3  0  0  0  0  0  0
  184.9050  177.8990  142.4270 O   0  0  0  0  0  0  0  0  0  0  0  0
  188.1720  177.3990  143.3030 C   0  0  0  0  0  2  0  0  0  0  0  0
  185.7030  179.9950  144.7360 O   0  0  0  0  0  1  0  0  0  0  0  0
  184.5280  179.3710  144.3180 C   0  0  0  0  0  2  0  0  0  0  0  0
  187.9320  176.8360  146.7540 C   0  0  0  0  0  2  0  0  0  0  0  0
  188.5070  175.4310  146.8960 C   0  0  0  0  0  2  0  0  0  0  0  0
  190.6580  176.2820  147.5440 N   0  0  0  0  0  0  0  0  0  0  0  0
  189.5950  173.4230  143.8830 C   0  0  0  0  0  3  0  0  0  0  0  0
  189.9980  175.4650  146.7790 C   0  0  0  0  0  0  0  0  0  0  0  0
  191.0490  175.3060  143.3260 C   0  0  0  0  0  2  0  0  0  0  0  0
  192.3780  176.2850  145.0850 C   0  0  0  0  0  3  0  0  0  0  0  0
  192.0730  176.5320  147.5180 C   0  0  0  0  0  3  0  0  0  0  0  0
  190.1970  174.3630  142.9240 C   0  0  0  0  0  3  0  0  0  0  0  0
  192.8000  176.5320  146.4360 N   0  0  0  0  0  0  0  0  0  0  0  0
  189.8400  173.5140  145.1930 C   0  0  0  0  0  3  0  0  0  0  0  0
  190.7180  174.5940  145.7860 C   0  0  0  0  0  0  0  0  0  0  0  0
  191.4020  175.4430  144.7470 C   0  0  0  0  0  0  0  0  0  0  0  0
  1  5  1  6  0  0  0
  1  3  1  0  0  0  0
  2  3  2  0  0  0  0
  3  4  1  0  0  0  0
  6 12  1  1  0  0  0
  6  9  1  0  0  0  0
  7 14  1  6  0  0  0
  7  9  1  0  0  0  0
  8 11  1  0  0  0  0
  9  5  1  1  0  0  0
 10  8  1  1  0  0  0
 10 12  1  0  0  0  0
 10  6  1  0  0  0  0
 11  7  1  0  0  0  0
 14 13  1  0  0  0  0
 15 16  1  0  0  0  0
 15  1  1  0  0  0  0
 18 25  1  0  0  0  0
 19 16  1  0  0  0  0
 19 17  2  0  0  0  0
 20 27  1  0  0  0  0
 21 24  1  0  0  0  0
 22 17  1  0  0  0  0
 23 20  1  0  0  0  0
 23 18  2  0  0  0  0
 24 22  2  0  0  0  0
 25 26  2  0  0  0  0
 26 19  1  0  0  0  0
 27 21  2  0  0  0  0
 27 26  1  0  0  0  0
M  END
>  <MODEL>
5

>  <REMARK>
 VINA RESULT:      -6.9      1.919      4.191
  Name = 
  7 active torsions:
  status: ('A' for Active; 'I' for Inactive)
    1  A    between atoms: C_3  and  C_20
    2  A    between atoms: C_7  and  C_18
    3  A    between atoms: C_12  and  C_24
    4  A    between atoms: C_13  and  C_16
    5  A    between atoms: C_16  and  C_24
    6  A    between atoms: C_18  and  C_27
    7  A    between atoms: C_24  and  C_27
                            x       y       z     vdW  Elec       q    Type
                         _______ _______ _______ _____ _____    ______ ____

>  <TORSDO>
F 7

$$$$
=
 OpenBabel11062422083D

 27 30  0  0  1  0  0  0  0  0999 V2000
  189.0310  177.7400  144.8350 C   0  0  1  0  0  3  0  0  0  0  0  0
  189.5430  177.6380  142.5110 O   0  0  0  0  0  0  0  0  0  0  0  0
  189.9690  177.8430  143.6760 C   0  0  0  0  0  0  0  0  0  0  0  0
  191.3010  178.1930  143.8710 O   0  0  0  0  0  1  0  0  0  0  0  0
  187.9380  176.7060  144.5720 C   0  0  0  0  0  2  0  0  0  0  0  0
  186.2520  177.3570  146.3220 C   0  0  1  0  0  3  0  0  0  0  0  0
  186.4280  178.6490  144.0980 C   0  0  2  0  0  3  0  0  0  0  0  0
  184.6520  179.1060  145.4850 C   0  0  0  0  0  2  0  0  0  0  0  0
  186.5520  177.2880  144.8160 C   0  0  1  0  0  3  0  0  0  0  0  0
  185.1280  178.3270  146.7030 C   0  0  1  0  0  3  0  0  0  0  0  0
  185.7690  179.6620  144.8360 O   0  0  0  0  0  0  0  0  0  0  0  0
  184.8410  176.8510  146.5450 C   0  0  0  0  0  2  0  0  0  0  0  0
  185.1770  177.2320  142.6380 O   0  0  0  0  0  1  0  0  0  0  0  0
  185.8050  178.4750  142.7210 C   0  0  0  0  0  2  0  0  0  0  0  0
  189.7720  177.4940  146.1510 C   0  0  0  0  0  2  0  0  0  0  0  0
  189.8480  176.0160  146.5140 C   0  0  0  0  0  2  0  0  0  0  0  0
  192.2410  176.0290  146.7260 N   0  0  0  0  0  0  0  0  0  0  0  0
  189.5590  173.5110  143.6980 C   0  0  0  0  0  3  0  0  0  0  0  0
  191.2010  175.4680  146.1860 C   0  0  0  0  0  0  0  0  0  0  0  0
  191.4680  174.6430  142.6780 C   0  0  0  0  0  2  0  0  0  0  0  0
  193.3610  175.1770  144.0750 C   0  0  0  0  0  3  0  0  0  0  0  0
  193.6200  175.7160  146.4660 C   0  0  0  0  0  3  0  0  0  0  0  0
  190.2740  174.0690  142.5390 C   0  0  0  0  0  3  0  0  0  0  0  0
  194.0850  175.3520  145.3040 N   0  0  0  0  0  0  0  0  0  0  0  0
  190.0570  173.6050  144.9340 C   0  0  0  0  0  3  0  0  0  0  0  0
  191.3600  174.3110  145.2370 C   0  0  0  0  0  0  0  0  0  0  0  0
  192.1020  174.7490  144.0020 C   0  0  0  0  0  0  0  0  0  0  0  0
  1  5  1  6  0  0  0
  1 15  1  0  0  0  0
  2  3  2  0  0  0  0
  3  4  1  0  0  0  0
  3  1  1  0  0  0  0
  6 12  1  6  0  0  0
  6 10  1  0  0  0  0
  7 14  1  6  0  0  0
  7  9  1  0  0  0  0
  7 11  1  0  0  0  0
  9  5  1  1  0  0  0
  9  6  1  0  0  0  0
 10  8  1  6  0  0  0
 11  8  1  0  0  0  0
 12 10  1  0  0  0  0
 13 14  1  0  0  0  0
 15 16  1  0  0  0  0
 18 25  1  0  0  0  0
 19 16  1  0  0  0  0
 19 17  2  0  0  0  0
 20 27  1  0  0  0  0
 21 24  1  0  0  0  0
 22 17  1  0  0  0  0
 23 20  1  0  0  0  0
 23 18  2  0  0  0  0
 24 22  2  0  0  0  0
 25 26  2  0  0  0  0
 26 19  1  0  0  0  0
 27 21  2  0  0  0  0
 27 26  1  0  0  0  0
M  END
>  <MODEL>
6

>  <REMARK>
 VINA RESULT:      -6.8      2.055      3.370
  Name = 
  7 active torsions:
  status: ('A' for Active; 'I' for Inactive)
    1  A    between atoms: C_3  and  C_20
    2  A    between atoms: C_7  and  C_18
    3  A    between atoms: C_12  and  C_24
    4  A    between atoms: C_13  and  C_16
    5  A    between atoms: C_16  and  C_24
    6  A    between atoms: C_18  and  C_27
    7  A    between atoms: C_24  and  C_27
                            x       y       z     vdW  Elec       q    Type
                         _______ _______ _______ _____ _____    ______ ____

>  <TORSDO>
F 7

$$$$
=
 OpenBabel11062422083D

 27 30  0  0  1  0  0  0  0  0999 V2000
  190.4980  175.7860  146.8650 C   0  0  1  0  0  3  0  0  0  0  0  0
  188.6940  174.5380  147.7910 O   0  0  0  0  0  1  0  0  0  0  0  0
  189.4640  174.7090  146.8110 C   0  0  0  0  0  0  0  0  0  0  0  0
  189.3260  173.9140  145.6790 O   0  0  0  0  0  0  0  0  0  0  0  0
  191.8550  175.2320  147.2950 C   0  0  0  0  0  2  0  0  0  0  0  0
  194.0570  176.1520  146.5020 C   0  0  1  0  0  3  0  0  0  0  0  0
  193.2480  173.8180  145.7650 C   0  0  2  0  0  3  0  0  0  0  0  0
  195.1050  174.7010  144.7360 C   0  0  0  0  0  2  0  0  0  0  0  0
  192.8550  175.2610  146.1480 C   0  0  1  0  0  3  0  0  0  0  0  0
  195.3110  175.8940  145.6580 C   0  0  1  0  0  3  0  0  0  0  0  0
  194.6240  173.6190  145.4940 O   0  0  0  0  0  0  0  0  0  0  0  0
  194.3690  177.0220  145.3000 C   0  0  0  0  0  2  0  0  0  0  0  0
  192.4980  171.9240  144.5170 O   0  0  0  0  0  1  0  0  0  0  0  0
  192.3810  173.3100  144.6230 C   0  0  0  0  0  2  0  0  0  0  0  0
  190.5710  176.5760  145.5560 C   0  0  0  0  0  2  0  0  0  0  0  0
  189.5780  177.7310  145.5120 C   0  0  0  0  0  2  0  0  0  0  0  0
  189.0260  177.5400  143.1820 N   0  0  0  0  0  0  0  0  0  0  0  0
  186.0640  177.8550  146.9000 C   0  0  0  0  0  3  0  0  0  0  0  0
  188.5910  177.5280  144.4060 C   0  0  0  0  0  0  0  0  0  0  0  0
  185.5250  179.3340  145.0320 C   0  0  0  0  0  3  0  0  0  0  0  0
  186.2890  178.7180  142.8280 C   0  0  0  0  0  3  0  0  0  0  0  0
  188.2330  177.4590  141.9850 C   0  0  0  0  0  3  0  0  0  0  0  0
  185.4070  179.0410  146.3260 C   0  0  0  0  0  3  0  0  0  0  0  0
  187.0460  177.9830  141.8530 N   0  0  0  0  0  0  0  0  0  0  0  0
  186.8410  177.0620  146.1570 C   0  0  0  0  0  3  0  0  0  0  0  0
  187.1280  177.3370  144.6980 C   0  0  0  0  0  0  0  0  0  0  0  0
  186.3300  178.4860  144.1400 C   0  0  2  0  0  3  0  0  0  0  0  0
  1 15  1  6  0  0  0
  1  5  1  0  0  0  0
  3  1  1  0  0  0  0
  3  2  1  0  0  0  0
  4  3  2  0  0  0  0
  6 12  1  6  0  0  0
  7 14  1  6  0  0  0
  7  9  1  0  0  0  0
  8 11  1  0  0  0  0
  9  6  1  0  0  0  0
  9  5  1  1  0  0  0
 10  8  1  6  0  0  0
 10  6  1  0  0  0  0
 11  7  1  0  0  0  0
 12 10  1  0  0  0  0
 13 14  1  0  0  0  0
 16 15  1  0  0  0  0
 17 19  1  0  0  0  0
 19 26  2  0  0  0  0
 19 16  1  0  0  0  0
 20 23  2  0  0  0  0
 22 17  2  0  0  0  0
 23 18  1  0  0  0  0
 24 22  1  0  0  0  0
 24 21  2  0  0  0  0
 25 18  2  0  0  0  0
 26 25  1  0  0  0  0
 27 21  1  6  0  0  0
 27 26  1  0  0  0  0
 27 20  1  0  0  0  0
M  END
>  <MODEL>
7

>  <REMARK>
 VINA RESULT:      -6.7      2.904      6.801
  Name = 
  7 active torsions:
  status: ('A' for Active; 'I' for Inactive)
    1  A    between atoms: C_3  and  C_20
    2  A    between atoms: C_7  and  C_18
    3  A    between atoms: C_12  and  C_24
    4  A    between atoms: C_13  and  C_16
    5  A    between atoms: C_16  and  C_24
    6  A    between atoms: C_18  and  C_27
    7  A    between atoms: C_24  and  C_27
                            x       y       z     vdW  Elec       q    Type
                         _______ _______ _______ _____ _____    ______ ____

>  <TORSDO>
F 7

$$$$
=
 OpenBabel11062422083D

 27 30  0  0  1  0  0  0  0  0999 V2000
  189.3650  175.9020  142.8520 C   0  0  1  0  0  3  0  0  0  0  0  0
  188.0590  175.4240  140.9180 O   0  0  0  0  0  0  0  0  0  0  0  0
  189.0340  175.0920  141.6410 C   0  0  0  0  0  0  0  0  0  0  0  0
  189.8090  173.9930  141.2880 O   0  0  0  0  0  1  0  0  0  0  0  0
  190.8310  175.7400  143.2440 C   0  0  0  0  0  2  0  0  0  0  0  0
  191.0950  176.5840  145.5990 C   0  0  1  0  0  3  0  0  0  0  0  0
  189.8140  174.4020  145.1030 C   0  0  2  0  0  3  0  0  0  0  0  0
  190.2810  174.9160  147.2950 C   0  0  0  0  0  2  0  0  0  0  0  0
  190.9750  175.3380  144.7050 C   0  0  1  0  0  3  0  0  0  0  0  0
  190.7770  176.3380  147.0780 C   0  0  1  0  0  3  0  0  0  0  0  0
  189.2490  174.6500  146.3780 O   0  0  0  0  0  0  0  0  0  0  0  0
  192.2100  176.3420  146.5970 C   0  0  0  0  0  2  0  0  0  0  0  0
  189.3160  172.2780  144.1310 O   0  0  0  0  0  1  0  0  0  0  0  0
  190.2240  172.9450  144.9540 C   0  0  0  0  0  2  0  0  0  0  0  0
  188.9550  177.3680  142.6880 C   0  0  0  0  0  2  0  0  0  0  0  0
  188.2470  177.9190  143.9200 C   0  0  0  0  0  2  0  0  0  0  0  0
  186.2540  178.1780  142.6040 N   0  0  0  0  0  0  0  0  0  0  0  0
  186.6140  177.2470  147.2630 C   0  0  0  0  0  3  0  0  0  0  0  0
  186.7630  177.8340  143.7480 C   0  0  0  0  0  0  0  0  0  0  0  0
  185.0300  179.0170  146.6900 C   0  0  0  0  0  3  0  0  0  0  0  0
  184.0670  179.0180  144.4790 C   0  0  0  0  0  3  0  0  0  0  0  0
  184.8570  178.2580  142.2720 C   0  0  0  0  0  3  0  0  0  0  0  0
  185.8050  178.4290  147.6010 C   0  0  0  0  0  3  0  0  0  0  0  0
  183.9240  178.6300  143.1030 N   0  0  0  0  0  0  0  0  0  0  0  0
  186.6400  176.7540  146.0220 C   0  0  0  0  0  3  0  0  0  0  0  0
  185.8760  177.3840  144.8780 C   0  0  0  0  0  0  0  0  0  0  0  0
  184.9730  178.5080  145.3120 C   0  0  2  0  0  3  0  0  0  0  0  0
  1 15  1  6  0  0  0
  1  5  1  0  0  0  0
  2  3  2  0  0  0  0
  3  1  1  0  0  0  0
  4  3  1  0  0  0  0
  6 12  1  1  0  0  0
  6 10  1  0  0  0  0
  7 14  1  1  0  0  0
  7 11  1  0  0  0  0
  9  5  1  6  0  0  0
  9  7  1  0  0  0  0
  9  6  1  0  0  0  0
 10 12  1  1  0  0  0
 10  8  1  0  0  0  0
 11  8  1  0  0  0  0
 13 14  1  0  0  0  0
 15 16  1  0  0  0  0
 17 19  1  0  0  0  0
 18 23  1  0  0  0  0
 19 16  1  0  0  0  0
 19 26  2  0  0  0  0
 20 23  2  0  0  0  0
 22 17  2  0  0  0  0
 22 24  1  0  0  0  0
 24 21  2  0  0  0  0
 25 18  2  0  0  0  0
 26 27  1  0  0  0  0
 26 25  1  0  0  0  0
 27 21  1  1  0  0  0
 27 20  1  0  0  0  0
M  END
>  <MODEL>
8

>  <REMARK>
 VINA RESULT:      -6.7      2.449      5.689
  Name = 
  7 active torsions:
  status: ('A' for Active; 'I' for Inactive)
    1  A    between atoms: C_3  and  C_20
    2  A    between atoms: C_7  and  C_18
    3  A    between atoms: C_12  and  C_24
    4  A    between atoms: C_13  and  C_16
    5  A    between atoms: C_16  and  C_24
    6  A    between atoms: C_18  and  C_27
    7  A    between atoms: C_24  and  C_27
                            x       y       z     vdW  Elec       q    Type
                         _______ _______ _______ _____ _____    ______ ____

>  <TORSDO>
F 7

$$$$
=
 OpenBabel11062422083D

 27 30  0  0  1  0  0  0  0  0999 V2000
  189.2070  177.8220  145.0730 C   0  0  1  0  0  3  0  0  0  0  0  0
  189.4310  177.9160  142.7040 O   0  0  0  0  0  0  0  0  0  0  0  0
  190.0140  177.9160  143.8190 C   0  0  0  0  0  0  0  0  0  0  0  0
  191.3980  178.0320  143.8720 O   0  0  0  0  0  1  0  0  0  0  0  0
  187.8870  177.0940  144.8300 C   0  0  0  0  0  2  0  0  0  0  0  0
  185.8940  178.4350  144.0830 C   0  0  1  0  0  3  0  0  0  0  0  0
  185.8560  177.1180  146.2990 C   0  0  2  0  0  3  0  0  0  0  0  0
  184.1250  178.5670  145.8630 C   0  0  0  0  0  2  0  0  0  0  0  0
  186.6990  177.9280  145.2910 C   0  0  1  0  0  3  0  0  0  0  0  0
  184.4610  178.8690  144.4100 C   0  0  1  0  0  3  0  0  0  0  0  0
  184.4540  177.2270  146.1380 O   0  0  0  0  0  0  0  0  0  0  0  0
  185.5660  179.8960  144.3140 C   0  0  0  0  0  2  0  0  0  0  0  0
  186.9340  178.6660  147.7650 O   0  0  0  0  0  1  0  0  0  0  0  0
  186.2740  177.4380  147.7270 C   0  0  0  0  0  2  0  0  0  0  0  0
  190.0120  177.2170  146.2260 C   0  0  0  0  0  2  0  0  0  0  0  0
  189.8550  175.7040  146.3200 C   0  0  0  0  0  2  0  0  0  0  0  0
  192.2160  175.2910  146.4820 N   0  0  0  0  0  0  0  0  0  0  0  0
  189.1990  173.8780  143.0750 C   0  0  0  0  0  3  0  0  0  0  0  0
  191.1060  175.0210  145.8640 C   0  0  0  0  0  0  0  0  0  0  0  0
  191.2780  174.8690  142.2580 C   0  0  0  0  0  2  0  0  0  0  0  0
  193.2150  174.8090  143.6930 C   0  0  0  0  0  3  0  0  0  0  0  0
  193.5290  174.8190  146.1380 C   0  0  0  0  0  3  0  0  0  0  0  0
  190.0080  174.5310  142.0330 C   0  0  0  0  0  3  0  0  0  0  0  0
  193.9440  174.6200  144.9180 N   0  0  0  0  0  0  0  0  0  0  0  0
  189.6910  173.6470  144.2950 C   0  0  0  0  0  3  0  0  0  0  0  0
  191.0870  174.0630  144.7040 C   0  0  0  0  0  0  0  0  0  0  0  0
  191.9050  174.6090  143.5630 C   0  0  0  0  0  0  0  0  0  0  0  0
  1  5  1  6  0  0  0
  1 15  1  0  0  0  0
  2  3  2  0  0  0  0
  3  4  1  0  0  0  0
  3  1  1  0  0  0  0
  6 12  1  1  0  0  0
  6 10  1  0  0  0  0
  6  9  1  0  0  0  0
  7 14  1  1  0  0  0
  8 11  1  0  0  0  0
  9  5  1  6  0  0  0
  9  7  1  0  0  0  0
 10 12  1  1  0  0  0
 10  8  1  0  0  0  0
 11  7  1  0  0  0  0
 14 13  1  0  0  0  0
 15 16  1  0  0  0  0
 18 25  1  0  0  0  0
 19 16  1  0  0  0  0
 19 17  2  0  0  0  0
 20 27  1  0  0  0  0
 21 24  1  0  0  0  0
 22 17  1  0  0  0  0
 23 20  1  0  0  0  0
 23 18  2  0  0  0  0
 24 22  2  0  0  0  0
 25 26  2  0  0  0  0
 26 19  1  0  0  0  0
 27 21  2  0  0  0  0
 27 26  1  0  0  0  0
M  END
>  <MODEL>
9

>  <REMARK>
 VINA RESULT:      -6.6      1.782      2.839
  Name = 
  7 active torsions:
  status: ('A' for Active; 'I' for Inactive)
    1  A    between atoms: C_3  and  C_20
    2  A    between atoms: C_7  and  C_18
    3  A    between atoms: C_12  and  C_24
    4  A    between atoms: C_13  and  C_16
    5  A    between atoms: C_16  and  C_24
    6  A    between atoms: C_18  and  C_27
    7  A    between atoms: C_24  and  C_27
                            x       y       z     vdW  Elec       q    Type
                         _______ _______ _______ _____ _____    ______ ____

>  <TORSDO>
F 7

$$$$
