=
 OpenBabel11072409413D

 25 27  0  0  0  0  0  0  0  0999 V2000
  186.0450  176.8130  147.2630 C   0  0  0  0  0  3  0  0  0  0  0  0
  185.6540  177.6460  146.2180 C   0  0  0  0  0  0  0  0  0  0  0  0
  183.9590  178.9470  145.1540 N   0  0  0  0  0  0  0  0  0  0  0  0
  186.5880  178.0450  145.2340 C   0  0  0  0  0  0  0  0  0  0  0  0
  184.8380  179.3660  144.2050 C   0  0  0  0  0  3  0  0  0  0  0  0
  186.1620  178.9260  144.2320 C   0  0  0  0  0  3  0  0  0  0  0  0
  187.3660  176.3790  147.3480 C   0  0  0  0  0  3  0  0  0  0  0  0
  187.9240  177.5780  145.3030 C   0  0  0  0  0  0  0  0  0  0  0  0
  184.3380  178.1060  146.1520 C   0  0  0  0  0  3  0  0  0  0  0  0
  188.3140  176.7550  146.3860 C   0  0  0  0  0  0  0  0  0  0  0  0
  190.4910  176.9320  147.3020 O   0  0  0  0  0  0  0  0  0  0  0  0
  189.7170  176.2900  146.5400 C   0  0  0  0  0  0  0  0  0  0  0  0
  191.2310  172.8530  144.4610 C   0  0  0  0  0  3  0  0  0  0  0  0
  192.0010  174.0150  144.5550 C   0  0  0  0  0  3  0  0  0  0  0  0
  191.5040  175.1290  145.2370 C   0  0  0  0  0  3  0  0  0  0  0  0
  190.2370  175.0910  145.8400 C   0  0  0  0  0  0  0  0  0  0  0  0
  189.9640  172.8060  145.0480 C   0  0  0  0  0  3  0  0  0  0  0  0
  189.4690  173.9200  145.7310 C   0  0  0  0  0  3  0  0  0  0  0  0
  188.8990  177.9260  144.3070 N   0  0  0  0  0  2  0  0  0  0  0  0
  188.5450  178.0120  141.6790 O   0  0  0  0  0  0  0  0  0  0  0  0
  189.0740  177.1310  142.7760 S   0  0  0  0  0  0  0  0  0  0  0  0
  190.5230  176.8190  142.5230 O   0  0  0  0  0  0  0  0  0  0  0  0
  188.9020  174.5850  142.3160 F   0  0  0  0  0  0  0  0  0  0  0  0
  187.0040  175.7670  142.0120 F   0  0  0  0  0  0  0  0  0  0  0  0
  188.1300  175.6240  142.8000 C   0  0  0  0  0  3  0  0  0  0  0  0
  1  7  1  0  0  0  0
  2  1  2  0  0  0  0
  3  9  2  0  0  0  0
  4  8  2  0  0  0  0
  4  2  1  0  0  0  0
  5  6  2  0  0  0  0
  5  3  1  0  0  0  0
  6  4  1  0  0  0  0
  8 10  1  0  0  0  0
  9  2  1  0  0  0  0
 10 12  1  0  0  0  0
 10  7  2  0  0  0  0
 12 11  2  0  0  0  0
 13 14  2  0  0  0  0
 13 17  1  0  0  0  0
 14 15  1  0  0  0  0
 15 16  2  0  0  0  0
 16 12  1  0  0  0  0
 17 18  2  0  0  0  0
 18 16  1  0  0  0  0
 19  8  1  0  0  0  0
 20 21  2  0  0  0  0
 21 25  1  0  0  0  0
 21 19  1  0  0  0  0
 22 21  2  0  0  0  0
 23 25  1  0  0  0  0
 24 25  1  0  0  0  0
M  END
>  <MODEL>
1

>  <REMARK>
 VINA RESULT:      -7.0      0.000      0.000
  Name = 
  5 active torsions:
  status: ('A' for Active; 'I' for Inactive)
    1  A    between atoms: C_13  and  C_25
    2  A    between atoms: S_14  and  C_15
    3  A    between atoms: S_14  and  N_17
    4  A    between atoms: N_17  and  C_19
    5  A    between atoms: C_21  and  C_25
                            x       y       z     vdW  Elec       q    Type
                         _______ _______ _______ _____ _____    ______ ____

>  <TORSDO>
F 5

$$$$
=
 OpenBabel11072409413D

 25 27  0  0  0  0  0  0  0  0999 V2000
  188.2060  177.3230  146.8360 C   0  0  0  0  0  3  0  0  0  0  0  0
  186.8590  177.6440  146.7020 C   0  0  0  0  0  0  0  0  0  0  0  0
  184.8660  178.5700  147.6350 N   0  0  0  0  0  0  0  0  0  0  0  0
  186.1850  177.4090  145.4820 C   0  0  0  0  0  0  0  0  0  0  0  0
  184.1960  178.3760  146.4690 C   0  0  0  0  0  3  0  0  0  0  0  0
  184.8440  177.7980  145.3760 C   0  0  0  0  0  3  0  0  0  0  0  0
  188.9000  176.7770  145.7590 C   0  0  0  0  0  3  0  0  0  0  0  0
  186.8830  176.8240  144.3960 C   0  0  0  0  0  0  0  0  0  0  0  0
  186.1730  178.2220  147.7720 C   0  0  0  0  0  3  0  0  0  0  0  0
  188.2600  176.5280  144.5370 C   0  0  0  0  0  0  0  0  0  0  0  0
  189.6280  176.7700  142.6190 O   0  0  0  0  0  0  0  0  0  0  0  0
  189.0520  175.9730  143.4100 C   0  0  0  0  0  0  0  0  0  0  0  0
  189.4250  171.7470  142.7570 C   0  0  0  0  0  3  0  0  0  0  0  0
  188.8210  172.5570  141.7930 C   0  0  0  0  0  3  0  0  0  0  0  0
  188.7080  173.9340  142.0090 C   0  0  0  0  0  3  0  0  0  0  0  0
  189.2020  174.5150  143.1870 C   0  0  0  0  0  0  0  0  0  0  0  0
  189.9130  172.3110  143.9380 C   0  0  0  0  0  3  0  0  0  0  0  0
  189.7990  173.6880  144.1530 C   0  0  0  0  0  3  0  0  0  0  0  0
  186.2330  176.5310  143.1480 N   0  0  0  0  0  2  0  0  0  0  0  0
  186.8860  178.8880  142.1190 O   0  0  0  0  0  0  0  0  0  0  0  0
  186.1860  177.6000  141.7840 S   0  0  0  0  0  0  0  0  0  0  0  0
  186.8530  176.9520  140.6030 O   0  0  0  0  0  0  0  0  0  0  0  0
  184.4330  178.7940  140.2930 F   0  0  0  0  0  0  0  0  0  0  0  0
  183.8830  178.5770  142.4710 F   0  0  0  0  0  0  0  0  0  0  0  0
  184.4890  177.9600  141.3930 C   0  0  0  0  0  3  0  0  0  0  0  0
  2  1  1  0  0  0  0
  2  9  1  0  0  0  0
  3  9  2  0  0  0  0
  4  2  2  0  0  0  0
  5  3  1  0  0  0  0
  6  4  1  0  0  0  0
  6  5  2  0  0  0  0
  7  1  2  0  0  0  0
  8 10  2  0  0  0  0
  8  4  1  0  0  0  0
 10  7  1  0  0  0  0
 11 12  2  0  0  0  0
 12 10  1  0  0  0  0
 13 17  1  0  0  0  0
 14 15  1  0  0  0  0
 14 13  2  0  0  0  0
 15 16  2  0  0  0  0
 16 12  1  0  0  0  0
 16 18  1  0  0  0  0
 17 18  2  0  0  0  0
 19  8  1  0  0  0  0
 21 20  2  0  0  0  0
 21 19  1  0  0  0  0
 22 21  2  0  0  0  0
 23 25  1  0  0  0  0
 25 21  1  0  0  0  0
 25 24  1  0  0  0  0
M  END
>  <MODEL>
2

>  <REMARK>
 VINA RESULT:      -6.9      2.479      3.200
  Name = 
  5 active torsions:
  status: ('A' for Active; 'I' for Inactive)
    1  A    between atoms: C_13  and  C_25
    2  A    between atoms: S_14  and  C_15
    3  A    between atoms: S_14  and  N_17
    4  A    between atoms: N_17  and  C_19
    5  A    between atoms: C_21  and  C_25
                            x       y       z     vdW  Elec       q    Type
                         _______ _______ _______ _____ _____    ______ ____

>  <TORSDO>
F 5

$$$$
=
 OpenBabel11072409413D

 25 27  0  0  0  0  0  0  0  0999 V2000
  186.8590  176.7940  147.2060 C   0  0  0  0  0  3  0  0  0  0  0  0
  186.2920  177.6330  146.2520 C   0  0  0  0  0  0  0  0  0  0  0  0
  184.6580  179.2750  145.6720 N   0  0  0  0  0  0  0  0  0  0  0  0
  186.8310  177.6990  144.9470 C   0  0  0  0  0  0  0  0  0  0  0  0
  185.1670  179.3780  144.4160 C   0  0  0  0  0  3  0  0  0  0  0  0
  186.2610  178.5970  144.0360 C   0  0  0  0  0  3  0  0  0  0  0  0
  187.9730  176.0240  146.8800 C   0  0  0  0  0  3  0  0  0  0  0  0
  187.9450  176.8930  144.6050 C   0  0  0  0  0  0  0  0  0  0  0  0
  185.1950  178.4280  146.5900 C   0  0  0  0  0  3  0  0  0  0  0  0
  188.5300  176.0650  145.5940 C   0  0  0  0  0  0  0  0  0  0  0  0
  189.5870  174.0710  144.8770 O   0  0  0  0  0  0  0  0  0  0  0  0
  189.7360  175.2490  145.3060 C   0  0  0  0  0  0  0  0  0  0  0  0
  193.7380  176.7190  145.8040 C   0  0  0  0  0  3  0  0  0  0  0  0
  193.1430  176.7110  144.5400 C   0  0  0  0  0  3  0  0  0  0  0  0
  191.8380  176.2360  144.3850 C   0  0  0  0  0  3  0  0  0  0  0  0
  191.1110  175.7710  145.4930 C   0  0  0  0  0  0  0  0  0  0  0  0
  193.0300  176.2490  146.9130 C   0  0  0  0  0  3  0  0  0  0  0  0
  191.7240  175.7750  146.7570 C   0  0  0  0  0  3  0  0  0  0  0  0
  188.5070  176.8980  143.2820 N   0  0  0  0  0  2  0  0  0  0  0  0
  189.1250  175.1720  141.3650 O   0  0  0  0  0  0  0  0  0  0  0  0
  187.9600  175.9010  141.9740 S   0  0  0  0  0  0  0  0  0  0  0  0
  186.9460  174.9100  142.4740 O   0  0  0  0  0  0  0  0  0  0  0  0
  187.8720  178.1570  140.6990 F   0  0  0  0  0  0  0  0  0  0  0  0
  185.8860  177.1330  141.0170 F   0  0  0  0  0  0  0  0  0  0  0  0
  187.2240  176.9370  140.7300 C   0  0  0  0  0  3  0  0  0  0  0  0
  2  9  1  0  0  0  0
  2  1  2  0  0  0  0
  3  9  2  0  0  0  0
  4  2  1  0  0  0  0
  5  3  1  0  0  0  0
  6  5  2  0  0  0  0
  6  4  1  0  0  0  0
  7  1  1  0  0  0  0
  8  4  2  0  0  0  0
  8 10  1  0  0  0  0
 10  7  2  0  0  0  0
 11 12  2  0  0  0  0
 12 16  1  0  0  0  0
 12 10  1  0  0  0  0
 13 17  1  0  0  0  0
 14 13  2  0  0  0  0
 15 14  1  0  0  0  0
 15 16  2  0  0  0  0
 16 18  1  0  0  0  0
 18 17  2  0  0  0  0
 19  8  1  0  0  0  0
 20 21  2  0  0  0  0
 21 22  2  0  0  0  0
 21 19  1  0  0  0  0
 23 25  1  0  0  0  0
 25 24  1  0  0  0  0
 25 21  1  0  0  0  0
M  END
>  <MODEL>
3

>  <REMARK>
 VINA RESULT:      -6.8      1.912      2.459
  Name = 
  5 active torsions:
  status: ('A' for Active; 'I' for Inactive)
    1  A    between atoms: C_13  and  C_25
    2  A    between atoms: S_14  and  C_15
    3  A    between atoms: S_14  and  N_17
    4  A    between atoms: N_17  and  C_19
    5  A    between atoms: C_21  and  C_25
                            x       y       z     vdW  Elec       q    Type
                         _______ _______ _______ _____ _____    ______ ____

>  <TORSDO>
F 5

$$$$
=
 OpenBabel11072409413D

 25 27  0  0  0  0  0  0  0  0999 V2000
  187.3380  177.9120  140.9190 C   0  0  0  0  0  3  0  0  0  0  0  0
  185.9830  178.0350  141.2120 C   0  0  0  0  0  0  0  0  0  0  0  0
  183.7490  178.4330  140.4700 N   0  0  0  0  0  0  0  0  0  0  0  0
  185.5150  177.8290  142.5300 C   0  0  0  0  0  0  0  0  0  0  0  0
  183.2650  178.2190  141.7220 C   0  0  0  0  0  3  0  0  0  0  0  0
  184.1370  177.9110  142.7680 C   0  0  0  0  0  3  0  0  0  0  0  0
  188.2380  177.5720  141.9250 C   0  0  0  0  0  3  0  0  0  0  0  0
  186.4350  177.5130  143.5610 C   0  0  0  0  0  0  0  0  0  0  0  0
  185.0770  178.3450  140.1960 C   0  0  0  0  0  3  0  0  0  0  0  0
  187.8070  177.3640  143.2420 C   0  0  0  0  0  0  0  0  0  0  0  0
  189.3650  177.8750  144.9500 O   0  0  0  0  0  0  0  0  0  0  0  0
  188.8020  176.9720  144.2720 C   0  0  0  0  0  0  0  0  0  0  0  0
  189.8590  172.8920  145.0850 C   0  0  0  0  0  3  0  0  0  0  0  0
  189.6910  173.7980  146.1350 C   0  0  0  0  0  3  0  0  0  0  0  0
  189.3420  175.1240  145.8640 C   0  0  0  0  0  3  0  0  0  0  0  0
  189.1500  175.5560  144.5420 C   0  0  0  0  0  0  0  0  0  0  0  0
  189.6800  173.3110  143.7650 C   0  0  0  0  0  3  0  0  0  0  0  0
  189.3310  174.6370  143.4950 C   0  0  0  0  0  3  0  0  0  0  0  0
  186.0130  177.3310  144.9230 N   0  0  0  0  0  2  0  0  0  0  0  0
  185.9080  179.9390  145.3990 O   0  0  0  0  0  0  0  0  0  0  0  0
  185.5160  178.6100  145.9820 S   0  0  0  0  0  0  0  0  0  0  0  0
  184.0260  178.5620  146.1780 O   0  0  0  0  0  0  0  0  0  0  0  0
  186.5290  179.6500  148.1300 F   0  0  0  0  0  0  0  0  0  0  0  0
  187.5570  177.7940  147.3590 F   0  0  0  0  0  0  0  0  0  0  0  0
  186.3350  178.4120  147.5470 C   0  0  0  0  0  3  0  0  0  0  0  0
  1  2  2  0  0  0  0
  1  7  1  0  0  0  0
  2  4  1  0  0  0  0
  3  5  1  0  0  0  0
  4  6  1  0  0  0  0
  4  8  2  0  0  0  0
  5  6  2  0  0  0  0
  7 10  2  0  0  0  0
  8 19  1  0  0  0  0
  9  3  2  0  0  0  0
  9  2  1  0  0  0  0
 10  8  1  0  0  0  0
 10 12  1  0  0  0  0
 12 16  1  0  0  0  0
 12 11  2  0  0  0  0
 13 14  1  0  0  0  0
 15 14  2  0  0  0  0
 16 15  1  0  0  0  0
 17 13  2  0  0  0  0
 18 17  1  0  0  0  0
 18 16  2  0  0  0  0
 19 21  1  0  0  0  0
 20 21  2  0  0  0  0
 21 22  2  0  0  0  0
 21 25  1  0  0  0  0
 24 25  1  0  0  0  0
 25 23  1  0  0  0  0
M  END
>  <MODEL>
4

>  <REMARK>
 VINA RESULT:      -6.8      3.425      4.421
  Name = 
  5 active torsions:
  status: ('A' for Active; 'I' for Inactive)
    1  A    between atoms: C_13  and  C_25
    2  A    between atoms: S_14  and  C_15
    3  A    between atoms: S_14  and  N_17
    4  A    between atoms: N_17  and  C_19
    5  A    between atoms: C_21  and  C_25
                            x       y       z     vdW  Elec       q    Type
                         _______ _______ _______ _____ _____    ______ ____

>  <TORSDO>
F 5

$$$$
=
 OpenBabel11072409413D

 25 27  0  0  0  0  0  0  0  0999 V2000
  187.8990  173.8490  142.1600 C   0  0  0  0  0  3  0  0  0  0  0  0
  189.0120  173.3460  142.8270 C   0  0  0  0  0  0  0  0  0  0  0  0
  190.5550  171.5600  143.1900 N   0  0  0  0  0  0  0  0  0  0  0  0
  189.7150  174.1500  143.7530 C   0  0  0  0  0  0  0  0  0  0  0  0
  191.2650  172.3150  144.0690 C   0  0  0  0  0  3  0  0  0  0  0  0
  190.8600  173.6190  144.3610 C   0  0  0  0  0  3  0  0  0  0  0  0
  187.4820  175.1570  142.3940 C   0  0  0  0  0  3  0  0  0  0  0  0
  189.2720  175.4700  144.0150 C   0  0  0  0  0  0  0  0  0  0  0  0
  189.4480  172.0460  142.5670 C   0  0  0  0  0  3  0  0  0  0  0  0
  188.1560  175.9790  143.3090 C   0  0  0  0  0  0  0  0  0  0  0  0
  188.2520  178.3000  142.8510 O   0  0  0  0  0  0  0  0  0  0  0  0
  187.6890  177.3760  143.5000 C   0  0  0  0  0  0  0  0  0  0  0  0
  184.4360  178.3300  146.1330 C   0  0  0  0  0  3  0  0  0  0  0  0
  185.0690  177.0870  146.2170 C   0  0  0  0  0  3  0  0  0  0  0  0
  186.1310  176.7840  145.3600 C   0  0  0  0  0  3  0  0  0  0  0  0
  186.5760  177.7220  144.4160 C   0  0  0  0  0  0  0  0  0  0  0  0
  184.8630  179.2680  145.1910 C   0  0  0  0  0  3  0  0  0  0  0  0
  185.9260  178.9650  144.3360 C   0  0  0  0  0  3  0  0  0  0  0  0
  189.9310  176.3130  144.9750 N   0  0  0  0  0  2  0  0  0  0  0  0
  188.9980  177.5520  147.1280 O   0  0  0  0  0  0  0  0  0  0  0  0
  189.6480  176.2710  146.6850 S   0  0  0  0  0  0  0  0  0  0  0  0
  188.7610  175.1070  147.0290 O   0  0  0  0  0  0  0  0  0  0  0  0
  192.2160  175.9280  146.5940 F   0  0  0  0  0  0  0  0  0  0  0  0
  191.1680  175.0200  148.3740 F   0  0  0  0  0  0  0  0  0  0  0  0
  191.2080  176.1070  147.5220 C   0  0  0  0  0  3  0  0  0  0  0  0
  1  7  2  0  0  0  0
  1  2  1  0  0  0  0
  2  4  1  0  0  0  0
  3  5  2  0  0  0  0
  4  8  1  0  0  0  0
  4  6  2  0  0  0  0
  5  6  1  0  0  0  0
  7 10  1  0  0  0  0
  8 19  1  0  0  0  0
  9  2  2  0  0  0  0
  9  3  1  0  0  0  0
 10 12  1  0  0  0  0
 10  8  2  0  0  0  0
 11 12  2  0  0  0  0
 12 16  1  0  0  0  0
 13 14  1  0  0  0  0
 15 14  2  0  0  0  0
 16 15  1  0  0  0  0
 17 13  2  0  0  0  0
 18 16  2  0  0  0  0
 18 17  1  0  0  0  0
 19 21  1  0  0  0  0
 21 22  2  0  0  0  0
 21 20  2  0  0  0  0
 21 25  1  0  0  0  0
 23 25  1  0  0  0  0
 25 24  1  0  0  0  0
M  END
>  <MODEL>
5

>  <REMARK>
 VINA RESULT:      -6.8      2.771      6.357
  Name = 
  5 active torsions:
  status: ('A' for Active; 'I' for Inactive)
    1  A    between atoms: C_13  and  C_25
    2  A    between atoms: S_14  and  C_15
    3  A    between atoms: S_14  and  N_17
    4  A    between atoms: N_17  and  C_19
    5  A    between atoms: C_21  and  C_25
                            x       y       z     vdW  Elec       q    Type
                         _______ _______ _______ _____ _____    ______ ____

>  <TORSDO>
F 5

$$$$
=
 OpenBabel11072409413D

 25 27  0  0  0  0  0  0  0  0999 V2000
  185.9950  178.9740  143.1060 C   0  0  0  0  0  3  0  0  0  0  0  0
  185.5520  178.5610  144.3590 C   0  0  0  0  0  0  0  0  0  0  0  0
  183.9200  178.6650  146.0980 N   0  0  0  0  0  0  0  0  0  0  0  0
  186.2780  177.5920  145.0890 C   0  0  0  0  0  0  0  0  0  0  0  0
  184.5830  177.7200  146.8150 C   0  0  0  0  0  3  0  0  0  0  0  0
  185.7660  177.1670  146.3220 C   0  0  0  0  0  3  0  0  0  0  0  0
  187.1510  178.4220  142.5610 C   0  0  0  0  0  3  0  0  0  0  0  0
  187.4710  177.0530  144.5490 C   0  0  0  0  0  0  0  0  0  0  0  0
  184.3750  179.0910  144.8890 C   0  0  0  0  0  3  0  0  0  0  0  0
  187.8940  177.4610  143.2610 C   0  0  0  0  0  0  0  0  0  0  0  0
  190.0890  177.6340  142.3880 O   0  0  0  0  0  0  0  0  0  0  0  0
  189.1030  176.8810  142.6230 C   0  0  0  0  0  0  0  0  0  0  0  0
  189.3310  172.7150  141.6140 C   0  0  0  0  0  3  0  0  0  0  0  0
  188.1900  173.4550  141.2950 C   0  0  0  0  0  3  0  0  0  0  0  0
  188.1240  174.8130  141.6210 C   0  0  0  0  0  3  0  0  0  0  0  0
  189.2000  175.4460  142.2630 C   0  0  0  0  0  0  0  0  0  0  0  0
  190.4050  173.3310  142.2620 C   0  0  0  0  0  3  0  0  0  0  0  0
  190.3380  174.6890  142.5870 C   0  0  0  0  0  3  0  0  0  0  0  0
  188.2630  176.0930  145.2690 N   0  0  0  0  0  2  0  0  0  0  0  0
  190.7680  176.9270  145.5280 O   0  0  0  0  0  0  0  0  0  0  0  0
  189.5740  176.4930  146.3310 S   0  0  0  0  0  0  0  0  0  0  0  0
  189.1600  177.5970  147.2630 O   0  0  0  0  0  0  0  0  0  0  0  0
  188.8800  174.4960  147.8320 F   0  0  0  0  0  0  0  0  0  0  0  0
  190.9030  175.3950  148.2700 F   0  0  0  0  0  0  0  0  0  0  0  0
  190.0150  175.0480  147.2690 C   0  0  0  0  0  3  0  0  0  0  0  0
  1  2  1  0  0  0  0
  2  9  2  0  0  0  0
  2  4  1  0  0  0  0
  3  5  2  0  0  0  0
  4  6  2  0  0  0  0
  6  5  1  0  0  0  0
  7  1  2  0  0  0  0
  7 10  1  0  0  0  0
  8  4  1  0  0  0  0
  8 19  1  0  0  0  0
  9  3  1  0  0  0  0
 10  8  2  0  0  0  0
 11 12  2  0  0  0  0
 12 10  1  0  0  0  0
 13 17  1  0  0  0  0
 14 13  2  0  0  0  0
 14 15  1  0  0  0  0
 15 16  2  0  0  0  0
 16 18  1  0  0  0  0
 16 12  1  0  0  0  0
 17 18  2  0  0  0  0
 19 21  1  0  0  0  0
 20 21  2  0  0  0  0
 21 22  2  0  0  0  0
 21 25  1  0  0  0  0
 25 23  1  0  0  0  0
 25 24  1  0  0  0  0
M  END
>  <MODEL>
6

>  <REMARK>
 VINA RESULT:      -6.8      2.419      3.974
  Name = 
  5 active torsions:
  status: ('A' for Active; 'I' for Inactive)
    1  A    between atoms: C_13  and  C_25
    2  A    between atoms: S_14  and  C_15
    3  A    between atoms: S_14  and  N_17
    4  A    between atoms: N_17  and  C_19
    5  A    between atoms: C_21  and  C_25
                            x       y       z     vdW  Elec       q    Type
                         _______ _______ _______ _____ _____    ______ ____

>  <TORSDO>
F 5

$$$$
=
 OpenBabel11072409413D

 25 27  0  0  0  0  0  0  0  0999 V2000
  187.1040  177.6620  147.2950 C   0  0  0  0  0  3  0  0  0  0  0  0
  186.0950  178.0710  146.4300 C   0  0  0  0  0  0  0  0  0  0  0  0
  183.8650  178.8610  146.1030 N   0  0  0  0  0  0  0  0  0  0  0  0
  186.3330  178.1490  145.0390 C   0  0  0  0  0  0  0  0  0  0  0  0
  184.0700  178.9670  144.7630 C   0  0  0  0  0  3  0  0  0  0  0  0
  185.3040  178.6180  144.2120 C   0  0  0  0  0  3  0  0  0  0  0  0
  188.3620  177.3380  146.7920 C   0  0  0  0  0  3  0  0  0  0  0  0
  187.6030  177.7900  144.5230 C   0  0  0  0  0  0  0  0  0  0  0  0
  184.8450  178.4260  146.9400 C   0  0  0  0  0  3  0  0  0  0  0  0
  188.6290  177.4020  145.4170 C   0  0  0  0  0  0  0  0  0  0  0  0
  190.7640  178.0190  144.5990 O   0  0  0  0  0  0  0  0  0  0  0  0
  189.9960  177.0760  144.9340 C   0  0  0  0  0  0  0  0  0  0  0  0
  191.4780  173.0590  144.6280 C   0  0  0  0  0  3  0  0  0  0  0  0
  192.3580  174.1190  144.8580 C   0  0  0  0  0  3  0  0  0  0  0  0
  191.8690  175.4240  144.9620 C   0  0  0  0  0  3  0  0  0  0  0  0
  190.4950  175.6830  144.8450 C   0  0  0  0  0  0  0  0  0  0  0  0
  190.1090  173.3050  144.5000 C   0  0  0  0  0  3  0  0  0  0  0  0
  189.6210  174.6100  144.6050 C   0  0  0  0  0  3  0  0  0  0  0  0
  187.8830  177.8170  143.1130 N   0  0  0  0  0  2  0  0  0  0  0  0
  188.5990  176.0270  141.2900 O   0  0  0  0  0  0  0  0  0  0  0  0
  187.3930  176.5950  141.9860 S   0  0  0  0  0  0  0  0  0  0  0  0
  186.6600  175.4980  142.7060 O   0  0  0  0  0  0  0  0  0  0  0  0
  186.9520  177.3130  139.5340 F   0  0  0  0  0  0  0  0  0  0  0  0
  186.0430  178.6350  141.1220 F   0  0  0  0  0  0  0  0  0  0  0  0
  186.3270  177.3300  140.7670 C   0  0  0  0  0  3  0  0  0  0  0  0
  2  9  1  0  0  0  0
  2  1  2  0  0  0  0
  3  9  2  0  0  0  0
  4  2  1  0  0  0  0
  5  3  1  0  0  0  0
  6  5  2  0  0  0  0
  6  4  1  0  0  0  0
  7  1  1  0  0  0  0
  8  4  2  0  0  0  0
  8 10  1  0  0  0  0
 10  7  2  0  0  0  0
 11 12  2  0  0  0  0
 12 10  1  0  0  0  0
 13 14  1  0  0  0  0
 14 15  2  0  0  0  0
 16 12  1  0  0  0  0
 16 15  1  0  0  0  0
 17 18  1  0  0  0  0
 17 13  2  0  0  0  0
 18 16  2  0  0  0  0
 19  8  1  0  0  0  0
 20 21  2  0  0  0  0
 21 22  2  0  0  0  0
 21 19  1  0  0  0  0
 23 25  1  0  0  0  0
 25 24  1  0  0  0  0
 25 21  1  0  0  0  0
M  END
>  <MODEL>
7

>  <REMARK>
 VINA RESULT:      -6.7      1.729      1.929
  Name = 
  5 active torsions:
  status: ('A' for Active; 'I' for Inactive)
    1  A    between atoms: C_13  and  C_25
    2  A    between atoms: S_14  and  C_15
    3  A    between atoms: S_14  and  N_17
    4  A    between atoms: N_17  and  C_19
    5  A    between atoms: C_21  and  C_25
                            x       y       z     vdW  Elec       q    Type
                         _______ _______ _______ _____ _____    ______ ____

>  <TORSDO>
F 5

$$$$
=
 OpenBabel11072409413D

 25 27  0  0  0  0  0  0  0  0999 V2000
  186.9530  176.9490  147.0850 C   0  0  0  0  0  3  0  0  0  0  0  0
  186.4030  177.7590  146.0960 C   0  0  0  0  0  0  0  0  0  0  0  0
  184.8150  179.4200  145.4490 N   0  0  0  0  0  0  0  0  0  0  0  0
  186.9350  177.7490  144.7870 C   0  0  0  0  0  0  0  0  0  0  0  0
  185.3170  179.4490  144.1870 C   0  0  0  0  0  3  0  0  0  0  0  0
  186.3850  178.6200  143.8370 C   0  0  0  0  0  3  0  0  0  0  0  0
  188.0410  176.1330  146.7890 C   0  0  0  0  0  3  0  0  0  0  0  0
  188.0220  176.8950  144.4760 C   0  0  0  0  0  0  0  0  0  0  0  0
  185.3330  178.6010  146.4030 C   0  0  0  0  0  3  0  0  0  0  0  0
  188.5900  176.0970  145.4990 C   0  0  0  0  0  0  0  0  0  0  0  0
  189.5850  174.0650  144.8010 O   0  0  0  0  0  0  0  0  0  0  0  0
  189.7700  175.2330  145.2430 C   0  0  0  0  0  0  0  0  0  0  0  0
  193.7710  176.6110  145.9580 C   0  0  0  0  0  3  0  0  0  0  0  0
  193.0400  176.0080  146.9840 C   0  0  0  0  0  3  0  0  0  0  0  0
  191.7400  175.5560  146.7440 C   0  0  0  0  0  3  0  0  0  0  0  0
  191.1590  175.6960  145.4740 C   0  0  0  0  0  0  0  0  0  0  0  0
  193.2010  176.7660  144.6920 C   0  0  0  0  0  3  0  0  0  0  0  0
  191.9000  176.3130  144.4530 C   0  0  0  0  0  3  0  0  0  0  0  0
  188.5740  176.8220  143.1510 N   0  0  0  0  0  2  0  0  0  0  0  0
  186.8510  174.9460  142.4090 O   0  0  0  0  0  0  0  0  0  0  0  0
  187.9760  175.7970  141.8880 S   0  0  0  0  0  0  0  0  0  0  0  0
  187.4890  176.6320  140.7370 O   0  0  0  0  0  0  0  0  0  0  0  0
  189.0440  173.4380  141.7650 F   0  0  0  0  0  0  0  0  0  0  0  0
  190.4920  175.1650  141.8660 F   0  0  0  0  0  0  0  0  0  0  0  0
  189.2890  174.7300  141.3420 C   0  0  0  0  0  3  0  0  0  0  0  0
  2  9  1  0  0  0  0
  2  1  2  0  0  0  0
  3  9  2  0  0  0  0
  4  2  1  0  0  0  0
  5  3  1  0  0  0  0
  6  5  2  0  0  0  0
  6  4  1  0  0  0  0
  7  1  1  0  0  0  0
  8  4  2  0  0  0  0
  8 10  1  0  0  0  0
 10  7  2  0  0  0  0
 11 12  2  0  0  0  0
 12 16  1  0  0  0  0
 12 10  1  0  0  0  0
 13 14  1  0  0  0  0
 15 14  2  0  0  0  0
 16 15  1  0  0  0  0
 17 13  2  0  0  0  0
 18 17  1  0  0  0  0
 18 16  2  0  0  0  0
 19  8  1  0  0  0  0
 21 20  2  0  0  0  0
 21 19  1  0  0  0  0
 22 21  2  0  0  0  0
 25 23  1  0  0  0  0
 25 24  1  0  0  0  0
 25 21  1  0  0  0  0
M  END
>  <MODEL>
8

>  <REMARK>
 VINA RESULT:      -6.6      1.844      2.477
  Name = 
  5 active torsions:
  status: ('A' for Active; 'I' for Inactive)
    1  A    between atoms: C_13  and  C_25
    2  A    between atoms: S_14  and  C_15
    3  A    between atoms: S_14  and  N_17
    4  A    between atoms: N_17  and  C_19
    5  A    between atoms: C_21  and  C_25
                            x       y       z     vdW  Elec       q    Type
                         _______ _______ _______ _____ _____    ______ ____

>  <TORSDO>
F 5

$$$$
=
 OpenBabel11072409413D

 25 27  0  0  0  0  0  0  0  0999 V2000
  187.8500  175.8620  140.9540 C   0  0  0  0  0  3  0  0  0  0  0  0
  188.4950  174.6400  141.1140 C   0  0  0  0  0  0  0  0  0  0  0  0
  189.2770  172.5910  140.1710 N   0  0  0  0  0  0  0  0  0  0  0  0
  189.0460  174.2810  142.3660 C   0  0  0  0  0  0  0  0  0  0  0  0
  189.8360  172.2260  141.3550 C   0  0  0  0  0  3  0  0  0  0  0  0
  189.7330  173.0640  142.4660 C   0  0  0  0  0  3  0  0  0  0  0  0
  187.7560  176.7440  142.0270 C   0  0  0  0  0  3  0  0  0  0  0  0
  188.9230  175.1640  143.4670 C   0  0  0  0  0  0  0  0  0  0  0  0
  188.6170  173.7710  140.0280 C   0  0  0  0  0  3  0  0  0  0  0  0
  188.2890  176.4160  143.2820 C   0  0  0  0  0  0  0  0  0  0  0  0
  189.2230  178.0420  144.7280 O   0  0  0  0  0  0  0  0  0  0  0  0
  188.1890  177.4040  144.3860 C   0  0  0  0  0  0  0  0  0  0  0  0
  184.4790  178.1440  146.4140 C   0  0  0  0  0  3  0  0  0  0  0  0
  185.2270  177.0020  146.7100 C   0  0  0  0  0  3  0  0  0  0  0  0
  186.4370  176.7690  146.0500 C   0  0  0  0  0  3  0  0  0  0  0  0
  186.9150  177.6790  145.0940 C   0  0  0  0  0  0  0  0  0  0  0  0
  184.9390  179.0520  145.4570 C   0  0  0  0  0  3  0  0  0  0  0  0
  186.1490  178.8190  144.7990 C   0  0  0  0  0  3  0  0  0  0  0  0
  189.4330  174.8280  144.7680 N   0  0  0  0  0  2  0  0  0  0  0  0
  191.7810  173.7560  145.3850 O   0  0  0  0  0  0  0  0  0  0  0  0
  191.0710  175.0770  145.2810 S   0  0  0  0  0  0  0  0  0  0  0  0
  191.7860  175.9620  144.2980 O   0  0  0  0  0  0  0  0  0  0  0  0
  191.6880  175.0190  147.7980 F   0  0  0  0  0  0  0  0  0  0  0  0
  189.7570  176.0700  147.2860 F   0  0  0  0  0  0  0  0  0  0  0  0
  191.0600  175.8450  146.8850 C   0  0  0  0  0  3  0  0  0  0  0  0
  1  2  2  0  0  0  0
  1  7  1  0  0  0  0
  2  4  1  0  0  0  0
  3  5  1  0  0  0  0
  4  6  1  0  0  0  0
  4  8  2  0  0  0  0
  5  6  2  0  0  0  0
  7 10  2  0  0  0  0
  8 19  1  0  0  0  0
  9  3  2  0  0  0  0
  9  2  1  0  0  0  0
 10  8  1  0  0  0  0
 10 12  1  0  0  0  0
 12 11  2  0  0  0  0
 12 16  1  0  0  0  0
 13 14  1  0  0  0  0
 15 14  2  0  0  0  0
 16 15  1  0  0  0  0
 17 13  2  0  0  0  0
 18 16  2  0  0  0  0
 18 17  1  0  0  0  0
 19 21  1  0  0  0  0
 21 20  2  0  0  0  0
 21 25  1  0  0  0  0
 22 21  2  0  0  0  0
 25 24  1  0  0  0  0
 25 23  1  0  0  0  0
M  END
>  <MODEL>
9

>  <REMARK>
 VINA RESULT:      -6.5      2.944      6.131
  Name = 
  5 active torsions:
  status: ('A' for Active; 'I' for Inactive)
    1  A    between atoms: C_13  and  C_25
    2  A    between atoms: S_14  and  C_15
    3  A    between atoms: S_14  and  N_17
    4  A    between atoms: N_17  and  C_19
    5  A    between atoms: C_21  and  C_25
                            x       y       z     vdW  Elec       q    Type
                         _______ _______ _______ _____ _____    ______ ____

>  <TORSDO>
F 5

$$$$
