=
 OpenBabel11062418363D

 55 62  0  0  1  0  0  0  0  0999 V2000
  192.3310  171.9210  141.7950 C   0  0  2  0  0  3  0  0  0  0  0  0
  195.4290  175.8920  141.8960 C   0  0  2  0  0  3  0  0  0  0  0  0
  193.9830  175.7240  141.9200 N   0  0  0  0  0  2  0  0  0  0  0  0
  194.3890  173.3820  139.3010 C   0  0  0  0  0  0  0  0  0  0  0  0
  192.8890  171.2110  142.8440 F   0  0  0  0  0  0  0  0  0  0  0  0
  193.1190  171.6760  140.5300 C   0  0  0  0  0  2  0  0  0  0  0  0
  192.4080  173.4140  142.0580 C   0  0  1  0  0  3  0  0  0  0  0  0
  193.6060  175.2000  140.6080 C   0  0  1  0  0  3  0  0  0  0  0  0
  194.8290  174.6750  139.8660 C   0  0  1  0  0  3  0  0  0  0  0  0
  192.5700  174.0580  140.6840 C   0  0  1  0  0  3  0  0  0  0  0  0
  195.0090  172.8100  138.4190 O   0  0  0  0  0  0  0  0  0  0  0  0
  196.1450  174.4500  141.0790 S   0  0  0  0  0  0  0  0  0  0  0  0
  193.0330  172.9610  139.7300 C   0  0  1  0  0  3  0  0  0  0  0  0
  191.1240  173.9290  142.7010 C   0  0  0  0  0  2  0  0  0  0  0  0
  190.2130  174.4990  141.7100 N   0  0  0  0  0  0  0  0  0  0  0  0
  189.0330  173.6480  141.5140 C   0  0  0  0  0  2  0  0  0  0  0  0
  188.9650  172.9820  140.1340 C   0  0  1  0  0  3  0  0  0  0  0  0
  187.7380  172.3310  139.9810 O   0  0  0  0  0  1  0  0  0  0  0  0
  190.0410  173.3730  137.8440 C   0  0  0  0  0  2  0  0  0  0  0  0
  189.2640  173.9850  139.0030 C   0  0  0  0  0  3  0  0  0  0  0  0
  188.5510  173.5870  137.7180 C   0  0  0  0  0  2  0  0  0  0  0  0
  189.8060  175.8090  142.1970 C   0  0  0  0  0  2  0  0  0  0  0  0
  188.4440  176.0950  141.7600 N   0  0  0  0  0  2  0  0  0  0  0  0
  185.7170  176.7620  145.8230 C   0  0  0  0  0  2  0  0  0  0  0  0
  187.0930  176.4830  143.7540 C   0  0  0  0  0  3  0  0  0  0  0  0
  184.1030  178.6620  145.8300 C   0  0  0  0  0  2  0  0  0  0  0  0
  185.0980  177.8710  146.6690 C   0  0  0  0  0  2  0  0  0  0  0  0
  187.5490  176.9160  142.5080 C   0  0  0  0  0  0  0  0  0  0  0  0
  184.8500  179.4020  144.7220 C   0  0  0  0  0  2  0  0  0  0  0  0
  186.2390  178.9060  142.7430 N   0  0  0  0  0  0  0  0  0  0  0  0
  187.1110  178.1550  142.0200 C   0  0  0  0  0  3  0  0  0  0  0  0
  185.7640  178.4930  143.9520 C   0  0  0  0  0  0  0  0  0  0  0  0
  186.2160  177.2750  144.4980 C   0  0  0  0  0  0  0  0  0  0  0  0
  195.9760  176.0540  143.2980 C   0  0  0  0  0  2  0  0  0  0  0  0
  195.1540  175.1920  144.2500 C   0  0  2  0  0  3  0  0  0  0  0  0
  194.7410  177.6290  145.3350 O   0  0  0  0  0  0  0  0  0  0  0  0
  194.4460  176.1760  145.5690 S   0  0  0  0  0  0  0  0  0  0  0  0
  195.0480  175.7560  146.8850 O   0  0  0  0  0  0  0  0  0  0  0  0
  191.7410  176.8990  144.9270 C   0  0  0  0  0  2  0  0  0  0  0  0
  192.1020  175.5040  146.9310 C   0  0  1  0  0  3  0  0  0  0  0  0
  190.4070  176.7350  145.6180 C   0  0  0  0  0  2  0  0  0  0  0  0
  192.6800  175.9160  145.5980 C   0  0  2  0  0  0  0  0  0  0  0  0
  190.7080  176.1440  146.9880 C   0  0  2  0  0  0  0  0  0  0  0  0
  192.2250  174.4870  145.7970 C   0  0  0  0  0  2  0  0  0  0  0  0
  190.7120  177.1700  147.9320 O   0  0  0  0  0  1  0  0  0  0  0  0
  188.9220  174.7360  146.2120 O   0  0  0  0  0  1  0  0  0  0  0  0
  189.6340  175.1250  147.3490 C   0  0  0  0  0  2  0  0  0  0  0  0
  195.9310  173.9910  144.7900 C   0  0  2  0  0  3  0  0  0  0  0  0
  197.2610  174.0280  144.3730 O   0  0  0  0  0  1  0  0  0  0  0  0
  195.2580  172.7010  144.3400 C   0  0  0  0  0  2  0  0  0  0  0  0
  194.7390  171.9010  145.5260 C   0  0  0  0  0  2  0  0  0  0  0  0
  196.8570  170.8530  145.7930 O   0  0  0  0  0  0  0  0  0  0  0  0
  195.6060  170.7170  145.7840 C   0  0  0  0  0  0  0  0  0  0  0  0
  195.0510  169.4600  146.0050 O   0  0  0  0  0  0  0  0  0  0  0  0
  194.6290  169.1050  147.2260 O   0  0  0  0  0  1  0  0  0  0  0  0
  1  7  1  0  0  0  0
  1  5  1  1  0  0  0
  2  3  1  0  0  0  0
  2 34  1  1  0  0  0
  4 13  1  0  0  0  0
  6  1  1  0  0  0  0
  7 14  1  6  0  0  0
  8 10  1  0  0  0  0
  8  3  1  1  0  0  0
  9  4  1  1  0  0  0
  9  8  1  0  0  0  0
  9 12  1  0  0  0  0
 10  7  1  0  0  0  0
 11  4  2  0  0  0  0
 12  2  1  0  0  0  0
 13  6  1  0  0  0  0
 13 10  1  0  0  0  0
 15 22  1  0  0  0  0
 15 14  1  0  0  0  0
 16 15  1  0  0  0  0
 17 16  1  0  0  0  0
 18 17  1  0  0  0  0
 19 20  1  0  0  0  0
 20 17  1  0  0  0  0
 21 19  1  0  0  0  0
 21 20  1  0  0  0  0
 23 22  1  0  0  0  0
 23 28  1  0  0  0  0
 24 27  1  0  0  0  0
 25 33  1  0  0  0  0
 26 27  1  0  0  0  0
 28 25  2  0  0  0  0
 29 26  1  0  0  0  0
 30 32  1  0  0  0  0
 31 28  1  0  0  0  0
 31 30  2  0  0  0  0
 32 33  2  0  0  0  0
 32 29  1  0  0  0  0
 33 24  1  0  0  0  0
 34 35  1  0  0  0  0
 35 48  1  0  0  0  0
 35 37  1  0  0  0  0
 36 37  2  0  0  0  0
 37 42  1  0  0  0  0
 37 38  2  0  0  0  0
 39 42  1  0  0  0  0
 39 41  1  0  0  0  0
 40 43  1  0  0  0  0
 41 43  1  0  0  0  0
 42 44  1  0  0  0  0
 42 40  1  0  0  0  0
 43 47  1  0  0  0  0
 43 45  1  0  0  0  0
 44 40  1  0  0  0  0
 46 47  1  0  0  0  0
 49 48  1  0  0  0  0
 50 48  1  0  0  0  0
 50 51  1  0  0  0  0
 51 53  1  0  0  0  0
 53 52  2  0  0  0  0
 53 54  1  0  0  0  0
 54 55  1  0  0  0  0
M  END
>  <MODEL>
1

>  <REMARK>
 VINA RESULT:      -7.0      0.000      0.000
  Name = 
  18 active torsions:
  status: ('A' for Active; 'I' for Inactive)
    1  A    between atoms: C_1  and  C_12
    2  A    between atoms: C_1  and  C_23
    3  A    between atoms: C_1  and  S_28
    4  A    between atoms: C_4  and  N_44
    5  A    between atoms: C_4  and  N_50
    6  A    between atoms: O_6  and  C_38
    7  A    between atoms: C_7  and  C_23
    8  A    between atoms: C_7  and  C_34
    9  A    between atoms: C_11  and  C_36
   10  A    between atoms: C_11  and  N_44
   11  A    between atoms: C_12  and  C_13
   12  A    between atoms: C_17  and  C_36
   13  A    between atoms: C_21  and  N_50
   14  A    between atoms: C_25  and  C_33
   15  A    between atoms: C_25  and  N_44
   16  A    between atoms: S_28  and  C_29
   17  A    between atoms: C_34  and  C_38
   18  A    between atoms: C_35  and  C_39
                            x       y       z     vdW  Elec       q    Type
                         _______ _______ _______ _____ _____    ______ ____

>  <TORSDO>
F 18

$$$$
=
 OpenBabel11062418363D

 55 62  0  0  1  0  0  0  0  0999 V2000
  189.4270  174.2810  143.2830 C   0  0  2  0  0  3  0  0  0  0  0  0
  192.9720  171.7260  140.7750 C   0  0  2  0  0  3  0  0  0  0  0  0
  192.7800  173.1250  141.1310 N   0  0  0  0  0  2  0  0  0  0  0  0
  189.4220  172.7480  140.0830 C   0  0  0  0  0  0  0  0  0  0  0  0
  189.4100  173.5120  144.4340 F   0  0  0  0  0  0  0  0  0  0  0  0
  188.5810  173.6290  142.2160 C   0  0  0  0  0  2  0  0  0  0  0  0
  190.8330  174.3630  142.7150 C   0  0  1  0  0  3  0  0  0  0  0  0
  191.6220  173.5900  140.3690 C   0  0  1  0  0  3  0  0  0  0  0  0
  190.8360  172.4110  139.8100 C   0  0  1  0  0  3  0  0  0  0  0  0
  190.6530  174.4550  141.2030 C   0  0  1  0  0  3  0  0  0  0  0  0
  188.4960  172.1730  139.5340 O   0  0  0  0  0  0  0  0  0  0  0  0
  191.3480  170.9370  140.7160 S   0  0  0  0  0  0  0  0  0  0  0  0
  189.2370  173.9770  140.8940 C   0  0  1  0  0  3  0  0  0  0  0  0
  191.5550  175.6130  143.2070 C   0  0  0  0  0  2  0  0  0  0  0  0
  190.6500  176.5200  143.9120 N   0  0  0  0  0  0  0  0  0  0  0  0
  191.1920  176.9070  145.2210 C   0  0  0  0  0  2  0  0  0  0  0  0
  192.3260  176.0020  145.7200 C   0  0  1  0  0  3  0  0  0  0  0  0
  193.4730  176.7650  145.9570 O   0  0  0  0  0  1  0  0  0  0  0  0
  191.3230  176.0070  148.0750 C   0  0  0  0  0  2  0  0  0  0  0  0
  191.8930  175.1660  146.9400 C   0  0  0  0  0  3  0  0  0  0  0  0
  190.3890  175.2540  147.1570 C   0  0  0  0  0  2  0  0  0  0  0  0
  190.4780  177.6990  143.0770 C   0  0  0  0  0  2  0  0  0  0  0  0
  189.2060  177.6170  142.3670 N   0  0  0  0  0  2  0  0  0  0  0  0
  186.4340  178.0630  146.4280 C   0  0  0  0  0  2  0  0  0  0  0  0
  187.7990  177.8730  144.3430 C   0  0  0  0  0  3  0  0  0  0  0  0
  184.0060  178.5380  146.1230 C   0  0  0  0  0  2  0  0  0  0  0  0
  185.2360  178.8380  146.9700 C   0  0  0  0  0  2  0  0  0  0  0  0
  187.9640  177.9870  142.9610 C   0  0  0  0  0  0  0  0  0  0  0  0
  184.2130  179.0930  144.7150 C   0  0  0  0  0  2  0  0  0  0  0  0
  185.7140  178.7850  142.7800 N   0  0  0  0  0  0  0  0  0  0  0  0
  186.8950  178.4630  142.1890 C   0  0  0  0  0  3  0  0  0  0  0  0
  185.5250  178.6620  144.1240 C   0  0  0  0  0  0  0  0  0  0  0  0
  186.5890  178.2310  144.9400 C   0  0  0  0  0  0  0  0  0  0  0  0
  193.8790  171.0360  141.7710 C   0  0  0  0  0  2  0  0  0  0  0  0
  194.9500  172.0210  142.2270 C   0  0  2  0  0  3  0  0  0  0  0  0
  196.5080  170.1970  140.9880 O   0  0  0  0  0  0  0  0  0  0  0  0
  196.5570  171.5800  141.5710 S   0  0  0  0  0  0  0  0  0  0  0  0
  197.5760  171.6100  142.6810 O   0  0  0  0  0  0  0  0  0  0  0  0
  197.9350  173.9100  140.6100 C   0  0  0  0  0  2  0  0  0  0  0  0
  195.8690  173.2440  139.4360 C   0  0  1  0  0  3  0  0  0  0  0  0
  197.6310  174.9720  139.5800 C   0  0  0  0  0  2  0  0  0  0  0  0
  197.0050  172.7530  140.3030 C   0  0  2  0  0  0  0  0  0  0  0  0
  196.2150  174.6990  139.0940 C   0  0  2  0  0  0  0  0  0  0  0  0
  196.8970  172.2600  138.8770 C   0  0  0  0  0  2  0  0  0  0  0  0
  195.3360  175.5490  139.7640 O   0  0  0  0  0  1  0  0  0  0  0  0
  197.2090  175.7440  137.1720 O   0  0  0  0  0  1  0  0  0  0  0  0
  196.1320  174.9620  137.5950 C   0  0  0  0  0  2  0  0  0  0  0  0
  194.9860  172.2060  143.7440 C   0  0  2  0  0  3  0  0  0  0  0  0
  194.1240  171.3100  144.3770 O   0  0  0  0  0  1  0  0  0  0  0  0
  194.6240  173.6430  144.0930 C   0  0  0  0  0  2  0  0  0  0  0  0
  195.2150  174.6240  143.0910 C   0  0  0  0  0  2  0  0  0  0  0  0
  196.1730  176.6180  143.9670 O   0  0  0  0  0  0  0  0  0  0  0  0
  196.3310  175.3980  143.7050 C   0  0  0  0  0  0  0  0  0  0  0  0
  197.5520  174.7900  143.9830 O   0  0  0  0  0  0  0  0  0  0  0  0
  197.7690  174.2030  145.1670 O   0  0  0  0  0  1  0  0  0  0  0  0
  1  5  1  1  0  0  0
  2  3  1  0  0  0  0
  2 34  1  1  0  0  0
  4 13  1  0  0  0  0
  6  1  1  0  0  0  0
  7 14  1  1  0  0  0
  7  1  1  0  0  0  0
  8  3  1  1  0  0  0
  8 10  1  0  0  0  0
  9  4  1  1  0  0  0
  9  8  1  0  0  0  0
  9 12  1  0  0  0  0
 10  7  1  0  0  0  0
 11  4  2  0  0  0  0
 12  2  1  0  0  0  0
 13 10  1  0  0  0  0
 13  6  1  0  0  0  0
 14 15  1  0  0  0  0
 15 16  1  0  0  0  0
 16 17  1  0  0  0  0
 17 18  1  0  0  0  0
 17 20  1  0  0  0  0
 20 21  1  0  0  0  0
 20 19  1  0  0  0  0
 21 19  1  0  0  0  0
 22 15  1  0  0  0  0
 23 28  1  0  0  0  0
 23 22  1  0  0  0  0
 24 27  1  0  0  0  0
 25 33  1  0  0  0  0
 26 27  1  0  0  0  0
 28 25  2  0  0  0  0
 29 26  1  0  0  0  0
 30 32  1  0  0  0  0
 31 30  2  0  0  0  0
 31 28  1  0  0  0  0
 32 29  1  0  0  0  0
 32 33  2  0  0  0  0
 33 24  1  0  0  0  0
 34 35  1  0  0  0  0
 35 48  1  0  0  0  0
 36 37  2  0  0  0  0
 37 35  1  0  0  0  0
 37 38  2  0  0  0  0
 40 42  1  0  0  0  0
 41 39  1  0  0  0  0
 42 39  1  0  0  0  0
 42 37  1  0  0  0  0
 43 40  1  0  0  0  0
 43 41  1  0  0  0  0
 43 45  1  0  0  0  0
 44 40  1  0  0  0  0
 44 42  1  0  0  0  0
 46 47  1  0  0  0  0
 47 43  1  0  0  0  0
 48 50  1  0  0  0  0
 48 49  1  0  0  0  0
 51 53  1  0  0  0  0
 51 50  1  0  0  0  0
 53 52  2  0  0  0  0
 53 54  1  0  0  0  0
 54 55  1  0  0  0  0
M  END
>  <MODEL>
2

>  <REMARK>
 VINA RESULT:      -6.5      2.129      5.968
  Name = 
  18 active torsions:
  status: ('A' for Active; 'I' for Inactive)
    1  A    between atoms: C_1  and  C_12
    2  A    between atoms: C_1  and  C_23
    3  A    between atoms: C_1  and  S_28
    4  A    between atoms: C_4  and  N_44
    5  A    between atoms: C_4  and  N_50
    6  A    between atoms: O_6  and  C_38
    7  A    between atoms: C_7  and  C_23
    8  A    between atoms: C_7  and  C_34
    9  A    between atoms: C_11  and  C_36
   10  A    between atoms: C_11  and  N_44
   11  A    between atoms: C_12  and  C_13
   12  A    between atoms: C_17  and  C_36
   13  A    between atoms: C_21  and  N_50
   14  A    between atoms: C_25  and  C_33
   15  A    between atoms: C_25  and  N_44
   16  A    between atoms: S_28  and  C_29
   17  A    between atoms: C_34  and  C_38
   18  A    between atoms: C_35  and  C_39
                            x       y       z     vdW  Elec       q    Type
                         _______ _______ _______ _____ _____    ______ ____

>  <TORSDO>
F 18

$$$$
=
 OpenBabel11062418363D

 55 62  0  0  1  0  0  0  0  0999 V2000
  189.9410  177.8720  144.4420 C   0  0  2  0  0  3  0  0  0  0  0  0
  192.7560  173.6950  144.3280 C   0  0  2  0  0  3  0  0  0  0  0  0
  191.4700  174.0760  143.7600 N   0  0  0  0  0  2  0  0  0  0  0  0
  190.6770  175.4460  146.9240 C   0  0  0  0  0  0  0  0  0  0  0  0
  190.9070  178.7700  144.0230 F   0  0  0  0  0  0  0  0  0  0  0  0
  190.0870  177.6090  145.9220 C   0  0  0  0  0  2  0  0  0  0  0  0
  190.1240  176.5300  143.7550 C   0  0  1  0  0  3  0  0  0  0  0  0
  190.5520  174.2370  144.8870 C   0  0  1  0  0  3  0  0  0  0  0  0
  191.3200  174.3290  146.1990 C   0  0  1  0  0  3  0  0  0  0  0  0
  189.6590  175.4910  144.7700 C   0  0  1  0  0  3  0  0  0  0  0  0
  190.8440  175.6300  148.1190 O   0  0  0  0  0  0  0  0  0  0  0  0
  193.0380  174.7060  145.7980 S   0  0  0  0  0  0  0  0  0  0  0  0
  189.6530  176.1720  146.1350 C   0  0  1  0  0  3  0  0  0  0  0  0
  189.2570  176.4270  142.5040 C   0  0  0  0  0  2  0  0  0  0  0  0
  187.9000  175.9820  142.8200 N   0  0  0  0  0  0  0  0  0  0  0  0
  186.9060  177.0040  142.4700 C   0  0  0  0  0  2  0  0  0  0  0  0
  186.3800  177.8010  143.6700 C   0  0  1  0  0  3  0  0  0  0  0  0
  185.3040  178.6010  143.2750 O   0  0  0  0  0  1  0  0  0  0  0  0
  186.4220  177.4800  146.2100 C   0  0  0  0  0  2  0  0  0  0  0  0
  186.0440  176.8820  144.8610 C   0  0  0  0  0  3  0  0  0  0  0  0
  184.9820  177.5090  145.7530 C   0  0  0  0  0  2  0  0  0  0  0  0
  187.6530  174.7670  142.0590 C   0  0  0  0  0  2  0  0  0  0  0  0
  188.4910  174.7540  140.8650 N   0  0  0  0  0  2  0  0  0  0  0  0
  192.0500  171.3320  140.9680 C   0  0  0  0  0  2  0  0  0  0  0  0
  190.2150  173.0280  140.8830 C   0  0  0  0  0  3  0  0  0  0  0  0
  192.1670  169.7310  139.0620 C   0  0  0  0  0  2  0  0  0  0  0  0
  192.3170  169.8840  140.5700 C   0  0  0  0  0  2  0  0  0  0  0  0
  189.0500  173.5580  140.3260 C   0  0  0  0  0  0  0  0  0  0  0  0
  190.7100  169.9710  138.6710 C   0  0  0  0  0  2  0  0  0  0  0  0
  189.0250  171.7730  138.7310 N   0  0  0  0  0  0  0  0  0  0  0  0
  188.4570  172.8980  139.2410 C   0  0  0  0  0  3  0  0  0  0  0  0
  190.1720  171.2490  139.2460 C   0  0  0  0  0  0  0  0  0  0  0  0
  190.7740  171.8580  140.3660 C   0  0  0  0  0  0  0  0  0  0  0  0
  193.8670  173.8780  143.3170 C   0  0  0  0  0  2  0  0  0  0  0  0
  195.1900  174.0280  144.0600 C   0  0  2  0  0  3  0  0  0  0  0  0
  197.5720  175.2740  143.8070 O   0  0  0  0  0  0  0  0  0  0  0  0
  196.1220  175.4300  143.4480 S   0  0  0  0  0  0  0  0  0  0  0  0
  195.5930  176.6950  144.0720 O   0  0  0  0  0  0  0  0  0  0  0  0
  194.6320  175.9220  141.0420 C   0  0  0  0  0  2  0  0  0  0  0  0
  196.5220  174.3390  140.9070 C   0  0  1  0  0  3  0  0  0  0  0  0
  194.6330  175.3260  139.6530 C   0  0  0  0  0  2  0  0  0  0  0  0
  195.9470  175.5070  141.6730 C   0  0  2  0  0  0  0  0  0  0  0  0
  195.5990  174.1500  139.6960 C   0  0  2  0  0  0  0  0  0  0  0  0
  197.2260  175.6950  140.8890 C   0  0  0  0  0  2  0  0  0  0  0  0
  194.8680  172.9720  139.8560 O   0  0  0  0  0  1  0  0  0  0  0  0
  195.8280  174.9490  137.4420 O   0  0  0  0  0  1  0  0  0  0  0  0
  196.3830  174.0880  138.3910 C   0  0  0  0  0  2  0  0  0  0  0  0
  196.0240  172.7470  144.0610 C   0  0  2  0  0  3  0  0  0  0  0  0
  195.4560  171.7810  143.2310 O   0  0  0  0  0  1  0  0  0  0  0  0
  196.1590  172.2250  145.4860 C   0  0  0  0  0  2  0  0  0  0  0  0
  196.7980  170.8440  145.5140 C   0  0  0  0  0  2  0  0  0  0  0  0
  196.6700  169.3760  147.3810 O   0  0  0  0  0  0  0  0  0  0  0  0
  196.0580  169.9390  146.4370 C   0  0  0  0  0  0  0  0  0  0  0  0
  194.6980  169.6980  146.2630 O   0  0  0  0  0  0  0  0  0  0  0  0
  194.2240  169.2850  145.0800 O   0  0  0  0  0  1  0  0  0  0  0  0
  1  5  1  6  0  0  0
  1  6  1  0  0  0  0
  2 34  1  6  0  0  0
  2 12  1  0  0  0  0
  3  2  1  0  0  0  0
  4 11  2  0  0  0  0
  6 13  1  0  0  0  0
  7 14  1  6  0  0  0
  7  1  1  0  0  0  0
  7 10  1  0  0  0  0
  8  3  1  6  0  0  0
  8  9  1  0  0  0  0
  9 12  1  6  0  0  0
  9  4  1  0  0  0  0
 10  8  1  0  0  0  0
 10 13  1  0  0  0  0
 13  4  1  0  0  0  0
 14 15  1  0  0  0  0
 16 15  1  0  0  0  0
 16 17  1  0  0  0  0
 17 20  1  0  0  0  0
 18 17  1  0  0  0  0
 20 21  1  0  0  0  0
 20 19  1  0  0  0  0
 21 19  1  0  0  0  0
 22 15  1  0  0  0  0
 23 22  1  0  0  0  0
 26 27  1  0  0  0  0
 27 24  1  0  0  0  0
 28 23  1  0  0  0  0
 28 25  2  0  0  0  0
 29 26  1  0  0  0  0
 29 32  1  0  0  0  0
 30 31  2  0  0  0  0
 30 32  1  0  0  0  0
 31 28  1  0  0  0  0
 32 33  2  0  0  0  0
 33 25  1  0  0  0  0
 33 24  1  0  0  0  0
 34 35  1  0  0  0  0
 35 48  1  0  0  0  0
 37 36  2  0  0  0  0
 37 35  1  0  0  0  0
 37 38  2  0  0  0  0
 39 42  1  0  0  0  0
 40 42  1  0  0  0  0
 41 43  1  0  0  0  0
 41 39  1  0  0  0  0
 42 37  1  0  0  0  0
 43 45  1  0  0  0  0
 43 40  1  0  0  0  0
 44 40  1  0  0  0  0
 44 42  1  0  0  0  0
 46 47  1  0  0  0  0
 47 43  1  0  0  0  0
 48 50  1  0  0  0  0
 49 48  1  0  0  0  0
 50 51  1  0  0  0  0
 51 53  1  0  0  0  0
 53 52  2  0  0  0  0
 54 53  1  0  0  0  0
 55 54  1  0  0  0  0
M  END
>  <MODEL>
3

>  <REMARK>
 VINA RESULT:      -6.3      2.194      6.951
  Name = 
  18 active torsions:
  status: ('A' for Active; 'I' for Inactive)
    1  A    between atoms: C_1  and  C_12
    2  A    between atoms: C_1  and  C_23
    3  A    between atoms: C_1  and  S_28
    4  A    between atoms: C_4  and  N_44
    5  A    between atoms: C_4  and  N_50
    6  A    between atoms: O_6  and  C_38
    7  A    between atoms: C_7  and  C_23
    8  A    between atoms: C_7  and  C_34
    9  A    between atoms: C_11  and  C_36
   10  A    between atoms: C_11  and  N_44
   11  A    between atoms: C_12  and  C_13
   12  A    between atoms: C_17  and  C_36
   13  A    between atoms: C_21  and  N_50
   14  A    between atoms: C_25  and  C_33
   15  A    between atoms: C_25  and  N_44
   16  A    between atoms: S_28  and  C_29
   17  A    between atoms: C_34  and  C_38
   18  A    between atoms: C_35  and  C_39
                            x       y       z     vdW  Elec       q    Type
                         _______ _______ _______ _____ _____    ______ ____

>  <TORSDO>
F 18

$$$$
=
 OpenBabel11062418363D

 55 62  0  0  1  0  0  0  0  0999 V2000
  189.4210  173.2930  142.0990 C   0  0  2  0  0  3  0  0  0  0  0  0
  193.3610  171.2360  139.7270 C   0  0  2  0  0  3  0  0  0  0  0  0
  193.1150  172.5150  140.3800 N   0  0  0  0  0  2  0  0  0  0  0  0
  190.0170  172.5890  138.6730 C   0  0  0  0  0  0  0  0  0  0  0  0
  189.1790  172.2690  142.9990 F   0  0  0  0  0  0  0  0  0  0  0  0
  188.7890  172.9680  140.7660 C   0  0  0  0  0  2  0  0  0  0  0  0
  190.9090  173.4340  141.8380 C   0  0  1  0  0  3  0  0  0  0  0  0
  192.1270  173.2150  139.5590 C   0  0  1  0  0  3  0  0  0  0  0  0
  191.4550  172.2520  138.5880 C   0  0  1  0  0  3  0  0  0  0  0  0
  191.0230  173.9010  140.3900 C   0  0  1  0  0  3  0  0  0  0  0  0
  189.2090  172.2170  137.8380 O   0  0  0  0  0  0  0  0  0  0  0  0
  191.7730  170.5760  139.1760 S   0  0  0  0  0  0  0  0  0  0  0  0
  189.6890  173.5910  139.7170 C   0  0  1  0  0  3  0  0  0  0  0  0
  191.5340  174.4850  142.7500 C   0  0  0  0  0  2  0  0  0  0  0  0
  190.5220  175.1890  143.5370 N   0  0  0  0  0  0  0  0  0  0  0  0
  190.7840  175.0690  144.9770 C   0  0  0  0  0  2  0  0  0  0  0  0
  189.5960  174.5310  145.7840 C   0  0  1  0  0  3  0  0  0  0  0  0
  189.6570  173.1360  145.8470 O   0  0  0  0  0  1  0  0  0  0  0  0
  190.8580  175.3810  147.8430 C   0  0  0  0  0  2  0  0  0  0  0  0
  189.5030  175.1950  147.1720 C   0  0  0  0  0  3  0  0  0  0  0  0
  190.1850  176.5560  147.1730 C   0  0  0  0  0  2  0  0  0  0  0  0
  190.5590  176.5890  143.1400 C   0  0  0  0  0  2  0  0  0  0  0  0
  189.3870  176.9010  142.3290 N   0  0  0  0  0  2  0  0  0  0  0  0
  186.5800  177.9610  146.2510 C   0  0  0  0  0  2  0  0  0  0  0  0
  187.9720  177.4670  144.2340 C   0  0  0  0  0  3  0  0  0  0  0  0
  184.3250  178.9350  145.8270 C   0  0  0  0  0  2  0  0  0  0  0  0
  185.5480  178.9760  146.7340 C   0  0  0  0  0  2  0  0  0  0  0  0
  188.2240  177.5310  142.8630 C   0  0  0  0  0  0  0  0  0  0  0  0
  184.7120  179.4200  144.4320 C   0  0  0  0  0  2  0  0  0  0  0  0
  186.2050  178.7840  142.5720 N   0  0  0  0  0  0  0  0  0  0  0  0
  187.3180  178.2150  142.0400 C   0  0  0  0  0  3  0  0  0  0  0  0
  185.9290  178.7170  143.9050 C   0  0  0  0  0  0  0  0  0  0  0  0
  186.8380  178.0780  144.7720 C   0  0  0  0  0  0  0  0  0  0  0  0
  194.0560  170.2760  140.6680 C   0  0  0  0  0  2  0  0  0  0  0  0
  194.7380  171.0760  141.7730 C   0  0  2  0  0  3  0  0  0  0  0  0
  196.7680  170.9920  139.9940 O   0  0  0  0  0  0  0  0  0  0  0  0
  196.4870  171.2770  141.4410 S   0  0  0  0  0  0  0  0  0  0  0  0
  197.2720  170.3150  142.2940 O   0  0  0  0  0  0  0  0  0  0  0  0
  197.6660  173.2820  143.1270 C   0  0  0  0  0  2  0  0  0  0  0  0
  195.9100  174.0080  141.5520 C   0  0  1  0  0  3  0  0  0  0  0  0
  197.3800  174.7410  143.4000 C   0  0  0  0  0  2  0  0  0  0  0  0
  196.9580  172.9550  141.8270 C   0  0  2  0  0  0  0  0  0  0  0  0
  196.1030  175.0720  142.6410 C   0  0  2  0  0  0  0  0  0  0  0  0
  197.1330  173.8820  140.6450 C   0  0  0  0  0  2  0  0  0  0  0  0
  195.0260  175.0240  143.5260 O   0  0  0  0  0  1  0  0  0  0  0  0
  195.1160  176.7460  141.2280 O   0  0  0  0  0  1  0  0  0  0  0  0
  196.2120  176.4720  142.0500 C   0  0  0  0  0  2  0  0  0  0  0  0
  194.4860  170.5040  143.1680 C   0  0  2  0  0  3  0  0  0  0  0  0
  193.5700  169.4540  143.1190 O   0  0  0  0  0  1  0  0  0  0  0  0
  193.9930  171.6100  144.0930 C   0  0  0  0  0  2  0  0  0  0  0  0
  195.0190  171.9310  145.1700 C   0  0  0  0  0  2  0  0  0  0  0  0
  197.0030  170.6870  145.5850 O   0  0  0  0  0  0  0  0  0  0  0  0
  195.7450  170.7000  145.5910 C   0  0  0  0  0  0  0  0  0  0  0  0
  195.0510  169.5590  145.9820 O   0  0  0  0  0  0  0  0  0  0  0  0
  194.7440  169.3530  147.2700 O   0  0  0  0  0  1  0  0  0  0  0  0
  1  5  1  1  0  0  0
  2  3  1  0  0  0  0
  2 34  1  1  0  0  0
  4 13  1  0  0  0  0
  6  1  1  0  0  0  0
  7  1  1  0  0  0  0
  7 14  1  1  0  0  0
  8  3  1  1  0  0  0
  8 10  1  0  0  0  0
  9  4  1  1  0  0  0
  9 12  1  0  0  0  0
  9  8  1  0  0  0  0
 10  7  1  0  0  0  0
 11  4  2  0  0  0  0
 12  2  1  0  0  0  0
 13 10  1  0  0  0  0
 13  6  1  0  0  0  0
 14 15  1  0  0  0  0
 15 16  1  0  0  0  0
 16 17  1  0  0  0  0
 17 18  1  0  0  0  0
 17 20  1  0  0  0  0
 20 21  1  0  0  0  0
 20 19  1  0  0  0  0
 21 19  1  0  0  0  0
 22 15  1  0  0  0  0
 23 28  1  0  0  0  0
 23 22  1  0  0  0  0
 24 27  1  0  0  0  0
 25 33  1  0  0  0  0
 26 27  1  0  0  0  0
 28 25  2  0  0  0  0
 29 26  1  0  0  0  0
 30 32  1  0  0  0  0
 31 30  2  0  0  0  0
 31 28  1  0  0  0  0
 32 29  1  0  0  0  0
 32 33  2  0  0  0  0
 33 24  1  0  0  0  0
 34 35  1  0  0  0  0
 35 48  1  0  0  0  0
 36 37  2  0  0  0  0
 37 35  1  0  0  0  0
 37 42  1  0  0  0  0
 37 38  2  0  0  0  0
 39 41  1  0  0  0  0
 40 42  1  0  0  0  0
 40 43  1  0  0  0  0
 42 39  1  0  0  0  0
 43 41  1  0  0  0  0
 43 45  1  0  0  0  0
 44 40  1  0  0  0  0
 44 42  1  0  0  0  0
 46 47  1  0  0  0  0
 47 43  1  0  0  0  0
 48 50  1  0  0  0  0
 49 48  1  0  0  0  0
 50 51  1  0  0  0  0
 51 53  1  0  0  0  0
 52 53  2  0  0  0  0
 53 54  1  0  0  0  0
 54 55  1  0  0  0  0
M  END
>  <MODEL>
4

>  <REMARK>
 VINA RESULT:      -6.1      2.063      5.019
  Name = 
  18 active torsions:
  status: ('A' for Active; 'I' for Inactive)
    1  A    between atoms: C_1  and  C_12
    2  A    between atoms: C_1  and  C_23
    3  A    between atoms: C_1  and  S_28
    4  A    between atoms: C_4  and  N_44
    5  A    between atoms: C_4  and  N_50
    6  A    between atoms: O_6  and  C_38
    7  A    between atoms: C_7  and  C_23
    8  A    between atoms: C_7  and  C_34
    9  A    between atoms: C_11  and  C_36
   10  A    between atoms: C_11  and  N_44
   11  A    between atoms: C_12  and  C_13
   12  A    between atoms: C_17  and  C_36
   13  A    between atoms: C_21  and  N_50
   14  A    between atoms: C_25  and  C_33
   15  A    between atoms: C_25  and  N_44
   16  A    between atoms: S_28  and  C_29
   17  A    between atoms: C_34  and  C_38
   18  A    between atoms: C_35  and  C_39
                            x       y       z     vdW  Elec       q    Type
                         _______ _______ _______ _____ _____    ______ ____

>  <TORSDO>
F 18

$$$$
=
 OpenBabel11062418363D

 55 62  0  0  1  0  0  0  0  0999 V2000
  194.2200  176.1550  144.0650 C   0  0  2  0  0  3  0  0  0  0  0  0
  193.7980  171.1360  143.9530 C   0  0  2  0  0  3  0  0  0  0  0  0
  192.9840  172.2180  144.4890 N   0  0  0  0  0  2  0  0  0  0  0  0
  195.9780  173.5940  145.7780 C   0  0  0  0  0  0  0  0  0  0  0  0
  194.4180  176.3650  142.7110 F   0  0  0  0  0  0  0  0  0  0  0  0
  195.5210  175.7640  144.7220 C   0  0  0  0  0  2  0  0  0  0  0  0
  193.2670  174.9960  144.2920 C   0  0  1  0  0  3  0  0  0  0  0  0
  193.7490  172.8040  145.5900 C   0  0  1  0  0  3  0  0  0  0  0  0
  195.2040  172.3580  145.5310 C   0  0  1  0  0  3  0  0  0  0  0  0
  193.7240  174.3470  145.5940 C   0  0  1  0  0  3  0  0  0  0  0  0
  197.1610  173.5750  146.0760 O   0  0  0  0  0  0  0  0  0  0  0  0
  195.5080  171.7100  143.8750 S   0  0  0  0  0  0  0  0  0  0  0  0
  195.1510  174.8230  145.8520 C   0  0  1  0  0  3  0  0  0  0  0  0
  191.8310  175.4850  144.4580 C   0  0  0  0  0  2  0  0  0  0  0  0
  191.6080  176.7540  143.7670 N   0  0  0  0  0  0  0  0  0  0  0  0
  190.9210  176.5530  142.4850 C   0  0  0  0  0  2  0  0  0  0  0  0
  189.4520  176.9960  142.4880 C   0  0  1  0  0  3  0  0  0  0  0  0
  189.3470  178.2990  141.9930 O   0  0  0  0  0  1  0  0  0  0  0  0
  187.4400  175.4180  142.6090 C   0  0  0  0  0  2  0  0  0  0  0  0
  188.5530  175.9910  141.7420 C   0  0  0  0  0  3  0  0  0  0  0  0
  187.1300  176.5160  141.6200 C   0  0  0  0  0  2  0  0  0  0  0  0
  190.7960  177.5880  144.6410 C   0  0  0  0  0  2  0  0  0  0  0  0
  190.0640  176.7480  145.5820 N   0  0  0  0  0  2  0  0  0  0  0  0
  185.8010  179.0020  144.5200 C   0  0  0  0  0  2  0  0  0  0  0  0
  187.9290  177.8200  145.0890 C   0  0  0  0  0  3  0  0  0  0  0  0
  183.9140  178.7170  146.1230 C   0  0  0  0  0  2  0  0  0  0  0  0
  184.2930  178.8140  144.6510 C   0  0  0  0  0  2  0  0  0  0  0  0
  188.6750  176.9240  145.8560 C   0  0  0  0  0  0  0  0  0  0  0  0
  184.5090  177.4420  146.7160 C   0  0  0  0  0  2  0  0  0  0  0  0
  186.7180  176.4250  147.1410 N   0  0  0  0  0  0  0  0  0  0  0  0
  188.0370  176.2190  146.8860 C   0  0  0  0  0  3  0  0  0  0  0  0
  185.9750  177.3090  146.4180 C   0  0  0  0  0  0  0  0  0  0  0  0
  186.5690  178.0040  145.3450 C   0  0  0  0  0  0  0  0  0  0  0  0
  193.2990  170.7150  142.5870 C   0  0  0  0  0  2  0  0  0  0  0  0
  192.7690  171.9440  141.8550 C   0  0  2  0  0  3  0  0  0  0  0  0
  190.3410  173.0700  141.5010 O   0  0  0  0  0  0  0  0  0  0  0  0
  191.0420  171.7450  141.4220 S   0  0  0  0  0  0  0  0  0  0  0  0
  190.3910  170.7860  142.3850 O   0  0  0  0  0  0  0  0  0  0  0  0
  191.6870  169.8490  139.3630 C   0  0  0  0  0  2  0  0  0  0  0  0
  191.0560  172.1280  138.6550 C   0  0  1  0  0  3  0  0  0  0  0  0
  191.8700  169.9320  137.8650 C   0  0  0  0  0  2  0  0  0  0  0  0
  190.9350  171.1040  139.7590 C   0  0  2  0  0  0  0  0  0  0  0  0
  191.7720  171.4070  137.5050 C   0  0  2  0  0  0  0  0  0  0  0  0
  189.7020  171.4970  138.9770 C   0  0  0  0  0  2  0  0  0  0  0  0
  193.0600  171.9250  137.3710 O   0  0  0  0  0  1  0  0  0  0  0  0
  191.3140  172.7930  135.5970 O   0  0  0  0  0  1  0  0  0  0  0  0
  191.0230  171.5610  136.1870 C   0  0  0  0  0  2  0  0  0  0  0  0
  193.6180  172.3310  140.6440 C   0  0  2  0  0  3  0  0  0  0  0  0
  194.6490  171.4130  140.4430 O   0  0  0  0  0  1  0  0  0  0  0  0
  194.1750  173.7350  140.8380 C   0  0  0  0  0  2  0  0  0  0  0  0
  193.8270  174.6380  139.6640 C   0  0  0  0  0  2  0  0  0  0  0  0
  195.0290  174.6120  137.6110 O   0  0  0  0  0  0  0  0  0  0  0  0
  195.0340  174.9120  138.8330 C   0  0  0  0  0  0  0  0  0  0  0  0
  196.1720  175.4840  139.3930 O   0  0  0  0  0  0  0  0  0  0  0  0
  197.3670  174.8920  139.2660 O   0  0  0  0  0  1  0  0  0  0  0  0
  1  5  1  6  0  0  0
  1  7  1  0  0  0  0
  1  6  1  0  0  0  0
  2 34  1  6  0  0  0
  2  3  1  0  0  0  0
  4 13  1  0  0  0  0
  4 11  2  0  0  0  0
  6 13  1  0  0  0  0
  7 14  1  1  0  0  0
  7 10  1  0  0  0  0
  8  3  1  6  0  0  0
  8 10  1  0  0  0  0
  9 12  1  6  0  0  0
  9  8  1  0  0  0  0
  9  4  1  0  0  0  0
 10 13  1  0  0  0  0
 12  2  1  0  0  0  0
 15 14  1  0  0  0  0
 15 22  1  0  0  0  0
 16 17  1  0  0  0  0
 16 15  1  0  0  0  0
 18 17  1  0  0  0  0
 20 17  1  0  0  0  0
 20 19  1  0  0  0  0
 21 20  1  0  0  0  0
 21 19  1  0  0  0  0
 22 23  1  0  0  0  0
 23 28  1  0  0  0  0
 24 27  1  0  0  0  0
 24 33  1  0  0  0  0
 25 33  2  0  0  0  0
 25 28  1  0  0  0  0
 26 29  1  0  0  0  0
 27 26  1  0  0  0  0
 28 31  2  0  0  0  0
 31 30  1  0  0  0  0
 32 29  1  0  0  0  0
 32 30  2  0  0  0  0
 33 32  1  0  0  0  0
 35 34  1  0  0  0  0
 37 36  2  0  0  0  0
 37 35  1  0  0  0  0
 37 38  2  0  0  0  0
 39 42  1  0  0  0  0
 40 44  1  0  0  0  0
 40 42  1  0  0  0  0
 41 39  1  0  0  0  0
 42 37  1  0  0  0  0
 43 41  1  0  0  0  0
 43 40  1  0  0  0  0
 44 42  1  0  0  0  0
 45 43  1  0  0  0  0
 46 47  1  0  0  0  0
 47 43  1  0  0  0  0
 48 50  1  0  0  0  0
 48 35  1  0  0  0  0
 49 48  1  0  0  0  0
 51 50  1  0  0  0  0
 52 53  2  0  0  0  0
 53 54  1  0  0  0  0
 53 51  1  0  0  0  0
 55 54  1  0  0  0  0
M  END
>  <MODEL>
5

>  <REMARK>
 VINA RESULT:      -6.1      2.687      6.464
  Name = 
  18 active torsions:
  status: ('A' for Active; 'I' for Inactive)
    1  A    between atoms: C_1  and  C_12
    2  A    between atoms: C_1  and  C_23
    3  A    between atoms: C_1  and  S_28
    4  A    between atoms: C_4  and  N_44
    5  A    between atoms: C_4  and  N_50
    6  A    between atoms: O_6  and  C_38
    7  A    between atoms: C_7  and  C_23
    8  A    between atoms: C_7  and  C_34
    9  A    between atoms: C_11  and  C_36
   10  A    between atoms: C_11  and  N_44
   11  A    between atoms: C_12  and  C_13
   12  A    between atoms: C_17  and  C_36
   13  A    between atoms: C_21  and  N_50
   14  A    between atoms: C_25  and  C_33
   15  A    between atoms: C_25  and  N_44
   16  A    between atoms: S_28  and  C_29
   17  A    between atoms: C_34  and  C_38
   18  A    between atoms: C_35  and  C_39
                            x       y       z     vdW  Elec       q    Type
                         _______ _______ _______ _____ _____    ______ ____

>  <TORSDO>
F 18

$$$$
=
 OpenBabel11062418363D

 55 62  0  0  1  0  0  0  0  0999 V2000
  189.2160  173.3850  142.7330 C   0  0  2  0  0  3  0  0  0  0  0  0
  192.4320  170.8430  139.8030 C   0  0  2  0  0  3  0  0  0  0  0  0
  192.4500  172.1490  140.4470 N   0  0  0  0  0  2  0  0  0  0  0  0
  189.1380  172.5750  139.2790 C   0  0  0  0  0  0  0  0  0  0  0  0
  189.0130  172.4080  143.6920 F   0  0  0  0  0  0  0  0  0  0  0  0
  188.3350  173.1230  141.5350 C   0  0  0  0  0  2  0  0  0  0  0  0
  190.6450  173.3430  142.2230 C   0  0  1  0  0  3  0  0  0  0  0  0
  191.4260  172.9530  139.7810 C   0  0  1  0  0  3  0  0  0  0  0  0
  190.4910  172.0670  138.9670 C   0  0  1  0  0  3  0  0  0  0  0  0
  190.5660  173.7770  140.7620 C   0  0  1  0  0  3  0  0  0  0  0  0
  188.1620  172.2930  138.6030 O   0  0  0  0  0  0  0  0  0  0  0  0
  190.7070  170.3720  139.5460 S   0  0  0  0  0  0  0  0  0  0  0  0
  189.1100  173.6210  140.3310 C   0  0  1  0  0  3  0  0  0  0  0  0
  191.5330  174.3220  142.9850 C   0  0  0  0  0  2  0  0  0  0  0  0
  190.8490  174.8800  144.1500 N   0  0  0  0  0  0  0  0  0  0  0  0
  191.3560  174.2980  145.3990 C   0  0  0  0  0  2  0  0  0  0  0  0
  192.4040  175.1630  146.1100 C   0  0  1  0  0  3  0  0  0  0  0  0
  192.0610  175.3140  147.4570 O   0  0  0  0  0  1  0  0  0  0  0  0
  194.6510  175.4200  144.9090 C   0  0  0  0  0  2  0  0  0  0  0  0
  193.8290  174.6130  145.9070 C   0  0  0  0  0  3  0  0  0  0  0  0
  194.8740  175.6090  146.3910 C   0  0  0  0  0  2  0  0  0  0  0  0
  191.0780  176.3170  144.1420 C   0  0  0  0  0  2  0  0  0  0  0  0
  189.8350  177.0120  143.8210 N   0  0  0  0  0  2  0  0  0  0  0  0
  185.3130  178.7070  144.8510 C   0  0  0  0  0  2  0  0  0  0  0  0
  187.6030  177.8190  144.3820 C   0  0  0  0  0  3  0  0  0  0  0  0
  184.6810  178.9260  147.2520 C   0  0  0  0  0  2  0  0  0  0  0  0
  184.1840  178.5420  145.8640 C   0  0  0  0  0  2  0  0  0  0  0  0
  188.8080  177.2410  144.7840 C   0  0  0  0  0  0  0  0  0  0  0  0
  185.7470  177.9280  147.7030 C   0  0  0  0  0  2  0  0  0  0  0  0
  187.9920  177.1520  147.0320 N   0  0  0  0  0  0  0  0  0  0  0  0
  188.9780  176.9000  146.1320 C   0  0  0  0  0  3  0  0  0  0  0  0
  186.8150  177.7350  146.6660 C   0  0  0  0  0  0  0  0  0  0  0  0
  186.5870  178.0500  145.3120 C   0  0  0  0  0  0  0  0  0  0  0  0
  193.1590  169.8170  140.6450 C   0  0  0  0  0  2  0  0  0  0  0  0
  194.0740  170.5440  141.6250 C   0  0  2  0  0  3  0  0  0  0  0  0
  195.8770  169.8530  139.7380 O   0  0  0  0  0  0  0  0  0  0  0  0
  195.7890  170.4180  141.1260 S   0  0  0  0  0  0  0  0  0  0  0  0
  196.5220  169.5060  142.0760 O   0  0  0  0  0  0  0  0  0  0  0  0
  196.9370  172.6800  142.4740 C   0  0  0  0  0  2  0  0  0  0  0  0
  195.8460  173.0850  140.2980 C   0  0  1  0  0  3  0  0  0  0  0  0
  196.9350  174.1720  142.2330 C   0  0  0  0  0  2  0  0  0  0  0  0
  196.5210  172.0460  141.1620 C   0  0  2  0  0  0  0  0  0  0  0  0
  196.0000  174.4100  141.0560 C   0  0  2  0  0  0  0  0  0  0  0  0
  197.1950  172.4970  139.8850 C   0  0  0  0  0  2  0  0  0  0  0  0
  194.7540  174.8080  141.5410 O   0  0  0  0  0  1  0  0  0  0  0  0
  196.6460  176.7160  140.8620 O   0  0  0  0  0  1  0  0  0  0  0  0
  196.5720  175.5070  140.1660 C   0  0  0  0  0  2  0  0  0  0  0  0
  193.8690  170.1010  143.0740 C   0  0  2  0  0  3  0  0  0  0  0  0
  192.5740  169.6250  143.2730 O   0  0  0  0  0  1  0  0  0  0  0  0
  194.1690  171.2630  144.0120 C   0  0  0  0  0  2  0  0  0  0  0  0
  194.3630  170.7860  145.4440 C   0  0  0  0  0  2  0  0  0  0  0  0
  196.0940  169.1590  145.3250 O   0  0  0  0  0  0  0  0  0  0  0  0
  195.7640  170.3250  145.6620 C   0  0  0  0  0  0  0  0  0  0  0  0
  196.7090  171.1640  146.2440 O   0  0  0  0  0  0  0  0  0  0  0  0
  196.6620  172.4880  146.0450 O   0  0  0  0  0  1  0  0  0  0  0  0
  1  5  1  1  0  0  0
  2  3  1  0  0  0  0
  2 34  1  1  0  0  0
  4 13  1  0  0  0  0
  6  1  1  0  0  0  0
  7  1  1  0  0  0  0
  7 14  1  1  0  0  0
  8  3  1  1  0  0  0
  8 10  1  0  0  0  0
  9  4  1  1  0  0  0
  9 12  1  0  0  0  0
  9  8  1  0  0  0  0
 10  7  1  0  0  0  0
 11  4  2  0  0  0  0
 12  2  1  0  0  0  0
 13 10  1  0  0  0  0
 13  6  1  0  0  0  0
 14 15  1  0  0  0  0
 15 16  1  0  0  0  0
 16 17  1  0  0  0  0
 17 18  1  0  0  0  0
 19 20  1  0  0  0  0
 19 21  1  0  0  0  0
 20 17  1  0  0  0  0
 20 21  1  0  0  0  0
 22 15  1  0  0  0  0
 23 22  1  0  0  0  0
 23 28  1  0  0  0  0
 24 33  1  0  0  0  0
 24 27  1  0  0  0  0
 25 28  2  0  0  0  0
 25 33  1  0  0  0  0
 26 29  1  0  0  0  0
 27 26  1  0  0  0  0
 28 31  1  0  0  0  0
 31 30  2  0  0  0  0
 32 30  1  0  0  0  0
 32 29  1  0  0  0  0
 33 32  2  0  0  0  0
 34 35  1  0  0  0  0
 35 48  1  0  0  0  0
 36 37  2  0  0  0  0
 37 42  1  0  0  0  0
 37 35  1  0  0  0  0
 37 38  2  0  0  0  0
 40 43  1  0  0  0  0
 40 42  1  0  0  0  0
 41 39  1  0  0  0  0
 42 39  1  0  0  0  0
 43 45  1  0  0  0  0
 43 41  1  0  0  0  0
 44 40  1  0  0  0  0
 44 42  1  0  0  0  0
 47 46  1  0  0  0  0
 47 43  1  0  0  0  0
 48 49  1  0  0  0  0
 48 50  1  0  0  0  0
 50 51  1  0  0  0  0
 51 53  1  0  0  0  0
 52 53  2  0  0  0  0
 53 54  1  0  0  0  0
 55 54  1  0  0  0  0
M  END
>  <MODEL>
6

>  <REMARK>
 VINA RESULT:      -6.0      2.415      5.760
  Name = 
  18 active torsions:
  status: ('A' for Active; 'I' for Inactive)
    1  A    between atoms: C_1  and  C_12
    2  A    between atoms: C_1  and  C_23
    3  A    between atoms: C_1  and  S_28
    4  A    between atoms: C_4  and  N_44
    5  A    between atoms: C_4  and  N_50
    6  A    between atoms: O_6  and  C_38
    7  A    between atoms: C_7  and  C_23
    8  A    between atoms: C_7  and  C_34
    9  A    between atoms: C_11  and  C_36
   10  A    between atoms: C_11  and  N_44
   11  A    between atoms: C_12  and  C_13
   12  A    between atoms: C_17  and  C_36
   13  A    between atoms: C_21  and  N_50
   14  A    between atoms: C_25  and  C_33
   15  A    between atoms: C_25  and  N_44
   16  A    between atoms: S_28  and  C_29
   17  A    between atoms: C_34  and  C_38
   18  A    between atoms: C_35  and  C_39
                            x       y       z     vdW  Elec       q    Type
                         _______ _______ _______ _____ _____    ______ ____

>  <TORSDO>
F 18

$$$$
=
 OpenBabel11062418363D

 55 62  0  0  1  0  0  0  0  0999 V2000
  189.5810  177.5550  144.9260 C   0  0  2  0  0  3  0  0  0  0  0  0
  193.8420  174.8930  144.5650 C   0  0  2  0  0  3  0  0  0  0  0  0
  192.5240  174.7990  143.9520 N   0  0  0  0  0  2  0  0  0  0  0  0
  191.1820  175.3340  147.1820 C   0  0  0  0  0  0  0  0  0  0  0  0
  190.1110  178.8080  144.6720 F   0  0  0  0  0  0  0  0  0  0  0  0
  189.7910  177.1910  146.3760 C   0  0  0  0  0  2  0  0  0  0  0  0
  190.3030  176.4950  144.1150 C   0  0  1  0  0  3  0  0  0  0  0  0
  191.5960  174.4390  145.0240 C   0  0  1  0  0  3  0  0  0  0  0  0
  192.2350  174.6640  146.3880 C   0  0  1  0  0  3  0  0  0  0  0  0
  190.2760  175.2380  144.9800 C   0  0  1  0  0  3  0  0  0  0  0  0
  191.2360  175.4190  148.3980 O   0  0  0  0  0  0  0  0  0  0  0  0
  193.6630  175.7400  146.1490 S   0  0  0  0  0  0  0  0  0  0  0  0
  189.9680  175.6850  146.4060 C   0  0  1  0  0  3  0  0  0  0  0  0
  189.5770  176.2120  142.8040 C   0  0  0  0  0  2  0  0  0  0  0  0
  188.1980  175.7820  143.0300 N   0  0  0  0  0  0  0  0  0  0  0  0
  187.2400  176.8210  142.6300 C   0  0  0  0  0  2  0  0  0  0  0  0
  186.6870  177.6440  143.8000 C   0  0  1  0  0  3  0  0  0  0  0  0
  186.1190  178.8280  143.3210 O   0  0  0  0  0  1  0  0  0  0  0  0
  186.1390  176.7440  146.1330 C   0  0  0  0  0  2  0  0  0  0  0  0
  185.7200  176.8180  144.6700 C   0  0  0  0  0  3  0  0  0  0  0  0
  185.0410  177.6940  145.7150 C   0  0  0  0  0  2  0  0  0  0  0  0
  187.9830  174.5780  142.2410 C   0  0  0  0  0  2  0  0  0  0  0  0
  189.2070  173.7840  142.2110 N   0  0  0  0  0  2  0  0  0  0  0  0
  192.6050  171.0100  139.9440 C   0  0  0  0  0  2  0  0  0  0  0  0
  190.8570  172.4220  141.0400 C   0  0  0  0  0  3  0  0  0  0  0  0
  193.0130  171.4340  137.5220 C   0  0  0  0  0  2  0  0  0  0  0  0
  192.9010  170.3590  138.5960 C   0  0  0  0  0  2  0  0  0  0  0  0
  189.8210  173.3560  140.9970 C   0  0  0  0  0  0  0  0  0  0  0  0
  191.6530  172.1030  137.3310 C   0  0  0  0  0  2  0  0  0  0  0  0
  190.0290  173.4490  138.6140 N   0  0  0  0  0  0  0  0  0  0  0  0
  189.4100  173.8560  139.7530 C   0  0  0  0  0  3  0  0  0  0  0  0
  191.0560  172.5530  138.6340 C   0  0  0  0  0  0  0  0  0  0  0  0
  191.4680  171.9930  139.8600 C   0  0  0  0  0  0  0  0  0  0  0  0
  194.8060  175.6270  143.6570 C   0  0  0  0  0  2  0  0  0  0  0  0
  195.2160  174.6980  142.5190 C   0  0  2  0  0  3  0  0  0  0  0  0
  197.6080  174.8230  143.7650 O   0  0  0  0  0  0  0  0  0  0  0  0
  196.8140  173.9540  142.8330 S   0  0  0  0  0  0  0  0  0  0  0  0
  197.5640  173.8110  141.5340 O   0  0  0  0  0  0  0  0  0  0  0  0
  195.6030  171.3520  142.9560 C   0  0  0  0  0  2  0  0  0  0  0  0
  196.4040  172.3360  145.0730 C   0  0  1  0  0  3  0  0  0  0  0  0
  195.1930  170.4250  144.0770 C   0  0  0  0  0  2  0  0  0  0  0  0
  196.5660  172.3470  143.5710 C   0  0  2  0  0  0  0  0  0  0  0  0
  195.4230  171.1940  145.3700 C   0  0  2  0  0  0  0  0  0  0  0  0
  197.6980  171.8340  144.4340 C   0  0  0  0  0  2  0  0  0  0  0  0
  194.2090  171.7310  145.7980 O   0  0  0  0  0  1  0  0  0  0  0  0
  196.2050  168.9830  145.8930 O   0  0  0  0  0  1  0  0  0  0  0  0
  195.9630  170.2480  146.4350 C   0  0  0  0  0  2  0  0  0  0  0  0
  195.1630  175.3740  141.1480 C   0  0  2  0  0  3  0  0  0  0  0  0
  195.1230  176.7620  141.2770 O   0  0  0  0  0  1  0  0  0  0  0  0
  193.9520  174.8680  140.3740 C   0  0  0  0  0  2  0  0  0  0  0  0
  194.2060  174.8800  138.8740 C   0  0  0  0  0  2  0  0  0  0  0  0
  195.7220  173.0480  138.8250 O   0  0  0  0  0  0  0  0  0  0  0  0
  195.5240  174.2600  138.5570 C   0  0  0  0  0  0  0  0  0  0  0  0
  196.5440  175.0090  137.9770 O   0  0  0  0  0  0  0  0  0  0  0  0
  197.1750  174.5710  136.8800 O   0  0  0  0  0  1  0  0  0  0  0  0
  1  5  1  1  0  0  0
  1  6  1  0  0  0  0
  2 34  1  6  0  0  0
  2 12  1  0  0  0  0
  3  2  1  0  0  0  0
  4 11  2  0  0  0  0
  6 13  1  0  0  0  0
  7 14  1  6  0  0  0
  7  1  1  0  0  0  0
  7 10  1  0  0  0  0
  8  3  1  6  0  0  0
  8  9  1  0  0  0  0
  9 12  1  6  0  0  0
  9  4  1  0  0  0  0
 10  8  1  0  0  0  0
 10 13  1  0  0  0  0
 13  4  1  0  0  0  0
 14 15  1  0  0  0  0
 16 15  1  0  0  0  0
 16 17  1  0  0  0  0
 17 20  1  0  0  0  0
 18 17  1  0  0  0  0
 20 21  1  0  0  0  0
 20 19  1  0  0  0  0
 21 19  1  0  0  0  0
 22 15  1  0  0  0  0
 23 22  1  0  0  0  0
 26 27  1  0  0  0  0
 27 24  1  0  0  0  0
 28 25  1  0  0  0  0
 28 23  1  0  0  0  0
 29 26  1  0  0  0  0
 29 32  1  0  0  0  0
 30 32  2  0  0  0  0
 30 31  1  0  0  0  0
 31 28  2  0  0  0  0
 32 33  1  0  0  0  0
 33 24  1  0  0  0  0
 33 25  2  0  0  0  0
 35 37  1  0  0  0  0
 35 34  1  0  0  0  0
 37 42  1  0  0  0  0
 37 36  2  0  0  0  0
 38 37  2  0  0  0  0
 39 42  1  0  0  0  0
 39 41  1  0  0  0  0
 40 43  1  0  0  0  0
 41 43  1  0  0  0  0
 42 44  1  0  0  0  0
 42 40  1  0  0  0  0
 43 45  1  0  0  0  0
 43 47  1  0  0  0  0
 44 40  1  0  0  0  0
 46 47  1  0  0  0  0
 48 49  1  0  0  0  0
 48 35  1  0  0  0  0
 50 48  1  0  0  0  0
 51 50  1  0  0  0  0
 53 52  2  0  0  0  0
 53 51  1  0  0  0  0
 54 53  1  0  0  0  0
 55 54  1  0  0  0  0
M  END
>  <MODEL>
7

>  <REMARK>
 VINA RESULT:      -5.9      2.258      7.366
  Name = 
  18 active torsions:
  status: ('A' for Active; 'I' for Inactive)
    1  A    between atoms: C_1  and  C_12
    2  A    between atoms: C_1  and  C_23
    3  A    between atoms: C_1  and  S_28
    4  A    between atoms: C_4  and  N_44
    5  A    between atoms: C_4  and  N_50
    6  A    between atoms: O_6  and  C_38
    7  A    between atoms: C_7  and  C_23
    8  A    between atoms: C_7  and  C_34
    9  A    between atoms: C_11  and  C_36
   10  A    between atoms: C_11  and  N_44
   11  A    between atoms: C_12  and  C_13
   12  A    between atoms: C_17  and  C_36
   13  A    between atoms: C_21  and  N_50
   14  A    between atoms: C_25  and  C_33
   15  A    between atoms: C_25  and  N_44
   16  A    between atoms: S_28  and  C_29
   17  A    between atoms: C_34  and  C_38
   18  A    between atoms: C_35  and  C_39
                            x       y       z     vdW  Elec       q    Type
                         _______ _______ _______ _____ _____    ______ ____

>  <TORSDO>
F 18

$$$$
=
 OpenBabel11062418363D

 55 62  0  0  1  0  0  0  0  0999 V2000
  194.1060  171.0770  140.2090 C   0  0  2  0  0  3  0  0  0  0  0  0
  190.3340  173.5840  142.4150 C   0  0  2  0  0  3  0  0  0  0  0  0
  191.7190  173.3040  142.7680 N   0  0  0  0  0  2  0  0  0  0  0  0
  191.1140  169.9670  141.7590 C   0  0  0  0  0  0  0  0  0  0  0  0
  194.0710  171.7130  138.9800 F   0  0  0  0  0  0  0  0  0  0  0  0
  193.0580  169.9910  140.2570 C   0  0  0  0  0  2  0  0  0  0  0  0
  193.7610  172.0480  141.3230 C   0  0  1  0  0  3  0  0  0  0  0  0
  191.7990  171.8630  143.0090 C   0  0  1  0  0  3  0  0  0  0  0  0
  190.5710  171.1540  142.4540 C   0  0  1  0  0  3  0  0  0  0  0  0
  193.0500  171.2110  142.3820 C   0  0  1  0  0  3  0  0  0  0  0  0
  190.4120  169.0240  141.4330 O   0  0  0  0  0  0  0  0  0  0  0  0
  189.7680  172.2830  141.2970 S   0  0  0  0  0  0  0  0  0  0  0  0
  192.5960  169.9230  141.7000 C   0  0  1  0  0  3  0  0  0  0  0  0
  195.0190  172.6580  141.9340 C   0  0  0  0  0  2  0  0  0  0  0  0
  194.9290  174.1150  142.0150 N   0  0  0  0  0  0  0  0  0  0  0  0
  195.5640  174.6230  143.2380 C   0  0  0  0  0  2  0  0  0  0  0  0
  194.5710  175.0030  144.3450 C   0  0  1  0  0  3  0  0  0  0  0  0
  194.1250  173.8510  144.9990 O   0  0  0  0  0  1  0  0  0  0  0  0
  194.3140  177.3120  145.4220 C   0  0  0  0  0  2  0  0  0  0  0  0
  195.1640  176.0530  145.3050 C   0  0  0  0  0  3  0  0  0  0  0  0
  194.2580  176.2660  146.5100 C   0  0  0  0  0  2  0  0  0  0  0  0
  195.6010  174.6580  140.8440 C   0  0  0  0  0  2  0  0  0  0  0  0
  194.6570  175.4420  140.0550 N   0  0  0  0  0  2  0  0  0  0  0  0
  190.7340  173.5730  137.7100 C   0  0  0  0  0  2  0  0  0  0  0  0
  192.7450  174.5320  138.8440 C   0  0  0  0  0  3  0  0  0  0  0  0
  191.0800  172.6850  135.4070 C   0  0  0  0  0  2  0  0  0  0  0  0
  190.1290  173.4550  136.3140 C   0  0  0  0  0  2  0  0  0  0  0  0
  194.0740  174.9590  138.8460 C   0  0  0  0  0  0  0  0  0  0  0  0
  192.3560  173.5000  135.2010 C   0  0  0  0  0  2  0  0  0  0  0  0
  194.2320  174.4100  136.5210 N   0  0  0  0  0  0  0  0  0  0  0  0
  194.8060  174.8980  137.6530 C   0  0  0  0  0  3  0  0  0  0  0  0
  192.9430  173.9700  136.5010 C   0  0  0  0  0  0  0  0  0  0  0  0
  192.1590  174.0570  137.6690 C   0  0  0  0  0  0  0  0  0  0  0  0
  190.2080  174.9490  141.7720 C   0  0  0  0  0  2  0  0  0  0  0  0
  189.6000  175.9160  142.7840 C   0  0  2  0  0  3  0  0  0  0  0  0
  187.8320  176.3040  140.7810 O   0  0  0  0  0  0  0  0  0  0  0  0
  188.3690  176.9660  142.0170 S   0  0  0  0  0  0  0  0  0  0  0  0
  188.9990  178.2810  141.6370 O   0  0  0  0  0  0  0  0  0  0  0  0
  186.4760  178.6320  143.3930 C   0  0  0  0  0  2  0  0  0  0  0  0
  187.1880  176.5510  144.5140 C   0  0  1  0  0  3  0  0  0  0  0  0
  185.8580  178.6190  144.7720 C   0  0  0  0  0  2  0  0  0  0  0  0
  187.0420  177.2420  143.1780 C   0  0  2  0  0  0  0  0  0  0  0  0
  186.5500  177.5000  145.5370 C   0  0  2  0  0  0  0  0  0  0  0  0
  186.1750  176.0420  143.4890 C   0  0  0  0  0  2  0  0  0  0  0  0
  187.5510  178.0510  146.3370 O   0  0  0  0  0  1  0  0  0  0  0  0
  185.9350  176.8090  147.7550 O   0  0  0  0  0  1  0  0  0  0  0  0
  185.5340  176.7810  146.4170 C   0  0  0  0  0  2  0  0  0  0  0  0
  190.6510  176.7290  143.5390 C   0  0  2  0  0  3  0  0  0  0  0  0
  191.7900  176.9230  142.7580 O   0  0  0  0  0  1  0  0  0  0  0  0
  191.0040  176.0240  144.8430 C   0  0  0  0  0  2  0  0  0  0  0  0
  190.5020  176.8040  146.0490 C   0  0  0  0  0  2  0  0  0  0  0  0
  189.5260  174.9420  147.1620 O   0  0  0  0  0  0  0  0  0  0  0  0
  190.3330  175.9040  147.2260 C   0  0  0  0  0  0  0  0  0  0  0  0
  191.0500  176.1220  148.3990 O   0  0  0  0  0  0  0  0  0  0  0  0
  191.7100  177.2710  148.5930 O   0  0  0  0  0  1  0  0  0  0  0  0
  1  5  1  6  0  0  0
  1  6  1  0  0  0  0
  1  7  1  0  0  0  0
  2 34  1  6  0  0  0
  2  3  1  0  0  0  0
  4  9  1  0  0  0  0
  6 13  1  0  0  0  0
  7 14  1  1  0  0  0
  7 10  1  0  0  0  0
  8  3  1  6  0  0  0
  9 12  1  6  0  0  0
  9  8  1  0  0  0  0
 10  8  1  0  0  0  0
 11  4  2  0  0  0  0
 12  2  1  0  0  0  0
 13  4  1  0  0  0  0
 13 10  1  0  0  0  0
 14 15  1  0  0  0  0
 15 16  1  0  0  0  0
 16 17  1  0  0  0  0
 17 18  1  0  0  0  0
 17 20  1  0  0  0  0
 19 21  1  0  0  0  0
 20 19  1  0  0  0  0
 20 21  1  0  0  0  0
 22 15  1  0  0  0  0
 23 22  1  0  0  0  0
 25 28  1  0  0  0  0
 26 27  1  0  0  0  0
 27 24  1  0  0  0  0
 28 23  1  0  0  0  0
 29 26  1  0  0  0  0
 29 32  1  0  0  0  0
 30 31  1  0  0  0  0
 31 28  2  0  0  0  0
 32 30  2  0  0  0  0
 32 33  1  0  0  0  0
 33 24  1  0  0  0  0
 33 25  2  0  0  0  0
 34 35  1  0  0  0  0
 35 48  1  0  0  0  0
 36 37  2  0  0  0  0
 37 35  1  0  0  0  0
 37 42  1  0  0  0  0
 38 37  2  0  0  0  0
 39 41  1  0  0  0  0
 40 43  1  0  0  0  0
 41 43  1  0  0  0  0
 42 39  1  0  0  0  0
 42 44  1  0  0  0  0
 42 40  1  0  0  0  0
 43 45  1  0  0  0  0
 43 47  1  0  0  0  0
 44 40  1  0  0  0  0
 47 46  1  0  0  0  0
 48 50  1  0  0  0  0
 49 48  1  0  0  0  0
 50 51  1  0  0  0  0
 51 53  1  0  0  0  0
 52 53  2  0  0  0  0
 53 54  1  0  0  0  0
 54 55  1  0  0  0  0
M  END
>  <MODEL>
8

>  <REMARK>
 VINA RESULT:      -5.9      2.940      7.328
  Name = 
  18 active torsions:
  status: ('A' for Active; 'I' for Inactive)
    1  A    between atoms: C_1  and  C_12
    2  A    between atoms: C_1  and  C_23
    3  A    between atoms: C_1  and  S_28
    4  A    between atoms: C_4  and  N_44
    5  A    between atoms: C_4  and  N_50
    6  A    between atoms: O_6  and  C_38
    7  A    between atoms: C_7  and  C_23
    8  A    between atoms: C_7  and  C_34
    9  A    between atoms: C_11  and  C_36
   10  A    between atoms: C_11  and  N_44
   11  A    between atoms: C_12  and  C_13
   12  A    between atoms: C_17  and  C_36
   13  A    between atoms: C_21  and  N_50
   14  A    between atoms: C_25  and  C_33
   15  A    between atoms: C_25  and  N_44
   16  A    between atoms: S_28  and  C_29
   17  A    between atoms: C_34  and  C_38
   18  A    between atoms: C_35  and  C_39
                            x       y       z     vdW  Elec       q    Type
                         _______ _______ _______ _____ _____    ______ ____

>  <TORSDO>
F 18

$$$$
=
 OpenBabel11062418363D

 55 62  0  0  1  0  0  0  0  0999 V2000
  189.8050  177.0490  143.7510 C   0  0  2  0  0  3  0  0  0  0  0  0
  193.0890  173.8040  145.7670 C   0  0  2  0  0  3  0  0  0  0  0  0
  191.7390  173.6920  145.2330 N   0  0  0  0  0  2  0  0  0  0  0  0
  190.9580  176.6080  147.0770 C   0  0  0  0  0  0  0  0  0  0  0  0
  190.6330  177.5880  142.7820 F   0  0  0  0  0  0  0  0  0  0  0  0
  190.0610  177.7200  145.0790 C   0  0  0  0  0  2  0  0  0  0  0  0
  190.1100  175.5760  143.9560 C   0  0  1  0  0  3  0  0  0  0  0  0
  190.8690  174.4260  146.1520 C   0  0  1  0  0  3  0  0  0  0  0  0
  191.6900  175.3230  147.0690 C   0  0  1  0  0  3  0  0  0  0  0  0
  189.8280  175.3070  145.4310 C   0  0  1  0  0  3  0  0  0  0  0  0
  191.1650  177.4730  147.9140 O   0  0  0  0  0  0  0  0  0  0  0  0
  193.3270  175.5030  146.3320 S   0  0  0  0  0  0  0  0  0  0  0  0
  189.8130  176.6610  146.1350 C   0  0  1  0  0  3  0  0  0  0  0  0
  189.1960  174.6990  143.1060 C   0  0  0  0  0  2  0  0  0  0  0  0
  189.4940  174.8280  141.6810 N   0  0  0  0  0  0  0  0  0  0  0  0
  189.5200  173.5170  141.0180 C   0  0  0  0  0  2  0  0  0  0  0  0
  190.7440  173.2960  140.1210 C   0  0  1  0  0  3  0  0  0  0  0  0
  190.4760  173.7560  138.8290 O   0  0  0  0  0  1  0  0  0  0  0  0
  193.2300  172.9960  140.6550 C   0  0  0  0  0  2  0  0  0  0  0  0
  192.0170  173.9150  140.7310 C   0  0  0  0  0  3  0  0  0  0  0  0
  193.0840  174.1300  139.6680 C   0  0  0  0  0  2  0  0  0  0  0  0
  188.4550  175.6610  141.0930 C   0  0  0  0  0  2  0  0  0  0  0  0
  187.1850  175.4120  141.7660 N   0  0  0  0  0  2  0  0  0  0  0  0
  185.5640  177.0100  146.1480 C   0  0  0  0  0  2  0  0  0  0  0  0
  186.3770  176.2560  143.9070 C   0  0  0  0  0  3  0  0  0  0  0  0
  183.9980  178.9490  146.1620 C   0  0  0  0  0  2  0  0  0  0  0  0
  185.1740  178.2940  146.8740 C   0  0  0  0  0  2  0  0  0  0  0  0
  186.5050  176.4090  142.5260 C   0  0  0  0  0  0  0  0  0  0  0  0
  184.4410  179.4150  144.7760 C   0  0  0  0  0  2  0  0  0  0  0  0
  185.2890  178.4670  142.6620 N   0  0  0  0  0  0  0  0  0  0  0  0
  185.9540  177.5450  141.9170 C   0  0  0  0  0  3  0  0  0  0  0  0
  185.1350  178.3280  144.0080 C   0  0  0  0  0  0  0  0  0  0  0  0
  185.7130  177.2230  144.6650 C   0  0  0  0  0  0  0  0  0  0  0  0
  194.1150  173.4280  144.7190 C   0  0  0  0  0  2  0  0  0  0  0  0
  194.9670  172.2810  145.2530 C   0  0  2  0  0  3  0  0  0  0  0  0
  196.2230  171.1090  143.1700 O   0  0  0  0  0  0  0  0  0  0  0  0
  196.4630  172.0810  144.2900 S   0  0  0  0  0  0  0  0  0  0  0  0
  197.5620  171.5500  145.1740 O   0  0  0  0  0  0  0  0  0  0  0  0
  196.8830  174.9160  144.4780 C   0  0  0  0  0  2  0  0  0  0  0  0
  196.3940  173.9830  142.2460 C   0  0  1  0  0  3  0  0  0  0  0  0
  196.7500  176.0740  143.5160 C   0  0  0  0  0  2  0  0  0  0  0  0
  196.9340  173.6670  143.6210 C   0  0  2  0  0  0  0  0  0  0  0  0
  196.1550  175.4990  142.2390 C   0  0  2  0  0  0  0  0  0  0  0  0
  197.8700  173.6330  142.4330 C   0  0  0  0  0  2  0  0  0  0  0  0
  194.7830  175.7470  142.2280 O   0  0  0  0  0  1  0  0  0  0  0  0
  196.2650  175.6640  139.8440 O   0  0  0  0  0  1  0  0  0  0  0  0
  196.8020  176.1680  141.0310 C   0  0  0  0  0  2  0  0  0  0  0  0
  194.1910  170.9690  145.3780 C   0  0  2  0  0  3  0  0  0  0  0  0
  194.9410  170.0070  146.0530 O   0  0  0  0  0  1  0  0  0  0  0  0
  193.7970  170.4740  143.9920 C   0  0  0  0  0  2  0  0  0  0  0  0
  192.2880  170.5060  143.7990 C   0  0  0  0  0  2  0  0  0  0  0  0
  190.7370  170.2040  142.0210 O   0  0  0  0  0  0  0  0  0  0  0  0
  191.9230  170.0740  142.4200 C   0  0  0  0  0  0  0  0  0  0  0  0
  192.8750  169.5180  141.5710 O   0  0  0  0  0  0  0  0  0  0  0  0
  192.5240  168.6040  140.6570 O   0  0  0  0  0  1  0  0  0  0  0  0
  1  5  1  6  0  0  0
  1  7  1  0  0  0  0
  1  6  1  0  0  0  0
  2 34  1  6  0  0  0
  2 12  1  0  0  0  0
  3  2  1  0  0  0  0
  4 11  2  0  0  0  0
  6 13  1  0  0  0  0
  7 14  1  6  0  0  0
  7 10  1  0  0  0  0
  8  3  1  6  0  0  0
  8  9  1  0  0  0  0
  9 12  1  6  0  0  0
  9  4  1  0  0  0  0
 10 13  1  0  0  0  0
 10  8  1  0  0  0  0
 13  4  1  0  0  0  0
 15 14  1  0  0  0  0
 16 15  1  0  0  0  0
 17 20  1  0  0  0  0
 17 16  1  0  0  0  0
 18 17  1  0  0  0  0
 19 20  1  0  0  0  0
 21 19  1  0  0  0  0
 21 20  1  0  0  0  0
 22 15  1  0  0  0  0
 22 23  1  0  0  0  0
 23 28  1  0  0  0  0
 24 27  1  0  0  0  0
 25 33  1  0  0  0  0
 26 27  1  0  0  0  0
 28 25  2  0  0  0  0
 29 26  1  0  0  0  0
 30 32  1  0  0  0  0
 31 28  1  0  0  0  0
 31 30  2  0  0  0  0
 32 33  2  0  0  0  0
 32 29  1  0  0  0  0
 33 24  1  0  0  0  0
 34 35  1  0  0  0  0
 35 48  1  0  0  0  0
 36 37  2  0  0  0  0
 37 38  2  0  0  0  0
 37 35  1  0  0  0  0
 40 44  1  0  0  0  0
 40 42  1  0  0  0  0
 41 39  1  0  0  0  0
 42 37  1  0  0  0  0
 42 39  1  0  0  0  0
 43 40  1  0  0  0  0
 43 41  1  0  0  0  0
 44 42  1  0  0  0  0
 45 43  1  0  0  0  0
 46 47  1  0  0  0  0
 47 43  1  0  0  0  0
 48 49  1  0  0  0  0
 50 48  1  0  0  0  0
 51 50  1  0  0  0  0
 52 53  2  0  0  0  0
 53 51  1  0  0  0  0
 54 53  1  0  0  0  0
 55 54  1  0  0  0  0
M  END
>  <MODEL>
9

>  <REMARK>
 VINA RESULT:      -5.9      2.228      5.294
  Name = 
  18 active torsions:
  status: ('A' for Active; 'I' for Inactive)
    1  A    between atoms: C_1  and  C_12
    2  A    between atoms: C_1  and  C_23
    3  A    between atoms: C_1  and  S_28
    4  A    between atoms: C_4  and  N_44
    5  A    between atoms: C_4  and  N_50
    6  A    between atoms: O_6  and  C_38
    7  A    between atoms: C_7  and  C_23
    8  A    between atoms: C_7  and  C_34
    9  A    between atoms: C_11  and  C_36
   10  A    between atoms: C_11  and  N_44
   11  A    between atoms: C_12  and  C_13
   12  A    between atoms: C_17  and  C_36
   13  A    between atoms: C_21  and  N_50
   14  A    between atoms: C_25  and  C_33
   15  A    between atoms: C_25  and  N_44
   16  A    between atoms: S_28  and  C_29
   17  A    between atoms: C_34  and  C_38
   18  A    between atoms: C_35  and  C_39
                            x       y       z     vdW  Elec       q    Type
                         _______ _______ _______ _____ _____    ______ ____

>  <TORSDO>
F 18

$$$$
