=
 OpenBabel11062422563D

 29 31  0  0  1  0  0  0  0  0999 V2000
  187.5280  177.1680  143.6650 C   0  0  1  0  0  3  0  0  0  0  0  0
  189.5890  176.2660  144.4530 N   0  0  0  0  0  0  0  0  0  0  0  0
  188.0360  176.1440  142.6560 C   0  0  2  0  0  3  0  0  0  0  0  0
  187.0330  175.2120  142.3750 O   0  0  0  0  0  1  0  0  0  0  0  0
  189.2960  175.5090  143.2470 C   0  0  2  0  0  3  0  0  0  0  0  0
  188.5630  177.2400  144.7760 C   0  0  0  0  0  2  0  0  0  0  0  0
  190.8960  176.3000  145.0540 C   0  0  0  0  0  0  0  0  0  0  0  0
  193.2210  176.9710  144.9630 C   0  0  0  0  0  3  0  0  0  0  0  0
  193.4370  176.3800  146.1670 N   0  0  0  0  0  0  0  0  0  0  0  0
  191.9510  176.9380  144.3870 C   0  0  0  0  0  3  0  0  0  0  0  0
  191.1500  175.6940  146.3000 C   0  0  0  0  0  0  0  0  0  0  0  0
  190.1300  174.9960  147.0070 N   0  0  0  0  0  1  0  0  0  0  0  0
  192.4390  175.7460  146.8370 C   0  0  0  0  0  3  0  0  0  0  0  0
  189.1280  174.0260  143.5850 C   0  0  0  0  0  2  0  0  0  0  0  0
  190.1730  173.2360  142.9390 N   0  0  0  0  0  0  0  0  0  0  0  0
  190.4330  172.8370  140.2540 S   0  0  0  0  0  0  0  0  0  0  0  0
  190.3660  171.4020  141.3940 C   0  0  0  0  0  2  0  0  0  0  0  0
  189.5270  172.5220  141.8360 C   0  0  1  0  0  3  0  0  0  0  0  0
  189.7470  172.1180  144.9730 O   0  0  0  0  0  1  0  0  0  0  0  0
  190.6570  172.2490  143.9170 C   0  0  2  0  0  3  0  0  0  0  0  0
  192.0030  172.6720  144.4930 C   0  0  0  0  0  2  0  0  0  0  0  0
  192.8050  173.4310  143.4520 C   0  0  0  0  0  1  0  0  0  0  0  0
  187.4300  178.4200  143.0510 O   0  0  0  0  0  0  0  0  0  0  0  0
  186.0590  178.6670  142.9220 C   0  0  0  0  0  2  0  0  0  0  0  0
  185.5680  179.5030  144.0950 C   0  0  0  0  0  2  0  0  0  0  0  0
  184.3230  178.8910  144.7200 C   0  0  0  0  0  2  0  0  0  0  0  0
  184.5410  178.6350  146.1980 C   0  0  0  0  0  2  0  0  0  0  0  0
  186.0220  177.0920  147.4390 C   0  0  0  0  0  1  0  0  0  0  0  0
  184.9190  177.1840  146.4060 C   0  0  0  0  0  2  0  0  0  0  0  0
  1 23  1  6  0  0  0
  1  6  1  0  0  0  0
  2  6  1  0  0  0  0
  2  7  1  0  0  0  0
  3  4  1  1  0  0  0
  3  5  1  0  0  0  0
  3  1  1  0  0  0  0
  5 14  1  1  0  0  0
  5  2  1  0  0  0  0
  7 11  1  0  0  0  0
  8  9  2  0  0  0  0
  9 13  1  0  0  0  0
 10  8  1  0  0  0  0
 10  7  2  0  0  0  0
 11 13  2  0  0  0  0
 11 12  1  0  0  0  0
 15 14  1  0  0  0  0
 15 20  1  0  0  0  0
 16 17  1  0  0  0  0
 16 18  1  0  0  0  0
 17 18  1  0  0  0  0
 18 15  1  1  0  0  0
 20 21  1  0  0  0  0
 20 19  1  1  0  0  0
 22 21  1  0  0  0  0
 24 23  1  0  0  0  0
 24 25  1  0  0  0  0
 25 26  1  0  0  0  0
 26 27  1  0  0  0  0
 27 29  1  0  0  0  0
 29 28  1  0  0  0  0
M  END
>  <MODEL>
1

>  <REMARK>
 VINA RESULT:      -5.6      0.000      0.000
  Name = 
  12 active torsions:
  status: ('A' for Active; 'I' for Inactive)
    1  A    between atoms: C_1  and  C_5
    2  A    between atoms: C_1  and  C_12
    3  A    between atoms: C_2  and  O_19
    4  A    between atoms: C_4  and  N_14
    5  A    between atoms: C_5  and  C_8
    6  A    between atoms: C_8  and  C_24
    7  A    between atoms: C_12  and  O_19
    8  A    between atoms: C_16  and  N_20
    9  A    between atoms: C_16  and  C_21
   10  A    between atoms: N_20  and  C_25
   11  A    between atoms: N_20  and  C_27
   12  A    between atoms: C_23  and  C_25
                            x       y       z     vdW  Elec       q    Type
                         _______ _______ _______ _____ _____    ______ ____

>  <TORSDO>
F 12

$$$$
=
 OpenBabel11062422563D

 29 31  0  0  1  0  0  0  0  0999 V2000
  187.9760  176.7890  145.7870 C   0  0  1  0  0  3  0  0  0  0  0  0
  188.8580  175.5830  143.9300 N   0  0  0  0  0  0  0  0  0  0  0  0
  189.4000  176.3540  146.1140 C   0  0  2  0  0  3  0  0  0  0  0  0
  190.1520  177.4550  146.5350 O   0  0  0  0  0  1  0  0  0  0  0  0
  189.9690  175.6830  144.8630 C   0  0  2  0  0  3  0  0  0  0  0  0
  187.6580  176.2480  144.4030 C   0  0  0  0  0  2  0  0  0  0  0  0
  188.8360  174.6410  142.8430 C   0  0  0  0  0  0  0  0  0  0  0  0
  189.1750  172.3880  142.0210 C   0  0  0  0  0  3  0  0  0  0  0  0
  188.8210  172.7920  140.7730 N   0  0  0  0  0  0  0  0  0  0  0  0
  189.1920  173.3040  143.0730 C   0  0  0  0  0  3  0  0  0  0  0  0
  188.4750  175.0310  141.5380 C   0  0  0  0  0  0  0  0  0  0  0  0
  188.1440  176.3810  141.2320 N   0  0  0  0  0  1  0  0  0  0  0  0
  188.4780  174.0810  140.5130 C   0  0  0  0  0  3  0  0  0  0  0  0
  191.1210  176.4640  144.2250 C   0  0  0  0  0  2  0  0  0  0  0  0
  192.3990  175.8260  144.5330 N   0  0  0  0  0  0  0  0  0  0  0  0
  194.0410  176.6150  146.5620 S   0  0  0  0  0  0  0  0  0  0  0  0
  194.7070  176.4170  144.8650 C   0  0  0  0  0  2  0  0  0  0  0  0
  193.3240  176.9060  144.8810 C   0  0  1  0  0  3  0  0  0  0  0  0
  192.1450  175.6100  142.1970 O   0  0  0  0  0  1  0  0  0  0  0  0
  192.8810  175.1740  143.3050 C   0  0  2  0  0  3  0  0  0  0  0  0
  192.7450  173.6590  143.4070 C   0  0  0  0  0  2  0  0  0  0  0  0
  192.7640  173.2260  144.8610 C   0  0  0  0  0  1  0  0  0  0  0  0
  187.0910  176.2250  146.7110 O   0  0  0  0  0  0  0  0  0  0  0  0
  186.2740  177.2770  147.1370 C   0  0  0  0  0  2  0  0  0  0  0  0
  184.9060  177.1730  146.4790 C   0  0  0  0  0  2  0  0  0  0  0  0
  184.2720  178.5460  146.3120 C   0  0  0  0  0  2  0  0  0  0  0  0
  184.1550  178.9040  144.8440 C   0  0  0  0  0  2  0  0  0  0  0  0
  185.8860  179.1250  143.0930 C   0  0  0  0  0  1  0  0  0  0  0  0
  185.3880  179.6700  144.4140 C   0  0  0  0  0  2  0  0  0  0  0  0
  1  3  1  0  0  0  0
  1 23  1  1  0  0  0
  2  6  1  0  0  0  0
  2  5  1  0  0  0  0
  3  4  1  6  0  0  0
  5 14  1  6  0  0  0
  5  3  1  0  0  0  0
  6  1  1  0  0  0  0
  7 10  1  0  0  0  0
  7  2  1  0  0  0  0
  8 10  2  0  0  0  0
  9  8  1  0  0  0  0
 11  7  2  0  0  0  0
 12 11  1  0  0  0  0
 13  9  2  0  0  0  0
 13 11  1  0  0  0  0
 14 15  1  0  0  0  0
 17 18  1  0  0  0  0
 17 16  1  0  0  0  0
 18 15  1  6  0  0  0
 18 16  1  0  0  0  0
 20 19  1  6  0  0  0
 20 21  1  0  0  0  0
 20 15  1  0  0  0  0
 21 22  1  0  0  0  0
 23 24  1  0  0  0  0
 25 24  1  0  0  0  0
 26 25  1  0  0  0  0
 27 26  1  0  0  0  0
 28 29  1  0  0  0  0
 29 27  1  0  0  0  0
M  END
>  <MODEL>
2

>  <REMARK>
 VINA RESULT:      -5.5      2.504      4.739
  Name = 
  12 active torsions:
  status: ('A' for Active; 'I' for Inactive)
    1  A    between atoms: C_1  and  C_5
    2  A    between atoms: C_1  and  C_12
    3  A    between atoms: C_2  and  O_19
    4  A    between atoms: C_4  and  N_14
    5  A    between atoms: C_5  and  C_8
    6  A    between atoms: C_8  and  C_24
    7  A    between atoms: C_12  and  O_19
    8  A    between atoms: C_16  and  N_20
    9  A    between atoms: C_16  and  C_21
   10  A    between atoms: N_20  and  C_25
   11  A    between atoms: N_20  and  C_27
   12  A    between atoms: C_23  and  C_25
                            x       y       z     vdW  Elec       q    Type
                         _______ _______ _______ _____ _____    ______ ____

>  <TORSDO>
F 12

$$$$
=
 OpenBabel11062422563D

 29 31  0  0  1  0  0  0  0  0999 V2000
  187.5140  176.8850  143.8270 C   0  0  1  0  0  3  0  0  0  0  0  0
  189.5970  175.9700  144.5370 N   0  0  0  0  0  0  0  0  0  0  0  0
  188.0760  176.0130  142.7100 C   0  0  2  0  0  3  0  0  0  0  0  0
  187.1140  175.0850  142.2980 O   0  0  0  0  0  1  0  0  0  0  0  0
  189.3500  175.3570  143.2420 C   0  0  2  0  0  3  0  0  0  0  0  0
  188.5290  176.8590  144.9570 C   0  0  0  0  0  2  0  0  0  0  0  0
  190.8930  175.9780  145.1620 C   0  0  0  0  0  0  0  0  0  0  0  0
  192.3710  175.2100  146.9190 C   0  0  0  0  0  3  0  0  0  0  0  0
  193.3730  175.9720  146.4080 N   0  0  0  0  0  0  0  0  0  0  0  0
  191.1180  175.2020  146.3080 C   0  0  0  0  0  3  0  0  0  0  0  0
  191.9500  176.7610  144.6550 C   0  0  0  0  0  0  0  0  0  0  0  0
  191.7720  177.6000  143.5200 N   0  0  0  0  0  1  0  0  0  0  0  0
  193.1880  176.7420  145.3030 C   0  0  0  0  0  3  0  0  0  0  0  0
  189.2360  173.8380  143.3940 C   0  0  0  0  0  2  0  0  0  0  0  0
  190.2660  173.1690  142.6020 N   0  0  0  0  0  0  0  0  0  0  0  0
  190.0470  172.9390  139.8940 S   0  0  0  0  0  0  0  0  0  0  0  0
  190.4910  171.4770  140.9070 C   0  0  0  0  0  2  0  0  0  0  0  0
  189.5590  172.3820  141.5890 C   0  0  1  0  0  3  0  0  0  0  0  0
  190.2620  172.0380  144.6720 O   0  0  0  0  0  1  0  0  0  0  0  0
  190.9870  172.2470  143.4930 C   0  0  2  0  0  3  0  0  0  0  0  0
  192.3540  172.8100  143.8630 C   0  0  0  0  0  2  0  0  0  0  0  0
  192.8790  173.6920  142.7450 C   0  0  0  0  0  1  0  0  0  0  0  0
  187.3760  178.1990  143.3690 O   0  0  0  0  0  0  0  0  0  0  0  0
  185.9980  178.4290  143.3030 C   0  0  0  0  0  2  0  0  0  0  0  0
  185.6310  179.6390  144.1490 C   0  0  0  0  0  2  0  0  0  0  0  0
  185.4540  179.2530  145.6100 C   0  0  0  0  0  2  0  0  0  0  0  0
  184.4020  178.1710  145.7510 C   0  0  0  0  0  2  0  0  0  0  0  0
  185.9700  177.5430  147.5560 C   0  0  0  0  0  1  0  0  0  0  0  0
  184.9740  177.0160  146.5460 C   0  0  0  0  0  2  0  0  0  0  0  0
  1 23  1  6  0  0  0
  1  6  1  0  0  0  0
  2  6  1  0  0  0  0
  2  7  1  0  0  0  0
  3  4  1  1  0  0  0
  3  5  1  0  0  0  0
  3  1  1  0  0  0  0
  5 14  1  1  0  0  0
  5  2  1  0  0  0  0
  7 10  1  0  0  0  0
  9  8  1  0  0  0  0
 10  8  2  0  0  0  0
 11  7  2  0  0  0  0
 11 13  1  0  0  0  0
 12 11  1  0  0  0  0
 13  9  2  0  0  0  0
 15 14  1  0  0  0  0
 15 20  1  0  0  0  0
 16 17  1  0  0  0  0
 16 18  1  0  0  0  0
 17 18  1  0  0  0  0
 18 15  1  1  0  0  0
 20 21  1  0  0  0  0
 20 19  1  1  0  0  0
 22 21  1  0  0  0  0
 24 23  1  0  0  0  0
 24 25  1  0  0  0  0
 25 26  1  0  0  0  0
 26 27  1  0  0  0  0
 27 29  1  0  0  0  0
 29 28  1  0  0  0  0
M  END
>  <MODEL>
3

>  <REMARK>
 VINA RESULT:      -5.4      0.702      1.336
  Name = 
  12 active torsions:
  status: ('A' for Active; 'I' for Inactive)
    1  A    between atoms: C_1  and  C_5
    2  A    between atoms: C_1  and  C_12
    3  A    between atoms: C_2  and  O_19
    4  A    between atoms: C_4  and  N_14
    5  A    between atoms: C_5  and  C_8
    6  A    between atoms: C_8  and  C_24
    7  A    between atoms: C_12  and  O_19
    8  A    between atoms: C_16  and  N_20
    9  A    between atoms: C_16  and  C_21
   10  A    between atoms: N_20  and  C_25
   11  A    between atoms: N_20  and  C_27
   12  A    between atoms: C_23  and  C_25
                            x       y       z     vdW  Elec       q    Type
                         _______ _______ _______ _____ _____    ______ ____

>  <TORSDO>
F 12

$$$$
=
 OpenBabel11062422563D

 29 31  0  0  1  0  0  0  0  0999 V2000
  187.3520  177.1740  142.4350 C   0  0  1  0  0  3  0  0  0  0  0  0
  189.0750  175.5340  142.2980 N   0  0  0  0  0  0  0  0  0  0  0  0
  187.7970  176.8080  143.8460 C   0  0  2  0  0  3  0  0  0  0  0  0
  188.1160  177.9660  144.5620 O   0  0  0  0  0  1  0  0  0  0  0  0
  188.9740  175.8410  143.7150 C   0  0  2  0  0  3  0  0  0  0  0  0
  188.1650  176.3150  141.4810 C   0  0  0  0  0  2  0  0  0  0  0  0
  189.7320  174.3540  141.8000 C   0  0  0  0  0  0  0  0  0  0  0  0
  191.7220  173.2750  140.9410 C   0  0  0  0  0  3  0  0  0  0  0  0
  191.0380  172.1070  140.8250 N   0  0  0  0  0  0  0  0  0  0  0  0
  191.0830  174.4150  141.4270 C   0  0  0  0  0  3  0  0  0  0  0  0
  189.0460  173.1300  141.6660 C   0  0  0  0  0  0  0  0  0  0  0  0
  187.6650  173.0150  141.9890 N   0  0  0  0  0  1  0  0  0  0  0  0
  189.7260  172.0150  141.1690 C   0  0  0  0  0  3  0  0  0  0  0  0
  190.2970  176.4200  144.2220 C   0  0  0  0  0  2  0  0  0  0  0  0
  190.8500  175.5770  145.2790 N   0  0  0  0  0  0  0  0  0  0  0  0
  189.2090  174.7810  147.3060 S   0  0  0  0  0  0  0  0  0  0  0  0
  190.9020  175.3810  147.6760 C   0  0  0  0  0  2  0  0  0  0  0  0
  190.2880  176.0720  146.5370 C   0  0  1  0  0  3  0  0  0  0  0  0
  192.6410  176.9770  144.6490 O   0  0  0  0  0  1  0  0  0  0  0  0
  192.3060  175.7850  145.3020 C   0  0  2  0  0  3  0  0  0  0  0  0
  193.0290  174.6370  144.6060 C   0  0  0  0  0  2  0  0  0  0  0  0
  193.8290  173.8330  145.6130 C   0  0  0  0  0  1  0  0  0  0  0  0
  185.9970  176.8700  142.2790 O   0  0  0  0  0  0  0  0  0  0  0  0
  185.3330  178.1020  142.2840 C   0  0  0  0  0  2  0  0  0  0  0  0
  184.4220  178.1970  143.5000 C   0  0  0  0  0  2  0  0  0  0  0  0
  184.8440  179.3370  144.4130 C   0  0  0  0  0  2  0  0  0  0  0  0
  184.7260  178.9270  145.8670 C   0  0  0  0  0  2  0  0  0  0  0  0
  185.8620  177.1180  147.1120 C   0  0  0  0  0  1  0  0  0  0  0  0
  184.9030  177.4280  145.9810 C   0  0  0  0  0  2  0  0  0  0  0  0
  1 23  1  1  0  0  0
  1  3  1  0  0  0  0
  2  5  1  0  0  0  0
  3  4  1  1  0  0  0
  5  3  1  0  0  0  0
  5 14  1  6  0  0  0
  6  2  1  0  0  0  0
  6  1  1  0  0  0  0
  7  2  1  0  0  0  0
  8 10  1  0  0  0  0
  9  8  2  0  0  0  0
  9 13  1  0  0  0  0
 10  7  2  0  0  0  0
 11  7  1  0  0  0  0
 11 12  1  0  0  0  0
 13 11  2  0  0  0  0
 14 15  1  0  0  0  0
 15 20  1  0  0  0  0
 16 17  1  0  0  0  0
 18 15  1  6  0  0  0
 18 16  1  0  0  0  0
 18 17  1  0  0  0  0
 20 19  1  6  0  0  0
 21 20  1  0  0  0  0
 21 22  1  0  0  0  0
 23 24  1  0  0  0  0
 24 25  1  0  0  0  0
 25 26  1  0  0  0  0
 26 27  1  0  0  0  0
 27 29  1  0  0  0  0
 29 28  1  0  0  0  0
M  END
>  <MODEL>
4

>  <REMARK>
 VINA RESULT:      -5.3      2.313      4.184
  Name = 
  12 active torsions:
  status: ('A' for Active; 'I' for Inactive)
    1  A    between atoms: C_1  and  C_5
    2  A    between atoms: C_1  and  C_12
    3  A    between atoms: C_2  and  O_19
    4  A    between atoms: C_4  and  N_14
    5  A    between atoms: C_5  and  C_8
    6  A    between atoms: C_8  and  C_24
    7  A    between atoms: C_12  and  O_19
    8  A    between atoms: C_16  and  N_20
    9  A    between atoms: C_16  and  C_21
   10  A    between atoms: N_20  and  C_25
   11  A    between atoms: N_20  and  C_27
   12  A    between atoms: C_23  and  C_25
                            x       y       z     vdW  Elec       q    Type
                         _______ _______ _______ _____ _____    ______ ____

>  <TORSDO>
F 12

$$$$
=
 OpenBabel11062422563D

 29 31  0  0  1  0  0  0  0  0999 V2000
  188.2540  176.7020  146.0410 C   0  0  1  0  0  3  0  0  0  0  0  0
  189.0310  175.5770  144.0880 N   0  0  0  0  0  0  0  0  0  0  0  0
  189.6120  176.0750  146.3400 C   0  0  2  0  0  3  0  0  0  0  0  0
  190.4760  177.0380  146.8700 O   0  0  0  0  0  1  0  0  0  0  0  0
  190.1260  175.4610  145.0370 C   0  0  2  0  0  3  0  0  0  0  0  0
  187.9060  176.3310  144.6090 C   0  0  0  0  0  2  0  0  0  0  0  0
  188.9230  174.7470  142.9170 C   0  0  0  0  0  0  0  0  0  0  0  0
  189.0910  172.5670  141.8770 C   0  0  0  0  0  3  0  0  0  0  0  0
  188.7410  173.1110  140.6830 N   0  0  0  0  0  0  0  0  0  0  0  0
  189.1900  173.3740  143.0100 C   0  0  0  0  0  3  0  0  0  0  0  0
  188.5650  175.2850  141.6650 C   0  0  0  0  0  0  0  0  0  0  0  0
  188.3220  176.6770  141.4980 N   0  0  0  0  0  1  0  0  0  0  0  0
  188.4830  174.4400  140.5550 C   0  0  0  0  0  3  0  0  0  0  0  0
  191.3730  176.1570  144.4870 C   0  0  0  0  0  2  0  0  0  0  0  0
  192.4400  175.1850  144.2610 N   0  0  0  0  0  0  0  0  0  0  0  0
  192.5070  172.4640  144.4260 S   0  0  0  0  0  0  0  0  0  0  0  0
  193.5040  173.4790  145.5830 C   0  0  0  0  0  2  0  0  0  0  0  0
  192.2260  174.1070  145.2290 C   0  0  1  0  0  3  0  0  0  0  0  0
  193.4960  177.0900  145.1690 O   0  0  0  0  0  1  0  0  0  0  0  0
  193.7190  175.8440  144.5710 C   0  0  2  0  0  3  0  0  0  0  0  0
  194.5370  176.0600  143.3030 C   0  0  0  0  0  2  0  0  0  0  0  0
  195.9810  176.3690  143.6560 C   0  0  0  0  0  1  0  0  0  0  0  0
  187.2920  176.1620  146.8990 O   0  0  0  0  0  0  0  0  0  0  0  0
  186.4500  177.2280  147.2330 C   0  0  0  0  0  2  0  0  0  0  0  0
  185.0990  177.0580  146.5520 C   0  0  0  0  0  2  0  0  0  0  0  0
  184.3460  178.3780  146.4930 C   0  0  0  0  0  2  0  0  0  0  0  0
  184.1710  178.8270  145.0560 C   0  0  0  0  0  2  0  0  0  0  0  0
  185.8280  179.1250  143.2460 C   0  0  0  0  0  1  0  0  0  0  0  0
  185.3990  179.5970  144.6190 C   0  0  0  0  0  2  0  0  0  0  0  0
  1  3  1  0  0  0  0
  1 23  1  1  0  0  0
  2  6  1  0  0  0  0
  2  5  1  0  0  0  0
  3  4  1  6  0  0  0
  5 14  1  6  0  0  0
  5  3  1  0  0  0  0
  6  1  1  0  0  0  0
  7 10  1  0  0  0  0
  7  2  1  0  0  0  0
  8 10  2  0  0  0  0
  9  8  1  0  0  0  0
 11  7  2  0  0  0  0
 12 11  1  0  0  0  0
 13  9  2  0  0  0  0
 13 11  1  0  0  0  0
 15 14  1  0  0  0  0
 15 20  1  0  0  0  0
 16 18  1  0  0  0  0
 16 17  1  0  0  0  0
 18 15  1  6  0  0  0
 18 17  1  0  0  0  0
 20 19  1  6  0  0  0
 21 22  1  0  0  0  0
 21 20  1  0  0  0  0
 23 24  1  0  0  0  0
 25 24  1  0  0  0  0
 26 25  1  0  0  0  0
 27 26  1  0  0  0  0
 28 29  1  0  0  0  0
 29 27  1  0  0  0  0
M  END
>  <MODEL>
5

>  <REMARK>
 VINA RESULT:      -5.3      2.446      4.593
  Name = 
  12 active torsions:
  status: ('A' for Active; 'I' for Inactive)
    1  A    between atoms: C_1  and  C_5
    2  A    between atoms: C_1  and  C_12
    3  A    between atoms: C_2  and  O_19
    4  A    between atoms: C_4  and  N_14
    5  A    between atoms: C_5  and  C_8
    6  A    between atoms: C_8  and  C_24
    7  A    between atoms: C_12  and  O_19
    8  A    between atoms: C_16  and  N_20
    9  A    between atoms: C_16  and  C_21
   10  A    between atoms: N_20  and  C_25
   11  A    between atoms: N_20  and  C_27
   12  A    between atoms: C_23  and  C_25
                            x       y       z     vdW  Elec       q    Type
                         _______ _______ _______ _____ _____    ______ ____

>  <TORSDO>
F 12

$$$$
=
 OpenBabel11062422563D

 29 31  0  0  1  0  0  0  0  0999 V2000
  188.9490  177.6680  142.9330 C   0  0  1  0  0  3  0  0  0  0  0  0
  189.9060  175.4880  142.8230 N   0  0  0  0  0  0  0  0  0  0  0  0
  190.1030  177.5860  143.9260 C   0  0  2  0  0  3  0  0  0  0  0  0
  190.9880  178.6480  143.7190 O   0  0  0  0  0  1  0  0  0  0  0  0
  190.7600  176.2160  143.7470 C   0  0  2  0  0  3  0  0  0  0  0  0
  188.8350  176.3010  142.2780 C   0  0  0  0  0  2  0  0  0  0  0  0
  189.9010  174.0510  142.7330 C   0  0  0  0  0  0  0  0  0  0  0  0
  189.4480  171.8960  143.7380 C   0  0  0  0  0  3  0  0  0  0  0  0
  189.8860  171.2790  142.6100 N   0  0  0  0  0  0  0  0  0  0  0  0
  189.4510  173.2880  143.8200 C   0  0  0  0  0  3  0  0  0  0  0  0
  190.3530  173.3840  141.5770 C   0  0  0  0  0  0  0  0  0  0  0  0
  190.8600  174.1020  140.4570 N   0  0  0  0  0  1  0  0  0  0  0  0
  190.3370  171.9880  141.5420 C   0  0  0  0  0  3  0  0  0  0  0  0
  192.1850  176.2920  143.1960 C   0  0  0  0  0  2  0  0  0  0  0  0
  193.1120  175.5970  144.0860 N   0  0  0  0  0  0  0  0  0  0  0  0
  194.0050  176.5580  146.4760 S   0  0  0  0  0  0  0  0  0  0  0  0
  195.2030  175.9960  145.2070 C   0  0  0  0  0  2  0  0  0  0  0  0
  194.0090  176.6200  144.6270 C   0  0  1  0  0  3  0  0  0  0  0  0
  193.7760  174.9760  141.9080 O   0  0  0  0  0  1  0  0  0  0  0  0
  193.9050  174.6660  143.2670 C   0  0  2  0  0  3  0  0  0  0  0  0
  193.4410  173.2290  143.4780 C   0  0  0  0  0  2  0  0  0  0  0  0
  192.9540  173.0380  144.9030 C   0  0  0  0  0  1  0  0  0  0  0  0
  187.7620  177.9450  143.6180 O   0  0  0  0  0  0  0  0  0  0  0  0
  186.8440  178.3280  142.6350 C   0  0  0  0  0  2  0  0  0  0  0  0
  185.6880  179.0870  143.2700 C   0  0  0  0  0  2  0  0  0  0  0  0
  184.8030  178.1570  144.0860 C   0  0  0  0  0  2  0  0  0  0  0  0
  184.2190  178.8860  145.2790 C   0  0  0  0  0  2  0  0  0  0  0  0
  185.1910  176.8540  146.2990 C   0  0  0  0  0  1  0  0  0  0  0  0
  184.7750  178.2870  146.5540 C   0  0  0  0  0  2  0  0  0  0  0  0
  1 23  1  1  0  0  0
  1  3  1  0  0  0  0
  2  5  1  0  0  0  0
  3  4  1  6  0  0  0
  5 14  1  6  0  0  0
  5  3  1  0  0  0  0
  6  2  1  0  0  0  0
  6  1  1  0  0  0  0
  7  2  1  0  0  0  0
  7 10  1  0  0  0  0
  8 10  2  0  0  0  0
  9  8  1  0  0  0  0
 11  7  2  0  0  0  0
 12 11  1  0  0  0  0
 13 11  1  0  0  0  0
 13  9  2  0  0  0  0
 14 15  1  0  0  0  0
 17 16  1  0  0  0  0
 18 15  1  6  0  0  0
 18 17  1  0  0  0  0
 18 16  1  0  0  0  0
 20 19  1  6  0  0  0
 20 21  1  0  0  0  0
 20 15  1  0  0  0  0
 21 22  1  0  0  0  0
 24 25  1  0  0  0  0
 24 23  1  0  0  0  0
 25 26  1  0  0  0  0
 26 27  1  0  0  0  0
 27 29  1  0  0  0  0
 28 29  1  0  0  0  0
M  END
>  <MODEL>
6

>  <REMARK>
 VINA RESULT:      -5.2      2.472      4.394
  Name = 
  12 active torsions:
  status: ('A' for Active; 'I' for Inactive)
    1  A    between atoms: C_1  and  C_5
    2  A    between atoms: C_1  and  C_12
    3  A    between atoms: C_2  and  O_19
    4  A    between atoms: C_4  and  N_14
    5  A    between atoms: C_5  and  C_8
    6  A    between atoms: C_8  and  C_24
    7  A    between atoms: C_12  and  O_19
    8  A    between atoms: C_16  and  N_20
    9  A    between atoms: C_16  and  C_21
   10  A    between atoms: N_20  and  C_25
   11  A    between atoms: N_20  and  C_27
   12  A    between atoms: C_23  and  C_25
                            x       y       z     vdW  Elec       q    Type
                         _______ _______ _______ _____ _____    ______ ____

>  <TORSDO>
F 12

$$$$
=
 OpenBabel11062422563D

 29 31  0  0  1  0  0  0  0  0999 V2000
  187.9280  176.1340  144.8010 C   0  0  1  0  0  3  0  0  0  0  0  0
  190.1660  175.3570  144.5410 N   0  0  0  0  0  0  0  0  0  0  0  0
  188.2410  176.0200  143.3130 C   0  0  2  0  0  3  0  0  0  0  0  0
  187.2560  175.2590  142.6740 O   0  0  0  0  0  1  0  0  0  0  0  0
  189.6400  175.4150  143.1870 C   0  0  2  0  0  3  0  0  0  0  0  0
  189.1910  175.7360  145.5460 C   0  0  0  0  0  2  0  0  0  0  0  0
  191.5750  175.2810  144.8270 C   0  0  0  0  0  0  0  0  0  0  0  0
  193.4790  174.0220  145.6320 C   0  0  0  0  0  3  0  0  0  0  0  0
  194.2830  175.0940  145.4050 N   0  0  0  0  0  0  0  0  0  0  0  0
  192.1160  174.0980  145.3500 C   0  0  0  0  0  3  0  0  0  0  0  0
  192.4310  176.3780  144.6040 C   0  0  0  0  0  0  0  0  0  0  0  0
  191.9350  177.6190  144.1140 N   0  0  0  0  0  1  0  0  0  0  0  0
  193.7900  176.2580  144.9070 C   0  0  0  0  0  3  0  0  0  0  0  0
  189.6450  174.0180  142.5610 C   0  0  0  0  0  2  0  0  0  0  0  0
  190.1740  174.0720  141.2010 N   0  0  0  0  0  0  0  0  0  0  0  0
  188.5650  174.1630  139.0020 S   0  0  0  0  0  0  0  0  0  0  0  0
  189.9390  172.9520  139.0850 C   0  0  0  0  0  2  0  0  0  0  0  0
  189.3190  173.2020  140.3910 C   0  0  1  0  0  3  0  0  0  0  0  0
  191.6800  172.6390  142.3160 O   0  0  0  0  0  1  0  0  0  0  0  0
  191.5310  173.5030  141.2250 C   0  0  2  0  0  3  0  0  0  0  0  0
  192.5780  174.6050  141.3400 C   0  0  0  0  0  2  0  0  0  0  0  0
  193.8670  174.0480  141.9150 C   0  0  0  0  0  1  0  0  0  0  0  0
  187.6140  177.4600  145.1110 O   0  0  0  0  0  0  0  0  0  0  0  0
  187.6370  177.5320  146.5080 C   0  0  0  0  0  2  0  0  0  0  0  0
  186.2190  177.6570  147.0470 C   0  0  0  0  0  2  0  0  0  0  0  0
  185.5380  178.9060  146.5100 C   0  0  0  0  0  2  0  0  0  0  0  0
  184.1670  178.5700  145.9580 C   0  0  0  0  0  2  0  0  0  0  0  0
  185.3470  179.7680  144.1460 C   0  0  0  0  0  1  0  0  0  0  0  0
  184.0820  179.0250  144.5160 C   0  0  0  0  0  2  0  0  0  0  0  0
  1 23  1  6  0  0  0
  1  6  1  0  0  0  0
  2  7  1  0  0  0  0
  2  6  1  0  0  0  0
  3  4  1  6  0  0  0
  3  1  1  0  0  0  0
  5 14  1  1  0  0  0
  5  3  1  0  0  0  0
  5  2  1  0  0  0  0
  7 10  1  0  0  0  0
  9  8  1  0  0  0  0
 10  8  2  0  0  0  0
 11  7  2  0  0  0  0
 11 13  1  0  0  0  0
 12 11  1  0  0  0  0
 13  9  2  0  0  0  0
 15 20  1  0  0  0  0
 15 14  1  0  0  0  0
 16 17  1  0  0  0  0
 16 18  1  0  0  0  0
 17 18  1  0  0  0  0
 18 15  1  1  0  0  0
 20 21  1  0  0  0  0
 20 19  1  1  0  0  0
 21 22  1  0  0  0  0
 23 24  1  0  0  0  0
 24 25  1  0  0  0  0
 26 25  1  0  0  0  0
 27 26  1  0  0  0  0
 28 29  1  0  0  0  0
 29 27  1  0  0  0  0
M  END
>  <MODEL>
7

>  <REMARK>
 VINA RESULT:      -4.9      1.740      2.533
  Name = 
  12 active torsions:
  status: ('A' for Active; 'I' for Inactive)
    1  A    between atoms: C_1  and  C_5
    2  A    between atoms: C_1  and  C_12
    3  A    between atoms: C_2  and  O_19
    4  A    between atoms: C_4  and  N_14
    5  A    between atoms: C_5  and  C_8
    6  A    between atoms: C_8  and  C_24
    7  A    between atoms: C_12  and  O_19
    8  A    between atoms: C_16  and  N_20
    9  A    between atoms: C_16  and  C_21
   10  A    between atoms: N_20  and  C_25
   11  A    between atoms: N_20  and  C_27
   12  A    between atoms: C_23  and  C_25
                            x       y       z     vdW  Elec       q    Type
                         _______ _______ _______ _____ _____    ______ ____

>  <TORSDO>
F 12

$$$$
=
 OpenBabel11062422563D

 29 31  0  0  1  0  0  0  0  0999 V2000
  191.8030  176.2200  145.6620 C   0  0  1  0  0  3  0  0  0  0  0  0
  190.1330  175.1510  144.3410 N   0  0  0  0  0  0  0  0  0  0  0  0
  190.5980  177.1460  145.5480 C   0  0  2  0  0  3  0  0  0  0  0  0
  190.1920  177.5610  146.8200 O   0  0  0  0  0  1  0  0  0  0  0  0
  189.5090  176.3840  144.7920 C   0  0  2  0  0  3  0  0  0  0  0  0
  191.4800  174.9770  144.8500 C   0  0  0  0  0  2  0  0  0  0  0  0
  189.6210  174.3740  143.2420 C   0  0  0  0  0  0  0  0  0  0  0  0
  188.8760  174.2460  140.9420 C   0  0  0  0  0  3  0  0  0  0  0  0
  188.6220  172.9200  141.1000 N   0  0  0  0  0  0  0  0  0  0  0  0
  189.3750  174.9930  142.0080 C   0  0  0  0  0  3  0  0  0  0  0  0
  189.3460  172.9990  143.3780 C   0  0  0  0  0  0  0  0  0  0  0  0
  189.5360  172.3230  144.6160 N   0  0  0  0  0  1  0  0  0  0  0  0
  188.8410  172.2900  142.2840 C   0  0  0  0  0  3  0  0  0  0  0  0
  188.2800  176.0680  145.6480 C   0  0  0  0  0  2  0  0  0  0  0  0
  187.0850  176.6720  145.0640 N   0  0  0  0  0  0  0  0  0  0  0  0
  186.4730  177.2620  142.4730 S   0  0  0  0  0  0  0  0  0  0  0  0
  186.5950  178.6040  143.7170 C   0  0  0  0  0  2  0  0  0  0  0  0
  187.5470  177.5130  143.9580 C   0  0  1  0  0  3  0  0  0  0  0  0
  187.2210  177.4970  147.2700 O   0  0  0  0  0  1  0  0  0  0  0  0
  186.4740  177.5360  146.0860 C   0  0  2  0  0  3  0  0  0  0  0  0
  185.0530  177.0820  146.4000 C   0  0  0  0  0  2  0  0  0  0  0  0
  184.1280  178.2810  146.5010 C   0  0  0  0  0  1  0  0  0  0  0  0
  192.9250  176.8450  145.1110 O   0  0  0  0  0  0  0  0  0  0  0  0
  193.9160  176.7710  146.0960 C   0  0  0  0  0  2  0  0  0  0  0  0
  194.9380  175.7040  145.7290 C   0  0  0  0  0  2  0  0  0  0  0  0
  195.2170  175.7050  144.2330 C   0  0  0  0  0  2  0  0  0  0  0  0
  196.2270  176.7770  143.8800 C   0  0  0  0  0  2  0  0  0  0  0  0
  195.9220  176.5620  141.4360 C   0  0  0  0  0  1  0  0  0  0  0  0
  196.9070  176.4160  142.5760 C   0  0  0  0  0  2  0  0  0  0  0  0
  1 23  1  6  0  0  0
  2  5  1  0  0  0  0
  2  6  1  0  0  0  0
  3  1  1  0  0  0  0
  3  4  1  1  0  0  0
  5  3  1  0  0  0  0
  5 14  1  1  0  0  0
  6  1  1  0  0  0  0
  7 11  1  0  0  0  0
  7  2  1  0  0  0  0
  8  9  2  0  0  0  0
  8 10  1  0  0  0  0
  9 13  1  0  0  0  0
 10  7  2  0  0  0  0
 11 12  1  0  0  0  0
 13 11  2  0  0  0  0
 15 14  1  0  0  0  0
 15 20  1  0  0  0  0
 16 17  1  0  0  0  0
 16 18  1  0  0  0  0
 17 18  1  0  0  0  0
 18 15  1  1  0  0  0
 20 21  1  0  0  0  0
 20 19  1  1  0  0  0
 21 22  1  0  0  0  0
 23 24  1  0  0  0  0
 25 24  1  0  0  0  0
 26 25  1  0  0  0  0
 27 26  1  0  0  0  0
 28 29  1  0  0  0  0
 29 27  1  0  0  0  0
M  END
>  <MODEL>
8

>  <REMARK>
 VINA RESULT:      -4.9      2.725      7.273
  Name = 
  12 active torsions:
  status: ('A' for Active; 'I' for Inactive)
    1  A    between atoms: C_1  and  C_5
    2  A    between atoms: C_1  and  C_12
    3  A    between atoms: C_2  and  O_19
    4  A    between atoms: C_4  and  N_14
    5  A    between atoms: C_5  and  C_8
    6  A    between atoms: C_8  and  C_24
    7  A    between atoms: C_12  and  O_19
    8  A    between atoms: C_16  and  N_20
    9  A    between atoms: C_16  and  C_21
   10  A    between atoms: N_20  and  C_25
   11  A    between atoms: N_20  and  C_27
   12  A    between atoms: C_23  and  C_25
                            x       y       z     vdW  Elec       q    Type
                         _______ _______ _______ _____ _____    ______ ____

>  <TORSDO>
F 12

$$$$
=
 OpenBabel11062422563D

 29 31  0  0  1  0  0  0  0  0999 V2000
  187.5670  176.4040  142.7720 C   0  0  1  0  0  3  0  0  0  0  0  0
  189.4910  175.7050  143.9930 N   0  0  0  0  0  0  0  0  0  0  0  0
  188.5080  175.6650  141.8270 C   0  0  2  0  0  3  0  0  0  0  0  0
  187.8150  174.6540  141.1550 O   0  0  0  0  0  1  0  0  0  0  0  0
  189.6730  175.1370  142.6670 C   0  0  2  0  0  3  0  0  0  0  0  0
  188.2460  176.4370  144.1310 C   0  0  0  0  0  2  0  0  0  0  0  0
  190.5670  175.8330  144.9400 C   0  0  0  0  0  0  0  0  0  0  0  0
  192.7390  176.7270  145.5270 C   0  0  0  0  0  3  0  0  0  0  0  0
  192.6710  176.0990  146.7300 N   0  0  0  0  0  0  0  0  0  0  0  0
  191.6920  176.6030  144.6140 C   0  0  0  0  0  3  0  0  0  0  0  0
  190.5250  175.1900  146.1930 C   0  0  0  0  0  0  0  0  0  0  0  0
  189.4290  174.3610  146.5650 N   0  0  0  0  0  1  0  0  0  0  0  0
  191.5990  175.3380  147.0740 C   0  0  0  0  0  3  0  0  0  0  0  0
  189.7190  173.6100  142.7510 C   0  0  0  0  0  2  0  0  0  0  0  0
  191.0180  173.1150  142.3010 N   0  0  0  0  0  0  0  0  0  0  0  0
  193.3320  174.5260  142.0040 S   0  0  0  0  0  0  0  0  0  0  0  0
  192.6210  173.6180  140.5790 C   0  0  0  0  0  2  0  0  0  0  0  0
  191.5960  174.1730  141.4700 C   0  0  1  0  0  3  0  0  0  0  0  0
  189.6670  172.1410  140.6290 O   0  0  0  0  0  1  0  0  0  0  0  0
  190.7780  171.9350  141.4550 C   0  0  2  0  0  3  0  0  0  0  0  0
  190.5190  170.7000  142.3100 C   0  0  0  0  0  2  0  0  0  0  0  0
  191.0980  169.4670  141.6420 C   0  0  0  0  0  1  0  0  0  0  0  0
  187.3860  177.7140  142.3210 O   0  0  0  0  0  0  0  0  0  0  0  0
  186.0760  177.7640  141.8320 C   0  0  0  0  0  2  0  0  0  0  0  0
  185.1210  178.1780  142.9410 C   0  0  0  0  0  2  0  0  0  0  0  0
  185.5590  179.4860  143.5820 C   0  0  0  0  0  2  0  0  0  0  0  0
  185.7920  179.3000  145.0680 C   0  0  0  0  0  2  0  0  0  0  0  0
  184.0590  178.2900  146.5130 C   0  0  0  0  0  1  0  0  0  0  0  0
  185.1600  177.9990  145.5160 C   0  0  0  0  0  2  0  0  0  0  0  0
  1 23  1  6  0  0  0
  1  6  1  0  0  0  0
  2  6  1  0  0  0  0
  2  7  1  0  0  0  0
  3  4  1  1  0  0  0
  3  5  1  0  0  0  0
  3  1  1  0  0  0  0
  5 14  1  1  0  0  0
  5  2  1  0  0  0  0
  7 11  1  0  0  0  0
  8  9  2  0  0  0  0
  9 13  1  0  0  0  0
 10  7  2  0  0  0  0
 10  8  1  0  0  0  0
 11 12  1  0  0  0  0
 11 13  2  0  0  0  0
 15 14  1  0  0  0  0
 17 18  1  0  0  0  0
 17 16  1  0  0  0  0
 18 16  1  0  0  0  0
 18 15  1  1  0  0  0
 20 19  1  6  0  0  0
 20 15  1  0  0  0  0
 20 21  1  0  0  0  0
 22 21  1  0  0  0  0
 24 23  1  0  0  0  0
 24 25  1  0  0  0  0
 25 26  1  0  0  0  0
 26 27  1  0  0  0  0
 27 29  1  0  0  0  0
 29 28  1  0  0  0  0
M  END
>  <MODEL>
9

>  <REMARK>
 VINA RESULT:      -4.7      1.662      2.075
  Name = 
  12 active torsions:
  status: ('A' for Active; 'I' for Inactive)
    1  A    between atoms: C_1  and  C_5
    2  A    between atoms: C_1  and  C_12
    3  A    between atoms: C_2  and  O_19
    4  A    between atoms: C_4  and  N_14
    5  A    between atoms: C_5  and  C_8
    6  A    between atoms: C_8  and  C_24
    7  A    between atoms: C_12  and  O_19
    8  A    between atoms: C_16  and  N_20
    9  A    between atoms: C_16  and  C_21
   10  A    between atoms: N_20  and  C_25
   11  A    between atoms: N_20  and  C_27
   12  A    between atoms: C_23  and  C_25
                            x       y       z     vdW  Elec       q    Type
                         _______ _______ _______ _____ _____    ______ ____

>  <TORSDO>
F 12

$$$$
