=
 OpenBabel11062419573D

 28 31  0  0  1  0  0  0  0  0999 V2000
  186.0600  177.9550  141.5480 C   0  0  0  0  0  0  0  0  0  0  0  0
  184.5020  178.4580  143.3680 C   0  0  0  0  0  3  0  0  0  0  0  0
  185.7970  178.2160  142.9340 C   0  0  1  0  0  3  0  0  0  0  0  0
  186.9940  178.1560  143.6010 C   0  0  0  0  0  0  0  0  0  0  0  0
  187.9670  177.8570  142.6520 C   0  0  0  0  0  0  0  0  0  0  0  0
  183.7310  178.1970  141.1070 C   0  0  0  0  0  3  0  0  0  0  0  0
  183.5020  178.4430  142.4380 N   0  0  0  0  0  0  0  0  0  0  0  0
  187.4110  177.7290  141.3740 C   0  0  0  0  0  3  0  0  0  0  0  0
  185.0270  177.9430  140.6210 C   0  0  0  0  0  3  0  0  0  0  0  0
  189.3510  177.6790  142.9630 N   0  0  0  0  0  2  0  0  0  0  0  0
  192.0400  177.3730  143.7640 N   0  0  0  0  0  2  0  0  0  0  0  0
  190.8610  174.0280  144.2580 N   0  0  0  0  0  2  0  0  0  0  0  0
  189.0960  175.2680  143.1140 C   0  0  0  0  0  2  0  0  0  0  0  0
  191.2900  176.3410  143.6310 C   0  0  0  0  0  0  0  0  0  0  0  0
  189.8560  173.9470  143.2000 C   0  0  0  0  0  2  0  0  0  0  0  0
  191.8910  174.9840  143.8580 C   0  0  0  0  0  2  0  0  0  0  0  0
  190.0480  176.4140  142.7730 C   0  0  2  0  0  3  0  0  0  0  0  0
  187.2030  178.3090  145.0720 C   0  0  0  0  0  2  0  0  0  0  0  0
  187.0380  176.9680  145.7830 C   0  0  1  0  0  3  0  0  0  0  0  0
  189.7050  174.8140  147.4430 C   0  0  0  0  0  3  0  0  0  0  0  0
  188.4990  175.2000  146.8530 C   0  0  0  0  0  3  0  0  0  0  0  0
  190.7350  175.7450  147.6050 C   0  0  0  0  0  3  0  0  0  0  0  0
  190.5590  177.0630  147.1750 C   0  0  0  0  0  3  0  0  0  0  0  0
  189.3530  177.4520  146.5840 C   0  0  0  0  0  3  0  0  0  0  0  0
  188.3180  176.5240  146.4210 C   0  0  0  0  0  0  0  0  0  0  0  0
  186.0910  177.5410  148.0190 O   0  0  0  0  0  1  0  0  0  0  0  0
  184.7800  176.5000  146.4550 O   0  0  0  0  0  0  0  0  0  0  0  0
  185.9040  176.9820  146.7630 C   0  0  0  0  0  0  0  0  0  0  0  0
  1  3  1  0  0  0  0
  3  2  1  1  0  0  0
  3  4  1  0  0  0  0
  4 18  1  0  0  0  0
  5 10  1  0  0  0  0
  5  4  2  0  0  0  0
  6  7  1  0  0  0  0
  7  2  2  0  0  0  0
  8  1  2  0  0  0  0
  8  5  1  0  0  0  0
  9  6  2  0  0  0  0
  9  1  1  0  0  0  0
 13 15  1  0  0  0  0
 14 11  2  0  0  0  0
 14 16  1  0  0  0  0
 15 12  1  0  0  0  0
 16 12  1  0  0  0  0
 17 10  1  1  0  0  0
 17 13  1  0  0  0  0
 17 14  1  0  0  0  0
 19 18  1  1  0  0  0
 19 25  1  0  0  0  0
 19 28  1  0  0  0  0
 20 22  1  0  0  0  0
 21 20  2  0  0  0  0
 23 22  2  0  0  0  0
 24 23  1  0  0  0  0
 25 24  2  0  0  0  0
 25 21  1  0  0  0  0
 27 28  2  0  0  0  0
 28 26  1  0  0  0  0
M  END
>  <MODEL>
1

>  <REMARK>
 VINA RESULT:      -7.6      0.000      0.000
  Name = 
  6 active torsions:
  status: ('A' for Active; 'I' for Inactive)
    1  A    between atoms: C_7  and  C_24
    2  A    between atoms: C_10  and  C_11
    3  A    between atoms: C_10  and  C_24
    4  A    between atoms: C_10  and  C_28
    5  A    between atoms: C_12  and  N_23
    6  A    between atoms: N_23  and  C_27
                            x       y       z     vdW  Elec       q    Type
                         _______ _______ _______ _____ _____    ______ ____

>  <TORSDO>
F 6

$$$$
=
 OpenBabel11062419573D

 28 31  0  0  1  0  0  0  0  0999 V2000
  185.7130  177.6240  142.8550 C   0  0  0  0  0  0  0  0  0  0  0  0
  186.1590  178.9830  144.8430 C   0  0  0  0  0  3  0  0  0  0  0  0
  186.6130  178.1150  143.8590 C   0  0  0  0  0  0  0  0  0  0  0  0
  187.8450  177.5660  143.6160 C   0  0  0  0  0  0  0  0  0  0  0  0
  187.7060  176.7490  142.4980 C   0  0  0  0  0  0  0  0  0  0  0  0
  183.9650  178.8910  143.8650 C   0  0  0  0  0  3  0  0  0  0  0  0
  184.8430  179.3470  144.8170 N   0  0  0  0  0  2  0  0  0  0  0  0
  186.3940  176.7710  142.0100 C   0  0  0  0  0  3  0  0  0  0  0  0
  184.3790  178.0080  142.8510 C   0  0  0  0  0  3  0  0  0  0  0  0
  188.7710  175.9720  141.9450 N   0  0  0  0  0  2  0  0  0  0  0  0
  188.3150  174.5390  139.5560 N   0  0  0  0  0  2  0  0  0  0  0  0
  190.4770  172.2440  141.2530 N   0  0  0  0  0  2  0  0  0  0  0  0
  189.8930  174.0100  142.8340 C   0  0  0  0  0  2  0  0  0  0  0  0
  188.9250  173.9760  140.5340 C   0  0  0  0  0  0  0  0  0  0  0  0
  190.1020  172.5100  142.6400 C   0  0  0  0  0  2  0  0  0  0  0  0
  189.3340  172.5390  140.3910 C   0  0  0  0  0  2  0  0  0  0  0  0
  188.7640  174.5150  141.9370 C   0  0  2  0  0  3  0  0  0  0  0  0
  189.0800  177.7480  144.4370 C   0  0  0  0  0  2  0  0  0  0  0  0
  189.2540  176.5900  145.4160 C   0  0  1  0  0  3  0  0  0  0  0  0
  192.4620  175.1110  146.8420 C   0  0  0  0  0  3  0  0  0  0  0  0
  191.1050  175.3840  146.6500 C   0  0  0  0  0  3  0  0  0  0  0  0
  193.4210  175.7300  146.0350 C   0  0  0  0  0  3  0  0  0  0  0  0
  193.0220  176.6210  145.0350 C   0  0  0  0  0  3  0  0  0  0  0  0
  191.6650  176.8960  144.8410 C   0  0  0  0  0  3  0  0  0  0  0  0
  190.7010  176.2790  145.6470 C   0  0  0  0  0  0  0  0  0  0  0  0
  188.8510  177.9180  147.4900 O   0  0  0  0  0  1  0  0  0  0  0  0
  187.6070  176.0400  147.0740 O   0  0  0  0  0  0  0  0  0  0  0  0
  188.5230  176.8230  146.7030 C   0  0  0  0  0  0  0  0  0  0  0  0
  1  3  1  0  0  0  0
  3  2  2  0  0  0  0
  4  3  1  0  0  0  0
  4 18  1  0  0  0  0
  5  4  2  0  0  0  0
  6  7  1  0  0  0  0
  7  2  1  0  0  0  0
  8  5  1  0  0  0  0
  8  1  2  0  0  0  0
  9  1  1  0  0  0  0
  9  6  2  0  0  0  0
 10  5  1  0  0  0  0
 11 14  2  0  0  0  0
 12 15  1  0  0  0  0
 14 17  1  0  0  0  0
 15 13  1  0  0  0  0
 16 14  1  0  0  0  0
 16 12  1  0  0  0  0
 17 10  1  6  0  0  0
 17 13  1  0  0  0  0
 19 18  1  6  0  0  0
 19 25  1  0  0  0  0
 19 28  1  0  0  0  0
 21 20  1  0  0  0  0
 22 20  2  0  0  0  0
 23 22  1  0  0  0  0
 24 23  2  0  0  0  0
 24 25  1  0  0  0  0
 25 21  2  0  0  0  0
 28 27  2  0  0  0  0
 28 26  1  0  0  0  0
M  END
>  <MODEL>
2

>  <REMARK>
 VINA RESULT:      -6.7      2.072      2.872
  Name = 
  6 active torsions:
  status: ('A' for Active; 'I' for Inactive)
    1  A    between atoms: C_7  and  C_24
    2  A    between atoms: C_10  and  C_11
    3  A    between atoms: C_10  and  C_24
    4  A    between atoms: C_10  and  C_28
    5  A    between atoms: C_12  and  N_23
    6  A    between atoms: N_23  and  C_27
                            x       y       z     vdW  Elec       q    Type
                         _______ _______ _______ _____ _____    ______ ____

>  <TORSDO>
F 6

$$$$
=
 OpenBabel11062419573D

 28 31  0  0  1  0  0  0  0  0999 V2000
  191.3360  175.8410  145.8750 C   0  0  0  0  0  0  0  0  0  0  0  0
  189.9480  177.5510  146.9450 C   0  0  0  0  0  3  0  0  0  0  0  0
  190.3210  176.8530  145.8060 C   0  0  0  0  0  0  0  0  0  0  0  0
  189.9010  176.9290  144.5030 C   0  0  0  0  0  0  0  0  0  0  0  0
  190.6440  175.9960  143.7870 C   0  0  0  0  0  0  0  0  0  0  0  0
  191.5440  176.2730  148.2090 C   0  0  0  0  0  3  0  0  0  0  0  0
  190.5720  177.2390  148.1190 N   0  0  0  0  0  2  0  0  0  0  0  0
  191.5380  175.3100  144.6170 C   0  0  0  0  0  3  0  0  0  0  0  0
  191.9570  175.5430  147.0800 C   0  0  0  0  0  3  0  0  0  0  0  0
  190.5190  175.7930  142.3760 N   0  0  0  0  0  2  0  0  0  0  0  0
  192.1570  173.9920  140.9500 N   0  0  0  0  0  2  0  0  0  0  0  0
  189.7690  171.7040  142.3240 N   0  0  0  0  0  2  0  0  0  0  0  0
  188.9750  173.9650  142.7910 C   0  0  0  0  0  2  0  0  0  0  0  0
  191.0550  173.5850  141.4660 C   0  0  0  0  0  0  0  0  0  0  0  0
  188.5820  172.5550  142.3560 C   0  0  0  0  0  2  0  0  0  0  0  0
  190.6460  172.1570  141.2460 C   0  0  0  0  0  2  0  0  0  0  0  0
  189.9640  174.5760  141.8000 C   0  0  2  0  0  3  0  0  0  0  0  0
  188.8940  177.8820  143.9450 C   0  0  0  0  0  2  0  0  0  0  0  0
  187.5740  177.1690  143.6640 C   0  0  1  0  0  3  0  0  0  0  0  0
  184.9620  177.1380  146.4370 C   0  0  0  0  0  3  0  0  0  0  0  0
  185.9590  176.7080  145.5570 C   0  0  0  0  0  3  0  0  0  0  0  0
  184.5060  178.4580  146.3860 C   0  0  0  0  0  3  0  0  0  0  0  0
  185.0460  179.3490  145.4540 C   0  0  0  0  0  3  0  0  0  0  0  0
  186.0440  178.9200  144.5730 C   0  0  0  0  0  3  0  0  0  0  0  0
  186.5040  177.6000  144.6190 C   0  0  0  0  0  0  0  0  0  0  0  0
  187.9640  177.9850  141.3390 O   0  0  0  0  0  0  0  0  0  0  0  0
  186.0410  176.8480  141.8440 O   0  0  0  0  0  1  0  0  0  0  0  0
  187.1410  177.3220  142.2370 C   0  0  0  0  0  0  0  0  0  0  0  0
  1  9  1  0  0  0  0
  2  7  1  0  0  0  0
  3  1  1  0  0  0  0
  3  2  2  0  0  0  0
  4  3  1  0  0  0  0
  5  4  2  0  0  0  0
  5  8  1  0  0  0  0
  7  6  1  0  0  0  0
  8  1  2  0  0  0  0
  9  6  2  0  0  0  0
 10  5  1  0  0  0  0
 11 14  2  0  0  0  0
 12 15  1  0  0  0  0
 14 17  1  0  0  0  0
 15 13  1  0  0  0  0
 16 14  1  0  0  0  0
 16 12  1  0  0  0  0
 17 10  1  1  0  0  0
 17 13  1  0  0  0  0
 18  4  1  0  0  0  0
 19 18  1  6  0  0  0
 19 25  1  0  0  0  0
 21 20  2  0  0  0  0
 22 20  1  0  0  0  0
 23 22  2  0  0  0  0
 24 25  2  0  0  0  0
 24 23  1  0  0  0  0
 25 21  1  0  0  0  0
 26 28  2  0  0  0  0
 27 28  1  0  0  0  0
 28 19  1  0  0  0  0
M  END
>  <MODEL>
3

>  <REMARK>
 VINA RESULT:      -6.6      2.665      5.353
  Name = 
  6 active torsions:
  status: ('A' for Active; 'I' for Inactive)
    1  A    between atoms: C_7  and  C_24
    2  A    between atoms: C_10  and  C_11
    3  A    between atoms: C_10  and  C_24
    4  A    between atoms: C_10  and  C_28
    5  A    between atoms: C_12  and  N_23
    6  A    between atoms: N_23  and  C_27
                            x       y       z     vdW  Elec       q    Type
                         _______ _______ _______ _____ _____    ______ ____

>  <TORSDO>
F 6

$$$$
=
 OpenBabel11062419573D

 28 31  0  0  1  0  0  0  0  0999 V2000
  189.1930  173.7860  142.3100 C   0  0  0  0  0  0  0  0  0  0  0  0
  188.1300  174.9190  140.4170 C   0  0  0  0  0  3  0  0  0  0  0  0
  188.5400  174.9310  141.7430 C   0  0  0  0  0  0  0  0  0  0  0  0
  188.4410  175.8810  142.7260 C   0  0  0  0  0  0  0  0  0  0  0  0
  189.0100  175.3330  143.8720 C   0  0  0  0  0  0  0  0  0  0  0  0
  188.9980  172.6870  140.2050 C   0  0  0  0  0  3  0  0  0  0  0  0
  188.3730  173.7920  139.6840 N   0  0  0  0  0  0  0  0  0  0  0  0
  189.4830  174.0370  143.6370 C   0  0  0  0  0  2  0  0  0  0  0  0
  189.4270  172.6530  141.5440 C   0  0  0  0  0  3  0  0  0  0  0  0
  189.0730  176.0100  145.1300 N   0  0  0  0  0  2  0  0  0  0  0  0
  189.9550  174.9220  147.5800 N   0  0  0  0  0  2  0  0  0  0  0  0
  193.1110  175.5980  146.0290 N   0  0  0  0  0  2  0  0  0  0  0  0
  191.3760  176.5980  144.6320 C   0  0  0  0  0  2  0  0  0  0  0  0
  190.7980  175.4610  146.7780 C   0  0  0  0  0  0  0  0  0  0  0  0
  192.7650  176.7780  145.2390 C   0  0  0  0  0  2  0  0  0  0  0  0
  192.2370  175.5420  147.1990 C   0  0  0  0  0  2  0  0  0  0  0  0
  190.3260  176.4450  145.7310 C   0  0  2  0  0  3  0  0  0  0  0  0
  187.7840  177.2180  142.6110 C   0  0  0  0  0  2  0  0  0  0  0  0
  186.2840  177.1060  142.8720 C   0  0  1  0  0  3  0  0  0  0  0  0
  185.6070  179.4070  145.8320 C   0  0  0  0  0  3  0  0  0  0  0  0
  185.9480  178.9720  144.5480 C   0  0  0  0  0  3  0  0  0  0  0  0
  185.2430  178.4790  146.8110 C   0  0  0  0  0  3  0  0  0  0  0  0
  185.2180  177.1150  146.5070 C   0  0  0  0  0  3  0  0  0  0  0  0
  185.5590  176.6770  145.2230 C   0  0  0  0  0  3  0  0  0  0  0  0
  185.9260  177.6020  144.2390 C   0  0  0  0  0  0  0  0  0  0  0  0
  184.0970  177.8860  141.9570 O   0  0  0  0  0  1  0  0  0  0  0  0
  186.0270  178.2540  140.7790 O   0  0  0  0  0  0  0  0  0  0  0  0
  185.4730  177.7780  141.8060 C   0  0  0  0  0  0  0  0  0  0  0  0
  1  8  1  0  0  0  0
  2  3  1  0  0  0  0
  3  1  2  0  0  0  0
  3  4  1  0  0  0  0
  4  5  2  0  0  0  0
  5 10  1  0  0  0  0
  6  9  2  0  0  0  0
  7  6  1  0  0  0  0
  7  2  2  0  0  0  0
  8  5  1  0  0  0  0
  9  1  1  0  0  0  0
 12 16  1  0  0  0  0
 13 15  1  0  0  0  0
 13 17  1  0  0  0  0
 14 16  1  0  0  0  0
 14 11  2  0  0  0  0
 15 12  1  0  0  0  0
 17 10  1  6  0  0  0
 17 14  1  0  0  0  0
 18  4  1  0  0  0  0
 19 18  1  6  0  0  0
 19 25  1  0  0  0  0
 20 22  1  0  0  0  0
 21 20  2  0  0  0  0
 23 22  2  0  0  0  0
 24 23  1  0  0  0  0
 25 21  1  0  0  0  0
 25 24  2  0  0  0  0
 27 28  2  0  0  0  0
 28 26  1  0  0  0  0
 28 19  1  0  0  0  0
M  END
>  <MODEL>
4

>  <REMARK>
 VINA RESULT:      -6.6      2.530      4.886
  Name = 
  6 active torsions:
  status: ('A' for Active; 'I' for Inactive)
    1  A    between atoms: C_7  and  C_24
    2  A    between atoms: C_10  and  C_11
    3  A    between atoms: C_10  and  C_24
    4  A    between atoms: C_10  and  C_28
    5  A    between atoms: C_12  and  N_23
    6  A    between atoms: N_23  and  C_27
                            x       y       z     vdW  Elec       q    Type
                         _______ _______ _______ _____ _____    ______ ____

>  <TORSDO>
F 6

$$$$
=
 OpenBabel11062419573D

 28 31  0  0  1  0  0  0  0  0999 V2000
  186.4590  177.0470  145.2420 C   0  0  0  0  0  0  0  0  0  0  0  0
  187.5300  177.9160  147.2650 C   0  0  0  0  0  3  0  0  0  0  0  0
  187.6380  177.3570  146.0000 C   0  0  0  0  0  0  0  0  0  0  0  0
  188.7230  176.9920  145.2460 C   0  0  0  0  0  0  0  0  0  0  0  0
  188.2270  176.4620  144.0590 C   0  0  0  0  0  0  0  0  0  0  0  0
  185.1370  177.8730  147.0440 C   0  0  0  0  0  3  0  0  0  0  0  0
  186.2780  178.1600  147.7520 N   0  0  0  0  0  2  0  0  0  0  0  0
  186.8280  176.4870  144.0350 C   0  0  0  0  0  3  0  0  0  0  0  0
  185.1970  177.3020  145.7600 C   0  0  0  0  0  3  0  0  0  0  0  0
  189.0530  175.9380  143.0160 N   0  0  0  0  0  2  0  0  0  0  0  0
  187.8160  175.6650  140.4940 N   0  0  0  0  0  2  0  0  0  0  0  0
  189.9940  172.8230  140.4290 N   0  0  0  0  0  2  0  0  0  0  0  0
  190.0790  173.7620  142.6800 C   0  0  0  0  0  2  0  0  0  0  0  0
  188.5680  174.7270  140.9440 C   0  0  0  0  0  0  0  0  0  0  0  0
  190.0210  172.4830  141.8500 C   0  0  0  0  0  2  0  0  0  0  0  0
  188.7240  173.4790  140.1250 C   0  0  0  0  0  2  0  0  0  0  0  0
  188.8420  174.6230  142.4270 C   0  0  2  0  0  3  0  0  0  0  0  0
  190.1590  177.0780  145.6510 C   0  0  0  0  0  2  0  0  0  0  0  0
  190.7010  175.6980  146.0140 C   0  0  1  0  0  3  0  0  0  0  0  0
  194.2190  174.3180  145.5310 C   0  0  0  0  0  3  0  0  0  0  0  0
  192.8400  174.3710  145.7530 C   0  0  0  0  0  3  0  0  0  0  0  0
  194.9410  175.4990  145.3360 C   0  0  0  0  0  3  0  0  0  0  0  0
  194.2850  176.7330  145.3610 C   0  0  0  0  0  3  0  0  0  0  0  0
  192.9050  176.7880  145.5830 C   0  0  0  0  0  3  0  0  0  0  0  0
  192.1770  175.6090  145.7810 C   0  0  0  0  0  0  0  0  0  0  0  0
  189.1890  174.5410  147.6270 O   0  0  0  0  0  0  0  0  0  0  0  0
  191.0570  175.6270  148.3880 O   0  0  0  0  0  1  0  0  0  0  0  0
  190.3330  175.2950  147.4100 C   0  0  0  0  0  0  0  0  0  0  0  0
  1  9  1  0  0  0  0
  1  3  1  0  0  0  0
  2  7  1  0  0  0  0
  3  2  2  0  0  0  0
  4 18  1  0  0  0  0
  4  3  1  0  0  0  0
  5  4  2  0  0  0  0
  6  7  1  0  0  0  0
  8  5  1  0  0  0  0
  8  1  2  0  0  0  0
  9  6  2  0  0  0  0
 10  5  1  0  0  0  0
 11 14  2  0  0  0  0
 12 15  1  0  0  0  0
 14 17  1  0  0  0  0
 15 13  1  0  0  0  0
 16 12  1  0  0  0  0
 16 14  1  0  0  0  0
 17 13  1  0  0  0  0
 17 10  1  6  0  0  0
 19 18  1  1  0  0  0
 19 28  1  0  0  0  0
 20 21  1  0  0  0  0
 21 25  2  0  0  0  0
 22 23  1  0  0  0  0
 22 20  2  0  0  0  0
 23 24  2  0  0  0  0
 24 25  1  0  0  0  0
 25 19  1  0  0  0  0
 28 26  2  0  0  0  0
 28 27  1  0  0  0  0
M  END
>  <MODEL>
5

>  <REMARK>
 VINA RESULT:      -6.5      2.691      4.254
  Name = 
  6 active torsions:
  status: ('A' for Active; 'I' for Inactive)
    1  A    between atoms: C_7  and  C_24
    2  A    between atoms: C_10  and  C_11
    3  A    between atoms: C_10  and  C_24
    4  A    between atoms: C_10  and  C_28
    5  A    between atoms: C_12  and  N_23
    6  A    between atoms: N_23  and  C_27
                            x       y       z     vdW  Elec       q    Type
                         _______ _______ _______ _____ _____    ______ ____

>  <TORSDO>
F 6

$$$$
=
 OpenBabel11062419573D

 28 31  0  0  1  0  0  0  0  0999 V2000
  188.8520  175.2680  142.0710 C   0  0  0  0  0  0  0  0  0  0  0  0
  191.2630  175.0030  142.4030 C   0  0  0  0  0  3  0  0  0  0  0  0
  190.0600  175.5870  142.7750 C   0  0  1  0  0  3  0  0  0  0  0  0
  189.7430  176.4950  143.7520 C   0  0  0  0  0  0  0  0  0  0  0  0
  188.3770  176.7360  143.6470 C   0  0  0  0  0  0  0  0  0  0  0  0
  190.1060  173.8010  140.6730 C   0  0  0  0  0  3  0  0  0  0  0  0
  191.2500  174.1230  141.3590 N   0  0  0  0  0  0  0  0  0  0  0  0
  187.8050  175.9860  142.6140 C   0  0  0  0  0  3  0  0  0  0  0  0
  188.8650  174.3710  141.0120 C   0  0  0  0  0  3  0  0  0  0  0  0
  187.6660  177.6550  144.4800 N   0  0  0  0  0  2  0  0  0  0  0  0
  186.5290  176.5950  146.8350 N   0  0  0  0  0  2  0  0  0  0  0  0
  184.0510  179.0400  145.9960 N   0  0  0  0  0  2  0  0  0  0  0  0
  185.6140  178.9060  144.1260 C   0  0  0  0  0  2  0  0  0  0  0  0
  185.8540  177.4080  146.1080 C   0  0  0  0  0  0  0  0  0  0  0  0
  184.1490  179.0200  144.5380 C   0  0  0  0  0  2  0  0  0  0  0  0
  184.4450  177.7310  146.5130 C   0  0  0  0  0  2  0  0  0  0  0  0
  186.2210  177.6070  144.6550 C   0  0  2  0  0  3  0  0  0  0  0  0
  190.6930  177.1540  144.6980 C   0  0  0  0  0  2  0  0  0  0  0  0
  191.0440  176.2180  145.8520 C   0  0  1  0  0  3  0  0  0  0  0  0
  194.8490  176.3720  145.7690 C   0  0  0  0  0  3  0  0  0  0  0  0
  193.5110  176.7760  145.8020 C   0  0  0  0  0  3  0  0  0  0  0  0
  195.1690  175.0120  145.7490 C   0  0  0  0  0  3  0  0  0  0  0  0
  194.1510  174.0540  145.7630 C   0  0  0  0  0  3  0  0  0  0  0  0
  192.8120  174.4560  145.7960 C   0  0  0  0  0  3  0  0  0  0  0  0
  192.4860  175.8170  145.8150 C   0  0  0  0  0  0  0  0  0  0  0  0
  189.7040  177.7950  147.2470 O   0  0  0  0  0  0  0  0  0  0  0  0
  191.1910  176.3660  148.2440 O   0  0  0  0  0  1  0  0  0  0  0  0
  190.6600  176.7910  147.1830 C   0  0  0  0  0  0  0  0  0  0  0  0
  1  8  2  0  0  0  0
  1  3  1  0  0  0  0
  3  2  1  6  0  0  0
  3  4  1  0  0  0  0
  4 18  1  0  0  0  0
  5  4  2  0  0  0  0
  5 10  1  0  0  0  0
  6  9  2  0  0  0  0
  6  7  1  0  0  0  0
  7  2  2  0  0  0  0
  8  5  1  0  0  0  0
  9  1  1  0  0  0  0
 12 16  1  0  0  0  0
 13 15  1  0  0  0  0
 13 17  1  0  0  0  0
 14 16  1  0  0  0  0
 14 11  2  0  0  0  0
 15 12  1  0  0  0  0
 17 10  1  1  0  0  0
 17 14  1  0  0  0  0
 19 18  1  6  0  0  0
 19 28  1  0  0  0  0
 20 21  1  0  0  0  0
 21 25  2  0  0  0  0
 22 23  1  0  0  0  0
 22 20  2  0  0  0  0
 23 24  2  0  0  0  0
 24 25  1  0  0  0  0
 25 19  1  0  0  0  0
 28 26  2  0  0  0  0
 28 27  1  0  0  0  0
M  END
>  <MODEL>
6

>  <REMARK>
 VINA RESULT:      -6.5      2.575      5.594
  Name = 
  6 active torsions:
  status: ('A' for Active; 'I' for Inactive)
    1  A    between atoms: C_7  and  C_24
    2  A    between atoms: C_10  and  C_11
    3  A    between atoms: C_10  and  C_24
    4  A    between atoms: C_10  and  C_28
    5  A    between atoms: C_12  and  N_23
    6  A    between atoms: N_23  and  C_27
                            x       y       z     vdW  Elec       q    Type
                         _______ _______ _______ _____ _____    ______ ____

>  <TORSDO>
F 6

$$$$
=
 OpenBabel11062419573D

 28 31  0  0  1  0  0  0  0  0999 V2000
  186.7270  177.3200  144.7400 C   0  0  0  0  0  0  0  0  0  0  0  0
  187.3850  177.5730  147.0850 C   0  0  0  0  0  3  0  0  0  0  0  0
  187.7380  177.3860  145.7560 C   0  0  0  0  0  0  0  0  0  0  0  0
  188.9530  177.2250  145.1420 C   0  0  0  0  0  0  0  0  0  0  0  0
  188.6980  177.0550  143.7850 C   0  0  0  0  0  0  0  0  0  0  0  0
  185.0740  177.6370  146.4270 C   0  0  0  0  0  3  0  0  0  0  0  0
  186.0580  177.6950  147.3830 N   0  0  0  0  0  2  0  0  0  0  0  0
  187.3260  177.1120  143.5140 C   0  0  0  0  0  3  0  0  0  0  0  0
  185.3840  177.4450  145.0680 C   0  0  0  0  0  3  0  0  0  0  0  0
  189.7160  176.8270  142.8070 N   0  0  0  0  0  2  0  0  0  0  0  0
  192.3730  175.9740  142.3900 N   0  0  0  0  0  2  0  0  0  0  0  0
  190.8130  172.8270  143.0900 N   0  0  0  0  0  2  0  0  0  0  0  0
  189.0430  174.4940  142.8780 C   0  0  0  0  0  2  0  0  0  0  0  0
  191.4330  175.1080  142.5080 C   0  0  0  0  0  0  0  0  0  0  0  0
  189.4800  173.0700  142.5450 C   0  0  0  0  0  2  0  0  0  0  0  0
  191.7770  173.6540  142.3660 C   0  0  0  0  0  2  0  0  0  0  0  0
  189.9980  175.5090  142.2540 C   0  0  2  0  0  3  0  0  0  0  0  0
  190.2890  177.1690  145.8100 C   0  0  0  0  0  2  0  0  0  0  0  0
  190.7220  175.7220  146.0280 C   0  0  1  0  0  3  0  0  0  0  0  0
  194.2060  174.2080  145.7340 C   0  0  0  0  0  3  0  0  0  0  0  0
  192.8150  174.3140  145.8160 C   0  0  0  0  0  3  0  0  0  0  0  0
  194.9990  175.3580  145.7760 C   0  0  0  0  0  3  0  0  0  0  0  0
  194.4010  176.6150  145.8990 C   0  0  0  0  0  3  0  0  0  0  0  0
  193.0090  176.7240  145.9810 C   0  0  0  0  0  3  0  0  0  0  0  0
  192.2100  175.5760  145.9410 C   0  0  0  0  0  0  0  0  0  0  0  0
  188.9770  174.4690  147.2970 O   0  0  0  0  0  0  0  0  0  0  0  0
  190.8160  175.2910  148.3890 O   0  0  0  0  0  1  0  0  0  0  0  0
  190.1820  175.1560  147.3070 C   0  0  0  0  0  0  0  0  0  0  0  0
  1  9  1  0  0  0  0
  1  3  1  0  0  0  0
  2  7  1  0  0  0  0
  3  2  2  0  0  0  0
  4  3  1  0  0  0  0
  4 18  1  0  0  0  0
  5  4  2  0  0  0  0
  6  7  1  0  0  0  0
  8  5  1  0  0  0  0
  8  1  2  0  0  0  0
  9  6  2  0  0  0  0
 10  5  1  0  0  0  0
 11 14  2  0  0  0  0
 15 13  1  0  0  0  0
 15 12  1  0  0  0  0
 16 14  1  0  0  0  0
 16 12  1  0  0  0  0
 17 14  1  0  0  0  0
 17 10  1  1  0  0  0
 17 13  1  0  0  0  0
 19 18  1  1  0  0  0
 19 28  1  0  0  0  0
 20 22  2  0  0  0  0
 20 21  1  0  0  0  0
 21 25  2  0  0  0  0
 22 23  1  0  0  0  0
 23 24  2  0  0  0  0
 25 24  1  0  0  0  0
 25 19  1  0  0  0  0
 26 28  2  0  0  0  0
 28 27  1  0  0  0  0
M  END
>  <MODEL>
7

>  <REMARK>
 VINA RESULT:      -6.5      2.432      3.693
  Name = 
  6 active torsions:
  status: ('A' for Active; 'I' for Inactive)
    1  A    between atoms: C_7  and  C_24
    2  A    between atoms: C_10  and  C_11
    3  A    between atoms: C_10  and  C_24
    4  A    between atoms: C_10  and  C_28
    5  A    between atoms: C_12  and  N_23
    6  A    between atoms: N_23  and  C_27
                            x       y       z     vdW  Elec       q    Type
                         _______ _______ _______ _____ _____    ______ ____

>  <TORSDO>
F 6

$$$$
=
 OpenBabel11062419573D

 28 31  0  0  1  0  0  0  0  0999 V2000
  188.4780  174.5850  140.7700 C   0  0  0  0  0  0  0  0  0  0  0  0
  187.2750  176.3930  139.6370 C   0  0  0  0  0  3  0  0  0  0  0  0
  187.8240  175.8620  140.7960 C   0  0  0  0  0  0  0  0  0  0  0  0
  187.8780  176.3290  142.0840 C   0  0  0  0  0  0  0  0  0  0  0  0
  188.5380  175.3610  142.8340 C   0  0  0  0  0  0  0  0  0  0  0  0
  188.0050  174.4410  138.4390 C   0  0  0  0  0  3  0  0  0  0  0  0
  187.3830  175.6630  138.4870 N   0  0  0  0  0  0  0  0  0  0  0  0
  188.9190  174.2730  142.0400 C   0  0  0  0  0  2  0  0  0  0  0  0
  188.5720  173.8620  139.5890 C   0  0  0  0  0  3  0  0  0  0  0  0
  188.7680  175.4660  144.2420 N   0  0  0  0  0  2  0  0  0  0  0  0
  189.0750  177.4910  146.1820 N   0  0  0  0  0  2  0  0  0  0  0  0
  191.6800  175.2560  147.2010 N   0  0  0  0  0  2  0  0  0  0  0  0
  190.8170  174.4530  145.0640 C   0  0  0  0  0  2  0  0  0  0  0  0
  189.9480  176.5560  146.0890 C   0  0  0  0  0  0  0  0  0  0  0  0
  192.0650  174.6980  145.9070 C   0  0  0  0  0  2  0  0  0  0  0  0
  191.1450  176.6000  146.9950 C   0  0  0  0  0  2  0  0  0  0  0  0
  190.0760  175.7640  144.8080 C   0  0  2  0  0  3  0  0  0  0  0  0
  187.2780  177.5970  142.5980 C   0  0  0  0  0  2  0  0  0  0  0  0
  185.8580  177.3570  143.1030 C   0  0  1  0  0  3  0  0  0  0  0  0
  185.6920  179.3280  146.3590 C   0  0  0  0  0  3  0  0  0  0  0  0
  185.8230  179.0320  144.9990 C   0  0  0  0  0  3  0  0  0  0  0  0
  185.4640  178.3010  147.2790 C   0  0  0  0  0  3  0  0  0  0  0  0
  185.3650  176.9780  146.8390 C   0  0  0  0  0  3  0  0  0  0  0  0
  185.4950  176.6800  145.4790 C   0  0  0  0  0  3  0  0  0  0  0  0
  185.7250  177.7040  144.5540 C   0  0  0  0  0  0  0  0  0  0  0  0
  183.5220  178.1430  142.7130 O   0  0  0  0  0  1  0  0  0  0  0  0
  185.1520  178.5870  141.1660 O   0  0  0  0  0  0  0  0  0  0  0  0
  184.8330  178.0610  142.2660 C   0  0  0  0  0  0  0  0  0  0  0  0
  1  3  2  0  0  0  0
  1  8  1  0  0  0  0
  2  3  1  0  0  0  0
  3  4  1  0  0  0  0
  4 18  1  0  0  0  0
  4  5  2  0  0  0  0
  5 10  1  0  0  0  0
  6  7  1  0  0  0  0
  6  9  2  0  0  0  0
  7  2  2  0  0  0  0
  8  5  1  0  0  0  0
  9  1  1  0  0  0  0
 13 15  1  0  0  0  0
 14 11  2  0  0  0  0
 14 16  1  0  0  0  0
 15 12  1  0  0  0  0
 16 12  1  0  0  0  0
 17 10  1  1  0  0  0
 17 13  1  0  0  0  0
 17 14  1  0  0  0  0
 19 18  1  6  0  0  0
 19 25  1  0  0  0  0
 20 22  1  0  0  0  0
 21 20  2  0  0  0  0
 23 22  2  0  0  0  0
 24 23  1  0  0  0  0
 25 21  1  0  0  0  0
 25 24  2  0  0  0  0
 27 28  2  0  0  0  0
 28 26  1  0  0  0  0
 28 19  1  0  0  0  0
M  END
>  <MODEL>
8

>  <REMARK>
 VINA RESULT:      -6.4      2.612      4.351
  Name = 
  6 active torsions:
  status: ('A' for Active; 'I' for Inactive)
    1  A    between atoms: C_7  and  C_24
    2  A    between atoms: C_10  and  C_11
    3  A    between atoms: C_10  and  C_24
    4  A    between atoms: C_10  and  C_28
    5  A    between atoms: C_12  and  N_23
    6  A    between atoms: N_23  and  C_27
                            x       y       z     vdW  Elec       q    Type
                         _______ _______ _______ _____ _____    ______ ____

>  <TORSDO>
F 6

$$$$
=
 OpenBabel11062419573D

 28 31  0  0  1  0  0  0  0  0999 V2000
  185.5790  177.6840  146.5240 C   0  0  0  0  0  0  0  0  0  0  0  0
  185.1040  177.9130  144.1330 C   0  0  0  0  0  3  0  0  0  0  0  0
  185.8760  177.3780  145.1540 C   0  0  0  0  0  0  0  0  0  0  0  0
  186.9700  176.5510  145.1410 C   0  0  0  0  0  0  0  0  0  0  0  0
  187.3430  176.3600  146.4680 C   0  0  0  0  0  0  0  0  0  0  0  0
  183.7590  179.0300  145.7820 C   0  0  0  0  0  3  0  0  0  0  0  0
  184.0620  178.7260  144.4780 N   0  0  0  0  0  0  0  0  0  0  0  0
  186.4950  177.0510  147.3410 C   0  0  0  0  0  2  0  0  0  0  0  0
  184.5160  178.5150  146.8490 C   0  0  0  0  0  3  0  0  0  0  0  0
  188.4680  175.5760  146.8720 N   0  0  0  0  0  2  0  0  0  0  0  0
  190.2090  177.5400  147.9100 N   0  0  0  0  0  2  0  0  0  0  0  0
  192.5970  175.0890  146.8540 N   0  0  0  0  0  2  0  0  0  0  0  0
  190.4110  174.3910  146.0220 C   0  0  0  0  0  2  0  0  0  0  0  0
  190.6850  176.5390  147.2630 C   0  0  0  0  0  0  0  0  0  0  0  0
  191.8980  174.5230  145.7030 C   0  0  0  0  0  2  0  0  0  0  0  0
  192.1670  176.4750  147.0330 C   0  0  0  0  0  2  0  0  0  0  0  0
  189.8020  175.7610  146.3150 C   0  0  2  0  0  3  0  0  0  0  0  0
  187.6710  176.0190  143.9340 C   0  0  0  0  0  2  0  0  0  0  0  0
  188.3600  177.1460  143.1690 C   0  0  1  0  0  3  0  0  0  0  0  0
  191.7180  175.5230  142.3920 C   0  0  0  0  0  3  0  0  0  0  0  0
  190.3380  175.7190  142.4950 C   0  0  0  0  0  3  0  0  0  0  0  0
  192.5990  176.5110  142.8410 C   0  0  0  0  0  3  0  0  0  0  0  0
  192.1010  177.6950  143.3910 C   0  0  0  0  0  3  0  0  0  0  0  0
  190.7200  177.8930  143.4940 C   0  0  0  0  0  3  0  0  0  0  0  0
  189.8330  176.9070  143.0480 C   0  0  0  0  0  0  0  0  0  0  0  0
  186.6450  176.6200  141.4340 O   0  0  0  0  0  1  0  0  0  0  0  0
  188.1580  178.3030  141.0750 O   0  0  0  0  0  0  0  0  0  0  0  0
  187.7260  177.3940  141.8340 C   0  0  0  0  0  0  0  0  0  0  0  0
  1  9  1  0  0  0  0
  1  8  1  0  0  0  0
  2  7  2  0  0  0  0
  2  3  1  0  0  0  0
  3  1  2  0  0  0  0
  4  3  1  0  0  0  0
  4  5  2  0  0  0  0
  5 10  1  0  0  0  0
  5  8  1  0  0  0  0
  6  9  2  0  0  0  0
  7  6  1  0  0  0  0
 12 16  1  0  0  0  0
 13 17  1  0  0  0  0
 14 11  2  0  0  0  0
 15 13  1  0  0  0  0
 15 12  1  0  0  0  0
 16 14  1  0  0  0  0
 17 10  1  1  0  0  0
 17 14  1  0  0  0  0
 18  4  1  0  0  0  0
 19 18  1  6  0  0  0
 20 21  2  0  0  0  0
 20 22  1  0  0  0  0
 21 25  1  0  0  0  0
 22 23  2  0  0  0  0
 23 24  1  0  0  0  0
 25 19  1  0  0  0  0
 25 24  2  0  0  0  0
 26 28  1  0  0  0  0
 27 28  2  0  0  0  0
 28 19  1  0  0  0  0
M  END
>  <MODEL>
9

>  <REMARK>
 VINA RESULT:      -6.3      2.535      4.323
  Name = 
  6 active torsions:
  status: ('A' for Active; 'I' for Inactive)
    1  A    between atoms: C_7  and  C_24
    2  A    between atoms: C_10  and  C_11
    3  A    between atoms: C_10  and  C_24
    4  A    between atoms: C_10  and  C_28
    5  A    between atoms: C_12  and  N_23
    6  A    between atoms: N_23  and  C_27
                            x       y       z     vdW  Elec       q    Type
                         _______ _______ _______ _____ _____    ______ ____

>  <TORSDO>
F 6

$$$$
