=
 OpenBabel11062421513D

 37 40  0  0  1  0  0  0  0  0999 V2000
  189.3240  175.8180  144.8400 C   0  0  0  0  0  0  0  0  0  0  0  0
  189.4150  174.4620  144.7410 N   0  0  0  0  0  0  0  0  0  0  0  0
  190.4670  177.9800  145.2100 O   0  0  0  0  0  1  0  0  0  0  0  0
  190.4480  173.7770  145.2910 C   0  0  0  0  0  3  0  0  0  0  0  0
  190.3690  176.5900  145.3510 C   0  0  0  0  0  0  0  0  0  0  0  0
  191.4050  175.8290  145.9400 C   0  0  0  0  0  0  0  0  0  0  0  0
  191.4500  174.4940  145.9420 C   0  0  0  0  0  3  0  0  0  0  0  0
  184.7290  179.9950  144.1470 O   0  0  0  0  0  1  0  0  0  0  0  0
  186.6150  177.9240  147.2250 C   0  0  0  0  0  2  0  0  0  0  0  0
  187.1050  177.0920  144.8570 C   0  0  0  0  0  0  0  0  0  0  0  0
  185.1030  178.2050  147.2460 C   0  0  0  0  0  2  0  0  0  0  0  0
  184.3570  178.4670  145.9280 C   0  0  0  0  0  2  0  0  0  0  0  0
  187.2110  177.0520  142.0870 N   0  0  0  0  0  0  0  0  0  0  0  0
  186.1910  177.7940  142.6580 C   0  0  0  0  0  0  0  0  0  0  0  0
  187.0250  176.7320  146.3380 C   0  0  0  0  0  2  0  0  0  0  0  0
  188.2090  176.4060  142.7900 C   0  0  0  0  0  3  0  0  0  0  0  0
  188.1370  176.4520  144.1670 C   0  0  0  0  0  0  0  0  0  0  0  0
  186.1440  177.9300  144.1420 C   0  0  0  0  0  0  0  0  0  0  0  0
  185.3750  179.0060  144.9450 C   0  0  1  0  0  3  0  0  0  0  0  0
  185.4140  178.6820  141.6270 C   0  0  0  0  0  2  0  0  0  0  0  0
  184.3160  178.0340  140.8760 C   0  0  0  0  0  2  0  0  0  0  0  0
  183.1470  178.1460  141.6910 N   0  0  0  0  0  2  0  0  0  0  0  0
  182.0900  178.1270  140.6870 C   0  0  0  0  0  1  0  0  0  0  0  0
  192.4810  176.4510  146.5530 O   0  0  0  0  0  0  0  0  0  0  0  0
  193.7450  175.8790  146.3250 C   0  0  0  0  0  2  0  0  0  0  0  0
  194.8410  176.0260  144.1880 N   0  0  0  0  0  0  0  0  0  0  0  0
  195.3440  175.7930  141.3790 C   0  0  2  0  0  3  0  0  0  0  0  0
  193.8630  175.3730  143.3420 C   0  0  0  0  0  2  0  0  0  0  0  0
  194.4090  176.7010  145.3020 C   0  0  0  0  0  0  0  0  0  0  0  0
  196.5790  175.8210  142.2880 C   0  0  0  0  0  2  0  0  0  0  0  0
  194.8470  177.8570  145.5760 O   0  0  0  0  0  0  0  0  0  0  0  0
  194.0020  176.0830  142.0370 C   0  0  0  0  0  2  0  0  0  0  0  0
  196.2760  176.0410  143.7590 C   0  0  0  0  0  2  0  0  0  0  0  0
  195.3490  174.5140  140.7300 O   0  0  0  0  0  0  0  0  0  0  0  0
  195.5080  174.8900  139.1660 P   0  0  0  0  0  0  0  0  0  0  0  0
  196.8160  175.4560  138.7840 O   0  0  0  0  0  0  0  0  0  0  0  0
  194.2300  175.3120  138.3460 O   0  0  0  0  0  0  0  0  0  0  0  0
  1  5  1  0  0  0  0
  2  1  2  0  0  0  0
  2  4  1  0  0  0  0
  3  5  1  0  0  0  0
  4  7  2  0  0  0  0
  5  6  2  0  0  0  0
  6  7  1  0  0  0  0
  6 24  1  0  0  0  0
  9 11  1  0  0  0  0
 10 15  1  0  0  0  0
 12 11  1  0  0  0  0
 13 14  2  0  0  0  0
 13 16  1  0  0  0  0
 14 18  1  0  0  0  0
 15  9  1  0  0  0  0
 16 17  2  0  0  0  0
 17  1  1  0  0  0  0
 17 10  1  0  0  0  0
 18 10  2  0  0  0  0
 18 19  1  0  0  0  0
 19  8  1  6  0  0  0
 19 12  1  0  0  0  0
 20 14  1  0  0  0  0
 21 20  1  0  0  0  0
 21 22  1  0  0  0  0
 23 22  1  0  0  0  0
 25 24  1  0  0  0  0
 26 29  1  0  0  0  0
 27 34  1  1  0  0  0
 27 32  1  0  0  0  0
 27 30  1  0  0  0  0
 28 26  1  0  0  0  0
 29 31  2  0  0  0  0
 29 25  1  0  0  0  0
 30 33  1  0  0  0  0
 32 28  1  0  0  0  0
 33 26  1  0  0  0  0
 35 34  1  0  0  0  0
 36 35  2  0  0  0  0
 37 35  2  0  0  0  0
M  END
>  <MODEL>
1

>  <REMARK>
 VINA RESULT:      -7.7      0.000      0.000
  Name = 
  9 active torsions:
  status: ('A' for Active; 'I' for Inactive)
    1  A    between atoms: C_4  and  C_29
    2  A    between atoms: P_9  and  O_31
    3  A    between atoms: C_12  and  O_31
    4  A    between atoms: C_14  and  C_23
    5  A    between atoms: C_17  and  C_36
    6  A    between atoms: N_21  and  C_27
    7  A    between atoms: C_23  and  C_27
    8  A    between atoms: C_28  and  O_32
    9  A    between atoms: O_32  and  C_36
                            x       y       z     vdW  Elec       q    Type
                         _______ _______ _______ _____ _____    ______ ____

>  <TORSDO>
F 9

$$$$
=
 OpenBabel11062421513D

 37 40  0  0  1  0  0  0  0  0999 V2000
  189.3700  175.6420  144.6300 C   0  0  0  0  0  0  0  0  0  0  0  0
  189.4720  174.3140  144.9140 N   0  0  0  0  0  0  0  0  0  0  0  0
  190.4850  177.7310  143.9100 O   0  0  0  0  0  1  0  0  0  0  0  0
  190.6590  173.7480  145.2430 C   0  0  0  0  0  3  0  0  0  0  0  0
  190.4980  176.4530  144.4850 C   0  0  0  0  0  0  0  0  0  0  0  0
  191.7040  175.8250  144.8690 C   0  0  0  0  0  0  0  0  0  0  0  0
  191.7990  174.5490  145.2540 C   0  0  0  0  0  3  0  0  0  0  0  0
  184.4780  179.5260  144.8010 O   0  0  0  0  0  1  0  0  0  0  0  0
  187.3110  177.9710  147.4240 C   0  0  0  0  0  2  0  0  0  0  0  0
  187.1620  176.8320  145.1380 C   0  0  0  0  0  0  0  0  0  0  0  0
  185.8510  178.2010  147.8520 C   0  0  0  0  0  2  0  0  0  0  0  0
  184.7430  178.2500  146.7890 C   0  0  0  0  0  2  0  0  0  0  0  0
  186.4740  176.4080  142.4870 N   0  0  0  0  0  0  0  0  0  0  0  0
  185.6090  177.1890  143.2350 C   0  0  0  0  0  0  0  0  0  0  0  0
  187.5360  176.6800  146.6100 C   0  0  0  0  0  2  0  0  0  0  0  0
  187.6750  175.9010  142.9410 C   0  0  0  0  0  3  0  0  0  0  0  0
  187.9980  176.1370  144.2610 C   0  0  0  0  0  0  0  0  0  0  0  0
  185.9780  177.5290  144.6390 C   0  0  0  0  0  0  0  0  0  0  0  0
  185.3950  178.6800  145.4920 C   0  0  1  0  0  3  0  0  0  0  0  0
  184.5070  177.8970  142.3760 C   0  0  0  0  0  2  0  0  0  0  0  0
  184.8260  178.1510  140.9530 C   0  0  0  0  0  2  0  0  0  0  0  0
  183.6040  178.5600  140.3310 N   0  0  0  0  0  2  0  0  0  0  0  0
  182.6210  178.1510  141.3270 C   0  0  0  0  0  1  0  0  0  0  0  0
  192.9040  176.5190  144.8490 O   0  0  0  0  0  0  0  0  0  0  0  0
  193.6720  176.4030  143.6780 C   0  0  0  0  0  2  0  0  0  0  0  0
  195.2300  174.7220  144.4090 N   0  0  0  0  0  0  0  0  0  0  0  0
  196.7800  172.3160  144.4890 C   0  0  2  0  0  3  0  0  0  0  0  0
  195.0440  173.7210  143.3770 C   0  0  0  0  0  2  0  0  0  0  0  0
  195.0360  176.0420  144.0940 C   0  0  0  0  0  0  0  0  0  0  0  0
  196.4770  172.9720  145.8420 C   0  0  0  0  0  2  0  0  0  0  0  0
  195.8640  176.9300  144.4570 O   0  0  0  0  0  0  0  0  0  0  0  0
  196.3960  173.1040  143.2440 C   0  0  0  0  0  2  0  0  0  0  0  0
  195.7360  174.2930  145.7520 C   0  0  0  0  0  2  0  0  0  0  0  0
  196.1510  171.0280  144.5140 O   0  0  0  0  0  0  0  0  0  0  0  0
  197.1040  170.1660  145.4940 P   0  0  0  0  0  0  0  0  0  0  0  0
  197.9340  169.1440  144.8290 O   0  0  0  0  0  0  0  0  0  0  0  0
  196.6520  169.9230  146.9840 O   0  0  0  0  0  0  0  0  0  0  0  0
  1  2  1  0  0  0  0
  2  4  2  0  0  0  0
  3  5  1  0  0  0  0
  4  7  1  0  0  0  0
  5  1  2  0  0  0  0
  5  6  1  0  0  0  0
  6  7  2  0  0  0  0
  9 11  1  0  0  0  0
 10 15  1  0  0  0  0
 12 11  1  0  0  0  0
 13 16  2  0  0  0  0
 13 14  1  0  0  0  0
 14 18  2  0  0  0  0
 15  9  1  0  0  0  0
 16 17  1  0  0  0  0
 17  1  1  0  0  0  0
 17 10  2  0  0  0  0
 18 10  1  0  0  0  0
 18 19  1  0  0  0  0
 19  8  1  6  0  0  0
 19 12  1  0  0  0  0
 20 14  1  0  0  0  0
 21 20  1  0  0  0  0
 22 21  1  0  0  0  0
 22 23  1  0  0  0  0
 24  6  1  0  0  0  0
 25 29  1  0  0  0  0
 25 24  1  0  0  0  0
 26 33  1  0  0  0  0
 27 34  1  1  0  0  0
 27 30  1  0  0  0  0
 28 26  1  0  0  0  0
 29 26  1  0  0  0  0
 29 31  2  0  0  0  0
 32 28  1  0  0  0  0
 32 27  1  0  0  0  0
 33 30  1  0  0  0  0
 34 35  1  0  0  0  0
 35 37  2  0  0  0  0
 36 35  2  0  0  0  0
M  END
>  <MODEL>
2

>  <REMARK>
 VINA RESULT:      -7.6      2.749      3.230
  Name = 
  9 active torsions:
  status: ('A' for Active; 'I' for Inactive)
    1  A    between atoms: C_4  and  C_29
    2  A    between atoms: P_9  and  O_31
    3  A    between atoms: C_12  and  O_31
    4  A    between atoms: C_14  and  C_23
    5  A    between atoms: C_17  and  C_36
    6  A    between atoms: N_21  and  C_27
    7  A    between atoms: C_23  and  C_27
    8  A    between atoms: C_28  and  O_32
    9  A    between atoms: O_32  and  C_36
                            x       y       z     vdW  Elec       q    Type
                         _______ _______ _______ _____ _____    ______ ____

>  <TORSDO>
F 9

$$$$
=
 OpenBabel11062421513D

 37 40  0  0  1  0  0  0  0  0999 V2000
  190.9400  175.8770  145.9830 C   0  0  0  0  0  0  0  0  0  0  0  0
  191.7620  176.6690  146.7260 N   0  0  0  0  0  0  0  0  0  0  0  0
  190.4910  173.6520  144.9990 O   0  0  0  0  0  1  0  0  0  0  0  0
  193.0750  176.3750  146.8900 C   0  0  0  0  0  3  0  0  0  0  0  0
  191.3550  174.6330  145.5030 C   0  0  0  0  0  0  0  0  0  0  0  0
  192.7370  174.3880  145.6710 C   0  0  0  0  0  0  0  0  0  0  0  0
  193.5740  175.2120  146.3070 C   0  0  0  0  0  3  0  0  0  0  0  0
  185.4330  176.8330  143.1910 O   0  0  0  0  0  1  0  0  0  0  0  0
  189.4820  177.1200  142.2690 C   0  0  0  0  0  2  0  0  0  0  0  0
  188.9190  176.8440  144.7490 C   0  0  0  0  0  0  0  0  0  0  0  0
  188.4560  178.1350  141.7360 C   0  0  0  0  0  2  0  0  0  0  0  0
  187.1280  178.3410  142.4800 C   0  0  0  0  0  2  0  0  0  0  0  0
  187.4390  176.3260  147.0350 N   0  0  0  0  0  0  0  0  0  0  0  0
  186.7350  176.7690  145.9280 C   0  0  0  0  0  0  0  0  0  0  0  0
  189.9210  177.3700  143.7260 C   0  0  0  0  0  2  0  0  0  0  0  0
  188.7920  176.0520  147.0540 C   0  0  0  0  0  3  0  0  0  0  0  0
  189.5020  176.3090  145.9000 C   0  0  0  0  0  0  0  0  0  0  0  0
  187.4660  176.9710  144.6440 C   0  0  0  0  0  0  0  0  0  0  0  0
  186.8410  177.0580  143.2320 C   0  0  1  0  0  3  0  0  0  0  0  0
  185.1810  176.6700  146.0970 C   0  0  0  0  0  2  0  0  0  0  0  0
  184.4810  177.8750  146.5950 C   0  0  0  0  0  2  0  0  0  0  0  0
  185.1650  179.0000  146.0350 N   0  0  0  0  0  2  0  0  0  0  0  0
  184.2810  179.3590  144.9330 C   0  0  0  0  0  1  0  0  0  0  0  0
  193.3170  173.2270  145.1850 O   0  0  0  0  0  0  0  0  0  0  0  0
  194.3240  173.3890  144.2190 C   0  0  0  0  0  2  0  0  0  0  0  0
  192.7020  172.8330  142.5320 N   0  0  0  0  0  0  0  0  0  0  0  0
  190.8520  173.0920  140.3610 C   0  0  2  0  0  3  0  0  0  0  0  0
  192.4420  174.1440  141.9700 C   0  0  0  0  0  2  0  0  0  0  0  0
  193.9410  172.5710  143.0580 C   0  0  0  0  0  0  0  0  0  0  0  0
  190.5950  171.9350  141.3370 C   0  0  0  0  0  2  0  0  0  0  0  0
  194.5520  171.4960  142.7870 O   0  0  0  0  0  0  0  0  0  0  0  0
  192.1570  173.8570  140.5340 C   0  0  0  0  0  2  0  0  0  0  0  0
  191.6490  171.7740  142.4170 C   0  0  0  0  0  2  0  0  0  0  0  0
  189.7140  173.9600  140.4560 O   0  0  0  0  0  0  0  0  0  0  0  0
  188.9020  173.6600  139.0900 P   0  0  0  0  0  0  0  0  0  0  0  0
  187.9100  172.5720  139.1730 O   0  0  0  0  0  0  0  0  0  0  0  0
  189.5990  173.9480  137.7070 O   0  0  0  0  0  0  0  0  0  0  0  0
  1  2  1  0  0  0  0
  2  4  2  0  0  0  0
  3  5  1  0  0  0  0
  5  6  1  0  0  0  0
  5  1  2  0  0  0  0
  6  7  2  0  0  0  0
  7  4  1  0  0  0  0
  9 15  1  0  0  0  0
 10 17  1  0  0  0  0
 11  9  1  0  0  0  0
 11 12  1  0  0  0  0
 12 19  1  0  0  0  0
 13 16  1  0  0  0  0
 14 20  1  0  0  0  0
 14 13  2  0  0  0  0
 15 10  1  0  0  0  0
 17  1  1  0  0  0  0
 17 16  2  0  0  0  0
 18 10  2  0  0  0  0
 18 14  1  0  0  0  0
 19  8  1  1  0  0  0
 19 18  1  0  0  0  0
 20 21  1  0  0  0  0
 22 21  1  0  0  0  0
 23 22  1  0  0  0  0
 24  6  1  0  0  0  0
 25 24  1  0  0  0  0
 26 29  1  0  0  0  0
 27 34  1  1  0  0  0
 27 32  1  0  0  0  0
 27 30  1  0  0  0  0
 28 26  1  0  0  0  0
 29 25  1  0  0  0  0
 30 33  1  0  0  0  0
 31 29  2  0  0  0  0
 32 28  1  0  0  0  0
 33 26  1  0  0  0  0
 35 36  2  0  0  0  0
 35 34  1  0  0  0  0
 37 35  2  0  0  0  0
M  END
>  <MODEL>
3

>  <REMARK>
 VINA RESULT:      -7.4      3.188      4.673
  Name = 
  9 active torsions:
  status: ('A' for Active; 'I' for Inactive)
    1  A    between atoms: C_4  and  C_29
    2  A    between atoms: P_9  and  O_31
    3  A    between atoms: C_12  and  O_31
    4  A    between atoms: C_14  and  C_23
    5  A    between atoms: C_17  and  C_36
    6  A    between atoms: N_21  and  C_27
    7  A    between atoms: C_23  and  C_27
    8  A    between atoms: C_28  and  O_32
    9  A    between atoms: O_32  and  C_36
                            x       y       z     vdW  Elec       q    Type
                         _______ _______ _______ _____ _____    ______ ____

>  <TORSDO>
F 9

$$$$
=
 OpenBabel11062421513D

 37 40  0  0  1  0  0  0  0  0999 V2000
  189.5060  176.7980  143.6800 C   0  0  0  0  0  0  0  0  0  0  0  0
  190.2260  177.9480  143.8020 N   0  0  0  0  0  0  0  0  0  0  0  0
  189.3400  174.3670  144.1100 O   0  0  0  0  0  1  0  0  0  0  0  0
  191.5680  177.9290  143.9920 C   0  0  0  0  0  3  0  0  0  0  0  0
  190.0740  175.5450  143.9250 C   0  0  0  0  0  0  0  0  0  0  0  0
  191.4780  175.5780  144.0870 C   0  0  0  0  0  0  0  0  0  0  0  0
  192.2080  176.6960  144.0990 C   0  0  0  0  0  3  0  0  0  0  0  0
  183.8110  179.0170  144.9760 O   0  0  0  0  0  1  0  0  0  0  0  0
  187.2010  177.7520  147.0330 C   0  0  0  0  0  2  0  0  0  0  0  0
  187.1270  177.1750  144.5420 C   0  0  0  0  0  0  0  0  0  0  0  0
  185.7830  177.4620  147.5540 C   0  0  0  0  0  2  0  0  0  0  0  0
  184.5990  177.4440  146.5740 C   0  0  0  0  0  2  0  0  0  0  0  0
  186.3110  177.1990  141.8930 N   0  0  0  0  0  0  0  0  0  0  0  0
  185.3510  177.5140  142.8400 C   0  0  0  0  0  0  0  0  0  0  0  0
  187.6730  176.7990  145.9160 C   0  0  0  0  0  2  0  0  0  0  0  0
  187.6420  176.9560  142.1660 C   0  0  0  0  0  3  0  0  0  0  0  0
  188.0230  176.9620  143.4920 C   0  0  0  0  0  0  0  0  0  0  0  0
  185.7580  177.6110  144.2720 C   0  0  0  0  0  0  0  0  0  0  0  0
  184.9820  178.3250  145.4030 C   0  0  1  0  0  3  0  0  0  0  0  0
  184.0220  178.0650  142.2220 C   0  0  0  0  0  2  0  0  0  0  0  0
  184.0180  178.3300  140.7660 C   0  0  0  0  0  2  0  0  0  0  0  0
  182.7700  177.8410  140.2690 N   0  0  0  0  0  2  0  0  0  0  0  0
  181.8470  178.2980  141.3010 C   0  0  0  0  0  1  0  0  0  0  0  0
  192.1990  174.4080  144.2680 O   0  0  0  0  0  0  0  0  0  0  0  0
  193.1120  174.0740  143.2530 C   0  0  0  0  0  2  0  0  0  0  0  0
  191.8770  173.3090  141.3350 N   0  0  0  0  0  0  0  0  0  0  0  0
  191.0940  172.8680  138.6160 C   0  0  2  0  0  3  0  0  0  0  0  0
  192.6410  173.9210  140.2650 C   0  0  0  0  0  2  0  0  0  0  0  0
  192.5220  172.9610  142.4940 C   0  0  0  0  0  0  0  0  0  0  0  0
  189.9690  172.8310  139.6600 C   0  0  0  0  0  2  0  0  0  0  0  0
  192.3290  171.8320  143.0350 O   0  0  0  0  0  0  0  0  0  0  0  0
  192.5190  172.9420  139.1460 C   0  0  0  0  0  2  0  0  0  0  0  0
  190.4360  172.9740  141.0970 C   0  0  0  0  0  2  0  0  0  0  0  0
  190.7970  173.9650  137.7420 O   0  0  0  0  0  0  0  0  0  0  0  0
  189.3400  173.5890  137.1520 P   0  0  0  0  0  0  0  0  0  0  0  0
  189.3380  172.5890  136.0680 O   0  0  0  0  0  0  0  0  0  0  0  0
  188.1970  174.6720  137.1870 O   0  0  0  0  0  0  0  0  0  0  0  0
  1  2  2  0  0  0  0
  1  5  1  0  0  0  0
  2  4  1  0  0  0  0
  4  7  2  0  0  0  0
  5  6  2  0  0  0  0
  5  3  1  0  0  0  0
  6  7  1  0  0  0  0
  6 24  1  0  0  0  0
  9 11  1  0  0  0  0
 10 15  1  0  0  0  0
 12 11  1  0  0  0  0
 13 16  2  0  0  0  0
 13 14  1  0  0  0  0
 14 18  2  0  0  0  0
 15  9  1  0  0  0  0
 16 17  1  0  0  0  0
 17  1  1  0  0  0  0
 17 10  2  0  0  0  0
 18 10  1  0  0  0  0
 18 19  1  0  0  0  0
 19  8  1  6  0  0  0
 19 12  1  0  0  0  0
 20 14  1  0  0  0  0
 21 20  1  0  0  0  0
 22 21  1  0  0  0  0
 22 23  1  0  0  0  0
 25 24  1  0  0  0  0
 26 29  1  0  0  0  0
 27 34  1  6  0  0  0
 27 32  1  0  0  0  0
 27 30  1  0  0  0  0
 28 26  1  0  0  0  0
 29 31  2  0  0  0  0
 29 25  1  0  0  0  0
 30 33  1  0  0  0  0
 32 28  1  0  0  0  0
 33 26  1  0  0  0  0
 35 37  2  0  0  0  0
 35 34  1  0  0  0  0
 36 35  2  0  0  0  0
M  END
>  <MODEL>
4

>  <REMARK>
 VINA RESULT:      -7.3      3.111      3.912
  Name = 
  9 active torsions:
  status: ('A' for Active; 'I' for Inactive)
    1  A    between atoms: C_4  and  C_29
    2  A    between atoms: P_9  and  O_31
    3  A    between atoms: C_12  and  O_31
    4  A    between atoms: C_14  and  C_23
    5  A    between atoms: C_17  and  C_36
    6  A    between atoms: N_21  and  C_27
    7  A    between atoms: C_23  and  C_27
    8  A    between atoms: C_28  and  O_32
    9  A    between atoms: O_32  and  C_36
                            x       y       z     vdW  Elec       q    Type
                         _______ _______ _______ _____ _____    ______ ____

>  <TORSDO>
F 9

$$$$
=
 OpenBabel11062421513D

 37 40  0  0  1  0  0  0  0  0999 V2000
  192.0720  174.7540  144.8190 C   0  0  0  0  0  0  0  0  0  0  0  0
  191.4060  173.9730  143.9240 N   0  0  0  0  0  0  0  0  0  0  0  0
  192.1290  175.8080  147.0560 O   0  0  0  0  0  1  0  0  0  0  0  0
  190.0640  173.7930  143.9990 C   0  0  0  0  0  3  0  0  0  0  0  0
  191.4480  175.2610  145.9610 C   0  0  0  0  0  0  0  0  0  0  0  0
  190.0480  175.0740  145.9760 C   0  0  0  0  0  0  0  0  0  0  0  0
  189.3690  174.4000  145.0430 C   0  0  0  0  0  3  0  0  0  0  0  0
  197.7920  172.6420  143.4510 O   0  0  0  0  0  1  0  0  0  0  0  0
  194.3440  171.2850  145.3460 C   0  0  0  0  0  2  0  0  0  0  0  0
  194.4450  173.7980  144.8790 C   0  0  0  0  0  0  0  0  0  0  0  0
  195.7470  170.9160  145.8570 C   0  0  0  0  0  2  0  0  0  0  0  0
  196.9450  171.8130  145.5110 C   0  0  0  0  0  2  0  0  0  0  0  0
  195.3040  176.2110  143.8180 N   0  0  0  0  0  0  0  0  0  0  0  0
  196.2540  175.2110  143.9340 C   0  0  0  0  0  0  0  0  0  0  0  0
  193.8700  172.6930  145.7600 C   0  0  0  0  0  2  0  0  0  0  0  0
  193.9630  176.0660  144.1160 C   0  0  0  0  0  3  0  0  0  0  0  0
  193.5620  174.8510  144.6310 C   0  0  0  0  0  0  0  0  0  0  0  0
  195.8270  173.8630  144.4070 C   0  0  0  0  0  0  0  0  0  0  0  0
  196.6000  172.5350  144.2260 C   0  0  1  0  0  3  0  0  0  0  0  0
  197.6050  175.5480  143.2150 C   0  0  0  0  0  2  0  0  0  0  0  0
  197.5280  175.9320  141.7880 C   0  0  0  0  0  2  0  0  0  0  0  0
  197.0470  174.7830  141.0850 N   0  0  0  0  0  2  0  0  0  0  0  0
  196.2320  175.3990  140.0440 C   0  0  0  0  0  1  0  0  0  0  0  0
  189.2750  175.5820  147.0080 O   0  0  0  0  0  0  0  0  0  0  0  0
  188.8500  176.9150  146.8720 C   0  0  0  0  0  2  0  0  0  0  0  0
  186.9220  177.6550  145.6380 N   0  0  0  0  0  0  0  0  0  0  0  0
  185.1430  178.1970  143.4610 C   0  0  2  0  0  3  0  0  0  0  0  0
  187.3380  177.3450  144.2850 C   0  0  0  0  0  2  0  0  0  0  0  0
  187.3940  176.8830  146.6690 C   0  0  0  0  0  0  0  0  0  0  0  0
  185.0120  179.1100  144.6880 C   0  0  0  0  0  2  0  0  0  0  0  0
  186.6180  176.4570  147.5750 O   0  0  0  0  0  0  0  0  0  0  0  0
  186.0600  176.9900  143.6010 C   0  0  0  0  0  2  0  0  0  0  0  0
  185.9040  178.7320  145.8550 C   0  0  0  0  0  2  0  0  0  0  0  0
  185.5390  179.0400  142.3710 O   0  0  0  0  0  0  0  0  0  0  0  0
  185.0930  178.1960  141.0670 P   0  0  0  0  0  0  0  0  0  0  0  0
  186.1750  177.8960  140.1090 O   0  0  0  0  0  0  0  0  0  0  0  0
  183.6210  178.3440  140.5260 O   0  0  0  0  0  0  0  0  0  0  0  0
  1  5  1  0  0  0  0
  2  4  1  0  0  0  0
  2  1  2  0  0  0  0
  4  7  2  0  0  0  0
  5  6  2  0  0  0  0
  5  3  1  0  0  0  0
  6 24  1  0  0  0  0
  7  6  1  0  0  0  0
  9 15  1  0  0  0  0
  9 11  1  0  0  0  0
 10 15  1  0  0  0  0
 12 11  1  0  0  0  0
 13 14  2  0  0  0  0
 13 16  1  0  0  0  0
 14 18  1  0  0  0  0
 16 17  2  0  0  0  0
 17  1  1  0  0  0  0
 17 10  1  0  0  0  0
 18 10  2  0  0  0  0
 19  8  1  1  0  0  0
 19 18  1  0  0  0  0
 19 12  1  0  0  0  0
 20 14  1  0  0  0  0
 21 20  1  0  0  0  0
 22 21  1  0  0  0  0
 23 22  1  0  0  0  0
 25 24  1  0  0  0  0
 26 33  1  0  0  0  0
 26 29  1  0  0  0  0
 27 34  1  6  0  0  0
 27 32  1  0  0  0  0
 27 30  1  0  0  0  0
 28 26  1  0  0  0  0
 29 25  1  0  0  0  0
 29 31  2  0  0  0  0
 30 33  1  0  0  0  0
 32 28  1  0  0  0  0
 35 34  1  0  0  0  0
 36 35  2  0  0  0  0
 37 35  2  0  0  0  0
M  END
>  <MODEL>
5

>  <REMARK>
 VINA RESULT:      -7.0      3.206      9.535
  Name = 
  9 active torsions:
  status: ('A' for Active; 'I' for Inactive)
    1  A    between atoms: C_4  and  C_29
    2  A    between atoms: P_9  and  O_31
    3  A    between atoms: C_12  and  O_31
    4  A    between atoms: C_14  and  C_23
    5  A    between atoms: C_17  and  C_36
    6  A    between atoms: N_21  and  C_27
    7  A    between atoms: C_23  and  C_27
    8  A    between atoms: C_28  and  O_32
    9  A    between atoms: O_32  and  C_36
                            x       y       z     vdW  Elec       q    Type
                         _______ _______ _______ _____ _____    ______ ____

>  <TORSDO>
F 9

$$$$
=
 OpenBabel11062421513D

 37 40  0  0  1  0  0  0  0  0999 V2000
  189.4470  176.3280  145.9410 C   0  0  0  0  0  0  0  0  0  0  0  0
  189.2170  175.3090  146.8150 N   0  0  0  0  0  0  0  0  0  0  0  0
  191.0810  177.6510  144.6380 O   0  0  0  0  0  1  0  0  0  0  0  0
  190.1890  174.8460  147.6390 C   0  0  0  0  0  3  0  0  0  0  0  0
  190.7310  176.8280  145.7160 C   0  0  0  0  0  0  0  0  0  0  0  0
  191.7000  176.3380  146.6210 C   0  0  0  0  0  0  0  0  0  0  0  0
  191.4590  175.4140  147.5550 C   0  0  0  0  0  3  0  0  0  0  0  0
  184.6270  179.8820  144.1580 O   0  0  0  0  0  1  0  0  0  0  0  0
  186.3560  178.5290  147.6930 C   0  0  0  0  0  2  0  0  0  0  0  0
  187.1440  177.3720  145.5520 C   0  0  0  0  0  0  0  0  0  0  0  0
  184.8320  178.6650  147.5380 C   0  0  0  0  0  2  0  0  0  0  0  0
  184.2020  178.6360  146.1370 C   0  0  0  0  0  2  0  0  0  0  0  0
  187.5260  176.8910  142.8500 N   0  0  0  0  0  0  0  0  0  0  0  0
  186.3990  177.6170  143.1970 C   0  0  0  0  0  0  0  0  0  0  0  0
  186.9460  177.2520  147.0610 C   0  0  0  0  0  2  0  0  0  0  0  0
  188.4970  176.4660  143.7340 C   0  0  0  0  0  3  0  0  0  0  0  0
  188.2860  176.7290  145.0720 C   0  0  0  0  0  0  0  0  0  0  0  0
  186.1940  177.9870  144.6260 C   0  0  0  0  0  0  0  0  0  0  0  0
  185.2670  179.1020  145.1650 C   0  0  1  0  0  3  0  0  0  0  0  0
  185.6600  178.2470  141.9670 C   0  0  0  0  0  2  0  0  0  0  0  0
  186.1860  177.9130  140.6250 C   0  0  0  0  0  2  0  0  0  0  0  0
  185.0520  177.5870  139.8160 N   0  0  0  0  0  2  0  0  0  0  0  0
  183.9840  178.2930  140.5140 C   0  0  0  0  0  1  0  0  0  0  0  0
  193.0090  176.7920  146.5730 O   0  0  0  0  0  0  0  0  0  0  0  0
  193.6370  176.7550  145.3160 C   0  0  0  0  0  2  0  0  0  0  0  0
  193.1600  174.6190  144.3160 N   0  0  0  0  0  0  0  0  0  0  0  0
  192.5360  172.6200  142.3640 C   0  0  2  0  0  3  0  0  0  0  0  0
  192.9130  175.0170  142.9450 C   0  0  0  0  0  2  0  0  0  0  0  0
  194.0320  175.3590  145.0740 C   0  0  0  0  0  0  0  0  0  0  0  0
  192.1130  172.3130  143.8070 C   0  0  0  0  0  2  0  0  0  0  0  0
  194.9180  174.7990  145.7850 O   0  0  0  0  0  0  0  0  0  0  0  0
  193.4040  173.8520  142.1510 C   0  0  0  0  0  2  0  0  0  0  0  0
  192.5460  173.3520  144.8260 C   0  0  0  0  0  2  0  0  0  0  0  0
  191.3270  172.6860  141.5950 O   0  0  0  0  0  0  0  0  0  0  0  0
  190.4050  171.5320  142.2510 P   0  0  0  0  0  0  0  0  0  0  0  0
  190.5870  170.1820  141.6850 O   0  0  0  0  0  0  0  0  0  0  0  0
  188.9990  171.9210  142.8470 O   0  0  0  0  0  0  0  0  0  0  0  0
  1  2  1  0  0  0  0
  2  4  2  0  0  0  0
  3  5  1  0  0  0  0
  5  1  2  0  0  0  0
  5  6  1  0  0  0  0
  6  7  2  0  0  0  0
  7  4  1  0  0  0  0
 10 15  1  0  0  0  0
 11  9  1  0  0  0  0
 12 11  1  0  0  0  0
 13 14  2  0  0  0  0
 13 16  1  0  0  0  0
 14 18  1  0  0  0  0
 15  9  1  0  0  0  0
 16 17  2  0  0  0  0
 17 10  1  0  0  0  0
 17  1  1  0  0  0  0
 18 19  1  0  0  0  0
 18 10  2  0  0  0  0
 19  8  1  6  0  0  0
 19 12  1  0  0  0  0
 20 14  1  0  0  0  0
 21 20  1  0  0  0  0
 22 23  1  0  0  0  0
 22 21  1  0  0  0  0
 24  6  1  0  0  0  0
 25 24  1  0  0  0  0
 26 33  1  0  0  0  0
 26 29  1  0  0  0  0
 27 34  1  6  0  0  0
 27 30  1  0  0  0  0
 28 26  1  0  0  0  0
 29 25  1  0  0  0  0
 29 31  2  0  0  0  0
 30 33  1  0  0  0  0
 32 27  1  0  0  0  0
 32 28  1  0  0  0  0
 34 35  1  0  0  0  0
 35 37  2  0  0  0  0
 36 35  2  0  0  0  0
M  END
>  <MODEL>
6

>  <REMARK>
 VINA RESULT:      -6.9      2.483      3.038
  Name = 
  9 active torsions:
  status: ('A' for Active; 'I' for Inactive)
    1  A    between atoms: C_4  and  C_29
    2  A    between atoms: P_9  and  O_31
    3  A    between atoms: C_12  and  O_31
    4  A    between atoms: C_14  and  C_23
    5  A    between atoms: C_17  and  C_36
    6  A    between atoms: N_21  and  C_27
    7  A    between atoms: C_23  and  C_27
    8  A    between atoms: C_28  and  O_32
    9  A    between atoms: O_32  and  C_36
                            x       y       z     vdW  Elec       q    Type
                         _______ _______ _______ _____ _____    ______ ____

>  <TORSDO>
F 9

$$$$
=
 OpenBabel11062421513D

 37 40  0  0  1  0  0  0  0  0999 V2000
  190.1050  175.3330  144.2430 C   0  0  0  0  0  0  0  0  0  0  0  0
  190.2100  174.0030  143.9680 N   0  0  0  0  0  0  0  0  0  0  0  0
  191.2410  177.4680  144.7660 O   0  0  0  0  0  1  0  0  0  0  0  0
  191.3040  173.2870  144.3280 C   0  0  0  0  0  3  0  0  0  0  0  0
  191.1820  176.0680  144.7420 C   0  0  0  0  0  0  0  0  0  0  0  0
  192.2840  175.2730  145.1300 C   0  0  0  0  0  0  0  0  0  0  0  0
  192.3530  173.9490  144.9630 C   0  0  0  0  0  3  0  0  0  0  0  0
  185.4200  179.4590  144.4890 O   0  0  0  0  0  1  0  0  0  0  0  0
  187.6460  177.1170  147.1120 C   0  0  0  0  0  2  0  0  0  0  0  0
  187.8880  176.5500  144.6300 C   0  0  0  0  0  0  0  0  0  0  0  0
  186.1420  177.3620  147.3230 C   0  0  0  0  0  2  0  0  0  0  0  0
  185.2570  177.7440  146.1260 C   0  0  0  0  0  2  0  0  0  0  0  0
  187.6960  176.8040  141.8760 N   0  0  0  0  0  0  0  0  0  0  0  0
  186.7360  177.4600  142.6280 C   0  0  0  0  0  0  0  0  0  0  0  0
  187.9710  176.0340  146.0640 C   0  0  0  0  0  2  0  0  0  0  0  0
  188.7700  176.1100  142.3970 C   0  0  0  0  0  3  0  0  0  0  0  0
  188.8470  176.0090  143.7700 C   0  0  0  0  0  0  0  0  0  0  0  0
  186.8470  177.4380  144.1140 C   0  0  0  0  0  0  0  0  0  0  0  0
  186.1570  178.4060  145.1040 C   0  0  1  0  0  3  0  0  0  0  0  0
  185.8440  178.4340  141.7860 C   0  0  0  0  0  2  0  0  0  0  0  0
  185.3040  177.9160  140.5090 C   0  0  0  0  0  2  0  0  0  0  0  0
  183.9530  178.3780  140.4230 N   0  0  0  0  0  2  0  0  0  0  0  0
  183.5270  178.2890  141.8150 C   0  0  0  0  0  1  0  0  0  0  0  0
  193.4050  175.8470  145.7090 O   0  0  0  0  0  0  0  0  0  0  0  0
  194.2390  176.5890  144.8540 C   0  0  0  0  0  2  0  0  0  0  0  0
  195.3840  175.3690  143.1260 N   0  0  0  0  0  0  0  0  0  0  0  0
  196.7570  174.7730  140.6850 C   0  0  2  0  0  3  0  0  0  0  0  0
  195.5840  176.4190  142.1470 C   0  0  0  0  0  2  0  0  0  0  0  0
  195.3420  175.7030  144.4560 C   0  0  0  0  0  0  0  0  0  0  0  0
  195.9790  173.6150  141.3250 C   0  0  0  0  0  2  0  0  0  0  0  0
  195.9870  175.0350  145.3180 O   0  0  0  0  0  0  0  0  0  0  0  0
  196.8780  176.0520  141.5020 C   0  0  0  0  0  2  0  0  0  0  0  0
  195.3450  173.9450  142.6640 C   0  0  0  0  0  2  0  0  0  0  0  0
  196.1450  175.0150  139.4110 O   0  0  0  0  0  0  0  0  0  0  0  0
  197.3170  174.6540  138.3590 P   0  0  0  0  0  0  0  0  0  0  0  0
  197.5510  175.6590  137.3050 O   0  0  0  0  0  0  0  0  0  0  0  0
  197.6250  173.1400  138.0460 O   0  0  0  0  0  0  0  0  0  0  0  0
  1  5  1  0  0  0  0
  2  1  2  0  0  0  0
  2  4  1  0  0  0  0
  4  7  2  0  0  0  0
  5  3  1  0  0  0  0
  5  6  2  0  0  0  0
  6 24  1  0  0  0  0
  7  6  1  0  0  0  0
  9 11  1  0  0  0  0
 10 15  1  0  0  0  0
 12 11  1  0  0  0  0
 13 16  2  0  0  0  0
 13 14  1  0  0  0  0
 14 18  2  0  0  0  0
 15  9  1  0  0  0  0
 16 17  1  0  0  0  0
 17  1  1  0  0  0  0
 17 10  2  0  0  0  0
 18 10  1  0  0  0  0
 18 19  1  0  0  0  0
 19  8  1  6  0  0  0
 19 12  1  0  0  0  0
 20 14  1  0  0  0  0
 21 20  1  0  0  0  0
 22 21  1  0  0  0  0
 22 23  1  0  0  0  0
 25 24  1  0  0  0  0
 26 29  1  0  0  0  0
 27 34  1  6  0  0  0
 27 30  1  0  0  0  0
 27 32  1  0  0  0  0
 28 26  1  0  0  0  0
 29 25  1  0  0  0  0
 29 31  2  0  0  0  0
 30 33  1  0  0  0  0
 32 28  1  0  0  0  0
 33 26  1  0  0  0  0
 35 34  1  0  0  0  0
 36 35  2  0  0  0  0
 37 35  2  0  0  0  0
M  END
>  <MODEL>
7

>  <REMARK>
 VINA RESULT:      -6.8      1.375      1.679
  Name = 
  9 active torsions:
  status: ('A' for Active; 'I' for Inactive)
    1  A    between atoms: C_4  and  C_29
    2  A    between atoms: P_9  and  O_31
    3  A    between atoms: C_12  and  O_31
    4  A    between atoms: C_14  and  C_23
    5  A    between atoms: C_17  and  C_36
    6  A    between atoms: N_21  and  C_27
    7  A    between atoms: C_23  and  C_27
    8  A    between atoms: C_28  and  O_32
    9  A    between atoms: O_32  and  C_36
                            x       y       z     vdW  Elec       q    Type
                         _______ _______ _______ _____ _____    ______ ____

>  <TORSDO>
F 9

$$$$
=
 OpenBabel11062421513D

 37 40  0  0  1  0  0  0  0  0999 V2000
  190.8720  174.2560  144.9620 C   0  0  0  0  0  0  0  0  0  0  0  0
  192.0870  174.7600  145.3150 N   0  0  0  0  0  0  0  0  0  0  0  0
  189.4760  172.2670  144.4940 O   0  0  0  0  0  1  0  0  0  0  0  0
  193.2280  174.0470  145.1450 C   0  0  0  0  0  3  0  0  0  0  0  0
  190.7110  172.9220  144.5790 C   0  0  0  0  0  0  0  0  0  0  0  0
  191.9310  172.2330  144.3870 C   0  0  0  0  0  0  0  0  0  0  0  0
  193.1360  172.7560  144.6280 C   0  0  0  0  0  3  0  0  0  0  0  0
  185.3350  176.8720  143.7230 O   0  0  0  0  0  1  0  0  0  0  0  0
  188.7650  175.7240  141.6650 C   0  0  0  0  0  2  0  0  0  0  0  0
  188.9610  175.7840  144.2150 C   0  0  0  0  0  0  0  0  0  0  0  0
  187.9860  176.9970  141.2930 C   0  0  0  0  0  2  0  0  0  0  0  0
  187.0920  177.6780  142.3410 C   0  0  0  0  0  2  0  0  0  0  0  0
  188.1990  175.9160  146.8760 N   0  0  0  0  0  0  0  0  0  0  0  0
  187.3520  176.5140  145.9590 C   0  0  0  0  0  0  0  0  0  0  0  0
  189.6980  175.8860  142.8820 C   0  0  0  0  0  2  0  0  0  0  0  0
  189.3370  175.2030  146.5550 C   0  0  0  0  0  3  0  0  0  0  0  0
  189.6860  175.1440  145.2220 C   0  0  0  0  0  0  0  0  0  0  0  0
  187.6630  176.3900  144.5050 C   0  0  0  0  0  0  0  0  0  0  0  0
  186.6800  176.6090  143.3310 C   0  0  1  0  0  3  0  0  0  0  0  0
  185.9790  176.9550  146.5720 C   0  0  0  0  0  2  0  0  0  0  0  0
  186.0220  177.9540  147.6630 C   0  0  0  0  0  2  0  0  0  0  0  0
  184.7250  178.5530  147.7140 N   0  0  0  0  0  2  0  0  0  0  0  0
  184.2720  178.3840  146.3380 C   0  0  0  0  0  1  0  0  0  0  0  0
  191.9420  170.9220  143.9400 O   0  0  0  0  0  0  0  0  0  0  0  0
  192.5080  170.6990  142.6720 C   0  0  0  0  0  2  0  0  0  0  0  0
  191.0820  171.4310  140.8780 N   0  0  0  0  0  0  0  0  0  0  0  0
  190.2220  172.4390  138.3400 C   0  0  2  0  0  3  0  0  0  0  0  0
  192.0720  171.8520  139.9070 C   0  0  0  0  0  2  0  0  0  0  0  0
  191.3980  170.4200  141.7500 C   0  0  0  0  0  0  0  0  0  0  0  0
  189.2650  172.6640  139.5190 C   0  0  0  0  0  2  0  0  0  0  0  0
  190.5870  169.4720  141.9720 O   0  0  0  0  0  0  0  0  0  0  0  0
  191.4270  171.5450  138.5970 C   0  0  0  0  0  2  0  0  0  0  0  0
  189.7120  172.0330  140.8250 C   0  0  0  0  0  2  0  0  0  0  0  0
  190.6170  173.7410  137.8860 O   0  0  0  0  0  0  0  0  0  0  0  0
  189.5780  174.0480  136.6860 P   0  0  0  0  0  0  0  0  0  0  0  0
  190.1930  174.2880  135.3670 O   0  0  0  0  0  0  0  0  0  0  0  0
  188.2040  174.7430  137.0210 O   0  0  0  0  0  0  0  0  0  0  0  0
  1 17  1  0  0  0  0
  1  2  1  0  0  0  0
  3  5  1  0  0  0  0
  4  2  2  0  0  0  0
  5  1  2  0  0  0  0
  6  5  1  0  0  0  0
  6  7  2  0  0  0  0
  7  4  1  0  0  0  0
  9 15  1  0  0  0  0
 10 18  2  0  0  0  0
 10 17  1  0  0  0  0
 11  9  1  0  0  0  0
 11 12  1  0  0  0  0
 12 19  1  0  0  0  0
 14 20  1  0  0  0  0
 14 13  2  0  0  0  0
 15 10  1  0  0  0  0
 16 13  1  0  0  0  0
 17 16  2  0  0  0  0
 18 14  1  0  0  0  0
 19  8  1  1  0  0  0
 19 18  1  0  0  0  0
 20 21  1  0  0  0  0
 21 22  1  0  0  0  0
 23 22  1  0  0  0  0
 24  6  1  0  0  0  0
 25 24  1  0  0  0  0
 26 29  1  0  0  0  0
 27 34  1  1  0  0  0
 27 32  1  0  0  0  0
 27 30  1  0  0  0  0
 28 26  1  0  0  0  0
 29 31  2  0  0  0  0
 29 25  1  0  0  0  0
 30 33  1  0  0  0  0
 32 28  1  0  0  0  0
 33 26  1  0  0  0  0
 35 37  2  0  0  0  0
 35 34  1  0  0  0  0
 36 35  2  0  0  0  0
M  END
>  <MODEL>
8

>  <REMARK>
 VINA RESULT:      -6.7      3.908      5.626
  Name = 
  9 active torsions:
  status: ('A' for Active; 'I' for Inactive)
    1  A    between atoms: C_4  and  C_29
    2  A    between atoms: P_9  and  O_31
    3  A    between atoms: C_12  and  O_31
    4  A    between atoms: C_14  and  C_23
    5  A    between atoms: C_17  and  C_36
    6  A    between atoms: N_21  and  C_27
    7  A    between atoms: C_23  and  C_27
    8  A    between atoms: C_28  and  O_32
    9  A    between atoms: O_32  and  C_36
                            x       y       z     vdW  Elec       q    Type
                         _______ _______ _______ _____ _____    ______ ____

>  <TORSDO>
F 9

$$$$
=
 OpenBabel11062421513D

 37 40  0  0  1  0  0  0  0  0999 V2000
  189.9100  173.7350  141.5030 C   0  0  0  0  0  0  0  0  0  0  0  0
  189.2860  172.7450  140.8050 N   0  0  0  0  0  0  0  0  0  0  0  0
  191.9390  175.1080  141.8440 O   0  0  0  0  0  1  0  0  0  0  0  0
  189.9870  171.8100  140.1190 C   0  0  0  0  0  3  0  0  0  0  0  0
  191.2860  173.9500  141.4030 C   0  0  0  0  0  0  0  0  0  0  0  0
  191.9730  172.9320  140.7050 C   0  0  0  0  0  0  0  0  0  0  0  0
  191.3780  171.8960  140.1070 C   0  0  0  0  0  3  0  0  0  0  0  0
  188.3560  177.9110  145.8840 O   0  0  0  0  0  1  0  0  0  0  0  0
  190.5000  174.3550  145.5930 C   0  0  0  0  0  2  0  0  0  0  0  0
  189.0320  174.9400  143.5820 C   0  0  0  0  0  0  0  0  0  0  0  0
  189.6400  174.6830  146.8260 C   0  0  0  0  0  2  0  0  0  0  0  0
  188.4790  175.6830  146.7020 C   0  0  0  0  0  2  0  0  0  0  0  0
  187.4310  176.4330  141.8810 N   0  0  0  0  0  0  0  0  0  0  0  0
  187.4350  176.8050  143.2150 C   0  0  0  0  0  0  0  0  0  0  0  0
  189.6990  173.8280  144.3850 C   0  0  0  0  0  2  0  0  0  0  0  0
  188.2170  175.4380  141.3350 C   0  0  0  0  0  3  0  0  0  0  0  0
  189.0120  174.7190  142.2030 C   0  0  0  0  0  0  0  0  0  0  0  0
  188.3510  176.1000  144.1560 C   0  0  0  0  0  0  0  0  0  0  0  0
  188.8100  176.6020  145.5450 C   0  0  1  0  0  3  0  0  0  0  0  0
  186.7090  178.1680  143.4840 C   0  0  0  0  0  2  0  0  0  0  0  0
  185.7640  178.6400  142.4490 C   0  0  0  0  0  2  0  0  0  0  0  0
  184.4860  178.0950  142.7880 N   0  0  0  0  0  2  0  0  0  0  0  0
  184.1450  178.8720  143.9740 C   0  0  0  0  0  1  0  0  0  0  0  0
  193.3530  172.9630  140.5790 O   0  0  0  0  0  0  0  0  0  0  0  0
  194.0590  171.9050  141.1780 C   0  0  0  0  0  2  0  0  0  0  0  0
  194.7700  173.3620  142.9560 N   0  0  0  0  0  0  0  0  0  0  0  0
  195.0380  174.5360  145.5540 C   0  0  2  0  0  3  0  0  0  0  0  0
  193.9820  172.8440  144.0560 C   0  0  0  0  0  2  0  0  0  0  0  0
  195.1540  172.5060  141.9550 C   0  0  0  0  0  0  0  0  0  0  0  0
  195.2950  175.4650  144.3610 C   0  0  0  0  0  2  0  0  0  0  0  0
  196.3430  172.5020  141.5180 O   0  0  0  0  0  0  0  0  0  0  0  0
  194.8590  173.0560  145.2440 C   0  0  0  0  0  2  0  0  0  0  0  0
  195.2370  174.7840  143.0060 C   0  0  0  0  0  2  0  0  0  0  0  0
  193.9030  175.0720  146.2470 O   0  0  0  0  0  0  0  0  0  0  0  0
  193.8980  176.6270  145.8060 P   0  0  0  0  0  0  0  0  0  0  0  0
  194.5730  177.5490  146.7400 O   0  0  0  0  0  0  0  0  0  0  0  0
  192.7060  177.1710  144.9310 O   0  0  0  0  0  0  0  0  0  0  0  0
  1 17  1  0  0  0  0
  2  1  2  0  0  0  0
  4  2  1  0  0  0  0
  5  1  1  0  0  0  0
  5  3  1  0  0  0  0
  6  5  2  0  0  0  0
  7  4  2  0  0  0  0
  7  6  1  0  0  0  0
  9 11  1  0  0  0  0
 10 18  1  0  0  0  0
 10 15  1  0  0  0  0
 12 11  1  0  0  0  0
 13 14  1  0  0  0  0
 14 20  1  0  0  0  0
 14 18  2  0  0  0  0
 15  9  1  0  0  0  0
 16 13  2  0  0  0  0
 16 17  1  0  0  0  0
 17 10  2  0  0  0  0
 18 19  1  0  0  0  0
 19  8  1  1  0  0  0
 19 12  1  0  0  0  0
 21 22  1  0  0  0  0
 21 20  1  0  0  0  0
 22 23  1  0  0  0  0
 24  6  1  0  0  0  0
 24 25  1  0  0  0  0
 25 29  1  0  0  0  0
 26 33  1  0  0  0  0
 26 28  1  0  0  0  0
 27 34  1  6  0  0  0
 28 32  1  0  0  0  0
 29 26  1  0  0  0  0
 30 27  1  0  0  0  0
 31 29  2  0  0  0  0
 32 27  1  0  0  0  0
 33 30  1  0  0  0  0
 35 34  1  0  0  0  0
 35 36  2  0  0  0  0
 37 35  2  0  0  0  0
M  END
>  <MODEL>
9

>  <REMARK>
 VINA RESULT:      -6.7      2.827      4.740
  Name = 
  9 active torsions:
  status: ('A' for Active; 'I' for Inactive)
    1  A    between atoms: C_4  and  C_29
    2  A    between atoms: P_9  and  O_31
    3  A    between atoms: C_12  and  O_31
    4  A    between atoms: C_14  and  C_23
    5  A    between atoms: C_17  and  C_36
    6  A    between atoms: N_21  and  C_27
    7  A    between atoms: C_23  and  C_27
    8  A    between atoms: C_28  and  O_32
    9  A    between atoms: O_32  and  C_36
                            x       y       z     vdW  Elec       q    Type
                         _______ _______ _______ _____ _____    ______ ____

>  <TORSDO>
F 9

$$$$
