=
 OpenBabel11062418553D

 33 37  0  0  1  0  0  0  0  0999 V2000
  191.6960  175.8740  144.4950 C   0  0  0  0  0  0  0  0  0  0  0  0
  193.0750  175.8820  145.0120 C   0  0  1  0  0  3  0  0  0  0  0  0
  193.4890  176.5150  146.0930 C   0  0  0  0  0  3  0  0  0  0  0  0
  194.6690  175.8700  146.5560 N   0  0  0  0  0  0  0  0  0  0  0  0
  194.9410  174.8630  145.8280 N   0  0  0  0  0  2  0  0  0  0  0  0
  193.2330  173.4520  144.7410 C   0  0  0  0  0  3  0  0  0  0  0  0
  193.9960  174.7520  144.7300 C   0  0  1  0  0  3  0  0  0  0  0  0
  191.9240  173.4130  144.4340 C   0  0  0  0  0  0  0  0  0  0  0  0
  191.1590  174.6790  144.2170 C   0  0  0  0  0  3  0  0  0  0  0  0
  187.7410  176.8620  146.7060 C   0  0  0  0  0  2  0  0  0  0  0  0
  189.4700  176.9280  144.9240 C   0  0  2  0  0  3  0  0  0  0  0  0
  186.7760  177.0410  145.5310 C   0  0  0  0  0  3  0  0  0  0  0  0
  190.8690  177.1130  144.3460 C   0  0  2  0  0  3  0  0  0  0  0  0
  187.1750  177.4450  144.3030 C   0  0  0  0  0  0  0  0  0  0  0  0
  188.6040  177.8820  144.1430 C   0  0  2  0  0  3  0  0  0  0  0  0
  188.7660  178.2130  141.7400 O   0  0  0  0  0  0  0  0  0  0  0  0
  189.2750  177.8300  142.8250 C   0  0  0  0  0  0  0  0  0  0  0  0
  189.2230  177.1830  146.3950 C   0  0  0  0  0  2  0  0  0  0  0  0
  190.6300  177.4160  142.9390 N   0  0  0  0  0  2  0  0  0  0  0  0
  185.5340  176.4400  142.9010 F   0  0  0  0  0  0  0  0  0  0  0  0
  186.1780  177.6290  143.1950 C   0  0  1  0  0  3  0  0  0  0  0  0
  185.6150  179.9580  143.9220 O   0  0  0  0  0  1  0  0  0  0  0  0
  185.1870  178.6990  143.5180 C   0  0  0  0  0  0  0  0  0  0  0  0
  183.9570  178.4560  143.4250 O   0  0  0  0  0  0  0  0  0  0  0  0
  191.2910  172.1700  144.3590 O   0  0  0  0  0  0  0  0  0  0  0  0
  191.5260  171.2630  143.2910 C   0  0  0  0  0  2  0  0  0  0  0  0
  190.4180  173.5260  140.7150 C   0  0  0  0  0  3  0  0  0  0  0  0
  190.5240  171.5000  142.1760 C   0  0  1  0  0  3  0  0  0  0  0  0
  189.0880  173.8340  141.2530 C   0  0  0  0  0  0  0  0  0  0  0  0
  188.4390  174.8190  140.8120 O   0  0  0  0  0  0  0  0  0  0  0  0
  189.2040  171.9360  142.7660 C   0  0  0  0  0  3  0  0  0  0  0  0
  188.5330  173.0030  142.3270 C   0  0  0  0  0  3  0  0  0  0  0  0
  191.0890  172.4600  141.1530 C   0  0  0  0  0  3  0  0  0  0  0  0
  1  2  1  0  0  0  0
  2  3  1  1  0  0  0
  3  4  2  0  0  0  0
  5  4  1  0  0  0  0
  7  6  1  1  0  0  0
  7  2  1  0  0  0  0
  7  5  1  0  0  0  0
  8  6  2  0  0  0  0
  9  8  1  0  0  0  0
  9  1  2  0  0  0  0
 11 18  1  1  0  0  0
 12 10  1  0  0  0  0
 13  1  1  6  0  0  0
 13 11  1  0  0  0  0
 14 12  2  0  0  0  0
 15 17  1  6  0  0  0
 15 14  1  0  0  0  0
 15 11  1  0  0  0  0
 16 17  2  0  0  0  0
 17 19  1  0  0  0  0
 18 10  1  0  0  0  0
 19 13  1  0  0  0  0
 21 20  1  1  0  0  0
 21 23  1  0  0  0  0
 21 14  1  0  0  0  0
 23 22  1  0  0  0  0
 24 23  2  0  0  0  0
 25  8  1  0  0  0  0
 26 25  1  0  0  0  0
 27 33  2  0  0  0  0
 27 29  1  0  0  0  0
 28 31  1  0  0  0  0
 28 26  1  1  0  0  0
 29 32  1  0  0  0  0
 30 29  2  0  0  0  0
 32 31  2  0  0  0  0
 33 28  1  0  0  0  0
M  END
>  <MODEL>
1

>  <REMARK>
 VINA RESULT:      -7.8      0.000      0.000
  Name = 
  6 active torsions:
  status: ('A' for Active; 'I' for Inactive)
    1  A    between atoms: C_5  and  C_6
    2  A    between atoms: C_7  and  C_29
    3  A    between atoms: C_10  and  C_14
    4  A    between atoms: C_14  and  O_32
    5  A    between atoms: C_23  and  C_29
    6  A    between atoms: C_24  and  O_32
                            x       y       z     vdW  Elec       q    Type
                         _______ _______ _______ _____ _____    ______ ____

>  <TORSDO>
F 6

$$$$
=
 OpenBabel11062418553D

 33 37  0  0  1  0  0  0  0  0999 V2000
  190.5380  174.6800  144.2760 C   0  0  0  0  0  0  0  0  0  0  0  0
  189.6920  173.6480  143.6550 C   0  0  1  0  0  3  0  0  0  0  0  0
  189.1110  173.7360  142.4720 C   0  0  0  0  0  3  0  0  0  0  0  0
  188.8670  172.4150  142.0030 N   0  0  0  0  0  0  0  0  0  0  0  0
  189.3170  171.5590  142.8280 N   0  0  0  0  0  2  0  0  0  0  0  0
  191.3260  171.9110  144.2180 C   0  0  0  0  0  3  0  0  0  0  0  0
  189.8650  172.2150  144.0040 C   0  0  1  0  0  3  0  0  0  0  0  0
  192.1800  172.8650  144.6290 C   0  0  0  0  0  0  0  0  0  0  0  0
  191.7300  174.2870  144.7450 C   0  0  0  0  0  3  0  0  0  0  0  0
  186.9720  176.5370  146.5880 C   0  0  0  0  0  2  0  0  0  0  0  0
  188.7400  176.3180  144.8580 C   0  0  2  0  0  3  0  0  0  0  0  0
  186.1900  177.2010  145.4520 C   0  0  0  0  0  3  0  0  0  0  0  0
  190.1590  176.1270  144.3320 C   0  0  2  0  0  3  0  0  0  0  0  0
  186.7730  177.6410  144.3130 C   0  0  0  0  0  0  0  0  0  0  0  0
  188.2730  177.6100  144.2410 C   0  0  2  0  0  3  0  0  0  0  0  0
  188.6830  178.2440  141.9300 O   0  0  0  0  0  0  0  0  0  0  0  0
  188.9740  177.5510  142.9400 C   0  0  0  0  0  0  0  0  0  0  0  0
  188.4960  176.4040  146.3480 C   0  0  0  0  0  2  0  0  0  0  0  0
  190.1170  176.7080  142.9940 N   0  0  0  0  0  2  0  0  0  0  0  0
  185.2630  177.3790  142.4910 F   0  0  0  0  0  0  0  0  0  0  0  0
  185.9570  178.3090  143.2440 C   0  0  1  0  0  3  0  0  0  0  0  0
  183.6660  179.0560  143.9240 O   0  0  0  0  0  0  0  0  0  0  0  0
  185.0250  179.3260  143.8160 C   0  0  0  0  0  0  0  0  0  0  0  0
  185.4760  180.4360  144.2000 O   0  0  0  0  0  1  0  0  0  0  0  0
  193.5000  172.5060  144.9120 O   0  0  0  0  0  0  0  0  0  0  0  0
  194.5320  172.5890  143.9390 C   0  0  0  0  0  2  0  0  0  0  0  0
  195.1460  175.3900  146.1210 C   0  0  0  0  0  3  0  0  0  0  0  0
  195.4190  173.7890  144.2210 C   0  0  1  0  0  3  0  0  0  0  0  0
  194.8960  176.4730  145.1610 C   0  0  0  0  0  0  0  0  0  0  0  0
  194.7230  177.6520  145.5680 O   0  0  0  0  0  0  0  0  0  0  0  0
  195.0450  174.9230  143.2950 C   0  0  0  0  0  3  0  0  0  0  0  0
  194.8220  176.1650  143.7290 C   0  0  0  0  0  3  0  0  0  0  0  0
  195.3690  174.1480  145.6880 C   0  0  0  0  0  3  0  0  0  0  0  0
  1  9  2  0  0  0  0
  2  3  1  6  0  0  0
  2  7  1  0  0  0  0
  2  1  1  0  0  0  0
  4  3  2  0  0  0  0
  4  5  1  0  0  0  0
  5  7  1  0  0  0  0
  6  8  2  0  0  0  0
  7  6  1  6  0  0  0
  8  9  1  0  0  0  0
  8 25  1  0  0  0  0
 11 18  1  1  0  0  0
 12 10  1  0  0  0  0
 13  1  1  6  0  0  0
 13 11  1  0  0  0  0
 14 12  2  0  0  0  0
 15 17  1  6  0  0  0
 15 14  1  0  0  0  0
 15 11  1  0  0  0  0
 16 17  2  0  0  0  0
 17 19  1  0  0  0  0
 18 10  1  0  0  0  0
 19 13  1  0  0  0  0
 21 20  1  1  0  0  0
 21 23  1  0  0  0  0
 21 14  1  0  0  0  0
 23 22  2  0  0  0  0
 23 24  1  0  0  0  0
 26 25  1  0  0  0  0
 28 26  1  1  0  0  0
 28 33  1  0  0  0  0
 29 30  2  0  0  0  0
 29 27  1  0  0  0  0
 31 32  2  0  0  0  0
 31 28  1  0  0  0  0
 32 29  1  0  0  0  0
 33 27  2  0  0  0  0
M  END
>  <MODEL>
2

>  <REMARK>
 VINA RESULT:      -7.6      2.165      4.256
  Name = 
  6 active torsions:
  status: ('A' for Active; 'I' for Inactive)
    1  A    between atoms: C_5  and  C_6
    2  A    between atoms: C_7  and  C_29
    3  A    between atoms: C_10  and  C_14
    4  A    between atoms: C_14  and  O_32
    5  A    between atoms: C_23  and  C_29
    6  A    between atoms: C_24  and  O_32
                            x       y       z     vdW  Elec       q    Type
                         _______ _______ _______ _____ _____    ______ ____

>  <TORSDO>
F 6

$$$$
=
 OpenBabel11062418553D

 33 37  0  0  1  0  0  0  0  0999 V2000
  188.4130  177.5110  142.7860 C   0  0  0  0  0  0  0  0  0  0  0  0
  187.5050  177.8010  141.6650 C   0  0  1  0  0  3  0  0  0  0  0  0
  187.2260  176.9840  140.6660 C   0  0  0  0  0  3  0  0  0  0  0  0
  185.9660  177.3640  140.1260 N   0  0  0  0  0  0  0  0  0  0  0  0
  185.4710  178.3310  140.7870 N   0  0  0  0  0  2  0  0  0  0  0  0
  185.8050  178.6540  143.2100 C   0  0  0  0  0  3  0  0  0  0  0  0
  186.3890  178.7680  141.8250 C   0  0  1  0  0  3  0  0  0  0  0  0
  186.5530  178.2330  144.2460 C   0  0  0  0  0  0  0  0  0  0  0  0
  187.9430  177.7280  144.0210 C   0  0  0  0  0  3  0  0  0  0  0  0
  189.7260  173.1690  143.7550 C   0  0  0  0  0  2  0  0  0  0  0  0
  189.9350  175.6150  143.3720 C   0  0  2  0  0  3  0  0  0  0  0  0
  190.8430  173.4130  144.7740 C   0  0  0  0  0  3  0  0  0  0  0  0
  189.7790  176.9230  142.6040 C   0  0  2  0  0  3  0  0  0  0  0  0
  191.5900  174.5410  144.7950 C   0  0  0  0  0  0  0  0  0  0  0  0
  191.4090  175.5180  143.6690 C   0  0  2  0  0  3  0  0  0  0  0  0
  192.7760  177.3920  144.3990 O   0  0  0  0  0  0  0  0  0  0  0  0
  191.7380  176.9510  143.8410 C   0  0  0  0  0  0  0  0  0  0  0  0
  189.5090  174.3110  142.7320 C   0  0  0  0  0  2  0  0  0  0  0  0
  190.8010  177.7900  143.1790 N   0  0  0  0  0  2  0  0  0  0  0  0
  192.2540  174.3890  147.0770 F   0  0  0  0  0  0  0  0  0  0  0  0
  192.6900  174.7120  145.8040 C   0  0  1  0  0  3  0  0  0  0  0  0
  193.9960  172.5760  145.8070 O   0  0  0  0  0  1  0  0  0  0  0  0
  193.8980  173.9140  145.4410 C   0  0  0  0  0  0  0  0  0  0  0  0
  194.8360  174.4590  144.8030 O   0  0  0  0  0  0  0  0  0  0  0  0
  185.9930  178.2440  145.5250 O   0  0  0  0  0  0  0  0  0  0  0  0
  185.7370  177.0500  146.2510 C   0  0  0  0  0  2  0  0  0  0  0  0
  188.8310  178.2720  147.6360 C   0  0  0  0  0  3  0  0  0  0  0  0
  186.8030  176.8460  147.3120 C   0  0  1  0  0  3  0  0  0  0  0  0
  189.6820  177.1200  147.3190 C   0  0  0  0  0  0  0  0  0  0  0  0
  190.9360  177.2240  147.3750 O   0  0  0  0  0  0  0  0  0  0  0  0
  187.7330  175.7340  146.8870 C   0  0  0  0  0  3  0  0  0  0  0  0
  189.0620  175.8560  146.9080 C   0  0  0  0  0  3  0  0  0  0  0  0
  187.5020  178.1520  147.6160 C   0  0  0  0  0  3  0  0  0  0  0  0
  1  9  2  0  0  0  0
  2  3  1  1  0  0  0
  2  7  1  0  0  0  0
  2  1  1  0  0  0  0
  4  3  2  0  0  0  0
  4  5  1  0  0  0  0
  5  7  1  0  0  0  0
  6  8  2  0  0  0  0
  7  6  1  1  0  0  0
  8 25  1  0  0  0  0
  9  8  1  0  0  0  0
 10 12  1  0  0  0  0
 11 18  1  6  0  0  0
 11 15  1  0  0  0  0
 12 14  2  0  0  0  0
 13  1  1  1  0  0  0
 13 19  1  0  0  0  0
 13 11  1  0  0  0  0
 14 21  1  0  0  0  0
 15 17  1  1  0  0  0
 15 14  1  0  0  0  0
 17 16  2  0  0  0  0
 18 10  1  0  0  0  0
 19 17  1  0  0  0  0
 21 20  1  1  0  0  0
 23 21  1  0  0  0  0
 23 22  1  0  0  0  0
 24 23  2  0  0  0  0
 25 26  1  0  0  0  0
 28 26  1  6  0  0  0
 28 33  1  0  0  0  0
 29 30  2  0  0  0  0
 29 27  1  0  0  0  0
 31 32  2  0  0  0  0
 31 28  1  0  0  0  0
 32 29  1  0  0  0  0
 33 27  2  0  0  0  0
M  END
>  <MODEL>
3

>  <REMARK>
 VINA RESULT:      -7.5      2.875      7.397
  Name = 
  6 active torsions:
  status: ('A' for Active; 'I' for Inactive)
    1  A    between atoms: C_5  and  C_6
    2  A    between atoms: C_7  and  C_29
    3  A    between atoms: C_10  and  C_14
    4  A    between atoms: C_14  and  O_32
    5  A    between atoms: C_23  and  C_29
    6  A    between atoms: C_24  and  O_32
                            x       y       z     vdW  Elec       q    Type
                         _______ _______ _______ _____ _____    ______ ____

>  <TORSDO>
F 6

$$$$
=
 OpenBabel11062418553D

 33 37  0  0  1  0  0  0  0  0999 V2000
  189.5530  174.9050  142.5150 C   0  0  0  0  0  0  0  0  0  0  0  0
  189.1810  173.9590  141.4500 C   0  0  1  0  0  3  0  0  0  0  0  0
  188.8640  174.2790  140.2090 C   0  0  0  0  0  3  0  0  0  0  0  0
  189.1050  173.1440  139.3870 N   0  0  0  0  0  0  0  0  0  0  0  0
  189.5910  172.1910  140.0740 N   0  0  0  0  0  2  0  0  0  0  0  0
  191.0770  172.5140  142.0170 C   0  0  0  0  0  3  0  0  0  0  0  0
  189.6700  172.5570  141.4780 C   0  0  1  0  0  3  0  0  0  0  0  0
  191.5230  173.4540  142.8700 C   0  0  0  0  0  0  0  0  0  0  0  0
  190.6790  174.6460  143.1920 C   0  0  0  0  0  3  0  0  0  0  0  0
  189.8620  177.5410  146.3180 C   0  0  0  0  0  2  0  0  0  0  0  0
  188.8580  176.5310  144.2840 C   0  0  2  0  0  3  0  0  0  0  0  0
  188.4240  177.4870  146.8400 C   0  0  0  0  0  3  0  0  0  0  0  0
  188.7810  176.1550  142.8080 C   0  0  2  0  0  3  0  0  0  0  0  0
  187.3530  177.2970  146.0350 C   0  0  0  0  0  0  0  0  0  0  0  0
  187.5880  177.2960  144.5510 C   0  0  2  0  0  3  0  0  0  0  0  0
  185.4050  176.6550  143.6930 O   0  0  0  0  0  0  0  0  0  0  0  0
  186.6610  176.5990  143.6320 C   0  0  0  0  0  0  0  0  0  0  0  0
  190.0140  177.3670  144.7870 C   0  0  0  0  0  2  0  0  0  0  0  0
  187.3550  175.9550  142.5720 N   0  0  0  0  0  2  0  0  0  0  0  0
  185.9340  176.6550  147.8360 F   0  0  0  0  0  0  0  0  0  0  0  0
  185.9620  177.2790  146.6010 C   0  0  1  0  0  3  0  0  0  0  0  0
  185.8260  179.5400  147.6680 O   0  0  0  0  0  1  0  0  0  0  0  0
  185.3860  178.6530  146.6920 C   0  0  0  0  0  0  0  0  0  0  0  0
  184.4940  179.0090  145.8790 O   0  0  0  0  0  0  0  0  0  0  0  0
  192.7990  173.3100  143.4180 O   0  0  0  0  0  0  0  0  0  0  0  0
  193.0280  172.6020  144.6290 C   0  0  0  0  0  2  0  0  0  0  0  0
  193.1380  175.8360  146.2150 C   0  0  0  0  0  3  0  0  0  0  0  0
  193.7600  173.4890  145.6200 C   0  0  1  0  0  3  0  0  0  0  0  0
  194.4150  176.3050  145.6660 C   0  0  0  0  0  0  0  0  0  0  0  0
  194.7260  177.5230  145.7350 O   0  0  0  0  0  0  0  0  0  0  0  0
  195.0040  174.0510  144.9740 C   0  0  0  0  0  3  0  0  0  0  0  0
  195.3140  175.3480  145.0120 C   0  0  0  0  0  3  0  0  0  0  0  0
  192.8260  174.5400  146.1780 C   0  0  0  0  0  3  0  0  0  0  0  0
  1  9  2  0  0  0  0
  2  3  1  6  0  0  0
  2  7  1  0  0  0  0
  2  1  1  0  0  0  0
  4  5  1  0  0  0  0
  4  3  2  0  0  0  0
  5  7  1  0  0  0  0
  6  8  2  0  0  0  0
  7  6  1  6  0  0  0
  8  9  1  0  0  0  0
  8 25  1  0  0  0  0
 10 12  1  0  0  0  0
 11 15  1  0  0  0  0
 11 18  1  6  0  0  0
 13  1  1  1  0  0  0
 13 11  1  0  0  0  0
 14 21  1  0  0  0  0
 14 12  2  0  0  0  0
 15 17  1  6  0  0  0
 15 14  1  0  0  0  0
 17 16  2  0  0  0  0
 18 10  1  0  0  0  0
 19 13  1  0  0  0  0
 19 17  1  0  0  0  0
 21 23  1  0  0  0  0
 21 20  1  1  0  0  0
 23 22  1  0  0  0  0
 24 23  2  0  0  0  0
 25 26  1  0  0  0  0
 28 26  1  6  0  0  0
 28 33  1  0  0  0  0
 29 30  2  0  0  0  0
 29 27  1  0  0  0  0
 31 32  2  0  0  0  0
 31 28  1  0  0  0  0
 32 29  1  0  0  0  0
 33 27  2  0  0  0  0
M  END
>  <MODEL>
4

>  <REMARK>
 VINA RESULT:      -7.4      2.862      4.873
  Name = 
  6 active torsions:
  status: ('A' for Active; 'I' for Inactive)
    1  A    between atoms: C_5  and  C_6
    2  A    between atoms: C_7  and  C_29
    3  A    between atoms: C_10  and  C_14
    4  A    between atoms: C_14  and  O_32
    5  A    between atoms: C_23  and  C_29
    6  A    between atoms: C_24  and  O_32
                            x       y       z     vdW  Elec       q    Type
                         _______ _______ _______ _____ _____    ______ ____

>  <TORSDO>
F 6

$$$$
=
 OpenBabel11062418553D

 33 37  0  0  1  0  0  0  0  0999 V2000
  193.2780  175.1830  144.4480 C   0  0  0  0  0  0  0  0  0  0  0  0
  194.7100  174.9390  144.6870 C   0  0  1  0  0  3  0  0  0  0  0  0
  195.3090  174.9500  145.8630 C   0  0  0  0  0  3  0  0  0  0  0  0
  196.4920  174.1660  145.7620 N   0  0  0  0  0  0  0  0  0  0  0  0
  196.5910  173.6570  144.6000 N   0  0  0  0  0  2  0  0  0  0  0  0
  194.6580  172.9690  143.2300 C   0  0  0  0  0  3  0  0  0  0  0  0
  195.5030  174.1060  143.7480 C   0  0  1  0  0  3  0  0  0  0  0  0
  193.3200  173.0820  143.1460 C   0  0  0  0  0  0  0  0  0  0  0  0
  192.6250  174.2840  143.7020 C   0  0  0  0  0  3  0  0  0  0  0  0
  189.7090  174.9160  147.3970 C   0  0  0  0  0  2  0  0  0  0  0  0
  191.2030  175.8740  145.6590 C   0  0  2  0  0  3  0  0  0  0  0  0
  188.6200  175.6620  146.6210 C   0  0  0  0  0  3  0  0  0  0  0  0
  192.5290  176.3270  145.0580 C   0  0  2  0  0  3  0  0  0  0  0  0
  188.8910  176.6300  145.7150 C   0  0  0  0  0  0  0  0  0  0  0  0
  190.3160  177.0900  145.5920 C   0  0  2  0  0  3  0  0  0  0  0  0
  190.2010  178.5880  143.6800 O   0  0  0  0  0  0  0  0  0  0  0  0
  190.8130  177.7110  144.3440 C   0  0  0  0  0  0  0  0  0  0  0  0
  191.1600  175.3520  147.0790 C   0  0  0  0  0  2  0  0  0  0  0  0
  192.1390  177.2970  144.0410 N   0  0  0  0  0  2  0  0  0  0  0  0
  187.4740  176.7260  143.8040 F   0  0  0  0  0  0  0  0  0  0  0  0
  187.7790  177.3460  145.0030 C   0  0  1  0  0  3  0  0  0  0  0  0
  186.5550  178.3090  146.9640 O   0  0  0  0  0  1  0  0  0  0  0  0
  186.5620  177.4640  145.8600 C   0  0  0  0  0  0  0  0  0  0  0  0
  185.5370  176.7900  145.5810 O   0  0  0  0  0  0  0  0  0  0  0  0
  192.5960  172.0400  142.5640 O   0  0  0  0  0  0  0  0  0  0  0  0
  191.6080  171.3110  143.2800 C   0  0  0  0  0  2  0  0  0  0  0  0
  189.7290  173.1520  140.8180 C   0  0  0  0  0  3  0  0  0  0  0  0
  190.2250  171.6590  142.7610 C   0  0  1  0  0  3  0  0  0  0  0  0
  189.0420  174.0840  141.7200 C   0  0  0  0  0  0  0  0  0  0  0  0
  188.4800  175.1120  141.2600 O   0  0  0  0  0  0  0  0  0  0  0  0
  189.6030  172.7130  143.6470 C   0  0  0  0  0  3  0  0  0  0  0  0
  189.0420  173.8230  143.1630 C   0  0  0  0  0  3  0  0  0  0  0  0
  190.2900  172.0420  141.2990 C   0  0  0  0  0  3  0  0  0  0  0  0
  1  2  1  0  0  0  0
  2  3  1  1  0  0  0
  4  3  2  0  0  0  0
  5  4  1  0  0  0  0
  7  6  1  1  0  0  0
  7  5  1  0  0  0  0
  7  2  1  0  0  0  0
  8  6  2  0  0  0  0
  8  9  1  0  0  0  0
  9  1  2  0  0  0  0
 11 18  1  1  0  0  0
 12 10  1  0  0  0  0
 13  1  1  6  0  0  0
 13 11  1  0  0  0  0
 14 12  2  0  0  0  0
 15 17  1  6  0  0  0
 15 11  1  0  0  0  0
 15 14  1  0  0  0  0
 16 17  2  0  0  0  0
 18 10  1  0  0  0  0
 19 17  1  0  0  0  0
 19 13  1  0  0  0  0
 21 20  1  6  0  0  0
 21 14  1  0  0  0  0
 21 23  1  0  0  0  0
 23 22  1  0  0  0  0
 24 23  2  0  0  0  0
 25  8  1  0  0  0  0
 25 26  1  0  0  0  0
 27 33  2  0  0  0  0
 27 29  1  0  0  0  0
 28 26  1  1  0  0  0
 28 31  1  0  0  0  0
 29 32  1  0  0  0  0
 30 29  2  0  0  0  0
 32 31  2  0  0  0  0
 33 28  1  0  0  0  0
M  END
>  <MODEL>
5

>  <REMARK>
 VINA RESULT:      -7.1      1.694      2.121
  Name = 
  6 active torsions:
  status: ('A' for Active; 'I' for Inactive)
    1  A    between atoms: C_5  and  C_6
    2  A    between atoms: C_7  and  C_29
    3  A    between atoms: C_10  and  C_14
    4  A    between atoms: C_14  and  O_32
    5  A    between atoms: C_23  and  C_29
    6  A    between atoms: C_24  and  O_32
                            x       y       z     vdW  Elec       q    Type
                         _______ _______ _______ _____ _____    ______ ____

>  <TORSDO>
F 6

$$$$
=
 OpenBabel11062418553D

 33 37  0  0  1  0  0  0  0  0999 V2000
  192.4890  176.4610  143.8270 C   0  0  0  0  0  0  0  0  0  0  0  0
  193.6710  176.3630  144.6990 C   0  0  1  0  0  3  0  0  0  0  0  0
  193.6570  176.3510  146.0190 C   0  0  0  0  0  3  0  0  0  0  0  0
  194.8490  175.7150  146.4650 N   0  0  0  0  0  0  0  0  0  0  0  0
  195.5370  175.3120  145.4750 N   0  0  0  0  0  2  0  0  0  0  0  0
  194.5590  174.5170  143.3530 C   0  0  0  0  0  3  0  0  0  0  0  0
  194.9100  175.6990  144.2220 C   0  0  1  0  0  3  0  0  0  0  0  0
  193.4060  174.4840  142.6600 C   0  0  0  0  0  0  0  0  0  0  0  0
  192.3780  175.5540  142.8480 C   0  0  0  0  0  3  0  0  0  0  0  0
  188.8730  176.0720  146.7050 C   0  0  0  0  0  2  0  0  0  0  0  0
  190.1980  176.8470  144.7520 C   0  0  2  0  0  3  0  0  0  0  0  0
  187.6980  176.1890  145.7300 C   0  0  0  0  0  3  0  0  0  0  0  0
  191.3950  177.4630  144.0380 C   0  0  2  0  0  3  0  0  0  0  0  0
  187.7720  176.8680  144.5620 C   0  0  0  0  0  0  0  0  0  0  0  0
  189.0180  177.6660  144.2980 C   0  0  2  0  0  3  0  0  0  0  0  0
  188.6720  178.4020  142.0060 O   0  0  0  0  0  0  0  0  0  0  0  0
  189.4380  177.9910  142.9170 C   0  0  0  0  0  0  0  0  0  0  0  0
  190.1680  176.7960  146.2640 C   0  0  0  0  0  2  0  0  0  0  0  0
  190.8490  177.9140  142.7630 N   0  0  0  0  0  2  0  0  0  0  0  0
  185.9440  175.7460  143.5280 F   0  0  0  0  0  0  0  0  0  0  0  0
  186.5780  176.9700  143.6570 C   0  0  1  0  0  3  0  0  0  0  0  0
  185.9630  178.8730  145.1640 O   0  0  0  0  0  1  0  0  0  0  0  0
  185.6190  178.0140  144.1260 C   0  0  0  0  0  0  0  0  0  0  0  0
  184.4900  178.1120  143.5800 O   0  0  0  0  0  0  0  0  0  0  0  0
  193.1780  173.4140  141.7920 O   0  0  0  0  0  0  0  0  0  0  0  0
  191.9820  173.2960  141.0330 C   0  0  0  0  0  2  0  0  0  0  0  0
  189.3420  173.5490  143.4730 C   0  0  0  0  0  3  0  0  0  0  0  0
  190.9330  172.5410  141.8290 C   0  0  1  0  0  3  0  0  0  0  0  0
  189.9560  172.7540  144.5420 C   0  0  0  0  0  0  0  0  0  0  0  0
  189.4960  172.8040  145.7130 O   0  0  0  0  0  0  0  0  0  0  0  0
  191.5900  171.8380  142.9930 C   0  0  0  0  0  3  0  0  0  0  0  0
  191.1270  171.9230  144.2420 C   0  0  0  0  0  3  0  0  0  0  0  0
  189.8030  173.4650  142.2230 C   0  0  0  0  0  3  0  0  0  0  0  0
  1  2  1  0  0  0  0
  2  3  1  1  0  0  0
  3  4  2  0  0  0  0
  5  4  1  0  0  0  0
  7  6  1  6  0  0  0
  7  2  1  0  0  0  0
  7  5  1  0  0  0  0
  8  9  1  0  0  0  0
  8  6  2  0  0  0  0
  9  1  2  0  0  0  0
 11 18  1  1  0  0  0
 12 10  1  0  0  0  0
 13  1  1  6  0  0  0
 13 11  1  0  0  0  0
 14 12  2  0  0  0  0
 15 17  1  6  0  0  0
 15 14  1  0  0  0  0
 15 11  1  0  0  0  0
 16 17  2  0  0  0  0
 18 10  1  0  0  0  0
 19 17  1  0  0  0  0
 19 13  1  0  0  0  0
 21 20  1  1  0  0  0
 21 23  1  0  0  0  0
 21 14  1  0  0  0  0
 23 22  1  0  0  0  0
 24 23  2  0  0  0  0
 25  8  1  0  0  0  0
 26 25  1  0  0  0  0
 27 29  1  0  0  0  0
 28 26  1  1  0  0  0
 28 33  1  0  0  0  0
 28 31  1  0  0  0  0
 29 30  2  0  0  0  0
 31 32  2  0  0  0  0
 32 29  1  0  0  0  0
 33 27  2  0  0  0  0
M  END
>  <MODEL>
6

>  <REMARK>
 VINA RESULT:      -7.0      1.354      1.969
  Name = 
  6 active torsions:
  status: ('A' for Active; 'I' for Inactive)
    1  A    between atoms: C_5  and  C_6
    2  A    between atoms: C_7  and  C_29
    3  A    between atoms: C_10  and  C_14
    4  A    between atoms: C_14  and  O_32
    5  A    between atoms: C_23  and  C_29
    6  A    between atoms: C_24  and  O_32
                            x       y       z     vdW  Elec       q    Type
                         _______ _______ _______ _____ _____    ______ ____

>  <TORSDO>
F 6

$$$$
=
 OpenBabel11062418553D

 33 37  0  0  1  0  0  0  0  0999 V2000
  190.5010  175.9150  144.4820 C   0  0  0  0  0  0  0  0  0  0  0  0
  191.6690  176.3290  145.2780 C   0  0  1  0  0  3  0  0  0  0  0  0
  191.9620  175.9090  146.4940 C   0  0  0  0  0  3  0  0  0  0  0  0
  193.3610  176.0790  146.6920 N   0  0  0  0  0  0  0  0  0  0  0  0
  193.9090  176.5320  145.6380 N   0  0  0  0  0  2  0  0  0  0  0  0
  193.1480  175.9950  143.3530 C   0  0  0  0  0  3  0  0  0  0  0  0
  192.9130  176.7910  144.6120 C   0  0  1  0  0  3  0  0  0  0  0  0
  192.1220  175.4510  142.6740 C   0  0  0  0  0  0  0  0  0  0  0  0
  190.7350  175.4990  143.2310 C   0  0  0  0  0  3  0  0  0  0  0  0
  186.5770  176.9030  142.2180 C   0  0  0  0  0  2  0  0  0  0  0  0
  188.1250  176.6120  144.1380 C   0  0  2  0  0  3  0  0  0  0  0  0
  186.0160  178.0440  143.0700 C   0  0  0  0  0  3  0  0  0  0  0  0
  189.1090  175.8670  145.0330 C   0  0  2  0  0  3  0  0  0  0  0  0
  186.2800  178.1780  144.3910 C   0  0  0  0  0  0  0  0  0  0  0  0
  187.0290  177.0650  145.0680 C   0  0  2  0  0  3  0  0  0  0  0  0
  187.4190  177.9910  147.2820 O   0  0  0  0  0  0  0  0  0  0  0  0
  187.8130  177.3110  146.2990 C   0  0  0  0  0  0  0  0  0  0  0  0
  187.4730  175.8940  142.9760 C   0  0  0  0  0  2  0  0  0  0  0  0
  189.0280  176.5730  146.3070 N   0  0  0  0  0  2  0  0  0  0  0  0
  185.5640  180.4490  144.4120 F   0  0  0  0  0  0  0  0  0  0  0  0
  185.6800  179.3040  145.1820 C   0  0  1  0  0  3  0  0  0  0  0  0
  184.2740  178.4420  147.0660 O   0  0  0  0  0  1  0  0  0  0  0  0
  184.3590  178.9250  145.7650 C   0  0  0  0  0  0  0  0  0  0  0  0
  183.3160  179.0420  145.0710 O   0  0  0  0  0  0  0  0  0  0  0  0
  192.3860  174.8120  141.4600 O   0  0  0  0  0  0  0  0  0  0  0  0
  192.7870  173.4500  141.3920 C   0  0  0  0  0  2  0  0  0  0  0  0
  189.3030  173.3900  140.4750 C   0  0  0  0  0  3  0  0  0  0  0  0
  191.6040  172.5770  141.0160 C   0  0  1  0  0  3  0  0  0  0  0  0
  188.7830  172.6690  141.6420 C   0  0  0  0  0  0  0  0  0  0  0  0
  187.5470  172.6640  141.8840 O   0  0  0  0  0  0  0  0  0  0  0  0
  191.0200  171.9520  142.2620 C   0  0  0  0  0  3  0  0  0  0  0  0
  189.7150  171.9800  142.5400 C   0  0  0  0  0  3  0  0  0  0  0  0
  190.6070  173.3620  140.1950 C   0  0  0  0  0  3  0  0  0  0  0  0
  1  2  1  0  0  0  0
  2  3  1  6  0  0  0
  3  4  2  0  0  0  0
  5  4  1  0  0  0  0
  7  6  1  6  0  0  0
  7  2  1  0  0  0  0
  7  5  1  0  0  0  0
  8  9  1  0  0  0  0
  8  6  2  0  0  0  0
  9  1  2  0  0  0  0
 10 18  1  0  0  0  0
 10 12  1  0  0  0  0
 11 18  1  6  0  0  0
 11 13  1  0  0  0  0
 11 15  1  0  0  0  0
 12 14  2  0  0  0  0
 13  1  1  6  0  0  0
 13 19  1  0  0  0  0
 14 21  1  0  0  0  0
 15 14  1  6  0  0  0
 15 17  1  0  0  0  0
 17 19  1  0  0  0  0
 17 16  2  0  0  0  0
 21 20  1  6  0  0  0
 21 23  1  0  0  0  0
 23 22  1  0  0  0  0
 24 23  2  0  0  0  0
 25  8  1  0  0  0  0
 26 25  1  0  0  0  0
 27 29  1  0  0  0  0
 28 26  1  1  0  0  0
 28 31  1  0  0  0  0
 29 30  2  0  0  0  0
 29 32  1  0  0  0  0
 31 32  2  0  0  0  0
 33 27  2  0  0  0  0
 33 28  1  0  0  0  0
M  END
>  <MODEL>
7

>  <REMARK>
 VINA RESULT:      -7.0      2.077      2.761
  Name = 
  6 active torsions:
  status: ('A' for Active; 'I' for Inactive)
    1  A    between atoms: C_5  and  C_6
    2  A    between atoms: C_7  and  C_29
    3  A    between atoms: C_10  and  C_14
    4  A    between atoms: C_14  and  O_32
    5  A    between atoms: C_23  and  C_29
    6  A    between atoms: C_24  and  O_32
                            x       y       z     vdW  Elec       q    Type
                         _______ _______ _______ _____ _____    ______ ____

>  <TORSDO>
F 6

$$$$
=
 OpenBabel11062418553D

 33 37  0  0  1  0  0  0  0  0999 V2000
  191.0920  176.3860  142.9440 C   0  0  0  0  0  0  0  0  0  0  0  0
  192.5340  176.4500  143.2370 C   0  0  1  0  0  3  0  0  0  0  0  0
  193.0720  176.8050  144.3880 C   0  0  0  0  0  3  0  0  0  0  0  0
  194.3740  176.2350  144.4600 N   0  0  0  0  0  0  0  0  0  0  0  0
  194.6070  175.5260  143.4310 N   0  0  0  0  0  2  0  0  0  0  0  0
  192.8770  174.2460  142.2230 C   0  0  0  0  0  3  0  0  0  0  0  0
  193.4950  175.5940  142.4970 C   0  0  1  0  0  3  0  0  0  0  0  0
  191.5450  174.1040  142.1100 C   0  0  0  0  0  0  0  0  0  0  0  0
  190.6330  175.2530  142.3980 C   0  0  0  0  0  3  0  0  0  0  0  0
  189.0210  177.0590  147.0390 C   0  0  0  0  0  2  0  0  0  0  0  0
  189.3750  177.1720  144.5830 C   0  0  2  0  0  3  0  0  0  0  0  0
  187.5440  176.9860  146.6450 C   0  0  0  0  0  3  0  0  0  0  0  0
  190.1350  177.4820  143.2980 C   0  0  2  0  0  3  0  0  0  0  0  0
  187.0920  177.3110  145.4120 C   0  0  0  0  0  0  0  0  0  0  0  0
  188.0720  177.9160  144.4470 C   0  0  2  0  0  3  0  0  0  0  0  0
  186.7690  178.0170  142.3970 O   0  0  0  0  0  0  0  0  0  0  0  0
  187.8640  177.8190  142.9860 C   0  0  0  0  0  0  0  0  0  0  0  0
  189.9780  177.5410  145.9210 C   0  0  0  0  0  2  0  0  0  0  0  0
  189.0860  177.6040  142.2920 N   0  0  0  0  0  2  0  0  0  0  0  0
  185.0200  176.1840  145.7400 F   0  0  0  0  0  0  0  0  0  0  0  0
  185.6260  177.2450  145.0910 C   0  0  1  0  0  3  0  0  0  0  0  0
  185.2390  179.6910  144.7200 O   0  0  0  0  0  0  0  0  0  0  0  0
  184.9330  178.5270  145.4150 C   0  0  0  0  0  0  0  0  0  0  0  0
  184.0670  178.5520  146.3280 O   0  0  0  0  0  1  0  0  0  0  0  0
  191.0320  172.8540  141.7530 O   0  0  0  0  0  0  0  0  0  0  0  0
  189.6430  172.5610  141.8080 C   0  0  0  0  0  2  0  0  0  0  0  0
  190.3950  172.6040  138.2850 C   0  0  0  0  0  3  0  0  0  0  0  0
  189.1000  172.3460  140.4070 C   0  0  1  0  0  3  0  0  0  0  0  0
  189.5060  173.7010  137.8850 C   0  0  0  0  0  0  0  0  0  0  0  0
  189.6480  174.2550  136.7630 O   0  0  0  0  0  0  0  0  0  0  0  0
  188.2940  173.5530  139.9860 C   0  0  0  0  0  3  0  0  0  0  0  0
  188.4710  174.1660  138.8140 C   0  0  0  0  0  3  0  0  0  0  0  0
  190.2190  171.9900  139.4560 C   0  0  0  0  0  3  0  0  0  0  0  0
  1  2  1  0  0  0  0
  2  3  1  1  0  0  0
  3  4  2  0  0  0  0
  5  4  1  0  0  0  0
  7  6  1  1  0  0  0
  7  2  1  0  0  0  0
  7  5  1  0  0  0  0
  8  6  2  0  0  0  0
  8  9  1  0  0  0  0
  9  1  2  0  0  0  0
 11 18  1  1  0  0  0
 12 10  1  0  0  0  0
 13  1  1  6  0  0  0
 13 11  1  0  0  0  0
 14 12  2  0  0  0  0
 15 17  1  6  0  0  0
 15 11  1  0  0  0  0
 15 14  1  0  0  0  0
 16 17  2  0  0  0  0
 18 10  1  0  0  0  0
 19 17  1  0  0  0  0
 19 13  1  0  0  0  0
 21 14  1  0  0  0  0
 21 23  1  0  0  0  0
 21 20  1  1  0  0  0
 22 23  2  0  0  0  0
 23 24  1  0  0  0  0
 25 26  1  0  0  0  0
 25  8  1  0  0  0  0
 27 33  2  0  0  0  0
 28 26  1  1  0  0  0
 29 27  1  0  0  0  0
 29 32  1  0  0  0  0
 30 29  2  0  0  0  0
 31 28  1  0  0  0  0
 32 31  2  0  0  0  0
 33 28  1  0  0  0  0
M  END
>  <MODEL>
8

>  <REMARK>
 VINA RESULT:      -6.9      1.987      2.287
  Name = 
  6 active torsions:
  status: ('A' for Active; 'I' for Inactive)
    1  A    between atoms: C_5  and  C_6
    2  A    between atoms: C_7  and  C_29
    3  A    between atoms: C_10  and  C_14
    4  A    between atoms: C_14  and  O_32
    5  A    between atoms: C_23  and  C_29
    6  A    between atoms: C_24  and  O_32
                            x       y       z     vdW  Elec       q    Type
                         _______ _______ _______ _____ _____    ______ ____

>  <TORSDO>
F 6

$$$$
=
 OpenBabel11062418553D

 33 37  0  0  1  0  0  0  0  0999 V2000
  191.7480  175.8530  144.4700 C   0  0  0  0  0  0  0  0  0  0  0  0
  193.1290  175.8260  144.9790 C   0  0  1  0  0  3  0  0  0  0  0  0
  193.5590  176.4220  146.0750 C   0  0  0  0  0  3  0  0  0  0  0  0
  194.7320  175.7470  146.5120 N   0  0  0  0  0  0  0  0  0  0  0  0
  194.9850  174.7570  145.7550 N   0  0  0  0  0  2  0  0  0  0  0  0
  193.2510  173.4030  144.6380 C   0  0  0  0  0  3  0  0  0  0  0  0
  194.0320  174.6920  144.6590 C   0  0  1  0  0  3  0  0  0  0  0  0
  191.9390  173.3910  144.3390 C   0  0  0  0  0  0  0  0  0  0  0  0
  191.1910  174.6740  144.1620 C   0  0  0  0  0  3  0  0  0  0  0  0
  187.8540  176.8600  146.7790 C   0  0  0  0  0  2  0  0  0  0  0  0
  189.5480  176.9340  144.9630 C   0  0  2  0  0  3  0  0  0  0  0  0
  186.8690  177.0780  145.6270 C   0  0  0  0  0  3  0  0  0  0  0  0
  190.9380  177.1080  144.3620 C   0  0  2  0  0  3  0  0  0  0  0  0
  187.2500  177.4990  144.3990 C   0  0  0  0  0  0  0  0  0  0  0  0
  188.6820  177.9160  144.2180 C   0  0  2  0  0  3  0  0  0  0  0  0
  188.8020  178.2900  141.8190 O   0  0  0  0  0  0  0  0  0  0  0  0
  189.3260  177.8790  142.8870 C   0  0  0  0  0  0  0  0  0  0  0  0
  189.3350  177.1640  146.4440 C   0  0  0  0  0  2  0  0  0  0  0  0
  190.6760  177.4410  142.9650 N   0  0  0  0  0  2  0  0  0  0  0  0
  185.5660  176.5460  143.0100 F   0  0  0  0  0  0  0  0  0  0  0  0
  186.2340  177.7190  143.3150 C   0  0  1  0  0  3  0  0  0  0  0  0
  183.9080  178.5200  143.7830 O   0  0  0  0  0  0  0  0  0  0  0  0
  185.2660  178.7970  143.6780 C   0  0  0  0  0  0  0  0  0  0  0  0
  185.6850  179.9650  143.8880 O   0  0  0  0  0  1  0  0  0  0  0  0
  191.2870  172.1610  144.2320 O   0  0  0  0  0  0  0  0  0  0  0  0
  191.7120  171.1540  143.3230 C   0  0  0  0  0  2  0  0  0  0  0  0
  190.8140  169.3930  140.3100 C   0  0  0  0  0  3  0  0  0  0  0  0
  190.6000  170.8360  142.3410 C   0  0  1  0  0  3  0  0  0  0  0  0
  190.5050  170.5520  139.4650 C   0  0  0  0  0  0  0  0  0  0  0  0
  190.4090  170.4170  138.2160 O   0  0  0  0  0  0  0  0  0  0  0  0
  190.3980  172.0070  141.4080 C   0  0  0  0  0  3  0  0  0  0  0  0
  190.3370  171.8720  140.0820 C   0  0  0  0  0  3  0  0  0  0  0  0
  190.8760  169.5270  141.6360 C   0  0  0  0  0  3  0  0  0  0  0  0
  1  2  1  0  0  0  0
  2  3  1  1  0  0  0
  3  4  2  0  0  0  0
  5  4  1  0  0  0  0
  7  6  1  1  0  0  0
  7  2  1  0  0  0  0
  7  5  1  0  0  0  0
  8  6  2  0  0  0  0
  9  8  1  0  0  0  0
  9  1  2  0  0  0  0
 11 18  1  1  0  0  0
 12 10  1  0  0  0  0
 13  1  1  6  0  0  0
 13 11  1  0  0  0  0
 14 12  2  0  0  0  0
 15 17  1  6  0  0  0
 15 14  1  0  0  0  0
 15 11  1  0  0  0  0
 16 17  2  0  0  0  0
 17 19  1  0  0  0  0
 18 10  1  0  0  0  0
 19 13  1  0  0  0  0
 21 20  1  1  0  0  0
 21 23  1  0  0  0  0
 21 14  1  0  0  0  0
 23 22  2  0  0  0  0
 23 24  1  0  0  0  0
 25  8  1  0  0  0  0
 26 25  1  0  0  0  0
 27 33  2  0  0  0  0
 28 26  1  1  0  0  0
 29 32  1  0  0  0  0
 29 27  1  0  0  0  0
 30 29  2  0  0  0  0
 31 28  1  0  0  0  0
 32 31  2  0  0  0  0
 33 28  1  0  0  0  0
M  END
>  <MODEL>
9

>  <REMARK>
 VINA RESULT:      -6.8      1.266      1.709
  Name = 
  6 active torsions:
  status: ('A' for Active; 'I' for Inactive)
    1  A    between atoms: C_5  and  C_6
    2  A    between atoms: C_7  and  C_29
    3  A    between atoms: C_10  and  C_14
    4  A    between atoms: C_14  and  O_32
    5  A    between atoms: C_23  and  C_29
    6  A    between atoms: C_24  and  O_32
                            x       y       z     vdW  Elec       q    Type
                         _______ _______ _______ _____ _____    ______ ____

>  <TORSDO>
F 6

$$$$
