=
 OpenBabel11062420463D

 45 48  0  0  1  0  0  0  0  0999 V2000
  193.0370  168.2440  140.5690 O   0  0  0  0  0  1  0  0  0  0  0  0
  194.9370  174.0920  143.1660 C   0  0  0  0  0  3  0  0  0  0  0  0
  191.6300  171.9690  139.0000 C   0  0  0  0  0  2  0  0  0  0  0  0
  191.0700  173.0240  141.6310 O   0  0  0  0  0  0  0  0  0  0  0  0
  189.1630  173.5940  140.3010 C   0  0  0  0  0  1  0  0  0  0  0  0
  192.3070  172.7710  140.4860 P   0  0  1  0  0  4  0  0  0  0  0  0
  193.4480  171.5340  141.1610 C   0  0  0  0  0  2  0  0  0  0  0  0
  193.3290  174.3650  138.6160 O   0  0  0  0  0  1  0  0  0  0  0  0
  190.6030  175.6160  143.0470 O   0  0  0  0  0  0  0  0  0  0  0  0
  192.5490  169.5440  140.7220 C   0  0  2  0  0  3  0  0  0  0  0  0
  191.2270  169.6880  139.9950 C   0  0  0  0  0  0  0  0  0  0  0  0
  194.4810  174.5890  140.7100 C   0  0  2  0  0  3  0  0  0  0  0  0
  193.8600  175.7330  146.2680 N   0  0  0  0  0  1  0  0  0  0  0  0
  194.0090  175.4600  144.8790 C   0  0  0  0  0  0  0  0  0  0  0  0
  190.8040  170.8640  139.3500 O   0  0  0  0  0  0  0  0  0  0  0  0
  190.3740  176.1030  144.3380 C   0  0  0  0  0  0  0  0  0  0  0  0
  190.2930  174.1020  141.1800 C   0  0  1  0  0  3  0  0  0  0  0  0
  193.5310  175.9490  142.5670 C   0  0  0  0  0  3  0  0  0  0  0  0
  191.2270  176.9090  144.9030 N   0  0  0  0  0  0  0  0  0  0  0  0
  194.3120  174.8630  142.1750 C   0  0  0  0  0  0  0  0  0  0  0  0
  189.6590  174.7930  142.3730 C   0  0  0  0  0  2  0  0  0  0  0  0
  192.4590  177.3850  144.2770 C   0  0  0  0  0  2  0  0  0  0  0  0
  193.1480  174.3270  140.0000 C   0  0  2  0  0  3  0  0  0  0  0  0
  190.4080  168.7350  140.0620 O   0  0  0  0  0  0  0  0  0  0  0  0
  193.3660  176.2540  143.9170 C   0  0  0  0  0  0  0  0  0  0  0  0
  193.5170  170.4520  140.2770 O   0  0  0  0  0  0  0  0  0  0  0  0
  194.7710  174.4040  144.4810 N   0  0  0  0  0  0  0  0  0  0  0  0
  189.1320  175.7070  145.0870 C   0  0  1  0  0  3  0  0  0  0  0  0
  189.9590  173.3970  145.6200 O   0  0  0  0  0  1  0  0  0  0  0  0
  189.0150  174.7190  147.3120 C   0  0  0  0  0  2  0  0  0  0  0  0
  189.3760  174.5850  146.0460 C   0  0  0  0  0  0  0  0  0  0  0  0
  188.5690  176.8260  145.7570 O   0  0  0  0  0  0  0  0  0  0  0  0
  184.9750  178.5300  144.4280 C   0  0  0  0  0  0  0  0  0  0  0  0
  185.1010  178.1210  145.7670 C   0  0  0  0  0  0  0  0  0  0  0  0
  187.3730  177.3860  145.3180 C   0  0  0  0  0  0  0  0  0  0  0  0
  183.9590  178.2930  146.7140 C   0  0  0  0  0  1  0  0  0  0  0  0
  186.4510  177.1620  147.5390 O   0  0  0  0  0  1  0  0  0  0  0  0
  186.0430  178.3630  143.5420 C   0  0  0  0  0  3  0  0  0  0  0  0
  186.3080  177.5560  146.2110 C   0  0  0  0  0  0  0  0  0  0  0  0
  187.2400  177.7930  143.9840 C   0  0  0  0  0  3  0  0  0  0  0  0
  183.7900  179.1010  143.9730 O   0  0  0  0  0  1  0  0  0  0  0  0
  195.4650  173.5480  140.4390 N   0  0  0  0  0  2  0  0  0  0  0  0
  196.6050  174.1880  139.8070 C   0  0  0  0  0  2  0  0  0  0  0  0
  197.9380  175.2340  141.5510 N   0  0  0  0  0  1  0  0  0  0  0  0
  197.8260  174.0620  140.6990 C   0  0  0  0  0  2  0  0  0  0  0  0
  2 27  1  0  0  0  0
  3 15  1  0  0  0  0
  6  3  1  6  0  0  0
  6  7  1  0  0  0  0
  6  4  1  0  0  0  0
  9 16  1  0  0  0  0
 10  1  1  6  0  0  0
 11 24  2  0  0  0  0
 11 10  1  0  0  0  0
 12 42  1  1  0  0  0
 12 20  1  0  0  0  0
 14 13  1  0  0  0  0
 15 11  1  0  0  0  0
 16 19  2  0  0  0  0
 16 28  1  0  0  0  0
 17  5  1  6  0  0  0
 17  4  1  0  0  0  0
 17 21  1  0  0  0  0
 18 25  2  0  0  0  0
 20 18  1  0  0  0  0
 20  2  2  0  0  0  0
 21  9  1  0  0  0  0
 22 19  1  0  0  0  0
 23  8  1  6  0  0  0
 23  6  1  0  0  0  0
 23 12  1  0  0  0  0
 25 22  1  0  0  0  0
 25 14  1  0  0  0  0
 26 10  1  0  0  0  0
 26  7  1  0  0  0  0
 27 14  2  0  0  0  0
 28 32  1  1  0  0  0
 28 31  1  0  0  0  0
 29 31  1  0  0  0  0
 31 30  2  0  0  0  0
 33 34  1  0  0  0  0
 34 39  2  0  0  0  0
 34 36  1  0  0  0  0
 35 32  1  0  0  0  0
 35 39  1  0  0  0  0
 38 40  1  0  0  0  0
 38 33  2  0  0  0  0
 39 37  1  0  0  0  0
 40 35  2  0  0  0  0
 41 33  1  0  0  0  0
 43 42  1  0  0  0  0
 43 45  1  0  0  0  0
 45 44  1  0  0  0  0
M  END
>  <MODEL>
1

>  <REMARK>
 VINA RESULT:      -7.8      0.000      0.000
  Name = 
  7 active torsions:
  status: ('A' for Active; 'I' for Inactive)
    1  A    between atoms: C_5  and  C_12
    2  A    between atoms: C_12  and  N_43
    3  A    between atoms: C_16  and  O_22
    4  A    between atoms: C_19  and  N_43
    5  A    between atoms: O_22  and  C_42
    6  A    between atoms: C_26  and  C_42
    7  A    between atoms: C_39  and  C_42
                            x       y       z     vdW  Elec       q    Type
                         _______ _______ _______ _____ _____    ______ ____

>  <TORSDO>
F 7

$$$$
=
 OpenBabel11062420463D

 45 48  0  0  1  0  0  0  0  0999 V2000
  197.5280  175.9770  140.5140 O   0  0  0  0  0  1  0  0  0  0  0  0
  191.8350  172.9100  138.8610 C   0  0  0  0  0  3  0  0  0  0  0  0
  195.4470  173.4520  143.2720 C   0  0  0  0  0  2  0  0  0  0  0  0
  192.8890  174.6430  142.6470 O   0  0  0  0  0  0  0  0  0  0  0  0
  192.9430  174.4770  145.0340 C   0  0  0  0  0  1  0  0  0  0  0  0
  194.0310  173.4880  142.1300 P   0  0  1  0  0  4  0  0  0  0  0  0
  194.7500  174.0730  140.5720 C   0  0  0  0  0  2  0  0  0  0  0  0
  194.1970  170.8660  142.5490 O   0  0  0  0  0  1  0  0  0  0  0  0
  189.9560  174.1110  142.8790 O   0  0  0  0  0  0  0  0  0  0  0  0
  196.3610  175.5090  141.1230 C   0  0  2  0  0  3  0  0  0  0  0  0
  196.4650  175.6660  142.6270 C   0  0  0  0  0  0  0  0  0  0  0  0
  192.9230  171.3780  140.5810 C   0  0  2  0  0  3  0  0  0  0  0  0
  188.4430  174.2810  138.5570 N   0  0  0  0  0  1  0  0  0  0  0  0
  189.5520  173.5510  139.0710 C   0  0  0  0  0  0  0  0  0  0  0  0
  195.9060  174.7700  143.5550 O   0  0  0  0  0  0  0  0  0  0  0  0
  188.7330  174.6920  142.5270 C   0  0  0  0  0  0  0  0  0  0  0  0
  192.2160  174.1030  143.7530 C   0  0  1  0  0  3  0  0  0  0  0  0
  190.5510  172.1200  140.7350 C   0  0  0  0  0  3  0  0  0  0  0  0
  187.9280  174.0890  141.7000 N   0  0  0  0  0  0  0  0  0  0  0  0
  191.7620  172.1640  140.0460 C   0  0  0  0  0  0  0  0  0  0  0  0
  190.8250  174.7070  143.8340 C   0  0  0  0  0  2  0  0  0  0  0  0
  188.1920  172.7910  141.0820 C   0  0  0  0  0  2  0  0  0  0  0  0
  193.3200  171.8020  141.9990 C   0  0  2  0  0  3  0  0  0  0  0  0
  196.9890  176.7180  143.0770 O   0  0  0  0  0  0  0  0  0  0  0  0
  189.4400  172.8160  140.2610 C   0  0  0  0  0  0  0  0  0  0  0  0
  196.1360  174.1860  140.7270 O   0  0  0  0  0  0  0  0  0  0  0  0
  190.7400  173.5810  138.4070 N   0  0  0  0  0  0  0  0  0  0  0  0
  188.3300  176.0180  143.1090 C   0  0  1  0  0  3  0  0  0  0  0  0
  187.9250  177.4220  141.0680 O   0  0  0  0  0  1  0  0  0  0  0  0
  189.7130  177.9300  142.4990 C   0  0  0  0  0  2  0  0  0  0  0  0
  188.6720  177.1640  142.2110 C   0  0  0  0  0  0  0  0  0  0  0  0
  186.9450  176.0280  143.4280 O   0  0  0  0  0  0  0  0  0  0  0  0
  185.5600  177.9860  146.8690 C   0  0  0  0  0  0  0  0  0  0  0  0
  184.8860  178.1590  145.6470 C   0  0  0  0  0  0  0  0  0  0  0  0
  186.4860  176.6840  144.5670 C   0  0  0  0  0  0  0  0  0  0  0  0
  183.6810  179.0380  145.5750 C   0  0  0  0  0  1  0  0  0  0  0  0
  184.6810  177.6490  143.2860 O   0  0  0  0  0  1  0  0  0  0  0  0
  186.6910  177.1670  146.9340 C   0  0  0  0  0  3  0  0  0  0  0  0
  185.3490  177.4970  144.4970 C   0  0  0  0  0  0  0  0  0  0  0  0
  187.1540  176.5170  145.7870 C   0  0  0  0  0  3  0  0  0  0  0  0
  185.1100  178.6250  148.0200 O   0  0  0  0  0  1  0  0  0  0  0  0
  194.0610  171.3610  139.6700 N   0  0  0  0  0  2  0  0  0  0  0  0
  194.1690  170.0120  139.1430 C   0  0  0  0  0  2  0  0  0  0  0  0
  192.5430  169.4940  137.4110 N   0  0  0  0  0  1  0  0  0  0  0  0
  193.8770  170.0150  137.6540 C   0  0  0  0  0  2  0  0  0  0  0  0
  2 20  1  0  0  0  0
  3 15  1  0  0  0  0
  4 17  1  0  0  0  0
  6  7  1  6  0  0  0
  6  4  1  0  0  0  0
  6  3  1  0  0  0  0
  7 26  1  0  0  0  0
  9 21  1  0  0  0  0
 10  1  1  6  0  0  0
 10 11  1  0  0  0  0
 11 24  2  0  0  0  0
 11 15  1  0  0  0  0
 12 42  1  6  0  0  0
 12 23  1  0  0  0  0
 13 14  1  0  0  0  0
 14 25  2  0  0  0  0
 16  9  1  0  0  0  0
 16 28  1  0  0  0  0
 17 21  1  0  0  0  0
 17  5  1  1  0  0  0
 19 16  2  0  0  0  0
 20 12  1  0  0  0  0
 20 18  2  0  0  0  0
 22 19  1  0  0  0  0
 23  6  1  0  0  0  0
 23  8  1  6  0  0  0
 25 18  1  0  0  0  0
 25 22  1  0  0  0  0
 26 10  1  0  0  0  0
 27  2  2  0  0  0  0
 27 14  1  0  0  0  0
 28 31  1  6  0  0  0
 28 32  1  0  0  0  0
 29 31  1  0  0  0  0
 31 30  2  0  0  0  0
 32 35  1  0  0  0  0
 33 38  1  0  0  0  0
 33 41  1  0  0  0  0
 34 33  2  0  0  0  0
 35 40  1  0  0  0  0
 36 34  1  0  0  0  0
 37 39  1  0  0  0  0
 39 35  2  0  0  0  0
 39 34  1  0  0  0  0
 40 38  2  0  0  0  0
 43 42  1  0  0  0  0
 44 45  1  0  0  0  0
 45 43  1  0  0  0  0
M  END
>  <MODEL>
2

>  <REMARK>
 VINA RESULT:      -7.4      2.906      5.368
  Name = 
  7 active torsions:
  status: ('A' for Active; 'I' for Inactive)
    1  A    between atoms: C_5  and  C_12
    2  A    between atoms: C_12  and  N_43
    3  A    between atoms: C_16  and  O_22
    4  A    between atoms: C_19  and  N_43
    5  A    between atoms: O_22  and  C_42
    6  A    between atoms: C_26  and  C_42
    7  A    between atoms: C_39  and  C_42
                            x       y       z     vdW  Elec       q    Type
                         _______ _______ _______ _____ _____    ______ ____

>  <TORSDO>
F 7

$$$$
=
 OpenBabel11062420463D

 45 48  0  0  1  0  0  0  0  0999 V2000
  192.7830  168.1660  143.3550 O   0  0  0  0  0  1  0  0  0  0  0  0
  194.4090  174.3940  145.1210 C   0  0  0  0  0  3  0  0  0  0  0  0
  192.4200  171.4470  140.6320 C   0  0  0  0  0  2  0  0  0  0  0  0
  191.1590  173.1320  142.6120 O   0  0  0  0  0  0  0  0  0  0  0  0
  189.8750  173.4320  140.6150 C   0  0  0  0  0  1  0  0  0  0  0  0
  192.6640  172.5610  142.0490 P   0  0  1  0  0  4  0  0  0  0  0  0
  193.3650  171.4830  143.3270 C   0  0  0  0  0  2  0  0  0  0  0  0
  194.4230  173.6120  140.3520 O   0  0  0  0  0  1  0  0  0  0  0  0
  190.5660  176.0060  143.1840 O   0  0  0  0  0  0  0  0  0  0  0  0
  192.4310  169.4820  143.0450 C   0  0  2  0  0  3  0  0  0  0  0  0
  191.4460  169.4940  141.8920 C   0  0  0  0  0  0  0  0  0  0  0  0
  194.8450  174.2950  142.6140 C   0  0  2  0  0  3  0  0  0  0  0  0
  192.5790  176.7800  147.2270 N   0  0  0  0  0  1  0  0  0  0  0  0
  193.1410  176.1720  146.0690 C   0  0  0  0  0  0  0  0  0  0  0  0
  191.4000  170.4930  140.9040 O   0  0  0  0  0  0  0  0  0  0  0  0
  189.9860  176.8010  144.1780 C   0  0  0  0  0  0  0  0  0  0  0  0
  190.7070  174.0960  141.6990 C   0  0  1  0  0  3  0  0  0  0  0  0
  193.5080  176.1010  143.6870 C   0  0  0  0  0  3  0  0  0  0  0  0
  190.6970  177.6870  144.8160 N   0  0  0  0  0  0  0  0  0  0  0  0
  194.2390  174.9230  143.8340 C   0  0  0  0  0  0  0  0  0  0  0  0
  189.8040  175.0800  142.4200 C   0  0  0  0  0  2  0  0  0  0  0  0
  192.1140  177.9500  144.5670 C   0  0  0  0  0  2  0  0  0  0  0  0
  193.7960  173.9190  141.5610 C   0  0  2  0  0  3  0  0  0  0  0  0
  190.5430  168.6170  141.8760 O   0  0  0  0  0  0  0  0  0  0  0  0
  192.9470  176.7310  144.7960 C   0  0  0  0  0  0  0  0  0  0  0  0
  193.5910  170.2160  142.7780 O   0  0  0  0  0  0  0  0  0  0  0  0
  193.8600  175.0230  146.1980 N   0  0  0  0  0  0  0  0  0  0  0  0
  188.5300  176.6460  144.5180 C   0  0  1  0  0  3  0  0  0  0  0  0
  187.2760  176.4380  146.6820 O   0  0  0  0  0  1  0  0  0  0  0  0
  189.1500  175.0850  146.2840 C   0  0  0  0  0  2  0  0  0  0  0  0
  188.3200  176.0250  145.8620 C   0  0  0  0  0  0  0  0  0  0  0  0
  187.8570  177.8940  144.4300 O   0  0  0  0  0  0  0  0  0  0  0  0
  184.1920  178.1890  142.4130 C   0  0  0  0  0  0  0  0  0  0  0  0
  185.3840  178.0500  141.6810 C   0  0  0  0  0  0  0  0  0  0  0  0
  186.6430  177.9970  143.7570 C   0  0  0  0  0  0  0  0  0  0  0  0
  185.3450  178.0080  140.1880 C   0  0  0  0  0  1  0  0  0  0  0  0
  187.7940  177.7910  141.6450 O   0  0  0  0  0  1  0  0  0  0  0  0
  184.2310  178.2340  143.8100 C   0  0  0  0  0  3  0  0  0  0  0  0
  186.6090  177.9450  142.3590 C   0  0  0  0  0  0  0  0  0  0  0  0
  185.4520  178.1390  144.4820 C   0  0  0  0  0  3  0  0  0  0  0  0
  182.9670  178.2850  141.7590 O   0  0  0  0  0  1  0  0  0  0  0  0
  195.7320  173.1830  142.9320 N   0  0  0  0  0  2  0  0  0  0  0  0
  197.0900  173.6330  142.6850 C   0  0  0  0  0  2  0  0  0  0  0  0
  197.9400  171.9940  144.2660 N   0  0  0  0  0  1  0  0  0  0  0  0
  197.9410  173.4050  143.9200 C   0  0  0  0  0  2  0  0  0  0  0  0
  2 27  1  0  0  0  0
  3 15  1  0  0  0  0
  6  3  1  6  0  0  0
  6  4  1  0  0  0  0
  6  7  1  0  0  0  0
  9 16  1  0  0  0  0
 10  1  1  6  0  0  0
 11 10  1  0  0  0  0
 12 42  1  1  0  0  0
 12 20  1  0  0  0  0
 14 27  2  0  0  0  0
 14 13  1  0  0  0  0
 15 11  1  0  0  0  0
 16 28  1  0  0  0  0
 16 19  2  0  0  0  0
 17  5  1  6  0  0  0
 17 21  1  0  0  0  0
 17  4  1  0  0  0  0
 18 20  1  0  0  0  0
 18 25  2  0  0  0  0
 20  2  2  0  0  0  0
 21  9  1  0  0  0  0
 22 25  1  0  0  0  0
 22 19  1  0  0  0  0
 23  8  1  6  0  0  0
 23  6  1  0  0  0  0
 23 12  1  0  0  0  0
 24 11  2  0  0  0  0
 25 14  1  0  0  0  0
 26 10  1  0  0  0  0
 26  7  1  0  0  0  0
 28 32  1  1  0  0  0
 28 31  1  0  0  0  0
 31 30  2  0  0  0  0
 31 29  1  0  0  0  0
 33 38  1  0  0  0  0
 34 39  1  0  0  0  0
 34 33  2  0  0  0  0
 35 32  1  0  0  0  0
 35 40  1  0  0  0  0
 36 34  1  0  0  0  0
 37 39  1  0  0  0  0
 38 40  2  0  0  0  0
 39 35  2  0  0  0  0
 41 33  1  0  0  0  0
 43 42  1  0  0  0  0
 43 45  1  0  0  0  0
 45 44  1  0  0  0  0
M  END
>  <MODEL>
3

>  <REMARK>
 VINA RESULT:      -7.4      1.814      2.503
  Name = 
  7 active torsions:
  status: ('A' for Active; 'I' for Inactive)
    1  A    between atoms: C_5  and  C_12
    2  A    between atoms: C_12  and  N_43
    3  A    between atoms: C_16  and  O_22
    4  A    between atoms: C_19  and  N_43
    5  A    between atoms: O_22  and  C_42
    6  A    between atoms: C_26  and  C_42
    7  A    between atoms: C_39  and  C_42
                            x       y       z     vdW  Elec       q    Type
                         _______ _______ _______ _____ _____    ______ ____

>  <TORSDO>
F 7

$$$$
=
 OpenBabel11062420463D

 45 48  0  0  1  0  0  0  0  0999 V2000
  197.3410  176.8640  142.9500 O   0  0  0  0  0  1  0  0  0  0  0  0
  192.7780  172.5880  140.6160 C   0  0  0  0  0  3  0  0  0  0  0  0
  194.7220  174.7160  145.5650 C   0  0  0  0  0  2  0  0  0  0  0  0
  192.4030  175.2870  143.9370 O   0  0  0  0  0  0  0  0  0  0  0  0
  191.7040  175.6780  146.1920 C   0  0  0  0  0  1  0  0  0  0  0  0
  193.7500  174.2530  144.0980 P   0  0  1  0  0  4  0  0  0  0  0  0
  194.8750  174.5830  142.7150 C   0  0  0  0  0  2  0  0  0  0  0  0
  194.0070  171.8610  145.2330 O   0  0  0  0  0  1  0  0  0  0  0  0
  189.6110  174.3360  143.4500 O   0  0  0  0  0  0  0  0  0  0  0  0
  196.0880  176.3560  143.3000 C   0  0  2  0  0  3  0  0  0  0  0  0
  195.6900  176.8650  144.6710 C   0  0  0  0  0  0  0  0  0  0  0  0
  193.3900  171.6920  142.9200 C   0  0  2  0  0  3  0  0  0  0  0  0
  189.5550  173.2640  138.9950 N   0  0  0  0  0  1  0  0  0  0  0  0
  190.5010  172.8670  139.9820 C   0  0  0  0  0  0  0  0  0  0  0  0
  194.9460  176.1220  145.6040 O   0  0  0  0  0  0  0  0  0  0  0  0
  188.5180  174.6070  142.6200 C   0  0  0  0  0  0  0  0  0  0  0  0
  191.4630  174.9070  144.9060 C   0  0  1  0  0  3  0  0  0  0  0  0
  191.0370  172.0400  142.1820 C   0  0  0  0  0  3  0  0  0  0  0  0
  188.0780  173.7060  141.7890 N   0  0  0  0  0  0  0  0  0  0  0  0
  192.3960  172.1290  141.8840 C   0  0  0  0  0  0  0  0  0  0  0  0
  190.0710  175.2700  144.4190 C   0  0  0  0  0  2  0  0  0  0  0  0
  188.6410  172.3650  141.6440 C   0  0  0  0  0  2  0  0  0  0  0  0
  193.2720  172.4870  144.2250 C   0  0  2  0  0  3  0  0  0  0  0  0
  195.9460  178.0650  144.9540 O   0  0  0  0  0  0  0  0  0  0  0  0
  190.0790  172.4130  141.2410 C   0  0  0  0  0  0  0  0  0  0  0  0
  196.1220  174.9590  143.2260 O   0  0  0  0  0  0  0  0  0  0  0  0
  191.8310  172.9450  139.7040 N   0  0  0  0  0  0  0  0  0  0  0  0
  187.8320  175.9430  142.6840 C   0  0  1  0  0  3  0  0  0  0  0  0
  187.6900  175.8500  140.1800 O   0  0  0  0  0  1  0  0  0  0  0  0
  187.7350  177.9260  141.2710 C   0  0  0  0  0  2  0  0  0  0  0  0
  187.7440  176.6050  141.3460 C   0  0  0  0  0  0  0  0  0  0  0  0
  186.5440  175.8210  143.2690 O   0  0  0  0  0  0  0  0  0  0  0  0
  185.4330  178.2190  146.5270 C   0  0  0  0  0  0  0  0  0  0  0  0
  184.7760  178.3680  145.2920 C   0  0  0  0  0  0  0  0  0  0  0  0
  186.1760  176.6220  144.3470 C   0  0  0  0  0  0  0  0  0  0  0  0
  183.6860  179.3780  145.1410 C   0  0  0  0  0  1  0  0  0  0  0  0
  184.4920  177.6870  142.9830 O   0  0  0  0  0  1  0  0  0  0  0  0
  186.4570  177.2770  146.6640 C   0  0  0  0  0  3  0  0  0  0  0  0
  185.1460  177.5600  144.2050 C   0  0  0  0  0  0  0  0  0  0  0  0
  186.8290  176.4800  145.5780 C   0  0  0  0  0  3  0  0  0  0  0  0
  185.0730  179.0040  147.6180 O   0  0  0  0  0  1  0  0  0  0  0  0
  194.7570  171.6600  142.4140 N   0  0  0  0  0  2  0  0  0  0  0  0
  195.1700  170.2680  142.3780 C   0  0  0  0  0  2  0  0  0  0  0  0
  194.1880  169.3240  140.3640 N   0  0  0  0  0  1  0  0  0  0  0  0
  195.4160  169.8410  140.9430 C   0  0  0  0  0  2  0  0  0  0  0  0
  2 20  1  0  0  0  0
  3 15  1  0  0  0  0
  4  6  1  0  0  0  0
  4 17  1  0  0  0  0
  6  7  1  6  0  0  0
  6 23  1  0  0  0  0
  6  3  1  0  0  0  0
  7 26  1  0  0  0  0
  9 21  1  0  0  0  0
 10  1  1  1  0  0  0
 10 11  1  0  0  0  0
 11 24  2  0  0  0  0
 11 15  1  0  0  0  0
 12 42  1  6  0  0  0
 12 23  1  0  0  0  0
 13 14  1  0  0  0  0
 14 25  2  0  0  0  0
 16 28  1  0  0  0  0
 16  9  1  0  0  0  0
 17  5  1  1  0  0  0
 19 16  2  0  0  0  0
 20 18  2  0  0  0  0
 20 12  1  0  0  0  0
 21 17  1  0  0  0  0
 22 19  1  0  0  0  0
 23  8  1  1  0  0  0
 25 22  1  0  0  0  0
 25 18  1  0  0  0  0
 26 10  1  0  0  0  0
 27 14  1  0  0  0  0
 27  2  2  0  0  0  0
 28 31  1  6  0  0  0
 28 32  1  0  0  0  0
 29 31  1  0  0  0  0
 30 31  2  0  0  0  0
 32 35  1  0  0  0  0
 33 38  1  0  0  0  0
 33 41  1  0  0  0  0
 34 33  2  0  0  0  0
 35 40  1  0  0  0  0
 36 34  1  0  0  0  0
 37 39  1  0  0  0  0
 39 35  2  0  0  0  0
 39 34  1  0  0  0  0
 40 38  2  0  0  0  0
 43 42  1  0  0  0  0
 44 45  1  0  0  0  0
 45 43  1  0  0  0  0
M  END
>  <MODEL>
4

>  <REMARK>
 VINA RESULT:      -7.0      3.096      5.600
  Name = 
  7 active torsions:
  status: ('A' for Active; 'I' for Inactive)
    1  A    between atoms: C_5  and  C_12
    2  A    between atoms: C_12  and  N_43
    3  A    between atoms: C_16  and  O_22
    4  A    between atoms: C_19  and  N_43
    5  A    between atoms: O_22  and  C_42
    6  A    between atoms: C_26  and  C_42
    7  A    between atoms: C_39  and  C_42
                            x       y       z     vdW  Elec       q    Type
                         _______ _______ _______ _____ _____    ______ ____

>  <TORSDO>
F 7

$$$$
=
 OpenBabel11062420463D

 45 48  0  0  1  0  0  0  0  0999 V2000
  190.9720  175.2160  135.3200 O   0  0  0  0  0  1  0  0  0  0  0  0
  190.5790  171.2160  140.6480 C   0  0  0  0  0  3  0  0  0  0  0  0
  194.4710  173.7890  137.3280 C   0  0  0  0  0  2  0  0  0  0  0  0
  193.3860  174.3880  139.9390 O   0  0  0  0  0  0  0  0  0  0  0  0
  195.6450  175.1790  139.9960 C   0  0  0  0  0  1  0  0  0  0  0  0
  193.3860  173.2380  138.6800 P   0  0  1  0  0  4  0  0  0  0  0  0
  191.7350  173.2310  137.9320 C   0  0  0  0  0  2  0  0  0  0  0  0
  194.8110  171.0200  138.3230 O   0  0  0  0  0  1  0  0  0  0  0  0
  193.7640  173.7110  142.8260 O   0  0  0  0  0  0  0  0  0  0  0  0
  191.6980  174.9150  136.4750 C   0  0  2  0  0  3  0  0  0  0  0  0
  193.0190  175.6590  136.4630 C   0  0  0  0  0  0  0  0  0  0  0  0
  192.7810  170.5940  139.5300 C   0  0  2  0  0  3  0  0  0  0  0  0
  189.7040  172.0250  144.1200 N   0  0  0  0  0  1  0  0  0  0  0  0
  190.4820  171.6650  142.9840 C   0  0  0  0  0  0  0  0  0  0  0  0
  194.2170  175.1500  136.9940 O   0  0  0  0  0  0  0  0  0  0  0  0
  193.1930  173.9870  144.0730 C   0  0  0  0  0  0  0  0  0  0  0  0
  194.6060  174.2640  140.6220 C   0  0  1  0  0  3  0  0  0  0  0  0
  192.5920  171.1060  141.9590 C   0  0  0  0  0  3  0  0  0  0  0  0
  192.6580  173.0340  144.7820 N   0  0  0  0  0  0  0  0  0  0  0  0
  191.9610  170.9910  140.7220 C   0  0  0  0  0  0  0  0  0  0  0  0
  194.4190  174.7140  142.0600 C   0  0  0  0  0  2  0  0  0  0  0  0
  192.6090  171.6290  144.3810 C   0  0  0  0  0  2  0  0  0  0  0  0
  193.9210  171.5760  139.2430 C   0  0  2  0  0  3  0  0  0  0  0  0
  193.0240  176.8480  136.0500 O   0  0  0  0  0  0  0  0  0  0  0  0
  191.8650  171.4500  143.0970 C   0  0  0  0  0  0  0  0  0  0  0  0
  191.8550  173.5280  136.5690 O   0  0  0  0  0  0  0  0  0  0  0  0
  189.8790  171.5460  141.7690 N   0  0  0  0  0  0  0  0  0  0  0  0
  193.1960  175.3900  144.6140 C   0  0  1  0  0  3  0  0  0  0  0  0
  195.0520  177.0790  144.6390 O   0  0  0  0  0  1  0  0  0  0  0  0
  195.3160  175.0370  145.7630 C   0  0  0  0  0  2  0  0  0  0  0  0
  194.5600  175.8390  145.0290 C   0  0  0  0  0  0  0  0  0  0  0  0
  192.6350  176.2940  143.6720 O   0  0  0  0  0  0  0  0  0  0  0  0
  188.5630  177.2830  143.8530 C   0  0  0  0  0  0  0  0  0  0  0  0
  189.0080  176.3170  142.9330 C   0  0  0  0  0  0  0  0  0  0  0  0
  191.2840  176.6240  143.7250 C   0  0  0  0  0  0  0  0  0  0  0  0
  188.0320  175.6440  142.0240 C   0  0  0  0  0  1  0  0  0  0  0  0
  190.8200  175.0160  141.9840 O   0  0  0  0  0  1  0  0  0  0  0  0
  189.4780  177.9160  144.6990 C   0  0  0  0  0  3  0  0  0  0  0  0
  190.3710  175.9830  142.8790 C   0  0  0  0  0  0  0  0  0  0  0  0
  190.8360  177.5880  144.6370 C   0  0  0  0  0  3  0  0  0  0  0  0
  187.2150  177.6200  143.9280 O   0  0  0  0  0  1  0  0  0  0  0  0
  191.9690  170.3300  138.3480 N   0  0  0  0  0  2  0  0  0  0  0  0
  191.8910  168.8870  138.1940 C   0  0  0  0  0  2  0  0  0  0  0  0
  189.6920  169.6680  137.5130 N   0  0  0  0  0  1  0  0  0  0  0  0
  190.4760  168.4850  137.8230 C   0  0  0  0  0  2  0  0  0  0  0  0
  2 20  2  0  0  0  0
  2 27  1  0  0  0  0
  4 17  1  0  0  0  0
  6  3  1  6  0  0  0
  6 23  1  0  0  0  0
  6  4  1  0  0  0  0
  7  6  1  0  0  0  0
  9 16  1  0  0  0  0
 10  1  1  6  0  0  0
 10 26  1  0  0  0  0
 11 10  1  0  0  0  0
 11 15  1  0  0  0  0
 12 42  1  6  0  0  0
 12 20  1  0  0  0  0
 14 25  1  0  0  0  0
 14 13  1  0  0  0  0
 15  3  1  0  0  0  0
 16 28  1  0  0  0  0
 16 19  2  0  0  0  0
 17  5  1  6  0  0  0
 17 21  1  0  0  0  0
 18 25  2  0  0  0  0
 20 18  1  0  0  0  0
 21  9  1  0  0  0  0
 22 19  1  0  0  0  0
 23  8  1  6  0  0  0
 23 12  1  0  0  0  0
 24 11  2  0  0  0  0
 25 22  1  0  0  0  0
 26  7  1  0  0  0  0
 27 14  2  0  0  0  0
 28 32  1  6  0  0  0
 28 31  1  0  0  0  0
 29 31  1  0  0  0  0
 31 30  2  0  0  0  0
 32 35  1  0  0  0  0
 33 41  1  0  0  0  0
 33 38  1  0  0  0  0
 34 33  2  0  0  0  0
 35 40  1  0  0  0  0
 36 34  1  0  0  0  0
 37 39  1  0  0  0  0
 39 34  1  0  0  0  0
 39 35  2  0  0  0  0
 40 38  2  0  0  0  0
 43 42  1  0  0  0  0
 44 45  1  0  0  0  0
 45 43  1  0  0  0  0
M  END
>  <MODEL>
5

>  <REMARK>
 VINA RESULT:      -6.1      2.977      5.699
  Name = 
  7 active torsions:
  status: ('A' for Active; 'I' for Inactive)
    1  A    between atoms: C_5  and  C_12
    2  A    between atoms: C_12  and  N_43
    3  A    between atoms: C_16  and  O_22
    4  A    between atoms: C_19  and  N_43
    5  A    between atoms: O_22  and  C_42
    6  A    between atoms: C_26  and  C_42
    7  A    between atoms: C_39  and  C_42
                            x       y       z     vdW  Elec       q    Type
                         _______ _______ _______ _____ _____    ______ ____

>  <TORSDO>
F 7

$$$$
=
 OpenBabel11062420463D

 45 48  0  0  1  0  0  0  0  0999 V2000
  187.5040  178.5470  142.2050 O   0  0  0  0  0  1  0  0  0  0  0  0
  193.1890  176.4360  144.9920 C   0  0  0  0  0  3  0  0  0  0  0  0
  188.4050  174.3830  142.6060 C   0  0  0  0  0  2  0  0  0  0  0  0
  191.1070  174.7330  141.6430 O   0  0  0  0  0  0  0  0  0  0  0  0
  190.2800  172.7910  140.5140 C   0  0  0  0  0  1  0  0  0  0  0  0
  190.1100  174.8620  143.0200 P   0  0  1  0  0  4  0  0  0  0  0  0
  189.9720  176.6190  143.4450 C   0  0  0  0  0  2  0  0  0  0  0  0
  189.6310  173.1650  145.0120 O   0  0  0  0  0  1  0  0  0  0  0  0
  193.7650  173.3640  141.6220 O   0  0  0  0  0  0  0  0  0  0  0  0
  188.3770  177.4590  142.1360 C   0  0  2  0  0  3  0  0  0  0  0  0
  187.8090  176.3980  141.2150 C   0  0  0  0  0  0  0  0  0  0  0  0
  191.5010  174.5930  145.4840 C   0  0  2  0  0  3  0  0  0  0  0  0
  196.5900  176.3770  143.6090 N   0  0  0  0  0  1  0  0  0  0  0  0
  195.3250  175.9190  144.0760 C   0  0  0  0  0  0  0  0  0  0  0  0
  187.9760  175.0150  141.4050 O   0  0  0  0  0  0  0  0  0  0  0  0
  195.0750  173.5790  141.1800 C   0  0  0  0  0  0  0  0  0  0  0  0
  191.3500  173.3680  141.4260 C   0  0  1  0  0  3  0  0  0  0  0  0
  193.7460  174.1470  144.5030 C   0  0  0  0  0  3  0  0  0  0  0  0
  196.0570  173.6540  142.0320 N   0  0  0  0  0  0  0  0  0  0  0  0
  192.8260  175.0810  144.9760 C   0  0  0  0  0  0  0  0  0  0  0  0
  192.6810  173.2060  140.7150 C   0  0  0  0  0  2  0  0  0  0  0  0
  195.9120  173.5160  143.4800 C   0  0  0  0  0  2  0  0  0  0  0  0
  190.7030  173.8340  144.4190 C   0  0  2  0  0  3  0  0  0  0  0  0
  187.2450  176.7760  140.1550 O   0  0  0  0  0  0  0  0  0  0  0  0
  194.9970  174.5540  144.0430 C   0  0  0  0  0  0  0  0  0  0  0  0
  188.6210  176.9840  143.4300 O   0  0  0  0  0  0  0  0  0  0  0  0
  194.4170  176.8190  144.5440 N   0  0  0  0  0  0  0  0  0  0  0  0
  195.3650  173.7190  139.7120 C   0  0  1  0  0  3  0  0  0  0  0  0
  196.2810  176.0420  139.9670 O   0  0  0  0  0  1  0  0  0  0  0  0
  197.4200  174.4770  138.6420 C   0  0  0  0  0  2  0  0  0  0  0  0
  196.3960  174.7650  139.4290 C   0  0  0  0  0  0  0  0  0  0  0  0
  195.7530  172.4700  139.1540 O   0  0  0  0  0  0  0  0  0  0  0  0
  193.1400  170.3810  136.6240 C   0  0  0  0  0  0  0  0  0  0  0  0
  193.3690  169.9160  137.9310 C   0  0  0  0  0  0  0  0  0  0  0  0
  194.8900  171.7710  138.3150 C   0  0  0  0  0  0  0  0  0  0  0  0
  192.6830  168.6820  138.4170 C   0  0  0  0  0  1  0  0  0  0  0  0
  194.4610  170.1790  140.0790 O   0  0  0  0  0  1  0  0  0  0  0  0
  193.7870  171.5340  136.1690 C   0  0  0  0  0  3  0  0  0  0  0  0
  194.2390  170.6210  138.7790 C   0  0  0  0  0  0  0  0  0  0  0  0
  194.6600  172.2290  137.0110 C   0  0  0  0  0  3  0  0  0  0  0  0
  192.2730  169.7020  135.7740 O   0  0  0  0  0  1  0  0  0  0  0  0
  190.7160  175.6460  146.1180 N   0  0  0  0  0  2  0  0  0  0  0  0
  190.4430  175.2180  147.4790 C   0  0  0  0  0  2  0  0  0  0  0  0
  188.1830  175.8140  146.8090 N   0  0  0  0  0  1  0  0  0  0  0  0
  188.9660  174.9100  147.6340 C   0  0  0  0  0  2  0  0  0  0  0  0
  4  6  1  0  0  0  0
  6  3  1  6  0  0  0
  6  7  1  0  0  0  0
  6 23  1  0  0  0  0
 10  1  1  1  0  0  0
 10 26  1  0  0  0  0
 11 15  1  0  0  0  0
 11 10  1  0  0  0  0
 12 42  1  6  0  0  0
 13 14  1  0  0  0  0
 14 27  1  0  0  0  0
 15  3  1  0  0  0  0
 16  9  1  0  0  0  0
 16 19  2  0  0  0  0
 17  5  1  6  0  0  0
 17  4  1  0  0  0  0
 18 20  2  0  0  0  0
 19 22  1  0  0  0  0
 20  2  1  0  0  0  0
 20 12  1  0  0  0  0
 21 17  1  0  0  0  0
 21  9  1  0  0  0  0
 22 25  1  0  0  0  0
 23  8  1  1  0  0  0
 23 12  1  0  0  0  0
 24 11  2  0  0  0  0
 25 14  2  0  0  0  0
 25 18  1  0  0  0  0
 26  7  1  0  0  0  0
 27  2  2  0  0  0  0
 28 32  1  1  0  0  0
 28 16  1  0  0  0  0
 30 31  2  0  0  0  0
 31 28  1  0  0  0  0
 31 29  1  0  0  0  0
 33 34  1  0  0  0  0
 34 36  1  0  0  0  0
 34 39  2  0  0  0  0
 35 39  1  0  0  0  0
 35 32  1  0  0  0  0
 38 33  2  0  0  0  0
 38 40  1  0  0  0  0
 39 37  1  0  0  0  0
 40 35  2  0  0  0  0
 41 33  1  0  0  0  0
 42 43  1  0  0  0  0
 43 45  1  0  0  0  0
 44 45  1  0  0  0  0
M  END
>  <MODEL>
6

>  <REMARK>
 VINA RESULT:      -6.1      2.647      8.693
  Name = 
  7 active torsions:
  status: ('A' for Active; 'I' for Inactive)
    1  A    between atoms: C_5  and  C_12
    2  A    between atoms: C_12  and  N_43
    3  A    between atoms: C_16  and  O_22
    4  A    between atoms: C_19  and  N_43
    5  A    between atoms: O_22  and  C_42
    6  A    between atoms: C_26  and  C_42
    7  A    between atoms: C_39  and  C_42
                            x       y       z     vdW  Elec       q    Type
                         _______ _______ _______ _____ _____    ______ ____

>  <TORSDO>
F 7

$$$$
=
 OpenBabel11062420463D

 45 48  0  0  1  0  0  0  0  0999 V2000
  188.7480  174.5010  148.0160 O   0  0  0  0  0  1  0  0  0  0  0  0
  189.5610  172.6500  141.6550 C   0  0  0  0  0  3  0  0  0  0  0  0
  190.8930  176.9290  145.2200 C   0  0  0  0  0  2  0  0  0  0  0  0
  192.3770  174.6740  144.1900 O   0  0  0  0  0  0  0  0  0  0  0  0
  193.9930  176.4160  144.4780 C   0  0  0  0  0  1  0  0  0  0  0  0
  190.8920  175.5050  144.0880 P   0  0  1  0  0  4  0  0  0  0  0  0
  189.6010  174.4230  144.7590 C   0  0  0  0  0  2  0  0  0  0  0  0
  190.0430  177.3970  142.4220 O   0  0  0  0  0  1  0  0  0  0  0  0
  193.9960  173.8430  141.8170 O   0  0  0  0  0  0  0  0  0  0  0  0
  189.6590  174.6710  146.9710 C   0  0  2  0  0  3  0  0  0  0  0  0
  190.7430  175.6470  147.3850 C   0  0  0  0  0  0  0  0  0  0  0  0
  189.5600  175.1960  141.5960 C   0  0  2  0  0  3  0  0  0  0  0  0
  191.8210  170.1370  140.2220 N   0  0  0  0  0  1  0  0  0  0  0  0
  191.2660  171.4050  140.5560 C   0  0  0  0  0  0  0  0  0  0  0  0
  191.3650  176.5530  146.5100 O   0  0  0  0  0  0  0  0  0  0  0  0
  194.6720  172.7220  141.3240 C   0  0  0  0  0  0  0  0  0  0  0  0
  193.3360  175.4430  143.5130 C   0  0  1  0  0  3  0  0  0  0  0  0
  191.3170  173.8150  140.4980 C   0  0  0  0  0  3  0  0  0  0  0  0
  194.2930  172.1550  140.2140 N   0  0  0  0  0  0  0  0  0  0  0  0
  190.1530  173.8580  141.2620 C   0  0  0  0  0  0  0  0  0  0  0  0
  194.4270  174.5280  142.9860 C   0  0  0  0  0  2  0  0  0  0  0  0
  193.1770  172.6120  139.3880 C   0  0  0  0  0  2  0  0  0  0  0  0
  190.5230  176.0870  142.3880 C   0  0  2  0  0  3  0  0  0  0  0  0
  191.1910  175.5700  148.5590 O   0  0  0  0  0  0  0  0  0  0  0  0
  191.8890  172.5940  140.1450 C   0  0  0  0  0  0  0  0  0  0  0  0
  188.9700  175.0770  145.8230 O   0  0  0  0  0  0  0  0  0  0  0  0
  190.1270  171.4630  141.2990 N   0  0  0  0  0  0  0  0  0  0  0  0
  195.8530  172.1620  142.0670 C   0  0  1  0  0  3  0  0  0  0  0  0
  197.6750  172.3420  140.3510 O   0  0  0  0  0  1  0  0  0  0  0  0
  197.8200  173.5730  142.3430 C   0  0  0  0  0  2  0  0  0  0  0  0
  197.1520  172.7210  141.5810 C   0  0  0  0  0  0  0  0  0  0  0  0
  195.7100  172.3670  143.4660 O   0  0  0  0  0  0  0  0  0  0  0  0
  194.5840  169.2110  145.9890 C   0  0  0  0  0  0  0  0  0  0  0  0
  195.8580  169.7910  146.1210 C   0  0  0  0  0  0  0  0  0  0  0  0
  195.3420  171.3160  144.3010 C   0  0  0  0  0  0  0  0  0  0  0  0
  196.8070  169.2850  147.1570 C   0  0  0  0  0  1  0  0  0  0  0  0
  197.4830  171.4440  145.4100 O   0  0  0  0  0  1  0  0  0  0  0  0
  193.6980  169.6830  145.0160 C   0  0  0  0  0  3  0  0  0  0  0  0
  196.2300  170.8520  145.2790 C   0  0  0  0  0  0  0  0  0  0  0  0
  194.0740  170.7320  144.1730 C   0  0  0  0  0  3  0  0  0  0  0  0
  194.1930  168.1660  146.8210 O   0  0  0  0  0  1  0  0  0  0  0  0
  188.2530  175.0920  142.2330 N   0  0  0  0  0  2  0  0  0  0  0  0
  187.3160  175.8430  141.4150 C   0  0  0  0  0  2  0  0  0  0  0  0
  186.7980  176.5350  143.6870 N   0  0  0  0  0  1  0  0  0  0  0  0
  186.5290  176.8040  142.2850 C   0  0  0  0  0  2  0  0  0  0  0  0
  3 15  1  0  0  0  0
  6  4  1  0  0  0  0
  6  7  1  1  0  0  0
  6  3  1  0  0  0  0
  7 26  1  0  0  0  0
  9 21  1  0  0  0  0
 10 11  1  0  0  0  0
 10  1  1  1  0  0  0
 11 24  2  0  0  0  0
 12 42  1  1  0  0  0
 12 23  1  0  0  0  0
 13 14  1  0  0  0  0
 14 27  2  0  0  0  0
 15 11  1  0  0  0  0
 16  9  1  0  0  0  0
 16 28  1  0  0  0  0
 17  4  1  0  0  0  0
 17  5  1  1  0  0  0
 18 20  1  0  0  0  0
 19 16  2  0  0  0  0
 20 12  1  0  0  0  0
 20  2  2  0  0  0  0
 21 17  1  0  0  0  0
 22 25  1  0  0  0  0
 22 19  1  0  0  0  0
 23  8  1  1  0  0  0
 23  6  1  0  0  0  0
 25 18  2  0  0  0  0
 25 14  1  0  0  0  0
 26 10  1  0  0  0  0
 27  2  1  0  0  0  0
 28 31  1  6  0  0  0
 28 32  1  0  0  0  0
 29 31  1  0  0  0  0
 31 30  2  0  0  0  0
 32 35  1  0  0  0  0
 33 34  1  0  0  0  0
 33 41  1  0  0  0  0
 34 36  1  0  0  0  0
 35 39  1  0  0  0  0
 38 33  2  0  0  0  0
 39 37  1  0  0  0  0
 39 34  2  0  0  0  0
 40 35  2  0  0  0  0
 40 38  1  0  0  0  0
 43 42  1  0  0  0  0
 43 45  1  0  0  0  0
 45 44  1  0  0  0  0
M  END
>  <MODEL>
7

>  <REMARK>
 VINA RESULT:      -6.1      3.360      8.920
  Name = 
  7 active torsions:
  status: ('A' for Active; 'I' for Inactive)
    1  A    between atoms: C_5  and  C_12
    2  A    between atoms: C_12  and  N_43
    3  A    between atoms: C_16  and  O_22
    4  A    between atoms: C_19  and  N_43
    5  A    between atoms: O_22  and  C_42
    6  A    between atoms: C_26  and  C_42
    7  A    between atoms: C_39  and  C_42
                            x       y       z     vdW  Elec       q    Type
                         _______ _______ _______ _____ _____    ______ ____

>  <TORSDO>
F 7

$$$$
=
 OpenBabel11062420463D

 45 48  0  0  1  0  0  0  0  0999 V2000
  188.8050  178.6650  141.9800 O   0  0  0  0  0  1  0  0  0  0  0  0
  193.9620  176.2580  145.4670 C   0  0  0  0  0  3  0  0  0  0  0  0
  188.5440  174.9740  144.1300 C   0  0  0  0  0  2  0  0  0  0  0  0
  191.0990  174.0570  143.1410 O   0  0  0  0  0  0  0  0  0  0  0  0
  189.6320  172.1770  142.9400 C   0  0  0  0  0  1  0  0  0  0  0  0
  190.3520  175.0360  144.3200 P   0  0  1  0  0  4  0  0  0  0  0  0
  190.7640  176.7630  143.9520 C   0  0  0  0  0  2  0  0  0  0  0  0
  189.6590  174.5400  146.8400 O   0  0  0  0  0  1  0  0  0  0  0  0
  193.2440  172.0610  143.7370 O   0  0  0  0  0  0  0  0  0  0  0  0
  189.3240  177.4350  142.3920 C   0  0  2  0  0  3  0  0  0  0  0  0
  188.3740  176.3190  142.0050 C   0  0  0  0  0  0  0  0  0  0  0  0
  191.8970  175.3910  146.6790 C   0  0  2  0  0  3  0  0  0  0  0  0
  197.0180  174.6040  144.2810 N   0  0  0  0  0  1  0  0  0  0  0  0
  195.7410  174.7870  144.8840 C   0  0  0  0  0  0  0  0  0  0  0  0
  188.1680  175.1570  142.7690 O   0  0  0  0  0  0  0  0  0  0  0  0
  194.4990  171.6660  143.2610 C   0  0  0  0  0  0  0  0  0  0  0  0
  190.9220  172.7210  143.5300 C   0  0  1  0  0  3  0  0  0  0  0  0
  193.7920  173.9210  146.0080 C   0  0  0  0  0  3  0  0  0  0  0  0
  195.5580  171.7800  144.0120 N   0  0  0  0  0  0  0  0  0  0  0  0
  193.2340  175.1980  146.0260 C   0  0  0  0  0  0  0  0  0  0  0  0
  192.0590  171.8840  142.9720 C   0  0  0  0  0  2  0  0  0  0  0  0
  195.5550  172.2990  145.3780 C   0  0  0  0  0  2  0  0  0  0  0  0
  190.7960  174.5450  146.0300 C   0  0  2  0  0  3  0  0  0  0  0  0
  187.8160  176.3810  140.8780 O   0  0  0  0  0  0  0  0  0  0  0  0
  195.0420  173.7010  145.4330 C   0  0  0  0  0  0  0  0  0  0  0  0
  189.5770  177.4820  143.7670 O   0  0  0  0  0  0  0  0  0  0  0  0
  195.1850  176.0300  144.9130 N   0  0  0  0  0  0  0  0  0  0  0  0
  194.6380  171.0950  141.8770 C   0  0  1  0  0  3  0  0  0  0  0  0
  193.7070  168.9230  142.7230 O   0  0  0  0  0  1  0  0  0  0  0  0
  193.2650  169.6060  140.5220 C   0  0  0  0  0  2  0  0  0  0  0  0
  193.8380  169.8450  141.6910 C   0  0  0  0  0  0  0  0  0  0  0  0
  194.2920  172.0630  140.8970 O   0  0  0  0  0  0  0  0  0  0  0  0
  197.0230  175.0610  139.8260 C   0  0  0  0  0  0  0  0  0  0  0  0
  195.9680  175.3580  140.7070 C   0  0  0  0  0  0  0  0  0  0  0  0
  195.1940  173.0620  140.5390 C   0  0  0  0  0  0  0  0  0  0  0  0
  195.8210  176.7380  141.2600 C   0  0  0  0  0  1  0  0  0  0  0  0
  194.0200  174.6290  141.9520 O   0  0  0  0  0  1  0  0  0  0  0  0
  197.1560  173.7710  139.3050 C   0  0  0  0  0  3  0  0  0  0  0  0
  195.0590  174.3510  141.0690 C   0  0  0  0  0  0  0  0  0  0  0  0
  196.2450  172.7720  139.6600 C   0  0  0  0  0  3  0  0  0  0  0  0
  197.9400  176.0430  139.4640 O   0  0  0  0  0  1  0  0  0  0  0  0
  191.5210  176.7940  146.7930 N   0  0  0  0  0  2  0  0  0  0  0  0
  191.2530  177.0540  148.1970 C   0  0  0  0  0  2  0  0  0  0  0  0
  189.1610  177.8620  147.2570 N   0  0  0  0  0  1  0  0  0  0  0  0
  190.1230  178.0580  148.3280 C   0  0  0  0  0  2  0  0  0  0  0  0
  2 20  1  0  0  0  0
  3  6  1  0  0  0  0
  4 17  1  0  0  0  0
  4  6  1  0  0  0  0
  6  7  1  6  0  0  0
  6 23  1  0  0  0  0
 10  1  1  1  0  0  0
 10 26  1  0  0  0  0
 11 10  1  0  0  0  0
 11 15  1  0  0  0  0
 12 42  1  6  0  0  0
 13 14  1  0  0  0  0
 14 27  1  0  0  0  0
 14 25  2  0  0  0  0
 15  3  1  0  0  0  0
 16  9  1  0  0  0  0
 16 19  2  0  0  0  0
 17  5  1  6  0  0  0
 18 20  2  0  0  0  0
 19 22  1  0  0  0  0
 20 12  1  0  0  0  0
 21 17  1  0  0  0  0
 21  9  1  0  0  0  0
 22 25  1  0  0  0  0
 23 12  1  0  0  0  0
 23  8  1  1  0  0  0
 24 11  2  0  0  0  0
 25 18  1  0  0  0  0
 26  7  1  0  0  0  0
 27  2  2  0  0  0  0
 28 32  1  6  0  0  0
 28 16  1  0  0  0  0
 30 31  2  0  0  0  0
 31 28  1  0  0  0  0
 31 29  1  0  0  0  0
 33 34  1  0  0  0  0
 34 39  2  0  0  0  0
 34 36  1  0  0  0  0
 35 32  1  0  0  0  0
 35 39  1  0  0  0  0
 38 40  1  0  0  0  0
 38 33  2  0  0  0  0
 39 37  1  0  0  0  0
 40 35  2  0  0  0  0
 41 33  1  0  0  0  0
 42 43  1  0  0  0  0
 43 45  1  0  0  0  0
 44 45  1  0  0  0  0
M  END
>  <MODEL>
8

>  <REMARK>
 VINA RESULT:      -6.1      2.906      8.244
  Name = 
  7 active torsions:
  status: ('A' for Active; 'I' for Inactive)
    1  A    between atoms: C_5  and  C_12
    2  A    between atoms: C_12  and  N_43
    3  A    between atoms: C_16  and  O_22
    4  A    between atoms: C_19  and  N_43
    5  A    between atoms: O_22  and  C_42
    6  A    between atoms: C_26  and  C_42
    7  A    between atoms: C_39  and  C_42
                            x       y       z     vdW  Elec       q    Type
                         _______ _______ _______ _____ _____    ______ ____

>  <TORSDO>
F 7

$$$$
=
 OpenBabel11062420463D

 45 48  0  0  1  0  0  0  0  0999 V2000
  188.0400  174.7390  139.5300 O   0  0  0  0  0  1  0  0  0  0  0  0
  191.7600  176.5320  144.7720 C   0  0  0  0  0  3  0  0  0  0  0  0
  189.3280  171.8950  142.4560 C   0  0  0  0  0  2  0  0  0  0  0  0
  192.0290  172.9190  142.4650 O   0  0  0  0  0  0  0  0  0  0  0  0
  192.2570  170.5380  142.4030 C   0  0  0  0  0  1  0  0  0  0  0  0
  190.4630  173.1660  143.0910 P   0  0  1  0  0  4  0  0  0  0  0  0
  189.8180  174.7080  142.3900 C   0  0  0  0  0  2  0  0  0  0  0  0
  189.3390  172.3940  145.3750 O   0  0  0  0  0  1  0  0  0  0  0  0
  194.5150  172.9110  144.1260 O   0  0  0  0  0  0  0  0  0  0  0  0
  189.0010  174.1930  140.3830 C   0  0  2  0  0  3  0  0  0  0  0  0
  189.1840  172.7190  140.0780 C   0  0  0  0  0  0  0  0  0  0  0  0
  190.4150  174.5280  145.5860 C   0  0  2  0  0  3  0  0  0  0  0  0
  195.3370  177.3470  144.9320 N   0  0  0  0  0  1  0  0  0  0  0  0
  194.1160  176.6350  145.1040 C   0  0  0  0  0  0  0  0  0  0  0  0
  189.4710  171.7420  141.0470 O   0  0  0  0  0  0  0  0  0  0  0  0
  195.8040  173.4540  144.1250 C   0  0  0  0  0  0  0  0  0  0  0  0
  192.5860  171.8240  143.1420 C   0  0  1  0  0  3  0  0  0  0  0  0
  192.8830  174.7070  145.8650 C   0  0  0  0  0  3  0  0  0  0  0  0
  196.1790  174.2720  145.0670 N   0  0  0  0  0  0  0  0  0  0  0  0
  191.7030  175.2730  145.3870 C   0  0  0  0  0  0  0  0  0  0  0  0
  194.0980  171.9610  143.1540 C   0  0  0  0  0  2  0  0  0  0  0  0
  195.3390  174.6860  146.1900 C   0  0  0  0  0  2  0  0  0  0  0  0
  190.4250  173.1450  144.9250 C   0  0  2  0  0  3  0  0  0  0  0  0
  189.1870  172.3610  138.8710 O   0  0  0  0  0  0  0  0  0  0  0  0
  194.0980  175.3750  145.7230 C   0  0  0  0  0  0  0  0  0  0  0  0
  188.6270  174.4330  141.7090 O   0  0  0  0  0  0  0  0  0  0  0  0
  192.9540  177.1760  144.6450 N   0  0  0  0  0  0  0  0  0  0  0  0
  196.7770  173.0940  143.0370 C   0  0  1  0  0  3  0  0  0  0  0  0
  197.8460  171.4990  144.6530 O   0  0  0  0  0  1  0  0  0  0  0  0
  197.9410  171.0660  142.3490 C   0  0  0  0  0  2  0  0  0  0  0  0
  197.5390  171.8440  143.3420 C   0  0  0  0  0  0  0  0  0  0  0  0
  196.1140  172.9840  141.7850 O   0  0  0  0  0  0  0  0  0  0  0  0
  197.4740  175.1460  138.4580 C   0  0  0  0  0  0  0  0  0  0  0  0
  196.6340  174.0340  138.2730 C   0  0  0  0  0  0  0  0  0  0  0  0
  196.5680  173.6960  140.6780 C   0  0  0  0  0  0  0  0  0  0  0  0
  196.2270  173.6240  136.8960 C   0  0  0  0  0  1  0  0  0  0  0  0
  195.3300  172.2220  139.2190 O   0  0  0  0  0  1  0  0  0  0  0  0
  197.8580  175.5250  139.7480 C   0  0  0  0  0  3  0  0  0  0  0  0
  196.1750  173.3150  139.3890 C   0  0  0  0  0  0  0  0  0  0  0  0
  197.4070  174.8030  140.8560 C   0  0  0  0  0  3  0  0  0  0  0  0
  197.9310  175.8760  137.3650 O   0  0  0  0  0  1  0  0  0  0  0  0
  189.2450  175.3120  145.2100 N   0  0  0  0  0  2  0  0  0  0  0  0
  188.5530  175.6660  146.4370 C   0  0  0  0  0  2  0  0  0  0  0  0
  188.1860  177.5940  145.0020 N   0  0  0  0  0  1  0  0  0  0  0  0
  188.0890  177.1090  146.3680 C   0  0  0  0  0  2  0  0  0  0  0  0
  2 20  1  0  0  0  0
  3  6  1  0  0  0  0
  4  6  1  0  0  0  0
  4 17  1  0  0  0  0
  6  7  1  6  0  0  0
  6 23  1  0  0  0  0
 10  1  1  6  0  0  0
 10 26  1  0  0  0  0
 11 10  1  0  0  0  0
 11 15  1  0  0  0  0
 12 42  1  6  0  0  0
 13 14  1  0  0  0  0
 14 25  2  0  0  0  0
 15  3  1  0  0  0  0
 16  9  1  0  0  0  0
 16 19  2  0  0  0  0
 17  5  1  6  0  0  0
 17 21  1  0  0  0  0
 19 22  1  0  0  0  0
 20 12  1  0  0  0  0
 20 18  2  0  0  0  0
 21  9  1  0  0  0  0
 23  8  1  6  0  0  0
 23 12  1  0  0  0  0
 24 11  2  0  0  0  0
 25 18  1  0  0  0  0
 25 22  1  0  0  0  0
 26  7  1  0  0  0  0
 27  2  2  0  0  0  0
 27 14  1  0  0  0  0
 28 32  1  6  0  0  0
 28 31  1  0  0  0  0
 28 16  1  0  0  0  0
 30 31  2  0  0  0  0
 31 29  1  0  0  0  0
 33 38  1  0  0  0  0
 34 33  2  0  0  0  0
 34 39  1  0  0  0  0
 35 40  1  0  0  0  0
 35 32  1  0  0  0  0
 36 34  1  0  0  0  0
 37 39  1  0  0  0  0
 38 40  2  0  0  0  0
 39 35  2  0  0  0  0
 41 33  1  0  0  0  0
 42 43  1  0  0  0  0
 44 45  1  0  0  0  0
 45 43  1  0  0  0  0
M  END
>  <MODEL>
9

>  <REMARK>
 VINA RESULT:      -6.0      2.885      8.352
  Name = 
  7 active torsions:
  status: ('A' for Active; 'I' for Inactive)
    1  A    between atoms: C_5  and  C_12
    2  A    between atoms: C_12  and  N_43
    3  A    between atoms: C_16  and  O_22
    4  A    between atoms: C_19  and  N_43
    5  A    between atoms: O_22  and  C_42
    6  A    between atoms: C_26  and  C_42
    7  A    between atoms: C_39  and  C_42
                            x       y       z     vdW  Elec       q    Type
                         _______ _______ _______ _____ _____    ______ ____

>  <TORSDO>
F 7

$$$$
