=
 OpenBabel11062420573D

 31 34  0  0  1  0  0  0  0  0999 V2000
  188.9480  176.0340  145.4820 N   0  0  0  0  0  0  0  0  0  0  0  0
  185.3830  178.5150  147.2630 C   0  0  0  0  0  2  0  0  0  0  0  0
  187.5850  176.3410  145.9470 C   0  0  2  0  0  3  0  0  0  0  0  0
  186.6820  177.8770  147.6830 C   0  0  0  0  0  2  0  0  0  0  0  0
  186.5810  176.6270  144.8140 C   0  0  1  0  0  3  0  0  0  0  0  0
  187.4550  177.7940  146.4020 C   0  0  2  0  0  3  0  0  0  0  0  0
  186.4210  178.0530  145.3220 C   0  0  2  0  0  3  0  0  0  0  0  0
  185.1520  178.1990  145.9150 O   0  0  0  0  0  0  0  0  0  0  0  0
  187.4360  177.6810  142.7480 N   0  0  0  0  0  0  0  0  0  0  0  0
  187.9390  177.2570  141.4500 C   0  0  2  0  0  3  0  0  0  0  0  0
  187.0410  177.7210  140.4070 N   0  0  0  0  0  1  0  0  0  0  0  0
  187.8550  175.7750  141.5710 C   0  0  0  0  0  0  0  0  0  0  0  0
  187.1380  176.6110  143.4150 C   0  0  0  0  0  0  0  0  0  0  0  0
  188.2700  174.8090  140.5190 C   0  0  0  0  0  1  0  0  0  0  0  0
  187.3910  175.4040  142.7140 N   0  0  0  0  0  0  0  0  0  0  0  0
  189.3180  174.7130  145.9920 C   0  0  0  0  0  2  0  0  0  0  0  0
  189.6720  172.4180  145.0020 N   0  0  0  0  0  1  0  0  0  0  0  0
  189.7890  173.8310  144.8840 C   0  0  0  0  0  0  0  0  0  0  0  0
  190.3060  174.3310  143.8510 O   0  0  0  0  0  0  0  0  0  0  0  0
  189.9110  177.0340  145.9820 C   0  0  0  0  0  2  0  0  0  0  0  0
  190.9760  176.4590  146.9280 C   0  0  2  0  0  3  0  0  0  0  0  0
  190.9340  177.1350  148.1480 O   0  0  0  0  0  1  0  0  0  0  0  0
  192.3720  176.5370  146.3140 C   0  0  1  0  0  3  0  0  0  0  0  0
  193.1820  175.2540  146.5340 C   0  0  0  0  0  2  0  0  0  0  0  0
  194.7620  176.3970  144.8630 C   0  0  2  0  0  3  0  0  0  0  0  0
  194.6240  175.4160  146.0370 C   0  0  0  0  0  2  0  0  0  0  0  0
  193.4960  176.4390  144.0090 C   0  0  0  0  0  2  0  0  0  0  0  0
  192.2850  176.9060  144.8260 C   0  0  0  0  0  2  0  0  0  0  0  0
  196.7340  177.0430  143.4680 O   0  0  0  0  0  0  0  0  0  0  0  0
  196.2340  174.8360  143.8320 O   0  0  0  0  0  1  0  0  0  0  0  0
  195.9470  176.0460  144.0310 C   0  0  0  0  0  0  0  0  0  0  0  0
  1 20  1  0  0  0  0
  1 16  1  0  0  0  0
  2  4  1  0  0  0  0
  3  1  1  6  0  0  0
  3  6  1  0  0  0  0
  5 13  1  6  0  0  0
  5  7  1  0  0  0  0
  5  3  1  0  0  0  0
  6  4  1  1  0  0  0
  7  8  1  1  0  0  0
  7  6  1  0  0  0  0
  8  2  1  0  0  0  0
  9 13  2  0  0  0  0
 10 11  1  6  0  0  0
 10 12  1  0  0  0  0
 10  9  1  0  0  0  0
 12 15  2  0  0  0  0
 14 12  1  0  0  0  0
 15 13  1  0  0  0  0
 18 17  1  0  0  0  0
 18 16  1  0  0  0  0
 19 18  2  0  0  0  0
 20 21  1  0  0  0  0
 21 22  1  1  0  0  0
 23 24  1  0  0  0  0
 23 21  1  6  0  0  0
 25 31  1  6  0  0  0
 25 26  1  0  0  0  0
 26 24  1  0  0  0  0
 27 28  1  0  0  0  0
 27 25  1  0  0  0  0
 28 23  1  0  0  0  0
 29 31  2  0  0  0  0
 30 31  1  0  0  0  0
M  END
>  <MODEL>
1

>  <REMARK>
 VINA RESULT:      -7.1      0.000      0.000
  Name = 
  8 active torsions:
  status: ('A' for Active; 'I' for Inactive)
    1  A    between atoms: C_1  and  C_11
    2  A    between atoms: C_6  and  N_22
    3  A    between atoms: C_8  and  C_17
    4  A    between atoms: C_9  and  N_22
    5  A    between atoms: C_9  and  C_23
    6  A    between atoms: C_11  and  C_29
    7  A    between atoms: C_14  and  C_27
    8  A    between atoms: N_22  and  C_29
                            x       y       z     vdW  Elec       q    Type
                         _______ _______ _______ _____ _____    ______ ____

>  <TORSDO>
F 8

$$$$
=
 OpenBabel11062420573D

 31 34  0  0  1  0  0  0  0  0999 V2000
  190.4250  175.5160  142.9140 N   0  0  0  0  0  0  0  0  0  0  0  0
  195.0610  176.1220  142.4950 C   0  0  0  0  0  2  0  0  0  0  0  0
  191.8600  175.1860  142.9230 C   0  0  2  0  0  3  0  0  0  0  0  0
  193.8160  176.0490  141.6500 C   0  0  0  0  0  2  0  0  0  0  0  0
  192.4850  175.1250  144.3300 C   0  0  1  0  0  3  0  0  0  0  0  0
  192.7250  176.4070  142.6130 C   0  0  2  0  0  3  0  0  0  0  0  0
  193.3810  176.3040  143.9780 C   0  0  2  0  0  3  0  0  0  0  0  0
  194.7080  175.8570  143.8270 O   0  0  0  0  0  0  0  0  0  0  0  0
  191.5940  176.5980  146.1030 N   0  0  0  0  0  0  0  0  0  0  0  0
  190.5720  176.5440  147.1380 C   0  0  2  0  0  3  0  0  0  0  0  0
  191.2000  176.6240  148.4460 N   0  0  0  0  0  1  0  0  0  0  0  0
  190.0110  175.1800  146.9260 C   0  0  0  0  0  0  0  0  0  0  0  0
  191.5700  175.4650  145.4770 C   0  0  0  0  0  0  0  0  0  0  0  0
  188.8940  174.5860  147.7100 C   0  0  0  0  0  1  0  0  0  0  0  0
  190.5920  174.5580  145.9590 N   0  0  0  0  0  0  0  0  0  0  0  0
  189.7990  174.8000  141.8020 C   0  0  0  0  0  2  0  0  0  0  0  0
  189.3930  172.6660  143.0860 N   0  0  0  0  0  1  0  0  0  0  0  0
  188.8790  173.7400  142.3070 C   0  0  0  0  0  0  0  0  0  0  0  0
  187.6500  173.7820  142.0340 O   0  0  0  0  0  0  0  0  0  0  0  0
  190.2220  176.9670  142.7340 C   0  0  0  0  0  2  0  0  0  0  0  0
  188.7930  177.3520  142.3210 C   0  0  2  0  0  3  0  0  0  0  0  0
  188.8390  178.3390  141.3350 O   0  0  0  0  0  1  0  0  0  0  0  0
  187.9700  177.8210  143.5190 C   0  0  1  0  0  3  0  0  0  0  0  0
  186.6850  178.5430  143.1010 C   0  0  0  0  0  2  0  0  0  0  0  0
  186.1800  178.3290  145.6100 C   0  0  2  0  0  3  0  0  0  0  0  0
  185.9570  179.1290  144.3170 C   0  0  0  0  0  2  0  0  0  0  0  0
  186.4270  176.8490  145.3240 C   0  0  0  0  0  2  0  0  0  0  0  0
  187.6810  176.6470  144.4650 C   0  0  0  0  0  2  0  0  0  0  0  0
  185.2010  178.4310  147.9080 O   0  0  0  0  0  1  0  0  0  0  0  0
  183.8730  178.7070  146.0600 O   0  0  0  0  0  0  0  0  0  0  0  0
  185.0220  178.5020  146.5320 C   0  0  0  0  0  0  0  0  0  0  0  0
  2  8  1  0  0  0  0
  3  1  1  1  0  0  0
  3  5  1  0  0  0  0
  4  2  1  0  0  0  0
  5 13  1  1  0  0  0
  6  4  1  6  0  0  0
  6  3  1  0  0  0  0
  6  7  1  0  0  0  0
  7  8  1  6  0  0  0
  7  5  1  0  0  0  0
  9 10  1  0  0  0  0
 10 11  1  1  0  0  0
 12 10  1  0  0  0  0
 12 14  1  0  0  0  0
 13 15  1  0  0  0  0
 13  9  2  0  0  0  0
 15 12  2  0  0  0  0
 16 18  1  0  0  0  0
 16  1  1  0  0  0  0
 18 17  1  0  0  0  0
 19 18  2  0  0  0  0
 20  1  1  0  0  0  0
 21 22  1  6  0  0  0
 21 20  1  0  0  0  0
 23 21  1  6  0  0  0
 23 28  1  0  0  0  0
 24 23  1  0  0  0  0
 24 26  1  0  0  0  0
 25 31  1  1  0  0  0
 26 25  1  0  0  0  0
 27 25  1  0  0  0  0
 28 27  1  0  0  0  0
 30 31  2  0  0  0  0
 31 29  1  0  0  0  0
M  END
>  <MODEL>
2

>  <REMARK>
 VINA RESULT:      -6.8      2.289      7.398
  Name = 
  8 active torsions:
  status: ('A' for Active; 'I' for Inactive)
    1  A    between atoms: C_1  and  C_11
    2  A    between atoms: C_6  and  N_22
    3  A    between atoms: C_8  and  C_17
    4  A    between atoms: C_9  and  N_22
    5  A    between atoms: C_9  and  C_23
    6  A    between atoms: C_11  and  C_29
    7  A    between atoms: C_14  and  C_27
    8  A    between atoms: N_22  and  C_29
                            x       y       z     vdW  Elec       q    Type
                         _______ _______ _______ _____ _____    ______ ____

>  <TORSDO>
F 8

$$$$
=
 OpenBabel11062420573D

 31 34  0  0  1  0  0  0  0  0999 V2000
  190.2560  174.7150  143.3250 N   0  0  0  0  0  0  0  0  0  0  0  0
  194.6420  176.0700  142.3390 C   0  0  0  0  0  2  0  0  0  0  0  0
  191.7260  174.6620  143.2480 C   0  0  2  0  0  3  0  0  0  0  0  0
  193.3840  175.6060  141.6510 C   0  0  0  0  0  2  0  0  0  0  0  0
  192.4400  174.9920  144.5730 C   0  0  1  0  0  3  0  0  0  0  0  0
  192.3080  175.9370  142.6400 C   0  0  2  0  0  3  0  0  0  0  0  0
  193.0570  176.2240  143.9280 C   0  0  2  0  0  3  0  0  0  0  0  0
  194.4340  176.0080  143.7260 O   0  0  0  0  0  0  0  0  0  0  0  0
  191.0170  174.5160  146.5370 N   0  0  0  0  0  0  0  0  0  0  0  0
  190.2330  175.2650  147.5080 C   0  0  2  0  0  3  0  0  0  0  0  0
  188.8280  174.9260  147.3630 N   0  0  0  0  0  1  0  0  0  0  0  0
  190.4670  176.6650  147.0580 C   0  0  0  0  0  0  0  0  0  0  0  0
  191.5510  175.3740  145.7270 C   0  0  0  0  0  0  0  0  0  0  0  0
  189.9110  177.8770  147.7170 C   0  0  0  0  0  1  0  0  0  0  0  0
  191.2350  176.7240  146.0250 N   0  0  0  0  0  0  0  0  0  0  0  0
  189.7190  173.5590  142.6060 C   0  0  0  0  0  2  0  0  0  0  0  0
  190.6160  171.2040  142.7610 N   0  0  0  0  0  1  0  0  0  0  0  0
  189.9530  172.3020  143.3770 C   0  0  0  0  0  0  0  0  0  0  0  0
  189.5520  172.2030  144.5670 O   0  0  0  0  0  0  0  0  0  0  0  0
  189.7420  175.9530  142.7060 C   0  0  0  0  0  2  0  0  0  0  0  0
  188.2610  175.8830  142.3050 C   0  0  2  0  0  3  0  0  0  0  0  0
  188.0390  176.6880  141.1860 O   0  0  0  0  0  1  0  0  0  0  0  0
  187.3480  176.2950  143.4570 C   0  0  1  0  0  3  0  0  0  0  0  0
  187.9570  177.4040  144.3210 C   0  0  0  0  0  2  0  0  0  0  0  0
  185.5910  177.4280  145.3180 C   0  0  2  0  0  3  0  0  0  0  0  0
  187.0860  177.6920  145.5500 C   0  0  0  0  0  2  0  0  0  0  0  0
  185.1990  177.6390  143.8570 C   0  0  0  0  0  2  0  0  0  0  0  0
  185.9590  176.6820  142.9300 C   0  0  0  0  0  2  0  0  0  0  0  0
  185.1430  178.4900  147.5370 O   0  0  0  0  0  1  0  0  0  0  0  0
  183.7230  178.8320  145.7710 O   0  0  0  0  0  0  0  0  0  0  0  0
  184.7680  178.2880  146.2140 C   0  0  0  0  0  0  0  0  0  0  0  0
  2  8  1  0  0  0  0
  3  1  1  1  0  0  0
  3  5  1  0  0  0  0
  4  2  1  0  0  0  0
  5 13  1  1  0  0  0
  6  4  1  6  0  0  0
  6  3  1  0  0  0  0
  6  7  1  0  0  0  0
  7  8  1  6  0  0  0
  7  5  1  0  0  0  0
  9 10  1  0  0  0  0
 10 11  1  6  0  0  0
 12 10  1  0  0  0  0
 12 14  1  0  0  0  0
 13 15  1  0  0  0  0
 13  9  2  0  0  0  0
 15 12  2  0  0  0  0
 16  1  1  0  0  0  0
 16 18  1  0  0  0  0
 17 18  1  0  0  0  0
 18 19  2  0  0  0  0
 20  1  1  0  0  0  0
 21 22  1  6  0  0  0
 21 20  1  0  0  0  0
 23 21  1  6  0  0  0
 23 24  1  0  0  0  0
 24 26  1  0  0  0  0
 25 26  1  0  0  0  0
 25 31  1  1  0  0  0
 27 25  1  0  0  0  0
 28 23  1  0  0  0  0
 28 27  1  0  0  0  0
 30 31  2  0  0  0  0
 31 29  1  0  0  0  0
M  END
>  <MODEL>
3

>  <REMARK>
 VINA RESULT:      -6.7      2.352      7.369
  Name = 
  8 active torsions:
  status: ('A' for Active; 'I' for Inactive)
    1  A    between atoms: C_1  and  C_11
    2  A    between atoms: C_6  and  N_22
    3  A    between atoms: C_8  and  C_17
    4  A    between atoms: C_9  and  N_22
    5  A    between atoms: C_9  and  C_23
    6  A    between atoms: C_11  and  C_29
    7  A    between atoms: C_14  and  C_27
    8  A    between atoms: N_22  and  C_29
                            x       y       z     vdW  Elec       q    Type
                         _______ _______ _______ _____ _____    ______ ____

>  <TORSDO>
F 8

$$$$
=
 OpenBabel11062420573D

 31 34  0  0  1  0  0  0  0  0999 V2000
  188.1550  176.8710  143.4850 N   0  0  0  0  0  0  0  0  0  0  0  0
  184.7170  177.8100  146.5410 C   0  0  0  0  0  2  0  0  0  0  0  0
  187.3560  177.6270  144.4650 C   0  0  2  0  0  3  0  0  0  0  0  0
  184.9410  177.6200  145.0630 C   0  0  0  0  0  2  0  0  0  0  0  0
  187.9640  177.6630  145.8800 C   0  0  1  0  0  3  0  0  0  0  0  0
  186.1930  176.7980  145.0070 C   0  0  2  0  0  3  0  0  0  0  0  0
  186.7640  176.8900  146.4100 C   0  0  2  0  0  3  0  0  0  0  0  0
  185.9610  177.7450  147.1880 O   0  0  0  0  0  0  0  0  0  0  0  0
  189.3030  175.7620  146.7150 N   0  0  0  0  0  0  0  0  0  0  0  0
  190.6910  175.3270  146.6890 C   0  0  2  0  0  3  0  0  0  0  0  0
  191.2200  175.3060  148.0420 N   0  0  0  0  0  1  0  0  0  0  0  0
  191.3300  176.4250  145.9110 C   0  0  0  0  0  0  0  0  0  0  0  0
  189.2380  176.8850  146.0740 C   0  0  0  0  0  0  0  0  0  0  0  0
  192.7720  176.4900  145.5530 C   0  0  0  0  0  1  0  0  0  0  0  0
  190.4820  177.3270  145.5540 N   0  0  0  0  0  0  0  0  0  0  0  0
  188.4120  177.7430  142.3380 C   0  0  0  0  0  2  0  0  0  0  0  0
  186.9310  177.3820  140.3260 N   0  0  0  0  0  1  0  0  0  0  0  0
  187.1530  178.0100  141.5830 C   0  0  0  0  0  0  0  0  0  0  0  0
  186.2900  178.8020  142.0470 O   0  0  0  0  0  0  0  0  0  0  0  0
  187.4270  175.6710  143.0280 C   0  0  0  0  0  2  0  0  0  0  0  0
  188.3070  174.6470  142.2950 C   0  0  2  0  0  3  0  0  0  0  0  0
  187.5230  173.5760  141.8650 O   0  0  0  0  0  1  0  0  0  0  0  0
  189.4530  174.1590  143.1780 C   0  0  1  0  0  3  0  0  0  0  0  0
  189.4170  172.6430  143.4010 C   0  0  0  0  0  2  0  0  0  0  0  0
  191.7360  173.1010  144.4040 C   0  0  2  0  0  3  0  0  0  0  0  0
  190.4890  172.2050  144.4070 C   0  0  0  0  0  2  0  0  0  0  0  0
  191.9790  173.7290  143.0330 C   0  0  0  0  0  2  0  0  0  0  0  0
  190.8030  174.6180  142.6090 C   0  0  0  0  0  2  0  0  0  0  0  0
  193.1080  171.0110  144.4420 O   0  0  0  0  0  0  0  0  0  0  0  0
  193.7820  172.8700  145.6000 O   0  0  0  0  0  1  0  0  0  0  0  0
  192.9310  172.3280  144.8480 C   0  0  0  0  0  0  0  0  0  0  0  0
  2  8  1  0  0  0  0
  3  1  1  6  0  0  0
  3  6  1  0  0  0  0
  3  5  1  0  0  0  0
  4  2  1  0  0  0  0
  5 13  1  6  0  0  0
  5  7  1  0  0  0  0
  6  4  1  1  0  0  0
  6  7  1  0  0  0  0
  7  8  1  1  0  0  0
 10  9  1  0  0  0  0
 10 11  1  1  0  0  0
 12 10  1  0  0  0  0
 13  9  2  0  0  0  0
 14 12  1  0  0  0  0
 15 12  2  0  0  0  0
 15 13  1  0  0  0  0
 16  1  1  0  0  0  0
 17 18  1  0  0  0  0
 18 19  2  0  0  0  0
 18 16  1  0  0  0  0
 20  1  1  0  0  0  0
 21 22  1  1  0  0  0
 21 20  1  0  0  0  0
 23 21  1  6  0  0  0
 23 24  1  0  0  0  0
 24 26  1  0  0  0  0
 25 26  1  0  0  0  0
 25 31  1  6  0  0  0
 27 25  1  0  0  0  0
 28 27  1  0  0  0  0
 28 23  1  0  0  0  0
 29 31  2  0  0  0  0
 31 30  1  0  0  0  0
M  END
>  <MODEL>
4

>  <REMARK>
 VINA RESULT:      -6.5      2.254      4.984
  Name = 
  8 active torsions:
  status: ('A' for Active; 'I' for Inactive)
    1  A    between atoms: C_1  and  C_11
    2  A    between atoms: C_6  and  N_22
    3  A    between atoms: C_8  and  C_17
    4  A    between atoms: C_9  and  N_22
    5  A    between atoms: C_9  and  C_23
    6  A    between atoms: C_11  and  C_29
    7  A    between atoms: C_14  and  C_27
    8  A    between atoms: N_22  and  C_29
                            x       y       z     vdW  Elec       q    Type
                         _______ _______ _______ _____ _____    ______ ____

>  <TORSDO>
F 8

$$$$
=
 OpenBabel11062420573D

 31 34  0  0  1  0  0  0  0  0999 V2000
  191.6000  175.0260  145.1670 N   0  0  0  0  0  0  0  0  0  0  0  0
  190.0670  171.4570  142.5310 C   0  0  0  0  0  2  0  0  0  0  0  0
  191.5380  173.6740  144.5870 C   0  0  2  0  0  3  0  0  0  0  0  0
  189.6700  172.2670  143.7380 C   0  0  0  0  0  2  0  0  0  0  0  0
  192.5710  173.4180  143.4720 C   0  0  1  0  0  3  0  0  0  0  0  0
  190.4210  173.5510  143.5530 C   0  0  2  0  0  3  0  0  0  0  0  0
  191.4380  173.2380  142.4710 C   0  0  2  0  0  3  0  0  0  0  0  0
  191.3390  171.8800  142.1140 O   0  0  0  0  0  0  0  0  0  0  0  0
  193.1340  175.4510  142.1850 N   0  0  0  0  0  0  0  0  0  0  0  0
  194.2210  176.4150  142.1140 C   0  0  2  0  0  3  0  0  0  0  0  0
  194.8550  176.3370  140.8090 N   0  0  0  0  0  1  0  0  0  0  0  0
  195.1450  175.8960  143.1600 C   0  0  0  0  0  0  0  0  0  0  0  0
  193.4440  174.5850  143.0970 C   0  0  0  0  0  0  0  0  0  0  0  0
  196.4400  176.5200  143.5410 C   0  0  0  0  0  1  0  0  0  0  0  0
  194.6890  174.8340  143.7300 N   0  0  0  0  0  0  0  0  0  0  0  0
  192.1380  174.9160  146.5240 C   0  0  0  0  0  2  0  0  0  0  0  0
  193.8260  176.7920  146.5090 N   0  0  0  0  0  1  0  0  0  0  0  0
  192.6140  176.2430  147.0130 C   0  0  0  0  0  0  0  0  0  0  0  0
  191.9560  176.8740  147.8820 O   0  0  0  0  0  0  0  0  0  0  0  0
  190.2570  175.6340  145.2250 C   0  0  0  0  0  2  0  0  0  0  0  0
  190.0550  176.8010  144.2460 C   0  0  2  0  0  3  0  0  0  0  0  0
  191.1430  177.6710  144.3220 O   0  0  0  0  0  1  0  0  0  0  0  0
  188.7480  177.5420  144.5190 C   0  0  1  0  0  3  0  0  0  0  0  0
  187.8140  177.5510  143.3040 C   0  0  0  0  0  2  0  0  0  0  0  0
  186.1620  178.4800  145.0380 C   0  0  2  0  0  3  0  0  0  0  0  0
  186.5790  178.4240  143.5610 C   0  0  0  0  0  2  0  0  0  0  0  0
  186.5400  177.1990  145.7810 C   0  0  0  0  0  2  0  0  0  0  0  0
  188.0560  176.9700  145.7650 C   0  0  0  0  0  2  0  0  0  0  0  0
  184.0660  178.6700  146.3890 O   0  0  0  0  0  1  0  0  0  0  0  0
  184.0340  179.0310  144.1250 O   0  0  0  0  0  0  0  0  0  0  0  0
  184.7000  178.7440  145.1540 C   0  0  0  0  0  0  0  0  0  0  0  0
  1 20  1  0  0  0  0
  1 16  1  0  0  0  0
  2  4  1  0  0  0  0
  3  1  1  6  0  0  0
  5 13  1  6  0  0  0
  5  3  1  0  0  0  0
  6  4  1  1  0  0  0
  6  3  1  0  0  0  0
  7  8  1  1  0  0  0
  7  5  1  0  0  0  0
  7  6  1  0  0  0  0
  8  2  1  0  0  0  0
  9 13  2  0  0  0  0
 10 11  1  6  0  0  0
 10  9  1  0  0  0  0
 10 12  1  0  0  0  0
 12 14  1  0  0  0  0
 12 15  2  0  0  0  0
 13 15  1  0  0  0  0
 16 18  1  0  0  0  0
 17 18  1  0  0  0  0
 18 19  2  0  0  0  0
 21 22  1  1  0  0  0
 21 20  1  0  0  0  0
 23 21  1  6  0  0  0
 23 28  1  0  0  0  0
 24 26  1  0  0  0  0
 24 23  1  0  0  0  0
 25 31  1  6  0  0  0
 25 27  1  0  0  0  0
 26 25  1  0  0  0  0
 28 27  1  0  0  0  0
 30 31  2  0  0  0  0
 31 29  1  0  0  0  0
M  END
>  <MODEL>
5

>  <REMARK>
 VINA RESULT:      -6.3      2.937      7.340
  Name = 
  8 active torsions:
  status: ('A' for Active; 'I' for Inactive)
    1  A    between atoms: C_1  and  C_11
    2  A    between atoms: C_6  and  N_22
    3  A    between atoms: C_8  and  C_17
    4  A    between atoms: C_9  and  N_22
    5  A    between atoms: C_9  and  C_23
    6  A    between atoms: C_11  and  C_29
    7  A    between atoms: C_14  and  C_27
    8  A    between atoms: N_22  and  C_29
                            x       y       z     vdW  Elec       q    Type
                         _______ _______ _______ _____ _____    ______ ____

>  <TORSDO>
F 8

$$$$
=
 OpenBabel11062420573D

 31 34  0  0  1  0  0  0  0  0999 V2000
  188.2540  177.0810  142.9060 N   0  0  0  0  0  0  0  0  0  0  0  0
  183.9670  178.6840  143.9520 C   0  0  0  0  0  2  0  0  0  0  0  0
  187.2040  178.0280  143.3160 C   0  0  2  0  0  3  0  0  0  0  0  0
  184.7850  178.2340  142.7700 C   0  0  0  0  0  2  0  0  0  0  0  0
  187.1390  178.2800  144.8350 C   0  0  1  0  0  3  0  0  0  0  0  0
  185.8330  177.3580  143.3880 C   0  0  2  0  0  3  0  0  0  0  0  0
  185.7470  177.6630  144.8720 C   0  0  2  0  0  3  0  0  0  0  0  0
  184.7920  178.6750  145.0880 O   0  0  0  0  0  0  0  0  0  0  0  0
  189.2800  177.9130  146.0130 N   0  0  0  0  0  0  0  0  0  0  0  0
  189.9020  176.8750  146.8210 C   0  0  2  0  0  3  0  0  0  0  0  0
  191.0710  176.3570  146.1290 N   0  0  0  0  0  1  0  0  0  0  0  0
  188.8300  175.8420  146.8510 C   0  0  0  0  0  0  0  0  0  0  0  0
  188.1030  177.4890  145.6800 C   0  0  0  0  0  0  0  0  0  0  0  0
  188.9160  174.5430  147.5710 C   0  0  0  0  0  1  0  0  0  0  0  0
  187.7860  176.2040  146.1890 N   0  0  0  0  0  0  0  0  0  0  0  0
  189.2870  177.8290  142.1880 C   0  0  0  0  0  2  0  0  0  0  0  0
  191.2750  178.6350  143.5180 N   0  0  0  0  0  1  0  0  0  0  0  0
  190.6290  177.5930  142.7970 C   0  0  0  0  0  0  0  0  0  0  0  0
  191.2010  176.4790  142.6620 O   0  0  0  0  0  0  0  0  0  0  0  0
  187.7030  176.0390  142.0180 C   0  0  0  0  0  2  0  0  0  0  0  0
  187.8980  174.6070  142.5370 C   0  0  2  0  0  3  0  0  0  0  0  0
  188.9350  174.5830  143.4710 O   0  0  0  0  0  1  0  0  0  0  0  0
  188.1750  173.6300  141.3960 C   0  0  1  0  0  3  0  0  0  0  0  0
  188.5390  174.3430  140.0890 C   0  0  0  0  0  2  0  0  0  0  0  0
  189.1260  171.9480  139.3710 C   0  0  2  0  0  3  0  0  0  0  0  0
  188.6660  173.3450  138.9310 C   0  0  0  0  0  2  0  0  0  0  0  0
  190.0060  172.0090  140.6190 C   0  0  0  0  0  2  0  0  0  0  0  0
  189.2490  172.6130  141.8080 C   0  0  0  0  0  2  0  0  0  0  0  0
  190.6290  171.9870  137.3740 O   0  0  0  0  0  0  0  0  0  0  0  0
  189.7200  170.0170  138.1120 O   0  0  0  0  0  1  0  0  0  0  0  0
  189.8390  171.2620  138.2570 C   0  0  0  0  0  0  0  0  0  0  0  0
  2  8  1  0  0  0  0
  3  1  1  1  0  0  0
  3  6  1  0  0  0  0
  3  5  1  0  0  0  0
  4  2  1  0  0  0  0
  5  7  1  0  0  0  0
  5 13  1  1  0  0  0
  6  4  1  6  0  0  0
  6  7  1  0  0  0  0
  7  8  1  6  0  0  0
  9 10  1  0  0  0  0
 10 11  1  6  0  0  0
 10 12  1  0  0  0  0
 12 14  1  0  0  0  0
 13  9  2  0  0  0  0
 13 15  1  0  0  0  0
 15 12  2  0  0  0  0
 16 18  1  0  0  0  0
 16  1  1  0  0  0  0
 18 17  1  0  0  0  0
 19 18  2  0  0  0  0
 20 21  1  0  0  0  0
 20  1  1  0  0  0  0
 21 22  1  1  0  0  0
 23 28  1  0  0  0  0
 23 21  1  1  0  0  0
 24 23  1  0  0  0  0
 25 31  1  6  0  0  0
 25 27  1  0  0  0  0
 26 25  1  0  0  0  0
 26 24  1  0  0  0  0
 27 28  1  0  0  0  0
 29 31  2  0  0  0  0
 30 31  1  0  0  0  0
M  END
>  <MODEL>
6

>  <REMARK>
 VINA RESULT:      -6.3      3.015      5.985
  Name = 
  8 active torsions:
  status: ('A' for Active; 'I' for Inactive)
    1  A    between atoms: C_1  and  C_11
    2  A    between atoms: C_6  and  N_22
    3  A    between atoms: C_8  and  C_17
    4  A    between atoms: C_9  and  N_22
    5  A    between atoms: C_9  and  C_23
    6  A    between atoms: C_11  and  C_29
    7  A    between atoms: C_14  and  C_27
    8  A    between atoms: N_22  and  C_29
                            x       y       z     vdW  Elec       q    Type
                         _______ _______ _______ _____ _____    ______ ____

>  <TORSDO>
F 8

$$$$
=
 OpenBabel11062420573D

 31 34  0  0  1  0  0  0  0  0999 V2000
  190.2390  174.0560  144.3010 N   0  0  0  0  0  0  0  0  0  0  0  0
  191.2550  171.2520  140.6750 C   0  0  0  0  0  2  0  0  0  0  0  0
  190.7680  172.8920  143.5700 C   0  0  2  0  0  3  0  0  0  0  0  0
  190.0760  171.7310  141.4810 C   0  0  0  0  0  2  0  0  0  0  0  0
  192.2910  172.9290  143.3420 C   0  0  1  0  0  3  0  0  0  0  0  0
  190.5590  173.0250  142.0630 C   0  0  2  0  0  3  0  0  0  0  0  0
  192.0590  173.0000  141.8390 C   0  0  2  0  0  3  0  0  0  0  0  0
  192.4240  171.7740  141.2500 O   0  0  0  0  0  0  0  0  0  0  0  0
  193.3170  175.1630  143.0810 N   0  0  0  0  0  0  0  0  0  0  0  0
  193.9920  176.1440  143.9170 C   0  0  2  0  0  3  0  0  0  0  0  0
  195.3650  176.3010  143.4690 N   0  0  0  0  0  1  0  0  0  0  0  0
  193.9650  175.4680  145.2440 C   0  0  0  0  0  0  0  0  0  0  0  0
  193.0060  174.1590  143.8370 C   0  0  0  0  0  0  0  0  0  0  0  0
  194.5110  176.0410  146.5040 C   0  0  0  0  0  1  0  0  0  0  0  0
  193.3890  174.3170  145.1940 N   0  0  0  0  0  0  0  0  0  0  0  0
  189.7000  173.5860  145.5780 C   0  0  0  0  0  2  0  0  0  0  0  0
  188.5660  175.0820  147.2650 N   0  0  0  0  0  1  0  0  0  0  0  0
  189.7570  174.6670  146.6050 C   0  0  0  0  0  0  0  0  0  0  0  0
  190.8510  175.2240  146.8810 O   0  0  0  0  0  0  0  0  0  0  0  0
  189.1640  174.7130  143.5320 C   0  0  0  0  0  2  0  0  0  0  0  0
  189.4180  176.2010  143.2470 C   0  0  2  0  0  3  0  0  0  0  0  0
  190.4570  176.6640  144.0560 O   0  0  0  0  0  1  0  0  0  0  0  0
  188.1560  177.0350  143.4560 C   0  0  1  0  0  3  0  0  0  0  0  0
  186.8820  176.2790  143.0650 C   0  0  0  0  0  2  0  0  0  0  0  0
  185.7720  178.2940  144.2070 C   0  0  2  0  0  3  0  0  0  0  0  0
  185.6500  177.1900  143.1470 C   0  0  0  0  0  2  0  0  0  0  0  0
  186.6630  177.8650  145.3710 C   0  0  0  0  0  2  0  0  0  0  0  0
  188.0890  177.5550  144.8990 C   0  0  0  0  0  2  0  0  0  0  0  0
  184.1310  178.6740  146.0550 O   0  0  0  0  0  1  0  0  0  0  0  0
  183.5370  179.0440  143.8730 O   0  0  0  0  0  0  0  0  0  0  0  0
  184.4220  178.6930  144.6960 C   0  0  0  0  0  0  0  0  0  0  0  0
  1 16  1  0  0  0  0
  2  8  1  0  0  0  0
  2  4  1  0  0  0  0
  3  1  1  1  0  0  0
  5  3  1  0  0  0  0
  5 13  1  1  0  0  0
  6  4  1  6  0  0  0
  6  3  1  0  0  0  0
  7  8  1  6  0  0  0
  7  6  1  0  0  0  0
  7  5  1  0  0  0  0
  9 13  2  0  0  0  0
  9 10  1  0  0  0  0
 10 11  1  6  0  0  0
 10 12  1  0  0  0  0
 12 14  1  0  0  0  0
 13 15  1  0  0  0  0
 15 12  2  0  0  0  0
 16 18  1  0  0  0  0
 18 19  2  0  0  0  0
 18 17  1  0  0  0  0
 20  1  1  0  0  0  0
 21 20  1  0  0  0  0
 21 22  1  1  0  0  0
 23 21  1  1  0  0  0
 23 28  1  0  0  0  0
 24 26  1  0  0  0  0
 24 23  1  0  0  0  0
 25 31  1  1  0  0  0
 25 27  1  0  0  0  0
 26 25  1  0  0  0  0
 28 27  1  0  0  0  0
 30 31  2  0  0  0  0
 31 29  1  0  0  0  0
M  END
>  <MODEL>
7

>  <REMARK>
 VINA RESULT:      -6.2      2.756      7.622
  Name = 
  8 active torsions:
  status: ('A' for Active; 'I' for Inactive)
    1  A    between atoms: C_1  and  C_11
    2  A    between atoms: C_6  and  N_22
    3  A    between atoms: C_8  and  C_17
    4  A    between atoms: C_9  and  N_22
    5  A    between atoms: C_9  and  C_23
    6  A    between atoms: C_11  and  C_29
    7  A    between atoms: C_14  and  C_27
    8  A    between atoms: N_22  and  C_29
                            x       y       z     vdW  Elec       q    Type
                         _______ _______ _______ _____ _____    ______ ____

>  <TORSDO>
F 8

$$$$
=
 OpenBabel11062420573D

 31 34  0  0  1  0  0  0  0  0999 V2000
  190.9980  176.4710  145.0940 N   0  0  0  0  0  0  0  0  0  0  0  0
  195.3320  174.9240  146.0200 C   0  0  0  0  0  2  0  0  0  0  0  0
  192.4450  176.2550  144.9260 C   0  0  2  0  0  3  0  0  0  0  0  0
  194.3150  175.9120  146.5290 C   0  0  0  0  0  2  0  0  0  0  0  0
  192.8050  175.1750  143.8870 C   0  0  1  0  0  3  0  0  0  0  0  0
  193.0160  175.3610  146.0240 C   0  0  2  0  0  3  0  0  0  0  0  0
  193.4240  174.3280  144.9900 C   0  0  2  0  0  3  0  0  0  0  0  0
  194.8250  174.3310  144.8530 O   0  0  0  0  0  0  0  0  0  0  0  0
  191.1440  174.7940  142.0970 N   0  0  0  0  0  0  0  0  0  0  0  0
  190.0480  173.8780  141.8210 C   0  0  2  0  0  3  0  0  0  0  0  0
  188.7970  174.6160  141.7750 N   0  0  0  0  0  1  0  0  0  0  0  0
  190.0790  173.0070  143.0290 C   0  0  0  0  0  0  0  0  0  0  0  0
  191.6450  174.4610  143.2440 C   0  0  0  0  0  0  0  0  0  0  0  0
  189.1700  171.8560  143.2750 C   0  0  0  0  0  1  0  0  0  0  0  0
  191.0100  173.3480  143.8520 N   0  0  0  0  0  0  0  0  0  0  0  0
  190.6920  177.8450  144.6920 C   0  0  0  0  0  2  0  0  0  0  0  0
  189.4620  177.9380  142.4900 N   0  0  0  0  0  1  0  0  0  0  0  0
  190.6910  177.9740  143.2060 C   0  0  0  0  0  0  0  0  0  0  0  0
  191.7760  178.0980  142.5790 O   0  0  0  0  0  0  0  0  0  0  0  0
  190.5980  176.2760  146.5010 C   0  0  0  0  0  2  0  0  0  0  0  0
  189.2030  175.6580  146.6760 C   0  0  2  0  0  3  0  0  0  0  0  0
  189.1440  174.4350  146.0070 O   0  0  0  0  0  1  0  0  0  0  0  0
  188.1070  176.5990  146.1830 C   0  0  1  0  0  3  0  0  0  0  0  0
  187.5090  176.1520  144.8440 C   0  0  0  0  0  2  0  0  0  0  0  0
  185.8050  177.9900  145.4070 C   0  0  2  0  0  3  0  0  0  0  0  0
  186.5180  177.1920  144.3050 C   0  0  0  0  0  2  0  0  0  0  0  0
  185.6580  177.1750  146.6910 C   0  0  0  0  0  2  0  0  0  0  0  0
  187.0250  176.7750  147.2590 C   0  0  0  0  0  2  0  0  0  0  0  0
  184.1110  178.3050  143.5950 O   0  0  0  0  0  0  0  0  0  0  0  0
  183.6780  179.0080  145.7330 O   0  0  0  0  0  1  0  0  0  0  0  0
  184.4750  178.4610  144.9270 C   0  0  0  0  0  0  0  0  0  0  0  0
  1 20  1  0  0  0  0
  2  4  1  0  0  0  0
  3  1  1  1  0  0  0
  3  6  1  0  0  0  0
  5 13  1  1  0  0  0
  5  3  1  0  0  0  0
  5  7  1  0  0  0  0
  6  4  1  6  0  0  0
  7  8  1  6  0  0  0
  7  6  1  0  0  0  0
  8  2  1  0  0  0  0
  9 13  2  0  0  0  0
 10 11  1  1  0  0  0
 10  9  1  0  0  0  0
 10 12  1  0  0  0  0
 12 14  1  0  0  0  0
 12 15  2  0  0  0  0
 13 15  1  0  0  0  0
 16  1  1  0  0  0  0
 17 18  1  0  0  0  0
 18 16  1  0  0  0  0
 19 18  2  0  0  0  0
 20 21  1  0  0  0  0
 21 22  1  6  0  0  0
 23 21  1  1  0  0  0
 23 28  1  0  0  0  0
 24 23  1  0  0  0  0
 25 31  1  6  0  0  0
 25 27  1  0  0  0  0
 26 24  1  0  0  0  0
 26 25  1  0  0  0  0
 27 28  1  0  0  0  0
 29 31  2  0  0  0  0
 31 30  1  0  0  0  0
M  END
>  <MODEL>
8

>  <REMARK>
 VINA RESULT:      -6.2      1.974      6.921
  Name = 
  8 active torsions:
  status: ('A' for Active; 'I' for Inactive)
    1  A    between atoms: C_1  and  C_11
    2  A    between atoms: C_6  and  N_22
    3  A    between atoms: C_8  and  C_17
    4  A    between atoms: C_9  and  N_22
    5  A    between atoms: C_9  and  C_23
    6  A    between atoms: C_11  and  C_29
    7  A    between atoms: C_14  and  C_27
    8  A    between atoms: N_22  and  C_29
                            x       y       z     vdW  Elec       q    Type
                         _______ _______ _______ _____ _____    ______ ____

>  <TORSDO>
F 8

$$$$
=
 OpenBabel11062420573D

 31 34  0  0  1  0  0  0  0  0999 V2000
  195.0740  174.8650  143.9130 N   0  0  0  0  0  0  0  0  0  0  0  0
  196.7090  171.0670  146.1360 C   0  0  0  0  0  2  0  0  0  0  0  0
  195.7100  173.5500  144.1000 C   0  0  2  0  0  3  0  0  0  0  0  0
  197.0090  172.5330  145.9630 C   0  0  0  0  0  2  0  0  0  0  0  0
  194.8020  172.3550  143.7480 C   0  0  1  0  0  3  0  0  0  0  0  0
  195.6850  173.1110  145.5630 C   0  0  2  0  0  3  0  0  0  0  0  0
  194.8430  171.9020  145.2010 C   0  0  2  0  0  3  0  0  0  0  0  0
  195.6260  170.7370  145.3070 O   0  0  0  0  0  0  0  0  0  0  0  0
  193.0520  172.9270  142.0990 N   0  0  0  0  0  0  0  0  0  0  0  0
  191.6260  173.2140  142.0970 C   0  0  2  0  0  3  0  0  0  0  0  0
  191.4060  174.5840  141.6680 N   0  0  0  0  0  1  0  0  0  0  0  0
  191.2950  173.0750  143.5430 C   0  0  0  0  0  0  0  0  0  0  0  0
  193.3970  172.6920  143.3250 C   0  0  0  0  0  0  0  0  0  0  0  0
  189.9370  173.2420  144.1270 C   0  0  0  0  0  1  0  0  0  0  0  0
  192.3260  172.7700  144.2520 N   0  0  0  0  0  0  0  0  0  0  0  0
  195.9210  175.6570  143.0190 C   0  0  0  0  0  2  0  0  0  0  0  0
  195.8300  174.6870  140.6910 N   0  0  0  0  0  1  0  0  0  0  0  0
  195.3730  175.6520  141.6310 C   0  0  0  0  0  0  0  0  0  0  0  0
  194.5190  176.5080  141.2820 O   0  0  0  0  0  0  0  0  0  0  0  0
  194.9370  175.5700  145.2020 C   0  0  0  0  0  2  0  0  0  0  0  0
  194.2060  176.9170  145.1050 C   0  0  2  0  0  3  0  0  0  0  0  0
  194.9440  177.9010  145.7630 O   0  0  0  0  0  1  0  0  0  0  0  0
  192.7910  176.8290  145.6740 C   0  0  1  0  0  3  0  0  0  0  0  0
  191.7270  176.6880  144.5810 C   0  0  0  0  0  2  0  0  0  0  0  0
  190.2250  176.2180  146.6100 C   0  0  2  0  0  3  0  0  0  0  0  0
  190.3130  176.7500  145.1720 C   0  0  0  0  0  2  0  0  0  0  0  0
  191.2770  175.1450  146.8820 C   0  0  0  0  0  2  0  0  0  0  0  0
  192.6980  175.6970  146.7080 C   0  0  0  0  0  2  0  0  0  0  0  0
  188.6820  174.5400  147.6380 O   0  0  0  0  0  1  0  0  0  0  0  0
  187.8530  176.3040  146.4320 O   0  0  0  0  0  0  0  0  0  0  0  0
  188.8570  175.6960  146.8870 C   0  0  0  0  0  0  0  0  0  0  0  0
  1 20  1  0  0  0  0
  3  1  1  1  0  0  0
  3  6  1  0  0  0  0
  4  2  1  0  0  0  0
  5 13  1  1  0  0  0
  5  3  1  0  0  0  0
  5  7  1  0  0  0  0
  6  4  1  6  0  0  0
  7  8  1  6  0  0  0
  7  6  1  0  0  0  0
  8  2  1  0  0  0  0
  9 13  2  0  0  0  0
 10 11  1  1  0  0  0
 10  9  1  0  0  0  0
 10 12  1  0  0  0  0
 12 14  1  0  0  0  0
 12 15  2  0  0  0  0
 13 15  1  0  0  0  0
 16  1  1  0  0  0  0
 17 18  1  0  0  0  0
 18 16  1  0  0  0  0
 19 18  2  0  0  0  0
 21 20  1  0  0  0  0
 21 22  1  1  0  0  0
 23 21  1  6  0  0  0
 23 28  1  0  0  0  0
 24 26  1  0  0  0  0
 24 23  1  0  0  0  0
 25 27  1  0  0  0  0
 25 31  1  6  0  0  0
 26 25  1  0  0  0  0
 28 27  1  0  0  0  0
 30 31  2  0  0  0  0
 31 29  1  0  0  0  0
M  END
>  <MODEL>
9

>  <REMARK>
 VINA RESULT:      -6.1      3.267      7.387
  Name = 
  8 active torsions:
  status: ('A' for Active; 'I' for Inactive)
    1  A    between atoms: C_1  and  C_11
    2  A    between atoms: C_6  and  N_22
    3  A    between atoms: C_8  and  C_17
    4  A    between atoms: C_9  and  N_22
    5  A    between atoms: C_9  and  C_23
    6  A    between atoms: C_11  and  C_29
    7  A    between atoms: C_14  and  C_27
    8  A    between atoms: N_22  and  C_29
                            x       y       z     vdW  Elec       q    Type
                         _______ _______ _______ _____ _____    ______ ____

>  <TORSDO>
F 8

$$$$
