=
 OpenBabel11062422173D

 41 45  0  0  1  0  0  0  0  0999 V2000
  185.2170  177.9730  139.8530 C   0  0  0  0  0  2  0  0  0  0  0  0
  185.9270  177.3480  141.0390 C   0  0  2  0  0  3  0  0  0  0  0  0
  187.8450  177.1160  142.4360 C   0  0  1  0  0  0  0  0  0  0  0  0
  183.3090  178.2120  141.4590 C   0  0  0  0  0  0  0  0  0  0  0  0
  184.2160  178.0250  142.6630 C   0  0  1  0  0  3  0  0  0  0  0  0
  187.2320  179.1000  143.7580 O   0  0  0  0  0  1  0  0  0  0  0  0
  185.6630  178.2330  142.2190 C   0  0  1  0  0  3  0  0  0  0  0  0
  186.7520  177.9000  143.2270 C   0  0  1  0  0  3  0  0  0  0  0  0
  183.8140  178.0790  140.1470 O   0  0  0  0  0  0  0  0  0  0  0  0
  187.7510  175.6310  142.7940 C   0  0  0  0  0  1  0  0  0  0  0  0
  187.4340  177.2540  140.9690 C   0  0  0  0  0  2  0  0  0  0  0  0
  182.0700  178.3760  141.6260 O   0  0  0  0  0  0  0  0  0  0  0  0
  183.8450  178.9610  143.7710 C   0  0  0  0  0  3  0  0  0  0  0  0
  184.5570  178.4150  146.2220 C   0  0  0  0  0  3  0  0  0  0  0  0
  184.1970  178.6980  145.0020 C   0  0  0  0  0  0  0  0  0  0  0  0
  184.8700  177.0070  146.5840 C   0  0  0  0  0  2  0  0  0  0  0  0
  186.1860  176.9460  147.3440 C   0  0  2  0  0  3  0  0  0  0  0  0
  186.5150  178.3270  147.8840 C   0  0  0  0  0  1  0  0  0  0  0  0
  187.2210  176.5130  146.4670 O   0  0  0  0  0  0  0  0  0  0  0  0
  189.2930  177.2220  147.2100 O   0  0  0  0  0  0  0  0  0  0  0  0
  188.5220  176.2680  146.9060 C   0  0  0  0  0  0  0  0  0  0  0  0
  189.5910  174.3490  146.0040 O   0  0  0  0  0  1  0  0  0  0  0  0
  188.9520  174.8590  147.1390 C   0  0  0  0  0  2  0  0  0  0  0  0
  189.1810  177.5860  142.5790 O   0  0  0  0  0  0  0  0  0  0  0  0
  193.3010  174.2210  142.5680 O   0  0  0  0  0  0  0  0  0  0  0  0
  192.0540  176.7810  144.4570 C   0  0  1  0  0  3  0  0  0  0  0  0
  194.1260  176.5130  145.2460 C   0  0  0  0  0  2  0  0  0  0  0  0
  193.3620  175.2800  143.1690 C   0  0  0  0  0  0  0  0  0  0  0  0
  190.7680  177.5540  144.3850 C   0  0  0  0  0  2  0  0  0  0  0  0
  192.2930  176.3170  143.0590 C   0  0  1  0  0  3  0  0  0  0  0  0
  190.9220  175.8640  142.6020 C   0  0  0  0  0  2  0  0  0  0  0  0
  194.5440  175.6010  144.0560 C   0  0  1  0  0  3  0  0  0  0  0  0
  189.9340  176.7250  143.4050 C   0  0  2  0  0  3  0  0  0  0  0  0
  193.1750  177.5010  144.8930 O   0  0  0  0  0  0  0  0  0  0  0  0
  195.5650  176.2050  143.3070 O   0  0  0  0  0  0  0  0  0  0  0  0
  196.3440  175.1330  142.8430 C   0  0  2  0  0  3  0  0  0  0  0  0
  197.9410  173.5110  143.6960 O   0  0  0  0  0  0  0  0  0  0  0  0
  197.5930  174.8760  143.7040 C   0  0  2  0  0  3  0  0  0  0  0  0
  197.3120  173.9920  144.8600 C   0  0  0  0  0  2  0  0  0  0  0  0
  196.7320  175.3360  141.3810 C   0  0  0  0  0  2  0  0  0  0  0  0
  195.6110  175.7070  140.6350 O   0  0  0  0  0  1  0  0  0  0  0  0
  1  9  1  0  0  0  0
  2  1  1  6  0  0  0
  2  7  1  0  0  0  0
  3 24  1  0  0  0  0
  3 10  1  1  0  0  0
  3  8  1  0  0  0  0
  4 12  2  0  0  0  0
  4  5  1  0  0  0  0
  5 13  1  1  0  0  0
  7  5  1  0  0  0  0
  7  8  1  0  0  0  0
  8  6  1  0  0  0  0
  9  4  1  0  0  0  0
 11  2  1  0  0  0  0
 11  3  1  0  0  0  0
 13 15  2  0  0  0  0
 14 16  1  0  0  0  0
 15 14  2  0  0  0  0
 16 17  1  0  0  0  0
 17 18  1  0  0  0  0
 19 21  1  0  0  0  0
 19 17  1  0  0  0  0
 21 23  1  0  0  0  0
 21 20  2  0  0  0  0
 22 23  1  0  0  0  0
 24 33  1  0  0  0  0
 25 28  2  0  0  0  0
 26 34  1  0  0  0  0
 28 32  1  0  0  0  0
 29 26  1  0  0  0  0
 30 28  1  0  0  0  0
 30 26  1  0  0  0  0
 31 30  1  0  0  0  0
 31 33  1  0  0  0  0
 32 27  1  0  0  0  0
 33 29  1  0  0  0  0
 34 27  1  0  0  0  0
 35 32  1  0  0  0  0
 36 35  1  0  0  0  0
 36 38  1  0  0  0  0
 37 38  1  0  0  0  0
 37 39  1  0  0  0  0
 38 39  1  0  0  0  0
 40 36  1  0  0  0  0
 41 40  1  0  0  0  0
M  END
>  <MODEL>
1

>  <REMARK>
 VINA RESULT:      -7.6      0.000      0.000
  Name = 
  12 active torsions:
  status: ('A' for Active; 'I' for Inactive)
    1  A    between atoms: C_2  and  C_16
    2  A    between atoms: C_4  and  C_41
    3  A    between atoms: O_11  and  C_28
    4  A    between atoms: O_11  and  C_40
    5  A    between atoms: C_12  and  O_29
    6  A    between atoms: C_13  and  C_40
    7  A    between atoms: C_14  and  C_33
    8  A    between atoms: C_21  and  C_33
    9  A    between atoms: O_25  and  C_32
   10  A    between atoms: O_25  and  C_33
   11  A    between atoms: C_28  and  C_41
   12  A    between atoms: O_29  and  C_34
                            x       y       z     vdW  Elec       q    Type
                         _______ _______ _______ _____ _____    ______ ____

>  <TORSDO>
F 12

$$$$
=
 OpenBabel11062422173D

 41 45  0  0  1  0  0  0  0  0999 V2000
  196.1480  176.6950  142.1340 C   0  0  0  0  0  2  0  0  0  0  0  0
  196.1110  175.5870  143.1700 C   0  0  2  0  0  3  0  0  0  0  0  0
  194.9750  174.3510  144.8630 C   0  0  1  0  0  0  0  0  0  0  0  0
  197.1830  174.9370  140.6780 C   0  0  0  0  0  0  0  0  0  0  0  0
  196.6850  173.8140  141.5720 C   0  0  1  0  0  3  0  0  0  0  0  0
  193.8520  172.9290  143.1970 O   0  0  0  0  0  1  0  0  0  0  0  0
  195.5860  174.3650  142.4800 C   0  0  1  0  0  3  0  0  0  0  0  0
  195.0850  173.4550  143.5900 C   0  0  1  0  0  3  0  0  0  0  0  0
  196.9870  176.2890  141.0400 O   0  0  0  0  0  0  0  0  0  0  0  0
  196.1390  174.0310  145.8030 C   0  0  0  0  0  1  0  0  0  0  0  0
  195.1870  175.7770  144.3500 C   0  0  0  0  0  2  0  0  0  0  0  0
  197.8730  174.6690  139.6580 O   0  0  0  0  0  0  0  0  0  0  0  0
  196.1960  172.6540  140.7630 C   0  0  0  0  0  3  0  0  0  0  0  0
  194.0030  172.8810  139.3660 C   0  0  0  0  0  3  0  0  0  0  0  0
  195.0990  172.7570  140.0590 C   0  0  0  0  0  0  0  0  0  0  0  0
  193.0140  173.9260  139.7430 C   0  0  0  0  0  2  0  0  0  0  0  0
  191.7350  173.2740  140.2440 C   0  0  2  0  0  3  0  0  0  0  0  0
  190.8310  172.9720  139.0630 C   0  0  0  0  0  1  0  0  0  0  0  0
  191.0730  174.1570  141.1440 O   0  0  0  0  0  0  0  0  0  0  0  0
  188.8400  174.2040  141.7420 O   0  0  0  0  0  0  0  0  0  0  0  0
  190.0030  173.7520  141.9410 C   0  0  0  0  0  0  0  0  0  0  0  0
  189.6780  171.4670  142.5010 O   0  0  0  0  0  1  0  0  0  0  0  0
  190.2210  172.6760  142.9500 C   0  0  0  0  0  2  0  0  0  0  0  0
  193.7350  174.3000  145.5600 O   0  0  0  0  0  0  0  0  0  0  0  0
  189.7130  176.9700  143.3240 O   0  0  0  0  0  0  0  0  0  0  0  0
  191.0880  176.4680  146.4120 C   0  0  1  0  0  3  0  0  0  0  0  0
  189.1140  177.4090  146.8670 C   0  0  0  0  0  2  0  0  0  0  0  0
  189.6900  176.6840  144.5090 C   0  0  0  0  0  0  0  0  0  0  0  0
  192.3420  175.7700  146.8560 C   0  0  0  0  0  2  0  0  0  0  0  0
  190.7180  175.7960  145.1310 C   0  0  1  0  0  3  0  0  0  0  0  0
  192.0450  175.6540  144.4160 C   0  0  0  0  0  2  0  0  0  0  0  0
  188.5970  177.2110  145.4110 C   0  0  1  0  0  3  0  0  0  0  0  0
  193.0900  175.5550  145.5390 C   0  0  2  0  0  3  0  0  0  0  0  0
  190.0000  176.3900  147.2940 O   0  0  0  0  0  0  0  0  0  0  0  0
  187.4920  176.3480  145.3940 O   0  0  0  0  0  0  0  0  0  0  0  0
  186.3840  177.1970  145.2410 C   0  0  2  0  0  3  0  0  0  0  0  0
  184.2910  177.9680  146.2060 O   0  0  0  0  0  0  0  0  0  0  0  0
  185.3630  177.0720  146.3840 C   0  0  2  0  0  3  0  0  0  0  0  0
  185.2470  178.3180  147.1790 C   0  0  0  0  0  2  0  0  0  0  0  0
  185.7080  176.9700  143.8910 C   0  0  0  0  0  2  0  0  0  0  0  0
  186.4290  176.0340  143.1450 O   0  0  0  0  0  1  0  0  0  0  0  0
  2  1  1  6  0  0  0
  2 11  1  0  0  0  0
  3 24  1  0  0  0  0
  3 10  1  1  0  0  0
  4  9  1  0  0  0  0
  4  5  1  0  0  0  0
  5 13  1  6  0  0  0
  5  7  1  0  0  0  0
  6  8  1  0  0  0  0
  7  2  1  0  0  0  0
  7  8  1  0  0  0  0
  8  3  1  0  0  0  0
  9  1  1  0  0  0  0
 11  3  1  0  0  0  0
 12  4  2  0  0  0  0
 14 16  1  0  0  0  0
 14 15  2  0  0  0  0
 15 13  2  0  0  0  0
 16 17  1  0  0  0  0
 17 19  1  0  0  0  0
 18 17  1  0  0  0  0
 19 21  1  0  0  0  0
 20 21  2  0  0  0  0
 21 23  1  0  0  0  0
 22 23  1  0  0  0  0
 25 28  2  0  0  0  0
 26 29  1  0  0  0  0
 26 34  1  0  0  0  0
 27 34  1  0  0  0  0
 28 30  1  0  0  0  0
 28 32  1  0  0  0  0
 30 26  1  0  0  0  0
 31 30  1  0  0  0  0
 31 33  1  0  0  0  0
 32 27  1  0  0  0  0
 33 24  1  0  0  0  0
 33 29  1  0  0  0  0
 35 32  1  0  0  0  0
 36 35  1  0  0  0  0
 36 38  1  0  0  0  0
 37 38  1  0  0  0  0
 37 39  1  0  0  0  0
 38 39  1  0  0  0  0
 40 36  1  0  0  0  0
 41 40  1  0  0  0  0
M  END
>  <MODEL>
2

>  <REMARK>
 VINA RESULT:      -7.0      2.399      9.593
  Name = 
  12 active torsions:
  status: ('A' for Active; 'I' for Inactive)
    1  A    between atoms: C_2  and  C_16
    2  A    between atoms: C_4  and  C_41
    3  A    between atoms: O_11  and  C_28
    4  A    between atoms: O_11  and  C_40
    5  A    between atoms: C_12  and  O_29
    6  A    between atoms: C_13  and  C_40
    7  A    between atoms: C_14  and  C_33
    8  A    between atoms: C_21  and  C_33
    9  A    between atoms: O_25  and  C_32
   10  A    between atoms: O_25  and  C_33
   11  A    between atoms: C_28  and  C_41
   12  A    between atoms: O_29  and  C_34
                            x       y       z     vdW  Elec       q    Type
                         _______ _______ _______ _____ _____    ______ ____

>  <TORSDO>
F 12

$$$$
=
 OpenBabel11062422173D

 41 45  0  0  1  0  0  0  0  0999 V2000
  194.2040  168.4660  144.9200 C   0  0  0  0  0  2  0  0  0  0  0  0
  193.9430  169.8170  144.2820 C   0  0  2  0  0  3  0  0  0  0  0  0
  192.6000  171.7670  144.0040 C   0  0  1  0  0  0  0  0  0  0  0  0
  196.5270  169.3560  145.2260 C   0  0  0  0  0  0  0  0  0  0  0  0
  196.0720  170.7910  145.0220 C   0  0  1  0  0  3  0  0  0  0  0  0
  193.5520  172.8200  146.0150 O   0  0  0  0  0  1  0  0  0  0  0  0
  194.5530  170.8480  145.1830 C   0  0  1  0  0  3  0  0  0  0  0  0
  193.8680  172.1570  144.8260 C   0  0  1  0  0  3  0  0  0  0  0  0
  195.6220  168.2820  145.0690 O   0  0  0  0  0  0  0  0  0  0  0  0
  192.8500  172.0700  142.5240 C   0  0  0  0  0  1  0  0  0  0  0  0
  192.5010  170.2470  144.1430 C   0  0  0  0  0  2  0  0  0  0  0  0
  197.7460  169.1060  145.4280 O   0  0  0  0  0  0  0  0  0  0  0  0
  196.7580  171.7180  145.9760 C   0  0  0  0  0  3  0  0  0  0  0  0
  197.4120  174.1230  145.2030 C   0  0  0  0  0  3  0  0  0  0  0  0
  197.0890  172.9250  145.6000 C   0  0  0  0  0  0  0  0  0  0  0  0
  197.5610  174.3960  143.7480 C   0  0  0  0  0  2  0  0  0  0  0  0
  196.2660  174.0650  143.0220 C   0  0  2  0  0  3  0  0  0  0  0  0
  196.5560  173.0770  141.9070 C   0  0  0  0  0  1  0  0  0  0  0  0
  195.7100  175.2570  142.4760 O   0  0  0  0  0  0  0  0  0  0  0  0
  193.6080  176.1660  142.1520 O   0  0  0  0  0  0  0  0  0  0  0  0
  194.5240  175.8170  142.9500 C   0  0  0  0  0  0  0  0  0  0  0  0
  193.4770  176.9690  144.7440 O   0  0  0  0  0  1  0  0  0  0  0  0
  194.2920  175.8780  144.4220 C   0  0  0  0  0  2  0  0  0  0  0  0
  191.3710  172.3430  144.4350 O   0  0  0  0  0  0  0  0  0  0  0  0
  187.8520  175.0760  141.5290 O   0  0  0  0  0  0  0  0  0  0  0  0
  189.8600  175.5230  144.2590 C   0  0  1  0  0  3  0  0  0  0  0  0
  188.4790  177.2770  144.3350 C   0  0  0  0  0  2  0  0  0  0  0  0
  188.0940  175.3970  142.6800 C   0  0  0  0  0  0  0  0  0  0  0  0
  190.9230  174.6630  144.8800 C   0  0  0  0  0  2  0  0  0  0  0  0
  188.9480  174.5590  143.5750 C   0  0  1  0  0  3  0  0  0  0  0  0
  189.9010  173.5830  142.9190 C   0  0  0  0  0  2  0  0  0  0  0  0
  187.5230  176.6690  143.2670 C   0  0  1  0  0  3  0  0  0  0  0  0
  191.1510  173.5900  143.8120 C   0  0  2  0  0  3  0  0  0  0  0  0
  189.1080  176.3040  145.1480 O   0  0  0  0  0  0  0  0  0  0  0  0
  186.2580  176.4250  143.8200 O   0  0  0  0  0  0  0  0  0  0  0  0
  185.9060  177.6340  144.4430 C   0  0  2  0  0  3  0  0  0  0  0  0
  185.1840  178.5490  146.5760 O   0  0  0  0  0  0  0  0  0  0  0  0
  185.0710  177.4360  145.7190 C   0  0  2  0  0  3  0  0  0  0  0  0
  185.9080  177.3980  146.9430 C   0  0  0  0  0  2  0  0  0  0  0  0
  185.1830  178.5580  143.4670 C   0  0  0  0  0  2  0  0  0  0  0  0
  185.6720  179.8610  143.5890 O   0  0  0  0  0  1  0  0  0  0  0  0
  1  9  1  0  0  0  0
  2 11  1  1  0  0  0
  2  1  1  0  0  0  0
  2  7  1  0  0  0  0
  3 10  1  6  0  0  0
  3 11  1  0  0  0  0
  3 24  1  0  0  0  0
  3  8  1  0  0  0  0
  4 12  2  0  0  0  0
  5  7  1  0  0  0  0
  5  4  1  0  0  0  0
  5 13  1  1  0  0  0
  8  7  1  0  0  0  0
  8  6  1  0  0  0  0
  9  4  1  0  0  0  0
 14 15  2  0  0  0  0
 15 13  2  0  0  0  0
 16 14  1  0  0  0  0
 17 16  1  0  0  0  0
 18 17  1  0  0  0  0
 19 21  1  0  0  0  0
 19 17  1  0  0  0  0
 20 21  2  0  0  0  0
 21 23  1  0  0  0  0
 23 22  1  0  0  0  0
 25 28  2  0  0  0  0
 26 29  1  0  0  0  0
 26 34  1  0  0  0  0
 27 34  1  0  0  0  0
 28 32  1  0  0  0  0
 28 30  1  0  0  0  0
 30 26  1  0  0  0  0
 31 30  1  0  0  0  0
 31 33  1  0  0  0  0
 32 35  1  0  0  0  0
 32 27  1  0  0  0  0
 33 24  1  0  0  0  0
 33 29  1  0  0  0  0
 35 36  1  0  0  0  0
 36 38  1  0  0  0  0
 37 39  1  0  0  0  0
 38 37  1  0  0  0  0
 38 39  1  0  0  0  0
 40 41  1  0  0  0  0
 40 36  1  0  0  0  0
M  END
>  <MODEL>
3

>  <REMARK>
 VINA RESULT:      -6.8      2.948     10.415
  Name = 
  12 active torsions:
  status: ('A' for Active; 'I' for Inactive)
    1  A    between atoms: C_2  and  C_16
    2  A    between atoms: C_4  and  C_41
    3  A    between atoms: O_11  and  C_28
    4  A    between atoms: O_11  and  C_40
    5  A    between atoms: C_12  and  O_29
    6  A    between atoms: C_13  and  C_40
    7  A    between atoms: C_14  and  C_33
    8  A    between atoms: C_21  and  C_33
    9  A    between atoms: O_25  and  C_32
   10  A    between atoms: O_25  and  C_33
   11  A    between atoms: C_28  and  C_41
   12  A    between atoms: O_29  and  C_34
                            x       y       z     vdW  Elec       q    Type
                         _______ _______ _______ _____ _____    ______ ____

>  <TORSDO>
F 12

$$$$
=
 OpenBabel11062422173D

 41 45  0  0  1  0  0  0  0  0999 V2000
  188.6620  176.8530  143.3520 C   0  0  0  0  0  2  0  0  0  0  0  0
  188.7460  175.3380  143.3320 C   0  0  2  0  0  3  0  0  0  0  0  0
  189.7530  173.3150  142.5720 C   0  0  1  0  0  0  0  0  0  0  0  0
  188.4540  176.5440  145.8300 C   0  0  0  0  0  0  0  0  0  0  0  0
  189.0070  175.1310  145.7640 C   0  0  1  0  0  3  0  0  0  0  0  0
  191.5390  173.4640  144.2590 O   0  0  0  0  0  1  0  0  0  0  0  0
  189.7020  174.9430  144.4160 C   0  0  1  0  0  3  0  0  0  0  0  0
  190.1580  173.5360  144.0630 C   0  0  1  0  0  3  0  0  0  0  0  0
  188.2160  177.2820  144.6500 O   0  0  0  0  0  0  0  0  0  0  0  0
  188.5290  172.3980  142.5150 C   0  0  0  0  0  1  0  0  0  0  0  0
  189.3070  174.6950  142.0850 C   0  0  0  0  0  2  0  0  0  0  0  0
  188.0970  177.0280  146.9380 O   0  0  0  0  0  0  0  0  0  0  0  0
  189.9410  174.8610  146.9020 C   0  0  0  0  0  3  0  0  0  0  0  0
  192.2340  176.1020  147.0210 C   0  0  0  0  0  3  0  0  0  0  0  0
  191.0910  175.4770  146.9730 C   0  0  0  0  0  0  0  0  0  0  0  0
  192.8130  176.6660  145.7730 C   0  0  0  0  0  2  0  0  0  0  0  0
  193.8830  175.7310  145.2290 C   0  0  2  0  0  3  0  0  0  0  0  0
  194.9230  175.4820  146.3070 C   0  0  0  0  0  1  0  0  0  0  0  0
  194.5010  176.3270  144.0920 O   0  0  0  0  0  0  0  0  0  0  0  0
  195.4960  174.5450  143.0060 O   0  0  0  0  0  0  0  0  0  0  0  0
  195.5720  175.7350  143.4240 C   0  0  0  0  0  0  0  0  0  0  0  0
  197.9400  175.8370  143.2850 O   0  0  0  0  0  1  0  0  0  0  0  0
  196.7630  176.5670  143.0900 C   0  0  0  0  0  2  0  0  0  0  0  0
  190.7790  172.8400  141.7070 O   0  0  0  0  0  0  0  0  0  0  0  0
  194.7880  175.9330  140.0770 O   0  0  0  0  0  0  0  0  0  0  0  0
  192.3960  173.8830  138.7530 C   0  0  1  0  0  3  0  0  0  0  0  0
  193.8000  174.2130  137.0480 C   0  0  0  0  0  2  0  0  0  0  0  0
  194.3800  175.0210  139.3780 C   0  0  0  0  0  0  0  0  0  0  0  0
  191.2230  173.1730  139.3680 C   0  0  0  0  0  2  0  0  0  0  0  0
  193.3730  174.0340  139.8710 C   0  0  1  0  0  3  0  0  0  0  0  0
  192.5040  174.4450  141.0410 C   0  0  0  0  0  2  0  0  0  0  0  0
  194.8910  174.8370  137.9670 C   0  0  1  0  0  3  0  0  0  0  0  0
  191.1310  173.8180  140.7530 C   0  0  2  0  0  3  0  0  0  0  0  0
  193.0230  173.2180  137.6900 O   0  0  0  0  0  0  0  0  0  0  0  0
  196.0470  174.0430  137.9670 O   0  0  0  0  0  0  0  0  0  0  0  0
  196.6140  174.2450  136.6990 C   0  0  2  0  0  3  0  0  0  0  0  0
  197.8250  173.2310  134.8500 O   0  0  0  0  0  0  0  0  0  0  0  0
  197.2630  172.9770  136.1170 C   0  0  2  0  0  3  0  0  0  0  0  0
  196.6060  172.5270  134.8670 C   0  0  0  0  0  2  0  0  0  0  0  0
  197.6170  175.3960  136.7280 C   0  0  0  0  0  2  0  0  0  0  0  0
  197.1910  176.4230  135.8820 O   0  0  0  0  0  1  0  0  0  0  0  0
  1  9  1  0  0  0  0
  2 11  1  6  0  0  0
  2  1  1  0  0  0  0
  2  7  1  0  0  0  0
  3 10  1  6  0  0  0
  3  8  1  0  0  0  0
  4 12  2  0  0  0  0
  5  4  1  0  0  0  0
  5 13  1  1  0  0  0
  7  5  1  0  0  0  0
  8  6  1  0  0  0  0
  8  7  1  0  0  0  0
  9  4  1  0  0  0  0
 11  3  1  0  0  0  0
 13 15  2  0  0  0  0
 15 14  2  0  0  0  0
 16 14  1  0  0  0  0
 17 16  1  0  0  0  0
 17 18  1  0  0  0  0
 19 17  1  0  0  0  0
 20 21  2  0  0  0  0
 21 19  1  0  0  0  0
 23 22  1  0  0  0  0
 23 21  1  0  0  0  0
 24  3  1  0  0  0  0
 26 29  1  0  0  0  0
 26 30  1  0  0  0  0
 27 34  1  0  0  0  0
 27 32  1  0  0  0  0
 28 30  1  0  0  0  0
 28 25  2  0  0  0  0
 29 33  1  0  0  0  0
 30 31  1  0  0  0  0
 32 28  1  0  0  0  0
 33 31  1  0  0  0  0
 33 24  1  0  0  0  0
 34 26  1  0  0  0  0
 35 32  1  0  0  0  0
 36 40  1  0  0  0  0
 36 35  1  0  0  0  0
 37 39  1  0  0  0  0
 37 38  1  0  0  0  0
 38 36  1  0  0  0  0
 39 38  1  0  0  0  0
 41 40  1  0  0  0  0
M  END
>  <MODEL>
4

>  <REMARK>
 VINA RESULT:      -6.7      3.297      6.734
  Name = 
  12 active torsions:
  status: ('A' for Active; 'I' for Inactive)
    1  A    between atoms: C_2  and  C_16
    2  A    between atoms: C_4  and  C_41
    3  A    between atoms: O_11  and  C_28
    4  A    between atoms: O_11  and  C_40
    5  A    between atoms: C_12  and  O_29
    6  A    between atoms: C_13  and  C_40
    7  A    between atoms: C_14  and  C_33
    8  A    between atoms: C_21  and  C_33
    9  A    between atoms: O_25  and  C_32
   10  A    between atoms: O_25  and  C_33
   11  A    between atoms: C_28  and  C_41
   12  A    between atoms: O_29  and  C_34
                            x       y       z     vdW  Elec       q    Type
                         _______ _______ _______ _____ _____    ______ ____

>  <TORSDO>
F 12

$$$$
=
 OpenBabel11062422173D

 41 45  0  0  1  0  0  0  0  0999 V2000
  185.6470  176.1150  146.7880 C   0  0  0  0  0  2  0  0  0  0  0  0
  187.0070  176.7770  146.6730 C   0  0  2  0  0  3  0  0  0  0  0  0
  189.2470  176.8120  145.8580 C   0  0  1  0  0  0  0  0  0  0  0  0
  184.7800  178.4170  146.3070 C   0  0  0  0  0  0  0  0  0  0  0  0
  186.1200  178.8750  145.7560 C   0  0  1  0  0  3  0  0  0  0  0  0
  188.5380  177.7270  143.6850 O   0  0  0  0  0  1  0  0  0  0  0  0
  186.9670  177.6410  145.4480 C   0  0  1  0  0  3  0  0  0  0  0  0
  188.4210  177.8760  145.0690 C   0  0  1  0  0  3  0  0  0  0  0  0
  184.6340  177.1320  146.8750 O   0  0  0  0  0  0  0  0  0  0  0  0
  189.9590  177.4970  147.0270 C   0  0  0  0  0  1  0  0  0  0  0  0
  188.1980  175.8730  146.4550 C   0  0  0  0  0  2  0  0  0  0  0  0
  183.8140  179.2250  146.3620 O   0  0  0  0  0  0  0  0  0  0  0  0
  185.9420  179.7310  144.5410 C   0  0  0  0  0  3  0  0  0  0  0  0
  185.2220  178.6430  142.2810 C   0  0  0  0  0  3  0  0  0  0  0  0
  185.5810  179.1970  143.4040 C   0  0  0  0  0  0  0  0  0  0  0  0
  185.4660  177.1910  142.0710 C   0  0  0  0  0  2  0  0  0  0  0  0
  186.7340  176.9900  141.2570 C   0  0  2  0  0  3  0  0  0  0  0  0
  186.5200  177.5300  139.8540 C   0  0  0  0  0  1  0  0  0  0  0  0
  187.0440  175.6010  141.1960 O   0  0  0  0  0  0  0  0  0  0  0  0
  189.2520  175.3120  141.8170 O   0  0  0  0  0  0  0  0  0  0  0  0
  188.3360  175.1300  140.9660 C   0  0  0  0  0  0  0  0  0  0  0  0
  188.4280  172.9360  140.0630 O   0  0  0  0  0  1  0  0  0  0  0  0
  188.5950  174.2910  139.7610 C   0  0  0  0  0  2  0  0  0  0  0  0
  190.1650  176.0380  145.0930 O   0  0  0  0  0  0  0  0  0  0  0  0
  193.8630  172.3010  145.9020 O   0  0  0  0  0  0  0  0  0  0  0  0
  193.6560  175.6800  145.4300 C   0  0  1  0  0  3  0  0  0  0  0  0
  195.8300  175.2470  145.1560 C   0  0  0  0  0  2  0  0  0  0  0  0
  194.1520  173.3610  145.3750 C   0  0  0  0  0  0  0  0  0  0  0  0
  192.4840  176.6160  145.3500 C   0  0  0  0  0  2  0  0  0  0  0  0
  193.1150  174.3620  144.9830 C   0  0  1  0  0  3  0  0  0  0  0  0
  191.7710  174.2840  145.6750 C   0  0  0  0  0  2  0  0  0  0  0  0
  195.5940  173.7100  145.0760 C   0  0  1  0  0  3  0  0  0  0  0  0
  191.3260  175.7450  145.8400 C   0  0  2  0  0  3  0  0  0  0  0  0
  194.7590  176.0100  144.6310 O   0  0  0  0  0  0  0  0  0  0  0  0
  195.9630  173.2200  143.8160 O   0  0  0  0  0  0  0  0  0  0  0  0
  196.1880  171.8490  144.0220 C   0  0  2  0  0  3  0  0  0  0  0  0
  197.9320  170.2750  144.6450 O   0  0  0  0  0  0  0  0  0  0  0  0
  197.4200  171.5630  144.8980 C   0  0  2  0  0  3  0  0  0  0  0  0
  197.1980  170.4360  145.8360 C   0  0  0  0  0  2  0  0  0  0  0  0
  196.2920  171.1090  142.6910 C   0  0  0  0  0  2  0  0  0  0  0  0
  195.5690  171.7880  141.7080 O   0  0  0  0  0  1  0  0  0  0  0  0
  1  9  1  0  0  0  0
  2 11  1  6  0  0  0
  2  1  1  0  0  0  0
  3 11  1  0  0  0  0
  3 10  1  1  0  0  0
  4 12  2  0  0  0  0
  4  9  1  0  0  0  0
  5 13  1  6  0  0  0
  5  4  1  0  0  0  0
  6  8  1  0  0  0  0
  7  5  1  0  0  0  0
  7  2  1  0  0  0  0
  8  7  1  0  0  0  0
  8  3  1  0  0  0  0
 14 15  2  0  0  0  0
 15 13  2  0  0  0  0
 16 14  1  0  0  0  0
 17 16  1  0  0  0  0
 18 17  1  0  0  0  0
 19 17  1  0  0  0  0
 21 19  1  0  0  0  0
 21 20  2  0  0  0  0
 23 22  1  0  0  0  0
 23 21  1  0  0  0  0
 24 33  1  0  0  0  0
 24  3  1  0  0  0  0
 28 25  2  0  0  0  0
 29 26  1  0  0  0  0
 29 33  1  0  0  0  0
 30 28  1  0  0  0  0
 30 26  1  0  0  0  0
 30 31  1  0  0  0  0
 31 33  1  0  0  0  0
 32 27  1  0  0  0  0
 32 28  1  0  0  0  0
 34 27  1  0  0  0  0
 34 26  1  0  0  0  0
 35 36  1  0  0  0  0
 35 32  1  0  0  0  0
 36 38  1  0  0  0  0
 37 38  1  0  0  0  0
 37 39  1  0  0  0  0
 38 39  1  0  0  0  0
 40 36  1  0  0  0  0
 41 40  1  0  0  0  0
M  END
>  <MODEL>
5

>  <REMARK>
 VINA RESULT:      -6.7      2.417      4.464
  Name = 
  12 active torsions:
  status: ('A' for Active; 'I' for Inactive)
    1  A    between atoms: C_2  and  C_16
    2  A    between atoms: C_4  and  C_41
    3  A    between atoms: O_11  and  C_28
    4  A    between atoms: O_11  and  C_40
    5  A    between atoms: C_12  and  O_29
    6  A    between atoms: C_13  and  C_40
    7  A    between atoms: C_14  and  C_33
    8  A    between atoms: C_21  and  C_33
    9  A    between atoms: O_25  and  C_32
   10  A    between atoms: O_25  and  C_33
   11  A    between atoms: C_28  and  C_41
   12  A    between atoms: O_29  and  C_34
                            x       y       z     vdW  Elec       q    Type
                         _______ _______ _______ _____ _____    ______ ____

>  <TORSDO>
F 12

$$$$
=
 OpenBabel11062422173D

 41 45  0  0  1  0  0  0  0  0999 V2000
  186.7480  176.8960  139.5110 C   0  0  0  0  0  2  0  0  0  0  0  0
  187.1530  176.3240  140.8570 C   0  0  2  0  0  3  0  0  0  0  0  0
  188.8230  175.6630  142.4240 C   0  0  1  0  0  0  0  0  0  0  0  0
  185.1280  178.2430  140.8680 C   0  0  0  0  0  0  0  0  0  0  0  0
  185.8940  177.9850  142.1540 C   0  0  1  0  0  3  0  0  0  0  0  0
  189.0990  177.9690  143.2400 O   0  0  0  0  0  1  0  0  0  0  0  0
  187.2920  177.4840  141.7960 C   0  0  1  0  0  3  0  0  0  0  0  0
  188.1600  176.9790  142.9380 C   0  0  1  0  0  3  0  0  0  0  0  0
  185.5170  177.6230  139.6590 O   0  0  0  0  0  0  0  0  0  0  0  0
  188.1310  174.4650  143.0800 C   0  0  0  0  0  1  0  0  0  0  0  0
  188.4860  175.6180  140.9330 C   0  0  0  0  0  2  0  0  0  0  0  0
  184.0690  178.9260  140.8940 O   0  0  0  0  0  0  0  0  0  0  0  0
  185.9560  179.2160  143.0040 C   0  0  0  0  0  3  0  0  0  0  0  0
  185.5280  179.0410  145.5720 C   0  0  0  0  0  3  0  0  0  0  0  0
  185.7440  179.1400  144.2920 C   0  0  0  0  0  0  0  0  0  0  0  0
  184.7640  177.8780  146.0980 C   0  0  0  0  0  2  0  0  0  0  0  0
  185.6810  176.9810  146.9150 C   0  0  2  0  0  3  0  0  0  0  0  0
  186.0640  177.6940  148.1990 C   0  0  0  0  0  1  0  0  0  0  0  0
  186.8520  176.6850  146.1600 O   0  0  0  0  0  0  0  0  0  0  0  0
  188.3350  175.2890  147.2540 O   0  0  0  0  0  0  0  0  0  0  0  0
  188.0840  176.4240  146.7580 C   0  0  0  0  0  0  0  0  0  0  0  0
  190.3690  176.9400  147.1470 O   0  0  0  0  0  1  0  0  0  0  0  0
  189.1540  177.4600  146.6880 C   0  0  0  0  0  2  0  0  0  0  0  0
  190.2360  175.5720  142.5730 O   0  0  0  0  0  0  0  0  0  0  0  0
  193.5910  171.4470  142.4130 O   0  0  0  0  0  0  0  0  0  0  0  0
  192.3610  173.6980  144.6720 C   0  0  1  0  0  3  0  0  0  0  0  0
  194.0890  172.7760  145.7440 C   0  0  0  0  0  2  0  0  0  0  0  0
  193.6770  172.2880  143.2920 C   0  0  0  0  0  0  0  0  0  0  0  0
  191.2850  174.7420  144.5710 C   0  0  0  0  0  2  0  0  0  0  0  0
  192.8630  173.5400  143.2740 C   0  0  1  0  0  3  0  0  0  0  0  0
  191.5960  173.5400  142.4460 C   0  0  0  0  0  2  0  0  0  0  0  0
  194.6340  172.1040  144.4490 C   0  0  1  0  0  3  0  0  0  0  0  0
  190.5980  174.3880  143.2500 C   0  0  2  0  0  3  0  0  0  0  0  0
  193.4410  174.0120  145.5080 O   0  0  0  0  0  0  0  0  0  0  0  0
  195.8970  172.6160  144.1220 O   0  0  0  0  0  0  0  0  0  0  0  0
  196.6680  171.4850  143.8100 C   0  0  2  0  0  3  0  0  0  0  0  0
  197.9210  169.7380  144.9440 O   0  0  0  0  0  0  0  0  0  0  0  0
  197.6880  171.1270  144.9040 C   0  0  2  0  0  3  0  0  0  0  0  0
  197.1060  170.2680  145.9620 C   0  0  0  0  0  2  0  0  0  0  0  0
  197.3630  171.6550  142.4620 C   0  0  0  0  0  2  0  0  0  0  0  0
  197.1950  170.5050  141.6870 O   0  0  0  0  0  1  0  0  0  0  0  0
  1  9  1  0  0  0  0
  2  1  1  6  0  0  0
  2 11  1  0  0  0  0
  2  7  1  0  0  0  0
  3 24  1  0  0  0  0
  3  8  1  0  0  0  0
  3 10  1  1  0  0  0
  4 12  2  0  0  0  0
  4  5  1  0  0  0  0
  5 13  1  6  0  0  0
  7  5  1  0  0  0  0
  7  8  1  0  0  0  0
  8  6  1  0  0  0  0
  9  4  1  0  0  0  0
 11  3  1  0  0  0  0
 13 15  2  0  0  0  0
 14 16  1  0  0  0  0
 15 14  2  0  0  0  0
 16 17  1  0  0  0  0
 17 18  1  0  0  0  0
 19 21  1  0  0  0  0
 19 17  1  0  0  0  0
 21 20  2  0  0  0  0
 23 21  1  0  0  0  0
 23 22  1  0  0  0  0
 24 33  1  0  0  0  0
 25 28  2  0  0  0  0
 26 34  1  0  0  0  0
 28 32  1  0  0  0  0
 29 26  1  0  0  0  0
 30 28  1  0  0  0  0
 30 26  1  0  0  0  0
 31 33  1  0  0  0  0
 31 30  1  0  0  0  0
 32 27  1  0  0  0  0
 33 29  1  0  0  0  0
 34 27  1  0  0  0  0
 35 32  1  0  0  0  0
 36 35  1  0  0  0  0
 36 38  1  0  0  0  0
 37 39  1  0  0  0  0
 38 37  1  0  0  0  0
 38 39  1  0  0  0  0
 40 36  1  0  0  0  0
 41 40  1  0  0  0  0
M  END
>  <MODEL>
6

>  <REMARK>
 VINA RESULT:      -6.6      2.203      2.673
  Name = 
  12 active torsions:
  status: ('A' for Active; 'I' for Inactive)
    1  A    between atoms: C_2  and  C_16
    2  A    between atoms: C_4  and  C_41
    3  A    between atoms: O_11  and  C_28
    4  A    between atoms: O_11  and  C_40
    5  A    between atoms: C_12  and  O_29
    6  A    between atoms: C_13  and  C_40
    7  A    between atoms: C_14  and  C_33
    8  A    between atoms: C_21  and  C_33
    9  A    between atoms: O_25  and  C_32
   10  A    between atoms: O_25  and  C_33
   11  A    between atoms: C_28  and  C_41
   12  A    between atoms: O_29  and  C_34
                            x       y       z     vdW  Elec       q    Type
                         _______ _______ _______ _____ _____    ______ ____

>  <TORSDO>
F 12

$$$$
=
 OpenBabel11062422173D

 41 45  0  0  1  0  0  0  0  0999 V2000
  192.3310  170.6870  144.0390 C   0  0  0  0  0  2  0  0  0  0  0  0
  192.3870  171.3170  142.6600 C   0  0  2  0  0  3  0  0  0  0  0  0
  191.7290  173.0070  141.1120 C   0  0  1  0  0  0  0  0  0  0  0  0
  194.8220  170.5580  143.7890 C   0  0  0  0  0  0  0  0  0  0  0  0
  194.8270  171.5890  142.6740 C   0  0  1  0  0  3  0  0  0  0  0  0
  193.4090  174.5830  141.9790 O   0  0  0  0  0  1  0  0  0  0  0  0
  193.4910  172.3310  142.6910 C   0  0  1  0  0  3  0  0  0  0  0  0
  193.2080  173.2740  141.5320 C   0  0  1  0  0  3  0  0  0  0  0  0
  193.6050  170.0900  144.3350 O   0  0  0  0  0  0  0  0  0  0  0  0
  191.7170  172.2020  139.8090 C   0  0  0  0  0  1  0  0  0  0  0  0
  191.1740  172.0980  142.2090 C   0  0  0  0  0  2  0  0  0  0  0  0
  195.9040  170.0280  144.1600 O   0  0  0  0  0  0  0  0  0  0  0  0
  195.9780  172.5350  142.8160 C   0  0  0  0  0  3  0  0  0  0  0  0
  196.1950  174.0010  144.9640 C   0  0  0  0  0  3  0  0  0  0  0  0
  196.0970  173.2730  143.8880 C   0  0  0  0  0  0  0  0  0  0  0  0
  194.9810  174.2650  145.7820 C   0  0  0  0  0  2  0  0  0  0  0  0
  194.2560  175.4930  145.2530 C   0  0  2  0  0  3  0  0  0  0  0  0
  194.5960  176.6880  146.1260 C   0  0  0  0  0  1  0  0  0  0  0  0
  192.8510  175.2620  145.2780 O   0  0  0  0  0  0  0  0  0  0  0  0
  191.4920  177.1300  145.3810 O   0  0  0  0  0  0  0  0  0  0  0  0
  191.9640  176.1040  145.9490 C   0  0  0  0  0  0  0  0  0  0  0  0
  191.2730  176.8400  148.0980 O   0  0  0  0  0  1  0  0  0  0  0  0
  191.4750  175.7090  147.3000 C   0  0  0  0  0  2  0  0  0  0  0  0
  190.8910  174.1520  141.0040 O   0  0  0  0  0  0  0  0  0  0  0  0
  188.5720  175.7450  145.5190 O   0  0  0  0  0  0  0  0  0  0  0  0
  187.7820  175.2790  142.2270 C   0  0  1  0  0  3  0  0  0  0  0  0
  186.0590  176.4630  143.0140 C   0  0  0  0  0  2  0  0  0  0  0  0
  188.1200  176.0730  144.4350 C   0  0  0  0  0  0  0  0  0  0  0  0
  188.5460  174.6760  141.0820 C   0  0  0  0  0  2  0  0  0  0  0  0
  188.8350  175.7840  143.1560 C   0  0  1  0  0  3  0  0  0  0  0  0
  189.8590  174.6690  143.1640 C   0  0  0  0  0  2  0  0  0  0  0  0
  186.8030  176.8100  144.3370 C   0  0  1  0  0  3  0  0  0  0  0  0
  189.7250  174.0010  141.7860 C   0  0  2  0  0  3  0  0  0  0  0  0
  186.9230  176.3370  141.8990 O   0  0  0  0  0  0  0  0  0  0  0  0
  187.0090  178.1930  144.4380 O   0  0  0  0  0  0  0  0  0  0  0  0
  186.0520  178.6260  145.3700 C   0  0  2  0  0  3  0  0  0  0  0  0
  184.6410  177.9960  147.2460 O   0  0  0  0  0  0  0  0  0  0  0  0
  185.6230  177.5240  146.3540 C   0  0  2  0  0  3  0  0  0  0  0  0
  185.9450  177.8640  147.7610 C   0  0  0  0  0  2  0  0  0  0  0  0
  184.8360  179.2190  144.6650 C   0  0  0  0  0  2  0  0  0  0  0  0
  185.1060  180.5300  144.2650 O   0  0  0  0  0  1  0  0  0  0  0  0
  1  9  1  0  0  0  0
  2 11  1  1  0  0  0
  2  7  1  0  0  0  0
  2  1  1  0  0  0  0
  3 10  1  6  0  0  0
  3  8  1  0  0  0  0
  3 11  1  0  0  0  0
  4 12  2  0  0  0  0
  4  9  1  0  0  0  0
  5  7  1  0  0  0  0
  5 13  1  1  0  0  0
  5  4  1  0  0  0  0
  8  6  1  0  0  0  0
  8  7  1  0  0  0  0
 13 15  2  0  0  0  0
 14 16  1  0  0  0  0
 15 14  2  0  0  0  0
 17 19  1  0  0  0  0
 17 16  1  0  0  0  0
 17 18  1  0  0  0  0
 19 21  1  0  0  0  0
 20 21  2  0  0  0  0
 21 23  1  0  0  0  0
 23 22  1  0  0  0  0
 24  3  1  0  0  0  0
 24 33  1  0  0  0  0
 26 30  1  0  0  0  0
 27 32  1  0  0  0  0
 28 25  2  0  0  0  0
 29 33  1  0  0  0  0
 29 26  1  0  0  0  0
 30 31  1  0  0  0  0
 30 28  1  0  0  0  0
 32 28  1  0  0  0  0
 32 35  1  0  0  0  0
 33 31  1  0  0  0  0
 34 26  1  0  0  0  0
 34 27  1  0  0  0  0
 35 36  1  0  0  0  0
 36 38  1  0  0  0  0
 37 39  1  0  0  0  0
 38 37  1  0  0  0  0
 38 39  1  0  0  0  0
 40 36  1  0  0  0  0
 41 40  1  0  0  0  0
M  END
>  <MODEL>
7

>  <REMARK>
 VINA RESULT:      -6.6      2.611      9.310
  Name = 
  12 active torsions:
  status: ('A' for Active; 'I' for Inactive)
    1  A    between atoms: C_2  and  C_16
    2  A    between atoms: C_4  and  C_41
    3  A    between atoms: O_11  and  C_28
    4  A    between atoms: O_11  and  C_40
    5  A    between atoms: C_12  and  O_29
    6  A    between atoms: C_13  and  C_40
    7  A    between atoms: C_14  and  C_33
    8  A    between atoms: C_21  and  C_33
    9  A    between atoms: O_25  and  C_32
   10  A    between atoms: O_25  and  C_33
   11  A    between atoms: C_28  and  C_41
   12  A    between atoms: O_29  and  C_34
                            x       y       z     vdW  Elec       q    Type
                         _______ _______ _______ _____ _____    ______ ____

>  <TORSDO>
F 12

$$$$
=
 OpenBabel11062422173D

 41 45  0  0  1  0  0  0  0  0999 V2000
  188.7530  176.3250  146.3550 C   0  0  0  0  0  2  0  0  0  0  0  0
  189.5440  177.0790  145.3020 C   0  0  2  0  0  3  0  0  0  0  0  0
  191.5010  177.3640  143.9710 C   0  0  1  0  0  0  0  0  0  0  0  0
  186.8620  176.5720  144.7290 C   0  0  0  0  0  0  0  0  0  0  0  0
  187.8060  176.8790  143.5800 C   0  0  1  0  0  3  0  0  0  0  0  0
  190.7220  175.7200  142.3120 O   0  0  0  0  0  1  0  0  0  0  0  0
  189.2170  176.4510  143.9810 C   0  0  1  0  0  3  0  0  0  0  0  0
  190.3520  176.8480  143.0500 C   0  0  1  0  0  3  0  0  0  0  0  0
  187.3520  176.4150  146.0450 O   0  0  0  0  0  0  0  0  0  0  0  0
  191.5620  178.8910  143.8870 C   0  0  0  0  0  1  0  0  0  0  0  0
  191.0510  177.0060  145.3880 C   0  0  0  0  0  2  0  0  0  0  0  0
  185.6160  176.5660  144.5340 O   0  0  0  0  0  0  0  0  0  0  0  0
  187.3660  176.2000  142.3210 C   0  0  0  0  0  3  0  0  0  0  0  0
  187.7920  173.6440  142.0100 C   0  0  0  0  0  3  0  0  0  0  0  0
  187.5730  174.9200  142.1550 C   0  0  0  0  0  0  0  0  0  0  0  0
  188.8630  172.9900  142.8090 C   0  0  0  0  0  2  0  0  0  0  0  0
  189.6920  172.0770  141.9180 C   0  0  2  0  0  3  0  0  0  0  0  0
  190.8490  171.5100  142.7220 C   0  0  0  0  0  1  0  0  0  0  0  0
  190.1930  172.8220  140.8120 O   0  0  0  0  0  0  0  0  0  0  0  0
  190.1330  171.1120  139.2560 O   0  0  0  0  0  0  0  0  0  0  0  0
  190.1270  172.3520  139.5010 C   0  0  0  0  0  0  0  0  0  0  0  0
  188.7160  174.0240  138.5780 O   0  0  0  0  0  1  0  0  0  0  0  0
  189.9160  173.3290  138.3940 C   0  0  0  0  0  2  0  0  0  0  0  0
  192.7870  176.7950  143.7470 O   0  0  0  0  0  0  0  0  0  0  0  0
  193.6820  171.8140  145.3850 O   0  0  0  0  0  0  0  0  0  0  0  0
  195.1710  174.8870  145.5100 C   0  0  1  0  0  3  0  0  0  0  0  0
  196.7980  173.4940  146.1430 C   0  0  0  0  0  2  0  0  0  0  0  0
  194.6030  172.6000  145.2460 C   0  0  0  0  0  0  0  0  0  0  0  0
  194.6990  176.2540  145.1000 C   0  0  0  0  0  2  0  0  0  0  0  0
  194.4100  173.9490  144.6330 C   0  0  1  0  0  3  0  0  0  0  0  0
  193.0100  174.5250  144.6370 C   0  0  0  0  0  2  0  0  0  0  0  0
  196.0050  172.2360  145.6820 C   0  0  1  0  0  3  0  0  0  0  0  0
  193.2040  176.0330  144.8590 C   0  0  2  0  0  3  0  0  0  0  0  0
  196.5420  174.6420  145.3540 O   0  0  0  0  0  0  0  0  0  0  0  0
  196.6820  171.5790  144.6450 O   0  0  0  0  0  0  0  0  0  0  0  0
  196.4620  170.2140  144.8880 C   0  0  2  0  0  3  0  0  0  0  0  0
  197.1630  168.2870  146.1930 O   0  0  0  0  0  0  0  0  0  0  0  0
  197.1960  169.6940  146.1350 C   0  0  2  0  0  3  0  0  0  0  0  0
  196.2930  168.9710  147.0630 C   0  0  0  0  0  2  0  0  0  0  0  0
  196.8260  169.3780  143.6640 C   0  0  0  0  0  2  0  0  0  0  0  0
  196.7100  170.1500  142.5050 O   0  0  0  0  0  1  0  0  0  0  0  0
  2 11  1  1  0  0  0
  2  1  1  0  0  0  0
  3 10  1  6  0  0  0
  3 11  1  0  0  0  0
  4  9  1  0  0  0  0
  5 13  1  6  0  0  0
  5  7  1  0  0  0  0
  5  4  1  0  0  0  0
  6  8  1  0  0  0  0
  7  2  1  0  0  0  0
  8  3  1  0  0  0  0
  8  7  1  0  0  0  0
  9  1  1  0  0  0  0
 12  4  2  0  0  0  0
 14 15  2  0  0  0  0
 14 16  1  0  0  0  0
 15 13  2  0  0  0  0
 17 18  1  0  0  0  0
 17 16  1  0  0  0  0
 19 17  1  0  0  0  0
 20 21  2  0  0  0  0
 21 19  1  0  0  0  0
 23 22  1  0  0  0  0
 23 21  1  0  0  0  0
 24  3  1  0  0  0  0
 24 33  1  0  0  0  0
 28 25  2  0  0  0  0
 28 32  1  0  0  0  0
 29 26  1  0  0  0  0
 30 31  1  0  0  0  0
 30 28  1  0  0  0  0
 30 26  1  0  0  0  0
 31 33  1  0  0  0  0
 32 27  1  0  0  0  0
 33 29  1  0  0  0  0
 34 26  1  0  0  0  0
 34 27  1  0  0  0  0
 35 36  1  0  0  0  0
 35 32  1  0  0  0  0
 36 38  1  0  0  0  0
 37 39  1  0  0  0  0
 38 37  1  0  0  0  0
 38 39  1  0  0  0  0
 40 36  1  0  0  0  0
 41 40  1  0  0  0  0
M  END
>  <MODEL>
8

>  <REMARK>
 VINA RESULT:      -6.6      3.091      5.849
  Name = 
  12 active torsions:
  status: ('A' for Active; 'I' for Inactive)
    1  A    between atoms: C_2  and  C_16
    2  A    between atoms: C_4  and  C_41
    3  A    between atoms: O_11  and  C_28
    4  A    between atoms: O_11  and  C_40
    5  A    between atoms: C_12  and  O_29
    6  A    between atoms: C_13  and  C_40
    7  A    between atoms: C_14  and  C_33
    8  A    between atoms: C_21  and  C_33
    9  A    between atoms: O_25  and  C_32
   10  A    between atoms: O_25  and  C_33
   11  A    between atoms: C_28  and  C_41
   12  A    between atoms: O_29  and  C_34
                            x       y       z     vdW  Elec       q    Type
                         _______ _______ _______ _____ _____    ______ ____

>  <TORSDO>
F 12

$$$$
=
 OpenBabel11062422173D

 41 45  0  0  1  0  0  0  0  0999 V2000
  190.2310  173.3220  144.9210 C   0  0  0  0  0  2  0  0  0  0  0  0
  191.4760  174.1660  145.1190 C   0  0  2  0  0  3  0  0  0  0  0  0
  193.2250  175.5360  144.2550 C   0  0  1  0  0  0  0  0  0  0  0  0
  189.3800  174.5890  146.9090 C   0  0  0  0  0  0  0  0  0  0  0  0
  190.4260  175.6770  146.7430 C   0  0  1  0  0  3  0  0  0  0  0  0
  191.7850  177.5330  144.2610 O   0  0  0  0  0  1  0  0  0  0  0  0
  191.0160  175.5750  145.3370 C   0  0  1  0  0  3  0  0  0  0  0  0
  192.2210  176.4480  145.0270 C   0  0  1  0  0  3  0  0  0  0  0  0
  189.3910  173.4440  146.0820 O   0  0  0  0  0  0  0  0  0  0  0  0
  194.3720  175.1490  145.1930 C   0  0  0  0  0  1  0  0  0  0  0  0
  192.4360  174.2600  143.9560 C   0  0  0  0  0  2  0  0  0  0  0  0
  188.5580  174.6470  147.8640 O   0  0  0  0  0  0  0  0  0  0  0  0
  189.8420  177.0330  146.9930 C   0  0  0  0  0  3  0  0  0  0  0  0
  187.7820  177.8330  145.6050 C   0  0  0  0  0  3  0  0  0  0  0  0
  188.8100  177.4440  146.3040 C   0  0  0  0  0  0  0  0  0  0  0  0
  187.5090  177.1960  144.2880 C   0  0  0  0  0  2  0  0  0  0  0  0
  186.7190  178.1490  143.4050 C   0  0  2  0  0  3  0  0  0  0  0  0
  185.9260  179.1030  144.2820 C   0  0  0  0  0  1  0  0  0  0  0  0
  185.8300  177.4030  142.5790 O   0  0  0  0  0  0  0  0  0  0  0  0
  185.8740  178.0630  140.3630 O   0  0  0  0  0  0  0  0  0  0  0  0
  185.2290  177.9460  141.4430 C   0  0  0  0  0  0  0  0  0  0  0  0
  183.2380  178.2600  140.1880 O   0  0  0  0  0  1  0  0  0  0  0  0
  183.7730  178.2640  141.4800 C   0  0  0  0  0  2  0  0  0  0  0  0
  193.7300  176.0560  143.0300 O   0  0  0  0  0  0  0  0  0  0  0  0
  194.7450  173.6290  138.4060 O   0  0  0  0  0  0  0  0  0  0  0  0
  196.4250  175.2430  140.9070 C   0  0  1  0  0  3  0  0  0  0  0  0
  197.9320  175.1190  139.2630 C   0  0  0  0  0  2  0  0  0  0  0  0
  195.5210  174.4520  138.8620 C   0  0  0  0  0  0  0  0  0  0  0  0
  195.9840  175.7630  142.2450 C   0  0  0  0  0  2  0  0  0  0  0  0
  195.1900  175.2700  140.0680 C   0  0  1  0  0  3  0  0  0  0  0  0
  194.1220  174.7410  141.0010 C   0  0  0  0  0  2  0  0  0  0  0  0
  196.8640  174.6950  138.2120 C   0  0  1  0  0  3  0  0  0  0  0  0
  194.5990  175.1330  142.4090 C   0  0  2  0  0  3  0  0  0  0  0  0
  197.4260  175.9840  140.2630 O   0  0  0  0  0  0  0  0  0  0  0  0
  196.7510  175.6650  137.2060 O   0  0  0  0  0  0  0  0  0  0  0  0
  196.7180  174.9320  136.0090 C   0  0  2  0  0  3  0  0  0  0  0  0
  197.9410  173.3420  134.6360 O   0  0  0  0  0  0  0  0  0  0  0  0
  197.7790  173.8190  135.9520 C   0  0  2  0  0  3  0  0  0  0  0  0
  197.2130  172.5190  135.5170 C   0  0  0  0  0  2  0  0  0  0  0  0
  196.8440  175.8560  134.8010 C   0  0  0  0  0  2  0  0  0  0  0  0
  196.7360  177.1890  135.2050 O   0  0  0  0  0  1  0  0  0  0  0  0
  1  2  1  0  0  0  0
  1  9  1  0  0  0  0
  2 11  1  6  0  0  0
  2  7  1  0  0  0  0
  3  8  1  0  0  0  0
  3 10  1  1  0  0  0
  4 12  2  0  0  0  0
  5  4  1  0  0  0  0
  5 13  1  6  0  0  0
  6  8  1  0  0  0  0
  7  5  1  0  0  0  0
  8  7  1  0  0  0  0
  9  4  1  0  0  0  0
 11  3  1  0  0  0  0
 14 15  2  0  0  0  0
 15 13  2  0  0  0  0
 16 14  1  0  0  0  0
 17 18  1  0  0  0  0
 17 16  1  0  0  0  0
 19 17  1  0  0  0  0
 20 21  2  0  0  0  0
 21 23  1  0  0  0  0
 21 19  1  0  0  0  0
 22 23  1  0  0  0  0
 24  3  1  0  0  0  0
 25 28  2  0  0  0  0
 26 29  1  0  0  0  0
 27 34  1  0  0  0  0
 28 30  1  0  0  0  0
 29 33  1  0  0  0  0
 30 26  1  0  0  0  0
 30 31  1  0  0  0  0
 31 33  1  0  0  0  0
 32 28  1  0  0  0  0
 32 27  1  0  0  0  0
 33 24  1  0  0  0  0
 34 26  1  0  0  0  0
 35 32  1  0  0  0  0
 36 35  1  0  0  0  0
 37 39  1  0  0  0  0
 37 38  1  0  0  0  0
 38 36  1  0  0  0  0
 39 38  1  0  0  0  0
 40 41  1  0  0  0  0
 40 36  1  0  0  0  0
M  END
>  <MODEL>
9

>  <REMARK>
 VINA RESULT:      -6.6      2.960      6.659
  Name = 
  12 active torsions:
  status: ('A' for Active; 'I' for Inactive)
    1  A    between atoms: C_2  and  C_16
    2  A    between atoms: C_4  and  C_41
    3  A    between atoms: O_11  and  C_28
    4  A    between atoms: O_11  and  C_40
    5  A    between atoms: C_12  and  O_29
    6  A    between atoms: C_13  and  C_40
    7  A    between atoms: C_14  and  C_33
    8  A    between atoms: C_21  and  C_33
    9  A    between atoms: O_25  and  C_32
   10  A    between atoms: O_25  and  C_33
   11  A    between atoms: C_28  and  C_41
   12  A    between atoms: O_29  and  C_34
                            x       y       z     vdW  Elec       q    Type
                         _______ _______ _______ _____ _____    ______ ____

>  <TORSDO>
F 12

$$$$
