=
 OpenBabel11062421113D

 33 34  0  0  1  0  0  0  0  0999 V2000
  188.9030  174.9000  144.8870 O   0  0  0  0  0  0  0  0  0  0  0  0
  188.4180  176.6380  143.4010 N   0  0  0  0  0  2  0  0  0  0  0  0
  187.9000  172.8600  139.8090 O   0  0  0  0  0  0  0  0  0  0  0  0
  190.3040  176.8320  145.0660 C   0  0  2  0  0  3  0  0  0  0  0  0
  191.2140  173.8010  141.0030 C   0  0  0  0  0  2  0  0  0  0  0  0
  190.1060  172.9410  140.5940 N   0  0  0  0  0  0  0  0  0  0  0  0
  190.5550  176.4230  146.3800 O   0  0  0  0  0  1  0  0  0  0  0  0
  193.6680  176.9330  145.0630 C   0  0  0  0  0  0  0  0  0  0  0  0
  189.1740  176.0580  144.4680 C   0  0  0  0  0  0  0  0  0  0  0  0
  191.5660  176.7470  144.2050 C   0  0  1  0  0  3  0  0  0  0  0  0
  191.1950  174.0160  142.5040 C   0  0  0  0  0  2  0  0  0  0  0  0
  193.5670  175.6660  144.8660 N   0  0  0  0  0  0  0  0  0  0  0  0
  192.5440  177.6460  144.7000 O   0  0  0  0  0  0  0  0  0  0  0  0
  187.2110  176.0240  142.8550 C   0  0  2  0  0  3  0  0  0  0  0  0
  188.7950  173.5090  140.4160 C   0  0  0  0  0  0  0  0  0  0  0  0
  187.5100  174.7010  142.1450 C   0  0  0  0  0  2  0  0  0  0  0  0
  195.1030  177.6780  145.7300 Cl  0  0  0  0  0  0  0  0  0  0  0  0
  192.2570  175.3730  144.3010 C   0  0  2  0  0  3  0  0  0  0  0  0
  188.4590  174.8570  140.9650 C   0  0  0  0  0  2  0  0  0  0  0  0
  192.4310  174.7950  142.9080 C   0  0  0  0  0  2  0  0  0  0  0  0
  190.6640  170.9410  139.2330 C   0  0  0  0  0  0  0  0  0  0  0  0
  190.2690  171.5260  140.3710 C   0  0  0  0  0  3  0  0  0  0  0  0
  190.9670  171.6780  138.0530 N   0  0  0  0  0  1  0  0  0  0  0  0
  190.7820  169.4600  139.2020 C   0  0  0  0  0  1  0  0  0  0  0  0
  186.4300  177.0020  141.9720 C   0  0  2  0  0  3  0  0  0  0  0  0
  187.2100  178.1270  141.6810 O   0  0  0  0  0  1  0  0  0  0  0  0
  185.1300  177.4290  142.6500 C   0  0  2  0  0  3  0  0  0  0  0  0
  184.2570  177.9740  141.7050 O   0  0  0  0  0  1  0  0  0  0  0  0
  185.4140  178.4700  143.7330 C   0  0  0  0  0  2  0  0  0  0  0  0
  185.0320  177.9940  145.1350 C   0  0  2  0  0  3  0  0  0  0  0  0
  184.0110  178.8590  145.7070 N   0  0  0  0  0  1  0  0  0  0  0  0
  186.2230  177.9150  146.0370 C   0  0  0  0  0  3  0  0  0  0  0  0
  186.4390  176.8360  146.7850 C   0  0  0  0  0  2  0  0  0  0  0  0
  2  9  1  0  0  0  0
  3 15  2  0  0  0  0
  4  7  1  1  0  0  0
  5 11  1  0  0  0  0
  6  5  1  0  0  0  0
  8 17  1  0  0  0  0
  9  1  2  0  0  0  0
  9  4  1  0  0  0  0
 10 18  1  0  0  0  0
 10 13  1  1  0  0  0
 10  4  1  0  0  0  0
 11 20  1  0  0  0  0
 12  8  2  0  0  0  0
 13  8  1  0  0  0  0
 14 25  1  6  0  0  0
 14  2  1  0  0  0  0
 15  6  1  0  0  0  0
 15 19  1  0  0  0  0
 16 14  1  0  0  0  0
 18 20  1  6  0  0  0
 18 12  1  0  0  0  0
 19 16  1  0  0  0  0
 21 22  2  0  0  0  0
 22  6  1  0  0  0  0
 23 21  1  0  0  0  0
 24 21  1  0  0  0  0
 25 26  1  1  0  0  0
 25 27  1  0  0  0  0
 27 28  1  6  0  0  0
 27 29  1  0  0  0  0
 29 30  1  0  0  0  0
 30 31  1  1  0  0  0
 30 32  1  0  0  0  0
 32 33  2  0  0  0  0
M  END
>  <MODEL>
1

>  <REMARK>
 VINA RESULT:      -7.1      0.000      0.000
  Name = 
  6 active torsions:
  status: ('A' for Active; 'I' for Inactive)
    1  A    between atoms: C_1  and  C_12
    2  A    between atoms: C_5  and  C_8
    3  A    between atoms: C_5  and  C_18
    4  A    between atoms: C_8  and  C_12
    5  A    between atoms: N_11  and  C_13
    6  A    between atoms: C_18  and  C_24
                            x       y       z     vdW  Elec       q    Type
                         _______ _______ _______ _____ _____    ______ ____

>  <TORSDO>
F 6

$$$$
=
 OpenBabel11062421113D

 33 34  0  0  1  0  0  0  0  0999 V2000
  190.5030  173.1220  144.0840 O   0  0  0  0  0  0  0  0  0  0  0  0
  191.9590  174.8660  143.5310 N   0  0  0  0  0  2  0  0  0  0  0  0
  188.8860  177.8330  146.5640 O   0  0  0  0  0  0  0  0  0  0  0  0
  191.1580  173.2300  141.7840 C   0  0  2  0  0  3  0  0  0  0  0  0
  187.7220  176.7630  143.2780 C   0  0  0  0  0  2  0  0  0  0  0  0
  187.6870  177.0460  144.7120 N   0  0  0  0  0  0  0  0  0  0  0  0
  190.8550  171.8660  141.7220 O   0  0  0  0  0  1  0  0  0  0  0  0
  189.1580  173.2120  139.0790 C   0  0  0  0  0  0  0  0  0  0  0  0
  191.1800  173.7140  143.1990 C   0  0  0  0  0  0  0  0  0  0  0  0
  190.2020  174.0530  140.9190 C   0  0  1  0  0  3  0  0  0  0  0  0
  188.0930  175.3140  143.0310 C   0  0  0  0  0  2  0  0  0  0  0  0
  188.2120  173.2110  139.9500 N   0  0  0  0  0  0  0  0  0  0  0  0
  190.3580  173.6930  139.5570 O   0  0  0  0  0  0  0  0  0  0  0  0
  192.1570  175.3230  144.9040 C   0  0  2  0  0  3  0  0  0  0  0  0
  188.9150  177.3240  145.4100 C   0  0  0  0  0  0  0  0  0  0  0  0
  190.8560  175.8160  145.5400 C   0  0  0  0  0  2  0  0  0  0  0  0
  188.9340  172.6520  137.4370 Cl  0  0  0  0  0  0  0  0  0  0  0  0
  188.7210  173.7380  141.2080 C   0  0  2  0  0  3  0  0  0  0  0  0
  190.2390  176.9950  144.8010 C   0  0  0  0  0  2  0  0  0  0  0  0
  187.9860  175.0220  141.5480 C   0  0  0  0  0  2  0  0  0  0  0  0
  185.5980  178.0620  145.5860 C   0  0  0  0  0  0  0  0  0  0  0  0
  186.4600  177.0450  145.4680 C   0  0  0  0  0  3  0  0  0  0  0  0
  185.8070  179.3260  144.9640 N   0  0  0  0  0  1  0  0  0  0  0  0
  184.3750  177.8630  146.4080 C   0  0  0  0  0  1  0  0  0  0  0  0
  193.2860  176.3560  144.9960 C   0  0  2  0  0  3  0  0  0  0  0  0
  193.9950  176.4140  143.7910 O   0  0  0  0  0  1  0  0  0  0  0  0
  194.2350  176.0240  146.1460 C   0  0  2  0  0  3  0  0  0  0  0  0
  194.5360  177.1840  146.8640 O   0  0  0  0  0  1  0  0  0  0  0  0
  195.5280  175.4150  145.6060 C   0  0  0  0  0  2  0  0  0  0  0  0
  195.7070  173.9480  145.9960 C   0  0  2  0  0  3  0  0  0  0  0  0
  197.1190  173.6170  146.1060 N   0  0  0  0  0  1  0  0  0  0  0  0
  195.0240  173.0300  145.0320 C   0  0  0  0  0  3  0  0  0  0  0  0
  194.0630  172.2060  145.4410 C   0  0  0  0  0  2  0  0  0  0  0  0
  2 14  1  0  0  0  0
  4  7  1  1  0  0  0
  4  9  1  0  0  0  0
  5  6  1  0  0  0  0
  6 15  1  0  0  0  0
  6 22  1  0  0  0  0
  8 13  1  0  0  0  0
  8 12  2  0  0  0  0
  9  2  1  0  0  0  0
  9  1  2  0  0  0  0
 10 13  1  6  0  0  0
 10 18  1  0  0  0  0
 10  4  1  0  0  0  0
 11  5  1  0  0  0  0
 12 18  1  0  0  0  0
 14 25  1  6  0  0  0
 14 16  1  0  0  0  0
 15  3  2  0  0  0  0
 17  8  1  0  0  0  0
 18 20  1  6  0  0  0
 19 15  1  0  0  0  0
 19 16  1  0  0  0  0
 20 11  1  0  0  0  0
 21 24  1  0  0  0  0
 22 21  2  0  0  0  0
 23 21  1  0  0  0  0
 25 26  1  6  0  0  0
 25 27  1  0  0  0  0
 27 28  1  6  0  0  0
 29 30  1  0  0  0  0
 29 27  1  0  0  0  0
 30 31  1  6  0  0  0
 32 33  2  0  0  0  0
 32 30  1  0  0  0  0
M  END
>  <MODEL>
2

>  <REMARK>
 VINA RESULT:      -6.8      3.091      8.149
  Name = 
  6 active torsions:
  status: ('A' for Active; 'I' for Inactive)
    1  A    between atoms: C_1  and  C_12
    2  A    between atoms: C_5  and  C_8
    3  A    between atoms: C_5  and  C_18
    4  A    between atoms: C_8  and  C_12
    5  A    between atoms: N_11  and  C_13
    6  A    between atoms: C_18  and  C_24
                            x       y       z     vdW  Elec       q    Type
                         _______ _______ _______ _____ _____    ______ ____

>  <TORSDO>
F 6

$$$$
=
 OpenBabel11062421113D

 33 34  0  0  1  0  0  0  0  0999 V2000
  191.7530  173.8220  145.1360 O   0  0  0  0  0  0  0  0  0  0  0  0
  190.8190  175.8890  144.5700 N   0  0  0  0  0  2  0  0  0  0  0  0
  187.9970  173.1860  141.0810 O   0  0  0  0  0  0  0  0  0  0  0  0
  193.3000  175.6410  144.9600 C   0  0  2  0  0  3  0  0  0  0  0  0
  191.5450  173.7840  140.4880 C   0  0  0  0  0  2  0  0  0  0  0  0
  190.2770  173.0600  140.5570 N   0  0  0  0  0  0  0  0  0  0  0  0
  194.1330  174.9010  145.8050 O   0  0  0  0  0  1  0  0  0  0  0  0
  196.1530  175.7420  143.1790 C   0  0  0  0  0  0  0  0  0  0  0  0
  191.9270  175.0500  144.9060 C   0  0  0  0  0  0  0  0  0  0  0  0
  193.9090  175.7860  143.5640 C   0  0  1  0  0  3  0  0  0  0  0  0
  192.3340  173.5970  141.7700 C   0  0  0  0  0  2  0  0  0  0  0  0
  195.7890  174.5710  142.7910 N   0  0  0  0  0  0  0  0  0  0  0  0
  195.1160  176.5240  143.6430 O   0  0  0  0  0  0  0  0  0  0  0  0
  189.4320  175.4380  144.6350 C   0  0  2  0  0  3  0  0  0  0  0  0
  189.1570  173.6540  141.2400 C   0  0  0  0  0  0  0  0  0  0  0  0
  189.1320  174.3490  143.6020 C   0  0  0  0  0  2  0  0  0  0  0  0
  197.8140  176.2860  143.1200 Cl  0  0  0  0  0  0  0  0  0  0  0  0
  194.3500  174.4360  142.9670 C   0  0  2  0  0  3  0  0  0  0  0  0
  189.3460  174.8100  142.1670 C   0  0  0  0  0  2  0  0  0  0  0  0
  193.6950  174.2430  141.6100 C   0  0  0  0  0  2  0  0  0  0  0  0
  189.8150  171.4870  138.6940 C   0  0  0  0  0  0  0  0  0  0  0  0
  190.1010  171.7540  139.9730 C   0  0  0  0  0  3  0  0  0  0  0  0
  189.6260  172.5060  137.7170 N   0  0  0  0  0  1  0  0  0  0  0  0
  189.6830  170.0660  138.2790 C   0  0  0  0  0  1  0  0  0  0  0  0
  188.4520  176.6130  144.5510 C   0  0  2  0  0  3  0  0  0  0  0  0
  189.1350  177.7990  144.2570 O   0  0  0  0  0  1  0  0  0  0  0  0
  187.6750  176.7680  145.8560 C   0  0  2  0  0  3  0  0  0  0  0  0
  188.0250  175.7470  146.7430 O   0  0  0  0  0  1  0  0  0  0  0  0
  186.1720  176.7090  145.5880 C   0  0  0  0  0  2  0  0  0  0  0  0
  185.4740  178.0540  145.7920 C   0  0  2  0  0  3  0  0  0  0  0  0
  184.3410  177.9100  146.6940 N   0  0  0  0  0  1  0  0  0  0  0  0
  185.0410  178.6570  144.4930 C   0  0  0  0  0  3  0  0  0  0  0  0
  185.5680  179.8010  144.0650 C   0  0  0  0  0  2  0  0  0  0  0  0
  2 14  1  0  0  0  0
  2  9  1  0  0  0  0
  3 15  2  0  0  0  0
  4  7  1  1  0  0  0
  5  6  1  0  0  0  0
  5 11  1  0  0  0  0
  6 15  1  0  0  0  0
  8 13  1  0  0  0  0
  9  4  1  0  0  0  0
  9  1  2  0  0  0  0
 10 13  1  1  0  0  0
 10  4  1  0  0  0  0
 12 18  1  0  0  0  0
 12  8  2  0  0  0  0
 14 25  1  6  0  0  0
 15 19  1  0  0  0  0
 16 14  1  0  0  0  0
 17  8  1  0  0  0  0
 18 20  1  6  0  0  0
 18 10  1  0  0  0  0
 19 16  1  0  0  0  0
 20 11  1  0  0  0  0
 21 22  2  0  0  0  0
 22  6  1  0  0  0  0
 23 21  1  0  0  0  0
 24 21  1  0  0  0  0
 25 26  1  1  0  0  0
 25 27  1  0  0  0  0
 27 28  1  1  0  0  0
 29 30  1  0  0  0  0
 29 27  1  0  0  0  0
 30 31  1  1  0  0  0
 32 30  1  0  0  0  0
 33 32  2  0  0  0  0
M  END
>  <MODEL>
3

>  <REMARK>
 VINA RESULT:      -6.7      2.120      2.791
  Name = 
  6 active torsions:
  status: ('A' for Active; 'I' for Inactive)
    1  A    between atoms: C_1  and  C_12
    2  A    between atoms: C_5  and  C_8
    3  A    between atoms: C_5  and  C_18
    4  A    between atoms: C_8  and  C_12
    5  A    between atoms: N_11  and  C_13
    6  A    between atoms: C_18  and  C_24
                            x       y       z     vdW  Elec       q    Type
                         _______ _______ _______ _____ _____    ______ ____

>  <TORSDO>
F 6

$$$$
=
 OpenBabel11062421113D

 33 34  0  0  1  0  0  0  0  0999 V2000
  190.0730  174.0220  144.2540 O   0  0  0  0  0  0  0  0  0  0  0  0
  189.3760  175.9480  143.1290 N   0  0  0  0  0  2  0  0  0  0  0  0
  187.7860  172.6680  139.3670 O   0  0  0  0  0  0  0  0  0  0  0  0
  191.6050  175.8610  144.3070 C   0  0  2  0  0  3  0  0  0  0  0  0
  191.3430  173.3230  139.8340 C   0  0  0  0  0  2  0  0  0  0  0  0
  190.1140  172.5640  139.6080 N   0  0  0  0  0  0  0  0  0  0  0  0
  192.1260  175.2820  145.4700 O   0  0  0  0  0  1  0  0  0  0  0  0
  194.8750  175.8290  143.5150 C   0  0  0  0  0  0  0  0  0  0  0  0
  190.3170  175.2120  143.9140 C   0  0  0  0  0  0  0  0  0  0  0  0
  192.6250  175.8330  143.1670 C   0  0  1  0  0  3  0  0  0  0  0  0
  191.6860  173.3500  141.3110 C   0  0  0  0  0  2  0  0  0  0  0  0
  194.6470  174.6010  143.2080 N   0  0  0  0  0  0  0  0  0  0  0  0
  193.7490  176.6240  143.5110 O   0  0  0  0  0  0  0  0  0  0  0  0
  188.0370  175.4540  142.8210 C   0  0  2  0  0  3  0  0  0  0  0  0
  188.8390  173.2010  139.8110 C   0  0  0  0  0  0  0  0  0  0  0  0
  188.0730  174.2190  141.9180 C   0  0  0  0  0  2  0  0  0  0  0  0
  196.4730  176.4280  143.9000 Cl  0  0  0  0  0  0  0  0  0  0  0  0
  193.2250  174.4320  142.9420 C   0  0  2  0  0  3  0  0  0  0  0  0
  188.7310  174.4830  140.5710 C   0  0  0  0  0  2  0  0  0  0  0  0
  193.0310  174.0240  141.4930 C   0  0  0  0  0  2  0  0  0  0  0  0
  190.1580  170.7280  137.9380 C   0  0  0  0  0  0  0  0  0  0  0  0
  190.1250  171.1820  139.1960 C   0  0  0  0  0  3  0  0  0  0  0  0
  190.1700  171.5930  136.8060 N   0  0  0  0  0  1  0  0  0  0  0  0
  190.1750  169.2590  137.7150 C   0  0  0  0  0  1  0  0  0  0  0  0
  187.1400  176.5640  142.2640 C   0  0  2  0  0  3  0  0  0  0  0  0
  187.8650  177.7530  142.1220 O   0  0  0  0  0  1  0  0  0  0  0  0
  185.9320  176.7940  143.1700 C   0  0  2  0  0  3  0  0  0  0  0  0
  184.9630  177.5380  142.4910 O   0  0  0  0  0  1  0  0  0  0  0  0
  186.3520  177.5470  144.4320 C   0  0  0  0  0  2  0  0  0  0  0  0
  185.9270  176.8390  145.7190 C   0  0  2  0  0  3  0  0  0  0  0  0
  184.7840  177.5110  146.3170 N   0  0  0  0  0  1  0  0  0  0  0  0
  187.0550  176.7450  146.6980 C   0  0  0  0  0  3  0  0  0  0  0  0
  188.2700  177.1830  146.3800 C   0  0  0  0  0  2  0  0  0  0  0  0
  2  9  1  0  0  0  0
  3 15  2  0  0  0  0
  4  7  1  1  0  0  0
  5 11  1  0  0  0  0
  6 15  1  0  0  0  0
  6  5  1  0  0  0  0
  8 17  1  0  0  0  0
  9  1  2  0  0  0  0
  9  4  1  0  0  0  0
 10 13  1  1  0  0  0
 10  4  1  0  0  0  0
 11 20  1  0  0  0  0
 12  8  2  0  0  0  0
 13  8  1  0  0  0  0
 14 25  1  6  0  0  0
 14  2  1  0  0  0  0
 15 19  1  0  0  0  0
 16 14  1  0  0  0  0
 18 20  1  6  0  0  0
 18 10  1  0  0  0  0
 18 12  1  0  0  0  0
 19 16  1  0  0  0  0
 21 22  2  0  0  0  0
 22  6  1  0  0  0  0
 23 21  1  0  0  0  0
 24 21  1  0  0  0  0
 25 26  1  1  0  0  0
 25 27  1  0  0  0  0
 27 28  1  6  0  0  0
 27 29  1  0  0  0  0
 29 30  1  0  0  0  0
 30 31  1  1  0  0  0
 30 32  1  0  0  0  0
 33 32  2  0  0  0  0
M  END
>  <MODEL>
4

>  <REMARK>
 VINA RESULT:      -6.7      1.401      1.540
  Name = 
  6 active torsions:
  status: ('A' for Active; 'I' for Inactive)
    1  A    between atoms: C_1  and  C_12
    2  A    between atoms: C_5  and  C_8
    3  A    between atoms: C_5  and  C_18
    4  A    between atoms: C_8  and  C_12
    5  A    between atoms: N_11  and  C_13
    6  A    between atoms: C_18  and  C_24
                            x       y       z     vdW  Elec       q    Type
                         _______ _______ _______ _____ _____    ______ ____

>  <TORSDO>
F 6

$$$$
=
 OpenBabel11062421113D

 33 34  0  0  1  0  0  0  0  0999 V2000
  190.5000  175.3410  142.4350 O   0  0  0  0  0  0  0  0  0  0  0  0
  189.7480  174.6820  144.5480 N   0  0  0  0  0  2  0  0  0  0  0  0
  194.1960  176.8000  146.3290 O   0  0  0  0  0  0  0  0  0  0  0  0
  189.5470  173.1480  142.5550 C   0  0  2  0  0  3  0  0  0  0  0  0
  194.2750  173.6230  144.5420 C   0  0  0  0  0  2  0  0  0  0  0  0
  194.6630  174.9760  144.9360 N   0  0  0  0  0  0  0  0  0  0  0  0
  189.2910  173.2780  141.1870 O   0  0  0  0  0  1  0  0  0  0  0  0
  190.8870  170.2670  141.4490 C   0  0  0  0  0  0  0  0  0  0  0  0
  189.9580  174.4560  143.1520 C   0  0  0  0  0  0  0  0  0  0  0  0
  190.5800  172.0530  142.8280 C   0  0  1  0  0  3  0  0  0  0  0  0
  193.3410  173.6640  143.3480 C   0  0  0  0  0  2  0  0  0  0  0  0
  191.8960  171.0090  141.1590 N   0  0  0  0  0  0  0  0  0  0  0  0
  190.0640  170.7970  142.4200 O   0  0  0  0  0  0  0  0  0  0  0  0
  189.9800  175.9740  145.1890 C   0  0  2  0  0  3  0  0  0  0  0  0
  193.7760  175.7580  145.7570 C   0  0  0  0  0  0  0  0  0  0  0  0
  191.4600  176.3630  145.1800 C   0  0  0  0  0  2  0  0  0  0  0  0
  190.5910  168.7250  140.6770 Cl  0  0  0  0  0  0  0  0  0  0  0  0
  191.8540  172.2140  141.9760 C   0  0  2  0  0  3  0  0  0  0  0  0
  192.3430  175.3720  145.9260 C   0  0  0  0  0  2  0  0  0  0  0  0
  193.0700  172.2470  142.8830 C   0  0  0  0  0  2  0  0  0  0  0  0
  196.1310  176.2330  143.3790 C   0  0  0  0  0  0  0  0  0  0  0  0
  195.9080  175.5720  144.5210 C   0  0  0  0  0  3  0  0  0  0  0  0
  195.1260  176.4210  142.3880 N   0  0  0  0  0  1  0  0  0  0  0  0
  197.4880  176.7880  143.1350 C   0  0  0  0  0  1  0  0  0  0  0  0
  189.3660  176.0270  146.5910 C   0  0  2  0  0  3  0  0  0  0  0  0
  188.9160  174.7590  146.9760 O   0  0  0  0  0  1  0  0  0  0  0  0
  188.2140  177.0280  146.6440 C   0  0  2  0  0  3  0  0  0  0  0  0
  187.0770  176.4170  147.1820 O   0  0  0  0  0  1  0  0  0  0  0  0
  187.8930  177.5410  145.2410 C   0  0  0  0  0  2  0  0  0  0  0  0
  186.5170  177.0990  144.7430 C   0  0  2  0  0  3  0  0  0  0  0  0
  186.6430  176.3160  143.5230 N   0  0  0  0  0  1  0  0  0  0  0  0
  185.6040  178.2650  144.5290 C   0  0  0  0  0  3  0  0  0  0  0  0
  185.5130  179.2330  145.4370 C   0  0  0  0  0  2  0  0  0  0  0  0
  1  9  2  0  0  0  0
  2 14  1  0  0  0  0
  4  7  1  6  0  0  0
  4 10  1  0  0  0  0
  4  9  1  0  0  0  0
  5  6  1  0  0  0  0
  6 15  1  0  0  0  0
  8 13  1  0  0  0  0
  9  2  1  0  0  0  0
 10 13  1  6  0  0  0
 11  5  1  0  0  0  0
 12  8  2  0  0  0  0
 12 18  1  0  0  0  0
 14 25  1  1  0  0  0
 15 19  1  0  0  0  0
 15  3  2  0  0  0  0
 16 14  1  0  0  0  0
 16 19  1  0  0  0  0
 17  8  1  0  0  0  0
 18 10  1  0  0  0  0
 18 20  1  1  0  0  0
 20 11  1  0  0  0  0
 21 22  2  0  0  0  0
 22  6  1  0  0  0  0
 23 21  1  0  0  0  0
 24 21  1  0  0  0  0
 25 27  1  0  0  0  0
 25 26  1  6  0  0  0
 27 28  1  6  0  0  0
 29 27  1  0  0  0  0
 30 31  1  6  0  0  0
 30 29  1  0  0  0  0
 32 30  1  0  0  0  0
 32 33  2  0  0  0  0
M  END
>  <MODEL>
5

>  <REMARK>
 VINA RESULT:      -6.6      3.115      6.072
  Name = 
  6 active torsions:
  status: ('A' for Active; 'I' for Inactive)
    1  A    between atoms: C_1  and  C_12
    2  A    between atoms: C_5  and  C_8
    3  A    between atoms: C_5  and  C_18
    4  A    between atoms: C_8  and  C_12
    5  A    between atoms: N_11  and  C_13
    6  A    between atoms: C_18  and  C_24
                            x       y       z     vdW  Elec       q    Type
                         _______ _______ _______ _____ _____    ______ ____

>  <TORSDO>
F 6

$$$$
=
 OpenBabel11062421113D

 33 34  0  0  1  0  0  0  0  0999 V2000
  191.3110  176.2250  142.3260 O   0  0  0  0  0  0  0  0  0  0  0  0
  191.2360  176.0010  144.6520 N   0  0  0  0  0  2  0  0  0  0  0  0
  192.3870  170.9650  143.7860 O   0  0  0  0  0  0  0  0  0  0  0  0
  189.4960  177.3440  143.4130 C   0  0  2  0  0  3  0  0  0  0  0  0
  189.0460  172.2260  143.0490 C   0  0  0  0  0  2  0  0  0  0  0  0
  190.2970  171.4920  142.8690 N   0  0  0  0  0  0  0  0  0  0  0  0
  189.4560  178.1830  142.2940 O   0  0  0  0  0  1  0  0  0  0  0  0
  186.2210  177.1440  142.6650 C   0  0  0  0  0  0  0  0  0  0  0  0
  190.7320  176.5030  143.4110 C   0  0  0  0  0  0  0  0  0  0  0  0
  188.2300  176.4900  143.5130 C   0  0  1  0  0  3  0  0  0  0  0  0
  189.1290  173.5880  142.3880 C   0  0  0  0  0  2  0  0  0  0  0  0
  186.6150  176.2820  141.7950 N   0  0  0  0  0  0  0  0  0  0  0  0
  187.1030  177.3260  143.7090 O   0  0  0  0  0  0  0  0  0  0  0  0
  192.5110  175.2980  144.7660 C   0  0  2  0  0  3  0  0  0  0  0  0
  191.4090  171.7610  143.7420 C   0  0  0  0  0  0  0  0  0  0  0  0
  192.4930  173.9520  144.0400 C   0  0  0  0  0  2  0  0  0  0  0  0
  184.7030  178.0020  142.5290 Cl  0  0  0  0  0  0  0  0  0  0  0  0
  187.9080  175.7500  142.2010 C   0  0  2  0  0  3  0  0  0  0  0  0
  191.4450  172.9920  144.5870 C   0  0  0  0  0  2  0  0  0  0  0  0
  187.7750  174.2630  142.4750 C   0  0  0  0  0  2  0  0  0  0  0  0
  190.9620  170.7200  140.6050 C   0  0  0  0  0  0  0  0  0  0  0  0
  190.4700  170.5060  141.8310 C   0  0  0  0  0  3  0  0  0  0  0  0
  191.3780  172.0060  140.1550 N   0  0  0  0  0  1  0  0  0  0  0  0
  191.0720  169.5670  139.6740 C   0  0  0  0  0  1  0  0  0  0  0  0
  192.9560  175.1730  146.2270 C   0  0  2  0  0  3  0  0  0  0  0  0
  191.9810  175.6980  147.0820 O   0  0  0  0  0  1  0  0  0  0  0  0
  194.2880  175.8860  146.4530 C   0  0  2  0  0  3  0  0  0  0  0  0
  194.0700  177.1150  147.0810 O   0  0  0  0  0  1  0  0  0  0  0  0
  194.9970  176.1200  145.1190 C   0  0  0  0  0  2  0  0  0  0  0  0
  196.1180  175.1150  144.8540 C   0  0  2  0  0  3  0  0  0  0  0  0
  196.0880  174.6710  143.4680 N   0  0  0  0  0  1  0  0  0  0  0  0
  196.0440  173.9440  145.7830 C   0  0  0  0  0  3  0  0  0  0  0  0
  197.1530  173.3810  146.2570 C   0  0  0  0  0  2  0  0  0  0  0  0
  1  9  2  0  0  0  0
  2 14  1  0  0  0  0
  4  7  1  6  0  0  0
  4 10  1  0  0  0  0
  6  5  1  0  0  0  0
  6 15  1  0  0  0  0
  8 13  1  0  0  0  0
  9  4  1  0  0  0  0
  9  2  1  0  0  0  0
 10 13  1  6  0  0  0
 11 20  1  0  0  0  0
 11  5  1  0  0  0  0
 12 18  1  0  0  0  0
 12  8  2  0  0  0  0
 14 25  1  1  0  0  0
 15  3  2  0  0  0  0
 15 19  1  0  0  0  0
 16 19  1  0  0  0  0
 16 14  1  0  0  0  0
 17  8  1  0  0  0  0
 18 20  1  1  0  0  0
 18 10  1  0  0  0  0
 21 22  2  0  0  0  0
 22  6  1  0  0  0  0
 23 21  1  0  0  0  0
 24 21  1  0  0  0  0
 25 27  1  0  0  0  0
 25 26  1  1  0  0  0
 27 28  1  6  0  0  0
 29 27  1  0  0  0  0
 30 31  1  6  0  0  0
 30 29  1  0  0  0  0
 30 32  1  0  0  0  0
 32 33  2  0  0  0  0
M  END
>  <MODEL>
6

>  <REMARK>
 VINA RESULT:      -6.5      3.058      6.844
  Name = 
  6 active torsions:
  status: ('A' for Active; 'I' for Inactive)
    1  A    between atoms: C_1  and  C_12
    2  A    between atoms: C_5  and  C_8
    3  A    between atoms: C_5  and  C_18
    4  A    between atoms: C_8  and  C_12
    5  A    between atoms: N_11  and  C_13
    6  A    between atoms: C_18  and  C_24
                            x       y       z     vdW  Elec       q    Type
                         _______ _______ _______ _____ _____    ______ ____

>  <TORSDO>
F 6

$$$$
=
 OpenBabel11062421113D

 33 34  0  0  1  0  0  0  0  0999 V2000
  190.1630  173.1550  144.3400 O   0  0  0  0  0  0  0  0  0  0  0  0
  191.7410  174.8300  143.9260 N   0  0  0  0  0  2  0  0  0  0  0  0
  188.6030  177.9070  146.7760 O   0  0  0  0  0  0  0  0  0  0  0  0
  190.9920  173.2610  142.0970 C   0  0  2  0  0  3  0  0  0  0  0  0
  187.6340  176.9430  143.3960 C   0  0  0  0  0  2  0  0  0  0  0  0
  187.5060  177.2070  144.8280 N   0  0  0  0  0  0  0  0  0  0  0  0
  190.6270  171.9150  141.9890 O   0  0  0  0  0  1  0  0  0  0  0  0
  189.1990  173.3810  139.2520 C   0  0  0  0  0  0  0  0  0  0  0  0
  190.9320  173.7230  143.5180 C   0  0  0  0  0  0  0  0  0  0  0  0
  190.1440  174.1430  141.1790 C   0  0  1  0  0  3  0  0  0  0  0  0
  187.9500  175.4800  143.1510 C   0  0  0  0  0  2  0  0  0  0  0  0
  188.1930  173.4160  140.0510 N   0  0  0  0  0  0  0  0  0  0  0  0
  190.3830  173.7950  139.8260 O   0  0  0  0  0  0  0  0  0  0  0  0
  191.8590  175.2570  145.3170 C   0  0  2  0  0  3  0  0  0  0  0  0
  188.6910  177.4140  145.6190 C   0  0  0  0  0  0  0  0  0  0  0  0
  190.5410  175.8070  145.8650 C   0  0  0  0  0  2  0  0  0  0  0  0
  189.0710  172.8560  137.5880 Cl  0  0  0  0  0  0  0  0  0  0  0  0
  188.6330  173.9000  141.3530 C   0  0  2  0  0  3  0  0  0  0  0  0
  190.0390  177.0260  145.1030 C   0  0  0  0  0  2  0  0  0  0  0  0
  187.9390  175.2150  141.6590 C   0  0  0  0  0  2  0  0  0  0  0  0
  185.3900  178.3020  145.5250 C   0  0  0  0  0  0  0  0  0  0  0  0
  186.2280  177.2590  145.4920 C   0  0  0  0  0  3  0  0  0  0  0  0
  185.6820  179.5440  144.8930 N   0  0  0  0  0  1  0  0  0  0  0  0
  184.1060  178.1560  146.2580 C   0  0  0  0  0  1  0  0  0  0  0  0
  193.0280  176.2300  145.5100 C   0  0  2  0  0  3  0  0  0  0  0  0
  192.9060  177.3190  144.6410 O   0  0  0  0  0  1  0  0  0  0  0  0
  194.3640  175.5270  145.2830 C   0  0  2  0  0  3  0  0  0  0  0  0
  194.9480  175.2050  146.5120 O   0  0  0  0  0  1  0  0  0  0  0  0
  195.3120  176.4330  144.4980 C   0  0  0  0  0  2  0  0  0  0  0  0
  195.9970  175.7160  143.3340 C   0  0  2  0  0  3  0  0  0  0  0  0
  196.4360  176.6740  142.3310 N   0  0  0  0  0  1  0  0  0  0  0  0
  195.1080  174.6800  142.7210 C   0  0  0  0  0  3  0  0  0  0  0  0
  194.5590  174.8780  141.5250 C   0  0  0  0  0  2  0  0  0  0  0  0
  2 14  1  0  0  0  0
  4  7  1  1  0  0  0
  4  9  1  0  0  0  0
  5  6  1  0  0  0  0
  6 22  1  0  0  0  0
  6 15  1  0  0  0  0
  8 13  1  0  0  0  0
  8 12  2  0  0  0  0
  9  2  1  0  0  0  0
  9  1  2  0  0  0  0
 10 13  1  6  0  0  0
 10 18  1  0  0  0  0
 10  4  1  0  0  0  0
 11  5  1  0  0  0  0
 12 18  1  0  0  0  0
 14 25  1  6  0  0  0
 14 16  1  0  0  0  0
 15  3  2  0  0  0  0
 17  8  1  0  0  0  0
 18 20  1  6  0  0  0
 19 15  1  0  0  0  0
 19 16  1  0  0  0  0
 20 11  1  0  0  0  0
 21 24  1  0  0  0  0
 22 21  2  0  0  0  0
 23 21  1  0  0  0  0
 25 26  1  6  0  0  0
 27 25  1  0  0  0  0
 27 28  1  1  0  0  0
 29 27  1  0  0  0  0
 30 31  1  6  0  0  0
 30 29  1  0  0  0  0
 32 30  1  0  0  0  0
 33 32  2  0  0  0  0
M  END
>  <MODEL>
7

>  <REMARK>
 VINA RESULT:      -6.3      3.082      8.105
  Name = 
  6 active torsions:
  status: ('A' for Active; 'I' for Inactive)
    1  A    between atoms: C_1  and  C_12
    2  A    between atoms: C_5  and  C_8
    3  A    between atoms: C_5  and  C_18
    4  A    between atoms: C_8  and  C_12
    5  A    between atoms: N_11  and  C_13
    6  A    between atoms: C_18  and  C_24
                            x       y       z     vdW  Elec       q    Type
                         _______ _______ _______ _____ _____    ______ ____

>  <TORSDO>
F 6

$$$$
=
 OpenBabel11062421113D

 33 34  0  0  1  0  0  0  0  0999 V2000
  190.6360  172.9250  142.9660 O   0  0  0  0  0  0  0  0  0  0  0  0
  192.1630  174.5490  142.2640 N   0  0  0  0  0  2  0  0  0  0  0  0
  189.0370  177.9540  144.7280 O   0  0  0  0  0  0  0  0  0  0  0  0
  191.3990  172.7160  140.7070 C   0  0  2  0  0  3  0  0  0  0  0  0
  187.9960  176.4870  141.5560 C   0  0  0  0  0  2  0  0  0  0  0  0
  187.9030  176.9570  142.9370 N   0  0  0  0  0  0  0  0  0  0  0  0
  191.0620  171.3620  140.8090 O   0  0  0  0  0  1  0  0  0  0  0  0
  189.5260  172.3840  137.9320 C   0  0  0  0  0  0  0  0  0  0  0  0
  191.3680  173.3800  142.0470 C   0  0  0  0  0  0  0  0  0  0  0  0
  190.5070  173.4380  139.6970 C   0  0  1  0  0  3  0  0  0  0  0  0
  188.3390  175.0100  141.5190 C   0  0  0  0  0  2  0  0  0  0  0  0
  188.5410  172.5180  138.7480 N   0  0  0  0  0  0  0  0  0  0  0  0
  190.7160  172.8990  138.4030 O   0  0  0  0  0  0  0  0  0  0  0  0
  192.3110  175.1790  143.5730 C   0  0  2  0  0  3  0  0  0  0  0  0
  189.1040  177.2980  143.6530 C   0  0  0  0  0  0  0  0  0  0  0  0
  190.9950  175.7780  144.0750 C   0  0  0  0  0  2  0  0  0  0  0  0
  189.3640  171.6180  136.3680 Cl  0  0  0  0  0  0  0  0  0  0  0  0
  189.0060  173.1950  139.9510 C   0  0  2  0  0  3  0  0  0  0  0  0
  190.4450  176.8630  143.1590 C   0  0  0  0  0  2  0  0  0  0  0  0
  188.2920  174.5280  140.0830 C   0  0  0  0  0  2  0  0  0  0  0  0
  185.8300  178.1450  143.6110 C   0  0  0  0  0  0  0  0  0  0  0  0
  186.6430  177.0810  143.6260 C   0  0  0  0  0  3  0  0  0  0  0  0
  186.1350  179.3370  142.8940 N   0  0  0  0  0  1  0  0  0  0  0  0
  184.5610  178.0780  144.3810 C   0  0  0  0  0  1  0  0  0  0  0  0
  193.4610  176.1900  143.5860 C   0  0  2  0  0  3  0  0  0  0  0  0
  194.2430  176.0560  142.4330 O   0  0  0  0  0  1  0  0  0  0  0  0
  194.3290  176.0110  144.8300 C   0  0  2  0  0  3  0  0  0  0  0  0
  195.3850  176.9280  144.8090 O   0  0  0  0  0  1  0  0  0  0  0  0
  194.8950  174.5930  144.8820 C   0  0  0  0  0  2  0  0  0  0  0  0
  196.4240  174.5580  144.8620 C   0  0  2  0  0  3  0  0  0  0  0  0
  196.9070  174.0650  143.5810 N   0  0  0  0  0  1  0  0  0  0  0  0
  196.9740  173.7360  145.9850 C   0  0  0  0  0  3  0  0  0  0  0  0
  196.7760  172.4210  146.0260 C   0  0  0  0  0  2  0  0  0  0  0  0
  2 14  1  0  0  0  0
  4  7  1  1  0  0  0
  4  9  1  0  0  0  0
  5  6  1  0  0  0  0
  6 22  1  0  0  0  0
  6 15  1  0  0  0  0
  8 13  1  0  0  0  0
  8 12  2  0  0  0  0
  9  2  1  0  0  0  0
  9  1  2  0  0  0  0
 10 13  1  6  0  0  0
 10 18  1  0  0  0  0
 10  4  1  0  0  0  0
 11  5  1  0  0  0  0
 12 18  1  0  0  0  0
 14 25  1  6  0  0  0
 14 16  1  0  0  0  0
 15  3  2  0  0  0  0
 17  8  1  0  0  0  0
 18 20  1  6  0  0  0
 19 15  1  0  0  0  0
 19 16  1  0  0  0  0
 20 11  1  0  0  0  0
 21 22  2  0  0  0  0
 21 24  1  0  0  0  0
 23 21  1  0  0  0  0
 25 26  1  6  0  0  0
 25 27  1  0  0  0  0
 27 28  1  6  0  0  0
 27 29  1  0  0  0  0
 30 31  1  6  0  0  0
 30 29  1  0  0  0  0
 30 32  1  0  0  0  0
 32 33  2  0  0  0  0
M  END
>  <MODEL>
8

>  <REMARK>
 VINA RESULT:      -6.3      3.312      8.230
  Name = 
  6 active torsions:
  status: ('A' for Active; 'I' for Inactive)
    1  A    between atoms: C_1  and  C_12
    2  A    between atoms: C_5  and  C_8
    3  A    between atoms: C_5  and  C_18
    4  A    between atoms: C_8  and  C_12
    5  A    between atoms: N_11  and  C_13
    6  A    between atoms: C_18  and  C_24
                            x       y       z     vdW  Elec       q    Type
                         _______ _______ _______ _____ _____    ______ ____

>  <TORSDO>
F 6

$$$$
=
 OpenBabel11062421113D

 33 34  0  0  1  0  0  0  0  0999 V2000
  190.4690  172.7020  142.6540 O   0  0  0  0  0  0  0  0  0  0  0  0
  192.0710  174.2940  142.0530 N   0  0  0  0  0  2  0  0  0  0  0  0
  189.0290  177.7070  144.6100 O   0  0  0  0  0  0  0  0  0  0  0  0
  191.2700  172.5620  140.4020 C   0  0  2  0  0  3  0  0  0  0  0  0
  187.9970  176.4230  141.3570 C   0  0  0  0  0  2  0  0  0  0  0  0
  187.8940  176.8340  142.7550 N   0  0  0  0  0  0  0  0  0  0  0  0
  190.8780  171.2200  140.4370 O   0  0  0  0  0  1  0  0  0  0  0  0
  189.4410  172.4270  137.5810 C   0  0  0  0  0  0  0  0  0  0  0  0
  191.2370  173.1680  141.7690 C   0  0  0  0  0  0  0  0  0  0  0  0
  190.4260  173.3630  139.4090 C   0  0  1  0  0  3  0  0  0  0  0  0
  188.2830  174.9370  141.2590 C   0  0  0  0  0  2  0  0  0  0  0  0
  188.4460  172.5630  138.3840 N   0  0  0  0  0  0  0  0  0  0  0  0
  190.6400  172.8730  138.0960 O   0  0  0  0  0  0  0  0  0  0  0  0
  192.2160  174.8590  143.3920 C   0  0  2  0  0  3  0  0  0  0  0  0
  189.0930  177.0970  143.5080 C   0  0  0  0  0  0  0  0  0  0  0  0
  190.9150  175.4870  143.8950 C   0  0  0  0  0  2  0  0  0  0  0  0
  189.2810  171.7380  135.9810 Cl  0  0  0  0  0  0  0  0  0  0  0  0
  188.9120  173.1680  139.6240 C   0  0  2  0  0  3  0  0  0  0  0  0
  190.4260  176.6320  143.0190 C   0  0  0  0  0  2  0  0  0  0  0  0
  188.2470  174.5210  139.8030 C   0  0  0  0  0  2  0  0  0  0  0  0
  185.8420  178.0630  143.4200 C   0  0  0  0  0  0  0  0  0  0  0  0
  186.6260  176.9780  143.4260 C   0  0  0  0  0  3  0  0  0  0  0  0
  186.1890  179.2610  142.7330 N   0  0  0  0  0  1  0  0  0  0  0  0
  184.5580  178.0140  144.1670 C   0  0  0  0  0  1  0  0  0  0  0  0
  193.4050  175.8230  143.4710 C   0  0  2  0  0  3  0  0  0  0  0  0
  193.9380  176.0470  142.1970 O   0  0  0  0  0  1  0  0  0  0  0  0
  194.4860  175.2790  144.4020 C   0  0  2  0  0  3  0  0  0  0  0  0
  194.9420  174.0450  143.9320 O   0  0  0  0  0  1  0  0  0  0  0  0
  193.9310  175.1060  145.8150 C   0  0  0  0  0  2  0  0  0  0  0  0
  193.3000  176.3830  146.3710 C   0  0  2  0  0  3  0  0  0  0  0  0
  194.3260  177.2750  146.8880 N   0  0  0  0  0  1  0  0  0  0  0  0
  192.2800  176.0860  147.4240 C   0  0  0  0  0  3  0  0  0  0  0  0
  191.0650  176.6240  147.3650 C   0  0  0  0  0  2  0  0  0  0  0  0
  2 14  1  0  0  0  0
  4  7  1  1  0  0  0
  4  9  1  0  0  0  0
  5  6  1  0  0  0  0
  6 22  1  0  0  0  0
  6 15  1  0  0  0  0
  8 13  1  0  0  0  0
  8 12  2  0  0  0  0
  9  2  1  0  0  0  0
  9  1  2  0  0  0  0
 10 13  1  6  0  0  0
 10 18  1  0  0  0  0
 10  4  1  0  0  0  0
 11  5  1  0  0  0  0
 12 18  1  0  0  0  0
 14 25  1  6  0  0  0
 14 16  1  0  0  0  0
 15  3  2  0  0  0  0
 17  8  1  0  0  0  0
 18 20  1  6  0  0  0
 19 15  1  0  0  0  0
 19 16  1  0  0  0  0
 20 11  1  0  0  0  0
 21 22  2  0  0  0  0
 21 24  1  0  0  0  0
 23 21  1  0  0  0  0
 25 26  1  6  0  0  0
 25 27  1  0  0  0  0
 27 28  1  6  0  0  0
 27 29  1  0  0  0  0
 29 30  1  0  0  0  0
 30 31  1  1  0  0  0
 30 32  1  0  0  0  0
 33 32  2  0  0  0  0
M  END
>  <MODEL>
9

>  <REMARK>
 VINA RESULT:      -6.3      3.203      7.566
  Name = 
  6 active torsions:
  status: ('A' for Active; 'I' for Inactive)
    1  A    between atoms: C_1  and  C_12
    2  A    between atoms: C_5  and  C_8
    3  A    between atoms: C_5  and  C_18
    4  A    between atoms: C_8  and  C_12
    5  A    between atoms: N_11  and  C_13
    6  A    between atoms: C_18  and  C_24
                            x       y       z     vdW  Elec       q    Type
                         _______ _______ _______ _____ _____    ______ ____

>  <TORSDO>
F 6

$$$$
