=
 OpenBabel11062422523D

 46 49  0  0  1  0  0  0  0  0999 V2000
  192.8510  172.2290  141.1050 C   0  0  0  0  0  2  0  0  0  0  0  0
  192.0600  171.1690  143.1770 O   0  0  0  0  0  0  0  0  0  0  0  0
  191.1850  172.5060  144.6410 C   0  0  0  0  0  2  0  0  0  0  0  0
  194.3570  173.4150  144.4190 C   0  0  2  0  0  0  0  0  0  0  0  0
  193.0250  172.0390  142.6140 C   0  0  2  0  0  3  0  0  0  0  0  0
  190.9630  171.8780  143.4090 O   0  0  0  0  0  0  0  0  0  0  0  0
  193.2130  173.3640  143.3930 C   0  0  1  0  0  3  0  0  0  0  0  0
  193.2630  173.8540  145.8270 S   0  0  0  0  0  0  0  0  0  0  0  0
  192.1210  173.6850  144.4160 C   0  0  2  0  0  3  0  0  0  0  0  0
  195.9830  173.8640  141.8550 O   0  0  0  0  0  0  0  0  0  0  0  0
  196.1550  176.7350  141.5140 O   0  0  0  0  0  1  0  0  0  0  0  0
  194.7040  176.3480  145.5840 O   0  0  0  0  0  0  0  0  0  0  0  0
  194.7090  176.7350  143.2980 O   0  0  0  0  0  0  0  0  0  0  0  0
  194.8840  175.9280  144.4110 C   0  0  0  0  0  0  0  0  0  0  0  0
  195.0820  176.0670  142.1040 C   0  0  2  0  0  3  0  0  0  0  0  0
  195.5250  174.7240  142.5910 C   0  0  0  0  0  0  0  0  0  0  0  0
  195.3630  174.5530  144.0740 C   0  0  2  0  0  3  0  0  0  0  0  0
  196.5560  172.1600  145.0900 C   0  0  2  0  0  3  0  0  0  0  0  0
  196.7320  173.1370  146.0750 O   0  0  0  0  0  1  0  0  0  0  0  0
  195.5480  170.1950  146.1380 C   0  0  2  0  0  3  0  0  0  0  0  0
  195.0930  172.0640  144.6680 C   0  0  1  0  0  3  0  0  0  0  0  0
  196.8690  170.8020  145.6850 C   0  0  0  0  0  2  0  0  0  0  0  0
  195.3830  168.9460  145.5400 O   0  0  0  0  0  1  0  0  0  0  0  0
  194.4450  171.1280  145.6740 C   0  0  0  0  0  2  0  0  0  0  0  0
  192.4260  173.6380  140.6980 C   0  0  0  0  0  2  0  0  0  0  0  0
  190.9160  173.7530  140.5320 C   0  0  0  0  0  2  0  0  0  0  0  0
  190.3730  174.5570  141.5390 O   0  0  0  0  0  0  0  0  0  0  0  0
  188.0610  173.4000  141.9750 O   0  0  0  0  0  1  0  0  0  0  0  0
  188.6970  174.5750  141.2690 P   0  0  2  0  0  0  0  0  0  0  0  0
  188.4130  174.4400  139.6070 O   0  0  0  0  0  0  0  0  0  0  0  0
  187.9620  176.1320  141.8630 C   0  0  0  0  0  2  0  0  0  0  0  0
  187.8140  176.1110  143.3780 C   0  0  1  0  0  3  0  0  0  0  0  0
  188.6190  177.1200  143.9920 O   0  0  0  0  0  0  0  0  0  0  0  0
  190.9230  176.8810  143.9280 O   0  0  0  0  0  0  0  0  0  0  0  0
  189.8570  176.8670  144.6000 C   0  0  0  0  0  0  0  0  0  0  0  0
  189.4880  177.7670  146.8640 C   0  0  0  0  0  1  0  0  0  0  0  0
  189.9190  176.5520  146.0590 C   0  0  1  0  0  3  0  0  0  0  0  0
  189.0490  175.3420  146.3910 C   0  0  0  0  0  3  0  0  0  0  0  0
  187.8230  175.7620  146.9130 O   0  0  0  0  0  1  0  0  0  0  0  0
  189.6900  174.5360  147.3340 O   0  0  0  0  0  1  0  0  0  0  0  0
  186.4730  176.2780  143.7340 O   0  0  0  0  0  0  0  0  0  0  0  0
  185.8770  176.6870  142.6330 O   0  0  0  0  0  0  0  0  0  0  0  0
  186.0180  179.4200  143.0060 O   0  0  0  0  0  1  0  0  0  0  0  0
  185.0020  178.0690  143.0840 P   0  0  0  0  0  0  0  0  0  0  0  0
  183.6990  178.2900  142.0300 O   0  0  0  0  0  0  0  0  0  0  0  0
  184.4870  177.9160  144.4980 O   0  0  0  0  0  1  0  0  0  0  0  0
  2  6  1  0  0  0  0
  4 21  1  0  0  0  0
  4  8  1  1  0  0  0
  5  1  1  6  0  0  0
  5  2  1  0  0  0  0
  5  7  1  0  0  0  0
  6  3  1  0  0  0  0
  7  9  1  0  0  0  0
  7  4  1  0  0  0  0
  9  3  1  0  0  0  0
  9  8  1  0  0  0  0
 10 16  2  0  0  0  0
 11 15  1  0  0  0  0
 13 14  1  0  0  0  0
 14 12  2  0  0  0  0
 15 16  1  0  0  0  0
 15 13  1  0  0  0  0
 16 17  1  0  0  0  0
 17 14  1  0  0  0  0
 17  4  1  0  0  0  0
 18 22  1  0  0  0  0
 18 19  1  0  0  0  0
 21 18  1  0  0  0  0
 21 24  1  0  0  0  0
 22 20  1  0  0  0  0
 23 20  1  0  0  0  0
 24 20  1  0  0  0  0
 25  1  1  0  0  0  0
 26 25  1  0  0  0  0
 26 27  1  0  0  0  0
 29 27  1  0  0  0  0
 29 31  1  0  0  0  0
 29 28  1  0  0  0  0
 30 29  2  0  0  0  0
 31 32  1  0  0  0  0
 32 41  1  0  0  0  0
 32 33  1  0  0  0  0
 33 35  1  0  0  0  0
 34 35  2  0  0  0  0
 35 37  1  0  0  0  0
 37 38  1  0  0  0  0
 37 36  1  0  0  0  0
 38 39  1  0  0  0  0
 38 40  1  0  0  0  0
 42 44  1  0  0  0  0
 42 41  1  0  0  0  0
 43 44  1  0  0  0  0
 44 46  1  0  0  0  0
 45 44  2  0  0  0  0
M  END
>  <MODEL>
1

>  <REMARK>
 VINA RESULT:      -6.1      0.000      0.000
  Name = 
  16 active torsions:
  status: ('A' for Active; 'I' for Inactive)
    1  A    between atoms: C_3  and  O_21
    2  A    between atoms: C_3  and  C_40
    3  A    between atoms: C_3  and  O_46
    4  A    between atoms: O_4  and  P_19
    5  A    between atoms: O_4  and  O_46
    6  A    between atoms: O_6  and  P_12
    7  A    between atoms: O_6  and  C_23
    8  A    between atoms: C_10  and  C_43
    9  A    between atoms: C_11  and  C_27
   10  A    between atoms: C_11  and  C_45
   11  A    between atoms: P_12  and  C_40
   12  A    between atoms: O_21  and  C_38
   13  A    between atoms: C_23  and  C_41
   14  A    between atoms: C_25  and  C_31
   15  A    between atoms: C_25  and  C_41
   16  A    between atoms: C_38  and  C_43
                            x       y       z     vdW  Elec       q    Type
                         _______ _______ _______ _____ _____    ______ ____

>  <TORSDO>
F 16

$$$$
=
 OpenBabel11062422523D

 46 49  0  0  1  0  0  0  0  0999 V2000
  192.2070  172.3880  143.0720 C   0  0  0  0  0  2  0  0  0  0  0  0
  194.4560  171.4920  143.4990 O   0  0  0  0  0  0  0  0  0  0  0  0
  195.2880  171.9330  145.4510 C   0  0  0  0  0  2  0  0  0  0  0  0
  194.9930  174.8640  143.9490 C   0  0  2  0  0  0  0  0  0  0  0  0
  193.6940  172.6680  143.2990 C   0  0  2  0  0  3  0  0  0  0  0  0
  194.3430  171.1500  144.7750 O   0  0  0  0  0  0  0  0  0  0  0  0
  193.9690  173.7830  144.3370 C   0  0  1  0  0  3  0  0  0  0  0  0
  196.0720  174.5640  145.4030 S   0  0  0  0  0  0  0  0  0  0  0  0
  194.7310  173.3420  145.5890 C   0  0  2  0  0  3  0  0  0  0  0  0
  192.8370  176.0510  142.1150 O   0  0  0  0  0  0  0  0  0  0  0  0
  191.2490  177.8050  143.7850 O   0  0  0  0  0  1  0  0  0  0  0  0
  194.7180  177.0150  146.2680 O   0  0  0  0  0  0  0  0  0  0  0  0
  192.5500  176.9090  145.4510 O   0  0  0  0  0  0  0  0  0  0  0  0
  193.9210  176.7430  145.3310 C   0  0  0  0  0  0  0  0  0  0  0  0
  191.8830  176.6440  144.2270 C   0  0  2  0  0  3  0  0  0  0  0  0
  193.0020  176.2910  143.3000 C   0  0  0  0  0  0  0  0  0  0  0  0
  194.3430  176.2800  143.9750 C   0  0  2  0  0  3  0  0  0  0  0  0
  196.2960  175.8520  141.9030 C   0  0  2  0  0  3  0  0  0  0  0  0
  196.9250  176.7140  142.8060 O   0  0  0  0  0  1  0  0  0  0  0  0
  197.7940  173.9660  141.4820 C   0  0  2  0  0  3  0  0  0  0  0  0
  195.7540  174.6140  142.6120 C   0  0  1  0  0  3  0  0  0  0  0  0
  197.3330  175.3120  140.9380 C   0  0  0  0  0  2  0  0  0  0  0  0
  197.6190  172.9870  140.5050 O   0  0  0  0  0  1  0  0  0  0  0  0
  196.9230  173.6470  142.6820 C   0  0  0  0  0  2  0  0  0  0  0  0
  191.8860  171.7810  141.7090 C   0  0  0  0  0  2  0  0  0  0  0  0
  190.5410  172.2570  141.1740 C   0  0  0  0  0  2  0  0  0  0  0  0
  190.5750  173.6320  140.9180 O   0  0  0  0  0  0  0  0  0  0  0  0
  188.1700  173.1680  141.8510 O   0  0  0  0  0  1  0  0  0  0  0  0
  188.9720  174.1720  141.0560 P   0  0  2  0  0  0  0  0  0  0  0  0
  188.3080  174.3040  139.5060 O   0  0  0  0  0  0  0  0  0  0  0  0
  188.9050  175.8040  141.8620 C   0  0  0  0  0  2  0  0  0  0  0  0
  187.8030  175.8370  142.9120 C   0  0  1  0  0  3  0  0  0  0  0  0
  188.0120  176.8940  143.8500 O   0  0  0  0  0  0  0  0  0  0  0  0
  186.2480  176.6730  145.3360 O   0  0  0  0  0  0  0  0  0  0  0  0
  187.4710  176.9080  145.1430 C   0  0  0  0  0  0  0  0  0  0  0  0
  187.4900  177.7120  147.4720 C   0  0  0  0  0  1  0  0  0  0  0  0
  188.3450  177.2290  146.3120 C   0  0  1  0  0  3  0  0  0  0  0  0
  189.1760  176.0140  146.7180 C   0  0  0  0  0  3  0  0  0  0  0  0
  188.3820  175.1010  147.4170 O   0  0  0  0  0  1  0  0  0  0  0  0
  190.2350  176.4120  147.5380 O   0  0  0  0  0  1  0  0  0  0  0  0
  186.5550  175.9750  142.2960 O   0  0  0  0  0  0  0  0  0  0  0  0
  186.7180  176.9350  141.4090 O   0  0  0  0  0  0  0  0  0  0  0  0
  186.2530  179.3740  142.6180 O   0  0  0  0  0  1  0  0  0  0  0  0
  185.5340  178.0920  141.7810 P   0  0  0  0  0  0  0  0  0  0  0  0
  184.8410  178.6790  140.3540 O   0  0  0  0  0  0  0  0  0  0  0  0
  184.4590  177.4730  142.6460 O   0  0  0  0  0  1  0  0  0  0  0  0
  2  6  1  0  0  0  0
  3  9  1  0  0  0  0
  4 17  1  0  0  0  0
  4  7  1  0  0  0  0
  4  8  1  1  0  0  0
  5  1  1  1  0  0  0
  5  2  1  0  0  0  0
  5  7  1  0  0  0  0
  6  3  1  0  0  0  0
  7  9  1  0  0  0  0
  8  9  1  0  0  0  0
 10 16  2  0  0  0  0
 11 15  1  0  0  0  0
 14 13  1  0  0  0  0
 14 12  2  0  0  0  0
 15 13  1  0  0  0  0
 16 17  1  0  0  0  0
 16 15  1  0  0  0  0
 17 14  1  0  0  0  0
 18 21  1  0  0  0  0
 18 19  1  0  0  0  0
 20 24  1  0  0  0  0
 21 24  1  0  0  0  0
 21  4  1  0  0  0  0
 22 20  1  0  0  0  0
 22 18  1  0  0  0  0
 23 20  1  0  0  0  0
 25  1  1  0  0  0  0
 26 25  1  0  0  0  0
 27 29  1  0  0  0  0
 27 26  1  0  0  0  0
 29 28  1  0  0  0  0
 29 31  1  0  0  0  0
 30 29  2  0  0  0  0
 31 32  1  0  0  0  0
 32 33  1  0  0  0  0
 33 35  1  0  0  0  0
 35 34  2  0  0  0  0
 35 37  1  0  0  0  0
 37 38  1  0  0  0  0
 37 36  1  0  0  0  0
 38 39  1  0  0  0  0
 38 40  1  0  0  0  0
 41 32  1  0  0  0  0
 42 44  1  0  0  0  0
 42 41  1  0  0  0  0
 44 43  1  0  0  0  0
 44 46  1  0  0  0  0
 45 44  2  0  0  0  0
M  END
>  <MODEL>
2

>  <REMARK>
 VINA RESULT:      -6.0      1.570      3.056
  Name = 
  16 active torsions:
  status: ('A' for Active; 'I' for Inactive)
    1  A    between atoms: C_3  and  O_21
    2  A    between atoms: C_3  and  C_40
    3  A    between atoms: C_3  and  O_46
    4  A    between atoms: O_4  and  P_19
    5  A    between atoms: O_4  and  O_46
    6  A    between atoms: O_6  and  P_12
    7  A    between atoms: O_6  and  C_23
    8  A    between atoms: C_10  and  C_43
    9  A    between atoms: C_11  and  C_27
   10  A    between atoms: C_11  and  C_45
   11  A    between atoms: P_12  and  C_40
   12  A    between atoms: O_21  and  C_38
   13  A    between atoms: C_23  and  C_41
   14  A    between atoms: C_25  and  C_31
   15  A    between atoms: C_25  and  C_41
   16  A    between atoms: C_38  and  C_43
                            x       y       z     vdW  Elec       q    Type
                         _______ _______ _______ _____ _____    ______ ____

>  <TORSDO>
F 16

$$$$
=
 OpenBabel11062422523D

 46 49  0  0  1  0  0  0  0  0999 V2000
  193.8930  176.7170  144.9030 C   0  0  0  0  0  2  0  0  0  0  0  0
  196.1260  176.1080  144.0730 O   0  0  0  0  0  0  0  0  0  0  0  0
  196.3650  176.1300  141.9190 C   0  0  0  0  0  2  0  0  0  0  0  0
  194.1750  173.7270  142.5270 C   0  0  2  0  0  0  0  0  0  0  0  0
  194.7690  175.7100  144.1540 C   0  0  2  0  0  3  0  0  0  0  0  0
  196.2420  176.9450  143.0520 O   0  0  0  0  0  0  0  0  0  0  0  0
  194.1680  175.2400  142.8060 C   0  0  1  0  0  3  0  0  0  0  0  0
  195.1200  173.8780  140.9600 S   0  0  0  0  0  0  0  0  0  0  0  0
  194.9860  175.5940  141.5630 C   0  0  2  0  0  3  0  0  0  0  0  0
  191.9240  173.2720  144.5630 O   0  0  0  0  0  0  0  0  0  0  0  0
  189.4580  173.8890  143.1740 O   0  0  0  0  0  1  0  0  0  0  0  0
  192.3390  173.6610  139.9380 O   0  0  0  0  0  0  0  0  0  0  0  0
  190.9050  174.5610  141.5220 O   0  0  0  0  0  0  0  0  0  0  0  0
  192.0150  173.8220  141.1440 C   0  0  0  0  0  0  0  0  0  0  0  0
  190.6870  174.4990  142.9230 C   0  0  2  0  0  3  0  0  0  0  0  0
  191.7990  173.6190  143.3990 C   0  0  0  0  0  0  0  0  0  0  0  0
  192.7290  173.1970  142.2980 C   0  0  2  0  0  3  0  0  0  0  0  0
  194.4710  171.4140  143.7190 C   0  0  2  0  0  3  0  0  0  0  0  0
  194.2700  170.8210  142.4690 O   0  0  0  0  0  1  0  0  0  0  0  0
  196.8780  171.5220  144.1310 C   0  0  2  0  0  3  0  0  0  0  0  0
  194.9390  172.8580  143.5720 C   0  0  1  0  0  3  0  0  0  0  0  0
  195.6200  170.7110  144.4150 C   0  0  0  0  0  2  0  0  0  0  0  0
  197.4850  171.8730  145.3370 O   0  0  0  0  0  1  0  0  0  0  0  0
  196.4450  172.7770  143.3980 C   0  0  0  0  0  2  0  0  0  0  0  0
  194.0970  176.7160  146.4160 C   0  0  0  0  0  2  0  0  0  0  0  0
  192.8190  176.3560  147.1640 C   0  0  0  0  0  2  0  0  0  0  0  0
  191.9350  175.6740  146.3220 O   0  0  0  0  0  0  0  0  0  0  0  0
  190.4500  177.1870  147.8640 O   0  0  0  0  0  1  0  0  0  0  0  0
  190.4040  176.3490  146.6080 P   0  0  2  0  0  0  0  0  0  0  0  0
  189.2880  175.0950  146.8230 O   0  0  0  0  0  0  0  0  0  0  0  0
  189.8720  177.3690  145.1960 C   0  0  0  0  0  2  0  0  0  0  0  0
  188.3900  177.1610  144.9130 C   0  0  1  0  0  3  0  0  0  0  0  0
  187.5780  177.8610  145.8580 O   0  0  0  0  0  0  0  0  0  0  0  0
  186.5250  176.5770  147.4740 O   0  0  0  0  0  0  0  0  0  0  0  0
  186.4340  177.3170  146.4580 C   0  0  0  0  0  0  0  0  0  0  0  0
  184.2190  178.2990  146.9050 C   0  0  0  0  0  1  0  0  0  0  0  0
  185.0860  177.5930  145.8760 C   0  0  1  0  0  3  0  0  0  0  0  0
  185.2040  178.4250  144.6010 C   0  0  0  0  0  3  0  0  0  0  0  0
  185.0140  179.7780  144.8920 O   0  0  0  0  0  1  0  0  0  0  0  0
  184.2400  178.0210  143.6750 O   0  0  0  0  0  1  0  0  0  0  0  0
  188.0850  177.5740  143.6130 O   0  0  0  0  0  0  0  0  0  0  0  0
  187.5900  176.5050  143.0240 O   0  0  0  0  0  0  0  0  0  0  0  0
  187.9360  175.5730  140.4470 O   0  0  0  0  0  0  0  0  0  0  0  0
  187.4830  176.9100  141.3790 P   0  0  0  0  0  0  0  0  0  0  0  0
  185.8920  177.3400  141.0000 O   0  0  0  0  0  1  0  0  0  0  0  0
  188.4060  178.0680  141.0710 O   0  0  0  0  0  1  0  0  0  0  0  0
  1 25  1  0  0  0  0
  2  5  1  0  0  0  0
  3  6  1  0  0  0  0
  4  8  1  6  0  0  0
  4  7  1  0  0  0  0
  4 21  1  0  0  0  0
  5  1  1  6  0  0  0
  6  2  1  0  0  0  0
  7  5  1  0  0  0  0
  8  9  1  0  0  0  0
  9  3  1  0  0  0  0
  9  7  1  0  0  0  0
 12 14  2  0  0  0  0
 13 15  1  0  0  0  0
 14 13  1  0  0  0  0
 14 17  1  0  0  0  0
 15 11  1  0  0  0  0
 15 16  1  0  0  0  0
 16 10  2  0  0  0  0
 17  4  1  0  0  0  0
 17 16  1  0  0  0  0
 18 22  1  0  0  0  0
 19 18  1  0  0  0  0
 20 22  1  0  0  0  0
 20 23  1  0  0  0  0
 21 18  1  0  0  0  0
 24 21  1  0  0  0  0
 24 20  1  0  0  0  0
 25 26  1  0  0  0  0
 27 29  1  0  0  0  0
 27 26  1  0  0  0  0
 29 30  2  0  0  0  0
 29 28  1  0  0  0  0
 31 29  1  0  0  0  0
 32 31  1  0  0  0  0
 32 33  1  0  0  0  0
 33 35  1  0  0  0  0
 35 34  2  0  0  0  0
 37 35  1  0  0  0  0
 37 36  1  0  0  0  0
 38 39  1  0  0  0  0
 38 37  1  0  0  0  0
 40 38  1  0  0  0  0
 41 32  1  0  0  0  0
 42 41  1  0  0  0  0
 43 44  2  0  0  0  0
 44 42  1  0  0  0  0
 45 44  1  0  0  0  0
 46 44  1  0  0  0  0
M  END
>  <MODEL>
3

>  <REMARK>
 VINA RESULT:      -6.0      2.351      4.941
  Name = 
  16 active torsions:
  status: ('A' for Active; 'I' for Inactive)
    1  A    between atoms: C_3  and  O_21
    2  A    between atoms: C_3  and  C_40
    3  A    between atoms: C_3  and  O_46
    4  A    between atoms: O_4  and  P_19
    5  A    between atoms: O_4  and  O_46
    6  A    between atoms: O_6  and  P_12
    7  A    between atoms: O_6  and  C_23
    8  A    between atoms: C_10  and  C_43
    9  A    between atoms: C_11  and  C_27
   10  A    between atoms: C_11  and  C_45
   11  A    between atoms: P_12  and  C_40
   12  A    between atoms: O_21  and  C_38
   13  A    between atoms: C_23  and  C_41
   14  A    between atoms: C_25  and  C_31
   15  A    between atoms: C_25  and  C_41
   16  A    between atoms: C_38  and  C_43
                            x       y       z     vdW  Elec       q    Type
                         _______ _______ _______ _____ _____    ______ ____

>  <TORSDO>
F 16

$$$$
=
 OpenBabel11062422523D

 46 49  0  0  1  0  0  0  0  0999 V2000
  194.4130  174.7140  145.5080 C   0  0  0  0  0  2  0  0  0  0  0  0
  196.6460  173.7230  145.7840 O   0  0  0  0  0  0  0  0  0  0  0  0
  197.8260  173.5490  143.9740 C   0  0  0  0  0  2  0  0  0  0  0  0
  195.2320  171.5460  143.5190 C   0  0  2  0  0  0  0  0  0  0  0  0
  195.3530  173.5370  145.2380 C   0  0  2  0  0  3  0  0  0  0  0  0
  197.3440  174.4560  144.9270 O   0  0  0  0  0  0  0  0  0  0  0  0
  195.3510  173.0610  143.7650 C   0  0  1  0  0  3  0  0  0  0  0  0
  196.7900  171.4390  142.5520 S   0  0  0  0  0  0  0  0  0  0  0  0
  196.6850  173.1970  143.0290 C   0  0  2  0  0  3  0  0  0  0  0  0
  192.2600  171.8030  144.2360 O   0  0  0  0  0  0  0  0  0  0  0  0
  190.9120  172.5550  141.7860 O   0  0  0  0  0  1  0  0  0  0  0  0
  194.8290  171.3330  140.3770 O   0  0  0  0  0  0  0  0  0  0  0  0
  193.0630  172.7030  140.9970 O   0  0  0  0  0  0  0  0  0  0  0  0
  194.0300  171.7450  141.2600 C   0  0  0  0  0  0  0  0  0  0  0  0
  192.2180  172.9130  142.1170 C   0  0  2  0  0  3  0  0  0  0  0  0
  192.7630  171.9630  143.1360 C   0  0  0  0  0  0  0  0  0  0  0  0
  193.9770  171.2200  142.6570 C   0  0  2  0  0  3  0  0  0  0  0  0
  194.5420  169.3280  144.7280 C   0  0  2  0  0  3  0  0  0  0  0  0
  194.7920  168.6720  143.5190 O   0  0  0  0  0  1  0  0  0  0  0  0
  196.5090  169.0660  146.1560 C   0  0  2  0  0  3  0  0  0  0  0  0
  195.2910  170.6550  144.7970 C   0  0  1  0  0  3  0  0  0  0  0  0
  195.1240  168.5060  145.8610 C   0  0  0  0  0  2  0  0  0  0  0  0
  196.5900  169.4120  147.5050 O   0  0  0  0  0  1  0  0  0  0  0  0
  196.6810  170.3070  145.3020 C   0  0  0  0  0  2  0  0  0  0  0  0
  193.0950  174.3220  146.1720 C   0  0  0  0  0  2  0  0  0  0  0  0
  191.9310  175.1690  145.6740 C   0  0  0  0  0  2  0  0  0  0  0  0
  191.9960  176.4570  146.2140 O   0  0  0  0  0  0  0  0  0  0  0  0
  191.5270  176.9100  148.7530 O   0  0  0  0  0  1  0  0  0  0  0  0
  190.8510  176.4970  147.4660 P   0  0  2  0  0  0  0  0  0  0  0  0
  190.2020  174.9460  147.6590 O   0  0  0  0  0  0  0  0  0  0  0  0
  189.4990  177.6520  147.0720 C   0  0  0  0  0  2  0  0  0  0  0  0
  188.4230  176.9560  146.2500 C   0  0  1  0  0  3  0  0  0  0  0  0
  187.2510  177.7650  146.1390 O   0  0  0  0  0  0  0  0  0  0  0  0
  185.2100  176.6700  146.1630 O   0  0  0  0  0  0  0  0  0  0  0  0
  186.0650  177.3400  145.5250 C   0  0  0  0  0  0  0  0  0  0  0  0
  185.9870  176.4080  143.2450 C   0  0  0  0  0  1  0  0  0  0  0  0
  185.8140  177.6620  144.0870 C   0  0  1  0  0  3  0  0  0  0  0  0
  184.4210  178.2570  143.8990 C   0  0  0  0  0  3  0  0  0  0  0  0
  184.0600  178.2120  142.5500 O   0  0  0  0  0  1  0  0  0  0  0  0
  184.4060  179.5860  144.3270 O   0  0  0  0  0  1  0  0  0  0  0  0
  188.9150  176.6390  144.9810 O   0  0  0  0  0  0  0  0  0  0  0  0
  189.3280  177.7850  144.4800 O   0  0  0  0  0  0  0  0  0  0  0  0
  191.5280  177.7820  142.8120 O   0  0  0  0  0  1  0  0  0  0  0  0
  189.8800  177.4170  142.9180 P   0  0  0  0  0  0  0  0  0  0  0  0
  189.6520  175.7710  142.6050 O   0  0  0  0  0  1  0  0  0  0  0  0
  189.1230  178.2350  141.8960 O   0  0  0  0  0  0  0  0  0  0  0  0
  1 25  1  0  0  0  0
  3  6  1  0  0  0  0
  4  8  1  6  0  0  0
  4  7  1  0  0  0  0
  4 21  1  0  0  0  0
  5  1  1  6  0  0  0
  5  2  1  0  0  0  0
  6  2  1  0  0  0  0
  7  5  1  0  0  0  0
  8  9  1  0  0  0  0
  9  7  1  0  0  0  0
  9  3  1  0  0  0  0
 11 15  1  0  0  0  0
 12 14  2  0  0  0  0
 13 14  1  0  0  0  0
 13 15  1  0  0  0  0
 14 17  1  0  0  0  0
 15 16  1  0  0  0  0
 16 10  2  0  0  0  0
 17 16  1  0  0  0  0
 17  4  1  0  0  0  0
 18 21  1  0  0  0  0
 18 22  1  0  0  0  0
 19 18  1  0  0  0  0
 20 23  1  0  0  0  0
 21 24  1  0  0  0  0
 22 20  1  0  0  0  0
 24 20  1  0  0  0  0
 26 25  1  0  0  0  0
 26 27  1  0  0  0  0
 27 29  1  0  0  0  0
 29 30  2  0  0  0  0
 29 28  1  0  0  0  0
 31 29  1  0  0  0  0
 32 31  1  0  0  0  0
 33 32  1  0  0  0  0
 35 33  1  0  0  0  0
 35 34  2  0  0  0  0
 36 37  1  0  0  0  0
 37 35  1  0  0  0  0
 38 37  1  0  0  0  0
 38 40  1  0  0  0  0
 39 38  1  0  0  0  0
 41 32  1  0  0  0  0
 42 41  1  0  0  0  0
 43 44  1  0  0  0  0
 44 42  1  0  0  0  0
 45 44  1  0  0  0  0
 46 44  2  0  0  0  0
M  END
>  <MODEL>
4

>  <REMARK>
 VINA RESULT:      -5.7      2.326      5.185
  Name = 
  16 active torsions:
  status: ('A' for Active; 'I' for Inactive)
    1  A    between atoms: C_3  and  O_21
    2  A    between atoms: C_3  and  C_40
    3  A    between atoms: C_3  and  O_46
    4  A    between atoms: O_4  and  P_19
    5  A    between atoms: O_4  and  O_46
    6  A    between atoms: O_6  and  P_12
    7  A    between atoms: O_6  and  C_23
    8  A    between atoms: C_10  and  C_43
    9  A    between atoms: C_11  and  C_27
   10  A    between atoms: C_11  and  C_45
   11  A    between atoms: P_12  and  C_40
   12  A    between atoms: O_21  and  C_38
   13  A    between atoms: C_23  and  C_41
   14  A    between atoms: C_25  and  C_31
   15  A    between atoms: C_25  and  C_41
   16  A    between atoms: C_38  and  C_43
                            x       y       z     vdW  Elec       q    Type
                         _______ _______ _______ _____ _____    ______ ____

>  <TORSDO>
F 16

$$$$
=
 OpenBabel11062422523D

 46 49  0  0  1  0  0  0  0  0999 V2000
  194.5890  174.8020  145.6700 C   0  0  0  0  0  2  0  0  0  0  0  0
  196.7620  173.6930  145.9740 O   0  0  0  0  0  0  0  0  0  0  0  0
  197.9410  173.4280  144.1740 C   0  0  0  0  0  2  0  0  0  0  0  0
  195.2440  171.5660  143.7310 C   0  0  2  0  0  0  0  0  0  0  0  0
  195.4640  173.5710  145.4230 C   0  0  2  0  0  3  0  0  0  0  0  0
  197.5050  174.3740  145.1110 O   0  0  0  0  0  0  0  0  0  0  0  0
  195.4450  173.0740  143.9560 C   0  0  1  0  0  3  0  0  0  0  0  0
  196.7990  171.3590  142.7750 S   0  0  0  0  0  0  0  0  0  0  0  0
  196.7890  173.1260  143.2270 C   0  0  2  0  0  3  0  0  0  0  0  0
  192.3110  172.2610  144.3060 O   0  0  0  0  0  0  0  0  0  0  0  0
  191.1220  172.8840  141.7390 O   0  0  0  0  0  1  0  0  0  0  0  0
  194.8880  171.0440  140.6190 O   0  0  0  0  0  0  0  0  0  0  0  0
  193.2930  172.6790  141.0180 O   0  0  0  0  0  0  0  0  0  0  0  0
  194.1270  171.6480  141.4210 C   0  0  0  0  0  0  0  0  0  0  0  0
  192.4560  173.1170  142.0760 C   0  0  2  0  0  3  0  0  0  0  0  0
  192.8550  172.2310  143.2130 C   0  0  0  0  0  0  0  0  0  0  0  0
  193.9780  171.2970  142.8650 C   0  0  2  0  0  3  0  0  0  0  0  0
  194.3280  169.4730  145.0110 C   0  0  2  0  0  3  0  0  0  0  0  0
  194.4320  168.7740  143.8040 O   0  0  0  0  0  1  0  0  0  0  0  0
  196.3090  168.9720  146.3540 C   0  0  2  0  0  3  0  0  0  0  0  0
  195.2460  170.6910  145.0210 C   0  0  1  0  0  3  0  0  0  0  0  0
  194.8490  168.5960  146.1320 C   0  0  0  0  0  2  0  0  0  0  0  0
  196.4980  169.3230  147.6900 O   0  0  0  0  0  1  0  0  0  0  0  0
  196.6000  170.1700  145.4700 C   0  0  0  0  0  2  0  0  0  0  0  0
  193.3080  174.5110  146.4480 C   0  0  0  0  0  2  0  0  0  0  0  0
  192.3010  175.6490  146.3350 C   0  0  0  0  0  2  0  0  0  0  0  0
  192.6980  176.5580  145.3490 O   0  0  0  0  0  0  0  0  0  0  0  0
  190.7260  175.2050  144.2770 O   0  0  0  0  0  1  0  0  0  0  0  0
  191.5020  176.4950  144.1470 P   0  0  2  0  0  0  0  0  0  0  0  0
  192.2510  176.5380  142.6310 O   0  0  0  0  0  0  0  0  0  0  0  0
  190.3730  177.9180  144.2810 C   0  0  0  0  0  2  0  0  0  0  0  0
  188.9370  177.4470  144.4720 C   0  0  1  0  0  3  0  0  0  0  0  0
  188.4570  177.7610  145.7800 O   0  0  0  0  0  0  0  0  0  0  0  0
  187.9580  175.7060  146.7250 O   0  0  0  0  0  0  0  0  0  0  0  0
  187.6390  176.9100  146.5360 C   0  0  0  0  0  0  0  0  0  0  0  0
  186.6360  178.6410  147.9750 C   0  0  0  0  0  1  0  0  0  0  0  0
  186.3580  177.4240  147.1090 C   0  0  1  0  0  3  0  0  0  0  0  0
  185.3640  177.7600  146.0000 C   0  0  0  0  0  3  0  0  0  0  0  0
  185.6030  179.0490  145.5170 O   0  0  0  0  0  1  0  0  0  0  0  0
  184.0590  177.6970  146.4920 O   0  0  0  0  0  1  0  0  0  0  0  0
  188.1100  178.0200  143.5010 O   0  0  0  0  0  0  0  0  0  0  0  0
  188.6210  177.6370  142.3490 O   0  0  0  0  0  0  0  0  0  0  0  0
  186.1900  176.3960  142.7660 O   0  0  0  0  0  1  0  0  0  0  0  0
  187.4780  176.5730  141.6850 P   0  0  0  0  0  0  0  0  0  0  0  0
  186.8970  177.1980  140.2240 O   0  0  0  0  0  0  0  0  0  0  0  0
  188.1110  175.2210  141.4390 O   0  0  0  0  0  1  0  0  0  0  0  0
  1 25  1  0  0  0  0
  3  6  1  0  0  0  0
  4  8  1  6  0  0  0
  4  7  1  0  0  0  0
  4 21  1  0  0  0  0
  5  1  1  6  0  0  0
  5  2  1  0  0  0  0
  6  2  1  0  0  0  0
  7  5  1  0  0  0  0
  8  9  1  0  0  0  0
  9  7  1  0  0  0  0
  9  3  1  0  0  0  0
 11 15  1  0  0  0  0
 12 14  2  0  0  0  0
 13 14  1  0  0  0  0
 13 15  1  0  0  0  0
 14 17  1  0  0  0  0
 15 16  1  0  0  0  0
 16 10  2  0  0  0  0
 17 16  1  0  0  0  0
 17  4  1  0  0  0  0
 18 21  1  0  0  0  0
 18 22  1  0  0  0  0
 19 18  1  0  0  0  0
 20 23  1  0  0  0  0
 21 24  1  0  0  0  0
 22 20  1  0  0  0  0
 24 20  1  0  0  0  0
 26 25  1  0  0  0  0
 27 26  1  0  0  0  0
 29 28  1  0  0  0  0
 29 31  1  0  0  0  0
 29 27  1  0  0  0  0
 30 29  2  0  0  0  0
 31 32  1  0  0  0  0
 32 33  1  0  0  0  0
 33 35  1  0  0  0  0
 35 34  2  0  0  0  0
 35 37  1  0  0  0  0
 37 36  1  0  0  0  0
 38 40  1  0  0  0  0
 38 37  1  0  0  0  0
 39 38  1  0  0  0  0
 41 32  1  0  0  0  0
 42 41  1  0  0  0  0
 44 42  1  0  0  0  0
 44 43  1  0  0  0  0
 45 44  2  0  0  0  0
 46 44  1  0  0  0  0
M  END
>  <MODEL>
5

>  <REMARK>
 VINA RESULT:      -5.7      2.173      4.456
  Name = 
  16 active torsions:
  status: ('A' for Active; 'I' for Inactive)
    1  A    between atoms: C_3  and  O_21
    2  A    between atoms: C_3  and  C_40
    3  A    between atoms: C_3  and  O_46
    4  A    between atoms: O_4  and  P_19
    5  A    between atoms: O_4  and  O_46
    6  A    between atoms: O_6  and  P_12
    7  A    between atoms: O_6  and  C_23
    8  A    between atoms: C_10  and  C_43
    9  A    between atoms: C_11  and  C_27
   10  A    between atoms: C_11  and  C_45
   11  A    between atoms: P_12  and  C_40
   12  A    between atoms: O_21  and  C_38
   13  A    between atoms: C_23  and  C_41
   14  A    between atoms: C_25  and  C_31
   15  A    between atoms: C_25  and  C_41
   16  A    between atoms: C_38  and  C_43
                            x       y       z     vdW  Elec       q    Type
                         _______ _______ _______ _____ _____    ______ ____

>  <TORSDO>
F 16

$$$$
=
 OpenBabel11062422523D

 46 49  0  0  1  0  0  0  0  0999 V2000
  192.8120  172.0650  144.6400 C   0  0  0  0  0  2  0  0  0  0  0  0
  194.2740  170.8870  143.0530 O   0  0  0  0  0  0  0  0  0  0  0  0
  196.3930  171.3000  143.2430 C   0  0  0  0  0  2  0  0  0  0  0  0
  195.0250  174.1700  142.3300 C   0  0  2  0  0  0  0  0  0  0  0  0
  193.7550  172.1470  143.4370 C   0  0  2  0  0  3  0  0  0  0  0  0
  195.3160  170.6250  143.8310 O   0  0  0  0  0  0  0  0  0  0  0  0
  194.8230  173.2610  143.5550 C   0  0  1  0  0  3  0  0  0  0  0  0
  196.8150  173.7920  142.1690 S   0  0  0  0  0  0  0  0  0  0  0  0
  196.2750  172.7780  143.5860 C   0  0  2  0  0  3  0  0  0  0  0  0
  192.3850  175.5710  143.0260 O   0  0  0  0  0  0  0  0  0  0  0  0
  193.0510  177.5910  144.9920 O   0  0  0  0  0  1  0  0  0  0  0  0
  196.9440  176.4260  143.4740 O   0  0  0  0  0  0  0  0  0  0  0  0
  195.1140  176.5880  144.8880 O   0  0  0  0  0  0  0  0  0  0  0  0
  195.7190  176.2300  143.6940 C   0  0  0  0  0  0  0  0  0  0  0  0
  193.7120  176.3720  144.8490 C   0  0  2  0  0  3  0  0  0  0  0  0
  193.4910  175.8320  143.4720 C   0  0  0  0  0  0  0  0  0  0  0  0
  194.7650  175.6610  142.6950 C   0  0  2  0  0  3  0  0  0  0  0  0
  193.9230  174.8680  140.0590 C   0  0  2  0  0  3  0  0  0  0  0  0
  195.0420  175.6790  139.8440 O   0  0  0  0  0  1  0  0  0  0  0  0
  194.2520  172.7770  138.8370 C   0  0  2  0  0  3  0  0  0  0  0  0
  194.2360  173.7530  141.0510 C   0  0  1  0  0  3  0  0  0  0  0  0
  193.5870  174.1450  138.7700 C   0  0  0  0  0  2  0  0  0  0  0  0
  193.2910  171.7840  138.6440 O   0  0  0  0  0  1  0  0  0  0  0  0
  194.8520  172.6380  140.2230 C   0  0  0  0  0  2  0  0  0  0  0  0
  191.4130  172.6170  144.3750 C   0  0  0  0  0  2  0  0  0  0  0  0
  190.9630  172.3680  142.9410 C   0  0  0  0  0  2  0  0  0  0  0  0
  189.5770  172.5180  142.8300 O   0  0  0  0  0  0  0  0  0  0  0  0
  188.1830  172.8280  140.6320 O   0  0  0  0  0  1  0  0  0  0  0  0
  189.3180  173.4340  141.4250 P   0  0  2  0  0  0  0  0  0  0  0  0
  190.7250  173.4010  140.4870 O   0  0  0  0  0  0  0  0  0  0  0  0
  188.9330  175.1650  141.8410 C   0  0  0  0  0  2  0  0  0  0  0  0
  188.4740  175.2780  143.2890 C   0  0  1  0  0  3  0  0  0  0  0  0
  189.5410  175.7010  144.1400 O   0  0  0  0  0  0  0  0  0  0  0  0
  189.5620  177.9550  144.6720 O   0  0  0  0  0  0  0  0  0  0  0  0
  189.4380  176.7600  145.0520 C   0  0  0  0  0  0  0  0  0  0  0  0
  187.7120  176.4450  146.7810 C   0  0  0  0  0  1  0  0  0  0  0  0
  189.2050  176.4750  146.5000 C   0  0  1  0  0  3  0  0  0  0  0  0
  189.8620  175.1590  146.9080 C   0  0  0  0  0  3  0  0  0  0  0  0
  188.9530  174.3680  147.6140 O   0  0  0  0  0  1  0  0  0  0  0  0
  190.9700  175.4100  147.7210 O   0  0  0  0  0  1  0  0  0  0  0  0
  187.3970  176.1640  143.3850 O   0  0  0  0  0  0  0  0  0  0  0  0
  186.7460  176.0320  142.2470 O   0  0  0  0  0  0  0  0  0  0  0  0
  187.0160  178.7630  142.5560 O   0  0  0  0  0  1  0  0  0  0  0  0
  186.0050  177.5350  141.9800 P   0  0  0  0  0  0  0  0  0  0  0  0
  185.7470  177.7580  140.3230 O   0  0  0  0  0  0  0  0  0  0  0  0
  184.6820  177.5970  142.7090 O   0  0  0  0  0  1  0  0  0  0  0  0
  2  5  1  0  0  0  0
  2  6  1  0  0  0  0
  3  9  1  0  0  0  0
  3  6  1  0  0  0  0
  4  8  1  6  0  0  0
  4 17  1  0  0  0  0
  4  7  1  0  0  0  0
  5  7  1  0  0  0  0
  5  1  1  1  0  0  0
  7  9  1  0  0  0  0
  8  9  1  0  0  0  0
 10 16  2  0  0  0  0
 12 14  2  0  0  0  0
 14 13  1  0  0  0  0
 15 13  1  0  0  0  0
 15 11  1  0  0  0  0
 16 15  1  0  0  0  0
 17 16  1  0  0  0  0
 17 14  1  0  0  0  0
 18 21  1  0  0  0  0
 19 18  1  0  0  0  0
 20 24  1  0  0  0  0
 21  4  1  0  0  0  0
 22 20  1  0  0  0  0
 22 18  1  0  0  0  0
 23 20  1  0  0  0  0
 24 21  1  0  0  0  0
 25  1  1  0  0  0  0
 26 25  1  0  0  0  0
 27 26  1  0  0  0  0
 28 29  1  0  0  0  0
 29 31  1  0  0  0  0
 29 27  1  0  0  0  0
 30 29  2  0  0  0  0
 31 32  1  0  0  0  0
 32 41  1  0  0  0  0
 32 33  1  0  0  0  0
 33 35  1  0  0  0  0
 34 35  2  0  0  0  0
 35 37  1  0  0  0  0
 37 36  1  0  0  0  0
 37 38  1  0  0  0  0
 38 39  1  0  0  0  0
 38 40  1  0  0  0  0
 42 41  1  0  0  0  0
 44 42  1  0  0  0  0
 44 43  1  0  0  0  0
 44 46  1  0  0  0  0
 45 44  2  0  0  0  0
M  END
>  <MODEL>
6

>  <REMARK>
 VINA RESULT:      -5.6      1.900      3.623
  Name = 
  16 active torsions:
  status: ('A' for Active; 'I' for Inactive)
    1  A    between atoms: C_3  and  O_21
    2  A    between atoms: C_3  and  C_40
    3  A    between atoms: C_3  and  O_46
    4  A    between atoms: O_4  and  P_19
    5  A    between atoms: O_4  and  O_46
    6  A    between atoms: O_6  and  P_12
    7  A    between atoms: O_6  and  C_23
    8  A    between atoms: C_10  and  C_43
    9  A    between atoms: C_11  and  C_27
   10  A    between atoms: C_11  and  C_45
   11  A    between atoms: P_12  and  C_40
   12  A    between atoms: O_21  and  C_38
   13  A    between atoms: C_23  and  C_41
   14  A    between atoms: C_25  and  C_31
   15  A    between atoms: C_25  and  C_41
   16  A    between atoms: C_38  and  C_43
                            x       y       z     vdW  Elec       q    Type
                         _______ _______ _______ _____ _____    ______ ____

>  <TORSDO>
F 16

$$$$
=
 OpenBabel11062422523D

 46 49  0  0  1  0  0  0  0  0999 V2000
  191.4290  172.6570  144.2100 C   0  0  0  0  0  2  0  0  0  0  0  0
  192.6470  170.6870  143.3850 O   0  0  0  0  0  0  0  0  0  0  0  0
  194.1960  169.9240  144.6950 C   0  0  0  0  0  2  0  0  0  0  0  0
  195.2250  172.9350  143.7930 C   0  0  2  0  0  0  0  0  0  0  0  0
  192.7420  172.0670  143.6900 C   0  0  2  0  0  3  0  0  0  0  0  0
  192.8100  170.0110  144.5140 O   0  0  0  0  0  0  0  0  0  0  0  0
  193.9770  172.4410  144.5450 C   0  0  1  0  0  3  0  0  0  0  0  0
  196.3280  171.6420  144.4870 S   0  0  0  0  0  0  0  0  0  0  0  0
  194.6970  171.2660  145.2100 C   0  0  2  0  0  3  0  0  0  0  0  0
  193.8790  175.6250  143.1850 O   0  0  0  0  0  0  0  0  0  0  0  0
  194.2210  177.2420  145.5640 O   0  0  0  0  0  1  0  0  0  0  0  0
  196.9550  173.9460  146.2560 O   0  0  0  0  0  0  0  0  0  0  0  0
  195.0680  175.2840  146.4130 O   0  0  0  0  0  0  0  0  0  0  0  0
  195.9510  174.4780  145.7120 C   0  0  0  0  0  0  0  0  0  0  0  0
  194.0900  175.8530  145.5570 C   0  0  2  0  0  3  0  0  0  0  0  0
  194.4600  175.3140  144.2130 C   0  0  0  0  0  0  0  0  0  0  0  0
  195.6240  174.3670  144.2590 C   0  0  2  0  0  3  0  0  0  0  0  0
  196.0240  173.8230  141.4620 C   0  0  2  0  0  3  0  0  0  0  0  0
  197.3120  173.8820  142.0030 O   0  0  0  0  0  1  0  0  0  0  0  0
  195.8260  171.7420  140.1940 C   0  0  2  0  0  3  0  0  0  0  0  0
  195.1470  172.8450  142.2380 C   0  0  1  0  0  3  0  0  0  0  0  0
  196.1040  173.2350  140.0670 C   0  0  0  0  0  2  0  0  0  0  0  0
  194.7680  171.3960  139.3540 O   0  0  0  0  0  1  0  0  0  0  0  0
  195.4350  171.4810  141.6360 C   0  0  0  0  0  2  0  0  0  0  0  0
  191.6090  173.8160  145.1860 C   0  0  0  0  0  2  0  0  0  0  0  0
  190.5330  174.8810  145.0130 C   0  0  0  0  0  2  0  0  0  0  0  0
  190.6370  175.4800  143.7530 O   0  0  0  0  0  0  0  0  0  0  0  0
  191.1380  178.0530  143.8150 O   0  0  0  0  0  0  0  0  0  0  0  0
  190.0140  177.0490  143.9300 P   0  0  2  0  0  0  0  0  0  0  0  0
  189.3090  177.1850  145.4610 O   0  0  0  0  0  1  0  0  0  0  0  0
  188.7440  177.3880  142.6690 C   0  0  0  0  0  2  0  0  0  0  0  0
  187.4690  176.6100  142.9700 C   0  0  1  0  0  3  0  0  0  0  0  0
  186.3260  177.2470  142.3970 O   0  0  0  0  0  0  0  0  0  0  0  0
  184.1300  177.8900  142.7590 O   0  0  0  0  0  0  0  0  0  0  0  0
  185.3280  177.8810  143.1500 C   0  0  0  0  0  0  0  0  0  0  0  0
  185.5180  180.0800  144.2450 C   0  0  0  0  0  1  0  0  0  0  0  0
  185.6850  178.5800  144.4210 C   0  0  1  0  0  3  0  0  0  0  0  0
  184.8310  178.0700  145.5800 C   0  0  0  0  0  3  0  0  0  0  0  0
  184.9620  178.9180  146.6820 O   0  0  0  0  0  1  0  0  0  0  0  0
  185.2400  176.7860  145.9460 O   0  0  0  0  0  1  0  0  0  0  0  0
  187.5830  175.3000  142.4970 O   0  0  0  0  0  0  0  0  0  0  0  0
  188.1330  175.4140  141.3050 O   0  0  0  0  0  0  0  0  0  0  0  0
  188.1510  173.2750  139.5590 O   0  0  0  0  0  0  0  0  0  0  0  0
  188.8200  173.8970  140.9830 P   0  0  0  0  0  0  0  0  0  0  0  0
  190.4920  174.0570  140.7880 O   0  0  0  0  0  1  0  0  0  0  0  0
  188.5330  172.9460  142.1240 O   0  0  0  0  0  1  0  0  0  0  0  0
  1 25  1  0  0  0  0
  2  5  1  0  0  0  0
  2  6  1  0  0  0  0
  3  9  1  0  0  0  0
  4 17  1  0  0  0  0
  4  8  1  1  0  0  0
  4  7  1  0  0  0  0
  5  1  1  1  0  0  0
  5  7  1  0  0  0  0
  6  3  1  0  0  0  0
  7  9  1  0  0  0  0
  8  9  1  0  0  0  0
 10 16  2  0  0  0  0
 14 12  2  0  0  0  0
 14 13  1  0  0  0  0
 15 11  1  0  0  0  0
 15 13  1  0  0  0  0
 16 17  1  0  0  0  0
 16 15  1  0  0  0  0
 17 14  1  0  0  0  0
 18 19  1  0  0  0  0
 18 21  1  0  0  0  0
 20 24  1  0  0  0  0
 21  4  1  0  0  0  0
 22 20  1  0  0  0  0
 22 18  1  0  0  0  0
 23 20  1  0  0  0  0
 24 21  1  0  0  0  0
 26 25  1  0  0  0  0
 27 29  1  0  0  0  0
 27 26  1  0  0  0  0
 28 29  2  0  0  0  0
 29 30  1  0  0  0  0
 31 32  1  0  0  0  0
 31 29  1  0  0  0  0
 33 32  1  0  0  0  0
 33 35  1  0  0  0  0
 34 35  2  0  0  0  0
 35 37  1  0  0  0  0
 36 37  1  0  0  0  0
 37 38  1  0  0  0  0
 38 40  1  0  0  0  0
 38 39  1  0  0  0  0
 41 32  1  0  0  0  0
 42 41  1  0  0  0  0
 43 44  2  0  0  0  0
 44 42  1  0  0  0  0
 44 46  1  0  0  0  0
 45 44  1  0  0  0  0
M  END
>  <MODEL>
7

>  <REMARK>
 VINA RESULT:      -5.6      2.077      4.390
  Name = 
  16 active torsions:
  status: ('A' for Active; 'I' for Inactive)
    1  A    between atoms: C_3  and  O_21
    2  A    between atoms: C_3  and  C_40
    3  A    between atoms: C_3  and  O_46
    4  A    between atoms: O_4  and  P_19
    5  A    between atoms: O_4  and  O_46
    6  A    between atoms: O_6  and  P_12
    7  A    between atoms: O_6  and  C_23
    8  A    between atoms: C_10  and  C_43
    9  A    between atoms: C_11  and  C_27
   10  A    between atoms: C_11  and  C_45
   11  A    between atoms: P_12  and  C_40
   12  A    between atoms: O_21  and  C_38
   13  A    between atoms: C_23  and  C_41
   14  A    between atoms: C_25  and  C_31
   15  A    between atoms: C_25  and  C_41
   16  A    between atoms: C_38  and  C_43
                            x       y       z     vdW  Elec       q    Type
                         _______ _______ _______ _____ _____    ______ ____

>  <TORSDO>
F 16

$$$$
=
 OpenBabel11062422523D

 46 49  0  0  1  0  0  0  0  0999 V2000
  191.8060  174.1240  144.3090 C   0  0  0  0  0  2  0  0  0  0  0  0
  193.4530  174.2110  146.1320 O   0  0  0  0  0  0  0  0  0  0  0  0
  194.8640  175.8540  146.0440 C   0  0  0  0  0  2  0  0  0  0  0  0
  195.5200  174.0020  143.3840 C   0  0  2  0  0  0  0  0  0  0  0  0
  193.2670  173.9900  144.7460 C   0  0  2  0  0  3  0  0  0  0  0  0
  193.5330  175.5210  146.3250 O   0  0  0  0  0  0  0  0  0  0  0  0
  194.2620  174.7590  143.8430 C   0  0  1  0  0  3  0  0  0  0  0  0
  196.6880  175.2300  144.0880 S   0  0  0  0  0  0  0  0  0  0  0  0
  195.0430  175.8800  144.5330 C   0  0  2  0  0  3  0  0  0  0  0  0
  193.5320  172.7810  141.3900 O   0  0  0  0  0  0  0  0  0  0  0  0
  193.6290  174.4670  139.0360 O   0  0  0  0  0  1  0  0  0  0  0  0
  197.1130  175.7600  141.2750 O   0  0  0  0  0  0  0  0  0  0  0  0
  194.9740  175.7550  140.3790 O   0  0  0  0  0  0  0  0  0  0  0  0
  195.9780  175.2240  141.1730 C   0  0  0  0  0  0  0  0  0  0  0  0
  193.8350  174.9110  140.3420 C   0  0  2  0  0  3  0  0  0  0  0  0
  194.2350  173.7630  141.2130 C   0  0  0  0  0  0  0  0  0  0  0  0
  195.5930  173.9380  141.8300 C   0  0  2  0  0  3  0  0  0  0  0  0
  196.4150  171.5520  143.1470 C   0  0  2  0  0  3  0  0  0  0  0  0
  197.5350  172.0960  142.5110 O   0  0  0  0  0  1  0  0  0  0  0  0
  196.9910  171.1470  145.4880 C   0  0  2  0  0  3  0  0  0  0  0  0
  195.7210  172.5930  144.0200 C   0  0  1  0  0  3  0  0  0  0  0  0
  196.8740  170.4850  144.1210 C   0  0  0  0  0  2  0  0  0  0  0  0
  196.2140  170.4460  146.4100 O   0  0  0  0  0  1  0  0  0  0  0  0
  196.4580  172.5600  145.3470 C   0  0  0  0  0  2  0  0  0  0  0  0
  191.0380  172.8050  144.2870 C   0  0  0  0  0  2  0  0  0  0  0  0
  189.8070  172.8760  143.3910 C   0  0  0  0  0  2  0  0  0  0  0  0
  189.8690  174.0020  142.5630 O   0  0  0  0  0  0  0  0  0  0  0  0
  187.7560  172.6630  141.7770 O   0  0  0  0  0  1  0  0  0  0  0  0
  188.4100  174.0230  141.6960 P   0  0  2  0  0  0  0  0  0  0  0  0
  188.7450  174.3780  140.0770 O   0  0  0  0  0  0  0  0  0  0  0  0
  187.2840  175.2960  142.3530 C   0  0  0  0  0  2  0  0  0  0  0  0
  188.0680  176.3770  143.0870 C   0  0  1  0  0  3  0  0  0  0  0  0
  187.4500  177.6560  142.9380 O   0  0  0  0  0  0  0  0  0  0  0  0
  185.1360  177.5390  142.9070 O   0  0  0  0  0  0  0  0  0  0  0  0
  186.1850  177.9760  143.4520 C   0  0  0  0  0  0  0  0  0  0  0  0
  185.3190  180.1330  144.2690 C   0  0  0  0  0  1  0  0  0  0  0  0
  186.0700  178.8660  144.6450 C   0  0  1  0  0  3  0  0  0  0  0  0
  185.3740  178.1440  145.7970 C   0  0  0  0  0  3  0  0  0  0  0  0
  185.3630  176.7670  145.5610 O   0  0  0  0  0  1  0  0  0  0  0  0
  184.0580  178.5930  145.9190 O   0  0  0  0  0  1  0  0  0  0  0  0
  188.1870  176.0500  144.4400 O   0  0  0  0  0  0  0  0  0  0  0  0
  189.1200  176.8560  144.9040 O   0  0  0  0  0  0  0  0  0  0  0  0
  190.6670  176.2970  147.1220 O   0  0  0  0  0  1  0  0  0  0  0  0
  189.1000  176.6400  146.5870 P   0  0  0  0  0  0  0  0  0  0  0  0
  188.5530  178.0530  147.3380 O   0  0  0  0  0  1  0  0  0  0  0  0
  188.1870  175.4900  146.9510 O   0  0  0  0  0  0  0  0  0  0  0  0
  2  6  1  0  0  0  0
  3  6  1  0  0  0  0
  4  7  1  0  0  0  0
  4 21  1  0  0  0  0
  4  8  1  1  0  0  0
  5  1  1  6  0  0  0
  5  2  1  0  0  0  0
  7  9  1  0  0  0  0
  7  5  1  0  0  0  0
  8  9  1  0  0  0  0
  9  3  1  0  0  0  0
 11 15  1  0  0  0  0
 13 14  1  0  0  0  0
 14 12  2  0  0  0  0
 14 17  1  0  0  0  0
 15 13  1  0  0  0  0
 15 16  1  0  0  0  0
 16 10  2  0  0  0  0
 16 17  1  0  0  0  0
 17  4  1  0  0  0  0
 18 21  1  0  0  0  0
 18 22  1  0  0  0  0
 19 18  1  0  0  0  0
 20 23  1  0  0  0  0
 21 24  1  0  0  0  0
 22 20  1  0  0  0  0
 24 20  1  0  0  0  0
 25  1  1  0  0  0  0
 26 25  1  0  0  0  0
 27 26  1  0  0  0  0
 29 28  1  0  0  0  0
 29 31  1  0  0  0  0
 29 27  1  0  0  0  0
 30 29  2  0  0  0  0
 31 32  1  0  0  0  0
 32 41  1  0  0  0  0
 33 32  1  0  0  0  0
 33 35  1  0  0  0  0
 34 35  2  0  0  0  0
 35 37  1  0  0  0  0
 36 37  1  0  0  0  0
 37 38  1  0  0  0  0
 38 40  1  0  0  0  0
 39 38  1  0  0  0  0
 41 42  1  0  0  0  0
 42 44  1  0  0  0  0
 44 46  2  0  0  0  0
 44 43  1  0  0  0  0
 44 45  1  0  0  0  0
M  END
>  <MODEL>
8

>  <REMARK>
 VINA RESULT:      -5.6      2.153      3.760
  Name = 
  16 active torsions:
  status: ('A' for Active; 'I' for Inactive)
    1  A    between atoms: C_3  and  O_21
    2  A    between atoms: C_3  and  C_40
    3  A    between atoms: C_3  and  O_46
    4  A    between atoms: O_4  and  P_19
    5  A    between atoms: O_4  and  O_46
    6  A    between atoms: O_6  and  P_12
    7  A    between atoms: O_6  and  C_23
    8  A    between atoms: C_10  and  C_43
    9  A    between atoms: C_11  and  C_27
   10  A    between atoms: C_11  and  C_45
   11  A    between atoms: P_12  and  C_40
   12  A    between atoms: O_21  and  C_38
   13  A    between atoms: C_23  and  C_41
   14  A    between atoms: C_25  and  C_31
   15  A    between atoms: C_25  and  C_41
   16  A    between atoms: C_38  and  C_43
                            x       y       z     vdW  Elec       q    Type
                         _______ _______ _______ _____ _____    ______ ____

>  <TORSDO>
F 16

$$$$
=
 OpenBabel11062422523D

 46 49  0  0  1  0  0  0  0  0999 V2000
  187.6460  174.1070  141.7160 C   0  0  0  0  0  2  0  0  0  0  0  0
  186.9010  176.4410  141.9170 O   0  0  0  0  0  0  0  0  0  0  0  0
  188.4440  177.9440  141.6770 C   0  0  0  0  0  2  0  0  0  0  0  0
  189.2630  176.2850  144.4190 C   0  0  2  0  0  0  0  0  0  0  0  0
  187.6680  175.4120  142.5150 C   0  0  2  0  0  3  0  0  0  0  0  0
  187.6520  177.0170  140.9880 O   0  0  0  0  0  0  0  0  0  0  0  0
  189.0850  175.8540  142.9530 C   0  0  1  0  0  3  0  0  0  0  0  0
  189.9120  177.9500  143.9980 S   0  0  0  0  0  0  0  0  0  0  0  0
  189.5650  177.1890  142.3780 C   0  0  2  0  0  3  0  0  0  0  0  0
  189.3580  173.2330  144.7320 O   0  0  0  0  0  0  0  0  0  0  0  0
  192.1620  172.5120  144.6500 O   0  0  0  0  0  1  0  0  0  0  0  0
  192.3040  176.8190  145.1560 O   0  0  0  0  0  0  0  0  0  0  0  0
  192.4140  174.7370  144.1400 O   0  0  0  0  0  0  0  0  0  0  0  0
  191.7410  175.7450  144.8120 C   0  0  0  0  0  0  0  0  0  0  0  0
  191.5970  173.5900  143.9680 C   0  0  2  0  0  3  0  0  0  0  0  0
  190.3120  173.9870  144.6210 C   0  0  0  0  0  0  0  0  0  0  0  0
  190.3250  175.3980  145.1350 C   0  0  2  0  0  3  0  0  0  0  0  0
  188.0900  176.1920  146.7590 C   0  0  2  0  0  3  0  0  0  0  0  0
  189.1750  176.9200  147.2560 O   0  0  0  0  0  1  0  0  0  0  0  0
  186.2650  177.7570  146.3130 C   0  0  2  0  0  3  0  0  0  0  0  0
  187.9480  176.3780  145.2520 C   0  0  1  0  0  3  0  0  0  0  0  0
  186.8100  176.7670  147.3340 C   0  0  0  0  0  2  0  0  0  0  0  0
  184.9540  177.4090  145.9860 O   0  0  0  0  0  1  0  0  0  0  0  0
  187.1390  177.6520  145.0780 C   0  0  0  0  0  2  0  0  0  0  0  0
  188.8860  173.8830  140.8540 C   0  0  0  0  0  2  0  0  0  0  0  0
  188.5620  173.9270  139.3650 C   0  0  0  0  0  2  0  0  0  0  0  0
  189.0120  172.7640  138.7320 O   0  0  0  0  0  0  0  0  0  0  0  0
  189.2260  174.4750  136.7580 O   0  0  0  0  0  1  0  0  0  0  0  0
  189.9070  173.2820  137.3870 P   0  0  2  0  0  0  0  0  0  0  0  0
  189.9690  172.0240  136.2570 O   0  0  0  0  0  0  0  0  0  0  0  0
  191.6090  173.7180  137.8690 C   0  0  0  0  0  2  0  0  0  0  0  0
  191.9480  173.1240  139.2300 C   0  0  1  0  0  3  0  0  0  0  0  0
  192.8120  171.9930  139.1010 O   0  0  0  0  0  0  0  0  0  0  0  0
  193.1910  169.7080  139.1370 O   0  0  0  0  0  0  0  0  0  0  0  0
  192.4140  170.6750  139.3620 C   0  0  0  0  0  0  0  0  0  0  0  0
  190.4250  169.2400  139.1320 C   0  0  0  0  0  1  0  0  0  0  0  0
  191.0450  170.4010  139.8920 C   0  0  1  0  0  3  0  0  0  0  0  0
  191.0900  170.1090  141.3900 C   0  0  0  0  0  3  0  0  0  0  0  0
  190.9000  168.7440  141.6180 O   0  0  0  0  0  1  0  0  0  0  0  0
  190.0840  170.8220  142.0470 O   0  0  0  0  0  1  0  0  0  0  0  0
  192.5390  174.0940  140.0450 O   0  0  0  0  0  0  0  0  0  0  0  0
  193.5550  174.5550  139.3440 O   0  0  0  0  0  0  0  0  0  0  0  0
  196.2750  174.3680  139.7810 O   0  0  0  0  0  0  0  0  0  0  0  0
  194.7960  174.8100  140.4730 P   0  0  0  0  0  0  0  0  0  0  0  0
  194.8500  176.4440  140.9040 O   0  0  0  0  0  1  0  0  0  0  0  0
  194.5540  173.9700  141.7070 O   0  0  0  0  0  1  0  0  0  0  0  0
  2  5  1  0  0  0  0
  3  9  1  0  0  0  0
  4  8  1  6  0  0  0
  4 17  1  0  0  0  0
  4 21  1  0  0  0  0
  5  1  1  6  0  0  0
  5  7  1  0  0  0  0
  6  3  1  0  0  0  0
  6  2  1  0  0  0  0
  7  4  1  0  0  0  0
  9  7  1  0  0  0  0
  9  8  1  0  0  0  0
 13 14  1  0  0  0  0
 14 17  1  0  0  0  0
 14 12  2  0  0  0  0
 15 13  1  0  0  0  0
 15 16  1  0  0  0  0
 15 11  1  0  0  0  0
 16 10  2  0  0  0  0
 16 17  1  0  0  0  0
 18 19  1  0  0  0  0
 18 22  1  0  0  0  0
 20 22  1  0  0  0  0
 21 18  1  0  0  0  0
 23 20  1  0  0  0  0
 24 21  1  0  0  0  0
 24 20  1  0  0  0  0
 25  1  1  0  0  0  0
 26 25  1  0  0  0  0
 27 26  1  0  0  0  0
 28 29  1  0  0  0  0
 29 31  1  0  0  0  0
 29 27  1  0  0  0  0
 30 29  2  0  0  0  0
 31 32  1  0  0  0  0
 32 41  1  0  0  0  0
 33 32  1  0  0  0  0
 33 35  1  0  0  0  0
 34 35  2  0  0  0  0
 35 37  1  0  0  0  0
 36 37  1  0  0  0  0
 37 38  1  0  0  0  0
 38 39  1  0  0  0  0
 38 40  1  0  0  0  0
 42 41  1  0  0  0  0
 42 44  1  0  0  0  0
 43 44  2  0  0  0  0
 44 45  1  0  0  0  0
 44 46  1  0  0  0  0
M  END
>  <MODEL>
9

>  <REMARK>
 VINA RESULT:      -5.6      3.322      7.740
  Name = 
  16 active torsions:
  status: ('A' for Active; 'I' for Inactive)
    1  A    between atoms: C_3  and  O_21
    2  A    between atoms: C_3  and  C_40
    3  A    between atoms: C_3  and  O_46
    4  A    between atoms: O_4  and  P_19
    5  A    between atoms: O_4  and  O_46
    6  A    between atoms: O_6  and  P_12
    7  A    between atoms: O_6  and  C_23
    8  A    between atoms: C_10  and  C_43
    9  A    between atoms: C_11  and  C_27
   10  A    between atoms: C_11  and  C_45
   11  A    between atoms: P_12  and  C_40
   12  A    between atoms: O_21  and  C_38
   13  A    between atoms: C_23  and  C_41
   14  A    between atoms: C_25  and  C_31
   15  A    between atoms: C_25  and  C_41
   16  A    between atoms: C_38  and  C_43
                            x       y       z     vdW  Elec       q    Type
                         _______ _______ _______ _____ _____    ______ ____

>  <TORSDO>
F 16

$$$$
