=
 OpenBabel11062421293D

 66 71  0  0  1  0  0  0  0  0999 V2000
  191.6200  175.8320  143.2140 C   0  0  0  0  0  0  0  0  0  0  0  0
  192.6590  176.3270  142.5560 C   0  0  0  0  0  2  0  0  0  0  0  0
  190.3890  176.5530  143.1870 N   0  0  0  0  0  2  0  0  0  0  0  0
  189.1820  175.9240  143.2450 O   0  0  0  0  0  0  0  0  0  0  0  0
  188.5500  176.0790  141.9910 C   0  0  2  0  0  3  0  0  0  0  0  0
  187.1110  177.3140  139.7090 O   0  0  0  0  0  0  0  0  0  0  0  0
  185.4930  177.7870  143.3400 O   0  0  0  0  0  0  0  0  0  0  0  0
  186.6560  177.5060  140.8670 C   0  0  0  0  0  0  0  0  0  0  0  0
  186.6760  177.0460  143.2280 C   0  0  0  0  0  3  0  0  0  0  0  0
  187.3050  176.9220  142.0570 C   0  0  0  0  0  0  0  0  0  0  0  0
  185.4780  178.2330  141.0310 O   0  0  0  0  0  0  0  0  0  0  0  0
  185.0740  178.6970  142.3200 C   0  0  0  0  0  2  0  0  0  0  0  0
  189.7560  174.5000  140.4480 C   0  0  0  0  0  2  0  0  0  0  0  0
  189.6620  173.2070  139.6340 C   0  0  2  0  0  3  0  0  0  0  0  0
  188.0610  173.6030  142.0520 C   0  0  0  0  0  2  0  0  0  0  0  0
  188.4310  174.7910  141.1600 C   0  0  1  0  0  3  0  0  0  0  0  0
  189.2200  172.0290  140.5040 C   0  0  0  0  0  2  0  0  0  0  0  0
  187.9060  172.3460  141.2080 C   0  0  0  0  0  2  0  0  0  0  0  0
  190.9370  172.9050  138.9880 N   0  0  0  0  0  2  0  0  0  0  0  0
  190.5760  174.1740  137.0600 O   0  0  0  0  0  0  0  0  0  0  0  0
  191.3750  173.4830  137.7500 C   0  0  0  0  0  0  0  0  0  0  0  0
  194.8750  172.3810  138.3340 C   0  0  0  0  0  3  0  0  0  0  0  0
  193.0050  173.1020  135.9930 C   0  0  0  0  0  3  0  0  0  0  0  0
  192.7670  173.2870  137.3000 C   0  0  0  0  0  0  0  0  0  0  0  0
  195.4260  172.4170  135.9000 C   0  0  0  0  0  3  0  0  0  0  0  0
  193.8750  173.4910  138.2970 C   0  0  2  0  0  3  0  0  0  0  0  0
  195.5740  171.9460  137.2870 C   0  0  0  0  0  3  0  0  0  0  0  0
  194.3180  172.9150  135.3450 C   0  0  0  0  0  3  0  0  0  0  0  0
  194.5350  174.8540  138.1480 C   0  0  0  0  0  2  0  0  0  0  0  0
  196.2740  175.8710  141.4490 C   0  0  0  0  0  1  0  0  0  0  0  0
  197.1310  175.4300  139.2430 N   0  0  0  0  0  2  0  0  0  0  0  0
  194.7730  175.4190  139.4680 N   0  0  0  0  0  2  0  0  0  0  0  0
  196.0910  175.5760  140.0010 C   0  0  0  0  0  0  0  0  0  0  0  0
  191.7960  174.6970  144.1820 C   0  0  1  0  0  3  0  0  0  0  0  0
  190.1770  172.9400  144.5870 F   0  0  0  0  0  0  0  0  0  0  0  0
  190.4960  174.2520  144.8760 C   0  0  1  0  0  3  0  0  0  0  0  0
  191.8020  174.5680  146.8510 F   0  0  0  0  0  0  0  0  0  0  0  0
  190.5030  174.5980  146.3790 C   0  0  1  0  0  3  0  0  0  0  0  0
  187.7160  177.1170  147.0050 C   0  0  0  0  0  0  0  0  0  0  0  0
  189.7930  175.8540  146.8400 C   0  0  0  0  0  0  0  0  0  0  0  0
  189.8030  178.1430  147.6790 C   0  0  0  0  0  3  0  0  0  0  0  0
  190.4880  176.9750  147.3260 C   0  0  0  0  0  3  0  0  0  0  0  0
  188.4030  175.9480  146.6610 C   0  0  0  0  0  3  0  0  0  0  0  0
  188.4180  178.2110  147.5190 C   0  0  0  0  0  3  0  0  0  0  0  0
  186.3060  177.1970  146.8220 N   0  0  0  0  0  0  0  0  0  0  0  0
  185.0050  177.9310  146.8210 C   0  0  0  0  0  2  0  0  0  0  0  0
  184.9830  176.5940  146.4860 C   0  0  0  0  0  2  0  0  0  0  0  0
  192.7030  173.5910  143.6180 C   0  0  2  0  0  3  0  0  0  0  0  0
  192.2860  173.0990  142.2370 C   0  0  0  0  0  1  0  0  0  0  0  0
  193.8440  170.7140  143.5450 C   0  0  2  0  0  3  0  0  0  0  0  0
  192.8870  172.4750  144.6580 C   0  0  2  0  0  3  0  0  0  0  0  0
  194.9170  170.5330  144.4230 O   0  0  0  0  0  0  0  0  0  0  0  0
  195.1660  172.8070  145.2140 C   0  0  1  0  0  3  0  0  0  0  0  0
  193.8360  172.6820  145.6930 O   0  0  0  0  0  0  0  0  0  0  0  0
  192.7110  171.1300  144.2660 O   0  0  0  0  0  0  0  0  0  0  0  0
  195.6700  171.6980  144.2740 C   0  0  0  0  0  2  0  0  0  0  0  0
  195.5300  174.2270  144.7740 C   0  0  2  0  0  3  0  0  0  0  0  0
  196.9130  174.3610  144.6020 O   0  0  0  0  0  1  0  0  0  0  0  0
  195.0810  175.1460  145.7250 O   0  0  0  0  0  0  0  0  0  0  0  0
  195.2530  176.3980  145.1250 C   0  0  0  0  0  2  0  0  0  0  0  0
  194.0700  177.0820  147.0720 O   0  0  0  0  0  1  0  0  0  0  0  0
  194.2820  177.3930  145.7280 C   0  0  0  0  0  2  0  0  0  0  0  0
  193.5430  169.4080  142.8200 C   0  0  1  0  0  3  0  0  0  0  0  0
  192.1710  169.1480  142.8670 O   0  0  0  0  0  1  0  0  0  0  0  0
  192.8320  169.9250  140.4960 C   0  0  0  0  0  1  0  0  0  0  0  0
  193.9920  169.4960  141.3690 C   0  0  0  0  0  2  0  0  0  0  0  0
  2  1  2  0  0  0  0
  3  1  1  0  0  0  0
  3  4  1  0  0  0  0
  5 10  1  0  0  0  0
  5  4  1  1  0  0  0
  6  8  2  0  0  0  0
  8 11  1  0  0  0  0
  8 10  1  0  0  0  0
  9  7  1  0  0  0  0
 10  9  2  0  0  0  0
 11 12  1  0  0  0  0
 12  7  1  0  0  0  0
 13 16  1  0  0  0  0
 14 19  1  1  0  0  0
 14 13  1  0  0  0  0
 14 17  1  0  0  0  0
 16  5  1  1  0  0  0
 16 15  1  0  0  0  0
 17 18  1  0  0  0  0
 18 15  1  0  0  0  0
 20 21  2  0  0  0  0
 21 19  1  0  0  0  0
 23 24  2  0  0  0  0
 24 21  1  0  0  0  0
 24 26  1  0  0  0  0
 25 27  1  0  0  0  0
 26 29  1  6  0  0  0
 26 22  1  0  0  0  0
 27 22  2  0  0  0  0
 28 25  2  0  0  0  0
 28 23  1  0  0  0  0
 29 32  1  0  0  0  0
 31 33  2  0  0  0  0
 32 33  1  0  0  0  0
 33 30  1  0  0  0  0
 34  1  1  6  0  0  0
 34 36  1  0  0  0  0
 36 35  1  1  0  0  0
 36 38  1  0  0  0  0
 38 40  1  0  0  0  0
 38 37  1  6  0  0  0
 39 44  1  0  0  0  0
 40 42  2  0  0  0  0
 42 41  1  0  0  0  0
 43 40  1  0  0  0  0
 43 39  2  0  0  0  0
 44 41  2  0  0  0  0
 45 39  1  0  0  0  0
 46 45  1  0  0  0  0
 47 46  1  0  0  0  0
 47 45  1  0  0  0  0
 48 49  1  6  0  0  0
 48 34  1  0  0  0  0
 50 63  1  1  0  0  0
 50 55  1  0  0  0  0
 50 52  1  0  0  0  0
 51 48  1  6  0  0  0
 51 54  1  0  0  0  0
 53 57  1  6  0  0  0
 53 54  1  0  0  0  0
 55 51  1  0  0  0  0
 56 52  1  0  0  0  0
 56 53  1  0  0  0  0
 57 58  1  1  0  0  0
 57 59  1  0  0  0  0
 60 59  1  0  0  0  0
 60 62  1  0  0  0  0
 62 61  1  0  0  0  0
 63 64  1  6  0  0  0
 65 66  1  0  0  0  0
 66 63  1  0  0  0  0
M  END
>  <MODEL>
1

>  <REMARK>
 VINA RESULT:      -5.9      0.000      0.000
  Name = 
  22 active torsions:
  status: ('A' for Active; 'I' for Inactive)
    1  A    between atoms: C_1  and  C_8
    2  A    between atoms: C_1  and  C_47
    3  A    between atoms: C_3  and  C_14
    4  A    between atoms: C_3  and  C_56
    5  A    between atoms: C_4  and  N_24
    6  A    between atoms: C_7  and  C_32
    7  A    between atoms: C_9  and  C_32
    8  A    between atoms: C_9  and  C_56
    9  A    between atoms: C_11  and  N_30
   10  A    between atoms: C_11  and  C_56
   11  A    between atoms: N_13  and  C_36
   12  A    between atoms: C_19  and  C_45
   13  A    between atoms: C_19  and  N_55
   14  A    between atoms: C_20  and  O_25
   15  A    between atoms: C_20  and  C_40
   16  A    between atoms: C_22  and  C_23
   17  A    between atoms: C_23  and  O_25
   18  A    between atoms: C_29  and  C_37
   19  A    between atoms: N_30  and  O_35
   20  A    between atoms: O_35  and  C_65
   21  A    between atoms: C_43  and  C_65
   22  A    between atoms: C_58  and  C_65
                            x       y       z     vdW  Elec       q    Type
                         _______ _______ _______ _____ _____    ______ ____

>  <TORSDO>
F 22

$$$$
=
 OpenBabel11062421293D

 66 71  0  0  1  0  0  0  0  0999 V2000
  190.0660  174.0430  144.6780 C   0  0  0  0  0  0  0  0  0  0  0  0
  189.6460  174.2400  145.9200 C   0  0  0  0  0  2  0  0  0  0  0  0
  190.7030  172.8050  144.3620 N   0  0  0  0  0  2  0  0  0  0  0  0
  192.0450  172.6280  144.5020 O   0  0  0  0  0  0  0  0  0  0  0  0
  192.3300  171.2630  144.2760 C   0  0  2  0  0  3  0  0  0  0  0  0
  194.5100  172.4540  142.6540 O   0  0  0  0  0  0  0  0  0  0  0  0
  195.5850  169.8420  145.4900 O   0  0  0  0  0  0  0  0  0  0  0  0
  194.8190  171.5810  143.5060 C   0  0  0  0  0  0  0  0  0  0  0  0
  194.2250  170.1430  145.3400 C   0  0  0  0  0  3  0  0  0  0  0  0
  193.7990  170.9430  144.3610 C   0  0  0  0  0  0  0  0  0  0  0  0
  196.1600  171.2500  143.6970 O   0  0  0  0  0  0  0  0  0  0  0  0
  196.5320  170.0950  144.4490 C   0  0  0  0  0  2  0  0  0  0  0  0
  191.5850  171.5970  141.8970 C   0  0  0  0  0  2  0  0  0  0  0  0
  190.8670  170.9750  140.6960 C   0  0  2  0  0  3  0  0  0  0  0  0
  192.2450  169.3140  142.6740 C   0  0  0  0  0  2  0  0  0  0  0  0
  191.5860  170.6320  143.0880 C   0  0  1  0  0  3  0  0  0  0  0  0
  191.4720  169.6200  140.3240 C   0  0  0  0  0  2  0  0  0  0  0  0
  191.4710  168.6820  141.5250 C   0  0  0  0  0  2  0  0  0  0  0  0
  190.9010  171.8740  139.5460 N   0  0  0  0  0  2  0  0  0  0  0  0
  189.3850  170.6860  138.2240 O   0  0  0  0  0  0  0  0  0  0  0  0
  190.0770  171.7290  138.3800 C   0  0  0  0  0  0  0  0  0  0  0  0
  191.0210  173.1950  135.1000 C   0  0  0  0  0  3  0  0  0  0  0  0
  188.9430  173.6040  137.3380 C   0  0  0  0  0  3  0  0  0  0  0  0
  190.0240  172.8120  137.3780 C   0  0  0  0  0  0  0  0  0  0  0  0
  189.2340  174.9330  135.2180 C   0  0  0  0  0  3  0  0  0  0  0  0
  191.2600  173.0990  136.5720 C   0  0  2  0  0  3  0  0  0  0  0  0
  190.1590  174.0280  134.5180 C   0  0  0  0  0  3  0  0  0  0  0  0
  188.7100  174.7480  136.4340 C   0  0  0  0  0  3  0  0  0  0  0  0
  192.0280  174.2980  137.1090 C   0  0  0  0  0  2  0  0  0  0  0  0
  194.7970  172.4310  139.0580 C   0  0  0  0  0  1  0  0  0  0  0  0
  194.5490  172.9680  136.7250 N   0  0  0  0  0  2  0  0  0  0  0  0
  192.9100  173.8620  138.1830 N   0  0  0  0  0  2  0  0  0  0  0  0
  194.0960  173.1040  137.9310 C   0  0  0  0  0  0  0  0  0  0  0  0
  190.1200  175.1790  143.6980 C   0  0  1  0  0  3  0  0  0  0  0  0
  190.7560  175.0100  141.3650 F   0  0  0  0  0  0  0  0  0  0  0  0
  191.2460  175.0590  142.6550 C   0  0  1  0  0  3  0  0  0  0  0  0
  191.8490  177.3710  142.6230 F   0  0  0  0  0  0  0  0  0  0  0  0
  192.3520  176.1100  142.8850 C   0  0  1  0  0  3  0  0  0  0  0  0
  194.9850  175.2400  145.4970 C   0  0  0  0  0  0  0  0  0  0  0  0
  193.1090  176.0950  144.1970 C   0  0  0  0  0  0  0  0  0  0  0  0
  193.3030  176.6100  146.5710 C   0  0  0  0  0  3  0  0  0  0  0  0
  192.6090  176.7030  145.3600 C   0  0  0  0  0  3  0  0  0  0  0  0
  194.2920  175.3420  144.2850 C   0  0  0  0  0  3  0  0  0  0  0  0
  194.4910  175.8800  146.6360 C   0  0  0  0  0  3  0  0  0  0  0  0
  196.1860  174.4770  145.5700 N   0  0  0  0  0  0  0  0  0  0  0  0
  197.5070  174.0230  145.0410 C   0  0  0  0  0  2  0  0  0  0  0  0
  197.0890  173.5030  146.2480 C   0  0  0  0  0  2  0  0  0  0  0  0
  188.7250  175.5640  143.1800 C   0  0  2  0  0  3  0  0  0  0  0  0
  188.1530  174.5820  142.1650 C   0  0  0  0  0  1  0  0  0  0  0  0
  186.6640  177.3880  141.7630 C   0  0  2  0  0  3  0  0  0  0  0  0
  188.7170  177.0290  142.7170 C   0  0  2  0  0  3  0  0  0  0  0  0
  186.3330  178.5200  142.5140 O   0  0  0  0  0  0  0  0  0  0  0  0
  187.5710  178.0270  144.5350 C   0  0  1  0  0  3  0  0  0  0  0  0
  188.7280  178.0410  143.7120 O   0  0  0  0  0  0  0  0  0  0  0  0
  188.0480  177.3710  141.5210 O   0  0  0  0  0  0  0  0  0  0  0  0
  186.2110  178.0330  143.8160 C   0  0  0  0  0  2  0  0  0  0  0  0
  187.6650  177.0510  145.7110 C   0  0  2  0  0  3  0  0  0  0  0  0
  186.6270  176.1120  145.6680 O   0  0  0  0  0  1  0  0  0  0  0  0
  187.6150  177.7560  146.9150 O   0  0  0  0  0  0  0  0  0  0  0  0
  186.4460  177.3160  147.5420 C   0  0  0  0  0  2  0  0  0  0  0  0
  185.6270  179.4730  146.9700 O   0  0  0  0  0  1  0  0  0  0  0  0
  185.6160  178.5070  147.9760 C   0  0  0  0  0  2  0  0  0  0  0  0
  185.9090  177.4080  140.4400 C   0  0  1  0  0  3  0  0  0  0  0  0
  185.1660  178.5870  140.3380 O   0  0  0  0  0  1  0  0  0  0  0  0
  186.2940  176.4760  138.1680 C   0  0  0  0  0  1  0  0  0  0  0  0
  186.8860  177.3230  139.2750 C   0  0  0  0  0  2  0  0  0  0  0  0
  1  2  2  0  0  0  0
  3  4  1  0  0  0  0
  3  1  1  0  0  0  0
  5 10  1  0  0  0  0
  5  4  1  6  0  0  0
  6  8  2  0  0  0  0
  8 11  1  0  0  0  0
  8 10  1  0  0  0  0
  9  7  1  0  0  0  0
 10  9  2  0  0  0  0
 11 12  1  0  0  0  0
 12  7  1  0  0  0  0
 13 16  1  0  0  0  0
 14 19  1  6  0  0  0
 14 13  1  0  0  0  0
 15 16  1  0  0  0  0
 16  5  1  1  0  0  0
 17 14  1  0  0  0  0
 17 18  1  0  0  0  0
 18 15  1  0  0  0  0
 20 21  2  0  0  0  0
 21 19  1  0  0  0  0
 22 26  1  0  0  0  0
 23 24  2  0  0  0  0
 24 21  1  0  0  0  0
 25 28  2  0  0  0  0
 26 29  1  1  0  0  0
 26 24  1  0  0  0  0
 27 22  2  0  0  0  0
 27 25  1  0  0  0  0
 28 23  1  0  0  0  0
 29 32  1  0  0  0  0
 31 33  2  0  0  0  0
 33 32  1  0  0  0  0
 33 30  1  0  0  0  0
 34  1  1  6  0  0  0
 36 35  1  6  0  0  0
 36 38  1  0  0  0  0
 36 34  1  0  0  0  0
 38 37  1  1  0  0  0
 38 40  1  0  0  0  0
 39 45  1  0  0  0  0
 39 44  1  0  0  0  0
 40 43  1  0  0  0  0
 40 42  2  0  0  0  0
 41 44  2  0  0  0  0
 42 41  1  0  0  0  0
 43 39  2  0  0  0  0
 45 47  1  0  0  0  0
 46 45  1  0  0  0  0
 46 47  1  0  0  0  0
 48 49  1  6  0  0  0
 48 34  1  0  0  0  0
 50 63  1  6  0  0  0
 50 52  1  0  0  0  0
 51 48  1  1  0  0  0
 51 54  1  0  0  0  0
 52 56  1  0  0  0  0
 53 57  1  6  0  0  0
 54 53  1  0  0  0  0
 55 50  1  0  0  0  0
 55 51  1  0  0  0  0
 56 53  1  0  0  0  0
 57 58  1  1  0  0  0
 57 59  1  0  0  0  0
 59 60  1  0  0  0  0
 60 62  1  0  0  0  0
 61 62  1  0  0  0  0
 63 64  1  6  0  0  0
 65 66  1  0  0  0  0
 66 63  1  0  0  0  0
M  END
>  <MODEL>
2

>  <REMARK>
 VINA RESULT:      -5.8      2.440      7.558
  Name = 
  22 active torsions:
  status: ('A' for Active; 'I' for Inactive)
    1  A    between atoms: C_1  and  C_8
    2  A    between atoms: C_1  and  C_47
    3  A    between atoms: C_3  and  C_14
    4  A    between atoms: C_3  and  C_56
    5  A    between atoms: C_4  and  N_24
    6  A    between atoms: C_7  and  C_32
    7  A    between atoms: C_9  and  C_32
    8  A    between atoms: C_9  and  C_56
    9  A    between atoms: C_11  and  N_30
   10  A    between atoms: C_11  and  C_56
   11  A    between atoms: N_13  and  C_36
   12  A    between atoms: C_19  and  C_45
   13  A    between atoms: C_19  and  N_55
   14  A    between atoms: C_20  and  O_25
   15  A    between atoms: C_20  and  C_40
   16  A    between atoms: C_22  and  C_23
   17  A    between atoms: C_23  and  O_25
   18  A    between atoms: C_29  and  C_37
   19  A    between atoms: N_30  and  O_35
   20  A    between atoms: O_35  and  C_65
   21  A    between atoms: C_43  and  C_65
   22  A    between atoms: C_58  and  C_65
                            x       y       z     vdW  Elec       q    Type
                         _______ _______ _______ _____ _____    ______ ____

>  <TORSDO>
F 22

$$$$
=
 OpenBabel11062421293D

 66 71  0  0  1  0  0  0  0  0999 V2000
  192.3270  175.3520  142.9590 C   0  0  0  0  0  0  0  0  0  0  0  0
  193.0260  175.3000  141.8340 C   0  0  0  0  0  2  0  0  0  0  0  0
  191.2080  176.2360  143.0260 N   0  0  0  0  0  2  0  0  0  0  0  0
  190.0030  175.8380  143.5180 O   0  0  0  0  0  0  0  0  0  0  0  0
  189.1260  175.6510  142.4260 C   0  0  2  0  0  3  0  0  0  0  0  0
  189.0000  178.5100  141.6420 O   0  0  0  0  0  0  0  0  0  0  0  0
  185.5720  176.7980  142.7970 O   0  0  0  0  0  0  0  0  0  0  0  0
  187.9480  177.9700  142.0710 C   0  0  0  0  0  0  0  0  0  0  0  0
  186.7340  176.0160  142.7740 C   0  0  0  0  0  3  0  0  0  0  0  0
  187.9200  176.5500  142.4750 C   0  0  0  0  0  0  0  0  0  0  0  0
  186.7630  178.7040  142.1100 O   0  0  0  0  0  0  0  0  0  0  0  0
  185.6250  178.2260  142.8260 C   0  0  0  0  0  2  0  0  0  0  0  0
  189.4400  173.8540  140.6940 C   0  0  0  0  0  2  0  0  0  0  0  0
  189.1840  172.3890  140.3300 C   0  0  2  0  0  3  0  0  0  0  0  0
  189.4320  173.2430  143.1180 C   0  0  0  0  0  2  0  0  0  0  0  0
  188.8410  174.1840  142.0660 C   0  0  1  0  0  3  0  0  0  0  0  0
  189.7050  171.4440  141.4140 C   0  0  0  0  0  2  0  0  0  0  0  0
  189.1040  171.7980  142.7690 C   0  0  0  0  0  2  0  0  0  0  0  0
  189.7900  172.0600  139.0420 N   0  0  0  0  0  2  0  0  0  0  0  0
  192.0040  172.4640  139.6700 O   0  0  0  0  0  0  0  0  0  0  0  0
  191.2030  172.0290  138.7970 C   0  0  0  0  0  0  0  0  0  0  0  0
  191.3290  169.3520  136.2240 C   0  0  0  0  0  3  0  0  0  0  0  0
  192.1410  172.3040  136.5750 C   0  0  0  0  0  3  0  0  0  0  0  0
  191.7180  171.4660  137.5330 C   0  0  0  0  0  0  0  0  0  0  0  0
  192.4820  170.8220  134.5680 C   0  0  0  0  0  3  0  0  0  0  0  0
  191.9200  169.9780  137.4450 C   0  0  2  0  0  3  0  0  0  0  0  0
  191.6120  169.7050  134.9700 C   0  0  0  0  0  3  0  0  0  0  0  0
  192.7080  171.9410  135.2620 C   0  0  0  0  0  3  0  0  0  0  0  0
  193.3770  169.5860  137.6440 C   0  0  0  0  0  2  0  0  0  0  0  0
  195.0880  169.8060  141.1050 C   0  0  0  0  0  1  0  0  0  0  0  0
  195.1970  171.2190  139.1590 N   0  0  0  0  0  2  0  0  0  0  0  0
  193.6440  169.4320  139.0670 N   0  0  0  0  0  2  0  0  0  0  0  0
  194.6450  170.2000  139.7400 C   0  0  0  0  0  0  0  0  0  0  0  0
  192.8460  174.7140  144.2150 C   0  0  1  0  0  3  0  0  0  0  0  0
  191.4060  173.3740  145.6300 F   0  0  0  0  0  0  0  0  0  0  0  0
  191.8260  174.6630  145.3660 C   0  0  1  0  0  3  0  0  0  0  0  0
  193.5130  176.0710  146.3030 F   0  0  0  0  0  0  0  0  0  0  0  0
  192.3160  175.4470  146.6010 C   0  0  1  0  0  3  0  0  0  0  0  0
  189.1590  177.4490  147.3300 C   0  0  0  0  0  0  0  0  0  0  0  0
  191.3630  176.4090  147.2780 C   0  0  0  0  0  0  0  0  0  0  0  0
  190.8810  178.2040  148.8560 C   0  0  0  0  0  3  0  0  0  0  0  0
  191.7740  177.2810  148.3000 C   0  0  0  0  0  3  0  0  0  0  0  0
  190.0520  176.5210  146.7830 C   0  0  0  0  0  3  0  0  0  0  0  0
  189.5750  178.2850  148.3710 C   0  0  0  0  0  3  0  0  0  0  0  0
  187.8330  177.5490  146.8220 N   0  0  0  0  0  0  0  0  0  0  0  0
  186.7120  178.2880  146.1660 C   0  0  0  0  0  2  0  0  0  0  0  0
  186.4810  176.9820  146.5440 C   0  0  0  0  0  2  0  0  0  0  0  0
  193.6400  173.4300  143.9260 C   0  0  2  0  0  3  0  0  0  0  0  0
  192.8080  172.3220  143.2930 C   0  0  0  0  0  1  0  0  0  0  0  0
  194.7380  170.7360  144.9840 C   0  0  2  0  0  3  0  0  0  0  0  0
  194.4230  172.9980  145.1750 C   0  0  2  0  0  3  0  0  0  0  0  0
  196.1230  170.7490  145.1720 O   0  0  0  0  0  0  0  0  0  0  0  0
  196.6190  172.9470  144.2860 C   0  0  1  0  0  3  0  0  0  0  0  0
  195.7640  173.4420  145.3070 O   0  0  0  0  0  0  0  0  0  0  0  0
  194.1470  171.7440  145.7640 O   0  0  0  0  0  0  0  0  0  0  0  0
  196.6050  171.4270  144.0510 C   0  0  0  0  0  2  0  0  0  0  0  0
  196.6010  173.7880  143.0070 C   0  0  2  0  0  3  0  0  0  0  0  0
  196.5940  172.9730  141.8700 O   0  0  0  0  0  1  0  0  0  0  0  0
  197.7160  174.6290  142.9800 O   0  0  0  0  0  0  0  0  0  0  0  0
  197.4550  175.5390  141.9510 C   0  0  0  0  0  2  0  0  0  0  0  0
  196.9110  177.2430  143.5190 O   0  0  0  0  0  1  0  0  0  0  0  0
  196.4230  176.5490  142.4110 C   0  0  0  0  0  2  0  0  0  0  0  0
  194.1750  169.3770  145.3850 C   0  0  1  0  0  3  0  0  0  0  0  0
  193.8530  168.6440  144.2410 O   0  0  0  0  0  1  0  0  0  0  0  0
  194.7440  168.5340  147.6530 C   0  0  0  0  0  1  0  0  0  0  0  0
  195.1970  168.6070  146.2090 C   0  0  0  0  0  2  0  0  0  0  0  0
  1  3  1  0  0  0  0
  2  1  2  0  0  0  0
  3  4  1  0  0  0  0
  5 10  1  0  0  0  0
  5  4  1  1  0  0  0
  6  8  2  0  0  0  0
  7 12  1  0  0  0  0
  8 11  1  0  0  0  0
  8 10  1  0  0  0  0
  9  7  1  0  0  0  0
 10  9  2  0  0  0  0
 11 12  1  0  0  0  0
 13 16  1  0  0  0  0
 14 19  1  6  0  0  0
 14 13  1  0  0  0  0
 14 17  1  0  0  0  0
 16  5  1  1  0  0  0
 16 15  1  0  0  0  0
 17 18  1  0  0  0  0
 18 15  1  0  0  0  0
 21 19  1  0  0  0  0
 21 20  2  0  0  0  0
 22 26  1  0  0  0  0
 23 24  2  0  0  0  0
 24 21  1  0  0  0  0
 25 27  1  0  0  0  0
 25 28  2  0  0  0  0
 26 24  1  0  0  0  0
 26 29  1  6  0  0  0
 27 22  2  0  0  0  0
 28 23  1  0  0  0  0
 29 32  1  0  0  0  0
 31 33  2  0  0  0  0
 32 33  1  0  0  0  0
 33 30  1  0  0  0  0
 34  1  1  6  0  0  0
 34 36  1  0  0  0  0
 36 35  1  1  0  0  0
 36 38  1  0  0  0  0
 38 37  1  6  0  0  0
 38 40  1  0  0  0  0
 39 44  1  0  0  0  0
 40 42  2  0  0  0  0
 42 41  1  0  0  0  0
 43 40  1  0  0  0  0
 43 39  2  0  0  0  0
 44 41  2  0  0  0  0
 45 39  1  0  0  0  0
 46 47  1  0  0  0  0
 46 45  1  0  0  0  0
 47 45  1  0  0  0  0
 48 49  1  1  0  0  0
 48 34  1  0  0  0  0
 50 52  1  0  0  0  0
 50 63  1  1  0  0  0
 50 55  1  0  0  0  0
 51 48  1  6  0  0  0
 51 54  1  0  0  0  0
 51 55  1  0  0  0  0
 53 57  1  6  0  0  0
 53 54  1  0  0  0  0
 56 53  1  0  0  0  0
 56 52  1  0  0  0  0
 57 58  1  6  0  0  0
 59 57  1  0  0  0  0
 60 62  1  0  0  0  0
 60 59  1  0  0  0  0
 62 61  1  0  0  0  0
 63 64  1  6  0  0  0
 63 66  1  0  0  0  0
 66 65  1  0  0  0  0
M  END
>  <MODEL>
3

>  <REMARK>
 VINA RESULT:      -5.7      2.053      2.865
  Name = 
  22 active torsions:
  status: ('A' for Active; 'I' for Inactive)
    1  A    between atoms: C_1  and  C_8
    2  A    between atoms: C_1  and  C_47
    3  A    between atoms: C_3  and  C_14
    4  A    between atoms: C_3  and  C_56
    5  A    between atoms: C_4  and  N_24
    6  A    between atoms: C_7  and  C_32
    7  A    between atoms: C_9  and  C_32
    8  A    between atoms: C_9  and  C_56
    9  A    between atoms: C_11  and  N_30
   10  A    between atoms: C_11  and  C_56
   11  A    between atoms: N_13  and  C_36
   12  A    between atoms: C_19  and  C_45
   13  A    between atoms: C_19  and  N_55
   14  A    between atoms: C_20  and  O_25
   15  A    between atoms: C_20  and  C_40
   16  A    between atoms: C_22  and  C_23
   17  A    between atoms: C_23  and  O_25
   18  A    between atoms: C_29  and  C_37
   19  A    between atoms: N_30  and  O_35
   20  A    between atoms: O_35  and  C_65
   21  A    between atoms: C_43  and  C_65
   22  A    between atoms: C_58  and  C_65
                            x       y       z     vdW  Elec       q    Type
                         _______ _______ _______ _____ _____    ______ ____

>  <TORSDO>
F 22

$$$$
=
 OpenBabel11062421293D

 66 71  0  0  1  0  0  0  0  0999 V2000
  191.1210  176.4610  143.4870 C   0  0  0  0  0  0  0  0  0  0  0  0
  192.0800  177.1210  142.8550 C   0  0  0  0  0  2  0  0  0  0  0  0
  189.7910  176.9780  143.4400 N   0  0  0  0  0  2  0  0  0  0  0  0
  188.7010  176.1650  143.3830 O   0  0  0  0  0  0  0  0  0  0  0  0
  188.1920  176.2110  142.0660 C   0  0  2  0  0  3  0  0  0  0  0  0
  187.0450  177.5490  139.6790 O   0  0  0  0  0  0  0  0  0  0  0  0
  184.7530  177.4210  142.9580 O   0  0  0  0  0  0  0  0  0  0  0  0
  186.3680  177.5550  140.7400 C   0  0  0  0  0  0  0  0  0  0  0  0
  186.0200  176.8260  143.0050 C   0  0  0  0  0  3  0  0  0  0  0  0
  186.8600  176.9060  141.9710 C   0  0  0  0  0  0  0  0  0  0  0  0
  185.0990  178.1310  140.7430 O   0  0  0  0  0  0  0  0  0  0  0  0
  184.4150  178.3960  141.9680 C   0  0  0  0  0  2  0  0  0  0  0  0
  189.7600  174.6620  140.8550 C   0  0  0  0  0  2  0  0  0  0  0  0
  189.8960  173.3430  140.0880 C   0  0  2  0  0  3  0  0  0  0  0  0
  187.8260  173.7140  142.1250 C   0  0  0  0  0  2  0  0  0  0  0  0
  188.3060  174.8950  141.2780 C   0  0  1  0  0  3  0  0  0  0  0  0
  189.3490  172.1670  140.8990 C   0  0  0  0  0  2  0  0  0  0  0  0
  187.9060  172.4270  141.3160 C   0  0  0  0  0  2  0  0  0  0  0  0
  191.2870  173.0960  139.7200 N   0  0  0  0  0  2  0  0  0  0  0  0
  190.8490  172.0580  137.6740 O   0  0  0  0  0  0  0  0  0  0  0  0
  191.7060  172.5330  138.4680 C   0  0  0  0  0  0  0  0  0  0  0  0
  195.0720  174.1060  138.4470 C   0  0  0  0  0  3  0  0  0  0  0  0
  193.7650  171.3610  137.9440 C   0  0  0  0  0  3  0  0  0  0  0  0
  193.1360  172.5350  138.1030 C   0  0  0  0  0  0  0  0  0  0  0  0
  196.1980  171.9870  137.7610 C   0  0  0  0  0  3  0  0  0  0  0  0
  193.7800  173.8460  137.7430 C   0  0  2  0  0  3  0  0  0  0  0  0
  196.1350  173.3030  138.4160 C   0  0  0  0  0  3  0  0  0  0  0  0
  195.1750  171.1510  137.5590 C   0  0  0  0  0  3  0  0  0  0  0  0
  193.8980  174.0300  136.2370 C   0  0  0  0  0  2  0  0  0  0  0  0
  190.5000  175.6230  135.3040 C   0  0  0  0  0  1  0  0  0  0  0  0
  192.6390  176.5860  135.8450 N   0  0  0  0  0  2  0  0  0  0  0  0
  192.5710  174.2240  135.6710 N   0  0  0  0  0  2  0  0  0  0  0  0
  191.9530  175.5120  135.6070 C   0  0  0  0  0  0  0  0  0  0  0  0
  191.4550  175.3570  144.4490 C   0  0  1  0  0  3  0  0  0  0  0  0
  190.3060  173.2240  144.5070 F   0  0  0  0  0  0  0  0  0  0  0  0
  190.2380  174.5400  144.9200 C   0  0  1  0  0  3  0  0  0  0  0  0
  191.1250  174.4480  147.1370 F   0  0  0  0  0  0  0  0  0  0  0  0
  189.9720  174.7300  146.4280 C   0  0  1  0  0  3  0  0  0  0  0  0
  187.3940  177.4740  147.0070 C   0  0  0  0  0  0  0  0  0  0  0  0
  189.3550  176.0300  146.9000 C   0  0  0  0  0  0  0  0  0  0  0  0
  189.5270  178.2790  147.8230 C   0  0  0  0  0  3  0  0  0  0  0  0
  190.1200  177.0650  147.4610 C   0  0  0  0  0  3  0  0  0  0  0  0
  187.9900  176.2580  146.6550 C   0  0  0  0  0  3  0  0  0  0  0  0
  188.1640  178.4800  147.5970 C   0  0  0  0  0  3  0  0  0  0  0  0
  186.0090  177.6890  146.7570 N   0  0  0  0  0  0  0  0  0  0  0  0
  184.6150  177.2170  146.5000 C   0  0  0  0  0  2  0  0  0  0  0  0
  184.8300  178.5780  146.5430 C   0  0  0  0  0  2  0  0  0  0  0  0
  192.7010  174.5690  144.0150 C   0  0  2  0  0  3  0  0  0  0  0  0
  192.5410  173.8500  142.6810 C   0  0  0  0  0  1  0  0  0  0  0  0
  194.3840  171.9760  144.1890 C   0  0  2  0  0  3  0  0  0  0  0  0
  193.1870  173.6710  145.1630 C   0  0  2  0  0  3  0  0  0  0  0  0
  195.5380  172.1280  144.9630 O   0  0  0  0  0  0  0  0  0  0  0  0
  195.3910  174.4990  145.4270 C   0  0  1  0  0  3  0  0  0  0  0  0
  194.1550  174.1990  146.0570 O   0  0  0  0  0  0  0  0  0  0  0  0
  193.2520  172.2740  144.9670 O   0  0  0  0  0  0  0  0  0  0  0  0
  196.0290  173.3790  144.5870 C   0  0  0  0  0  2  0  0  0  0  0  0
  195.4290  175.8830  144.7730 C   0  0  2  0  0  3  0  0  0  0  0  0
  194.4410  176.7180  145.3070 O   0  0  0  0  0  1  0  0  0  0  0  0
  195.2480  175.7580  143.3930 O   0  0  0  0  0  0  0  0  0  0  0  0
  196.2360  176.5690  142.8260 C   0  0  0  0  0  2  0  0  0  0  0  0
  197.0210  176.0910  140.6340 O   0  0  0  0  0  1  0  0  0  0  0  0
  195.9900  176.7130  141.3380 C   0  0  0  0  0  2  0  0  0  0  0  0
  194.2920  170.5450  143.6730 C   0  0  1  0  0  3  0  0  0  0  0  0
  193.2380  169.8820  144.3060 O   0  0  0  0  0  1  0  0  0  0  0  0
  195.1140  171.3900  141.4850 C   0  0  0  0  0  1  0  0  0  0  0  0
  194.0620  170.5420  142.1690 C   0  0  0  0  0  2  0  0  0  0  0  0
  2  1  2  0  0  0  0
  3  1  1  0  0  0  0
  4  3  1  0  0  0  0
  5  4  1  1  0  0  0
  6  8  2  0  0  0  0
  7  9  1  0  0  0  0
  8 11  1  0  0  0  0
  8 10  1  0  0  0  0
 10  5  1  0  0  0  0
 10  9  2  0  0  0  0
 11 12  1  0  0  0  0
 12  7  1  0  0  0  0
 13 16  1  0  0  0  0
 14 19  1  1  0  0  0
 14 13  1  0  0  0  0
 14 17  1  0  0  0  0
 16  5  1  1  0  0  0
 16 15  1  0  0  0  0
 17 18  1  0  0  0  0
 18 15  1  0  0  0  0
 20 21  2  0  0  0  0
 21 19  1  0  0  0  0
 23 24  2  0  0  0  0
 24 21  1  0  0  0  0
 25 27  1  0  0  0  0
 26 29  1  6  0  0  0
 26 24  1  0  0  0  0
 26 22  1  0  0  0  0
 27 22  2  0  0  0  0
 28 25  2  0  0  0  0
 28 23  1  0  0  0  0
 30 33  1  0  0  0  0
 32 29  1  0  0  0  0
 33 32  1  0  0  0  0
 33 31  2  0  0  0  0
 34  1  1  6  0  0  0
 34 36  1  0  0  0  0
 36 35  1  1  0  0  0
 36 38  1  0  0  0  0
 38 40  1  0  0  0  0
 38 37  1  1  0  0  0
 39 44  1  0  0  0  0
 40 42  2  0  0  0  0
 42 41  1  0  0  0  0
 43 40  1  0  0  0  0
 43 39  2  0  0  0  0
 44 41  2  0  0  0  0
 45 39  1  0  0  0  0
 46 47  1  0  0  0  0
 46 45  1  0  0  0  0
 47 45  1  0  0  0  0
 48 49  1  6  0  0  0
 48 34  1  0  0  0  0
 50 63  1  1  0  0  0
 50 52  1  0  0  0  0
 50 55  1  0  0  0  0
 51 48  1  6  0  0  0
 51 54  1  0  0  0  0
 53 57  1  6  0  0  0
 53 54  1  0  0  0  0
 55 51  1  0  0  0  0
 56 52  1  0  0  0  0
 56 53  1  0  0  0  0
 57 58  1  1  0  0  0
 59 57  1  0  0  0  0
 60 59  1  0  0  0  0
 61 62  1  0  0  0  0
 62 60  1  0  0  0  0
 63 64  1  1  0  0  0
 65 66  1  0  0  0  0
 66 63  1  0  0  0  0
M  END
>  <MODEL>
4

>  <REMARK>
 VINA RESULT:      -5.7      1.425      2.313
  Name = 
  22 active torsions:
  status: ('A' for Active; 'I' for Inactive)
    1  A    between atoms: C_1  and  C_8
    2  A    between atoms: C_1  and  C_47
    3  A    between atoms: C_3  and  C_14
    4  A    between atoms: C_3  and  C_56
    5  A    between atoms: C_4  and  N_24
    6  A    between atoms: C_7  and  C_32
    7  A    between atoms: C_9  and  C_32
    8  A    between atoms: C_9  and  C_56
    9  A    between atoms: C_11  and  N_30
   10  A    between atoms: C_11  and  C_56
   11  A    between atoms: N_13  and  C_36
   12  A    between atoms: C_19  and  C_45
   13  A    between atoms: C_19  and  N_55
   14  A    between atoms: C_20  and  O_25
   15  A    between atoms: C_20  and  C_40
   16  A    between atoms: C_22  and  C_23
   17  A    between atoms: C_23  and  O_25
   18  A    between atoms: C_29  and  C_37
   19  A    between atoms: N_30  and  O_35
   20  A    between atoms: O_35  and  C_65
   21  A    between atoms: C_43  and  C_65
   22  A    between atoms: C_58  and  C_65
                            x       y       z     vdW  Elec       q    Type
                         _______ _______ _______ _____ _____    ______ ____

>  <TORSDO>
F 22

$$$$
=
 OpenBabel11062421293D

 66 71  0  0  1  0  0  0  0  0999 V2000
  191.1150  176.4110  143.6220 C   0  0  0  0  0  0  0  0  0  0  0  0
  192.0420  176.9580  142.8480 C   0  0  0  0  0  2  0  0  0  0  0  0
  189.8050  176.9780  143.6230 N   0  0  0  0  0  2  0  0  0  0  0  0
  188.6840  176.2070  143.5720 O   0  0  0  0  0  0  0  0  0  0  0  0
  188.2270  176.1920  142.2360 C   0  0  2  0  0  3  0  0  0  0  0  0
  187.1680  177.4170  139.7490 O   0  0  0  0  0  0  0  0  0  0  0  0
  184.7500  177.4180  142.9390 O   0  0  0  0  0  0  0  0  0  0  0  0
  186.4510  177.4660  140.7820 C   0  0  0  0  0  0  0  0  0  0  0  0
  186.0170  176.8330  143.0620 C   0  0  0  0  0  3  0  0  0  0  0  0
  186.8960  176.8740  142.0590 C   0  0  0  0  0  0  0  0  0  0  0  0
  185.1790  178.0330  140.7110 O   0  0  0  0  0  0  0  0  0  0  0  0
  184.4470  178.3470  141.8950 C   0  0  0  0  0  2  0  0  0  0  0  0
  189.7810  174.7280  140.9060 C   0  0  0  0  0  2  0  0  0  0  0  0
  189.9560  173.3810  140.2000 C   0  0  2  0  0  3  0  0  0  0  0  0
  188.1430  173.6810  142.4780 C   0  0  0  0  0  2  0  0  0  0  0  0
  188.3780  174.8440  141.5120 C   0  0  1  0  0  3  0  0  0  0  0  0
  189.6500  172.2130  141.1400 C   0  0  0  0  0  2  0  0  0  0  0  0
  188.2550  172.3560  141.7370 C   0  0  0  0  0  2  0  0  0  0  0  0
  191.3060  173.2490  139.6570 N   0  0  0  0  0  2  0  0  0  0  0  0
  190.8000  173.9540  137.4890 O   0  0  0  0  0  0  0  0  0  0  0  0
  191.6850  173.6320  138.3280 C   0  0  0  0  0  0  0  0  0  0  0  0
  194.6660  172.1740  136.6560 C   0  0  0  0  0  3  0  0  0  0  0  0
  193.7180  174.8610  137.8320 C   0  0  0  0  0  3  0  0  0  0  0  0
  193.1130  173.6710  137.9530 C   0  0  0  0  0  0  0  0  0  0  0  0
  195.9440  174.3140  136.7890 C   0  0  0  0  0  3  0  0  0  0  0  0
  193.8740  172.3740  137.9080 C   0  0  2  0  0  3  0  0  0  0  0  0
  195.5960  173.0120  136.1980 C   0  0  0  0  0  3  0  0  0  0  0  0
  195.1330  175.1090  137.4920 C   0  0  0  0  0  3  0  0  0  0  0  0
  194.7120  172.1580  139.1590 C   0  0  0  0  0  2  0  0  0  0  0  0
  192.5200  169.5940  141.0510 C   0  0  0  0  0  1  0  0  0  0  0  0
  194.2230  169.3320  139.3700 N   0  0  0  0  0  2  0  0  0  0  0  0
  193.8910  171.5310  140.1850 N   0  0  0  0  0  2  0  0  0  0  0  0
  193.5930  170.1320  140.1700 C   0  0  0  0  0  0  0  0  0  0  0  0
  191.4890  175.4010  144.6690 C   0  0  1  0  0  3  0  0  0  0  0  0
  190.4640  173.2110  144.8240 F   0  0  0  0  0  0  0  0  0  0  0  0
  190.3130  174.5410  145.1650 C   0  0  1  0  0  3  0  0  0  0  0  0
  191.1500  174.5660  147.4030 F   0  0  0  0  0  0  0  0  0  0  0  0
  190.0080  174.7930  146.6560 C   0  0  1  0  0  3  0  0  0  0  0  0
  187.3530  177.4870  147.1050 C   0  0  0  0  0  0  0  0  0  0  0  0
  189.3580  176.1020  147.0540 C   0  0  0  0  0  0  0  0  0  0  0  0
  189.4730  178.4120  147.8240 C   0  0  0  0  0  3  0  0  0  0  0  0
  190.0990  177.1960  147.5310 C   0  0  0  0  0  3  0  0  0  0  0  0
  187.9820  176.2700  146.8210 C   0  0  0  0  0  3  0  0  0  0  0  0
  188.1000  178.5540  147.6120 C   0  0  0  0  0  3  0  0  0  0  0  0
  185.9570  177.6420  146.8690 N   0  0  0  0  0  0  0  0  0  0  0  0
  184.6120  177.1310  146.4680 C   0  0  0  0  0  2  0  0  0  0  0  0
  184.7100  178.4590  146.8280 C   0  0  0  0  0  2  0  0  0  0  0  0
  192.7960  174.6690  144.3250 C   0  0  2  0  0  3  0  0  0  0  0  0
  192.6780  173.7240  143.1350 C   0  0  0  0  0  1  0  0  0  0  0  0
  194.7380  172.3180  144.8620 C   0  0  2  0  0  3  0  0  0  0  0  0
  193.3900  174.0240  145.5870 C   0  0  2  0  0  3  0  0  0  0  0  0
  195.8830  172.7080  145.5630 O   0  0  0  0  0  0  0  0  0  0  0  0
  195.5020  175.0970  145.6400 C   0  0  1  0  0  3  0  0  0  0  0  0
  194.3130  174.7850  146.3510 O   0  0  0  0  0  0  0  0  0  0  0  0
  193.5950  172.6260  145.6180 O   0  0  0  0  0  0  0  0  0  0  0  0
  196.2370  173.9220  144.9730 C   0  0  0  0  0  2  0  0  0  0  0  0
  195.3870  176.3510  144.7700 C   0  0  2  0  0  3  0  0  0  0  0  0
  194.3420  177.1720  145.2070 O   0  0  0  0  0  1  0  0  0  0  0  0
  195.1750  175.9840  143.4390 O   0  0  0  0  0  0  0  0  0  0  0  0
  196.1800  176.6400  142.7210 C   0  0  0  0  0  2  0  0  0  0  0  0
  196.7360  175.9640  140.5100 O   0  0  0  0  0  1  0  0  0  0  0  0
  195.8090  176.6960  141.2530 C   0  0  0  0  0  2  0  0  0  0  0  0
  194.7850  170.8200  144.5880 C   0  0  1  0  0  3  0  0  0  0  0  0
  195.2170  170.5930  143.2790 O   0  0  0  0  0  1  0  0  0  0  0  0
  194.9440  169.4020  146.6230 C   0  0  0  0  0  1  0  0  0  0  0  0
  195.7350  170.1360  145.5600 C   0  0  0  0  0  2  0  0  0  0  0  0
  1  3  1  0  0  0  0
  2  1  2  0  0  0  0
  4  3  1  0  0  0  0
  5  4  1  1  0  0  0
  6  8  2  0  0  0  0
  7  9  1  0  0  0  0
  8 10  1  0  0  0  0
 10  5  1  0  0  0  0
 10  9  2  0  0  0  0
 11  8  1  0  0  0  0
 11 12  1  0  0  0  0
 12  7  1  0  0  0  0
 13 16  1  0  0  0  0
 14 19  1  1  0  0  0
 14 13  1  0  0  0  0
 14 17  1  0  0  0  0
 16  5  1  1  0  0  0
 16 15  1  0  0  0  0
 17 18  1  0  0  0  0
 18 15  1  0  0  0  0
 20 21  2  0  0  0  0
 21 19  1  0  0  0  0
 22 26  1  0  0  0  0
 23 24  2  0  0  0  0
 24 21  1  0  0  0  0
 25 28  2  0  0  0  0
 26 24  1  0  0  0  0
 26 29  1  1  0  0  0
 27 22  2  0  0  0  0
 27 25  1  0  0  0  0
 28 23  1  0  0  0  0
 29 32  1  0  0  0  0
 31 33  2  0  0  0  0
 33 32  1  0  0  0  0
 33 30  1  0  0  0  0
 34  1  1  6  0  0  0
 34 36  1  0  0  0  0
 36 35  1  1  0  0  0
 36 38  1  0  0  0  0
 38 40  1  0  0  0  0
 38 37  1  1  0  0  0
 39 44  1  0  0  0  0
 40 42  2  0  0  0  0
 42 41  1  0  0  0  0
 43 40  1  0  0  0  0
 43 39  2  0  0  0  0
 44 41  2  0  0  0  0
 45 39  1  0  0  0  0
 46 47  1  0  0  0  0
 46 45  1  0  0  0  0
 47 45  1  0  0  0  0
 48 49  1  6  0  0  0
 48 34  1  0  0  0  0
 50 63  1  1  0  0  0
 50 52  1  0  0  0  0
 50 55  1  0  0  0  0
 51 48  1  6  0  0  0
 51 55  1  0  0  0  0
 51 54  1  0  0  0  0
 53 57  1  6  0  0  0
 53 54  1  0  0  0  0
 56 52  1  0  0  0  0
 56 53  1  0  0  0  0
 57 58  1  1  0  0  0
 59 57  1  0  0  0  0
 60 59  1  0  0  0  0
 61 62  1  0  0  0  0
 62 60  1  0  0  0  0
 63 64  1  6  0  0  0
 63 66  1  0  0  0  0
 66 65  1  0  0  0  0
M  END
>  <MODEL>
5

>  <REMARK>
 VINA RESULT:      -5.7      1.373      2.565
  Name = 
  22 active torsions:
  status: ('A' for Active; 'I' for Inactive)
    1  A    between atoms: C_1  and  C_8
    2  A    between atoms: C_1  and  C_47
    3  A    between atoms: C_3  and  C_14
    4  A    between atoms: C_3  and  C_56
    5  A    between atoms: C_4  and  N_24
    6  A    between atoms: C_7  and  C_32
    7  A    between atoms: C_9  and  C_32
    8  A    between atoms: C_9  and  C_56
    9  A    between atoms: C_11  and  N_30
   10  A    between atoms: C_11  and  C_56
   11  A    between atoms: N_13  and  C_36
   12  A    between atoms: C_19  and  C_45
   13  A    between atoms: C_19  and  N_55
   14  A    between atoms: C_20  and  O_25
   15  A    between atoms: C_20  and  C_40
   16  A    between atoms: C_22  and  C_23
   17  A    between atoms: C_23  and  O_25
   18  A    between atoms: C_29  and  C_37
   19  A    between atoms: N_30  and  O_35
   20  A    between atoms: O_35  and  C_65
   21  A    between atoms: C_43  and  C_65
   22  A    between atoms: C_58  and  C_65
                            x       y       z     vdW  Elec       q    Type
                         _______ _______ _______ _____ _____    ______ ____

>  <TORSDO>
F 22

$$$$
=
 OpenBabel11062421293D

 66 71  0  0  1  0  0  0  0  0999 V2000
  188.9970  175.3520  144.5030 C   0  0  0  0  0  0  0  0  0  0  0  0
  189.1490  175.3160  145.8190 C   0  0  0  0  0  2  0  0  0  0  0  0
  189.3610  174.2000  143.7430 N   0  0  0  0  0  2  0  0  0  0  0  0
  190.5540  173.5670  143.9160 O   0  0  0  0  0  0  0  0  0  0  0  0
  190.7490  172.6990  142.8180 C   0  0  2  0  0  3  0  0  0  0  0  0
  192.7760  172.7690  144.9850 O   0  0  0  0  0  0  0  0  0  0  0  0
  192.9770  169.7060  142.4170 O   0  0  0  0  0  0  0  0  0  0  0  0
  192.8610  171.8520  144.1270 C   0  0  0  0  0  0  0  0  0  0  0  0
  191.9590  170.6530  142.2470 C   0  0  0  0  0  3  0  0  0  0  0  0
  191.8900  171.7380  143.0210 C   0  0  0  0  0  0  0  0  0  0  0  0
  193.8540  170.8810  144.2540 O   0  0  0  0  0  0  0  0  0  0  0  0
  194.1520  169.9900  143.1800 C   0  0  0  0  0  2  0  0  0  0  0  0
  192.0560  173.2670  140.7460 C   0  0  0  0  0  2  0  0  0  0  0  0
  192.0120  173.9150  139.3590 C   0  0  2  0  0  3  0  0  0  0  0  0
  189.6240  172.7220  140.5590 C   0  0  0  0  0  2  0  0  0  0  0  0
  190.6930  173.3740  141.4380 C   0  0  1  0  0  3  0  0  0  0  0  0
  190.8950  173.3200  138.5000 C   0  0  0  0  0  2  0  0  0  0  0  0
  189.5530  173.4290  139.2130 C   0  0  0  0  0  2  0  0  0  0  0  0
  193.2970  173.7780  138.6790 N   0  0  0  0  0  2  0  0  0  0  0  0
  193.0320  175.5870  137.2260 O   0  0  0  0  0  0  0  0  0  0  0  0
  193.7900  174.6900  137.6870 C   0  0  0  0  0  0  0  0  0  0  0  0
  196.7470  172.7100  136.6200 C   0  0  0  0  0  3  0  0  0  0  0  0
  195.7200  175.6150  136.5430 C   0  0  0  0  0  3  0  0  0  0  0  0
  195.1890  174.5910  137.2280 C   0  0  0  0  0  0  0  0  0  0  0  0
  197.9090  174.7120  135.6870 C   0  0  0  0  0  3  0  0  0  0  0  0
  196.0170  173.4310  137.7070 C   0  0  2  0  0  3  0  0  0  0  0  0
  197.6010  173.2750  135.7680 C   0  0  0  0  0  3  0  0  0  0  0  0
  197.0970  175.7190  136.0220 C   0  0  0  0  0  3  0  0  0  0  0  0
  196.9360  173.8200  138.8560 C   0  0  0  0  0  2  0  0  0  0  0  0
  196.9400  172.3700  142.4410 C   0  0  0  0  0  1  0  0  0  0  0  0
  197.9300  174.3530  141.5020 N   0  0  0  0  0  2  0  0  0  0  0  0
  196.5410  173.0930  140.0550 N   0  0  0  0  0  2  0  0  0  0  0  0
  197.1560  173.3290  141.3240 C   0  0  0  0  0  0  0  0  0  0  0  0
  188.7140  176.6470  143.7990 C   0  0  1  0  0  3  0  0  0  0  0  0
  189.1960  177.8050  141.7250 F   0  0  0  0  0  0  0  0  0  0  0  0
  189.7450  177.0170  142.7180 C   0  0  1  0  0  3  0  0  0  0  0  0
  190.8670  177.7600  144.6920 F   0  0  0  0  0  0  0  0  0  0  0  0
  191.0460  177.5710  143.3340 C   0  0  1  0  0  3  0  0  0  0  0  0
  194.3060  175.6980  143.9460 C   0  0  0  0  0  0  0  0  0  0  0  0
  192.3480  176.8460  143.0600 C   0  0  0  0  0  0  0  0  0  0  0  0
  194.1630  176.1760  141.5770 C   0  0  0  0  0  3  0  0  0  0  0  0
  192.9250  176.7970  141.7800 C   0  0  0  0  0  3  0  0  0  0  0  0
  193.0640  176.3110  144.1440 C   0  0  0  0  0  3  0  0  0  0  0  0
  194.8500  175.6270  142.6610 C   0  0  0  0  0  3  0  0  0  0  0  0
  195.0190  175.1550  145.0540 N   0  0  0  0  0  0  0  0  0  0  0  0
  195.2240  174.9160  146.5140 C   0  0  0  0  0  2  0  0  0  0  0  0
  196.1530  174.3870  145.6430 C   0  0  0  0  0  2  0  0  0  0  0  0
  187.2290  176.7910  143.4280 C   0  0  2  0  0  3  0  0  0  0  0  0
  186.7800  175.8550  142.3120 C   0  0  0  0  0  1  0  0  0  0  0  0
  184.8840  178.2870  142.0680 C   0  0  2  0  0  3  0  0  0  0  0  0
  186.8820  178.2690  143.1910 C   0  0  2  0  0  3  0  0  0  0  0  0
  184.2190  179.1590  142.9360 O   0  0  0  0  0  0  0  0  0  0  0  0
  185.3860  178.6330  144.9910 C   0  0  1  0  0  3  0  0  0  0  0  0
  186.5590  179.0660  144.3200 O   0  0  0  0  0  0  0  0  0  0  0  0
  186.2400  178.6440  141.9890 O   0  0  0  0  0  0  0  0  0  0  0  0
  184.1280  178.4380  144.1270 C   0  0  0  0  0  2  0  0  0  0  0  0
  185.6350  177.5190  146.0100 C   0  0  2  0  0  3  0  0  0  0  0  0
  184.9790  176.3400  145.6380 O   0  0  0  0  0  1  0  0  0  0  0  0
  185.1970  177.9260  147.2730 O   0  0  0  0  0  0  0  0  0  0  0  0
  186.1940  177.4990  148.1550 C   0  0  0  0  0  2  0  0  0  0  0  0
  187.4390  179.4260  148.7800 O   0  0  0  0  0  1  0  0  0  0  0  0
  187.4540  178.3120  147.9390 C   0  0  0  0  0  2  0  0  0  0  0  0
  184.2520  178.3550  140.6840 C   0  0  1  0  0  3  0  0  0  0  0  0
  185.0940  177.7440  139.7500 O   0  0  0  0  0  1  0  0  0  0  0  0
  181.7880  178.6740  140.7290 C   0  0  0  0  0  1  0  0  0  0  0  0
  182.9030  177.6510  140.6850 C   0  0  0  0  0  2  0  0  0  0  0  0
  1  2  2  0  0  0  0
  3  4  1  0  0  0  0
  3  1  1  0  0  0  0
  5 10  1  0  0  0  0
  5  4  1  1  0  0  0
  7 12  1  0  0  0  0
  8 11  1  0  0  0  0
  8  6  2  0  0  0  0
  9  7  1  0  0  0  0
  9 10  2  0  0  0  0
 10  8  1  0  0  0  0
 12 11  1  0  0  0  0
 13 16  1  0  0  0  0
 14 19  1  6  0  0  0
 14 13  1  0  0  0  0
 15 16  1  0  0  0  0
 16  5  1  1  0  0  0
 17 18  1  0  0  0  0
 17 14  1  0  0  0  0
 18 15  1  0  0  0  0
 20 21  2  0  0  0  0
 21 19  1  0  0  0  0
 22 26  1  0  0  0  0
 23 24  2  0  0  0  0
 24 21  1  0  0  0  0
 24 26  1  0  0  0  0
 25 27  1  0  0  0  0
 25 28  2  0  0  0  0
 26 29  1  1  0  0  0
 27 22  2  0  0  0  0
 28 23  1  0  0  0  0
 29 32  1  0  0  0  0
 32 33  1  0  0  0  0
 33 31  2  0  0  0  0
 33 30  1  0  0  0  0
 34  1  1  6  0  0  0
 36 35  1  6  0  0  0
 36 38  1  0  0  0  0
 36 34  1  0  0  0  0
 38 37  1  1  0  0  0
 39 43  1  0  0  0  0
 39 45  1  0  0  0  0
 40 38  1  0  0  0  0
 40 43  2  0  0  0  0
 41 42  2  0  0  0  0
 41 44  1  0  0  0  0
 42 40  1  0  0  0  0
 44 39  2  0  0  0  0
 45 47  1  0  0  0  0
 45 46  1  0  0  0  0
 47 46  1  0  0  0  0
 48 49  1  6  0  0  0
 48 34  1  0  0  0  0
 50 63  1  6  0  0  0
 50 52  1  0  0  0  0
 51 48  1  1  0  0  0
 51 54  1  0  0  0  0
 52 56  1  0  0  0  0
 53 57  1  6  0  0  0
 54 53  1  0  0  0  0
 55 50  1  0  0  0  0
 55 51  1  0  0  0  0
 56 53  1  0  0  0  0
 57 58  1  6  0  0  0
 57 59  1  0  0  0  0
 59 60  1  0  0  0  0
 62 60  1  0  0  0  0
 62 61  1  0  0  0  0
 63 64  1  6  0  0  0
 63 66  1  0  0  0  0
 66 65  1  0  0  0  0
M  END
>  <MODEL>
6

>  <REMARK>
 VINA RESULT:      -5.1      2.296      7.663
  Name = 
  22 active torsions:
  status: ('A' for Active; 'I' for Inactive)
    1  A    between atoms: C_1  and  C_8
    2  A    between atoms: C_1  and  C_47
    3  A    between atoms: C_3  and  C_14
    4  A    between atoms: C_3  and  C_56
    5  A    between atoms: C_4  and  N_24
    6  A    between atoms: C_7  and  C_32
    7  A    between atoms: C_9  and  C_32
    8  A    between atoms: C_9  and  C_56
    9  A    between atoms: C_11  and  N_30
   10  A    between atoms: C_11  and  C_56
   11  A    between atoms: N_13  and  C_36
   12  A    between atoms: C_19  and  C_45
   13  A    between atoms: C_19  and  N_55
   14  A    between atoms: C_20  and  O_25
   15  A    between atoms: C_20  and  C_40
   16  A    between atoms: C_22  and  C_23
   17  A    between atoms: C_23  and  O_25
   18  A    between atoms: C_29  and  C_37
   19  A    between atoms: N_30  and  O_35
   20  A    between atoms: O_35  and  C_65
   21  A    between atoms: C_43  and  C_65
   22  A    between atoms: C_58  and  C_65
                            x       y       z     vdW  Elec       q    Type
                         _______ _______ _______ _____ _____    ______ ____

>  <TORSDO>
F 22

$$$$
=
 OpenBabel11062421293D

 66 71  0  0  1  0  0  0  0  0999 V2000
  188.7640  173.7860  139.8500 C   0  0  0  0  0  0  0  0  0  0  0  0
  187.8450  172.8350  139.9290 C   0  0  0  0  0  2  0  0  0  0  0  0
  189.6630  173.7750  138.7410 N   0  0  0  0  0  2  0  0  0  0  0  0
  189.2810  173.3530  137.5050 O   0  0  0  0  0  0  0  0  0  0  0  0
  190.4090  173.4090  136.6570 C   0  0  2  0  0  3  0  0  0  0  0  0
  189.2150  170.7830  137.3520 O   0  0  0  0  0  0  0  0  0  0  0  0
  192.4750  170.7310  135.0300 O   0  0  0  0  0  0  0  0  0  0  0  0
  190.2780  170.7870  136.6780 C   0  0  0  0  0  0  0  0  0  0  0  0
  191.9690  171.9700  135.4420 C   0  0  0  0  0  3  0  0  0  0  0  0
  190.9350  172.0490  136.2820 C   0  0  0  0  0  0  0  0  0  0  0  0
  190.8190  169.5800  136.2390 O   0  0  0  0  0  0  0  0  0  0  0  0
  192.1430  169.5170  135.7090 C   0  0  0  0  0  2  0  0  0  0  0  0
  192.5140  173.7860  137.9810 C   0  0  0  0  0  2  0  0  0  0  0  0
  193.5980  174.7930  138.3770 C   0  0  2  0  0  3  0  0  0  0  0  0
  192.1770  175.0080  135.8270 C   0  0  0  0  0  2  0  0  0  0  0  0
  191.4760  174.4390  137.0620 C   0  0  1  0  0  3  0  0  0  0  0  0
  194.2520  175.4220  137.1450 C   0  0  0  0  0  2  0  0  0  0  0  0
  193.1990  176.0560  136.2430 C   0  0  0  0  0  2  0  0  0  0  0  0
  194.6120  174.1630  139.2180 N   0  0  0  0  0  2  0  0  0  0  0  0
  194.6670  175.8170  140.8660 O   0  0  0  0  0  0  0  0  0  0  0  0
  195.0420  174.6730  140.4880 C   0  0  0  0  0  0  0  0  0  0  0  0
  195.5730  172.5570  143.4950 C   0  0  0  0  0  3  0  0  0  0  0  0
  196.9540  173.2170  140.8210 C   0  0  0  0  0  3  0  0  0  0  0  0
  195.9010  173.8480  141.3600 C   0  0  0  0  0  0  0  0  0  0  0  0
  197.7500  171.6780  142.6480 C   0  0  0  0  0  3  0  0  0  0  0  0
  195.6690  173.8990  142.8450 C   0  0  2  0  0  3  0  0  0  0  0  0
  196.5070  171.6080  143.4330 C   0  0  0  0  0  3  0  0  0  0  0  0
  197.9400  172.3720  141.5220 C   0  0  0  0  0  3  0  0  0  0  0  0
  196.6660  174.8090  143.5480 C   0  0  0  0  0  2  0  0  0  0  0  0
  194.3430  177.1110  145.6110 C   0  0  0  0  0  1  0  0  0  0  0  0
  195.4210  175.0220  146.1320 N   0  0  0  0  0  2  0  0  0  0  0  0
  195.9740  175.9900  144.0420 N   0  0  0  0  0  2  0  0  0  0  0  0
  195.2760  175.9970  145.2900 C   0  0  0  0  0  0  0  0  0  0  0  0
  189.0370  174.6880  141.0190 C   0  0  1  0  0  3  0  0  0  0  0  0
  187.6380  174.7640  142.9960 F   0  0  0  0  0  0  0  0  0  0  0  0
  187.7710  175.2330  141.7040 C   0  0  1  0  0  3  0  0  0  0  0  0
  187.6160  177.0990  140.2200 F   0  0  0  0  0  0  0  0  0  0  0  0
  187.6580  176.7650  141.5610 C   0  0  1  0  0  3  0  0  0  0  0  0
  184.2670  178.2790  142.4100 C   0  0  0  0  0  0  0  0  0  0  0  0
  186.5720  177.4900  142.3280 C   0  0  0  0  0  0  0  0  0  0  0  0
  185.8180  178.9130  144.1580 C   0  0  0  0  0  3  0  0  0  0  0  0
  186.8330  178.1990  143.5130 C   0  0  0  0  0  3  0  0  0  0  0  0
  185.2830  177.5590  141.7720 C   0  0  0  0  0  3  0  0  0  0  0  0
  184.5360  178.9500  143.6060 C   0  0  0  0  0  3  0  0  0  0  0  0
  182.9650  178.3370  141.8360 N   0  0  0  0  0  0  0  0  0  0  0  0
  181.9170  177.8920  140.8690 C   0  0  0  0  0  2  0  0  0  0  0  0
  181.5890  178.9050  141.7440 C   0  0  0  0  0  2  0  0  0  0  0  0
  190.1440  174.1340  141.9310 C   0  0  2  0  0  3  0  0  0  0  0  0
  191.5520  174.3590  141.3950 C   0  0  0  0  0  1  0  0  0  0  0  0
  191.7920  171.5160  142.0280 C   0  0  2  0  0  3  0  0  0  0  0  0
  189.8370  172.6780  142.3120 C   0  0  2  0  0  3  0  0  0  0  0  0
  191.8250  170.9410  143.3020 O   0  0  0  0  0  0  0  0  0  0  0  0
  190.6490  172.6580  144.5380 C   0  0  1  0  0  3  0  0  0  0  0  0
  189.5540  172.3920  143.6740 O   0  0  0  0  0  0  0  0  0  0  0  0
  190.4600  171.6310  141.5970 O   0  0  0  0  0  0  0  0  0  0  0  0
  192.0010  172.0310  144.1550 C   0  0  0  0  0  2  0  0  0  0  0  0
  190.7320  174.1160  144.9960 C   0  0  2  0  0  3  0  0  0  0  0  0
  191.9970  174.4090  145.5160 O   0  0  0  0  0  1  0  0  0  0  0  0
  189.7540  174.3640  145.9630 O   0  0  0  0  0  0  0  0  0  0  0  0
  189.1010  175.5210  145.5250 C   0  0  0  0  0  2  0  0  0  0  0  0
  189.8640  177.7350  145.1130 O   0  0  0  0  0  1  0  0  0  0  0  0
  189.7890  176.7450  146.0940 C   0  0  0  0  0  2  0  0  0  0  0  0
  192.5770  170.6500  141.0500 C   0  0  1  0  0  3  0  0  0  0  0  0
  193.0830  169.5300  141.7140 O   0  0  0  0  0  1  0  0  0  0  0  0
  191.0100  168.8870  140.2670 C   0  0  0  0  0  1  0  0  0  0  0  0
  191.6780  170.1980  139.9080 C   0  0  0  0  0  2  0  0  0  0  0  0
  1  2  2  0  0  0  0
  3  1  1  0  0  0  0
  4  3  1  0  0  0  0
  5  4  1  1  0  0  0
  7  9  1  0  0  0  0
  7 12  1  0  0  0  0
  8  6  2  0  0  0  0
  9 10  2  0  0  0  0
 10  5  1  0  0  0  0
 10  8  1  0  0  0  0
 11  8  1  0  0  0  0
 12 11  1  0  0  0  0
 13 14  1  0  0  0  0
 14 19  1  6  0  0  0
 15 18  1  0  0  0  0
 15 16  1  0  0  0  0
 16  5  1  6  0  0  0
 16 13  1  0  0  0  0
 17 14  1  0  0  0  0
 18 17  1  0  0  0  0
 19 21  1  0  0  0  0
 21 20  2  0  0  0  0
 21 24  1  0  0  0  0
 23 24  2  0  0  0  0
 23 28  1  0  0  0  0
 24 26  1  0  0  0  0
 25 27  1  0  0  0  0
 26 22  1  0  0  0  0
 26 29  1  1  0  0  0
 27 22  2  0  0  0  0
 28 25  2  0  0  0  0
 29 32  1  0  0  0  0
 32 33  1  0  0  0  0
 33 30  1  0  0  0  0
 33 31  2  0  0  0  0
 34  1  1  6  0  0  0
 34 36  1  0  0  0  0
 34 48  1  0  0  0  0
 36 35  1  1  0  0  0
 38 37  1  6  0  0  0
 38 36  1  0  0  0  0
 38 40  1  0  0  0  0
 39 44  1  0  0  0  0
 40 42  2  0  0  0  0
 42 41  1  0  0  0  0
 43 40  1  0  0  0  0
 43 39  2  0  0  0  0
 44 41  2  0  0  0  0
 45 39  1  0  0  0  0
 46 47  1  0  0  0  0
 46 45  1  0  0  0  0
 47 45  1  0  0  0  0
 48 49  1  6  0  0  0
 50 63  1  6  0  0  0
 50 52  1  0  0  0  0
 51 48  1  1  0  0  0
 51 54  1  0  0  0  0
 52 56  1  0  0  0  0
 53 57  1  6  0  0  0
 54 53  1  0  0  0  0
 55 50  1  0  0  0  0
 55 51  1  0  0  0  0
 56 53  1  0  0  0  0
 57 58  1  1  0  0  0
 57 59  1  0  0  0  0
 60 59  1  0  0  0  0
 60 62  1  0  0  0  0
 61 62  1  0  0  0  0
 63 64  1  1  0  0  0
 66 65  1  0  0  0  0
 66 63  1  0  0  0  0
M  END
>  <MODEL>
7

>  <REMARK>
 VINA RESULT:      -4.8      2.593      6.079
  Name = 
  22 active torsions:
  status: ('A' for Active; 'I' for Inactive)
    1  A    between atoms: C_1  and  C_8
    2  A    between atoms: C_1  and  C_47
    3  A    between atoms: C_3  and  C_14
    4  A    between atoms: C_3  and  C_56
    5  A    between atoms: C_4  and  N_24
    6  A    between atoms: C_7  and  C_32
    7  A    between atoms: C_9  and  C_32
    8  A    between atoms: C_9  and  C_56
    9  A    between atoms: C_11  and  N_30
   10  A    between atoms: C_11  and  C_56
   11  A    between atoms: N_13  and  C_36
   12  A    between atoms: C_19  and  C_45
   13  A    between atoms: C_19  and  N_55
   14  A    between atoms: C_20  and  O_25
   15  A    between atoms: C_20  and  C_40
   16  A    between atoms: C_22  and  C_23
   17  A    between atoms: C_23  and  O_25
   18  A    between atoms: C_29  and  C_37
   19  A    between atoms: N_30  and  O_35
   20  A    between atoms: O_35  and  C_65
   21  A    between atoms: C_43  and  C_65
   22  A    between atoms: C_58  and  C_65
                            x       y       z     vdW  Elec       q    Type
                         _______ _______ _______ _____ _____    ______ ____

>  <TORSDO>
F 22

$$$$
=
 OpenBabel11062421293D

 66 71  0  0  1  0  0  0  0  0999 V2000
  194.1980  173.9350  140.7640 C   0  0  0  0  0  0  0  0  0  0  0  0
  195.4010  174.4370  140.5240 C   0  0  0  0  0  2  0  0  0  0  0  0
  193.6100  174.1540  142.0460 N   0  0  0  0  0  2  0  0  0  0  0  0
  193.6020  175.3800  142.6370 O   0  0  0  0  0  0  0  0  0  0  0  0
  193.8050  175.1970  144.0230 C   0  0  2  0  0  3  0  0  0  0  0  0
  196.3100  176.5280  143.1510 O   0  0  0  0  0  0  0  0  0  0  0  0
  196.6850  173.4120  145.6370 O   0  0  0  0  0  0  0  0  0  0  0  0
  196.4080  175.5060  143.8800 C   0  0  0  0  0  0  0  0  0  0  0  0
  195.3980  173.8090  145.2530 C   0  0  0  0  0  3  0  0  0  0  0  0
  195.2130  174.7880  144.3650 C   0  0  0  0  0  0  0  0  0  0  0  0
  197.6670  175.0730  144.2930 O   0  0  0  0  0  0  0  0  0  0  0  0
  197.8440  173.7880  144.8880 C   0  0  0  0  0  2  0  0  0  0  0  0
  191.6260  175.3780  145.2660 C   0  0  0  0  0  2  0  0  0  0  0  0
  190.5020  174.6110  145.9680 C   0  0  2  0  0  3  0  0  0  0  0  0
  192.0490  173.3970  143.8010 C   0  0  0  0  0  2  0  0  0  0  0  0
  192.6970  174.4140  144.7440 C   0  0  1  0  0  3  0  0  0  0  0  0
  189.9000  173.5410  145.0550 C   0  0  0  0  0  2  0  0  0  0  0  0
  190.9850  172.6020  144.5420 C   0  0  0  0  0  2  0  0  0  0  0  0
  189.4580  175.5230  146.4290 N   0  0  0  0  0  2  0  0  0  0  0  0
  189.3590  176.8270  144.4940 O   0  0  0  0  0  0  0  0  0  0  0  0
  188.8660  176.5510  145.6220 C   0  0  0  0  0  0  0  0  0  0  0  0
  185.1830  176.8920  145.9660 C   0  0  0  0  0  3  0  0  0  0  0  0
  187.7670  178.0290  147.2020 C   0  0  0  0  0  3  0  0  0  0  0  0
  187.6680  177.2660  146.1040 C   0  0  0  0  0  0  0  0  0  0  0  0
  185.3830  178.6190  147.7570 C   0  0  0  0  0  3  0  0  0  0  0  0
  186.4370  177.2570  145.2400 C   0  0  2  0  0  3  0  0  0  0  0  0
  184.7130  177.5200  147.0430 C   0  0  0  0  0  3  0  0  0  0  0  0
  186.6990  178.8360  147.8240 C   0  0  0  0  0  3  0  0  0  0  0  0
  186.2870  178.5470  144.4460 C   0  0  0  0  0  2  0  0  0  0  0  0
  183.4500  177.9170  141.8950 C   0  0  0  0  0  1  0  0  0  0  0  0
  183.5190  179.1570  143.9580 N   0  0  0  0  0  2  0  0  0  0  0  0
  185.5810  178.2680  143.2040 N   0  0  0  0  0  2  0  0  0  0  0  0
  184.1760  178.4900  143.0610 C   0  0  0  0  0  0  0  0  0  0  0  0
  193.5820  172.9380  139.8250 C   0  0  1  0  0  3  0  0  0  0  0  0
  192.1480  173.6020  137.9880 F   0  0  0  0  0  0  0  0  0  0  0  0
  192.1710  173.3150  139.3390 C   0  0  1  0  0  3  0  0  0  0  0  0
  191.7340  171.2780  140.5070 F   0  0  0  0  0  0  0  0  0  0  0  0
  191.1150  172.2900  139.7980 C   0  0  1  0  0  3  0  0  0  0  0  0
  188.4770  174.6710  141.1700 C   0  0  0  0  0  0  0  0  0  0  0  0
  189.8890  172.7890  140.5350 C   0  0  0  0  0  0  0  0  0  0  0  0
  188.0590  172.4820  142.1160 C   0  0  0  0  0  3  0  0  0  0  0  0
  189.1450  171.9680  141.3990 C   0  0  0  0  0  3  0  0  0  0  0  0
  189.5570  174.1520  140.4480 C   0  0  0  0  0  3  0  0  0  0  0  0
  187.7260  173.8320  141.9980 C   0  0  0  0  0  3  0  0  0  0  0  0
  188.1490  176.0530  141.0680 N   0  0  0  0  0  0  0  0  0  0  0  0
  188.2930  177.4870  141.4650 C   0  0  0  0  0  2  0  0  0  0  0  0
  187.3790  177.1860  140.4760 C   0  0  0  0  0  2  0  0  0  0  0  0
  194.5810  172.4500  138.7630 C   0  0  2  0  0  3  0  0  0  0  0  0
  194.8130  173.4460  137.6340 C   0  0  0  0  0  1  0  0  0  0  0  0
  195.6560  170.5210  136.5940 C   0  0  2  0  0  3  0  0  0  0  0  0
  194.2060  171.0360  138.2920 C   0  0  2  0  0  3  0  0  0  0  0  0
  196.0930  169.3010  137.1190 O   0  0  0  0  0  0  0  0  0  0  0  0
  195.8190  169.7680  139.4780 C   0  0  1  0  0  3  0  0  0  0  0  0
  194.4430  169.9550  139.1810 O   0  0  0  0  0  0  0  0  0  0  0  0
  194.3030  170.7160  136.9200 O   0  0  0  0  0  0  0  0  0  0  0  0
  196.7780  169.6640  138.2790 C   0  0  0  0  0  2  0  0  0  0  0  0
  196.3260  170.6500  140.6220 C   0  0  2  0  0  3  0  0  0  0  0  0
  197.5800  170.2210  141.0710 O   0  0  0  0  0  1  0  0  0  0  0  0
  195.4120  170.6250  141.6790 O   0  0  0  0  0  0  0  0  0  0  0  0
  196.0500  171.3030  142.7220 C   0  0  0  0  0  2  0  0  0  0  0  0
  195.1760  169.3550  143.7690 O   0  0  0  0  0  1  0  0  0  0  0  0
  195.8390  170.5560  144.0230 C   0  0  0  0  0  2  0  0  0  0  0  0
  195.8260  170.5210  135.0790 C   0  0  1  0  0  3  0  0  0  0  0  0
  195.0450  171.5350  134.5180 O   0  0  0  0  0  1  0  0  0  0  0  0
  197.8230  171.9520  135.4550 C   0  0  0  0  0  1  0  0  0  0  0  0
  197.2860  170.7460  134.7140 C   0  0  0  0  0  2  0  0  0  0  0  0
  1  3  1  0  0  0  0
  2  1  2  0  0  0  0
  3  4  1  0  0  0  0
  5  4  1  6  0  0  0
  5 10  1  0  0  0  0
  6  8  2  0  0  0  0
  8 11  1  0  0  0  0
  8 10  1  0  0  0  0
  9  7  1  0  0  0  0
 10  9  2  0  0  0  0
 11 12  1  0  0  0  0
 12  7  1  0  0  0  0
 13 14  1  0  0  0  0
 14 19  1  6  0  0  0
 15 18  1  0  0  0  0
 15 16  1  0  0  0  0
 16  5  1  6  0  0  0
 16 13  1  0  0  0  0
 17 14  1  0  0  0  0
 18 17  1  0  0  0  0
 20 21  2  0  0  0  0
 21 24  1  0  0  0  0
 21 19  1  0  0  0  0
 22 27  2  0  0  0  0
 23 28  1  0  0  0  0
 24 23  2  0  0  0  0
 25 28  2  0  0  0  0
 26 29  1  1  0  0  0
 26 22  1  0  0  0  0
 26 24  1  0  0  0  0
 27 25  1  0  0  0  0
 30 33  1  0  0  0  0
 32 29  1  0  0  0  0
 33 32  1  0  0  0  0
 33 31  2  0  0  0  0
 34  1  1  6  0  0  0
 36 35  1  6  0  0  0
 36 38  1  0  0  0  0
 36 34  1  0  0  0  0
 38 37  1  1  0  0  0
 38 40  1  0  0  0  0
 39 44  1  0  0  0  0
 40 42  2  0  0  0  0
 42 41  1  0  0  0  0
 43 40  1  0  0  0  0
 43 39  2  0  0  0  0
 44 41  2  0  0  0  0
 45 39  1  0  0  0  0
 45 46  1  0  0  0  0
 47 45  1  0  0  0  0
 47 46  1  0  0  0  0
 48 49  1  6  0  0  0
 48 34  1  0  0  0  0
 50 63  1  6  0  0  0
 50 55  1  0  0  0  0
 50 52  1  0  0  0  0
 51 48  1  1  0  0  0
 51 54  1  0  0  0  0
 52 56  1  0  0  0  0
 53 57  1  1  0  0  0
 54 53  1  0  0  0  0
 55 51  1  0  0  0  0
 56 53  1  0  0  0  0
 57 58  1  1  0  0  0
 57 59  1  0  0  0  0
 59 60  1  0  0  0  0
 60 62  1  0  0  0  0
 61 62  1  0  0  0  0
 63 64  1  6  0  0  0
 66 63  1  0  0  0  0
 66 65  1  0  0  0  0
M  END
>  <MODEL>
8

>  <REMARK>
 VINA RESULT:      -4.8      2.559      8.742
  Name = 
  22 active torsions:
  status: ('A' for Active; 'I' for Inactive)
    1  A    between atoms: C_1  and  C_8
    2  A    between atoms: C_1  and  C_47
    3  A    between atoms: C_3  and  C_14
    4  A    between atoms: C_3  and  C_56
    5  A    between atoms: C_4  and  N_24
    6  A    between atoms: C_7  and  C_32
    7  A    between atoms: C_9  and  C_32
    8  A    between atoms: C_9  and  C_56
    9  A    between atoms: C_11  and  N_30
   10  A    between atoms: C_11  and  C_56
   11  A    between atoms: N_13  and  C_36
   12  A    between atoms: C_19  and  C_45
   13  A    between atoms: C_19  and  N_55
   14  A    between atoms: C_20  and  O_25
   15  A    between atoms: C_20  and  C_40
   16  A    between atoms: C_22  and  C_23
   17  A    between atoms: C_23  and  O_25
   18  A    between atoms: C_29  and  C_37
   19  A    between atoms: N_30  and  O_35
   20  A    between atoms: O_35  and  C_65
   21  A    between atoms: C_43  and  C_65
   22  A    between atoms: C_58  and  C_65
                            x       y       z     vdW  Elec       q    Type
                         _______ _______ _______ _____ _____    ______ ____

>  <TORSDO>
F 22

$$$$
=
 OpenBabel11062421293D

 66 71  0  0  1  0  0  0  0  0999 V2000
  196.1440  173.2170  142.1110 C   0  0  0  0  0  0  0  0  0  0  0  0
  197.2810  173.2170  142.7930 C   0  0  0  0  0  2  0  0  0  0  0  0
  194.9190  173.3700  142.8270 N   0  0  0  0  0  2  0  0  0  0  0  0
  193.8720  174.0790  142.3220 O   0  0  0  0  0  0  0  0  0  0  0  0
  192.8140  174.0180  143.2570 C   0  0  2  0  0  3  0  0  0  0  0  0
  190.6790  172.3510  144.4690 O   0  0  0  0  0  0  0  0  0  0  0  0
  189.9240  173.9220  140.8650 O   0  0  0  0  0  0  0  0  0  0  0  0
  190.4900  172.8000  143.3080 C   0  0  0  0  0  0  0  0  0  0  0  0
  191.1550  174.2040  141.4720 C   0  0  0  0  0  3  0  0  0  0  0  0
  191.4960  173.6440  142.6340 C   0  0  0  0  0  0  0  0  0  0  0  0
  189.2790  172.5510  142.6640 O   0  0  0  0  0  0  0  0  0  0  0  0
  189.1230  172.8080  141.2680 C   0  0  0  0  0  2  0  0  0  0  0  0
  191.3440  175.7560  144.3270 C   0  0  0  0  0  2  0  0  0  0  0  0
  191.2710  176.9040  145.3380 C   0  0  2  0  0  3  0  0  0  0  0  0
  193.1930  174.7190  145.6530 C   0  0  0  0  0  2  0  0  0  0  0  0
  192.7640  175.1830  144.2590 C   0  0  1  0  0  3  0  0  0  0  0  0
  191.7700  176.4670  146.7160 C   0  0  0  0  0  2  0  0  0  0  0  0
  193.1790  175.8930  146.6210 C   0  0  0  0  0  2  0  0  0  0  0  0
  189.9100  177.4240  145.4370 N   0  0  0  0  0  2  0  0  0  0  0  0
  188.8730  175.3880  145.9250 O   0  0  0  0  0  0  0  0  0  0  0  0
  188.7700  176.6410  145.8190 C   0  0  0  0  0  0  0  0  0  0  0  0
  185.0820  176.9210  145.4690 C   0  0  0  0  0  3  0  0  0  0  0  0
  187.3540  177.9900  147.2550 C   0  0  0  0  0  3  0  0  0  0  0  0
  187.4850  177.3070  146.1090 C   0  0  0  0  0  0  0  0  0  0  0  0
  184.8940  178.5150  147.3800 C   0  0  0  0  0  3  0  0  0  0  0  0
  186.4430  177.3500  145.0250 C   0  0  2  0  0  3  0  0  0  0  0  0
  184.3990  177.4640  146.4760 C   0  0  0  0  0  3  0  0  0  0  0  0
  186.1680  178.7400  147.7150 C   0  0  0  0  0  3  0  0  0  0  0  0
  186.4170  178.6920  144.3090 C   0  0  0  0  0  2  0  0  0  0  0  0
  186.6740  177.6520  140.5930 C   0  0  0  0  0  1  0  0  0  0  0  0
  184.7840  178.0640  142.0250 N   0  0  0  0  0  2  0  0  0  0  0  0
  186.9160  178.5220  142.9510 N   0  0  0  0  0  2  0  0  0  0  0  0
  186.0710  178.0980  141.8780 C   0  0  0  0  0  0  0  0  0  0  0  0
  196.1150  172.7960  140.6700 C   0  0  1  0  0  3  0  0  0  0  0  0
  197.9410  172.2010  139.1920 F   0  0  0  0  0  0  0  0  0  0  0  0
  197.3370  173.2530  139.8530 C   0  0  1  0  0  3  0  0  0  0  0  0
  197.9260  175.4760  139.2050 F   0  0  0  0  0  0  0  0  0  0  0  0
  197.0090  174.4700  138.9640 C   0  0  1  0  0  3  0  0  0  0  0  0
  195.3340  173.6930  135.6320 C   0  0  0  0  0  0  0  0  0  0  0  0
  196.8250  174.2560  137.4760 C   0  0  0  0  0  0  0  0  0  0  0  0
  197.7080  173.9420  135.2260 C   0  0  0  0  0  3  0  0  0  0  0  0
  197.9100  174.2090  136.5840 C   0  0  0  0  0  3  0  0  0  0  0  0
  195.5390  173.9700  136.9890 C   0  0  0  0  0  3  0  0  0  0  0  0
  196.4200  173.6860  134.7530 C   0  0  0  0  0  3  0  0  0  0  0  0
  194.0240  173.4110  135.1510 N   0  0  0  0  0  0  0  0  0  0  0  0
  192.7220  173.8020  134.5320 C   0  0  0  0  0  2  0  0  0  0  0  0
  192.8890  172.4790  134.8860 C   0  0  0  0  0  2  0  0  0  0  0  0
  195.6680  171.3340  140.5030 C   0  0  2  0  0  3  0  0  0  0  0  0
  196.5660  170.5180  139.5810 C   0  0  0  0  0  1  0  0  0  0  0  0
  193.8870  169.3640  138.9120 C   0  0  2  0  0  3  0  0  0  0  0  0
  194.1750  171.2730  140.1470 C   0  0  2  0  0  3  0  0  0  0  0  0
  192.8470  168.8310  139.6800 O   0  0  0  0  0  0  0  0  0  0  0  0
  193.4130  169.7890  141.8300 C   0  0  1  0  0  3  0  0  0  0  0  0
  193.2490  171.0510  141.2000 O   0  0  0  0  0  0  0  0  0  0  0  0
  193.7840  170.7650  138.8880 O   0  0  0  0  0  0  0  0  0  0  0  0
  193.4460  168.5570  140.9100 C   0  0  0  0  0  2  0  0  0  0  0  0
  194.4720  169.7860  142.9340 C   0  0  2  0  0  3  0  0  0  0  0  0
  195.5360  168.9360  142.6090 O   0  0  0  0  0  1  0  0  0  0  0  0
  193.8960  169.3820  144.1410 O   0  0  0  0  0  0  0  0  0  0  0  0
  193.9800  170.5030  144.9730 C   0  0  0  0  0  2  0  0  0  0  0  0
  195.6190  172.0610  145.7080 O   0  0  0  0  0  1  0  0  0  0  0  0
  195.4170  170.7140  145.4050 C   0  0  0  0  0  2  0  0  0  0  0  0
  193.8140  168.8170  137.4920 C   0  0  1  0  0  3  0  0  0  0  0  0
  193.1050  169.7060  136.6800 O   0  0  0  0  0  1  0  0  0  0  0  0
  195.6420  169.8660  136.1750 C   0  0  0  0  0  1  0  0  0  0  0  0
  195.2140  168.6240  136.9290 C   0  0  0  0  0  2  0  0  0  0  0  0
  1  2  2  0  0  0  0
  1  3  1  0  0  0  0
  4  3  1  0  0  0  0
  5  4  1  6  0  0  0
  7 12  1  0  0  0  0
  7  9  1  0  0  0  0
  8  6  2  0  0  0  0
  9 10  2  0  0  0  0
 10  5  1  0  0  0  0
 10  8  1  0  0  0  0
 11  8  1  0  0  0  0
 12 11  1  0  0  0  0
 13 14  1  0  0  0  0
 14 19  1  1  0  0  0
 14 17  1  0  0  0  0
 15 18  1  0  0  0  0
 16  5  1  6  0  0  0
 16 13  1  0  0  0  0
 16 15  1  0  0  0  0
 18 17  1  0  0  0  0
 19 21  1  0  0  0  0
 21 20  2  0  0  0  0
 21 24  1  0  0  0  0
 22 27  2  0  0  0  0
 23 28  1  0  0  0  0
 24 23  2  0  0  0  0
 25 28  2  0  0  0  0
 26 29  1  1  0  0  0
 26 22  1  0  0  0  0
 26 24  1  0  0  0  0
 27 25  1  0  0  0  0
 30 33  1  0  0  0  0
 32 29  1  0  0  0  0
 33 31  2  0  0  0  0
 33 32  1  0  0  0  0
 34  1  1  1  0  0  0
 36 35  1  6  0  0  0
 36 34  1  0  0  0  0
 38 37  1  6  0  0  0
 38 36  1  0  0  0  0
 39 43  1  0  0  0  0
 40 38  1  0  0  0  0
 41 42  2  0  0  0  0
 42 40  1  0  0  0  0
 43 40  2  0  0  0  0
 44 41  1  0  0  0  0
 44 39  2  0  0  0  0
 45 39  1  0  0  0  0
 46 47  1  0  0  0  0
 46 45  1  0  0  0  0
 47 45  1  0  0  0  0
 48 49  1  6  0  0  0
 48 34  1  0  0  0  0
 50 63  1  6  0  0  0
 50 52  1  0  0  0  0
 51 48  1  1  0  0  0
 51 54  1  0  0  0  0
 52 56  1  0  0  0  0
 53 57  1  6  0  0  0
 54 53  1  0  0  0  0
 55 50  1  0  0  0  0
 55 51  1  0  0  0  0
 56 53  1  0  0  0  0
 57 58  1  6  0  0  0
 57 59  1  0  0  0  0
 59 60  1  0  0  0  0
 60 62  1  0  0  0  0
 62 61  1  0  0  0  0
 63 64  1  6  0  0  0
 65 66  1  0  0  0  0
 66 63  1  0  0  0  0
M  END
>  <MODEL>
9

>  <REMARK>
 VINA RESULT:      -4.6      2.983      9.238
  Name = 
  22 active torsions:
  status: ('A' for Active; 'I' for Inactive)
    1  A    between atoms: C_1  and  C_8
    2  A    between atoms: C_1  and  C_47
    3  A    between atoms: C_3  and  C_14
    4  A    between atoms: C_3  and  C_56
    5  A    between atoms: C_4  and  N_24
    6  A    between atoms: C_7  and  C_32
    7  A    between atoms: C_9  and  C_32
    8  A    between atoms: C_9  and  C_56
    9  A    between atoms: C_11  and  N_30
   10  A    between atoms: C_11  and  C_56
   11  A    between atoms: N_13  and  C_36
   12  A    between atoms: C_19  and  C_45
   13  A    between atoms: C_19  and  N_55
   14  A    between atoms: C_20  and  O_25
   15  A    between atoms: C_20  and  C_40
   16  A    between atoms: C_22  and  C_23
   17  A    between atoms: C_23  and  O_25
   18  A    between atoms: C_29  and  C_37
   19  A    between atoms: N_30  and  O_35
   20  A    between atoms: O_35  and  C_65
   21  A    between atoms: C_43  and  C_65
   22  A    between atoms: C_58  and  C_65
                            x       y       z     vdW  Elec       q    Type
                         _______ _______ _______ _____ _____    ______ ____

>  <TORSDO>
F 22

$$$$
