=
 OpenBabel11072409283D

 40 45  0  0  1  0  0  0  0  0999 V2000
  184.2540  178.7470  144.6570 N   0  0  0  0  0  2  0  0  0  0  0  0
  186.3390  178.4130  147.7030 C   0  0  0  0  0  2  0  0  0  0  0  0
  187.1330  176.7760  146.0460 C   0  0  2  0  0  3  0  0  0  0  0  0
  186.6200  177.8300  145.0490 C   0  0  0  0  0  2  0  0  0  0  0  0
  185.2230  178.6870  146.8030 N   0  0  0  0  0  0  0  0  0  0  0  0
  185.3330  178.4200  145.5400 C   0  0  0  0  0  0  0  0  0  0  0  0
  186.8600  177.0600  147.4700 N   0  0  0  0  0  2  0  0  0  0  0  0
  182.9500  178.4930  142.5630 C   0  0  0  0  0  3  0  0  0  0  0  0
  184.1760  178.5060  143.2430 C   0  0  0  0  0  0  0  0  0  0  0  0
  185.3090  178.0500  141.1460 C   0  0  0  0  0  0  0  0  0  0  0  0
  185.3560  178.2860  142.5250 C   0  0  0  0  0  3  0  0  0  0  0  0
  184.0790  178.0190  140.4800 C   0  0  0  0  0  3  0  0  0  0  0  0
  182.8900  178.2310  141.1880 C   0  0  0  0  0  0  0  0  0  0  0  0
  180.8310  179.5060  140.7500 N   0  0  2  0  0  0  0  0  0  0  0  0
  179.8800  180.3690  140.2320 C   0  0  0  0  0  2  0  0  0  0  0  0
  181.5800  178.2380  140.4660 C   0  0  2  0  0  3  0  0  0  0  0  0
  178.8130  179.5640  140.2170 C   0  0  0  0  0  2  0  0  0  0  0  0
  179.1240  178.1410  140.7570 C   0  0  0  0  0  2  0  0  0  0  0  0
  180.5450  178.2110  141.3610 C   0  0  2  0  0  3  0  0  0  0  0  0
  186.5690  177.7960  140.3950 C   0  0  0  0  0  2  0  0  0  0  0  0
  187.7700  178.0360  141.2880 C   0  0  0  0  0  1  0  0  0  0  0  0
  191.2880  175.8640  145.4060 C   0  0  0  0  0  0  0  0  0  0  0  0
  190.7630  177.0890  144.9690 C   0  0  0  0  0  3  0  0  0  0  0  0
  188.5790  176.4760  145.8250 C   0  0  0  0  0  0  0  0  0  0  0  0
  189.4170  177.3970  145.1830 C   0  0  0  0  0  3  0  0  0  0  0  0
  190.4410  174.9450  146.0440 C   0  0  0  0  0  3  0  0  0  0  0  0
  189.0950  175.2510  146.2550 C   0  0  0  0  0  3  0  0  0  0  0  0
  193.1550  175.1810  143.9160 C   0  0  0  0  0  0  0  0  0  0  0  0
  195.4120  174.8340  144.7760 C   0  0  0  0  0  0  0  0  0  0  0  0
  193.6770  175.5760  146.3130 C   0  0  1  0  0  3  0  0  0  0  0  0
  193.7250  176.9700  146.9160 C   0  0  0  0  0  1  0  0  0  0  0  0
  196.7600  174.4560  144.5310 N   0  0  0  0  0  1  0  0  0  0  0  0
  194.4980  174.8460  143.7250 O   0  0  0  0  0  0  0  0  0  0  0  0
  192.7120  175.5380  145.1410 C   0  0  0  0  0  0  0  0  0  0  0  0
  195.0380  175.1560  145.9730 N   0  0  0  0  0  0  0  0  0  0  0  0
  192.2460  175.0740  142.7300 C   0  0  0  0  0  2  0  0  0  0  0  0
  191.8380  173.6300  142.5010 C   0  0  0  0  0  2  0  0  0  0  0  0
  190.3290  173.4900  142.5780 C   0  0  0  0  0  2  0  0  0  0  0  0
  188.1810  174.7470  142.5540 C   0  0  0  0  0  1  0  0  0  0  0  0
  189.6630  174.8060  142.2210 C   0  0  0  0  0  2  0  0  0  0  0  0
  1  6  1  0  0  0  0
  3 24  1  1  0  0  0
  3  7  1  0  0  0  0
  4  6  1  0  0  0  0
  4  3  1  0  0  0  0
  5  2  1  0  0  0  0
  6  5  2  0  0  0  0
  7  2  1  0  0  0  0
  8  9  1  0  0  0  0
  9  1  1  0  0  0  0
 10 11  1  0  0  0  0
 11  9  2  0  0  0  0
 12 10  2  0  0  0  0
 12 13  1  0  0  0  0
 13  8  2  0  0  0  0
 14 15  1  6  0  0  0
 14 19  1  0  0  0  0
 16 14  1  0  0  0  0
 16 13  1  1  0  0  0
 16 19  1  0  0  0  0
 17 15  1  0  0  0  0
 17 18  1  0  0  0  0
 19 18  1  6  0  0  0
 20 10  1  0  0  0  0
 20 21  1  0  0  0  0
 22 26  1  0  0  0  0
 23 25  1  0  0  0  0
 23 22  2  0  0  0  0
 24 27  1  0  0  0  0
 25 24  2  0  0  0  0
 26 27  2  0  0  0  0
 28 34  2  0  0  0  0
 29 35  2  0  0  0  0
 30 31  1  6  0  0  0
 32 29  1  0  0  0  0
 33 28  1  0  0  0  0
 33 29  1  0  0  0  0
 34 22  1  0  0  0  0
 34 30  1  0  0  0  0
 35 30  1  0  0  0  0
 36 28  1  0  0  0  0
 37 38  1  0  0  0  0
 37 36  1  0  0  0  0
 40 39  1  0  0  0  0
 40 38  1  0  0  0  0
M  END
>  <MODEL>
1

>  <REMARK>
 VINA RESULT:      -8.9      0.000      0.000
  Name = 
  9 active torsions:
  status: ('A' for Active; 'I' for Inactive)
    1  A    between atoms: C_2  and  C_37
    2  A    between atoms: N_5  and  C_7
    3  A    between atoms: C_6  and  C_10
    4  A    between atoms: C_8  and  C_18
    5  A    between atoms: C_8  and  C_24
    6  A    between atoms: C_9  and  C_12
    7  A    between atoms: C_10  and  C_18
    8  A    between atoms: C_14  and  C_34
    9  A    between atoms: C_16  and  C_21
                            x       y       z     vdW  Elec       q    Type
                         _______ _______ _______ _____ _____    ______ ____

>  <TORSDO>
F 9

$$$$
=
 OpenBabel11072409283D

 40 45  0  0  1  0  0  0  0  0999 V2000
  195.0670  172.9980  145.6410 N   0  0  0  0  0  2  0  0  0  0  0  0
  194.2900  176.5940  146.0860 C   0  0  0  0  0  2  0  0  0  0  0  0
  192.9760  175.7550  144.1830 C   0  0  2  0  0  3  0  0  0  0  0  0
  193.0470  174.4340  144.9680 C   0  0  0  0  0  2  0  0  0  0  0  0
  194.9780  175.3070  146.0960 N   0  0  0  0  0  0  0  0  0  0  0  0
  194.4080  174.2680  145.5730 C   0  0  0  0  0  0  0  0  0  0  0  0
  193.7570  176.8750  144.7480 N   0  0  0  0  0  2  0  0  0  0  0  0
  194.1420  171.6400  143.7840 C   0  0  0  0  0  3  0  0  0  0  0  0
  194.6130  171.7460  145.1000 C   0  0  0  0  0  0  0  0  0  0  0  0
  194.2160  169.3710  145.4020 C   0  0  0  0  0  0  0  0  0  0  0  0
  194.6490  170.6040  145.9050 C   0  0  0  0  0  3  0  0  0  0  0  0
  193.7270  169.2800  144.0940 C   0  0  0  0  0  3  0  0  0  0  0  0
  193.6790  170.4170  143.2800 C   0  0  0  0  0  0  0  0  0  0  0  0
  191.8520  170.9580  141.7210 N   0  0  2  0  0  0  0  0  0  0  0  0
  191.0180  171.5790  140.8070 C   0  0  0  0  0  2  0  0  0  0  0  0
  193.1960  170.3070  141.8690 C   0  0  2  0  0  3  0  0  0  0  0  0
  190.7840  170.5620  139.9720 C   0  0  0  0  0  2  0  0  0  0  0  0
  191.5060  169.2540  140.3980 C   0  0  0  0  0  2  0  0  0  0  0  0
  192.0790  169.5190  141.8080 C   0  0  2  0  0  3  0  0  0  0  0  0
  194.2390  168.1660  146.2750 C   0  0  0  0  0  2  0  0  0  0  0  0
  194.6520  168.5440  147.6830 C   0  0  0  0  0  1  0  0  0  0  0  0
  188.8860  176.8840  143.4700 C   0  0  0  0  0  0  0  0  0  0  0  0
  189.8750  177.8700  143.5930 C   0  0  0  0  0  3  0  0  0  0  0  0
  191.5620  176.1610  143.9270 C   0  0  0  0  0  0  0  0  0  0  0  0
  191.2070  177.5110  143.8140 C   0  0  0  0  0  3  0  0  0  0  0  0
  189.2480  175.5330  143.5880 C   0  0  0  0  0  3  0  0  0  0  0  0
  190.5790  175.1740  143.8120 C   0  0  0  0  0  3  0  0  0  0  0  0
  186.7110  177.7770  144.2700 C   0  0  0  0  0  0  0  0  0  0  0  0
  184.7650  177.9040  142.8030 C   0  0  0  0  0  0  0  0  0  0  0  0
  186.8660  177.0820  141.8910 C   0  0  1  0  0  3  0  0  0  0  0  0
  187.6270  177.8920  140.8540 C   0  0  0  0  0  1  0  0  0  0  0  0
  183.3920  178.2240  142.6330 N   0  0  0  0  0  1  0  0  0  0  0  0
  185.3720  178.1020  144.0410 O   0  0  0  0  0  0  0  0  0  0  0  0
  187.4710  177.2830  143.2690 C   0  0  0  0  0  0  0  0  0  0  0  0
  185.4440  177.4210  141.8120 N   0  0  0  0  0  0  0  0  0  0  0  0
  187.2310  177.9520  145.6650 C   0  0  0  0  0  2  0  0  0  0  0  0
  186.8750  176.7480  146.5190 C   0  0  0  0  0  2  0  0  0  0  0  0
  188.1350  176.0300  146.9670 C   0  0  0  0  0  2  0  0  0  0  0  0
  190.5710  176.2700  147.4160 C   0  0  0  0  0  1  0  0  0  0  0  0
  189.2930  177.0060  147.0470 C   0  0  0  0  0  2  0  0  0  0  0  0
  2  5  1  0  0  0  0
  3 24  1  1  0  0  0
  3  7  1  0  0  0  0
  3  4  1  0  0  0  0
  4  6  1  0  0  0  0
  6  1  1  0  0  0  0
  6  5  2  0  0  0  0
  7  2  1  0  0  0  0
  8  9  1  0  0  0  0
  9  1  1  0  0  0  0
  9 11  2  0  0  0  0
 10 11  1  0  0  0  0
 10 20  1  0  0  0  0
 12 10  2  0  0  0  0
 13  8  2  0  0  0  0
 13 12  1  0  0  0  0
 14 15  1  6  0  0  0
 14 19  1  0  0  0  0
 14 16  1  0  0  0  0
 16 13  1  1  0  0  0
 17 18  1  0  0  0  0
 17 15  1  0  0  0  0
 19 18  1  6  0  0  0
 19 16  1  0  0  0  0
 20 21  1  0  0  0  0
 22 26  2  0  0  0  0
 22 23  1  0  0  0  0
 23 25  2  0  0  0  0
 25 24  1  0  0  0  0
 26 27  1  0  0  0  0
 27 24  2  0  0  0  0
 28 36  1  0  0  0  0
 29 33  1  0  0  0  0
 30 31  1  6  0  0  0
 30 34  1  0  0  0  0
 32 29  1  0  0  0  0
 33 28  1  0  0  0  0
 34 22  1  0  0  0  0
 34 28  2  0  0  0  0
 35 30  1  0  0  0  0
 35 29  2  0  0  0  0
 36 37  1  0  0  0  0
 37 38  1  0  0  0  0
 38 40  1  0  0  0  0
 40 39  1  0  0  0  0
M  END
>  <MODEL>
2

>  <REMARK>
 VINA RESULT:      -7.6      3.497     10.264
  Name = 
  9 active torsions:
  status: ('A' for Active; 'I' for Inactive)
    1  A    between atoms: C_2  and  C_37
    2  A    between atoms: N_5  and  C_7
    3  A    between atoms: C_6  and  C_10
    4  A    between atoms: C_8  and  C_18
    5  A    between atoms: C_8  and  C_24
    6  A    between atoms: C_9  and  C_12
    7  A    between atoms: C_10  and  C_18
    8  A    between atoms: C_14  and  C_34
    9  A    between atoms: C_16  and  C_21
                            x       y       z     vdW  Elec       q    Type
                         _______ _______ _______ _____ _____    ______ ____

>  <TORSDO>
F 9

$$$$
=
 OpenBabel11072409283D

 40 45  0  0  1  0  0  0  0  0999 V2000
  194.4640  171.0910  141.9330 N   0  0  0  0  0  2  0  0  0  0  0  0
  191.6540  171.6910  139.5910 C   0  0  0  0  0  2  0  0  0  0  0  0
  190.9000  172.2740  141.8590 C   0  0  2  0  0  3  0  0  0  0  0  0
  192.3900  172.6020  142.0590 C   0  0  0  0  0  2  0  0  0  0  0  0
  192.8690  171.1590  140.2000 N   0  0  0  0  0  0  0  0  0  0  0  0
  193.2390  171.5760  141.3700 C   0  0  0  0  0  0  0  0  0  0  0  0
  190.5490  171.6700  140.5570 N   0  0  0  0  0  2  0  0  0  0  0  0
  195.1990  172.7380  143.6350 C   0  0  0  0  0  3  0  0  0  0  0  0
  195.0240  171.4110  143.2170 C   0  0  0  0  0  0  0  0  0  0  0  0
  195.9420  170.6550  145.3320 C   0  0  0  0  0  0  0  0  0  0  0  0
  195.3960  170.3720  144.0740 C   0  0  0  0  0  3  0  0  0  0  0  0
  196.1330  171.9830  145.7320 C   0  0  0  0  0  3  0  0  0  0  0  0
  195.7710  173.0320  144.8800 C   0  0  0  0  0  0  0  0  0  0  0  0
  194.6240  175.0150  145.7820 N   0  0  2  0  0  0  0  0  0  0  0  0
  194.0580  175.9660  146.6140 C   0  0  0  0  0  2  0  0  0  0  0  0
  195.9370  174.4500  145.3270 C   0  0  2  0  0  3  0  0  0  0  0  0
  194.5110  177.0840  146.0380 C   0  0  0  0  0  2  0  0  0  0  0  0
  195.3930  176.8040  144.7900 C   0  0  0  0  0  2  0  0  0  0  0  0
  195.2530  175.2940  144.4940 C   0  0  2  0  0  3  0  0  0  0  0  0
  196.3550  169.5410  146.2290 C   0  0  0  0  0  2  0  0  0  0  0  0
  195.1710  169.0550  147.0410 C   0  0  0  0  0  1  0  0  0  0  0  0
  188.3880  175.6560  142.7260 C   0  0  0  0  0  0  0  0  0  0  0  0
  189.7750  175.8250  142.6090 C   0  0  0  0  0  3  0  0  0  0  0  0
  190.0390  173.4580  142.1520 C   0  0  0  0  0  0  0  0  0  0  0  0
  190.5960  174.7330  142.3160 C   0  0  0  0  0  3  0  0  0  0  0  0
  187.8370  174.3770  142.5640 C   0  0  0  0  0  3  0  0  0  0  0  0
  188.6580  173.2840  142.2750 C   0  0  0  0  0  3  0  0  0  0  0  0
  187.6130  177.4480  144.2630 C   0  0  0  0  0  0  0  0  0  0  0  0
  185.7860  178.9480  143.6580 C   0  0  0  0  0  0  0  0  0  0  0  0
  186.5120  177.2780  142.0430 C   0  0  1  0  0  3  0  0  0  0  0  0
  187.2040  177.6980  140.7570 C   0  0  0  0  0  1  0  0  0  0  0  0
  184.9240  180.0180  144.0170 N   0  0  0  0  0  1  0  0  0  0  0  0
  186.7600  178.5150  144.5550 O   0  0  0  0  0  0  0  0  0  0  0  0
  187.5320  176.8200  143.0700 C   0  0  0  0  0  0  0  0  0  0  0  0
  185.6570  178.3740  142.5040 N   0  0  0  0  0  0  0  0  0  0  0  0
  188.5620  177.0150  145.3380 C   0  0  0  0  0  2  0  0  0  0  0  0
  187.8120  176.3180  146.4600 C   0  0  0  0  0  2  0  0  0  0  0  0
  188.6840  175.2470  147.0910 C   0  0  0  0  0  2  0  0  0  0  0  0
  189.7740  173.4660  145.7390 C   0  0  0  0  0  1  0  0  0  0  0  0
  189.8510  174.9180  146.1790 C   0  0  0  0  0  2  0  0  0  0  0  0
  1  9  1  0  0  0  0
  2  5  1  0  0  0  0
  2  7  1  0  0  0  0
  3  4  1  0  0  0  0
  3 24  1  6  0  0  0
  5  6  2  0  0  0  0
  6  1  1  0  0  0  0
  6  4  1  0  0  0  0
  7  3  1  0  0  0  0
  8 13  1  0  0  0  0
  9  8  2  0  0  0  0
  9 11  1  0  0  0  0
 10 12  1  0  0  0  0
 10 20  1  0  0  0  0
 11 10  2  0  0  0  0
 13 12  2  0  0  0  0
 14 15  1  1  0  0  0
 16 13  1  6  0  0  0
 16 14  1  0  0  0  0
 17 15  1  0  0  0  0
 18 17  1  0  0  0  0
 19 18  1  1  0  0  0
 19 16  1  0  0  0  0
 19 14  1  0  0  0  0
 20 21  1  0  0  0  0
 22 34  1  0  0  0  0
 23 22  1  0  0  0  0
 24 27  2  0  0  0  0
 24 25  1  0  0  0  0
 25 23  2  0  0  0  0
 26 22  2  0  0  0  0
 27 26  1  0  0  0  0
 28 33  1  0  0  0  0
 28 36  1  0  0  0  0
 29 32  1  0  0  0  0
 29 33  1  0  0  0  0
 30 31  1  6  0  0  0
 30 35  1  0  0  0  0
 30 34  1  0  0  0  0
 34 28  2  0  0  0  0
 35 29  2  0  0  0  0
 36 37  1  0  0  0  0
 37 38  1  0  0  0  0
 39 40  1  0  0  0  0
 40 38  1  0  0  0  0
M  END
>  <MODEL>
3

>  <REMARK>
 VINA RESULT:      -7.5      3.367     10.897
  Name = 
  9 active torsions:
  status: ('A' for Active; 'I' for Inactive)
    1  A    between atoms: C_2  and  C_37
    2  A    between atoms: N_5  and  C_7
    3  A    between atoms: C_6  and  C_10
    4  A    between atoms: C_8  and  C_18
    5  A    between atoms: C_8  and  C_24
    6  A    between atoms: C_9  and  C_12
    7  A    between atoms: C_10  and  C_18
    8  A    between atoms: C_14  and  C_34
    9  A    between atoms: C_16  and  C_21
                            x       y       z     vdW  Elec       q    Type
                         _______ _______ _______ _____ _____    ______ ____

>  <TORSDO>
F 9

$$$$
=
 OpenBabel11072409283D

 40 45  0  0  1  0  0  0  0  0999 V2000
  187.5210  175.6940  142.0670 N   0  0  0  0  0  2  0  0  0  0  0  0
  189.6010  173.3910  140.0420 C   0  0  0  0  0  2  0  0  0  0  0  0
  191.0220  174.3630  141.7990 C   0  0  2  0  0  3  0  0  0  0  0  0
  189.6920  174.4180  142.5710 C   0  0  0  0  0  2  0  0  0  0  0  0
  188.5590  174.3250  140.4560 N   0  0  0  0  0  0  0  0  0  0  0  0
  188.5800  174.8240  141.6510 C   0  0  0  0  0  0  0  0  0  0  0  0
  190.9250  173.9170  140.3940 N   0  0  0  0  0  2  0  0  0  0  0  0
  188.1250  175.9760  144.4550 C   0  0  0  0  0  3  0  0  0  0  0  0
  187.3830  176.3630  143.3310 C   0  0  0  0  0  0  0  0  0  0  0  0
  186.3380  178.1060  144.6580 C   0  0  0  0  0  0  0  0  0  0  0  0
  186.4900  177.4340  143.4400 C   0  0  0  0  0  3  0  0  0  0  0  0
  187.0680  177.6980  145.7810 C   0  0  0  0  0  3  0  0  0  0  0  0
  187.9590  176.6230  145.6870 C   0  0  0  0  0  0  0  0  0  0  0  0
  189.9610  177.1140  147.0340 N   0  0  2  0  0  0  0  0  0  0  0  0
  190.8510  177.6200  147.9670 C   0  0  0  0  0  2  0  0  0  0  0  0
  188.7690  176.2160  146.8770 C   0  0  2  0  0  3  0  0  0  0  0  0
  191.4610  176.4920  148.3450 C   0  0  0  0  0  2  0  0  0  0  0  0
  190.9230  175.2370  147.6040 C   0  0  0  0  0  2  0  0  0  0  0  0
  189.9980  175.7630  146.4840 C   0  0  2  0  0  3  0  0  0  0  0  0
  185.3690  179.2300  144.7690 C   0  0  0  0  0  2  0  0  0  0  0  0
  184.2260  178.8500  145.6890 C   0  0  0  0  0  1  0  0  0  0  0  0
  193.9490  172.0770  143.9690 C   0  0  0  0  0  0  0  0  0  0  0  0
  194.1940  172.4500  142.6410 C   0  0  0  0  0  3  0  0  0  0  0  0
  192.0500  173.5770  142.5430 C   0  0  0  0  0  0  0  0  0  0  0  0
  193.2540  173.2020  141.9330 C   0  0  0  0  0  3  0  0  0  0  0  0
  192.7400  172.4520  144.5740 C   0  0  0  0  0  3  0  0  0  0  0  0
  191.7970  173.2010  143.8650 C   0  0  0  0  0  3  0  0  0  0  0  0
  195.8210  171.7820  145.5760 C   0  0  0  0  0  0  0  0  0  0  0  0
  196.8620  169.6060  145.9390 C   0  0  0  0  0  0  0  0  0  0  0  0
  194.9860  169.7620  144.3960 C   0  0  1  0  0  3  0  0  0  0  0  0
  193.6530  169.1150  144.7340 C   0  0  0  0  0  1  0  0  0  0  0  0
  197.8600  168.8300  146.5870 N   0  0  0  0  0  1  0  0  0  0  0  0
  196.7640  170.9680  146.2080 O   0  0  0  0  0  0  0  0  0  0  0  0
  194.9440  171.2500  144.6970 C   0  0  0  0  0  0  0  0  0  0  0  0
  196.0550  169.0450  145.0950 N   0  0  0  0  0  0  0  0  0  0  0  0
  195.8660  173.2490  145.8800 C   0  0  0  0  0  2  0  0  0  0  0  0
  196.7770  173.9660  144.8990 C   0  0  0  0  0  2  0  0  0  0  0  0
  196.1530  175.2800  144.4650 C   0  0  0  0  0  2  0  0  0  0  0  0
  193.8420  176.2020  144.4790 C   0  0  0  0  0  1  0  0  0  0  0  0
  194.9470  175.5970  145.3290 C   0  0  0  0  0  2  0  0  0  0  0  0
  1  9  1  0  0  0  0
  2  7  1  0  0  0  0
  2  5  1  0  0  0  0
  3 24  1  1  0  0  0
  3  4  1  0  0  0  0
  5  6  2  0  0  0  0
  6  1  1  0  0  0  0
  6  4  1  0  0  0  0
  7  3  1  0  0  0  0
  8 13  1  0  0  0  0
  9 11  1  0  0  0  0
  9  8  2  0  0  0  0
 10 20  1  0  0  0  0
 10 12  1  0  0  0  0
 11 10  2  0  0  0  0
 13 12  2  0  0  0  0
 14 15  1  1  0  0  0
 15 17  1  0  0  0  0
 16 13  1  6  0  0  0
 16 14  1  0  0  0  0
 18 17  1  0  0  0  0
 19 16  1  0  0  0  0
 19 14  1  0  0  0  0
 19 18  1  1  0  0  0
 20 21  1  0  0  0  0
 22 26  1  0  0  0  0
 22 34  1  0  0  0  0
 23 22  2  0  0  0  0
 24 27  1  0  0  0  0
 25 24  2  0  0  0  0
 25 23  1  0  0  0  0
 27 26  2  0  0  0  0
 28 36  1  0  0  0  0
 28 33  1  0  0  0  0
 29 33  1  0  0  0  0
 29 32  1  0  0  0  0
 30 34  1  0  0  0  0
 30 31  1  1  0  0  0
 30 35  1  0  0  0  0
 34 28  2  0  0  0  0
 35 29  2  0  0  0  0
 37 36  1  0  0  0  0
 38 37  1  0  0  0  0
 38 40  1  0  0  0  0
 39 40  1  0  0  0  0
M  END
>  <MODEL>
4

>  <REMARK>
 VINA RESULT:      -7.4      3.711      7.367
  Name = 
  9 active torsions:
  status: ('A' for Active; 'I' for Inactive)
    1  A    between atoms: C_2  and  C_37
    2  A    between atoms: N_5  and  C_7
    3  A    between atoms: C_6  and  C_10
    4  A    between atoms: C_8  and  C_18
    5  A    between atoms: C_8  and  C_24
    6  A    between atoms: C_9  and  C_12
    7  A    between atoms: C_10  and  C_18
    8  A    between atoms: C_14  and  C_34
    9  A    between atoms: C_16  and  C_21
                            x       y       z     vdW  Elec       q    Type
                         _______ _______ _______ _____ _____    ______ ____

>  <TORSDO>
F 9

$$$$
=
 OpenBabel11072409283D

 40 45  0  0  1  0  0  0  0  0999 V2000
  194.6600  172.4850  141.0520 N   0  0  0  0  0  2  0  0  0  0  0  0
  191.8350  173.4740  138.8660 C   0  0  0  0  0  2  0  0  0  0  0  0
  190.9740  173.1970  141.1530 C   0  0  2  0  0  3  0  0  0  0  0  0
  192.4050  173.6170  141.5330 C   0  0  0  0  0  2  0  0  0  0  0  0
  193.0990  172.9200  139.3430 N   0  0  0  0  0  0  0  0  0  0  0  0
  193.3910  172.9770  140.6030 C   0  0  0  0  0  0  0  0  0  0  0  0
  190.7270  173.0100  139.7090 N   0  0  0  0  0  2  0  0  0  0  0  0
  195.3670  171.2190  143.0630 C   0  0  0  0  0  3  0  0  0  0  0  0
  195.1520  172.4350  142.4010 C   0  0  0  0  0  0  0  0  0  0  0  0
  195.9130  173.6140  144.3810 C   0  0  0  0  0  0  0  0  0  0  0  0
  195.4300  173.6330  143.0670 C   0  0  0  0  0  3  0  0  0  0  0  0
  196.1040  172.3950  145.0410 C   0  0  0  0  0  3  0  0  0  0  0  0
  195.8230  171.1900  144.3880 C   0  0  0  0  0  0  0  0  0  0  0  0
  195.2070  169.7740  146.3060 N   0  0  2  0  0  0  0  0  0  0  0  0
  194.5970  168.8600  147.1490 C   0  0  0  0  0  2  0  0  0  0  0  0
  196.0680  169.8870  145.0820 C   0  0  2  0  0  3  0  0  0  0  0  0
  195.6740  168.2610  147.6670 C   0  0  0  0  0  2  0  0  0  0  0  0
  197.0080  168.8400  147.1190 C   0  0  0  0  0  2  0  0  0  0  0  0
  196.6300  170.1020  146.3120 C   0  0  2  0  0  3  0  0  0  0  0  0
  196.1860  174.8950  145.0890 C   0  0  0  0  0  2  0  0  0  0  0  0
  195.6770  176.0650  144.2710 C   0  0  0  0  0  1  0  0  0  0  0  0
  188.0310  175.7940  142.9140 C   0  0  0  0  0  0  0  0  0  0  0  0
  189.3590  176.2250  142.7840 C   0  0  0  0  0  3  0  0  0  0  0  0
  189.9610  174.1120  141.7590 C   0  0  0  0  0  0  0  0  0  0  0  0
  190.3180  175.3920  142.2030 C   0  0  0  0  0  3  0  0  0  0  0  0
  187.6810  174.5100  142.4700 C   0  0  0  0  0  3  0  0  0  0  0  0
  188.6410  173.6750  141.8930 C   0  0  0  0  0  3  0  0  0  0  0  0
  187.1930  177.1540  144.8170 C   0  0  0  0  0  0  0  0  0  0  0  0
  185.0200  178.2590  144.7380 C   0  0  0  0  0  0  0  0  0  0  0  0
  185.7710  177.0150  142.7860 C   0  0  1  0  0  3  0  0  0  0  0  0
  186.1200  177.7390  141.4970 C   0  0  0  0  0  1  0  0  0  0  0  0
  184.0350  179.0500  145.3890 N   0  0  0  0  0  1  0  0  0  0  0  0
  186.2060  177.9520  145.4000 O   0  0  0  0  0  0  0  0  0  0  0  0
  187.0310  176.6790  143.5630 C   0  0  0  0  0  0  0  0  0  0  0  0
  184.8060  177.8190  143.5390 N   0  0  0  0  0  0  0  0  0  0  0  0
  188.3890  176.8190  145.6570 C   0  0  0  0  0  2  0  0  0  0  0  0
  187.9670  176.0550  146.9000 C   0  0  0  0  0  2  0  0  0  0  0  0
  188.9280  174.9100  147.1650 C   0  0  0  0  0  2  0  0  0  0  0  0
  189.8060  173.4030  145.3900 C   0  0  0  0  0  1  0  0  0  0  0  0
  189.9170  174.7810  146.0210 C   0  0  0  0  0  2  0  0  0  0  0  0
  1  9  1  0  0  0  0
  2  5  1  0  0  0  0
  2  7  1  0  0  0  0
  3  4  1  0  0  0  0
  3 24  1  6  0  0  0
  5  6  2  0  0  0  0
  6  1  1  0  0  0  0
  6  4  1  0  0  0  0
  7  3  1  0  0  0  0
  8 13  1  0  0  0  0
  9  8  2  0  0  0  0
  9 11  1  0  0  0  0
 10 12  1  0  0  0  0
 10 20  1  0  0  0  0
 11 10  2  0  0  0  0
 13 12  2  0  0  0  0
 14 19  1  0  0  0  0
 14 15  1  1  0  0  0
 15 17  1  0  0  0  0
 16 13  1  6  0  0  0
 16 14  1  0  0  0  0
 16 19  1  0  0  0  0
 18 17  1  0  0  0  0
 19 18  1  1  0  0  0
 21 20  1  0  0  0  0
 22 34  1  0  0  0  0
 23 22  1  0  0  0  0
 24 27  2  0  0  0  0
 24 25  1  0  0  0  0
 25 23  2  0  0  0  0
 26 22  2  0  0  0  0
 27 26  1  0  0  0  0
 28 33  1  0  0  0  0
 28 36  1  0  0  0  0
 29 32  1  0  0  0  0
 29 33  1  0  0  0  0
 30 31  1  6  0  0  0
 30 35  1  0  0  0  0
 30 34  1  0  0  0  0
 34 28  2  0  0  0  0
 35 29  2  0  0  0  0
 36 37  1  0  0  0  0
 37 38  1  0  0  0  0
 39 40  1  0  0  0  0
 40 38  1  0  0  0  0
M  END
>  <MODEL>
5

>  <REMARK>
 VINA RESULT:      -7.3      3.630     11.493
  Name = 
  9 active torsions:
  status: ('A' for Active; 'I' for Inactive)
    1  A    between atoms: C_2  and  C_37
    2  A    between atoms: N_5  and  C_7
    3  A    between atoms: C_6  and  C_10
    4  A    between atoms: C_8  and  C_18
    5  A    between atoms: C_8  and  C_24
    6  A    between atoms: C_9  and  C_12
    7  A    between atoms: C_10  and  C_18
    8  A    between atoms: C_14  and  C_34
    9  A    between atoms: C_16  and  C_21
                            x       y       z     vdW  Elec       q    Type
                         _______ _______ _______ _____ _____    ______ ____

>  <TORSDO>
F 9

$$$$
=
 OpenBabel11072409283D

 40 45  0  0  1  0  0  0  0  0999 V2000
  195.3700  172.7430  145.2520 N   0  0  0  0  0  2  0  0  0  0  0  0
  194.9200  176.3500  145.9730 C   0  0  0  0  0  2  0  0  0  0  0  0
  193.0880  175.6280  144.4980 C   0  0  2  0  0  3  0  0  0  0  0  0
  193.3130  174.2800  145.2040 C   0  0  0  0  0  2  0  0  0  0  0  0
  195.5220  175.0370  145.7620 N   0  0  0  0  0  0  0  0  0  0  0  0
  194.7790  174.0400  145.3980 C   0  0  0  0  0  0  0  0  0  0  0  0
  194.0480  176.6970  144.8440 N   0  0  0  0  0  2  0  0  0  0  0  0
  194.2120  171.3760  143.5380 C   0  0  0  0  0  3  0  0  0  0  0  0
  194.7240  171.5290  144.8340 C   0  0  0  0  0  0  0  0  0  0  0  0
  193.9870  169.2770  145.3600 C   0  0  0  0  0  0  0  0  0  0  0  0
  194.6100  170.4720  145.7410 C   0  0  0  0  0  3  0  0  0  0  0  0
  193.4600  169.1420  144.0700 C   0  0  0  0  0  3  0  0  0  0  0  0
  193.5620  170.1950  143.1540 C   0  0  0  0  0  0  0  0  0  0  0  0
  191.7220  170.7420  141.6120 N   0  0  2  0  0  0  0  0  0  0  0  0
  190.8950  171.3530  140.6850 C   0  0  0  0  0  2  0  0  0  0  0  0
  193.0350  170.0310  141.7640 C   0  0  2  0  0  3  0  0  0  0  0  0
  190.5870  170.3030  139.9160 C   0  0  0  0  0  2  0  0  0  0  0  0
  191.2540  168.9860  140.3990 C   0  0  0  0  0  2  0  0  0  0  0  0
  191.8780  169.2990  141.7770 C   0  0  2  0  0  3  0  0  0  0  0  0
  193.8520  168.1660  146.3400 C   0  0  0  0  0  2  0  0  0  0  0  0
  194.5540  168.5210  147.6360 C   0  0  0  0  0  1  0  0  0  0  0  0
  189.0390  177.0170  144.9260 C   0  0  0  0  0  0  0  0  0  0  0  0
  189.3390  175.6600  145.1120 C   0  0  0  0  0  3  0  0  0  0  0  0
  191.6800  176.0980  144.6580 C   0  0  0  0  0  0  0  0  0  0  0  0
  190.6530  175.2030  144.9850 C   0  0  0  0  0  3  0  0  0  0  0  0
  190.0720  177.9070  144.5950 C   0  0  0  0  0  3  0  0  0  0  0  0
  191.3850  177.4500  144.4650 C   0  0  0  0  0  3  0  0  0  0  0  0
  186.8500  177.6640  143.9460 C   0  0  0  0  0  0  0  0  0  0  0  0
  185.0150  178.4680  145.3400 C   0  0  0  0  0  0  0  0  0  0  0  0
  187.0900  177.7900  146.4160 C   0  0  1  0  0  3  0  0  0  0  0  0
  187.1360  176.5510  147.2940 C   0  0  0  0  0  1  0  0  0  0  0  0
  183.6910  178.9760  145.4300 N   0  0  0  0  0  1  0  0  0  0  0  0
  185.5440  178.1380  144.0940 O   0  0  0  0  0  0  0  0  0  0  0  0
  187.6330  177.4800  145.0320 C   0  0  0  0  0  0  0  0  0  0  0  0
  185.7260  178.3230  146.4120 N   0  0  0  0  0  0  0  0  0  0  0  0
  187.3390  177.4250  142.5510 C   0  0  0  0  0  2  0  0  0  0  0  0
  187.0830  175.9870  142.1370 C   0  0  0  0  0  2  0  0  0  0  0  0
  188.1860  175.5000  141.2140 C   0  0  0  0  0  2  0  0  0  0  0  0
  187.9390  173.1130  141.8730 C   0  0  0  0  0  1  0  0  0  0  0  0
  188.8870  174.3000  141.8240 C   0  0  0  0  0  2  0  0  0  0  0  0
  1  6  1  0  0  0  0
  3 24  1  1  0  0  0
  3  7  1  0  0  0  0
  3  4  1  0  0  0  0
  4  6  1  0  0  0  0
  5  2  1  0  0  0  0
  6  5  2  0  0  0  0
  7  2  1  0  0  0  0
  8  9  1  0  0  0  0
  9  1  1  0  0  0  0
  9 11  2  0  0  0  0
 10 11  1  0  0  0  0
 10 20  1  0  0  0  0
 12 10  2  0  0  0  0
 13  8  2  0  0  0  0
 13 12  1  0  0  0  0
 14 15  1  6  0  0  0
 14 16  1  0  0  0  0
 14 19  1  0  0  0  0
 16 19  1  0  0  0  0
 16 13  1  1  0  0  0
 17 18  1  0  0  0  0
 17 15  1  0  0  0  0
 19 18  1  6  0  0  0
 20 21  1  0  0  0  0
 22 34  1  0  0  0  0
 22 23  1  0  0  0  0
 24 25  1  0  0  0  0
 25 23  2  0  0  0  0
 26 22  2  0  0  0  0
 27 26  1  0  0  0  0
 27 24  2  0  0  0  0
 28 33  1  0  0  0  0
 28 34  2  0  0  0  0
 29 32  1  0  0  0  0
 29 35  2  0  0  0  0
 30 31  1  1  0  0  0
 33 29  1  0  0  0  0
 34 30  1  0  0  0  0
 35 30  1  0  0  0  0
 36 28  1  0  0  0  0
 37 36  1  0  0  0  0
 38 40  1  0  0  0  0
 38 37  1  0  0  0  0
 40 39  1  0  0  0  0
M  END
>  <MODEL>
6

>  <REMARK>
 VINA RESULT:      -7.2      3.501     10.087
  Name = 
  9 active torsions:
  status: ('A' for Active; 'I' for Inactive)
    1  A    between atoms: C_2  and  C_37
    2  A    between atoms: N_5  and  C_7
    3  A    between atoms: C_6  and  C_10
    4  A    between atoms: C_8  and  C_18
    5  A    between atoms: C_8  and  C_24
    6  A    between atoms: C_9  and  C_12
    7  A    between atoms: C_10  and  C_18
    8  A    between atoms: C_14  and  C_34
    9  A    between atoms: C_16  and  C_21
                            x       y       z     vdW  Elec       q    Type
                         _______ _______ _______ _____ _____    ______ ____

>  <TORSDO>
F 9

$$$$
=
 OpenBabel11072409283D

 40 45  0  0  1  0  0  0  0  0999 V2000
  190.3850  176.6700  146.3450 N   0  0  0  0  0  2  0  0  0  0  0  0
  193.3430  174.6030  145.5030 C   0  0  0  0  0  2  0  0  0  0  0  0
  191.4270  173.7620  144.2100 C   0  0  2  0  0  3  0  0  0  0  0  0
  190.9710  175.2290  144.3020 C   0  0  0  0  0  2  0  0  0  0  0  0
  192.4040  175.4650  146.2140 N   0  0  0  0  0  0  0  0  0  0  0  0
  191.2730  175.7760  145.6640 C   0  0  0  0  0  0  0  0  0  0  0  0
  192.6490  173.4250  144.9690 N   0  0  0  0  0  2  0  0  0  0  0  0
  188.8350  177.4810  144.5880 C   0  0  0  0  0  3  0  0  0  0  0  0
  189.0860  177.1090  145.9150 C   0  0  0  0  0  0  0  0  0  0  0  0
  186.7670  177.5800  146.4540 C   0  0  0  0  0  0  0  0  0  0  0  0
  188.0430  177.1580  146.8450 C   0  0  0  0  0  3  0  0  0  0  0  0
  186.5320  177.9700  145.1300 C   0  0  0  0  0  3  0  0  0  0  0  0
  187.5690  177.9310  144.1910 C   0  0  0  0  0  0  0  0  0  0  0  0
  185.9470  177.8310  142.3410 N   0  0  2  0  0  0  0  0  0  0  0  0
  184.9110  178.0870  141.4600 C   0  0  0  0  0  2  0  0  0  0  0  0
  187.3040  178.3080  142.7680 C   0  0  2  0  0  3  0  0  0  0  0  0
  185.5260  177.8500  140.2970 C   0  0  0  0  0  2  0  0  0  0  0  0
  187.0090  177.4230  140.4750 C   0  0  0  0  0  2  0  0  0  0  0  0
  187.2100  177.1870  141.9890 C   0  0  2  0  0  3  0  0  0  0  0  0
  185.6690  177.6500  147.4560 C   0  0  0  0  0  2  0  0  0  0  0  0
  184.4310  178.2690  146.8370 C   0  0  0  0  0  1  0  0  0  0  0  0
  191.7700  172.5110  140.1080 C   0  0  0  0  0  0  0  0  0  0  0  0
  191.5660  171.5590  141.1170 C   0  0  0  0  0  3  0  0  0  0  0  0
  191.5360  173.3150  142.7890 C   0  0  0  0  0  0  0  0  0  0  0  0
  191.4430  171.9590  142.4500 C   0  0  0  0  0  3  0  0  0  0  0  0
  191.8650  173.8670  140.4550 C   0  0  0  0  0  3  0  0  0  0  0  0
  191.7460  174.2670  141.7880 C   0  0  0  0  0  3  0  0  0  0  0  0
  190.8790  171.8970  137.8720 C   0  0  0  0  0  0  0  0  0  0  0  0
  192.3450  171.1170  136.0840 C   0  0  0  0  0  0  0  0  0  0  0  0
  193.3360  171.7630  138.2110 C   0  0  1  0  0  3  0  0  0  0  0  0
  194.2130  172.9990  138.3090 C   0  0  0  0  0  1  0  0  0  0  0  0
  192.4880  170.6280  134.7580 N   0  0  0  0  0  1  0  0  0  0  0  0
  191.0790  171.4410  136.5670 O   0  0  0  0  0  0  0  0  0  0  0  0
  191.9320  172.0670  138.7010 C   0  0  0  0  0  0  0  0  0  0  0  0
  193.3880  171.2490  136.8400 N   0  0  0  0  0  0  0  0  0  0  0  0
  189.4650  172.1310  138.3080 C   0  0  0  0  0  2  0  0  0  0  0  0
  189.0800  173.5860  138.1010 C   0  0  0  0  0  2  0  0  0  0  0  0
  188.3560  174.1170  139.3250 C   0  0  0  0  0  2  0  0  0  0  0  0
  188.1210  173.6220  141.7520 C   0  0  0  0  0  1  0  0  0  0  0  0
  188.2010  173.0180  140.3600 C   0  0  0  0  0  2  0  0  0  0  0  0
  2  5  1  0  0  0  0
  3 24  1  6  0  0  0
  3  4  1  0  0  0  0
  3  7  1  0  0  0  0
  4  6  1  0  0  0  0
  6  5  2  0  0  0  0
  6  1  1  0  0  0  0
  7  2  1  0  0  0  0
  8  9  1  0  0  0  0
  9  1  1  0  0  0  0
  9 11  2  0  0  0  0
 10 11  1  0  0  0  0
 10 20  1  0  0  0  0
 12 10  2  0  0  0  0
 13  8  2  0  0  0  0
 13 12  1  0  0  0  0
 14 15  1  6  0  0  0
 14 16  1  0  0  0  0
 16 13  1  1  0  0  0
 17 18  1  0  0  0  0
 17 15  1  0  0  0  0
 19 18  1  6  0  0  0
 19 14  1  0  0  0  0
 19 16  1  0  0  0  0
 21 20  1  0  0  0  0
 22 26  2  0  0  0  0
 22 23  1  0  0  0  0
 23 25  2  0  0  0  0
 25 24  1  0  0  0  0
 26 27  1  0  0  0  0
 27 24  2  0  0  0  0
 28 36  1  0  0  0  0
 28 34  2  0  0  0  0
 29 33  1  0  0  0  0
 29 35  2  0  0  0  0
 30 31  1  6  0  0  0
 30 34  1  0  0  0  0
 32 29  1  0  0  0  0
 33 28  1  0  0  0  0
 34 22  1  0  0  0  0
 35 30  1  0  0  0  0
 37 36  1  0  0  0  0
 37 38  1  0  0  0  0
 38 40  1  0  0  0  0
 40 39  1  0  0  0  0
M  END
>  <MODEL>
7

>  <REMARK>
 VINA RESULT:      -7.0      3.753      6.808
  Name = 
  9 active torsions:
  status: ('A' for Active; 'I' for Inactive)
    1  A    between atoms: C_2  and  C_37
    2  A    between atoms: N_5  and  C_7
    3  A    between atoms: C_6  and  C_10
    4  A    between atoms: C_8  and  C_18
    5  A    between atoms: C_8  and  C_24
    6  A    between atoms: C_9  and  C_12
    7  A    between atoms: C_10  and  C_18
    8  A    between atoms: C_14  and  C_34
    9  A    between atoms: C_16  and  C_21
                            x       y       z     vdW  Elec       q    Type
                         _______ _______ _______ _____ _____    ______ ____

>  <TORSDO>
F 9

$$$$
=
 OpenBabel11072409283D

 40 45  0  0  1  0  0  0  0  0999 V2000
  192.0580  173.1680  143.5940 N   0  0  0  0  0  2  0  0  0  0  0  0
  190.9840  175.9020  145.8540 C   0  0  0  0  0  2  0  0  0  0  0  0
  189.9730  176.2900  143.6450 C   0  0  2  0  0  3  0  0  0  0  0  0
  190.0400  174.7550  143.5620 C   0  0  0  0  0  2  0  0  0  0  0  0
  191.7540  174.8240  145.2420 N   0  0  0  0  0  0  0  0  0  0  0  0
  191.3250  174.2640  144.1540 C   0  0  0  0  0  0  0  0  0  0  0  0
  190.5990  176.8920  144.8410 N   0  0  0  0  0  2  0  0  0  0  0  0
  191.6290  173.0870  141.1540 C   0  0  0  0  0  3  0  0  0  0  0  0
  191.7620  172.4420  142.3900 C   0  0  0  0  0  0  0  0  0  0  0  0
  191.3250  170.3200  141.2960 C   0  0  0  0  0  0  0  0  0  0  0  0
  191.6110  171.0530  142.4540 C   0  0  0  0  0  3  0  0  0  0  0  0
  191.1730  170.9770  140.0690 C   0  0  0  0  0  3  0  0  0  0  0  0
  191.3140  172.3670  139.9940 C   0  0  0  0  0  0  0  0  0  0  0  0
  189.7510  173.3140  138.3450 N   0  0  2  0  0  0  0  0  0  0  0  0
  188.9090  174.1500  137.6310 C   0  0  0  0  0  2  0  0  0  0  0  0
  191.1920  173.0610  138.6740 C   0  0  2  0  0  3  0  0  0  0  0  0
  189.3010  173.8700  136.3840 C   0  0  0  0  0  2  0  0  0  0  0  0
  190.4330  172.8070  136.3320 C   0  0  0  0  0  2  0  0  0  0  0  0
  190.5660  172.2500  137.7670 C   0  0  2  0  0  3  0  0  0  0  0  0
  191.1450  168.8450  141.3780 C   0  0  0  0  0  2  0  0  0  0  0  0
  192.0220  168.2690  142.4720 C   0  0  0  0  0  1  0  0  0  0  0  0
  185.9640  177.7490  143.0950 C   0  0  0  0  0  0  0  0  0  0  0  0
  186.1890  176.3830  143.3160 C   0  0  0  0  0  3  0  0  0  0  0  0
  188.5750  176.7840  143.4640 C   0  0  0  0  0  0  0  0  0  0  0  0
  187.4870  175.9030  143.5070 C   0  0  0  0  0  3  0  0  0  0  0  0
  187.0580  178.6250  143.0500 C   0  0  0  0  0  3  0  0  0  0  0  0
  188.3570  178.1450  143.2370 C   0  0  0  0  0  3  0  0  0  0  0  0
  183.9040  178.9560  143.7830 C   0  0  0  0  0  0  0  0  0  0  0  0
  181.9250  179.0200  142.3580 C   0  0  0  0  0  0  0  0  0  0  0  0
  183.9120  177.8710  141.5490 C   0  0  1  0  0  3  0  0  0  0  0  0
  184.7010  178.4280  140.3760 C   0  0  0  0  0  1  0  0  0  0  0  0
  180.5790  179.4330  142.1670 N   0  0  0  0  0  1  0  0  0  0  0  0
  182.5910  179.3610  143.5330 O   0  0  0  0  0  0  0  0  0  0  0  0
  184.5810  178.2380  142.8610 C   0  0  0  0  0  0  0  0  0  0  0  0
  182.5220  178.3220  141.4450 N   0  0  0  0  0  0  0  0  0  0  0  0
  184.4880  179.3080  145.1180 C   0  0  0  0  0  2  0  0  0  0  0  0
  184.2740  178.1760  146.1060 C   0  0  0  0  0  2  0  0  0  0  0  0
  185.2440  178.2990  147.2670 C   0  0  0  0  0  2  0  0  0  0  0  0
  187.0490  176.6300  146.8790 C   0  0  0  0  0  1  0  0  0  0  0  0
  186.6680  178.0980  146.7820 C   0  0  0  0  0  2  0  0  0  0  0  0
  1  6  1  0  0  0  0
  3 24  1  1  0  0  0
  3  7  1  0  0  0  0
  4  3  1  0  0  0  0
  4  6  1  0  0  0  0
  5  2  1  0  0  0  0
  6  5  2  0  0  0  0
  7  2  1  0  0  0  0
  8  9  1  0  0  0  0
  9 11  2  0  0  0  0
  9  1  1  0  0  0  0
 10 20  1  0  0  0  0
 10 11  1  0  0  0  0
 12 10  2  0  0  0  0
 13 12  1  0  0  0  0
 13  8  2  0  0  0  0
 14 15  1  6  0  0  0
 14 16  1  0  0  0  0
 16 13  1  1  0  0  0
 17 15  1  0  0  0  0
 18 17  1  0  0  0  0
 19 18  1  6  0  0  0
 19 14  1  0  0  0  0
 19 16  1  0  0  0  0
 20 21  1  0  0  0  0
 22 23  1  0  0  0  0
 23 25  2  0  0  0  0
 24 25  1  0  0  0  0
 26 22  2  0  0  0  0
 26 27  1  0  0  0  0
 27 24  2  0  0  0  0
 28 36  1  0  0  0  0
 29 33  1  0  0  0  0
 30 31  1  6  0  0  0
 30 34  1  0  0  0  0
 32 29  1  0  0  0  0
 33 28  1  0  0  0  0
 34 22  1  0  0  0  0
 34 28  2  0  0  0  0
 35 30  1  0  0  0  0
 35 29  2  0  0  0  0
 36 37  1  0  0  0  0
 37 38  1  0  0  0  0
 40 39  1  0  0  0  0
 40 38  1  0  0  0  0
M  END
>  <MODEL>
8

>  <REMARK>
 VINA RESULT:      -7.0      3.812      9.589
  Name = 
  9 active torsions:
  status: ('A' for Active; 'I' for Inactive)
    1  A    between atoms: C_2  and  C_37
    2  A    between atoms: N_5  and  C_7
    3  A    between atoms: C_6  and  C_10
    4  A    between atoms: C_8  and  C_18
    5  A    between atoms: C_8  and  C_24
    6  A    between atoms: C_9  and  C_12
    7  A    between atoms: C_10  and  C_18
    8  A    between atoms: C_14  and  C_34
    9  A    between atoms: C_16  and  C_21
                            x       y       z     vdW  Elec       q    Type
                         _______ _______ _______ _____ _____    ______ ____

>  <TORSDO>
F 9

$$$$
=
 OpenBabel11072409283D

 40 45  0  0  1  0  0  0  0  0999 V2000
  195.0220  173.3470  141.8860 N   0  0  0  0  0  2  0  0  0  0  0  0
  194.2250  174.0930  145.4280 C   0  0  0  0  0  2  0  0  0  0  0  0
  193.0320  175.7150  144.0150 C   0  0  2  0  0  3  0  0  0  0  0  0
  193.0510  174.5540  143.0060 C   0  0  0  0  0  2  0  0  0  0  0  0
  194.9090  173.6400  144.2210 N   0  0  0  0  0  0  0  0  0  0  0  0
  194.3710  173.8470  143.0600 C   0  0  0  0  0  0  0  0  0  0  0  0
  193.7780  175.4820  145.2690 N   0  0  0  0  0  2  0  0  0  0  0  0
  193.4080  172.9300  140.0500 C   0  0  0  0  0  3  0  0  0  0  0  0
  194.6000  173.4970  140.5210 C   0  0  0  0  0  0  0  0  0  0  0  0
  195.0090  174.4010  138.3060 C   0  0  0  0  0  0  0  0  0  0  0  0
  195.3970  174.2360  139.6410 C   0  0  0  0  0  3  0  0  0  0  0  0
  193.8280  173.8120  137.8400 C   0  0  0  0  0  3  0  0  0  0  0  0
  193.0250  173.0650  138.7090 C   0  0  0  0  0  0  0  0  0  0  0  0
  190.6180  173.4530  138.3720 N   0  0  2  0  0  0  0  0  0  0  0  0
  189.3820  173.8100  137.8580 C   0  0  0  0  0  2  0  0  0  0  0  0
  191.7420  172.4720  138.2190 C   0  0  2  0  0  3  0  0  0  0  0  0
  188.6740  172.7200  138.1680 C   0  0  0  0  0  2  0  0  0  0  0  0
  189.5140  171.6460  138.9130 C   0  0  0  0  0  2  0  0  0  0  0  0
  190.8630  172.3170  139.2560 C   0  0  2  0  0  3  0  0  0  0  0  0
  195.8750  175.1710  137.3720 C   0  0  0  0  0  2  0  0  0  0  0  0
  197.2820  175.2750  137.9260 C   0  0  0  0  0  1  0  0  0  0  0  0
  189.0200  177.0590  144.7920 C   0  0  0  0  0  0  0  0  0  0  0  0
  189.3360  175.6970  144.8960 C   0  0  0  0  0  3  0  0  0  0  0  0
  191.6370  176.1690  144.2960 C   0  0  0  0  0  0  0  0  0  0  0  0
  190.6390  175.2540  144.6570 C   0  0  0  0  0  3  0  0  0  0  0  0
  190.0230  177.9690  144.4270 C   0  0  0  0  0  3  0  0  0  0  0  0
  191.3260  177.5260  144.1830 C   0  0  0  0  0  3  0  0  0  0  0  0
  186.7680  177.7490  144.0000 C   0  0  0  0  0  0  0  0  0  0  0  0
  185.0310  178.4660  145.5560 C   0  0  0  0  0  0  0  0  0  0  0  0
  187.1750  177.7400  146.4500 C   0  0  1  0  0  3  0  0  0  0  0  0
  187.2810  176.4540  147.2530 C   0  0  0  0  0  1  0  0  0  0  0  0
  183.7160  178.9610  145.7630 N   0  0  0  0  0  1  0  0  0  0  0  0
  185.4750  178.2080  144.2610 O   0  0  0  0  0  0  0  0  0  0  0  0
  187.6230  177.5090  145.0180 C   0  0  0  0  0  0  0  0  0  0  0  0
  185.8140  178.2650  146.5680 N   0  0  0  0  0  0  0  0  0  0  0  0
  187.1630  177.5900  142.5630 C   0  0  0  0  0  2  0  0  0  0  0  0
  186.9870  176.1490  142.1200 C   0  0  0  0  0  2  0  0  0  0  0  0
  187.9720  175.8140  141.0140 C   0  0  0  0  0  2  0  0  0  0  0  0
  188.0700  173.5380  142.0150 C   0  0  0  0  0  1  0  0  0  0  0  0
  188.8890  174.6880  141.4540 C   0  0  0  0  0  2  0  0  0  0  0  0
  1  6  1  0  0  0  0
  3 24  1  1  0  0  0
  3  7  1  0  0  0  0
  4  6  1  0  0  0  0
  4  3  1  0  0  0  0
  5  2  1  0  0  0  0
  6  5  2  0  0  0  0
  7  2  1  0  0  0  0
  8  9  1  0  0  0  0
  9  1  1  0  0  0  0
 10 11  1  0  0  0  0
 11  9  2  0  0  0  0
 12 10  2  0  0  0  0
 12 13  1  0  0  0  0
 13  8  2  0  0  0  0
 14 15  1  6  0  0  0
 14 19  1  0  0  0  0
 15 17  1  0  0  0  0
 16 14  1  0  0  0  0
 16 13  1  1  0  0  0
 16 19  1  0  0  0  0
 17 18  1  0  0  0  0
 19 18  1  6  0  0  0
 20 21  1  0  0  0  0
 20 10  1  0  0  0  0
 22 23  1  0  0  0  0
 22 34  1  0  0  0  0
 24 25  1  0  0  0  0
 25 23  2  0  0  0  0
 26 22  2  0  0  0  0
 27 24  2  0  0  0  0
 27 26  1  0  0  0  0
 28 33  1  0  0  0  0
 28 34  2  0  0  0  0
 29 32  1  0  0  0  0
 29 35  2  0  0  0  0
 30 35  1  0  0  0  0
 30 31  1  1  0  0  0
 33 29  1  0  0  0  0
 34 30  1  0  0  0  0
 36 28  1  0  0  0  0
 37 36  1  0  0  0  0
 38 40  1  0  0  0  0
 38 37  1  0  0  0  0
 40 39  1  0  0  0  0
M  END
>  <MODEL>
9

>  <REMARK>
 VINA RESULT:      -6.9      3.586      9.068
  Name = 
  9 active torsions:
  status: ('A' for Active; 'I' for Inactive)
    1  A    between atoms: C_2  and  C_37
    2  A    between atoms: N_5  and  C_7
    3  A    between atoms: C_6  and  C_10
    4  A    between atoms: C_8  and  C_18
    5  A    between atoms: C_8  and  C_24
    6  A    between atoms: C_9  and  C_12
    7  A    between atoms: C_10  and  C_18
    8  A    between atoms: C_14  and  C_34
    9  A    between atoms: C_16  and  C_21
                            x       y       z     vdW  Elec       q    Type
                         _______ _______ _______ _____ _____    ______ ____

>  <TORSDO>
F 9

$$$$
