=
 OpenBabel11062423113D

 28 33  0  0  1  0  0  0  0  0999 V2000
  185.9480  177.5870  142.0000 C   0  0  0  0  0  0  0  0  0  0  0  0
  184.8000  177.9450  142.7460 C   0  0  0  0  0  0  0  0  0  0  0  0
  183.6150  178.3370  140.6710 C   0  0  0  0  0  3  0  0  0  0  0  0
  184.7180  177.9620  139.9720 N   0  0  0  0  0  0  0  0  0  0  0  0
  183.6390  178.3340  142.0650 C   0  0  0  0  0  3  0  0  0  0  0  0
  185.8660  177.5940  140.5990 C   0  0  0  0  0  3  0  0  0  0  0  0
  190.4760  175.0710  145.0750 C   0  0  0  0  0  2  0  0  0  0  0  0
  189.2330  176.1550  143.1060 C   0  0  1  0  0  0  0  0  0  0  0  0
  187.9550  176.1910  142.3460 C   0  0  0  0  0  3  0  0  0  0  0  0
  187.9520  178.1870  143.5840 C   0  0  0  0  0  2  0  0  0  0  0  0
  187.2480  177.2760  142.6330 C   0  0  0  0  0  0  0  0  0  0  0  0
  189.2280  177.4370  143.9270 C   0  0  2  0  0  0  0  0  0  0  0  0
  189.6460  174.8560  143.8160 C   0  0  0  0  0  2  0  0  0  0  0  0
  189.7620  176.0580  145.9890 C   0  0  2  0  0  3  0  0  0  0  0  0
  190.2590  177.2430  142.8200 C   0  0  0  0  0  2  0  0  0  0  0  0
  189.7840  177.4410  145.3520 C   0  0  0  0  0  2  0  0  0  0  0  0
  191.7740  175.4830  147.3660 C   0  0  0  0  0  1  0  0  0  0  0  0
  190.3900  176.1100  147.3830 C   0  0  1  0  0  3  0  0  0  0  0  0
  191.5120  177.4120  148.7820 C   0  0  0  0  0  1  0  0  0  0  0  0
  190.4670  177.4240  147.8570 O   0  0  0  0  0  0  0  0  0  0  0  0
  185.6910  179.1370  147.4960 C   0  0  0  0  0  3  0  0  0  0  0  0
  184.9470  178.4780  146.3880 C   0  0  0  0  0  0  0  0  0  0  0  0
  184.7690  177.8590  144.1780 N   0  0  0  0  0  0  0  0  0  0  0  0
  186.3120  176.9580  147.2730 N   0  0  0  0  0  0  0  0  0  0  0  0
  186.5390  178.0840  148.0840 N   0  0  0  0  0  0  0  0  0  0  0  0
  185.2880  176.7200  144.9260 C   0  0  0  0  0  2  0  0  0  0  0  0
  185.3240  177.2410  146.3110 C   0  0  0  0  0  0  0  0  0  0  0  0
  184.6440  179.0290  145.0450 C   0  0  0  0  0  3  0  0  0  0  0  0
  1 11  1  0  0  0  0
  1  2  1  0  0  0  0
  2 23  1  0  0  0  0
  3  5  1  0  0  0  0
  4  6  1  0  0  0  0
  4  3  2  0  0  0  0
  5  2  2  0  0  0  0
  6  1  2  0  0  0  0
  7 14  1  0  0  0  0
  8  9  1  6  0  0  0
  8 13  1  0  0  0  0
  8 12  1  0  0  0  0
  9 11  2  0  0  0  0
 10 12  1  0  0  0  0
 11 10  1  0  0  0  0
 12 15  1  6  0  0  0
 12 16  1  0  0  0  0
 13  7  1  0  0  0  0
 14 18  1  1  0  0  0
 15  8  1  0  0  0  0
 16 14  1  0  0  0  0
 18 17  1  6  0  0  0
 18 20  1  0  0  0  0
 20 19  1  0  0  0  0
 21 25  2  0  0  0  0
 22 21  1  0  0  0  0
 23 26  1  0  0  0  0
 23 28  1  0  0  0  0
 24 25  1  0  0  0  0
 26 27  1  0  0  0  0
 27 22  1  0  0  0  0
 27 24  2  0  0  0  0
 28 22  2  0  0  0  0
M  END
>  <MODEL>
1

>  <REMARK>
 VINA RESULT:      -8.0      0.000      0.000
  Name = 
  4 active torsions:
  status: ('A' for Active; 'I' for Inactive)
    1  A    between atoms: C_4  and  C_16
    2  A    between atoms: C_5  and  C_19
    3  A    between atoms: C_5  and  O_26
    4  A    between atoms: N_6  and  C_13
                            x       y       z     vdW  Elec       q    Type
                         _______ _______ _______ _____ _____    ______ ____

>  <TORSDO>
F 4

$$$$
=
 OpenBabel11062423113D

 28 33  0  0  1  0  0  0  0  0999 V2000
  186.9940  177.4210  142.1260 C   0  0  0  0  0  0  0  0  0  0  0  0
  185.7420  177.9430  142.5320 C   0  0  0  0  0  0  0  0  0  0  0  0
  185.0840  178.0810  140.2060 C   0  0  0  0  0  3  0  0  0  0  0  0
  186.2790  177.5510  139.8370 N   0  0  0  0  0  0  0  0  0  0  0  0
  184.7970  178.2840  141.5550 C   0  0  0  0  0  3  0  0  0  0  0  0
  187.2260  177.2240  140.7560 C   0  0  0  0  0  3  0  0  0  0  0  0
  192.3410  176.6140  144.7790 C   0  0  0  0  0  2  0  0  0  0  0  0
  189.9580  177.5020  144.4220 C   0  0  1  0  0  0  0  0  0  0  0  0
  189.0000  178.0460  143.4230 C   0  0  0  0  0  3  0  0  0  0  0  0
  188.2380  175.8610  143.8300 C   0  0  0  0  0  2  0  0  0  0  0  0
  188.0900  177.1430  143.0790 C   0  0  0  0  0  0  0  0  0  0  0  0
  189.4820  176.0780  144.6750 C   0  0  2  0  0  0  0  0  0  0  0  0
  191.4640  177.7230  144.2130 C   0  0  0  0  0  2  0  0  0  0  0  0
  191.8510  175.2670  144.2630 C   0  0  2  0  0  3  0  0  0  0  0  0
  189.4130  177.1150  145.7900 C   0  0  0  0  0  2  0  0  0  0  0  0
  190.4970  174.9530  144.8840 C   0  0  0  0  0  2  0  0  0  0  0  0
  193.7670  174.5340  145.7000 C   0  0  0  0  0  1  0  0  0  0  0  0
  192.8420  174.1410  144.5610 C   0  0  1  0  0  3  0  0  0  0  0  0
  193.0920  171.9390  144.5700 C   0  0  0  0  0  1  0  0  0  0  0  0
  192.1790  172.9500  144.8730 O   0  0  0  0  0  0  0  0  0  0  0  0
  186.0680  179.3100  147.3080 C   0  0  0  0  0  3  0  0  0  0  0  0
  185.3570  178.8620  146.0780 C   0  0  0  0  0  0  0  0  0  0  0  0
  185.3870  178.0730  143.9160 N   0  0  0  0  0  0  0  0  0  0  0  0
  185.7380  177.0570  147.3240 N   0  0  0  0  0  0  0  0  0  0  0  0
  186.2500  178.0960  148.1220 N   0  0  0  0  0  0  0  0  0  0  0  0
  185.2110  176.9350  144.8100 C   0  0  0  0  0  2  0  0  0  0  0  0
  185.1820  177.5810  146.1420 C   0  0  0  0  0  0  0  0  0  0  0  0
  185.5970  179.3010  144.6810 C   0  0  0  0  0  3  0  0  0  0  0  0
  1  2  1  0  0  0  0
  1 11  1  0  0  0  0
  2 23  1  0  0  0  0
  3  5  1  0  0  0  0
  4  3  2  0  0  0  0
  4  6  1  0  0  0  0
  5  2  2  0  0  0  0
  6  1  2  0  0  0  0
  8  9  1  6  0  0  0
  8 12  1  0  0  0  0
  8 15  1  0  0  0  0
 11  9  2  0  0  0  0
 11 10  1  0  0  0  0
 12 10  1  6  0  0  0
 12 16  1  0  0  0  0
 12 15  1  0  0  0  0
 13  8  1  0  0  0  0
 13  7  1  0  0  0  0
 14 18  1  1  0  0  0
 14  7  1  0  0  0  0
 14 16  1  0  0  0  0
 18 20  1  0  0  0  0
 18 17  1  1  0  0  0
 19 20  1  0  0  0  0
 21 25  2  0  0  0  0
 22 27  1  0  0  0  0
 22 21  1  0  0  0  0
 23 28  1  0  0  0  0
 23 26  1  0  0  0  0
 24 25  1  0  0  0  0
 26 27  1  0  0  0  0
 27 24  2  0  0  0  0
 28 22  2  0  0  0  0
M  END
>  <MODEL>
2

>  <REMARK>
 VINA RESULT:      -7.9      1.817      2.549
  Name = 
  4 active torsions:
  status: ('A' for Active; 'I' for Inactive)
    1  A    between atoms: C_4  and  C_16
    2  A    between atoms: C_5  and  C_19
    3  A    between atoms: C_5  and  O_26
    4  A    between atoms: N_6  and  C_13
                            x       y       z     vdW  Elec       q    Type
                         _______ _______ _______ _____ _____    ______ ____

>  <TORSDO>
F 4

$$$$
=
 OpenBabel11062423113D

 28 33  0  0  1  0  0  0  0  0999 V2000
  190.4700  173.1600  143.6260 C   0  0  0  0  0  0  0  0  0  0  0  0
  191.8270  172.7590  143.5830 C   0  0  0  0  0  0  0  0  0  0  0  0
  191.1610  170.7530  142.4020 C   0  0  0  0  0  3  0  0  0  0  0  0
  189.8680  171.1680  142.4270 N   0  0  0  0  0  0  0  0  0  0  0  0
  192.1580  171.5400  142.9770 C   0  0  0  0  0  3  0  0  0  0  0  0
  189.5090  172.3370  143.0200 C   0  0  0  0  0  3  0  0  0  0  0  0
  187.3430  177.2530  146.7500 C   0  0  0  0  0  2  0  0  0  0  0  0
  189.3070  175.7330  146.0940 C   0  0  1  0  0  0  0  0  0  0  0  0
  189.6900  174.3730  145.6300 C   0  0  0  0  0  3  0  0  0  0  0  0
  189.9750  175.7340  143.7370 C   0  0  0  0  0  2  0  0  0  0  0  0
  190.0180  174.3710  144.3450 C   0  0  0  0  0  0  0  0  0  0  0  0
  189.4690  176.6170  144.8660 C   0  0  2  0  0  0  0  0  0  0  0  0
  188.0320  175.9060  146.9340 C   0  0  0  0  0  2  0  0  0  0  0  0
  187.1290  177.5130  145.2640 C   0  0  2  0  0  3  0  0  0  0  0  0
  190.3770  176.8160  146.0750 C   0  0  0  0  0  2  0  0  0  0  0  0
  188.4760  177.7490  144.5950 C   0  0  0  0  0  2  0  0  0  0  0  0
  185.3070  178.4400  143.8170 C   0  0  0  0  0  1  0  0  0  0  0  0
  186.2020  178.7040  145.0160 C   0  0  1  0  0  3  0  0  0  0  0  0
  184.1060  178.7600  145.7340 C   0  0  0  0  0  1  0  0  0  0  0  0
  185.4220  178.9850  146.1420 O   0  0  0  0  0  0  0  0  0  0  0  0
  194.2270  175.9200  146.5870 C   0  0  0  0  0  3  0  0  0  0  0  0
  194.1290  174.8660  145.5410 C   0  0  0  0  0  0  0  0  0  0  0  0
  192.8810  173.5940  144.0830 N   0  0  0  0  0  0  0  0  0  0  0  0
  194.3580  176.8210  144.5010 N   0  0  0  0  0  0  0  0  0  0  0  0
  194.4300  177.1840  145.8580 N   0  0  0  0  0  0  0  0  0  0  0  0
  193.4340  174.7210  143.3400 C   0  0  0  0  0  2  0  0  0  0  0  0
  194.2220  175.4260  144.3770 C   0  0  0  0  0  0  0  0  0  0  0  0
  193.2030  173.7070  145.5040 C   0  0  0  0  0  3  0  0  0  0  0  0
  1 11  1  0  0  0  0
  2  1  1  0  0  0  0
  2 23  1  0  0  0  0
  3  4  2  0  0  0  0
  3  5  1  0  0  0  0
  4  6  1  0  0  0  0
  5  2  2  0  0  0  0
  6  1  2  0  0  0  0
  7 13  1  0  0  0  0
  8  9  1  6  0  0  0
  8 13  1  0  0  0  0
 10 11  1  0  0  0  0
 11  9  2  0  0  0  0
 12 10  1  6  0  0  0
 12 15  1  0  0  0  0
 12  8  1  0  0  0  0
 14 18  1  1  0  0  0
 14  7  1  0  0  0  0
 15  8  1  0  0  0  0
 16 12  1  0  0  0  0
 16 14  1  0  0  0  0
 18 17  1  6  0  0  0
 18 20  1  0  0  0  0
 19 20  1  0  0  0  0
 22 21  1  0  0  0  0
 23 28  1  0  0  0  0
 24 25  1  0  0  0  0
 25 21  2  0  0  0  0
 26 23  1  0  0  0  0
 26 27  1  0  0  0  0
 27 24  2  0  0  0  0
 27 22  1  0  0  0  0
 28 22  2  0  0  0  0
M  END
>  <MODEL>
3

>  <REMARK>
 VINA RESULT:      -7.7      3.961      7.196
  Name = 
  4 active torsions:
  status: ('A' for Active; 'I' for Inactive)
    1  A    between atoms: C_4  and  C_16
    2  A    between atoms: C_5  and  C_19
    3  A    between atoms: C_5  and  O_26
    4  A    between atoms: N_6  and  C_13
                            x       y       z     vdW  Elec       q    Type
                         _______ _______ _______ _____ _____    ______ ____

>  <TORSDO>
F 4

$$$$
=
 OpenBabel11062423113D

 28 33  0  0  1  0  0  0  0  0999 V2000
  193.7730  175.0040  145.1240 C   0  0  0  0  0  0  0  0  0  0  0  0
  193.8470  174.3790  143.8550 C   0  0  0  0  0  0  0  0  0  0  0  0
  196.2530  174.2610  144.0920 C   0  0  0  0  0  3  0  0  0  0  0  0
  196.1600  174.8340  145.3190 N   0  0  0  0  0  0  0  0  0  0  0  0
  195.1020  174.0240  143.3430 C   0  0  0  0  0  3  0  0  0  0  0  0
  194.9620  175.2060  145.8410 C   0  0  0  0  0  3  0  0  0  0  0  0
  188.0730  175.7250  146.9320 C   0  0  0  0  0  2  0  0  0  0  0  0
  190.6370  175.6680  147.0690 C   0  0  1  0  0  0  0  0  0  0  0  0
  191.8590  174.9160  146.6810 C   0  0  0  0  0  3  0  0  0  0  0  0
  191.8700  176.8030  145.2820 C   0  0  0  0  0  2  0  0  0  0  0  0
  192.5060  175.5150  145.6890 C   0  0  0  0  0  0  0  0  0  0  0  0
  190.6260  176.8830  146.1510 C   0  0  2  0  0  0  0  0  0  0  0  0
  189.3160  174.9060  147.2570 C   0  0  0  0  0  2  0  0  0  0  0  0
  188.2210  176.3430  145.5480 C   0  0  2  0  0  3  0  0  0  0  0  0
  190.8180  177.0630  147.6530 C   0  0  0  0  0  2  0  0  0  0  0  0
  189.3060  177.4120  145.5880 C   0  0  0  0  0  2  0  0  0  0  0  0
  185.8250  176.8200  146.0990 C   0  0  0  0  0  1  0  0  0  0  0  0
  186.9090  176.9440  145.0420 C   0  0  1  0  0  3  0  0  0  0  0  0
  185.8380  178.8820  144.9480 C   0  0  0  0  0  1  0  0  0  0  0  0
  187.0700  178.2840  144.6760 O   0  0  0  0  0  0  0  0  0  0  0  0
  189.3950  174.9140  141.6940 C   0  0  0  0  0  3  0  0  0  0  0  0
  190.7300  174.2860  141.8940 C   0  0  0  0  0  0  0  0  0  0  0  0
  192.6710  174.0390  143.1070 N   0  0  0  0  0  0  0  0  0  0  0  0
  189.2380  173.0500  142.9910 N   0  0  0  0  0  0  0  0  0  0  0  0
  188.4370  174.0360  142.3890 N   0  0  0  0  0  0  0  0  0  0  0  0
  191.7600  172.9640  143.4870 C   0  0  0  0  0  2  0  0  0  0  0  0
  190.5860  173.2260  142.6240 C   0  0  0  0  0  0  0  0  0  0  0  0
  192.0170  174.9650  142.1850 C   0  0  0  0  0  3  0  0  0  0  0  0
  1 11  1  0  0  0  0
  1  6  1  0  0  0  0
  2  1  2  0  0  0  0
  3  4  1  0  0  0  0
  4  6  2  0  0  0  0
  5  2  1  0  0  0  0
  5  3  2  0  0  0  0
  7 13  1  0  0  0  0
  8  9  1  6  0  0  0
  8 13  1  0  0  0  0
  8 15  1  0  0  0  0
 10 11  1  0  0  0  0
 11  9  2  0  0  0  0
 12 10  1  6  0  0  0
 12  8  1  0  0  0  0
 12 15  1  0  0  0  0
 14 18  1  1  0  0  0
 14 16  1  0  0  0  0
 14  7  1  0  0  0  0
 16 12  1  0  0  0  0
 18 17  1  1  0  0  0
 20 19  1  0  0  0  0
 20 18  1  0  0  0  0
 21 22  1  0  0  0  0
 21 25  2  0  0  0  0
 22 28  2  0  0  0  0
 22 27  1  0  0  0  0
 23 26  1  0  0  0  0
 23  2  1  0  0  0  0
 25 24  1  0  0  0  0
 27 24  2  0  0  0  0
 27 26  1  0  0  0  0
 28 23  1  0  0  0  0
M  END
>  <MODEL>
4

>  <REMARK>
 VINA RESULT:      -7.7      3.856      7.559
  Name = 
  4 active torsions:
  status: ('A' for Active; 'I' for Inactive)
    1  A    between atoms: C_4  and  C_16
    2  A    between atoms: C_5  and  C_19
    3  A    between atoms: C_5  and  O_26
    4  A    between atoms: N_6  and  C_13
                            x       y       z     vdW  Elec       q    Type
                         _______ _______ _______ _____ _____    ______ ____

>  <TORSDO>
F 4

$$$$
=
 OpenBabel11062423113D

 28 33  0  0  1  0  0  0  0  0999 V2000
  186.9720  177.5490  146.3430 C   0  0  0  0  0  0  0  0  0  0  0  0
  186.2850  177.8400  145.1390 C   0  0  0  0  0  0  0  0  0  0  0  0
  184.3710  178.5460  146.4430 C   0  0  0  0  0  3  0  0  0  0  0  0
  185.0560  178.2900  147.5870 N   0  0  0  0  0  0  0  0  0  0  0  0
  184.9730  178.3270  145.2040 C   0  0  0  0  0  3  0  0  0  0  0  0
  186.3240  177.8010  147.5620 C   0  0  0  0  0  3  0  0  0  0  0  0
  192.4680  175.4980  144.9750 C   0  0  0  0  0  2  0  0  0  0  0  0
  190.6310  176.7290  146.2810 C   0  0  1  0  0  0  0  0  0  0  0  0
  189.4340  177.6030  146.1640 C   0  0  0  0  0  3  0  0  0  0  0  0
  188.5610  175.4940  146.7170 C   0  0  0  0  0  2  0  0  0  0  0  0
  188.3120  176.9240  146.3670 C   0  0  0  0  0  0  0  0  0  0  0  0
  190.0710  175.3540  146.6190 C   0  0  2  0  0  0  0  0  0  0  0  0
  191.7240  176.8070  145.2040 C   0  0  0  0  0  2  0  0  0  0  0  0
  191.4630  174.3790  144.7350 C   0  0  2  0  0  3  0  0  0  0  0  0
  190.9220  176.1030  147.6380 C   0  0  0  0  0  2  0  0  0  0  0  0
  190.7070  174.0960  146.0260 C   0  0  0  0  0  2  0  0  0  0  0  0
  193.3910  172.8070  145.0250 C   0  0  0  0  0  1  0  0  0  0  0  0
  192.1330  173.1020  144.2250 C   0  0  1  0  0  3  0  0  0  0  0  0
  191.1720  171.5460  142.9730 C   0  0  0  0  0  1  0  0  0  0  0  0
  191.2600  172.0110  144.2860 O   0  0  0  0  0  0  0  0  0  0  0  0
  186.7950  177.8430  140.1870 C   0  0  0  0  0  3  0  0  0  0  0  0
  187.2790  177.9190  141.5930 C   0  0  0  0  0  0  0  0  0  0  0  0
  186.9150  177.7120  143.8570 N   0  0  0  0  0  0  0  0  0  0  0  0
  187.5810  175.8270  140.8940 N   0  0  0  0  0  0  0  0  0  0  0  0
  187.0620  176.4610  139.7510 N   0  0  0  0  0  0  0  0  0  0  0  0
  187.5270  176.4750  143.3820 C   0  0  0  0  0  2  0  0  0  0  0  0
  187.7270  176.7550  141.9420 C   0  0  0  0  0  0  0  0  0  0  0  0
  186.6370  178.6100  142.7380 C   0  0  0  0  0  3  0  0  0  0  0  0
  1 11  1  0  0  0  0
  1  6  1  0  0  0  0
  2  5  1  0  0  0  0
  2  1  2  0  0  0  0
  3  4  1  0  0  0  0
  5  3  2  0  0  0  0
  6  4  2  0  0  0  0
  7 13  1  0  0  0  0
  8 13  1  6  0  0  0
  8 12  1  0  0  0  0
  8 15  1  0  0  0  0
  9  8  1  0  0  0  0
  9 11  2  0  0  0  0
 11 10  1  0  0  0  0
 12 16  1  6  0  0  0
 12 10  1  0  0  0  0
 12 15  1  0  0  0  0
 14 18  1  1  0  0  0
 14  7  1  0  0  0  0
 14 16  1  0  0  0  0
 18 20  1  0  0  0  0
 18 17  1  1  0  0  0
 19 20  1  0  0  0  0
 21 22  1  0  0  0  0
 22 27  1  0  0  0  0
 22 28  2  0  0  0  0
 23  2  1  0  0  0  0
 24 27  2  0  0  0  0
 25 21  2  0  0  0  0
 25 24  1  0  0  0  0
 26 23  1  0  0  0  0
 27 26  1  0  0  0  0
 28 23  1  0  0  0  0
M  END
>  <MODEL>
5

>  <REMARK>
 VINA RESULT:      -7.5      2.248      5.040
  Name = 
  4 active torsions:
  status: ('A' for Active; 'I' for Inactive)
    1  A    between atoms: C_4  and  C_16
    2  A    between atoms: C_5  and  C_19
    3  A    between atoms: C_5  and  O_26
    4  A    between atoms: N_6  and  C_13
                            x       y       z     vdW  Elec       q    Type
                         _______ _______ _______ _____ _____    ______ ____

>  <TORSDO>
F 4

$$$$
=
 OpenBabel11062423113D

 28 33  0  0  1  0  0  0  0  0999 V2000
  190.3870  173.3310  143.2810 C   0  0  0  0  0  0  0  0  0  0  0  0
  191.7570  173.2850  142.9270 C   0  0  0  0  0  0  0  0  0  0  0  0
  191.4260  171.0460  142.0680 C   0  0  0  0  0  3  0  0  0  0  0  0
  190.1080  171.1190  142.3870 N   0  0  0  0  0  0  0  0  0  0  0  0
  192.2690  172.1250  142.3310 C   0  0  0  0  0  3  0  0  0  0  0  0
  189.5800  172.2220  142.9800 C   0  0  0  0  0  3  0  0  0  0  0  0
  187.0980  176.8330  146.9130 C   0  0  0  0  0  2  0  0  0  0  0  0
  189.1860  175.8370  145.7990 C   0  0  1  0  0  0  0  0  0  0  0  0
  189.8360  174.5820  145.3370 C   0  0  0  0  0  3  0  0  0  0  0  0
  189.1570  175.6480  143.3560 C   0  0  0  0  0  2  0  0  0  0  0  0
  189.7890  174.4660  144.0160 C   0  0  0  0  0  0  0  0  0  0  0  0
  188.7250  176.5240  144.5200 C   0  0  2  0  0  0  0  0  0  0  0  0
  188.1960  175.7800  146.9730 C   0  0  0  0  0  2  0  0  0  0  0  0
  186.4200  176.7820  145.5500 C   0  0  2  0  0  3  0  0  0  0  0  0
  189.8140  177.1580  145.3770 C   0  0  0  0  0  2  0  0  0  0  0  0
  187.3920  177.2740  144.4860 C   0  0  0  0  0  2  0  0  0  0  0  0
  184.8900  178.2700  146.8610 C   0  0  0  0  0  1  0  0  0  0  0  0
  185.1360  177.6110  145.5140 C   0  0  1  0  0  3  0  0  0  0  0  0
  183.8760  179.0530  144.3970 C   0  0  0  0  0  1  0  0  0  0  0  0
  185.1850  178.5820  144.5090 O   0  0  0  0  0  0  0  0  0  0  0  0
  195.5220  176.4320  142.0890 C   0  0  0  0  0  3  0  0  0  0  0  0
  194.1970  176.0300  142.6350 C   0  0  0  0  0  0  0  0  0  0  0  0
  192.6230  174.4160  143.1020 N   0  0  0  0  0  0  0  0  0  0  0  0
  195.6840  175.8350  144.2800 N   0  0  0  0  0  0  0  0  0  0  0  0
  196.4600  176.3400  143.2220 N   0  0  0  0  0  0  0  0  0  0  0  0
  193.4010  174.6530  144.3130 C   0  0  0  0  0  2  0  0  0  0  0  0
  194.3390  175.7140  143.8830 C   0  0  0  0  0  0  0  0  0  0  0  0
  193.1660  175.1850  141.9840 C   0  0  0  0  0  3  0  0  0  0  0  0
  1 11  1  0  0  0  0
  2 23  1  0  0  0  0
  2  1  2  0  0  0  0
  3  5  2  0  0  0  0
  3  4  1  0  0  0  0
  4  6  2  0  0  0  0
  5  2  1  0  0  0  0
  6  1  1  0  0  0  0
  7 13  1  0  0  0  0
  8  9  1  6  0  0  0
  8 13  1  0  0  0  0
 10 11  1  0  0  0  0
 11  9  2  0  0  0  0
 12 10  1  6  0  0  0
 12 15  1  0  0  0  0
 12  8  1  0  0  0  0
 14 18  1  1  0  0  0
 14  7  1  0  0  0  0
 15  8  1  0  0  0  0
 16 12  1  0  0  0  0
 16 14  1  0  0  0  0
 18 17  1  1  0  0  0
 19 20  1  0  0  0  0
 20 18  1  0  0  0  0
 21 22  1  0  0  0  0
 21 25  2  0  0  0  0
 22 27  1  0  0  0  0
 23 26  1  0  0  0  0
 25 24  1  0  0  0  0
 27 24  2  0  0  0  0
 27 26  1  0  0  0  0
 28 22  2  0  0  0  0
 28 23  1  0  0  0  0
M  END
>  <MODEL>
6

>  <REMARK>
 VINA RESULT:      -7.5      4.438      7.502
  Name = 
  4 active torsions:
  status: ('A' for Active; 'I' for Inactive)
    1  A    between atoms: C_4  and  C_16
    2  A    between atoms: C_5  and  C_19
    3  A    between atoms: C_5  and  O_26
    4  A    between atoms: N_6  and  C_13
                            x       y       z     vdW  Elec       q    Type
                         _______ _______ _______ _____ _____    ______ ____

>  <TORSDO>
F 4

$$$$
=
 OpenBabel11062423113D

 28 33  0  0  1  0  0  0  0  0999 V2000
  184.3900  178.0280  142.6140 C   0  0  0  0  0  0  0  0  0  0  0  0
  185.1410  177.8960  141.4220 C   0  0  0  0  0  0  0  0  0  0  0  0
  183.1230  178.2910  140.1450 C   0  0  0  0  0  3  0  0  0  0  0  0
  182.4230  178.4440  141.2990 N   0  0  0  0  0  0  0  0  0  0  0  0
  184.4890  178.0160  140.1880 C   0  0  0  0  0  3  0  0  0  0  0  0
  183.0200  178.3180  142.5140 C   0  0  0  0  0  3  0  0  0  0  0  0
  187.6460  178.3110  147.6730 C   0  0  0  0  0  2  0  0  0  0  0  0
  185.5670  178.1990  146.1710 C   0  0  1  0  0  0  0  0  0  0  0  0
  184.9390  178.7090  144.9230 C   0  0  0  0  0  3  0  0  0  0  0  0
  185.5660  176.5060  144.3990 C   0  0  0  0  0  2  0  0  0  0  0  0
  184.9710  177.8020  143.9550 C   0  0  0  0  0  0  0  0  0  0  0  0
  185.9950  176.7770  145.8320 C   0  0  2  0  0  0  0  0  0  0  0  0
  186.5730  179.0860  146.9200 C   0  0  0  0  0  2  0  0  0  0  0  0
  188.3070  177.3130  146.7300 C   0  0  2  0  0  3  0  0  0  0  0  0
  184.9030  177.0190  146.8670 C   0  0  0  0  0  2  0  0  0  0  0  0
  187.3090  176.2180  146.3780 C   0  0  0  0  0  2  0  0  0  0  0  0
  189.5130  175.1840  147.2630 C   0  0  0  0  0  1  0  0  0  0  0  0
  189.5710  176.7000  147.3330 C   0  0  1  0  0  3  0  0  0  0  0  0
  191.7050  176.2200  146.9770 C   0  0  0  0  0  1  0  0  0  0  0  0
  190.7200  177.1650  146.6860 O   0  0  0  0  0  0  0  0  0  0  0  0
  189.5390  175.7710  142.3840 C   0  0  0  0  0  3  0  0  0  0  0  0
  188.6070  176.6680  141.6470 C   0  0  0  0  0  0  0  0  0  0  0  0
  186.5630  177.7070  141.4390 N   0  0  0  0  0  0  0  0  0  0  0  0
  189.7070  177.9160  143.1260 N   0  0  0  0  0  0  0  0  0  0  0  0
  190.2800  176.6450  143.3100 N   0  0  0  0  0  0  0  0  0  0  0  0
  187.4920  178.6530  142.0480 C   0  0  0  0  0  2  0  0  0  0  0  0
  188.7500  177.8750  142.0950 C   0  0  0  0  0  0  0  0  0  0  0  0
  187.1970  176.4010  141.2720 C   0  0  0  0  0  3  0  0  0  0  0  0
  1 11  1  0  0  0  0
  2 23  1  0  0  0  0
  2  1  2  0  0  0  0
  3  5  2  0  0  0  0
  3  4  1  0  0  0  0
  4  6  2  0  0  0  0
  5  2  1  0  0  0  0
  6  1  1  0  0  0  0
  8  9  1  6  0  0  0
  8 15  1  0  0  0  0
  8 13  1  0  0  0  0
 11 10  1  0  0  0  0
 11  9  2  0  0  0  0
 12 10  1  6  0  0  0
 12  8  1  0  0  0  0
 12 16  1  0  0  0  0
 12 15  1  0  0  0  0
 13  7  1  0  0  0  0
 14 18  1  1  0  0  0
 14  7  1  0  0  0  0
 16 14  1  0  0  0  0
 18 17  1  6  0  0  0
 20 19  1  0  0  0  0
 20 18  1  0  0  0  0
 21 25  2  0  0  0  0
 22 27  1  0  0  0  0
 22 21  1  0  0  0  0
 23 26  1  0  0  0  0
 24 25  1  0  0  0  0
 26 27  1  0  0  0  0
 27 24  2  0  0  0  0
 28 23  1  0  0  0  0
 28 22  2  0  0  0  0
M  END
>  <MODEL>
7

>  <REMARK>
 VINA RESULT:      -7.4      2.101      4.171
  Name = 
  4 active torsions:
  status: ('A' for Active; 'I' for Inactive)
    1  A    between atoms: C_4  and  C_16
    2  A    between atoms: C_5  and  C_19
    3  A    between atoms: C_5  and  O_26
    4  A    between atoms: N_6  and  C_13
                            x       y       z     vdW  Elec       q    Type
                         _______ _______ _______ _____ _____    ______ ____

>  <TORSDO>
F 4

$$$$
=
 OpenBabel11062423113D

 28 33  0  0  1  0  0  0  0  0999 V2000
  187.2360  177.5720  146.3730 C   0  0  0  0  0  0  0  0  0  0  0  0
  186.4490  177.6610  145.1990 C   0  0  0  0  0  0  0  0  0  0  0  0
  184.7550  178.8400  146.4640 C   0  0  0  0  0  3  0  0  0  0  0  0
  185.5360  178.7720  147.5730 N   0  0  0  0  0  0  0  0  0  0  0  0
  185.1980  178.2890  145.2620 C   0  0  0  0  0  3  0  0  0  0  0  0
  186.7470  178.1570  147.5520 C   0  0  0  0  0  3  0  0  0  0  0  0
  192.8080  175.4920  145.4210 C   0  0  0  0  0  2  0  0  0  0  0  0
  190.7850  176.4120  146.7100 C   0  0  1  0  0  0  0  0  0  0  0  0
  189.6790  177.4040  146.6880 C   0  0  0  0  0  3  0  0  0  0  0  0
  188.6210  175.3450  146.2880 C   0  0  0  0  0  2  0  0  0  0  0  0
  188.5120  176.8280  146.4250 C   0  0  0  0  0  0  0  0  0  0  0  0
  190.1100  175.0760  146.4300 C   0  0  2  0  0  0  0  0  0  0  0  0
  192.0860  176.7240  145.9540 C   0  0  0  0  0  2  0  0  0  0  0  0
  191.8320  174.6420  144.6180 C   0  0  2  0  0  3  0  0  0  0  0  0
  190.7530  175.3370  147.7880 C   0  0  0  0  0  2  0  0  0  0  0  0
  190.8060  174.0280  145.5620 C   0  0  0  0  0  2  0  0  0  0  0  0
  192.3010  172.1860  144.4650 C   0  0  0  0  0  1  0  0  0  0  0  0
  192.5430  173.5440  143.8260 C   0  0  1  0  0  3  0  0  0  0  0  0
  192.9920  174.3940  141.8290 C   0  0  0  0  0  1  0  0  0  0  0  0
  192.1230  173.5260  142.4920 O   0  0  0  0  0  0  0  0  0  0  0  0
  187.8900  174.4470  141.6810 C   0  0  0  0  0  3  0  0  0  0  0  0
  187.3800  175.7490  142.1900 C   0  0  0  0  0  0  0  0  0  0  0  0
  186.9230  177.1850  143.9310 N   0  0  0  0  0  0  0  0  0  0  0  0
  189.5700  175.9730  141.8570 N   0  0  0  0  0  0  0  0  0  0  0  0
  189.3250  174.6570  141.4250 N   0  0  0  0  0  0  0  0  0  0  0  0
  188.2170  177.5550  143.3670 C   0  0  0  0  0  2  0  0  0  0  0  0
  188.3670  176.5850  142.2590 C   0  0  0  0  0  0  0  0  0  0  0  0
  186.4090  175.9770  143.2900 C   0  0  0  0  0  3  0  0  0  0  0  0
  1 11  1  0  0  0  0
  1  6  1  0  0  0  0
  2  5  1  0  0  0  0
  2  1  2  0  0  0  0
  3  4  1  0  0  0  0
  5  3  2  0  0  0  0
  6  4  2  0  0  0  0
  7 13  1  0  0  0  0
  8 13  1  6  0  0  0
  8 15  1  0  0  0  0
  9  8  1  0  0  0  0
 10 11  1  0  0  0  0
 10 12  1  0  0  0  0
 11  9  2  0  0  0  0
 12 16  1  6  0  0  0
 12  8  1  0  0  0  0
 12 15  1  0  0  0  0
 14 18  1  1  0  0  0
 14  7  1  0  0  0  0
 14 16  1  0  0  0  0
 18 17  1  1  0  0  0
 19 20  1  0  0  0  0
 20 18  1  0  0  0  0
 21 22  1  0  0  0  0
 22 27  1  0  0  0  0
 22 28  2  0  0  0  0
 23  2  1  0  0  0  0
 24 27  2  0  0  0  0
 25 21  2  0  0  0  0
 25 24  1  0  0  0  0
 26 23  1  0  0  0  0
 27 26  1  0  0  0  0
 28 23  1  0  0  0  0
M  END
>  <MODEL>
8

>  <REMARK>
 VINA RESULT:      -7.3      2.622      5.152
  Name = 
  4 active torsions:
  status: ('A' for Active; 'I' for Inactive)
    1  A    between atoms: C_4  and  C_16
    2  A    between atoms: C_5  and  C_19
    3  A    between atoms: C_5  and  O_26
    4  A    between atoms: N_6  and  C_13
                            x       y       z     vdW  Elec       q    Type
                         _______ _______ _______ _____ _____    ______ ____

>  <TORSDO>
F 4

$$$$
=
 OpenBabel11062423113D

 28 33  0  0  1  0  0  0  0  0999 V2000
  187.1700  176.7920  141.4400 C   0  0  0  0  0  0  0  0  0  0  0  0
  186.2740  177.5520  142.2310 C   0  0  0  0  0  0  0  0  0  0  0  0
  185.1360  178.2510  140.2110 C   0  0  0  0  0  3  0  0  0  0  0  0
  185.9860  177.4930  139.4710 N   0  0  0  0  0  0  0  0  0  0  0  0
  185.2660  178.2920  141.5990 C   0  0  0  0  0  3  0  0  0  0  0  0
  186.9850  176.7760  140.0490 C   0  0  0  0  0  3  0  0  0  0  0  0
  190.8790  173.5210  144.8770 C   0  0  0  0  0  2  0  0  0  0  0  0
  189.6530  174.3140  142.7650 C   0  0  1  0  0  0  0  0  0  0  0  0
  188.3470  174.7650  142.2140 C   0  0  0  0  0  3  0  0  0  0  0  0
  189.6370  176.7250  142.3290 C   0  0  0  0  0  2  0  0  0  0  0  0
  188.3300  176.0760  142.0110 C   0  0  0  0  0  0  0  0  0  0  0  0
  190.4870  175.5840  142.8620 C   0  0  2  0  0  0  0  0  0  0  0  0
  189.6680  173.3580  143.9670 C   0  0  0  0  0  2  0  0  0  0  0  0
  191.0260  174.9850  145.2680 C   0  0  2  0  0  3  0  0  0  0  0  0
  190.8870  174.4800  141.8890 C   0  0  0  0  0  2  0  0  0  0  0  0
  191.4340  175.7950  144.0440 C   0  0  0  0  0  2  0  0  0  0  0  0
  193.3330  174.4420  146.0790 C   0  0  0  0  0  1  0  0  0  0  0  0
  192.0430  175.1820  146.3930 C   0  0  1  0  0  3  0  0  0  0  0  0
  193.6970  176.6170  146.7380 C   0  0  0  0  0  1  0  0  0  0  0  0
  192.3100  176.5380  146.6060 O   0  0  0  0  0  0  0  0  0  0  0  0
  184.7180  177.0980  146.9370 C   0  0  0  0  0  3  0  0  0  0  0  0
  185.7330  177.1160  145.8490 C   0  0  0  0  0  0  0  0  0  0  0  0
  186.3270  177.5350  143.6640 N   0  0  0  0  0  0  0  0  0  0  0  0
  185.7540  179.1220  146.8150 N   0  0  0  0  0  0  0  0  0  0  0  0
  184.8050  178.4210  147.5810 N   0  0  0  0  0  0  0  0  0  0  0  0
  186.7100  178.6920  144.4670 C   0  0  0  0  0  2  0  0  0  0  0  0
  186.3020  178.2800  145.8290 C   0  0  0  0  0  0  0  0  0  0  0  0
  185.6040  176.5610  144.4790 C   0  0  0  0  0  3  0  0  0  0  0  0
  1 11  1  0  0  0  0
  1  2  1  0  0  0  0
  2 23  1  0  0  0  0
  3  5  1  0  0  0  0
  4  6  1  0  0  0  0
  4  3  2  0  0  0  0
  5  2  2  0  0  0  0
  6  1  2  0  0  0  0
  7 14  1  0  0  0  0
  8 15  1  6  0  0  0
  8 12  1  0  0  0  0
  8 13  1  0  0  0  0
  9  8  1  0  0  0  0
 10 12  1  0  0  0  0
 11  9  2  0  0  0  0
 11 10  1  0  0  0  0
 12 15  1  6  0  0  0
 12 16  1  0  0  0  0
 13  7  1  0  0  0  0
 14 18  1  1  0  0  0
 16 14  1  0  0  0  0
 18 17  1  6  0  0  0
 18 20  1  0  0  0  0
 20 19  1  0  0  0  0
 21 25  2  0  0  0  0
 22 21  1  0  0  0  0
 23 26  1  0  0  0  0
 23 28  1  0  0  0  0
 24 25  1  0  0  0  0
 26 27  1  0  0  0  0
 27 22  1  0  0  0  0
 27 24  2  0  0  0  0
 28 22  2  0  0  0  0
M  END
>  <MODEL>
9

>  <REMARK>
 VINA RESULT:      -7.3      1.627      2.077
  Name = 
  4 active torsions:
  status: ('A' for Active; 'I' for Inactive)
    1  A    between atoms: C_4  and  C_16
    2  A    between atoms: C_5  and  C_19
    3  A    between atoms: C_5  and  O_26
    4  A    between atoms: N_6  and  C_13
                            x       y       z     vdW  Elec       q    Type
                         _______ _______ _______ _____ _____    ______ ____

>  <TORSDO>
F 4

$$$$
