=
 OpenBabel11072409103D

 65 68  0  0  1  0  0  0  0  0999 V2000
  191.3820  174.7620  143.4460 O   0  0  0  0  0  0  0  0  0  0  0  0
  188.2310  177.1290  146.3270 N   0  0  0  0  0  0  0  0  0  0  0  0
  187.8190  175.6450  140.3000 N   0  0  0  0  0  1  0  0  0  0  0  0
  189.2210  171.9570  142.0060 N   0  0  0  0  0  0  0  0  0  0  0  0
  193.0110  173.2220  142.8350 O   0  0  0  0  0  0  0  0  0  0  0  0
  189.5440  173.9470  146.1210 O   0  0  0  0  0  0  0  0  0  0  0  0
  185.6000  179.5360  145.4180 C   0  0  0  0  0  1  0  0  0  0  0  0
  188.1820  175.3710  143.2720 C   0  0  1  0  0  3  0  0  0  0  0  0
  187.4860  177.8360  147.1230 C   0  0  0  0  0  0  0  0  0  0  0  0
  186.8820  176.9580  144.3070 C   0  0  1  0  0  3  0  0  0  0  0  0
  188.8170  173.1000  142.7770 C   0  0  0  0  0  3  0  0  0  0  0  0
  188.7170  174.6860  140.8530 C   0  0  0  0  0  0  0  0  0  0  0  0
  192.4240  172.2030  144.8280 O   0  0  0  0  0  0  0  0  0  0  0  0
  188.6270  174.3450  142.3040 C   0  0  0  0  0  0  0  0  0  0  0  0
  190.2460  170.7650  140.2990 O   0  0  0  0  0  0  0  0  0  0  0  0
  187.1130  176.1330  143.0810 C   0  0  0  0  0  2  0  0  0  0  0  0
  185.4360  177.0760  144.7570 C   0  0  2  0  0  3  0  0  0  0  0  0
  190.6400  173.2400  140.5080 C   0  0  0  0  0  2  0  0  0  0  0  0
  192.4470  169.9890  139.6450 C   0  0  0  0  0  2  0  0  0  0  0  0
  188.6720  175.4930  144.6090 N   0  0  0  0  0  0  0  0  0  0  0  0
  189.7640  174.7690  145.1930 C   0  0  0  0  0  0  0  0  0  0  0  0
  192.7580  174.5420  143.2970 C   0  0  0  0  0  2  0  0  0  0  0  0
  188.1060  178.6470  148.1160 N   0  0  0  0  0  1  0  0  0  0  0  0
  191.1800  175.0670  144.7990 C   0  0  2  0  0  3  0  0  0  0  0  0
  192.9290  172.1090  143.6750 C   0  0  0  0  0  0  0  0  0  0  0  0
  184.6150  177.4400  143.6860 O   0  0  0  0  0  1  0  0  0  0  0  0
  189.6180  174.1730  140.0710 N   0  0  0  0  0  0  0  0  0  0  0  0
  193.5340  170.8080  143.2570 C   0  0  1  0  0  3  0  0  0  0  0  0
  185.3120  178.1140  145.8870 C   0  0  1  0  0  3  0  0  0  0  0  0
  186.0820  177.7920  147.0560 O   0  0  0  0  0  0  0  0  0  0  0  0
  193.1460  170.7630  140.7510 C   0  0  0  0  0  2  0  0  0  0  0  0
  187.6570  176.2020  145.3670 C   0  0  1  0  0  3  0  0  0  0  0  0
  191.1580  170.6750  139.2130 C   0  0  0  0  0  2  0  0  0  0  0  0
  192.7780  170.1600  142.0990 C   0  0  0  0  0  2  0  0  0  0  0  0
  190.0000  171.9680  140.9670 C   0  0  0  0  0  0  0  0  0  0  0  0
  194.8860  170.9830  142.9500 O   0  0  0  0  0  0  0  0  0  0  0  0
  195.5800  170.1010  143.7880 C   0  0  2  0  0  3  0  0  0  0  0  0
  196.0590  170.8320  145.0430 C   0  0  2  0  0  3  0  0  0  0  0  0
  197.5740  170.7870  145.1550 C   0  0  0  0  0  1  0  0  0  0  0  0
  195.5040  170.2450  146.1800 O   0  0  0  0  0  1  0  0  0  0  0  0
  196.7380  169.4610  143.0210 C   0  0  0  0  0  2  0  0  0  0  0  0
  196.7910  169.9380  141.5730 C   0  0  0  0  0  2  0  0  0  0  0  0
  197.8530  171.0110  141.3950 C   0  0  0  0  0  2  0  0  0  0  0  0
  197.2800  172.1980  140.6410 C   0  0  0  0  0  2  0  0  0  0  0  0
  197.8860  173.4970  141.1510 C   0  0  1  0  0  3  0  0  0  0  0  0
  197.8840  175.8840  140.4990 F   0  0  0  0  0  0  0  0  0  0  0  0
  197.8220  174.5780  140.1160 C   0  0  0  0  0  0  0  0  0  0  0  0
  197.8530  174.2550  138.8690 N   0  0  0  0  0  0  0  0  0  0  0  0
  197.9410  175.2420  137.8200 C   0  0  0  0  0  2  0  0  0  0  0  0
  196.8900  174.9960  136.7890 C   0  0  0  0  0  0  0  0  0  0  0  0
  197.2690  174.9300  135.4560 O   0  0  0  0  0  1  0  0  0  0  0  0
  195.6260  174.8280  137.1920 C   0  0  0  0  0  3  0  0  0  0  0  0
  194.4980  174.5210  136.4050 O   0  0  0  0  0  0  0  0  0  0  0  0
  194.3250  172.1980  137.0880 C   0  0  0  0  0  1  0  0  0  0  0  0
  192.3840  173.7540  137.3440 C   0  0  0  0  0  1  0  0  0  0  0  0
  193.1340  173.0460  135.1220 C   0  0  0  0  0  1  0  0  0  0  0  0
  193.6090  173.4060  136.5140 C   0  0  0  0  0  0  0  0  0  0  0  0
  197.9400  174.0580  143.6090 N   0  0  0  0  0  1  0  0  0  0  0  0
  195.9880  174.3010  142.3720 O   0  0  0  0  0  0  0  0  0  0  0  0
  197.1980  173.9500  142.3990 C   0  0  0  0  0  0  0  0  0  0  0  0
  191.5250  176.5320  145.0880 C   0  0  0  0  0  2  0  0  0  0  0  0
  192.2150  176.6720  146.4360 C   0  0  0  0  0  2  0  0  0  0  0  0
  193.1160  175.4810  146.6980 C   0  0  0  0  0  2  0  0  0  0  0  0
  195.3910  174.8730  146.0230 C   0  0  0  0  0  2  0  0  0  0  0  0
  194.5230  175.8280  146.3450 C   0  0  0  0  0  3  0  0  0  0  0  0
  1 24  1  0  0  0  0
  2  9  2  0  0  0  0
  3 12  1  0  0  0  0
  4 11  1  0  0  0  0
  5 22  1  0  0  0  0
  5 25  1  0  0  0  0
  8 16  1  1  0  0  0
  8 20  1  0  0  0  0
  9 23  1  0  0  0  0
 10 16  1  6  0  0  0
 10 17  1  0  0  0  0
 10 32  1  0  0  0  0
 12 14  1  0  0  0  0
 14 11  2  0  0  0  0
 14  8  1  0  0  0  0
 15 35  1  0  0  0  0
 17 26  1  6  0  0  0
 17 29  1  0  0  0  0
 18 35  1  0  0  0  0
 19 31  1  0  0  0  0
 20 21  1  0  0  0  0
 20 32  1  0  0  0  0
 21  6  2  0  0  0  0
 22  1  1  0  0  0  0
 24 61  1  6  0  0  0
 24 21  1  0  0  0  0
 25 13  2  0  0  0  0
 27 18  1  0  0  0  0
 27 12  2  0  0  0  0
 28 36  1  6  0  0  0
 28 25  1  0  0  0  0
 29  7  1  6  0  0  0
 29 30  1  0  0  0  0
 30  9  1  0  0  0  0
 31 34  1  0  0  0  0
 32  2  1  1  0  0  0
 33 19  1  0  0  0  0
 33 15  1  0  0  0  0
 34 28  1  0  0  0  0
 35  4  2  0  0  0  0
 36 37  1  0  0  0  0
 37 41  1  6  0  0  0
 37 38  1  0  0  0  0
 38 39  1  1  0  0  0
 38 40  1  0  0  0  0
 42 41  1  0  0  0  0
 43 42  1  0  0  0  0
 44 43  1  0  0  0  0
 45 44  1  6  0  0  0
 45 60  1  0  0  0  0
 47 46  1  0  0  0  0
 47 45  1  0  0  0  0
 48 47  2  0  0  0  0
 49 48  1  0  0  0  0
 50 52  2  0  0  0  0
 50 49  1  0  0  0  0
 51 50  1  0  0  0  0
 53 57  1  0  0  0  0
 53 52  1  0  0  0  0
 56 57  1  0  0  0  0
 57 54  1  0  0  0  0
 57 55  1  0  0  0  0
 59 60  2  0  0  0  0
 60 58  1  0  0  0  0
 61 62  1  0  0  0  0
 62 63  1  0  0  0  0
 64 65  2  0  0  0  0
 65 63  1  0  0  0  0
M  END
>  <MODEL>
1

>  <REMARK>
 VINA RESULT:      -6.4      0.000      0.000
  Name = 
  18 active torsions:
  status: ('A' for Active; 'I' for Inactive)
    1  A    between atoms: O_3  and  C_46
    2  A    between atoms: O_3  and  C_50
    3  A    between atoms: C_9  and  C_16
    4  A    between atoms: C_9  and  C_37
    5  A    between atoms: C_15  and  C_46
    6  A    between atoms: C_16  and  C_55
    7  A    between atoms: C_24  and  C_55
    8  A    between atoms: C_26  and  C_38
    9  A    between atoms: C_29  and  C_40
   10  A    between atoms: C_29  and  C_44
   11  A    between atoms: C_36  and  C_63
   12  A    between atoms: C_37  and  C_58
   13  A    between atoms: C_38  and  N_41
   14  A    between atoms: C_40  and  C_63
   15  A    between atoms: C_46  and  C_58
   16  A    between atoms: O_51  and  C_62
   17  A    between atoms: O_51  and  C_64
   18  A    between atoms: C_55  and  C_59
                            x       y       z     vdW  Elec       q    Type
                         _______ _______ _______ _____ _____    ______ ____

>  <TORSDO>
F 18

$$$$
=
 OpenBabel11072409103D

 65 68  0  0  1  0  0  0  0  0999 V2000
  190.9430  174.9490  142.3230 O   0  0  0  0  0  0  0  0  0  0  0  0
  188.5190  177.0000  146.0320 N   0  0  0  0  0  0  0  0  0  0  0  0
  186.9140  176.3630  140.0560 N   0  0  0  0  0  1  0  0  0  0  0  0
  188.3980  172.4350  140.9770 N   0  0  0  0  0  0  0  0  0  0  0  0
  192.3410  173.4570  141.2210 O   0  0  0  0  0  0  0  0  0  0  0  0
  189.5890  173.8360  145.1750 O   0  0  0  0  0  0  0  0  0  0  0  0
  185.9050  179.5900  145.9580 C   0  0  0  0  0  1  0  0  0  0  0  0
  187.8060  175.6760  142.8440 C   0  0  1  0  0  3  0  0  0  0  0  0
  187.9750  177.6150  147.0390 C   0  0  0  0  0  0  0  0  0  0  0  0
  186.8120  177.1480  144.3030 C   0  0  1  0  0  3  0  0  0  0  0  0
  188.2090  173.4750  141.9510 C   0  0  0  0  0  3  0  0  0  0  0  0
  187.8430  175.3110  140.2990 C   0  0  0  0  0  0  0  0  0  0  0  0
  192.0760  172.1950  143.1420 O   0  0  0  0  0  0  0  0  0  0  0  0
  188.0050  174.7780  141.6860 C   0  0  0  0  0  0  0  0  0  0  0  0
  189.0200  171.4560  138.9680 O   0  0  0  0  0  0  0  0  0  0  0  0
  186.7640  176.4910  142.9590 C   0  0  0  0  0  2  0  0  0  0  0  0
  185.4830  177.2480  145.0310 C   0  0  2  0  0  3  0  0  0  0  0  0
  189.5850  173.8650  139.4120 C   0  0  0  0  0  2  0  0  0  0  0  0
  191.0140  170.7070  137.8120 C   0  0  0  0  0  2  0  0  0  0  0  0
  188.5410  175.6000  144.0670 N   0  0  0  0  0  0  0  0  0  0  0  0
  189.6800  174.7700  144.3340 C   0  0  0  0  0  0  0  0  0  0  0  0
  192.2530  174.7090  141.8880 C   0  0  0  0  0  2  0  0  0  0  0  0
  188.8140  178.2630  147.9900 N   0  0  0  0  0  1  0  0  0  0  0  0
  191.0130  175.0740  143.7180 C   0  0  2  0  0  3  0  0  0  0  0  0
  192.3540  172.2430  141.9120 C   0  0  0  0  0  0  0  0  0  0  0  0
  184.5000  177.7810  144.1930 O   0  0  0  0  0  1  0  0  0  0  0  0
  188.5540  174.8800  139.3010 N   0  0  0  0  0  0  0  0  0  0  0  0
  192.7960  170.9930  141.2240 C   0  0  1  0  0  3  0  0  0  0  0  0
  185.6290  178.1260  146.2880 C   0  0  1  0  0  3  0  0  0  0  0  0
  186.5830  177.6250  147.2370 O   0  0  0  0  0  0  0  0  0  0  0  0
  191.9490  171.3010  138.8530 C   0  0  0  0  0  2  0  0  0  0  0  0
  187.7260  176.2300  145.0890 C   0  0  1  0  0  3  0  0  0  0  0  0
  189.7080  171.4860  137.7250 C   0  0  0  0  0  2  0  0  0  0  0  0
  191.8030  170.5320  140.1580 C   0  0  0  0  0  2  0  0  0  0  0  0
  188.9700  172.5630  139.8190 C   0  0  0  0  0  0  0  0  0  0  0  0
  194.0760  171.1650  140.6890 O   0  0  0  0  0  0  0  0  0  0  0  0
  194.5210  169.8800  140.3560 C   0  0  2  0  0  3  0  0  0  0  0  0
  195.2860  169.2660  141.5300 C   0  0  2  0  0  3  0  0  0  0  0  0
  196.1930  170.2930  142.1860 C   0  0  0  0  0  1  0  0  0  0  0  0
  196.0630  168.1950  141.0870 O   0  0  0  0  0  1  0  0  0  0  0  0
  195.3720  169.9390  139.0870 C   0  0  0  0  0  2  0  0  0  0  0  0
  196.0000  171.3160  138.8890 C   0  0  0  0  0  2  0  0  0  0  0  0
  195.7880  171.8070  137.4670 C   0  0  0  0  0  2  0  0  0  0  0  0
  196.0020  173.3090  137.3920 C   0  0  0  0  0  2  0  0  0  0  0  0
  195.1280  174.0230  138.4130 C   0  0  1  0  0  3  0  0  0  0  0  0
  197.0010  175.6160  138.6960 F   0  0  0  0  0  0  0  0  0  0  0  0
  195.9250  174.9820  139.2440 C   0  0  0  0  0  0  0  0  0  0  0  0
  195.4990  175.3020  140.4160 N   0  0  0  0  0  0  0  0  0  0  0  0
  196.1310  176.3250  141.2140 C   0  0  0  0  0  2  0  0  0  0  0  0
  196.8450  175.7100  142.3710 C   0  0  0  0  0  0  0  0  0  0  0  0
  197.7210  176.4960  143.1050 O   0  0  0  0  0  1  0  0  0  0  0  0
  196.5960  174.4300  142.6690 C   0  0  0  0  0  3  0  0  0  0  0  0
  197.1020  173.6760  143.7470 O   0  0  0  0  0  0  0  0  0  0  0  0
  197.0540  171.9550  145.4590 C   0  0  0  0  0  1  0  0  0  0  0  0
  196.3680  174.3010  145.9850 C   0  0  0  0  0  1  0  0  0  0  0  0
  194.9910  172.8930  144.5290 C   0  0  0  0  0  1  0  0  0  0  0  0
  196.4170  173.2210  144.9170 C   0  0  0  0  0  0  0  0  0  0  0  0
  194.2870  175.5950  136.6300 N   0  0  0  0  0  1  0  0  0  0  0  0
  192.8150  174.5590  138.0990 O   0  0  0  0  0  0  0  0  0  0  0  0
  194.0080  174.7470  137.7390 C   0  0  0  0  0  0  0  0  0  0  0  0
  191.4880  176.4750  144.1200 C   0  0  0  0  0  2  0  0  0  0  0  0
  192.8320  176.4100  144.8280 C   0  0  0  0  0  2  0  0  0  0  0  0
  192.7590  175.4770  146.0220 C   0  0  0  0  0  2  0  0  0  0  0  0
  191.1570  175.4040  147.8730 C   0  0  0  0  0  2  0  0  0  0  0  0
  191.9810  176.1240  147.1190 C   0  0  0  0  0  3  0  0  0  0  0  0
  1 24  1  0  0  0  0
  2  9  2  0  0  0  0
  3 12  1  0  0  0  0
  4 11  1  0  0  0  0
  5 22  1  0  0  0  0
  5 25  1  0  0  0  0
  8 16  1  1  0  0  0
  8 20  1  0  0  0  0
  9 30  1  0  0  0  0
  9 23  1  0  0  0  0
 10 16  1  6  0  0  0
 10 17  1  0  0  0  0
 10 32  1  0  0  0  0
 12 14  1  0  0  0  0
 14 11  2  0  0  0  0
 14  8  1  0  0  0  0
 15 35  1  0  0  0  0
 17 26  1  6  0  0  0
 17 29  1  0  0  0  0
 18 35  1  0  0  0  0
 19 31  1  0  0  0  0
 20 21  1  0  0  0  0
 20 32  1  0  0  0  0
 21  6  2  0  0  0  0
 22  1  1  0  0  0  0
 24 61  1  6  0  0  0
 24 21  1  0  0  0  0
 25 13  2  0  0  0  0
 27 18  1  0  0  0  0
 27 12  2  0  0  0  0
 28 36  1  6  0  0  0
 28 25  1  0  0  0  0
 29  7  1  6  0  0  0
 29 30  1  0  0  0  0
 31 34  1  0  0  0  0
 32  2  1  1  0  0  0
 33 19  1  0  0  0  0
 33 15  1  0  0  0  0
 34 28  1  0  0  0  0
 35  4  2  0  0  0  0
 37 41  1  6  0  0  0
 37 36  1  0  0  0  0
 37 38  1  0  0  0  0
 38 39  1  6  0  0  0
 40 38  1  0  0  0  0
 42 41  1  0  0  0  0
 43 42  1  0  0  0  0
 44 43  1  0  0  0  0
 45 44  1  6  0  0  0
 45 47  1  0  0  0  0
 46 47  1  0  0  0  0
 47 48  2  0  0  0  0
 48 49  1  0  0  0  0
 49 50  1  0  0  0  0
 50 52  2  0  0  0  0
 50 51  1  0  0  0  0
 52 53  1  0  0  0  0
 53 57  1  0  0  0  0
 56 57  1  0  0  0  0
 57 54  1  0  0  0  0
 57 55  1  0  0  0  0
 58 60  1  0  0  0  0
 60 59  2  0  0  0  0
 60 45  1  0  0  0  0
 61 62  1  0  0  0  0
 62 63  1  0  0  0  0
 63 65  1  0  0  0  0
 65 64  2  0  0  0  0
M  END
>  <MODEL>
2

>  <REMARK>
 VINA RESULT:      -6.3      1.786      3.788
  Name = 
  18 active torsions:
  status: ('A' for Active; 'I' for Inactive)
    1  A    between atoms: O_3  and  C_46
    2  A    between atoms: O_3  and  C_50
    3  A    between atoms: C_9  and  C_16
    4  A    between atoms: C_9  and  C_37
    5  A    between atoms: C_15  and  C_46
    6  A    between atoms: C_16  and  C_55
    7  A    between atoms: C_24  and  C_55
    8  A    between atoms: C_26  and  C_38
    9  A    between atoms: C_29  and  C_40
   10  A    between atoms: C_29  and  C_44
   11  A    between atoms: C_36  and  C_63
   12  A    between atoms: C_37  and  C_58
   13  A    between atoms: C_38  and  N_41
   14  A    between atoms: C_40  and  C_63
   15  A    between atoms: C_46  and  C_58
   16  A    between atoms: O_51  and  C_62
   17  A    between atoms: O_51  and  C_64
   18  A    between atoms: C_55  and  C_59
                            x       y       z     vdW  Elec       q    Type
                         _______ _______ _______ _____ _____    ______ ____

>  <TORSDO>
F 18

$$$$
=
 OpenBabel11072409103D

 65 68  0  0  1  0  0  0  0  0999 V2000
  192.6600  173.6570  141.0660 O   0  0  0  0  0  0  0  0  0  0  0  0
  192.1290  170.1530  137.7090 N   0  0  0  0  0  0  0  0  0  0  0  0
  197.2880  172.5320  140.2410 N   0  0  0  0  0  1  0  0  0  0  0  0
  194.8180  171.9340  143.7080 N   0  0  0  0  0  0  0  0  0  0  0  0
  192.1730  174.9440  142.9380 O   0  0  0  0  0  0  0  0  0  0  0  0
  191.3480  170.5780  141.0400 O   0  0  0  0  0  0  0  0  0  0  0  0
  194.4960  169.0230  135.1270 C   0  0  0  0  0  1  0  0  0  0  0  0
  194.5800  171.2490  139.9910 C   0  0  1  0  0  3  0  0  0  0  0  0
  191.9180  169.3020  136.7490 C   0  0  0  0  0  0  0  0  0  0  0  0
  194.5360  170.0290  138.0450 C   0  0  1  0  0  3  0  0  0  0  0  0
  194.4780  171.4810  142.3870 C   0  0  0  0  0  3  0  0  0  0  0  0
  196.2670  172.7610  141.2080 C   0  0  0  0  0  0  0  0  0  0  0  0
  190.7430  173.1970  143.4450 O   0  0  0  0  0  0  0  0  0  0  0  0
  195.0720  171.8650  141.2430 C   0  0  0  0  0  0  0  0  0  0  0  0
  195.6040  173.3650  145.3570 O   0  0  0  0  0  0  0  0  0  0  0  0
  195.3770  170.6470  139.1170 C   0  0  0  0  0  2  0  0  0  0  0  0
  194.9500  168.6330  137.6090 C   0  0  2  0  0  3  0  0  0  0  0  0
  195.4050  174.1780  142.9860 C   0  0  0  0  0  2  0  0  0  0  0  0
  194.9030  175.3300  146.5910 C   0  0  0  0  0  2  0  0  0  0  0  0
  193.2050  171.0010  139.6950 N   0  0  0  0  0  0  0  0  0  0  0  0
  192.0690  171.4310  140.4590 C   0  0  0  0  0  0  0  0  0  0  0  0
  192.0240  174.8160  141.5300 C   0  0  0  0  0  2  0  0  0  0  0  0
  190.8130  169.5020  135.8740 N   0  0  0  0  0  1  0  0  0  0  0  0
  191.6570  172.8730  140.4770 C   0  0  2  0  0  3  0  0  0  0  0  0
  191.4290  174.1810  143.8400 C   0  0  0  0  0  0  0  0  0  0  0  0
  196.3190  168.5900  137.3310 O   0  0  0  0  0  1  0  0  0  0  0  0
  196.3950  173.7810  142.0010 N   0  0  0  0  0  0  0  0  0  0  0  0
  191.3520  174.5810  145.2770 C   0  0  1  0  0  3  0  0  0  0  0  0
  194.1490  168.2040  136.3670 C   0  0  1  0  0  3  0  0  0  0  0  0
  192.7290  168.1660  136.5770 O   0  0  0  0  0  0  0  0  0  0  0  0
  193.6590  175.5290  145.7420 C   0  0  0  0  0  2  0  0  0  0  0  0
  193.1710  169.9470  138.6980 C   0  0  1  0  0  3  0  0  0  0  0  0
  196.0150  174.6510  145.8020 C   0  0  0  0  0  2  0  0  0  0  0  0
  192.6810  174.3920  146.0060 C   0  0  0  0  0  2  0  0  0  0  0  0
  195.2690  173.1090  144.0240 C   0  0  0  0  0  0  0  0  0  0  0  0
  190.8920  175.8960  145.3870 O   0  0  0  0  0  0  0  0  0  0  0  0
  189.7270  175.9550  144.6130 C   0  0  2  0  0  3  0  0  0  0  0  0
  189.6500  177.2920  143.8760 C   0  0  2  0  0  3  0  0  0  0  0  0
  189.2890  177.0900  142.4140 C   0  0  0  0  0  1  0  0  0  0  0  0
  190.8770  177.9520  143.9510 O   0  0  0  0  0  1  0  0  0  0  0  0
  188.5040  175.7190  145.4990 C   0  0  0  0  0  2  0  0  0  0  0  0
  188.0240  177.0100  146.1570 C   0  0  0  0  0  2  0  0  0  0  0  0
  186.5110  177.1310  146.0690 C   0  0  0  0  0  2  0  0  0  0  0  0
  186.0410  176.8170  144.6590 C   0  0  0  0  0  2  0  0  0  0  0  0
  186.0290  178.0790  143.8080 C   0  0  1  0  0  3  0  0  0  0  0  0
  186.0600  176.5490  141.8630 F   0  0  0  0  0  0  0  0  0  0  0  0
  185.7330  177.7710  142.3720 C   0  0  0  0  0  0  0  0  0  0  0  0
  185.0460  178.6110  141.6790 N   0  0  0  0  0  0  0  0  0  0  0  0
  184.5990  178.3190  140.3380 C   0  0  0  0  0  2  0  0  0  0  0  0
  183.1740  177.8760  140.3530 C   0  0  0  0  0  0  0  0  0  0  0  0
  182.7450  176.9840  139.3810 O   0  0  0  0  0  1  0  0  0  0  0  0
  182.3700  178.3410  141.3160 C   0  0  0  0  0  3  0  0  0  0  0  0
  181.0220  178.0070  141.5570 O   0  0  0  0  0  0  0  0  0  0  0  0
  179.2110  177.9500  139.9400 C   0  0  0  0  0  1  0  0  0  0  0  0
  178.8430  178.8530  142.2430 C   0  0  0  0  0  1  0  0  0  0  0  0
  180.2400  180.0620  140.6350 C   0  0  0  0  0  1  0  0  0  0  0  0
  179.8420  178.6810  141.1110 C   0  0  0  0  0  0  0  0  0  0  0  0
  185.3880  180.4370  144.4270 N   0  0  0  0  0  1  0  0  0  0  0  0
  183.8620  178.6970  144.6210 O   0  0  0  0  0  0  0  0  0  0  0  0
  185.0330  179.0620  144.3310 C   0  0  0  0  0  0  0  0  0  0  0  0
  191.3420  173.3630  139.0590 C   0  0  0  0  0  2  0  0  0  0  0  0
  189.8820  173.7730  138.9390 C   0  0  0  0  0  2  0  0  0  0  0  0
  188.9870  172.7610  139.6280 C   0  0  0  0  0  2  0  0  0  0  0  0
  187.8830  172.9540  141.8060 C   0  0  0  0  0  2  0  0  0  0  0  0
  188.0890  173.4590  140.5930 C   0  0  0  0  0  3  0  0  0  0  0  0
  1 22  1  0  0  0  0
  3 12  1  0  0  0  0
  4 35  2  0  0  0  0
  5 25  1  0  0  0  0
  8 16  1  1  0  0  0
  8 14  1  0  0  0  0
  9  2  2  0  0  0  0
 10 32  1  0  0  0  0
 10 16  1  1  0  0  0
 11  4  1  0  0  0  0
 12 14  1  0  0  0  0
 12 27  2  0  0  0  0
 13 25  2  0  0  0  0
 14 11  2  0  0  0  0
 15 33  1  0  0  0  0
 17 26  1  6  0  0  0
 17 10  1  0  0  0  0
 18 35  1  0  0  0  0
 20  8  1  0  0  0  0
 20 21  1  0  0  0  0
 21 24  1  0  0  0  0
 21  6  2  0  0  0  0
 22  5  1  0  0  0  0
 23  9  1  0  0  0  0
 24 61  1  6  0  0  0
 24  1  1  0  0  0  0
 25 28  1  0  0  0  0
 27 18  1  0  0  0  0
 28 36  1  6  0  0  0
 28 34  1  0  0  0  0
 29  7  1  6  0  0  0
 29 30  1  0  0  0  0
 29 17  1  0  0  0  0
 30  9  1  0  0  0  0
 31 34  1  0  0  0  0
 31 19  1  0  0  0  0
 32  2  1  6  0  0  0
 32 20  1  0  0  0  0
 33 19  1  0  0  0  0
 35 15  1  0  0  0  0
 37 36  1  0  0  0  0
 37 41  1  1  0  0  0
 38 39  1  6  0  0  0
 38 40  1  0  0  0  0
 38 37  1  0  0  0  0
 41 42  1  0  0  0  0
 43 42  1  0  0  0  0
 44 43  1  0  0  0  0
 45 60  1  0  0  0  0
 45 44  1  1  0  0  0
 46 47  1  0  0  0  0
 47 45  1  0  0  0  0
 48 47  2  0  0  0  0
 49 50  1  0  0  0  0
 49 48  1  0  0  0  0
 50 52  2  0  0  0  0
 51 50  1  0  0  0  0
 52 53  1  0  0  0  0
 54 57  1  0  0  0  0
 56 57  1  0  0  0  0
 57 53  1  0  0  0  0
 57 55  1  0  0  0  0
 60 58  1  0  0  0  0
 60 59  2  0  0  0  0
 62 61  1  0  0  0  0
 62 63  1  0  0  0  0
 63 65  1  0  0  0  0
 65 64  2  0  0  0  0
M  END
>  <MODEL>
3

>  <REMARK>
 VINA RESULT:      -6.1      3.647     10.984
  Name = 
  18 active torsions:
  status: ('A' for Active; 'I' for Inactive)
    1  A    between atoms: O_3  and  C_46
    2  A    between atoms: O_3  and  C_50
    3  A    between atoms: C_9  and  C_16
    4  A    between atoms: C_9  and  C_37
    5  A    between atoms: C_15  and  C_46
    6  A    between atoms: C_16  and  C_55
    7  A    between atoms: C_24  and  C_55
    8  A    between atoms: C_26  and  C_38
    9  A    between atoms: C_29  and  C_40
   10  A    between atoms: C_29  and  C_44
   11  A    between atoms: C_36  and  C_63
   12  A    between atoms: C_37  and  C_58
   13  A    between atoms: C_38  and  N_41
   14  A    between atoms: C_40  and  C_63
   15  A    between atoms: C_46  and  C_58
   16  A    between atoms: O_51  and  C_62
   17  A    between atoms: O_51  and  C_64
   18  A    between atoms: C_55  and  C_59
                            x       y       z     vdW  Elec       q    Type
                         _______ _______ _______ _____ _____    ______ ____

>  <TORSDO>
F 18

$$$$
=
 OpenBabel11072409103D

 65 68  0  0  1  0  0  0  0  0999 V2000
  190.8950  174.4180  143.5680 O   0  0  0  0  0  0  0  0  0  0  0  0
  186.8790  177.1900  143.6880 N   0  0  0  0  0  0  0  0  0  0  0  0
  190.6200  175.3500  148.3040 N   0  0  0  0  0  1  0  0  0  0  0  0
  193.4620  176.6260  145.3410 N   0  0  0  0  0  0  0  0  0  0  0  0
  192.8790  173.5270  142.7510 O   0  0  0  0  0  0  0  0  0  0  0  0
  190.0600  177.4340  142.3800 O   0  0  0  0  0  0  0  0  0  0  0  0
  184.5410  177.7850  146.4680 C   0  0  0  0  0  1  0  0  0  0  0  0
  189.6940  176.5630  145.7130 C   0  0  1  0  0  3  0  0  0  0  0  0
  185.7510  177.8360  143.6600 C   0  0  0  0  0  0  0  0  0  0  0  0
  187.5660  177.3750  146.0160 C   0  0  1  0  0  3  0  0  0  0  0  0
  192.0420  176.8100  145.2280 C   0  0  0  0  0  3  0  0  0  0  0  0
  191.4370  175.3190  147.1360 C   0  0  0  0  0  0  0  0  0  0  0  0
  192.8000  175.3420  141.3180 O   0  0  0  0  0  0  0  0  0  0  0  0
  191.1050  176.2060  145.9810 C   0  0  0  0  0  0  0  0  0  0  0  0
  195.4630  175.5480  145.8110 O   0  0  0  0  0  0  0  0  0  0  0  0
  188.8590  176.9790  146.6570 C   0  0  0  0  0  2  0  0  0  0  0  0
  186.9390  178.6560  146.5390 C   0  0  2  0  0  3  0  0  0  0  0  0
  193.2950  174.2830  145.9600 C   0  0  0  0  0  2  0  0  0  0  0  0
  196.9270  173.8670  144.8600 C   0  0  0  0  0  2  0  0  0  0  0  0
  189.1380  176.7500  144.4100 N   0  0  0  0  0  0  0  0  0  0  0  0
  189.7800  176.4820  143.1550 C   0  0  0  0  0  0  0  0  0  0  0  0
  191.4680  173.3750  142.8290 C   0  0  0  0  0  2  0  0  0  0  0  0
  184.7650  177.4680  142.7000 N   0  0  0  0  0  1  0  0  0  0  0  0
  190.0110  175.0720  142.6980 C   0  0  2  0  0  3  0  0  0  0  0  0
  193.4840  174.4550  141.9000 C   0  0  0  0  0  0  0  0  0  0  0  0
  186.8810  178.6410  147.9350 O   0  0  0  0  0  1  0  0  0  0  0  0
  192.4240  174.4760  147.1050 N   0  0  0  0  0  0  0  0  0  0  0  0
  194.9400  174.3470  141.5850 C   0  0  1  0  0  3  0  0  0  0  0  0
  185.5250  178.8330  145.9580 C   0  0  1  0  0  3  0  0  0  0  0  0
  185.4930  178.9140  144.5250 O   0  0  0  0  0  0  0  0  0  0  0  0
  195.9440  173.5060  143.7580 C   0  0  0  0  0  2  0  0  0  0  0  0
  187.9630  177.5870  144.5690 C   0  0  1  0  0  3  0  0  0  0  0  0
  196.2090  174.3750  146.1030 C   0  0  0  0  0  2  0  0  0  0  0  0
  195.8220  174.6740  142.7900 C   0  0  0  0  0  2  0  0  0  0  0  0
  194.0700  175.5350  145.6980 C   0  0  0  0  0  0  0  0  0  0  0  0
  195.2290  173.0800  141.0710 O   0  0  0  0  0  0  0  0  0  0  0  0
  195.7130  173.3010  139.7750 C   0  0  2  0  0  3  0  0  0  0  0  0
  197.0510  172.5860  139.5830 C   0  0  2  0  0  3  0  0  0  0  0  0
  196.8560  171.2310  138.9250 C   0  0  0  0  0  1  0  0  0  0  0  0
  197.6780  172.4030  140.8160 O   0  0  0  0  0  1  0  0  0  0  0  0
  195.8240  174.8030  139.5130 C   0  0  0  0  0  2  0  0  0  0  0  0
  196.8080  175.1100  138.3870 C   0  0  0  0  0  2  0  0  0  0  0  0
  196.0710  175.3970  137.0890 C   0  0  0  0  0  2  0  0  0  0  0  0
  194.5700  175.3040  137.3060 C   0  0  0  0  0  2  0  0  0  0  0  0
  193.8550  175.0560  135.9860 C   0  0  1  0  0  3  0  0  0  0  0  0
  193.1840  173.1840  134.5130 F   0  0  0  0  0  0  0  0  0  0  0  0
  193.7580  173.5920  135.6800 C   0  0  0  0  0  0  0  0  0  0  0  0
  194.3450  172.7490  136.4550 N   0  0  0  0  0  0  0  0  0  0  0  0
  194.4180  171.3410  136.1470 C   0  0  0  0  0  2  0  0  0  0  0  0
  193.2050  170.6360  136.6560 C   0  0  0  0  0  0  0  0  0  0  0  0
  192.0800  170.5820  135.8460 O   0  0  0  0  0  1  0  0  0  0  0  0
  193.2570  170.0650  137.8640 C   0  0  0  0  0  3  0  0  0  0  0  0
  192.2620  169.3000  138.5060 O   0  0  0  0  0  0  0  0  0  0  0  0
  191.0000  168.8040  140.5200 C   0  0  0  0  0  1  0  0  0  0  0  0
  191.4340  171.1690  139.8340 C   0  0  0  0  0  1  0  0  0  0  0  0
  189.9200  169.7480  138.5340 C   0  0  0  0  0  1  0  0  0  0  0  0
  191.1970  169.7480  139.3490 C   0  0  0  0  0  0  0  0  0  0  0  0
  192.2820  176.9390  135.4050 N   0  0  0  0  0  1  0  0  0  0  0  0
  191.5100  175.0250  136.4720 O   0  0  0  0  0  0  0  0  0  0  0  0
  192.4890  175.6620  136.0000 C   0  0  0  0  0  0  0  0  0  0  0  0
  188.6840  174.3130  142.5920 C   0  0  0  0  0  2  0  0  0  0  0  0
  188.0660  174.4890  141.2150 C   0  0  0  0  0  2  0  0  0  0  0  0
  189.0550  174.0990  140.1330 C   0  0  0  0  0  2  0  0  0  0  0  0
  188.4650  173.3830  137.8670 C   0  0  0  0  0  2  0  0  0  0  0  0
  188.4080  173.1560  139.1760 C   0  0  0  0  0  3  0  0  0  0  0  0
  4 35  2  0  0  0  0
  5 22  1  0  0  0  0
  6 21  2  0  0  0  0
  8 14  1  0  0  0  0
  8 16  1  1  0  0  0
  9  2  2  0  0  0  0
  9 30  1  0  0  0  0
 10 17  1  0  0  0  0
 10 16  1  1  0  0  0
 11  4  1  0  0  0  0
 11 14  2  0  0  0  0
 12  3  1  0  0  0  0
 13 25  2  0  0  0  0
 14 12  1  0  0  0  0
 15 33  1  0  0  0  0
 17 26  1  1  0  0  0
 18 27  1  0  0  0  0
 19 33  1  0  0  0  0
 20 32  1  0  0  0  0
 20  8  1  0  0  0  0
 21 20  1  0  0  0  0
 22  1  1  0  0  0  0
 23  9  1  0  0  0  0
 24 61  1  1  0  0  0
 24 21  1  0  0  0  0
 24  1  1  0  0  0  0
 25  5  1  0  0  0  0
 27 12  2  0  0  0  0
 28 36  1  1  0  0  0
 28 25  1  0  0  0  0
 28 34  1  0  0  0  0
 29  7  1  6  0  0  0
 29 17  1  0  0  0  0
 30 29  1  0  0  0  0
 31 19  1  0  0  0  0
 32  2  1  6  0  0  0
 32 10  1  0  0  0  0
 34 31  1  0  0  0  0
 35 15  1  0  0  0  0
 35 18  1  0  0  0  0
 37 41  1  1  0  0  0
 37 36  1  0  0  0  0
 38 39  1  1  0  0  0
 38 37  1  0  0  0  0
 38 40  1  0  0  0  0
 42 41  1  0  0  0  0
 43 44  1  0  0  0  0
 43 42  1  0  0  0  0
 45 60  1  0  0  0  0
 45 44  1  1  0  0  0
 46 47  1  0  0  0  0
 47 45  1  0  0  0  0
 47 48  2  0  0  0  0
 49 48  1  0  0  0  0
 49 50  1  0  0  0  0
 50 52  2  0  0  0  0
 51 50  1  0  0  0  0
 52 53  1  0  0  0  0
 53 57  1  0  0  0  0
 56 57  1  0  0  0  0
 57 55  1  0  0  0  0
 57 54  1  0  0  0  0
 58 60  1  0  0  0  0
 60 59  2  0  0  0  0
 62 61  1  0  0  0  0
 63 62  1  0  0  0  0
 64 65  2  0  0  0  0
 65 63  1  0  0  0  0
M  END
>  <MODEL>
4

>  <REMARK>
 VINA RESULT:      -5.9      2.708      5.829
  Name = 
  18 active torsions:
  status: ('A' for Active; 'I' for Inactive)
    1  A    between atoms: O_3  and  C_46
    2  A    between atoms: O_3  and  C_50
    3  A    between atoms: C_9  and  C_16
    4  A    between atoms: C_9  and  C_37
    5  A    between atoms: C_15  and  C_46
    6  A    between atoms: C_16  and  C_55
    7  A    between atoms: C_24  and  C_55
    8  A    between atoms: C_26  and  C_38
    9  A    between atoms: C_29  and  C_40
   10  A    between atoms: C_29  and  C_44
   11  A    between atoms: C_36  and  C_63
   12  A    between atoms: C_37  and  C_58
   13  A    between atoms: C_38  and  N_41
   14  A    between atoms: C_40  and  C_63
   15  A    between atoms: C_46  and  C_58
   16  A    between atoms: O_51  and  C_62
   17  A    between atoms: O_51  and  C_64
   18  A    between atoms: C_55  and  C_59
                            x       y       z     vdW  Elec       q    Type
                         _______ _______ _______ _____ _____    ______ ____

>  <TORSDO>
F 18

$$$$
=
 OpenBabel11072409103D

 65 68  0  0  1  0  0  0  0  0999 V2000
  190.8830  174.6000  143.3250 O   0  0  0  0  0  0  0  0  0  0  0  0
  186.8060  177.2670  143.6470 N   0  0  0  0  0  0  0  0  0  0  0  0
  190.6490  175.2620  148.1080 N   0  0  0  0  0  1  0  0  0  0  0  0
  193.4220  176.7660  145.1880 N   0  0  0  0  0  0  0  0  0  0  0  0
  192.8750  173.8030  142.4360 O   0  0  0  0  0  0  0  0  0  0  0  0
  189.9640  177.6570  142.3170 O   0  0  0  0  0  0  0  0  0  0  0  0
  184.4920  177.6520  146.4830 C   0  0  0  0  0  1  0  0  0  0  0  0
  189.6620  176.5940  145.6000 C   0  0  1  0  0  3  0  0  0  0  0  0
  185.6640  177.8870  143.6680 C   0  0  0  0  0  0  0  0  0  0  0  0
  187.5200  177.3380  145.9730 C   0  0  1  0  0  3  0  0  0  0  0  0
  191.9960  176.9220  145.1020 C   0  0  0  0  0  3  0  0  0  0  0  0
  191.4500  175.3140  146.9310 C   0  0  0  0  0  0  0  0  0  0  0  0
  192.7360  175.6920  141.1070 O   0  0  0  0  0  0  0  0  0  0  0  0
  191.0830  176.2560  145.8310 C   0  0  0  0  0  0  0  0  0  0  0  0
  195.4520  175.7100  145.5720 O   0  0  0  0  0  0  0  0  0  0  0  0
  188.8300  176.9380  146.5750 C   0  0  0  0  0  2  0  0  0  0  0  0
  186.8710  178.5740  146.5740 C   0  0  2  0  0  3  0  0  0  0  0  0
  193.3160  174.3880  145.6770 C   0  0  0  0  0  2  0  0  0  0  0  0
  196.9420  174.1190  144.5120 C   0  0  0  0  0  2  0  0  0  0  0  0
  189.0850  176.8400  144.3160 N   0  0  0  0  0  0  0  0  0  0  0  0
  189.7150  176.6570  143.0410 C   0  0  0  0  0  0  0  0  0  0  0  0
  191.4690  173.6130  142.5220 C   0  0  0  0  0  2  0  0  0  0  0  0
  184.6740  177.5500  142.7000 N   0  0  0  0  0  1  0  0  0  0  0  0
  189.9730  175.2810  142.5030 C   0  0  2  0  0  3  0  0  0  0  0  0
  193.4480  174.7900  141.6310 C   0  0  0  0  0  0  0  0  0  0  0  0
  186.8310  178.4800  147.9680 O   0  0  0  0  0  1  0  0  0  0  0  0
  192.4560  174.4970  146.8410 N   0  0  0  0  0  0  0  0  0  0  0  0
  194.9020  174.7340  141.2930 C   0  0  1  0  0  3  0  0  0  0  0  0
  185.4460  178.7500  146.0210 C   0  0  1  0  0  3  0  0  0  0  0  0
  185.3930  178.9090  144.5950 O   0  0  0  0  0  0  0  0  0  0  0  0
  195.9530  173.7970  143.4030 C   0  0  0  0  0  2  0  0  0  0  0  0
  187.8930  177.6390  144.5350 C   0  0  1  0  0  3  0  0  0  0  0  0
  196.2290  174.5400  145.7900 C   0  0  0  0  0  2  0  0  0  0  0  0
  195.7920  175.0140  142.5030 C   0  0  0  0  0  2  0  0  0  0  0  0
  194.0590  175.6720  145.4750 C   0  0  0  0  0  0  0  0  0  0  0  0
  195.2120  173.5040  140.7050 O   0  0  0  0  0  0  0  0  0  0  0  0
  194.1740  173.2450  139.8020 C   0  0  2  0  0  3  0  0  0  0  0  0
  194.0840  171.7450  139.5180 C   0  0  2  0  0  3  0  0  0  0  0  0
  193.1290  171.0630  140.4830 C   0  0  0  0  0  1  0  0  0  0  0  0
  195.3440  171.1580  139.6400 O   0  0  0  0  0  1  0  0  0  0  0  0
  194.3840  174.0570  138.5250 C   0  0  0  0  0  2  0  0  0  0  0  0
  195.8480  174.0650  138.0920 C   0  0  0  0  0  2  0  0  0  0  0  0
  196.1080  175.1730  137.0850 C   0  0  0  0  0  2  0  0  0  0  0  0
  195.7870  174.6920  135.6800 C   0  0  0  0  0  2  0  0  0  0  0  0
  195.0050  175.7520  134.9190 C   0  0  1  0  0  3  0  0  0  0  0  0
  193.5570  176.7720  136.6460 F   0  0  0  0  0  0  0  0  0  0  0  0
  193.6600  175.9910  135.5340 C   0  0  0  0  0  0  0  0  0  0  0  0
  192.6060  175.5750  134.9220 N   0  0  0  0  0  0  0  0  0  0  0  0
  191.2740  175.8930  135.3770 C   0  0  0  0  0  2  0  0  0  0  0  0
  190.4430  174.6560  135.4500 C   0  0  0  0  0  0  0  0  0  0  0  0
  189.0750  174.7840  135.6400 O   0  0  0  0  0  1  0  0  0  0  0  0
  191.0470  173.4710  135.3080 C   0  0  0  0  0  3  0  0  0  0  0  0
  190.4540  172.1930  135.2770 O   0  0  0  0  0  0  0  0  0  0  0  0
  192.1850  171.2180  136.6730 C   0  0  0  0  0  1  0  0  0  0  0  0
  189.8340  170.3710  136.7730 C   0  0  0  0  0  1  0  0  0  0  0  0
  191.2170  169.9880  134.7890 C   0  0  0  0  0  1  0  0  0  0  0  0
  190.9080  170.9820  135.8880 C   0  0  0  0  0  0  0  0  0  0  0  0
  197.1890  177.0000  134.7590 N   0  0  0  0  0  1  0  0  0  0  0  0
  195.1660  178.1400  134.8220 O   0  0  0  0  0  0  0  0  0  0  0  0
  195.7690  177.0340  134.8570 C   0  0  0  0  0  0  0  0  0  0  0  0
  188.6620  174.4970  142.3710 C   0  0  0  0  0  2  0  0  0  0  0  0
  188.3260  174.2440  140.9100 C   0  0  0  0  0  2  0  0  0  0  0  0
  188.3900  172.7610  140.5990 C   0  0  0  0  0  2  0  0  0  0  0  0
  190.1380  173.4490  139.0270 C   0  0  0  0  0  2  0  0  0  0  0  0
  189.5800  172.4780  139.7440 C   0  0  0  0  0  3  0  0  0  0  0  0
  2  9  2  0  0  0  0
  4 35  2  0  0  0  0
  5 22  1  0  0  0  0
  6 21  2  0  0  0  0
  8 14  1  0  0  0  0
  8 16  1  1  0  0  0
  9 30  1  0  0  0  0
 10 17  1  0  0  0  0
 10 16  1  1  0  0  0
 11  4  1  0  0  0  0
 11 14  2  0  0  0  0
 12  3  1  0  0  0  0
 13 25  2  0  0  0  0
 14 12  1  0  0  0  0
 15 33  1  0  0  0  0
 17 26  1  1  0  0  0
 18 27  1  0  0  0  0
 19 33  1  0  0  0  0
 20 32  1  0  0  0  0
 20  8  1  0  0  0  0
 21 20  1  0  0  0  0
 22  1  1  0  0  0  0
 23  9  1  0  0  0  0
 24 61  1  1  0  0  0
 24 21  1  0  0  0  0
 24  1  1  0  0  0  0
 25  5  1  0  0  0  0
 27 12  2  0  0  0  0
 28 36  1  1  0  0  0
 28 25  1  0  0  0  0
 28 34  1  0  0  0  0
 29  7  1  6  0  0  0
 29 17  1  0  0  0  0
 30 29  1  0  0  0  0
 31 19  1  0  0  0  0
 32  2  1  6  0  0  0
 32 10  1  0  0  0  0
 34 31  1  0  0  0  0
 35 15  1  0  0  0  0
 35 18  1  0  0  0  0
 37 41  1  6  0  0  0
 37 36  1  0  0  0  0
 38 40  1  0  0  0  0
 38 37  1  0  0  0  0
 38 39  1  1  0  0  0
 42 41  1  0  0  0  0
 43 42  1  0  0  0  0
 44 43  1  0  0  0  0
 45 47  1  0  0  0  0
 45 44  1  1  0  0  0
 47 46  1  0  0  0  0
 48 49  1  0  0  0  0
 48 47  2  0  0  0  0
 49 50  1  0  0  0  0
 50 51  1  0  0  0  0
 52 50  2  0  0  0  0
 53 52  1  0  0  0  0
 53 57  1  0  0  0  0
 56 57  1  0  0  0  0
 57 54  1  0  0  0  0
 57 55  1  0  0  0  0
 58 60  1  0  0  0  0
 59 60  2  0  0  0  0
 60 45  1  0  0  0  0
 62 61  1  0  0  0  0
 63 62  1  0  0  0  0
 64 65  2  0  0  0  0
 65 63  1  0  0  0  0
M  END
>  <MODEL>
5

>  <REMARK>
 VINA RESULT:      -5.7      2.805      5.760
  Name = 
  18 active torsions:
  status: ('A' for Active; 'I' for Inactive)
    1  A    between atoms: O_3  and  C_46
    2  A    between atoms: O_3  and  C_50
    3  A    between atoms: C_9  and  C_16
    4  A    between atoms: C_9  and  C_37
    5  A    between atoms: C_15  and  C_46
    6  A    between atoms: C_16  and  C_55
    7  A    between atoms: C_24  and  C_55
    8  A    between atoms: C_26  and  C_38
    9  A    between atoms: C_29  and  C_40
   10  A    between atoms: C_29  and  C_44
   11  A    between atoms: C_36  and  C_63
   12  A    between atoms: C_37  and  C_58
   13  A    between atoms: C_38  and  N_41
   14  A    between atoms: C_40  and  C_63
   15  A    between atoms: C_46  and  C_58
   16  A    between atoms: O_51  and  C_62
   17  A    between atoms: O_51  and  C_64
   18  A    between atoms: C_55  and  C_59
                            x       y       z     vdW  Elec       q    Type
                         _______ _______ _______ _____ _____    ______ ____

>  <TORSDO>
F 18

$$$$
=
 OpenBabel11072409103D

 65 68  0  0  1  0  0  0  0  0999 V2000
  192.9730  173.8090  140.7420 O   0  0  0  0  0  0  0  0  0  0  0  0
  192.5640  170.4120  137.2590 N   0  0  0  0  0  0  0  0  0  0  0  0
  197.6130  172.5730  140.1800 N   0  0  0  0  0  1  0  0  0  0  0  0
  194.9110  171.9540  143.4650 N   0  0  0  0  0  0  0  0  0  0  0  0
  192.4030  175.0590  142.6150 O   0  0  0  0  0  0  0  0  0  0  0  0
  191.5830  170.7700  140.5460 O   0  0  0  0  0  0  0  0  0  0  0  0
  195.0600  169.2830  134.8020 C   0  0  0  0  0  1  0  0  0  0  0  0
  194.8930  171.3760  139.7230 C   0  0  1  0  0  3  0  0  0  0  0  0
  192.3920  169.5920  136.2650 C   0  0  0  0  0  0  0  0  0  0  0  0
  194.9410  170.2090  137.7430 C   0  0  1  0  0  3  0  0  0  0  0  0
  194.6430  171.5470  142.1130 C   0  0  0  0  0  3  0  0  0  0  0  0
  196.5380  172.8050  141.0860 C   0  0  0  0  0  0  0  0  0  0  0  0
  190.8960  173.3410  142.9810 O   0  0  0  0  0  0  0  0  0  0  0  0
  195.3200  171.9430  141.0200 C   0  0  0  0  0  0  0  0  0  0  0  0
  195.6280  173.3170  145.2000 O   0  0  0  0  0  0  0  0  0  0  0  0
  195.7270  170.7740  138.8840 C   0  0  0  0  0  2  0  0  0  0  0  0
  195.3440  168.8150  137.2960 C   0  0  2  0  0  3  0  0  0  0  0  0
  195.6040  174.1990  142.8450 C   0  0  0  0  0  2  0  0  0  0  0  0
  194.9030  175.2680  146.4430 C   0  0  0  0  0  2  0  0  0  0  0  0
  193.5330  171.1750  139.3330 N   0  0  0  0  0  0  0  0  0  0  0  0
  192.3630  171.6170  140.0360 C   0  0  0  0  0  0  0  0  0  0  0  0
  192.3410  174.9730  141.1980 C   0  0  0  0  0  2  0  0  0  0  0  0
  191.3510  169.8480  135.3270 N   0  0  0  0  0  1  0  0  0  0  0  0
  191.9900  173.0690  140.0680 C   0  0  2  0  0  3  0  0  0  0  0  0
  191.5820  174.2930  143.4470 C   0  0  0  0  0  0  0  0  0  0  0  0
  196.7250  168.7390  137.1030 O   0  0  0  0  0  1  0  0  0  0  0  0
  196.6430  173.7990  141.9150 N   0  0  0  0  0  0  0  0  0  0  0  0
  191.4240  174.6570  144.8860 C   0  0  1  0  0  3  0  0  0  0  0  0
  194.6130  168.4410  135.9930 C   0  0  1  0  0  3  0  0  0  0  0  0
  193.1820  168.4390  136.1120 O   0  0  0  0  0  0  0  0  0  0  0  0
  193.7210  175.5250  145.5230 C   0  0  0  0  0  2  0  0  0  0  0  0
  193.5350  170.1490  138.3060 C   0  0  1  0  0  3  0  0  0  0  0  0
  196.0440  174.5790  145.7060 C   0  0  0  0  0  2  0  0  0  0  0  0
  192.6990  174.4100  145.6920 C   0  0  0  0  0  2  0  0  0  0  0  0
  195.3720  173.1070  143.8420 C   0  0  0  0  0  0  0  0  0  0  0  0
  190.9940  175.9820  145.0050 O   0  0  0  0  0  0  0  0  0  0  0  0
  189.8500  176.0800  144.2040 C   0  0  2  0  0  3  0  0  0  0  0  0
  189.7120  177.4990  143.6510 C   0  0  2  0  0  3  0  0  0  0  0  0
  188.9710  177.4990  142.3250 C   0  0  0  0  0  1  0  0  0  0  0  0
  190.9730  178.0640  143.4640 O   0  0  0  0  0  1  0  0  0  0  0  0
  188.6190  175.6560  145.0050 C   0  0  0  0  0  2  0  0  0  0  0  0
  188.6130  176.2720  146.4020 C   0  0  0  0  0  2  0  0  0  0  0  0
  187.2400  176.8320  146.7390 C   0  0  0  0  0  2  0  0  0  0  0  0
  186.4410  177.0630  145.4680 C   0  0  0  0  0  2  0  0  0  0  0  0
  185.8920  178.4820  145.4330 C   0  0  1  0  0  3  0  0  0  0  0  0
  185.9570  180.3070  143.7640 F   0  0  0  0  0  0  0  0  0  0  0  0
  185.7590  178.9850  144.0280 C   0  0  0  0  0  0  0  0  0  0  0  0
  185.5990  178.1390  143.0710 N   0  0  0  0  0  0  0  0  0  0  0  0
  185.6080  178.5340  141.6830 C   0  0  0  0  0  2  0  0  0  0  0  0
  184.3180  178.1610  141.0310 C   0  0  0  0  0  0  0  0  0  0  0  0
  184.3560  177.5470  139.7880 O   0  0  0  0  0  1  0  0  0  0  0  0
  183.1770  178.4150  141.6810 C   0  0  0  0  0  3  0  0  0  0  0  0
  181.8630  178.0900  141.2850 O   0  0  0  0  0  0  0  0  0  0  0  0
  180.7300  179.4110  142.9780 C   0  0  0  0  0  1  0  0  0  0  0  0
  180.2680  179.7780  140.5490 C   0  0  0  0  0  1  0  0  0  0  0  0
  179.5380  177.7230  141.6630 C   0  0  0  0  0  1  0  0  0  0  0  0
  180.6420  178.7580  141.6120 C   0  0  0  0  0  0  0  0  0  0  0  0
  184.5110  178.4110  147.5410 N   0  0  0  0  0  1  0  0  0  0  0  0
  183.5210  178.8180  145.4790 O   0  0  0  0  0  0  0  0  0  0  0  0
  184.5710  178.5580  146.1270 C   0  0  0  0  0  0  0  0  0  0  0  0
  191.7790  173.6060  138.6480 C   0  0  0  0  0  2  0  0  0  0  0  0
  193.0590  174.2210  138.1040 C   0  0  0  0  0  2  0  0  0  0  0  0
  193.0490  174.2140  136.5870 C   0  0  0  0  0  2  0  0  0  0  0  0
  193.7340  176.3570  135.6200 C   0  0  0  0  0  2  0  0  0  0  0  0
  192.7540  175.5860  136.0810 C   0  0  0  0  0  3  0  0  0  0  0  0
  1 22  1  0  0  0  0
  3 12  1  0  0  0  0
  4 35  2  0  0  0  0
  5 25  1  0  0  0  0
  8 16  1  1  0  0  0
  8 14  1  0  0  0  0
  9  2  2  0  0  0  0
 10 32  1  0  0  0  0
 10 16  1  1  0  0  0
 11  4  1  0  0  0  0
 12 27  2  0  0  0  0
 13 25  2  0  0  0  0
 14 12  1  0  0  0  0
 14 11  2  0  0  0  0
 15 33  1  0  0  0  0
 17 26  1  6  0  0  0
 17 10  1  0  0  0  0
 18 35  1  0  0  0  0
 20  8  1  0  0  0  0
 20 21  1  0  0  0  0
 21 24  1  0  0  0  0
 21  6  2  0  0  0  0
 22  5  1  0  0  0  0
 23  9  1  0  0  0  0
 24 61  1  6  0  0  0
 24  1  1  0  0  0  0
 25 28  1  0  0  0  0
 27 18  1  0  0  0  0
 28 36  1  6  0  0  0
 28 34  1  0  0  0  0
 29  7  1  6  0  0  0
 29 30  1  0  0  0  0
 29 17  1  0  0  0  0
 30  9  1  0  0  0  0
 31 34  1  0  0  0  0
 31 19  1  0  0  0  0
 32  2  1  6  0  0  0
 32 20  1  0  0  0  0
 33 19  1  0  0  0  0
 35 15  1  0  0  0  0
 37 41  1  1  0  0  0
 37 36  1  0  0  0  0
 38 39  1  6  0  0  0
 38 37  1  0  0  0  0
 40 38  1  0  0  0  0
 41 42  1  0  0  0  0
 42 43  1  0  0  0  0
 44 43  1  0  0  0  0
 45 44  1  6  0  0  0
 45 60  1  0  0  0  0
 46 47  1  0  0  0  0
 47 45  1  0  0  0  0
 48 47  2  0  0  0  0
 49 48  1  0  0  0  0
 50 52  2  0  0  0  0
 50 49  1  0  0  0  0
 51 50  1  0  0  0  0
 53 57  1  0  0  0  0
 53 52  1  0  0  0  0
 55 57  1  0  0  0  0
 57 56  1  0  0  0  0
 57 54  1  0  0  0  0
 59 60  2  0  0  0  0
 60 58  1  0  0  0  0
 62 61  1  0  0  0  0
 63 62  1  0  0  0  0
 64 65  2  0  0  0  0
 65 63  1  0  0  0  0
M  END
>  <MODEL>
6

>  <REMARK>
 VINA RESULT:      -5.7      3.552     11.096
  Name = 
  18 active torsions:
  status: ('A' for Active; 'I' for Inactive)
    1  A    between atoms: O_3  and  C_46
    2  A    between atoms: O_3  and  C_50
    3  A    between atoms: C_9  and  C_16
    4  A    between atoms: C_9  and  C_37
    5  A    between atoms: C_15  and  C_46
    6  A    between atoms: C_16  and  C_55
    7  A    between atoms: C_24  and  C_55
    8  A    between atoms: C_26  and  C_38
    9  A    between atoms: C_29  and  C_40
   10  A    between atoms: C_29  and  C_44
   11  A    between atoms: C_36  and  C_63
   12  A    between atoms: C_37  and  C_58
   13  A    between atoms: C_38  and  N_41
   14  A    between atoms: C_40  and  C_63
   15  A    between atoms: C_46  and  C_58
   16  A    between atoms: O_51  and  C_62
   17  A    between atoms: O_51  and  C_64
   18  A    between atoms: C_55  and  C_59
                            x       y       z     vdW  Elec       q    Type
                         _______ _______ _______ _____ _____    ______ ____

>  <TORSDO>
F 18

$$$$
=
 OpenBabel11072409103D

 65 68  0  0  1  0  0  0  0  0999 V2000
  191.2910  174.5240  141.2620 O   0  0  0  0  0  0  0  0  0  0  0  0
  188.5630  176.8460  144.5790 N   0  0  0  0  0  0  0  0  0  0  0  0
  187.4460  175.6850  138.5710 N   0  0  0  0  0  1  0  0  0  0  0  0
  188.8790  171.8700  139.9380 N   0  0  0  0  0  0  0  0  0  0  0  0
  192.7830  172.9630  140.4060 O   0  0  0  0  0  0  0  0  0  0  0  0
  189.7210  173.6360  144.0820 O   0  0  0  0  0  0  0  0  0  0  0  0
  185.9460  179.3840  144.0780 C   0  0  0  0  0  1  0  0  0  0  0  0
  188.1170  175.2480  141.4690 C   0  0  1  0  0  3  0  0  0  0  0  0
  187.9360  177.5370  145.4840 C   0  0  0  0  0  0  0  0  0  0  0  0
  186.9990  176.8240  142.7140 C   0  0  1  0  0  3  0  0  0  0  0  0
  188.6060  172.9850  140.8020 C   0  0  0  0  0  3  0  0  0  0  0  0
  188.3600  174.6700  138.9760 C   0  0  0  0  0  0  0  0  0  0  0  0
  192.3740  171.8640  142.4010 O   0  0  0  0  0  0  0  0  0  0  0  0
  188.4150  174.2580  140.4110 C   0  0  0  0  0  0  0  0  0  0  0  0
  189.6670  170.7330  138.0750 O   0  0  0  0  0  0  0  0  0  0  0  0
  187.0630  176.0550  141.4320 C   0  0  0  0  0  2  0  0  0  0  0  0
  185.6150  176.9670  143.3240 C   0  0  2  0  0  3  0  0  0  0  0  0
  190.1770  173.1790  138.3560 C   0  0  0  0  0  2  0  0  0  0  0  0
  191.7530  169.9170  137.1490 C   0  0  0  0  0  2  0  0  0  0  0  0
  188.7520  175.2860  142.7480 N   0  0  0  0  0  0  0  0  0  0  0  0
  189.8720  174.4970  143.1750 C   0  0  0  0  0  0  0  0  0  0  0  0
  192.6320  174.2660  140.9540 C   0  0  0  0  0  2  0  0  0  0  0  0
  188.6910  178.2750  146.4400 N   0  0  0  0  0  1  0  0  0  0  0  0
  191.2480  174.7660  142.6430 C   0  0  2  0  0  3  0  0  0  0  0  0
  192.7480  171.8110  141.1960 C   0  0  0  0  0  0  0  0  0  0  0  0
  184.6990  177.4130  142.3680 O   0  0  0  0  0  1  0  0  0  0  0  0
  189.1510  174.1670  138.0780 N   0  0  0  0  0  0  0  0  0  0  0  0
  193.2540  170.5140  140.6550 C   0  0  1  0  0  3  0  0  0  0  0  0
  185.6540  177.9500  144.5080 C   0  0  1  0  0  3  0  0  0  0  0  0
  186.5320  177.5440  145.5690 O   0  0  0  0  0  0  0  0  0  0  0  0
  192.5960  170.6100  138.2060 C   0  0  0  0  0  2  0  0  0  0  0  0
  187.8540  175.9890  143.6460 C   0  0  1  0  0  3  0  0  0  0  0  0
  190.4520  170.6670  136.8930 C   0  0  0  0  0  2  0  0  0  0  0  0
  192.3520  169.9510  139.5570 C   0  0  0  0  0  2  0  0  0  0  0  0
  189.5410  171.9070  138.8220 C   0  0  0  0  0  0  0  0  0  0  0  0
  194.5710  170.6580  140.2090 O   0  0  0  0  0  0  0  0  0  0  0  0
  195.3000  169.6550  140.8590 C   0  0  2  0  0  3  0  0  0  0  0  0
  194.8170  169.5020  142.3020 C   0  0  2  0  0  3  0  0  0  0  0  0
  195.8820  169.9590  143.2850 C   0  0  0  0  0  1  0  0  0  0  0  0
  194.5030  168.1680  142.5630 O   0  0  0  0  0  1  0  0  0  0  0  0
  196.7940  169.9720  140.7870 C   0  0  0  0  0  2  0  0  0  0  0  0
  197.0880  171.0920  139.7940 C   0  0  0  0  0  2  0  0  0  0  0  0
  197.7860  172.2540  140.4820 C   0  0  0  0  0  2  0  0  0  0  0  0
  196.8280  172.9550  141.4300 C   0  0  0  0  0  2  0  0  0  0  0  0
  197.1810  174.4300  141.5520 C   0  0  1  0  0  3  0  0  0  0  0  0
  197.1900  176.4650  140.1440 F   0  0  0  0  0  0  0  0  0  0  0  0
  196.7070  175.2090  140.3630 C   0  0  0  0  0  0  0  0  0  0  0  0
  195.9600  174.6290  139.4900 N   0  0  0  0  0  0  0  0  0  0  0  0
  195.5850  175.2670  138.2510 C   0  0  0  0  0  2  0  0  0  0  0  0
  194.7390  174.3500  137.4330 C   0  0  0  0  0  0  0  0  0  0  0  0
  193.3930  174.6500  137.2750 O   0  0  0  0  0  1  0  0  0  0  0  0
  195.3140  173.2840  136.8650 C   0  0  0  0  0  3  0  0  0  0  0  0
  194.7250  172.3330  136.0070 O   0  0  0  0  0  0  0  0  0  0  0  0
  196.4880  171.5900  134.5130 C   0  0  0  0  0  1  0  0  0  0  0  0
  195.7650  170.1740  136.4440 C   0  0  0  0  0  1  0  0  0  0  0  0
  194.2840  170.5200  134.5240 C   0  0  0  0  0  1  0  0  0  0  0  0
  195.3250  171.1860  135.4000 C   0  0  0  0  0  0  0  0  0  0  0  0
  197.0250  176.3020  143.2330 N   0  0  0  0  0  1  0  0  0  0  0  0
  195.7040  174.4020  143.4370 O   0  0  0  0  0  0  0  0  0  0  0  0
  196.6050  175.0120  142.8020 C   0  0  0  0  0  0  0  0  0  0  0  0
  191.6790  176.2020  142.9600 C   0  0  0  0  0  2  0  0  0  0  0  0
  191.7750  176.4210  144.4620 C   0  0  0  0  0  2  0  0  0  0  0  0
  193.1880  176.1610  144.9470 C   0  0  0  0  0  2  0  0  0  0  0  0
  194.5790  177.0560  146.7540 C   0  0  0  0  0  2  0  0  0  0  0  0
  193.3660  176.7400  146.3110 C   0  0  0  0  0  3  0  0  0  0  0  0
  1 24  1  0  0  0  0
  2  9  2  0  0  0  0
  3 12  1  0  0  0  0
  4 11  1  0  0  0  0
  5 22  1  0  0  0  0
  5 25  1  0  0  0  0
  8 16  1  1  0  0  0
  8 20  1  0  0  0  0
  9 30  1  0  0  0  0
  9 23  1  0  0  0  0
 10 16  1  6  0  0  0
 10 17  1  0  0  0  0
 10 32  1  0  0  0  0
 12 14  1  0  0  0  0
 14 11  2  0  0  0  0
 14  8  1  0  0  0  0
 15 35  1  0  0  0  0
 17 26  1  6  0  0  0
 17 29  1  0  0  0  0
 18 35  1  0  0  0  0
 19 31  1  0  0  0  0
 20 21  1  0  0  0  0
 20 32  1  0  0  0  0
 21  6  2  0  0  0  0
 22  1  1  0  0  0  0
 24 61  1  6  0  0  0
 24 21  1  0  0  0  0
 25 13  2  0  0  0  0
 27 18  1  0  0  0  0
 27 12  2  0  0  0  0
 28 36  1  6  0  0  0
 28 25  1  0  0  0  0
 29  7  1  6  0  0  0
 29 30  1  0  0  0  0
 31 34  1  0  0  0  0
 32  2  1  1  0  0  0
 33 19  1  0  0  0  0
 33 15  1  0  0  0  0
 34 28  1  0  0  0  0
 35  4  2  0  0  0  0
 36 37  1  0  0  0  0
 37 41  1  1  0  0  0
 37 38  1  0  0  0  0
 38 40  1  0  0  0  0
 38 39  1  1  0  0  0
 42 43  1  0  0  0  0
 42 41  1  0  0  0  0
 43 44  1  0  0  0  0
 45 44  1  6  0  0  0
 45 60  1  0  0  0  0
 46 47  1  0  0  0  0
 47 45  1  0  0  0  0
 48 47  2  0  0  0  0
 49 48  1  0  0  0  0
 50 49  1  0  0  0  0
 51 50  1  0  0  0  0
 52 50  2  0  0  0  0
 53 52  1  0  0  0  0
 54 57  1  0  0  0  0
 56 57  1  0  0  0  0
 57 53  1  0  0  0  0
 57 55  1  0  0  0  0
 60 58  1  0  0  0  0
 60 59  2  0  0  0  0
 61 62  1  0  0  0  0
 62 63  1  0  0  0  0
 63 65  1  0  0  0  0
 65 64  2  0  0  0  0
M  END
>  <MODEL>
7

>  <REMARK>
 VINA RESULT:      -4.9      1.796      2.297
  Name = 
  18 active torsions:
  status: ('A' for Active; 'I' for Inactive)
    1  A    between atoms: O_3  and  C_46
    2  A    between atoms: O_3  and  C_50
    3  A    between atoms: C_9  and  C_16
    4  A    between atoms: C_9  and  C_37
    5  A    between atoms: C_15  and  C_46
    6  A    between atoms: C_16  and  C_55
    7  A    between atoms: C_24  and  C_55
    8  A    between atoms: C_26  and  C_38
    9  A    between atoms: C_29  and  C_40
   10  A    between atoms: C_29  and  C_44
   11  A    between atoms: C_36  and  C_63
   12  A    between atoms: C_37  and  C_58
   13  A    between atoms: C_38  and  N_41
   14  A    between atoms: C_40  and  C_63
   15  A    between atoms: C_46  and  C_58
   16  A    between atoms: O_51  and  C_62
   17  A    between atoms: O_51  and  C_64
   18  A    between atoms: C_55  and  C_59
                            x       y       z     vdW  Elec       q    Type
                         _______ _______ _______ _____ _____    ______ ____

>  <TORSDO>
F 18

$$$$
=
 OpenBabel11072409103D

 65 68  0  0  1  0  0  0  0  0999 V2000
  191.1590  173.6370  143.8200 O   0  0  0  0  0  0  0  0  0  0  0  0
  187.2700  176.5860  143.6940 N   0  0  0  0  0  0  0  0  0  0  0  0
  191.1870  175.3130  148.3550 N   0  0  0  0  0  1  0  0  0  0  0  0
  193.9080  175.9690  145.0910 N   0  0  0  0  0  0  0  0  0  0  0  0
  193.0560  172.5350  143.0590 O   0  0  0  0  0  0  0  0  0  0  0  0
  190.3800  176.4660  142.2090 O   0  0  0  0  0  0  0  0  0  0  0  0
  185.1170  177.7210  146.4540 C   0  0  0  0  0  1  0  0  0  0  0  0
  190.1670  176.1480  145.6520 C   0  0  1  0  0  3  0  0  0  0  0  0
  186.1690  177.2730  143.6180 C   0  0  0  0  0  0  0  0  0  0  0  0
  188.0930  177.0990  145.9270 C   0  0  1  0  0  3  0  0  0  0  0  0
  192.4910  176.2010  145.0200 C   0  0  0  0  0  3  0  0  0  0  0  0
  191.9350  175.0590  147.1680 C   0  0  0  0  0  0  0  0  0  0  0  0
  192.9690  174.1040  141.3610 O   0  0  0  0  0  0  0  0  0  0  0  0
  191.5740  175.7700  145.9050 C   0  0  0  0  0  0  0  0  0  0  0  0
  195.8860  174.8820  145.6270 O   0  0  0  0  0  0  0  0  0  0  0  0
  189.4030  176.7470  146.5580 C   0  0  0  0  0  2  0  0  0  0  0  0
  187.5490  178.4750  146.2690 C   0  0  2  0  0  3  0  0  0  0  0  0
  193.6810  173.7620  146.0820 C   0  0  0  0  0  2  0  0  0  0  0  0
  197.2270  173.0040  144.8850 C   0  0  0  0  0  2  0  0  0  0  0  0
  189.5470  176.1550  144.3650 N   0  0  0  0  0  0  0  0  0  0  0  0
  190.1050  175.6620  143.1390 C   0  0  0  0  0  0  0  0  0  0  0  0
  191.6470  172.4650  143.2290 C   0  0  0  0  0  2  0  0  0  0  0  0
  185.1170  176.8070  142.7780 N   0  0  0  0  0  1  0  0  0  0  0  0
  190.2540  174.1890  142.9010 C   0  0  2  0  0  3  0  0  0  0  0  0
  193.6490  173.2870  142.0420 C   0  0  0  0  0  0  0  0  0  0  0  0
  187.5680  178.6830  147.6510 O   0  0  0  0  0  1  0  0  0  0  0  0
  192.8840  174.1750  147.2230 N   0  0  0  0  0  0  0  0  0  0  0  0
  195.0800  173.0610  141.6780 C   0  0  1  0  0  3  0  0  0  0  0  0
  186.1120  178.6280  145.7370 C   0  0  1  0  0  3  0  0  0  0  0  0
  186.0030  178.4840  144.3130 O   0  0  0  0  0  0  0  0  0  0  0  0
  196.1700  172.5230  143.9050 C   0  0  0  0  0  2  0  0  0  0  0  0
  188.4170  177.0620  144.4460 C   0  0  1  0  0  3  0  0  0  0  0  0
  196.6000  173.7340  146.0660 C   0  0  0  0  0  2  0  0  0  0  0  0
  196.0400  173.5300  142.7700 C   0  0  0  0  0  2  0  0  0  0  0  0
  194.4900  174.9200  145.5860 C   0  0  0  0  0  0  0  0  0  0  0  0
  195.2890  171.7160  141.3580 O   0  0  0  0  0  0  0  0  0  0  0  0
  194.8870  171.5790  140.0230 C   0  0  2  0  0  3  0  0  0  0  0  0
  194.1390  170.2590  139.8300 C   0  0  2  0  0  3  0  0  0  0  0  0
  193.7290  169.6640  141.1660 C   0  0  0  0  0  1  0  0  0  0  0  0
  194.9490  169.3450  139.1570 O   0  0  0  0  0  1  0  0  0  0  0  0
  196.1020  171.6890  139.1030 C   0  0  0  0  0  2  0  0  0  0  0  0
  195.7000  172.0400  137.6730 C   0  0  0  0  0  2  0  0  0  0  0  0
  196.6390  173.0830  137.0890 C   0  0  0  0  0  2  0  0  0  0  0  0
  197.2990  173.8780  138.2020 C   0  0  0  0  0  2  0  0  0  0  0  0
  196.6070  175.2210  138.3810 C   0  0  1  0  0  3  0  0  0  0  0  0
  194.2350  174.6150  138.7400 F   0  0  0  0  0  0  0  0  0  0  0  0
  195.1800  175.1690  137.9290 C   0  0  0  0  0  0  0  0  0  0  0  0
  194.8430  175.7760  136.8440 N   0  0  0  0  0  0  0  0  0  0  0  0
  193.4680  175.8940  136.4220 C   0  0  0  0  0  2  0  0  0  0  0  0
  193.0480  174.6680  135.6810 C   0  0  0  0  0  0  0  0  0  0  0  0
  193.8320  174.2290  134.6240 O   0  0  0  0  0  1  0  0  0  0  0  0
  191.9430  174.0280  136.0790 C   0  0  0  0  0  3  0  0  0  0  0  0
  191.4060  172.8270  135.5720 O   0  0  0  0  0  0  0  0  0  0  0  0
  190.4010  170.6260  135.7680 C   0  0  0  0  0  1  0  0  0  0  0  0
  192.8610  170.8810  135.3970 C   0  0  0  0  0  1  0  0  0  0  0  0
  191.8440  171.5350  137.5270 C   0  0  0  0  0  1  0  0  0  0  0  0
  191.6210  171.4900  136.0300 C   0  0  0  0  0  0  0  0  0  0  0  0
  197.8690  175.4690  140.5490 N   0  0  0  0  0  1  0  0  0  0  0  0
  195.7000  176.2730  140.3330 O   0  0  0  0  0  0  0  0  0  0  0  0
  196.6710  175.6660  139.8060 C   0  0  0  0  0  0  0  0  0  0  0  0
  188.8940  173.4880  142.9830 C   0  0  0  0  0  2  0  0  0  0  0  0
  188.0980  173.6970  141.7050 C   0  0  0  0  0  2  0  0  0  0  0  0
  189.0150  173.6760  140.4970 C   0  0  0  0  0  2  0  0  0  0  0  0
  188.8180  173.2930  138.0860 C   0  0  0  0  0  2  0  0  0  0  0  0
  188.2380  173.2930  139.2820 C   0  0  0  0  0  3  0  0  0  0  0  0
  4 35  2  0  0  0  0
  5 22  1  0  0  0  0
  6 21  2  0  0  0  0
  8 14  1  0  0  0  0
  8 16  1  6  0  0  0
  9  2  2  0  0  0  0
  9 30  1  0  0  0  0
 10 17  1  0  0  0  0
 10 16  1  1  0  0  0
 11  4  1  0  0  0  0
 11 14  2  0  0  0  0
 12 27  2  0  0  0  0
 12  3  1  0  0  0  0
 13 25  2  0  0  0  0
 14 12  1  0  0  0  0
 15 33  1  0  0  0  0
 17 26  1  1  0  0  0
 18 27  1  0  0  0  0
 19 33  1  0  0  0  0
 20 32  1  0  0  0  0
 20  8  1  0  0  0  0
 21 20  1  0  0  0  0
 22  1  1  0  0  0  0
 23  9  1  0  0  0  0
 24 61  1  1  0  0  0
 24 21  1  0  0  0  0
 24  1  1  0  0  0  0
 25  5  1  0  0  0  0
 28 36  1  1  0  0  0
 28 25  1  0  0  0  0
 28 34  1  0  0  0  0
 29 17  1  0  0  0  0
 29  7  1  1  0  0  0
 30 29  1  0  0  0  0
 31 19  1  0  0  0  0
 32  2  1  6  0  0  0
 32 10  1  0  0  0  0
 34 31  1  0  0  0  0
 35 15  1  0  0  0  0
 35 18  1  0  0  0  0
 37 41  1  6  0  0  0
 37 36  1  0  0  0  0
 38 37  1  0  0  0  0
 38 39  1  1  0  0  0
 40 38  1  0  0  0  0
 42 41  1  0  0  0  0
 43 42  1  0  0  0  0
 43 44  1  0  0  0  0
 45 44  1  1  0  0  0
 45 60  1  0  0  0  0
 47 45  1  0  0  0  0
 47 46  1  0  0  0  0
 48 47  2  0  0  0  0
 49 48  1  0  0  0  0
 50 52  2  0  0  0  0
 50 49  1  0  0  0  0
 51 50  1  0  0  0  0
 53 57  1  0  0  0  0
 53 52  1  0  0  0  0
 54 57  1  0  0  0  0
 55 57  1  0  0  0  0
 57 56  1  0  0  0  0
 60 59  2  0  0  0  0
 60 58  1  0  0  0  0
 62 61  1  0  0  0  0
 63 62  1  0  0  0  0
 64 65  2  0  0  0  0
 65 63  1  0  0  0  0
M  END
>  <MODEL>
8

>  <REMARK>
 VINA RESULT:      -4.8      2.280      4.993
  Name = 
  18 active torsions:
  status: ('A' for Active; 'I' for Inactive)
    1  A    between atoms: O_3  and  C_46
    2  A    between atoms: O_3  and  C_50
    3  A    between atoms: C_9  and  C_16
    4  A    between atoms: C_9  and  C_37
    5  A    between atoms: C_15  and  C_46
    6  A    between atoms: C_16  and  C_55
    7  A    between atoms: C_24  and  C_55
    8  A    between atoms: C_26  and  C_38
    9  A    between atoms: C_29  and  C_40
   10  A    between atoms: C_29  and  C_44
   11  A    between atoms: C_36  and  C_63
   12  A    between atoms: C_37  and  C_58
   13  A    between atoms: C_38  and  N_41
   14  A    between atoms: C_40  and  C_63
   15  A    between atoms: C_46  and  C_58
   16  A    between atoms: O_51  and  C_62
   17  A    between atoms: O_51  and  C_64
   18  A    between atoms: C_55  and  C_59
                            x       y       z     vdW  Elec       q    Type
                         _______ _______ _______ _____ _____    ______ ____

>  <TORSDO>
F 18

$$$$
=
 OpenBabel11072409103D

 65 68  0  0  1  0  0  0  0  0999 V2000
  192.1380  171.1180  141.4330 O   0  0  0  0  0  0  0  0  0  0  0  0
  195.9900  169.8480  138.7160 N   0  0  0  0  0  0  0  0  0  0  0  0
  190.1120  171.0120  137.0450 N   0  0  0  0  0  1  0  0  0  0  0  0
  190.9260  174.2990  139.6940 N   0  0  0  0  0  0  0  0  0  0  0  0
  190.9500  172.1330  143.1520 O   0  0  0  0  0  0  0  0  0  0  0  0
  195.0560  172.5530  140.6410 O   0  0  0  0  0  0  0  0  0  0  0  0
  196.0790  168.1680  135.4430 C   0  0  0  0  0  1  0  0  0  0  0  0
  192.8410  171.3640  138.2580 C   0  0  1  0  0  3  0  0  0  0  0  0
  197.0300  169.4130  138.0690 C   0  0  0  0  0  0  0  0  0  0  0  0
  194.3620  170.2430  136.9490 C   0  0  1  0  0  3  0  0  0  0  0  0
  191.9150  173.3520  139.2550 C   0  0  0  0  0  3  0  0  0  0  0  0
  190.2970  171.7330  138.2600 C   0  0  0  0  0  0  0  0  0  0  0  0
  192.8760  173.3930  143.3890 O   0  0  0  0  0  0  0  0  0  0  0  0
  191.6690  172.1750  138.6530 C   0  0  0  0  0  0  0  0  0  0  0  0
  188.8800  175.0700  140.4680 O   0  0  0  0  0  0  0  0  0  0  0  0
  193.0200  170.9010  137.0270 C   0  0  0  0  0  2  0  0  0  0  0  0
  195.1670  170.5390  135.6950 C   0  0  2  0  0  3  0  0  0  0  0  0
  189.3040  172.5970  140.3040 C   0  0  0  0  0  2  0  0  0  0  0  0
  187.6080  175.1970  142.5270 C   0  0  0  0  0  2  0  0  0  0  0  0
  194.0190  171.2010  139.0490 N   0  0  0  0  0  0  0  0  0  0  0  0
  194.2170  171.6460  140.3980 C   0  0  0  0  0  0  0  0  0  0  0  0
  191.6270  170.9570  142.7280 C   0  0  0  0  0  2  0  0  0  0  0  0
  197.9350  168.5310  138.7250 N   0  0  0  0  0  1  0  0  0  0  0  0
  193.5270  170.9610  141.5410 C   0  0  2  0  0  3  0  0  0  0  0  0
  191.6320  173.2790  143.5690 C   0  0  0  0  0  0  0  0  0  0  0  0
  194.3880  170.3380  134.5520 O   0  0  0  0  0  1  0  0  0  0  0  0
  189.2570  171.9410  139.0100 N   0  0  0  0  0  0  0  0  0  0  0  0
  190.9130  174.3450  144.3290 C   0  0  1  0  0  3  0  0  0  0  0  0
  196.4170  169.6420  135.6400 C   0  0  1  0  0  3  0  0  0  0  0  0
  197.3070  169.8210  136.7520 O   0  0  0  0  0  0  0  0  0  0  0  0
  188.5960  174.3350  143.2960 C   0  0  0  0  0  2  0  0  0  0  0  0
  195.0900  170.8330  138.1410 C   0  0  1  0  0  3  0  0  0  0  0  0
  187.5990  174.8490  141.0440 C   0  0  0  0  0  2  0  0  0  0  0  0
  189.9040  175.0970  143.4630 C   0  0  0  0  0  2  0  0  0  0  0  0
  189.7380  174.0190  140.1340 C   0  0  0  0  0  0  0  0  0  0  0  0
  190.3070  173.8020  145.4650 O   0  0  0  0  0  0  0  0  0  0  0  0
  190.1930  174.8600  146.3740 C   0  0  2  0  0  3  0  0  0  0  0  0
  191.5080  175.0490  147.1310 C   0  0  2  0  0  3  0  0  0  0  0  0
  191.3340  176.0060  148.2980 C   0  0  0  0  0  1  0  0  0  0  0  0
  192.4850  175.5550  146.2740 O   0  0  0  0  0  1  0  0  0  0  0  0
  189.0200  174.6060  147.3210 C   0  0  0  0  0  2  0  0  0  0  0  0
  187.9570  175.6960  147.2110 C   0  0  0  0  0  2  0  0  0  0  0  0
  188.0530  176.4110  145.8740 C   0  0  0  0  0  2  0  0  0  0  0  0
  187.9520  177.9140  146.0740 C   0  0  0  0  0  2  0  0  0  0  0  0
  186.5540  178.4060  145.7270 C   0  0  1  0  0  3  0  0  0  0  0  0
  185.5340  176.2700  145.0060 F   0  0  0  0  0  0  0  0  0  0  0  0
  185.9090  177.5410  144.6880 C   0  0  0  0  0  0  0  0  0  0  0  0
  185.5880  178.0570  143.5530 N   0  0  0  0  0  0  0  0  0  0  0  0
  184.8350  177.3280  142.5600 C   0  0  0  0  0  2  0  0  0  0  0  0
  184.0930  178.2750  141.6770 C   0  0  0  0  0  0  0  0  0  0  0  0
  184.8130  179.0540  140.7830 O   0  0  0  0  0  1  0  0  0  0  0  0
  182.7590  178.3200  141.7670 C   0  0  0  0  0  3  0  0  0  0  0  0
  181.8620  179.0840  140.9920 O   0  0  0  0  0  0  0  0  0  0  0  0
  180.1440  179.4040  142.6770 C   0  0  0  0  0  1  0  0  0  0  0  0
  179.9760  180.5280  140.4500 C   0  0  0  0  0  1  0  0  0  0  0  0
  179.7180  178.1000  140.6480 C   0  0  0  0  0  1  0  0  0  0  0  0
  180.4640  179.2980  141.1980 C   0  0  0  0  0  0  0  0  0  0  0  0
  184.3260  178.0740  146.8580 N   0  0  0  0  0  1  0  0  0  0  0  0
  186.1820  178.7800  148.0630 O   0  0  0  0  0  0  0  0  0  0  0  0
  185.6930  178.4610  146.9470 C   0  0  0  0  0  0  0  0  0  0  0  0
  193.9090  169.4780  141.5920 C   0  0  0  0  0  2  0  0  0  0  0  0
  194.9380  169.2200  142.6810 C   0  0  0  0  0  2  0  0  0  0  0  0
  194.3960  168.2420  143.7060 C   0  0  0  0  0  2  0  0  0  0  0  0
  194.5800  168.8350  146.0750 C   0  0  0  0  0  2  0  0  0  0  0  0
  193.9430  168.9850  144.9180 C   0  0  0  0  0  3  0  0  0  0  0  0
  1 24  1  0  0  0  0
  1 22  1  0  0  0  0
  3 12  1  0  0  0  0
  4 35  2  0  0  0  0
  5 25  1  0  0  0  0
  8 16  1  6  0  0  0
  8 14  1  0  0  0  0
  8 20  1  0  0  0  0
  9  2  2  0  0  0  0
  9 23  1  0  0  0  0
 10 16  1  6  0  0  0
 10 32  1  0  0  0  0
 11  4  1  0  0  0  0
 12 14  1  0  0  0  0
 12 27  2  0  0  0  0
 13 25  2  0  0  0  0
 14 11  2  0  0  0  0
 15 33  1  0  0  0  0
 17 26  1  6  0  0  0
 17 10  1  0  0  0  0
 19 31  1  0  0  0  0
 20 21  1  0  0  0  0
 21  6  2  0  0  0  0
 21 24  1  0  0  0  0
 22  5  1  0  0  0  0
 24 61  1  6  0  0  0
 25 28  1  0  0  0  0
 27 18  1  0  0  0  0
 28 36  1  1  0  0  0
 29  7  1  1  0  0  0
 29 17  1  0  0  0  0
 29 30  1  0  0  0  0
 30  9  1  0  0  0  0
 31 34  1  0  0  0  0
 32  2  1  1  0  0  0
 32 20  1  0  0  0  0
 33 19  1  0  0  0  0
 34 28  1  0  0  0  0
 35 18  1  0  0  0  0
 35 15  1  0  0  0  0
 36 37  1  0  0  0  0
 37 38  1  0  0  0  0
 37 41  1  1  0  0  0
 38 39  1  1  0  0  0
 40 38  1  0  0  0  0
 42 41  1  0  0  0  0
 43 44  1  0  0  0  0
 43 42  1  0  0  0  0
 45 44  1  1  0  0  0
 45 60  1  0  0  0  0
 47 46  1  0  0  0  0
 47 45  1  0  0  0  0
 48 47  2  0  0  0  0
 49 48  1  0  0  0  0
 50 52  2  0  0  0  0
 50 49  1  0  0  0  0
 51 50  1  0  0  0  0
 53 57  1  0  0  0  0
 53 52  1  0  0  0  0
 55 57  1  0  0  0  0
 56 57  1  0  0  0  0
 57 54  1  0  0  0  0
 58 60  1  0  0  0  0
 60 59  2  0  0  0  0
 61 62  1  0  0  0  0
 62 63  1  0  0  0  0
 63 65  1  0  0  0  0
 65 64  2  0  0  0  0
M  END
>  <MODEL>
9

>  <REMARK>
 VINA RESULT:      -4.4      3.503     10.692
  Name = 
  18 active torsions:
  status: ('A' for Active; 'I' for Inactive)
    1  A    between atoms: O_3  and  C_46
    2  A    between atoms: O_3  and  C_50
    3  A    between atoms: C_9  and  C_16
    4  A    between atoms: C_9  and  C_37
    5  A    between atoms: C_15  and  C_46
    6  A    between atoms: C_16  and  C_55
    7  A    between atoms: C_24  and  C_55
    8  A    between atoms: C_26  and  C_38
    9  A    between atoms: C_29  and  C_40
   10  A    between atoms: C_29  and  C_44
   11  A    between atoms: C_36  and  C_63
   12  A    between atoms: C_37  and  C_58
   13  A    between atoms: C_38  and  N_41
   14  A    between atoms: C_40  and  C_63
   15  A    between atoms: C_46  and  C_58
   16  A    between atoms: O_51  and  C_62
   17  A    between atoms: O_51  and  C_64
   18  A    between atoms: C_55  and  C_59
                            x       y       z     vdW  Elec       q    Type
                         _______ _______ _______ _____ _____    ______ ____

>  <TORSDO>
F 18

$$$$
