=
 OpenBabel11062421293D

 66 72  0  0  1  0  0  0  0  0999 V2000
  189.4680  177.5850  145.1890 O   0  0  0  0  0  0  0  0  0  0  0  0
  189.1720  177.2010  144.0290 C   0  0  0  0  0  0  0  0  0  0  0  0
  191.2930  175.4920  143.2340 C   0  0  1  0  0  3  0  0  0  0  0  0
  190.0410  176.3030  143.3470 N   0  0  0  0  0  0  0  0  0  0  0  0
  190.3780  175.4060  142.1990 C   0  0  2  0  0  3  0  0  0  0  0  0
  190.6350  172.3610  140.7030 C   0  0  1  0  0  3  0  0  0  0  0  0
  189.5020  173.3870  140.8470 C   0  0  1  0  0  3  0  0  0  0  0  0
  189.7260  171.6530  142.9970 C   0  0  0  0  0  2  0  0  0  0  0  0
  189.5800  174.0810  142.2290 C   0  0  1  0  0  3  0  0  0  0  0  0
  190.5500  171.2530  141.7670 C   0  0  0  0  0  2  0  0  0  0  0  0
  189.9690  173.1130  143.3710 C   0  0  0  0  0  2  0  0  0  0  0  0
  191.9850  170.6730  139.0300 S   0  0  0  0  0  0  0  0  0  0  0  0
  189.4950  171.6470  137.2170 C   0  0  0  0  0  3  0  0  0  0  0  0
  191.3170  170.0990  136.4030 C   0  0  1  0  0  3  0  0  0  0  0  0
  192.3810  170.7520  137.2890 C   0  0  0  0  0  2  0  0  0  0  0  0
  191.6330  168.6950  136.2230 N   0  0  0  0  0  1  0  0  0  0  0  0
  190.6930  171.7850  139.3640 N   0  0  0  0  0  0  0  0  0  0  0  0
  189.8430  172.3090  138.3250 C   0  0  0  0  0  3  0  0  0  0  0  0
  191.5720  169.2790  139.4140 O   0  0  0  0  0  0  0  0  0  0  0  0
  189.8850  170.2320  136.9250 C   0  0  0  0  0  2  0  0  0  0  0  0
  193.2070  171.0660  139.8140 O   0  0  0  0  0  0  0  0  0  0  0  0
  188.2610  174.6190  139.5950 O   0  0  0  0  0  1  0  0  0  0  0  0
  189.5260  174.3180  139.8020 O   0  0  0  0  0  0  0  0  0  0  0  0
  191.9940  177.4960  142.1310 O   0  0  0  0  0  1  0  0  0  0  0  0
  192.4640  176.3880  142.8400 C   0  0  2  0  0  3  0  0  0  0  0  0
  193.5470  175.6820  142.0020 C   0  0  2  0  0  3  0  0  0  0  0  0
  193.1050  174.4590  141.1880 C   0  0  2  0  0  3  0  0  0  0  0  0
  193.6660  173.2880  141.6990 O   0  0  0  0  0  1  0  0  0  0  0  0
  193.4980  174.6170  139.7330 C   0  0  0  0  0  1  0  0  0  0  0  0
  196.0140  176.0430  141.8180 C   0  0  0  0  0  1  0  0  0  0  0  0
  194.8990  175.5240  142.7090 C   0  0  1  0  0  3  0  0  0  0  0  0
  194.9480  176.2280  144.0660 C   0  0  0  0  0  2  0  0  0  0  0  0
  191.4140  175.5180  146.5950 C   0  0  0  0  0  2  0  0  0  0  0  0
  193.9350  174.1640  144.8090 O   0  0  0  0  0  0  0  0  0  0  0  0
  192.1460  174.9090  147.7960 C   0  0  0  0  0  2  0  0  0  0  0  0
  192.8340  175.0390  146.4640 C   0  0  0  0  0  0  0  0  0  0  0  0
  193.9190  176.0170  146.3000 C   0  0  0  0  0  2  0  0  0  0  0  0
  193.0370  173.8650  145.7510 O   0  0  0  0  0  0  0  0  0  0  0  0
  194.6950  175.2840  145.2410 C   0  0  2  0  0  0  0  0  0  0  0  0
  196.0640  174.8340  145.7700 C   0  0  0  0  0  2  0  0  0  0  0  0
  197.2060  173.4520  144.0400 C   0  0  0  0  0  3  0  0  0  0  0  0
  196.4180  172.3850  146.1820 C   0  0  0  0  0  2  0  0  0  0  0  0
  196.1660  170.5640  144.4890 C   0  0  2  0  0  3  0  0  0  0  0  0
  195.5070  171.2900  145.6540 C   0  0  0  0  0  2  0  0  0  0  0  0
  196.4720  173.5250  145.2700 N   0  0  0  0  0  0  0  0  0  0  0  0
  195.9930  171.4130  143.2370 C   0  0  0  0  0  2  0  0  0  0  0  0
  197.0370  172.4820  143.1380 C   0  0  0  0  0  3  0  0  0  0  0  0
  195.5360  169.1730  144.3050 C   0  0  2  0  0  3  0  0  0  0  0  0
  196.1900  168.4850  143.2790 O   0  0  0  0  0  1  0  0  0  0  0  0
  193.7550  168.7280  142.5690 C   0  0  0  0  0  1  0  0  0  0  0  0
  194.0380  169.2160  143.9790 C   0  0  1  0  0  3  0  0  0  0  0  0
  194.1520  168.1680  145.8510 O   0  0  0  0  0  1  0  0  0  0  0  0
  193.2910  168.4830  144.9060 O   0  0  0  0  0  0  0  0  0  0  0  0
  187.9940  177.6220  143.4010 O   0  0  0  0  0  0  0  0  0  0  0  0
  186.7820  177.9980  144.0740 C   0  0  2  0  0  3  0  0  0  0  0  0
  185.2520  178.2620  142.1010 C   0  0  0  0  0  2  0  0  0  0  0  0
  185.8510  178.9610  143.3220 C   0  0  1  0  0  3  0  0  0  0  0  0
  183.4980  179.0660  143.4910 O   0  0  0  0  0  0  0  0  0  0  0  0
  184.6710  179.4520  144.1790 C   0  0  0  0  0  2  0  0  0  0  0  0
  183.8030  178.4030  142.3260 C   0  0  0  0  0  0  0  0  0  0  0  0
  182.9260  177.9650  141.5400 O   0  0  0  0  0  0  0  0  0  0  0  0
  186.9040  178.1990  145.4690 O   0  0  0  0  0  0  0  0  0  0  0  0
  185.5420  176.3920  145.2510 F   0  0  0  0  0  0  0  0  0  0  0  0
  186.2920  177.1350  146.1460 C   0  0  2  0  0  3  0  0  0  0  0  0
  186.0240  178.9020  147.8730 C   0  0  0  0  0  1  0  0  0  0  0  0
  185.3890  177.6820  147.2360 C   0  0  0  0  0  2  0  0  0  0  0  0
  2  1  2  0  0  0  0
  3 25  1  6  0  0  0
  3  4  1  0  0  0  0
  4  2  1  0  0  0  0
  5  9  1  0  0  0  0
  5  3  1  0  0  0  0
  5  4  1  1  0  0  0
  6 17  1  6  0  0  0
  6  7  1  0  0  0  0
  6 10  1  0  0  0  0
  7 23  1  6  0  0  0
  7  9  1  0  0  0  0
  8 11  1  0  0  0  0
  9 11  1  1  0  0  0
 10  8  1  0  0  0  0
 12 17  1  0  0  0  0
 12 19  2  0  0  0  0
 12 21  2  0  0  0  0
 13 18  2  0  0  0  0
 14 16  1  1  0  0  0
 14 20  1  0  0  0  0
 14 15  1  0  0  0  0
 15 12  1  0  0  0  0
 18 17  1  0  0  0  0
 20 13  1  0  0  0  0
 22 23  1  0  0  0  0
 25 24  1  6  0  0  0
 26 27  1  1  0  0  0
 26 31  1  0  0  0  0
 26 25  1  0  0  0  0
 27 29  1  6  0  0  0
 27 28  1  0  0  0  0
 31 30  1  6  0  0  0
 31 32  1  0  0  0  0
 33 35  1  0  0  0  0
 34 39  1  0  0  0  0
 34 38  1  0  0  0  0
 36 33  1  0  0  0  0
 36 35  1  0  0  0  0
 37 36  1  0  0  0  0
 38 36  1  0  0  0  0
 39 32  1  6  0  0  0
 39 40  1  0  0  0  0
 39 37  1  0  0  0  0
 41 45  1  0  0  0  0
 43 48  1  6  0  0  0
 43 44  1  0  0  0  0
 44 42  1  0  0  0  0
 45 40  1  0  0  0  0
 45 42  1  0  0  0  0
 46 43  1  0  0  0  0
 47 46  1  0  0  0  0
 47 41  2  0  0  0  0
 48 49  1  6  0  0  0
 51 50  1  6  0  0  0
 51 48  1  0  0  0  0
 51 53  1  0  0  0  0
 53 52  1  0  0  0  0
 54  2  1  0  0  0  0
 55 54  1  6  0  0  0
 55 62  1  0  0  0  0
 56 60  1  0  0  0  0
 56 57  1  0  0  0  0
 57 55  1  1  0  0  0
 57 59  1  0  0  0  0
 58 59  1  0  0  0  0
 60 58  1  0  0  0  0
 61 60  2  0  0  0  0
 62 64  1  0  0  0  0
 64 63  1  6  0  0  0
 64 66  1  0  0  0  0
 66 65  1  0  0  0  0
M  END
>  <MODEL>
1

>  <REMARK>
 VINA RESULT:      -6.8      0.000      0.000
  Name = 
  20 active torsions:
  status: ('A' for Active; 'I' for Inactive)
    1  A    between atoms: C_6  and  O_8
    2  A    between atoms: C_6  and  C_19
    3  A    between atoms: C_6  and  O_57
    4  A    between atoms: O_8  and  C_65
    5  A    between atoms: C_12  and  C_18
    6  A    between atoms: O_17  and  C_45
    7  A    between atoms: C_18  and  C_23
    8  A    between atoms: C_18  and  C_32
    9  A    between atoms: C_20  and  O_57
   10  A    between atoms: C_23  and  C_52
   11  A    between atoms: C_24  and  N_42
   12  A    between atoms: C_24  and  C_64
   13  A    between atoms: C_26  and  C_65
   14  A    between atoms: N_29  and  C_30
   15  A    between atoms: C_31  and  C_32
   16  A    between atoms: C_34  and  C_40
   17  A    between atoms: C_40  and  C_45
   18  A    between atoms: C_47  and  O_51
   19  A    between atoms: C_52  and  C_64
   20  A    between atoms: C_54  and  C_58
                            x       y       z     vdW  Elec       q    Type
                         _______ _______ _______ _____ _____    ______ ____

>  <TORSDO>
F 20

$$$$
=
 OpenBabel11062421293D

 66 72  0  0  1  0  0  0  0  0999 V2000
  194.2620  173.5570  142.1410 O   0  0  0  0  0  0  0  0  0  0  0  0
  193.6500  172.6840  142.8090 C   0  0  0  0  0  0  0  0  0  0  0  0
  190.8930  173.2600  142.4600 C   0  0  1  0  0  3  0  0  0  0  0  0
  192.2260  172.6870  142.8250 N   0  0  0  0  0  0  0  0  0  0  0  0
  190.9070  172.0840  143.1900 C   0  0  2  0  0  3  0  0  0  0  0  0
  191.4110  171.1450  139.9590 C   0  0  1  0  0  3  0  0  0  0  0  0
  190.1770  171.2180  140.8690 C   0  0  1  0  0  3  0  0  0  0  0  0
  191.6200  168.8650  141.1210 C   0  0  0  0  0  2  0  0  0  0  0  0
  190.5600  170.8500  142.3230 C   0  0  1  0  0  3  0  0  0  0  0  0
  192.0180  169.7320  139.9200 C   0  0  0  0  0  2  0  0  0  0  0  0
  191.5810  169.6900  142.4050 C   0  0  0  0  0  2  0  0  0  0  0  0
  191.8860  173.1100  138.1190 S   0  0  0  0  0  0  0  0  0  0  0  0
  190.0150  171.0370  136.4950 C   0  0  0  0  0  3  0  0  0  0  0  0
  190.8670  173.2150  135.5450 C   0  0  1  0  0  3  0  0  0  0  0  0
  190.8460  173.9120  136.9080 C   0  0  0  0  0  2  0  0  0  0  0  0
  191.9300  173.7740  134.7320 N   0  0  0  0  0  1  0  0  0  0  0  0
  191.1330  171.6230  138.6090 N   0  0  0  0  0  0  0  0  0  0  0  0
  190.0990  170.9920  137.8280 C   0  0  0  0  0  3  0  0  0  0  0  0
  193.2460  172.8280  137.5420 O   0  0  0  0  0  0  0  0  0  0  0  0
  191.0260  171.6950  135.6100 C   0  0  0  0  0  2  0  0  0  0  0  0
  192.0250  174.0220  139.3060 O   0  0  0  0  0  0  0  0  0  0  0  0
  188.4290  172.2630  140.1800 O   0  0  0  0  0  1  0  0  0  0  0  0
  189.5710  172.4770  140.8000 O   0  0  0  0  0  0  0  0  0  0  0  0
  189.4250  174.1690  144.1160 O   0  0  0  0  0  1  0  0  0  0  0  0
  190.5680  174.4460  143.3630 C   0  0  2  0  0  3  0  0  0  0  0  0
  190.3610  175.7750  142.6120 C   0  0  2  0  0  3  0  0  0  0  0  0
  191.3710  176.8950  142.8940 C   0  0  2  0  0  3  0  0  0  0  0  0
  192.6500  176.5350  142.4720 O   0  0  0  0  0  1  0  0  0  0  0  0
  191.3990  177.2270  144.3730 C   0  0  0  0  0  1  0  0  0  0  0  0
  188.2370  175.6270  141.3030 C   0  0  0  0  0  1  0  0  0  0  0  0
  188.9020  176.2390  142.5230 C   0  0  1  0  0  3  0  0  0  0  0  0
  188.0930  175.9050  143.7780 C   0  0  0  0  0  2  0  0  0  0  0  0
  186.0140  176.3940  147.6290 C   0  0  0  0  0  2  0  0  0  0  0  0
  188.6190  177.2950  145.6830 O   0  0  0  0  0  0  0  0  0  0  0  0
  185.5660  177.8460  147.4310 C   0  0  0  0  0  2  0  0  0  0  0  0
  186.6280  177.2450  146.5510 C   0  0  0  0  0  0  0  0  0  0  0  0
  186.3270  176.9620  145.1400 C   0  0  0  0  0  2  0  0  0  0  0  0
  187.9300  177.6810  146.7600 O   0  0  0  0  0  0  0  0  0  0  0  0
  187.7170  177.1390  144.5950 C   0  0  2  0  0  0  0  0  0  0  0  0
  187.7930  178.3520  143.6570 C   0  0  0  0  0  2  0  0  0  0  0  0
  185.7590  179.7530  143.9900 C   0  0  0  0  0  3  0  0  0  0  0  0
  186.1090  178.5440  141.8080 C   0  0  0  0  0  2  0  0  0  0  0  0
  183.6260  178.5550  142.0830 C   0  0  2  0  0  3  0  0  0  0  0  0
  184.8400  177.7130  141.7180 C   0  0  0  0  0  2  0  0  0  0  0  0
  186.4840  178.8050  143.1950 N   0  0  0  0  0  0  0  0  0  0  0  0
  183.5460  178.6460  143.6010 C   0  0  0  0  0  2  0  0  0  0  0  0
  184.4330  179.7240  144.1440 C   0  0  0  0  0  3  0  0  0  0  0  0
  182.3480  177.9270  141.5000 C   0  0  2  0  0  3  0  0  0  0  0  0
  182.4720  177.7910  140.1150 O   0  0  0  0  0  1  0  0  0  0  0  0
  180.7710  179.7250  140.6850 C   0  0  0  0  0  1  0  0  0  0  0  0
  181.0780  178.7340  141.7950 C   0  0  1  0  0  3  0  0  0  0  0  0
  179.3080  177.9250  140.8860 O   0  0  0  0  0  1  0  0  0  0  0  0
  179.9800  177.8980  142.0170 O   0  0  0  0  0  0  0  0  0  0  0  0
  194.3390  171.6950  143.5200 O   0  0  0  0  0  0  0  0  0  0  0  0
  195.4740  171.9220  144.3710 C   0  0  2  0  0  3  0  0  0  0  0  0
  196.8070  170.6790  146.0980 C   0  0  0  0  0  2  0  0  0  0  0  0
  196.3900  170.7150  144.6280 C   0  0  1  0  0  3  0  0  0  0  0  0
  195.7520  168.6270  145.5250 O   0  0  0  0  0  0  0  0  0  0  0  0
  195.7130  169.3670  144.3220 C   0  0  0  0  0  2  0  0  0  0  0  0
  196.3630  169.3430  146.5270 C   0  0  0  0  0  0  0  0  0  0  0  0
  196.5200  168.8910  147.6900 O   0  0  0  0  0  0  0  0  0  0  0  0
  195.2430  172.7840  145.4690 O   0  0  0  0  0  0  0  0  0  0  0  0
  197.2380  173.8610  145.6320 F   0  0  0  0  0  0  0  0  0  0  0  0
  195.9140  173.9960  145.2550 C   0  0  2  0  0  3  0  0  0  0  0  0
  194.8540  176.2440  145.1840 C   0  0  0  0  0  1  0  0  0  0  0  0
  195.2580  175.0880  146.0790 C   0  0  0  0  0  2  0  0  0  0  0  0
  1  2  2  0  0  0  0
  2  4  1  0  0  0  0
  2 54  1  0  0  0  0
  3  4  1  0  0  0  0
  3  5  1  0  0  0  0
  3 25  1  1  0  0  0
  5  4  1  6  0  0  0
  6 17  1  6  0  0  0
  6  7  1  0  0  0  0
  7 23  1  1  0  0  0
  7  9  1  0  0  0  0
  8 11  1  0  0  0  0
  9 11  1  6  0  0  0
  9  5  1  0  0  0  0
 10  6  1  0  0  0  0
 10  8  1  0  0  0  0
 12 17  1  0  0  0  0
 12 21  2  0  0  0  0
 13 18  2  0  0  0  0
 14 16  1  6  0  0  0
 14 20  1  0  0  0  0
 14 15  1  0  0  0  0
 15 12  1  0  0  0  0
 18 17  1  0  0  0  0
 19 12  2  0  0  0  0
 20 13  1  0  0  0  0
 22 23  1  0  0  0  0
 25 24  1  6  0  0  0
 26 31  1  1  0  0  0
 26 27  1  0  0  0  0
 26 25  1  0  0  0  0
 27 29  1  1  0  0  0
 28 27  1  0  0  0  0
 31 30  1  6  0  0  0
 31 32  1  0  0  0  0
 32 39  1  0  0  0  0
 34 38  1  0  0  0  0
 35 33  1  0  0  0  0
 36 38  1  0  0  0  0
 36 35  1  0  0  0  0
 36 33  1  0  0  0  0
 37 36  1  0  0  0  0
 39 40  1  6  0  0  0
 39 37  1  0  0  0  0
 39 34  1  0  0  0  0
 41 47  2  0  0  0  0
 42 45  1  0  0  0  0
 43 48  1  1  0  0  0
 43 46  1  0  0  0  0
 44 42  1  0  0  0  0
 44 43  1  0  0  0  0
 45 40  1  0  0  0  0
 45 41  1  0  0  0  0
 46 47  1  0  0  0  0
 48 49  1  6  0  0  0
 48 51  1  0  0  0  0
 51 50  1  6  0  0  0
 51 53  1  0  0  0  0
 52 53  1  0  0  0  0
 55 54  1  1  0  0  0
 55 62  1  0  0  0  0
 56 60  1  0  0  0  0
 57 55  1  1  0  0  0
 57 56  1  0  0  0  0
 58 60  1  0  0  0  0
 59 57  1  0  0  0  0
 59 58  1  0  0  0  0
 60 61  2  0  0  0  0
 64 62  1  0  0  0  0
 64 63  1  1  0  0  0
 64 66  1  0  0  0  0
 65 66  1  0  0  0  0
M  END
>  <MODEL>
2

>  <REMARK>
 VINA RESULT:      -6.6      2.558      9.615
  Name = 
  20 active torsions:
  status: ('A' for Active; 'I' for Inactive)
    1  A    between atoms: C_6  and  O_8
    2  A    between atoms: C_6  and  C_19
    3  A    between atoms: C_6  and  O_57
    4  A    between atoms: O_8  and  C_65
    5  A    between atoms: C_12  and  C_18
    6  A    between atoms: O_17  and  C_45
    7  A    between atoms: C_18  and  C_23
    8  A    between atoms: C_18  and  C_32
    9  A    between atoms: C_20  and  O_57
   10  A    between atoms: C_23  and  C_52
   11  A    between atoms: C_24  and  N_42
   12  A    between atoms: C_24  and  C_64
   13  A    between atoms: C_26  and  C_65
   14  A    between atoms: N_29  and  C_30
   15  A    between atoms: C_31  and  C_32
   16  A    between atoms: C_34  and  C_40
   17  A    between atoms: C_40  and  C_45
   18  A    between atoms: C_47  and  O_51
   19  A    between atoms: C_52  and  C_64
   20  A    between atoms: C_54  and  C_58
                            x       y       z     vdW  Elec       q    Type
                         _______ _______ _______ _____ _____    ______ ____

>  <TORSDO>
F 20

$$$$
=
 OpenBabel11062421293D

 66 72  0  0  1  0  0  0  0  0999 V2000
  187.9450  173.9610  142.4910 O   0  0  0  0  0  0  0  0  0  0  0  0
  188.4380  174.4900  141.4620 C   0  0  0  0  0  0  0  0  0  0  0  0
  190.7730  172.9860  140.8810 C   0  0  1  0  0  3  0  0  0  0  0  0
  189.6260  173.9470  140.8970 N   0  0  0  0  0  0  0  0  0  0  0  0
  190.6670  173.8750  139.8260 C   0  0  2  0  0  3  0  0  0  0  0  0
  191.7930  171.4730  137.6960 C   0  0  1  0  0  3  0  0  0  0  0  0
  191.2640  172.9020  137.5090 C   0  0  1  0  0  3  0  0  0  0  0  0
  189.2760  170.9750  137.6340 C   0  0  0  0  0  2  0  0  0  0  0  0
  190.1440  173.1970  138.5360 C   0  0  1  0  0  3  0  0  0  0  0  0
  190.6960  170.4160  137.4810 C   0  0  0  0  0  2  0  0  0  0  0  0
  189.2040  171.9910  138.7710 C   0  0  0  0  0  2  0  0  0  0  0  0
  194.4690  170.9140  137.6410 S   0  0  0  0  0  0  0  0  0  0  0  0
  193.6420  170.7960  134.5210 C   0  0  0  0  0  3  0  0  0  0  0  0
  195.9960  170.4670  135.3730 C   0  0  1  0  0  3  0  0  0  0  0  0
  195.7900  171.4220  136.5510 C   0  0  0  0  0  2  0  0  0  0  0  0
  196.9470  169.4360  135.7460 N   0  0  0  0  0  1  0  0  0  0  0  0
  192.9480  171.1950  136.8490 N   0  0  0  0  0  0  0  0  0  0  0  0
  192.8470  171.3790  135.4230 C   0  0  0  0  0  3  0  0  0  0  0  0
  194.6030  169.4570  137.9890 O   0  0  0  0  0  0  0  0  0  0  0  0
  194.7150  169.8080  134.8570 C   0  0  0  0  0  2  0  0  0  0  0  0
  194.5440  171.7370  138.8970 O   0  0  0  0  0  0  0  0  0  0  0  0
  191.9720  174.7730  136.7220 O   0  0  0  0  0  1  0  0  0  0  0  0
  192.2990  173.8400  137.5910 O   0  0  0  0  0  0  0  0  0  0  0  0
  193.1150  173.2010  141.3170 O   0  0  0  0  0  1  0  0  0  0  0  0
  191.8520  173.4430  141.8590 C   0  0  2  0  0  3  0  0  0  0  0  0
  191.7680  172.7810  143.2480 C   0  0  2  0  0  3  0  0  0  0  0  0
  191.2750  171.3290  143.2940 C   0  0  2  0  0  3  0  0  0  0  0  0
  192.2450  170.4870  143.8380 O   0  0  0  0  0  1  0  0  0  0  0  0
  190.9040  170.8480  141.9050 C   0  0  0  0  0  1  0  0  0  0  0  0
  190.1250  172.9430  145.1250 C   0  0  0  0  0  1  0  0  0  0  0  0
  191.2030  173.6820  144.3530 C   0  0  1  0  0  3  0  0  0  0  0  0
  192.2790  174.1880  145.3170 C   0  0  0  0  0  2  0  0  0  0  0  0
  188.3390  175.8160  146.4210 C   0  0  0  0  0  2  0  0  0  0  0  0
  191.4880  175.1100  147.4050 O   0  0  0  0  0  0  0  0  0  0  0  0
  188.7720  177.2730  146.6140 C   0  0  0  0  0  2  0  0  0  0  0  0
  189.7950  176.1710  146.5530 C   0  0  0  0  0  0  0  0  0  0  0  0
  190.6790  176.0660  145.3830 C   0  0  0  0  0  2  0  0  0  0  0  0
  190.4180  175.8330  147.7470 O   0  0  0  0  0  0  0  0  0  0  0  0
  191.8610  175.4460  146.0750 C   0  0  2  0  0  0  0  0  0  0  0  0
  193.0630  176.4010  146.0790 C   0  0  0  0  0  2  0  0  0  0  0  0
  194.6040  176.3030  144.1230 C   0  0  0  0  0  3  0  0  0  0  0  0
  195.1950  175.0910  146.2520 C   0  0  0  0  0  2  0  0  0  0  0  0
  196.1790  173.6520  144.4610 C   0  0  2  0  0  3  0  0  0  0  0  0
  195.3660  173.6680  145.7490 C   0  0  0  0  0  2  0  0  0  0  0  0
  194.2450  175.8400  145.4320 N   0  0  0  0  0  0  0  0  0  0  0  0
  195.2570  174.0260  143.3090 C   0  0  0  0  0  2  0  0  0  0  0  0
  195.1050  175.5100  143.1730 C   0  0  0  0  0  3  0  0  0  0  0  0
  196.8010  172.2620  144.2420 C   0  0  2  0  0  3  0  0  0  0  0  0
  197.2110  172.1260  142.9130 O   0  0  0  0  0  1  0  0  0  0  0  0
  195.6260  170.1990  143.3760 C   0  0  0  0  0  1  0  0  0  0  0  0
  195.8500  171.1060  144.5740 C   0  0  1  0  0  3  0  0  0  0  0  0
  197.6190  170.4740  145.6170 O   0  0  0  0  0  1  0  0  0  0  0  0
  196.3080  170.3630  145.6660 O   0  0  0  0  0  0  0  0  0  0  0  0
  187.8290  175.5910  140.8470 O   0  0  0  0  0  0  0  0  0  0  0  0
  187.6890  176.8960  141.4290 C   0  0  2  0  0  3  0  0  0  0  0  0
  187.5110  178.3870  143.4420 C   0  0  0  0  0  2  0  0  0  0  0  0
  187.4150  176.9460  142.9400 C   0  0  1  0  0  3  0  0  0  0  0  0
  185.3730  177.5020  143.9850 O   0  0  0  0  0  0  0  0  0  0  0  0
  186.0140  176.4340  143.3180 C   0  0  0  0  0  2  0  0  0  0  0  0
  186.1950  178.5990  144.0670 C   0  0  0  0  0  0  0  0  0  0  0  0
  185.8480  179.6730  144.6220 O   0  0  0  0  0  0  0  0  0  0  0  0
  187.0030  177.8420  140.6320 O   0  0  0  0  0  0  0  0  0  0  0  0
  186.9960  177.4960  138.3850 F   0  0  0  0  0  0  0  0  0  0  0  0
  186.3630  177.1810  139.5740 C   0  0  2  0  0  3  0  0  0  0  0  0
  184.5700  178.4690  140.7170 C   0  0  0  0  0  1  0  0  0  0  0  0
  184.9110  177.6170  139.5110 C   0  0  0  0  0  2  0  0  0  0  0  0
  2  1  2  0  0  0  0
  3  4  1  0  0  0  0
  3 25  1  1  0  0  0
  4  2  1  0  0  0  0
  5  3  1  0  0  0  0
  5  4  1  1  0  0  0
  6 17  1  6  0  0  0
  7 23  1  1  0  0  0
  7  6  1  0  0  0  0
  7  9  1  0  0  0  0
  8 11  1  0  0  0  0
  9 11  1  1  0  0  0
  9  5  1  0  0  0  0
 10  8  1  0  0  0  0
 10  6  1  0  0  0  0
 12 19  2  0  0  0  0
 12 21  2  0  0  0  0
 13 20  1  0  0  0  0
 13 18  2  0  0  0  0
 14 16  1  1  0  0  0
 14 15  1  0  0  0  0
 15 12  1  0  0  0  0
 17 12  1  0  0  0  0
 18 17  1  0  0  0  0
 20 14  1  0  0  0  0
 22 23  1  0  0  0  0
 25 24  1  6  0  0  0
 26 25  1  6  0  0  0
 26 27  1  0  0  0  0
 26 31  1  0  0  0  0
 27 29  1  6  0  0  0
 27 28  1  0  0  0  0
 31 30  1  1  0  0  0
 31 32  1  0  0  0  0
 33 36  1  0  0  0  0
 33 35  1  0  0  0  0
 34 38  1  0  0  0  0
 36 35  1  0  0  0  0
 36 38  1  0  0  0  0
 37 39  1  0  0  0  0
 37 36  1  0  0  0  0
 39 32  1  6  0  0  0
 39 40  1  0  0  0  0
 39 34  1  0  0  0  0
 41 45  1  0  0  0  0
 43 48  1  6  0  0  0
 43 44  1  0  0  0  0
 44 42  1  0  0  0  0
 45 40  1  0  0  0  0
 45 42  1  0  0  0  0
 46 43  1  0  0  0  0
 47 46  1  0  0  0  0
 47 41  2  0  0  0  0
 48 49  1  6  0  0  0
 48 51  1  0  0  0  0
 51 50  1  6  0  0  0
 51 53  1  0  0  0  0
 52 53  1  0  0  0  0
 54 55  1  0  0  0  0
 54  2  1  0  0  0  0
 55 62  1  6  0  0  0
 56 60  1  0  0  0  0
 57 55  1  6  0  0  0
 57 59  1  0  0  0  0
 57 56  1  0  0  0  0
 58 60  1  0  0  0  0
 59 58  1  0  0  0  0
 60 61  2  0  0  0  0
 64 63  1  6  0  0  0
 64 62  1  0  0  0  0
 66 64  1  0  0  0  0
 66 65  1  0  0  0  0
M  END
>  <MODEL>
3

>  <REMARK>
 VINA RESULT:      -6.5      2.438      4.127
  Name = 
  20 active torsions:
  status: ('A' for Active; 'I' for Inactive)
    1  A    between atoms: C_6  and  O_8
    2  A    between atoms: C_6  and  C_19
    3  A    between atoms: C_6  and  O_57
    4  A    between atoms: O_8  and  C_65
    5  A    between atoms: C_12  and  C_18
    6  A    between atoms: O_17  and  C_45
    7  A    between atoms: C_18  and  C_23
    8  A    between atoms: C_18  and  C_32
    9  A    between atoms: C_20  and  O_57
   10  A    between atoms: C_23  and  C_52
   11  A    between atoms: C_24  and  N_42
   12  A    between atoms: C_24  and  C_64
   13  A    between atoms: C_26  and  C_65
   14  A    between atoms: N_29  and  C_30
   15  A    between atoms: C_31  and  C_32
   16  A    between atoms: C_34  and  C_40
   17  A    between atoms: C_40  and  C_45
   18  A    between atoms: C_47  and  O_51
   19  A    between atoms: C_52  and  C_64
   20  A    between atoms: C_54  and  C_58
                            x       y       z     vdW  Elec       q    Type
                         _______ _______ _______ _____ _____    ______ ____

>  <TORSDO>
F 20

$$$$
=
 OpenBabel11062421293D

 66 72  0  0  1  0  0  0  0  0999 V2000
  188.8110  176.3540  145.4190 O   0  0  0  0  0  0  0  0  0  0  0  0
  188.5470  176.0180  144.2360 C   0  0  0  0  0  0  0  0  0  0  0  0
  190.9510  174.9150  143.2080 C   0  0  1  0  0  3  0  0  0  0  0  0
  189.5570  175.4070  143.4410 N   0  0  0  0  0  0  0  0  0  0  0  0
  190.0250  174.7170  142.1990 C   0  0  2  0  0  3  0  0  0  0  0  0
  190.6470  172.0430  140.1890 C   0  0  1  0  0  3  0  0  0  0  0  0
  189.3670  172.7430  140.6690 C   0  0  1  0  0  3  0  0  0  0  0  0
  190.3420  170.8450  142.4390 C   0  0  0  0  0  2  0  0  0  0  0  0
  189.5460  173.2480  142.1220 C   0  0  1  0  0  3  0  0  0  0  0  0
  190.9950  170.8180  141.0510 C   0  0  0  0  0  2  0  0  0  0  0  0
  190.3330  172.2590  143.0140 C   0  0  0  0  0  2  0  0  0  0  0  0
  191.4690  172.6650  137.6570 S   0  0  0  0  0  0  0  0  0  0  0  0
  189.7390  169.9740  137.2140 C   0  0  0  0  0  3  0  0  0  0  0  0
  190.8210  171.2830  135.3450 C   0  0  1  0  0  3  0  0  0  0  0  0
  190.6470  172.6190  136.0710 C   0  0  0  0  0  2  0  0  0  0  0  0
  192.0130  171.3310  134.5200 N   0  0  0  0  0  1  0  0  0  0  0  0
  190.5820  171.6780  138.7780 N   0  0  0  0  0  0  0  0  0  0  0  0
  189.6350  170.6830  138.3430 C   0  0  0  0  0  3  0  0  0  0  0  0
  192.8800  172.1590  137.5350 O   0  0  0  0  0  0  0  0  0  0  0  0
  190.8940  170.0640  136.2660 C   0  0  0  0  0  2  0  0  0  0  0  0
  191.4880  174.0890  138.1420 O   0  0  0  0  0  0  0  0  0  0  0  0
  187.9390  173.3290  139.1730 O   0  0  0  0  0  1  0  0  0  0  0  0
  189.0030  173.7800  139.8050 O   0  0  0  0  0  0  0  0  0  0  0  0
  191.1740  177.0280  142.1080 O   0  0  0  0  0  1  0  0  0  0  0  0
  191.8700  176.0860  142.8690 C   0  0  2  0  0  3  0  0  0  0  0  0
  193.1540  175.6860  142.1180 C   0  0  2  0  0  3  0  0  0  0  0  0
  193.0490  174.5010  141.1490 C   0  0  2  0  0  3  0  0  0  0  0  0
  193.4510  173.3150  141.7630 O   0  0  0  0  0  1  0  0  0  0  0  0
  193.8920  174.7460  139.9140 C   0  0  0  0  0  1  0  0  0  0  0  0
  195.5780  176.2920  142.1840 C   0  0  0  0  0  1  0  0  0  0  0  0
  194.4260  175.6990  142.9750 C   0  0  1  0  0  3  0  0  0  0  0  0
  194.2510  176.4620  144.2900 C   0  0  0  0  0  2  0  0  0  0  0  0
  190.8450  175.4160  146.8770 C   0  0  0  0  0  2  0  0  0  0  0  0
  193.5110  174.3190  145.1240 O   0  0  0  0  0  0  0  0  0  0  0  0
  191.6540  174.9550  148.0950 C   0  0  0  0  0  2  0  0  0  0  0  0
  192.3140  175.1160  146.7530 C   0  0  0  0  0  0  0  0  0  0  0  0
  193.2660  176.2160  146.5390 C   0  0  0  0  0  2  0  0  0  0  0  0
  192.6620  173.9480  146.0870 O   0  0  0  0  0  0  0  0  0  0  0  0
  194.1240  175.5440  145.5030 C   0  0  2  0  0  0  0  0  0  0  0  0
  195.5410  175.2920  146.0390 C   0  0  0  0  0  2  0  0  0  0  0  0
  197.4280  174.4040  144.6740 C   0  0  0  0  0  3  0  0  0  0  0  0
  195.8110  172.8130  145.7690 C   0  0  0  0  0  2  0  0  0  0  0  0
  196.4690  171.6310  143.6690 C   0  0  2  0  0  3  0  0  0  0  0  0
  195.3080  172.0250  144.5720 C   0  0  0  0  0  2  0  0  0  0  0  0
  196.2100  174.1670  145.3920 N   0  0  0  0  0  0  0  0  0  0  0  0
  196.8380  172.8350  142.8130 C   0  0  0  0  0  2  0  0  0  0  0  0
  197.7470  173.7790  143.5390 C   0  0  0  0  0  3  0  0  0  0  0  0
  196.0760  170.4300  142.7910 C   0  0  2  0  0  3  0  0  0  0  0  0
  195.5450  170.8780  141.5780 O   0  0  0  0  0  1  0  0  0  0  0  0
  193.8750  169.2150  142.5340 C   0  0  0  0  0  1  0  0  0  0  0  0
  195.0530  169.4970  143.4510 C   0  0  1  0  0  3  0  0  0  0  0  0
  195.9270  168.4900  145.1350 O   0  0  0  0  0  1  0  0  0  0  0  0
  195.6450  168.3000  143.8640 O   0  0  0  0  0  0  0  0  0  0  0  0
  187.2730  176.2150  143.6900 O   0  0  0  0  0  0  0  0  0  0  0  0
  186.7270  177.4810  143.2890 C   0  0  2  0  0  3  0  0  0  0  0  0
  185.0440  179.0840  144.2400 C   0  0  0  0  0  2  0  0  0  0  0  0
  186.4430  178.4910  144.4110 C   0  0  1  0  0  3  0  0  0  0  0  0
  185.2250  178.0910  146.3930 O   0  0  0  0  0  0  0  0  0  0  0  0
  186.4950  177.8640  145.8160 C   0  0  0  0  0  2  0  0  0  0  0  0
  184.4030  178.7740  145.5290 C   0  0  0  0  0  0  0  0  0  0  0  0
  183.2230  179.0970  145.8200 O   0  0  0  0  0  0  0  0  0  0  0  0
  185.7830  177.4250  142.2360 O   0  0  0  0  0  0  0  0  0  0  0  0
  185.1280  178.5540  140.3740 F   0  0  0  0  0  0  0  0  0  0  0  0
  186.2050  178.2590  141.1910 C   0  0  2  0  0  3  0  0  0  0  0  0
  186.6510  176.8100  139.2200 C   0  0  0  0  0  1  0  0  0  0  0  0
  187.2780  177.5520  140.3840 C   0  0  0  0  0  2  0  0  0  0  0  0
  2  1  2  0  0  0  0
  3 25  1  6  0  0  0
  3  4  1  0  0  0  0
  4  2  1  0  0  0  0
  5  3  1  0  0  0  0
  5  4  1  1  0  0  0
  6 17  1  6  0  0  0
  6  7  1  0  0  0  0
  6 10  1  0  0  0  0
  7 23  1  6  0  0  0
  7  9  1  0  0  0  0
  8 11  1  0  0  0  0
  9  5  1  0  0  0  0
  9 11  1  6  0  0  0
 10  8  1  0  0  0  0
 12 21  2  0  0  0  0
 12 17  1  0  0  0  0
 13 18  2  0  0  0  0
 14 16  1  1  0  0  0
 14 15  1  0  0  0  0
 14 20  1  0  0  0  0
 15 12  1  0  0  0  0
 18 17  1  0  0  0  0
 19 12  2  0  0  0  0
 20 13  1  0  0  0  0
 22 23  1  0  0  0  0
 25 24  1  6  0  0  0
 26 27  1  1  0  0  0
 26 25  1  0  0  0  0
 26 31  1  0  0  0  0
 27 29  1  6  0  0  0
 27 28  1  0  0  0  0
 31 30  1  6  0  0  0
 31 32  1  0  0  0  0
 33 35  1  0  0  0  0
 34 39  1  0  0  0  0
 34 38  1  0  0  0  0
 36 33  1  0  0  0  0
 36 35  1  0  0  0  0
 37 36  1  0  0  0  0
 38 36  1  0  0  0  0
 39 32  1  6  0  0  0
 39 40  1  0  0  0  0
 39 37  1  0  0  0  0
 41 45  1  0  0  0  0
 43 48  1  6  0  0  0
 43 44  1  0  0  0  0
 44 42  1  0  0  0  0
 45 42  1  0  0  0  0
 45 40  1  0  0  0  0
 46 47  1  0  0  0  0
 46 43  1  0  0  0  0
 47 41  2  0  0  0  0
 48 49  1  6  0  0  0
 48 51  1  0  0  0  0
 51 50  1  6  0  0  0
 51 53  1  0  0  0  0
 53 52  1  0  0  0  0
 54  2  1  0  0  0  0
 55 62  1  1  0  0  0
 55 54  1  0  0  0  0
 56 57  1  0  0  0  0
 56 60  1  0  0  0  0
 57 55  1  6  0  0  0
 57 59  1  0  0  0  0
 59 58  1  0  0  0  0
 60 61  2  0  0  0  0
 60 58  1  0  0  0  0
 64 63  1  6  0  0  0
 64 62  1  0  0  0  0
 65 66  1  0  0  0  0
 66 64  1  0  0  0  0
M  END
>  <MODEL>
4

>  <REMARK>
 VINA RESULT:      -6.4      1.517      2.392
  Name = 
  20 active torsions:
  status: ('A' for Active; 'I' for Inactive)
    1  A    between atoms: C_6  and  O_8
    2  A    between atoms: C_6  and  C_19
    3  A    between atoms: C_6  and  O_57
    4  A    between atoms: O_8  and  C_65
    5  A    between atoms: C_12  and  C_18
    6  A    between atoms: O_17  and  C_45
    7  A    between atoms: C_18  and  C_23
    8  A    between atoms: C_18  and  C_32
    9  A    between atoms: C_20  and  O_57
   10  A    between atoms: C_23  and  C_52
   11  A    between atoms: C_24  and  N_42
   12  A    between atoms: C_24  and  C_64
   13  A    between atoms: C_26  and  C_65
   14  A    between atoms: N_29  and  C_30
   15  A    between atoms: C_31  and  C_32
   16  A    between atoms: C_34  and  C_40
   17  A    between atoms: C_40  and  C_45
   18  A    between atoms: C_47  and  O_51
   19  A    between atoms: C_52  and  C_64
   20  A    between atoms: C_54  and  C_58
                            x       y       z     vdW  Elec       q    Type
                         _______ _______ _______ _____ _____    ______ ____

>  <TORSDO>
F 20

$$$$
=
 OpenBabel11062421293D

 66 72  0  0  1  0  0  0  0  0999 V2000
  193.8780  174.8480  141.9940 O   0  0  0  0  0  0  0  0  0  0  0  0
  193.8480  174.0260  142.9450 C   0  0  0  0  0  0  0  0  0  0  0  0
  191.0960  173.6080  143.4970 C   0  0  1  0  0  3  0  0  0  0  0  0
  192.5910  173.5900  143.4520 N   0  0  0  0  0  0  0  0  0  0  0  0
  191.7510  172.7190  144.3310 C   0  0  2  0  0  3  0  0  0  0  0  0
  191.9310  171.1820  141.3010 C   0  0  1  0  0  3  0  0  0  0  0  0
  190.9280  171.1360  142.4620 C   0  0  1  0  0  3  0  0  0  0  0  0
  193.0760  169.4110  142.7640 C   0  0  0  0  0  2  0  0  0  0  0  0
  191.6700  171.2610  143.8150 C   0  0  1  0  0  3  0  0  0  0  0  0
  192.9440  170.0270  141.3660 C   0  0  0  0  0  2  0  0  0  0  0  0
  193.0080  170.4850  143.8470 C   0  0  0  0  0  2  0  0  0  0  0  0
  191.3910  172.6830  139.0810 S   0  0  0  0  0  0  0  0  0  0  0  0
  190.0430  169.8340  138.3720 C   0  0  0  0  0  3  0  0  0  0  0  0
  189.9430  171.8590  136.8670 C   0  0  1  0  0  3  0  0  0  0  0  0
  189.9430  172.8360  138.0450 C   0  0  0  0  0  2  0  0  0  0  0  0
  190.5970  172.4750  135.7280 N   0  0  0  0  0  1  0  0  0  0  0  0
  191.2700  171.2140  140.0000 N   0  0  0  0  0  0  0  0  0  0  0  0
  190.3780  170.1460  139.6280 C   0  0  0  0  0  3  0  0  0  0  0  0
  192.6390  172.6610  138.2420 O   0  0  0  0  0  0  0  0  0  0  0  0
  190.6020  170.5100  137.1590 C   0  0  0  0  0  2  0  0  0  0  0  0
  191.4360  173.8620  140.0140 O   0  0  0  0  0  0  0  0  0  0  0  0
  188.8060  171.4830  142.4950 O   0  0  0  0  0  1  0  0  0  0  0  0
  189.9450  172.1220  142.3210 O   0  0  0  0  0  0  0  0  0  0  0  0
  189.4090  174.5180  144.9270 O   0  0  0  0  0  1  0  0  0  0  0  0
  190.6100  174.8210  144.2850 C   0  0  2  0  0  3  0  0  0  0  0  0
  190.4150  176.0910  143.4340 C   0  0  2  0  0  3  0  0  0  0  0  0
  191.0940  177.3720  143.9370 C   0  0  2  0  0  3  0  0  0  0  0  0
  191.6460  178.0950  142.8790 O   0  0  0  0  0  1  0  0  0  0  0  0
  192.1750  177.0420  144.9460 C   0  0  0  0  0  1  0  0  0  0  0  0
  188.7680  175.4120  141.6820 C   0  0  0  0  0  1  0  0  0  0  0  0
  188.9920  176.2910  142.9000 C   0  0  1  0  0  3  0  0  0  0  0  0
  187.9160  176.0080  143.9500 C   0  0  0  0  0  2  0  0  0  0  0  0
  186.0080  176.8930  147.8190 C   0  0  0  0  0  2  0  0  0  0  0  0
  188.1800  177.8920  145.4380 O   0  0  0  0  0  0  0  0  0  0  0  0
  185.1940  178.1100  147.3660 C   0  0  0  0  0  2  0  0  0  0  0  0
  186.3210  177.5840  146.5200 C   0  0  0  0  0  0  0  0  0  0  0  0
  186.0210  176.9120  145.2470 C   0  0  0  0  0  2  0  0  0  0  0  0
  187.4790  178.3490  146.4800 O   0  0  0  0  0  0  0  0  0  0  0  0
  187.2860  177.2770  144.5210 C   0  0  2  0  0  0  0  0  0  0  0  0
  186.9960  178.2160  143.3410 C   0  0  0  0  0  2  0  0  0  0  0  0
  185.8430  177.4300  141.2770 C   0  0  0  0  0  3  0  0  0  0  0  0
  184.5390  177.7140  143.4140 C   0  0  0  0  0  2  0  0  0  0  0  0
  182.8780  178.2690  141.6330 C   0  0  2  0  0  3  0  0  0  0  0  0
  183.4560  178.6860  142.9790 C   0  0  0  0  0  2  0  0  0  0  0  0
  185.7620  177.8870  142.6340 N   0  0  0  0  0  0  0  0  0  0  0  0
  183.8320  178.7290  140.5390 C   0  0  0  0  0  2  0  0  0  0  0  0
  184.9560  177.7600  140.3350 C   0  0  0  0  0  3  0  0  0  0  0  0
  181.4810  178.8850  141.4410 C   0  0  2  0  0  3  0  0  0  0  0  0
  181.0530  179.4780  142.6320 O   0  0  0  0  0  1  0  0  0  0  0  0
  179.3090  177.7330  142.0260 C   0  0  0  0  0  1  0  0  0  0  0  0
  180.4190  177.8710  140.9990 C   0  0  1  0  0  3  0  0  0  0  0  0
  178.5890  178.0150  139.8820 O   0  0  0  0  0  1  0  0  0  0  0  0
  179.8860  178.2000  139.7490 O   0  0  0  0  0  0  0  0  0  0  0  0
  195.0250  173.5130  143.5020 O   0  0  0  0  0  0  0  0  0  0  0  0
  195.8160  174.1580  144.5130 C   0  0  2  0  0  3  0  0  0  0  0  0
  197.5500  174.5510  142.7400 C   0  0  0  0  0  2  0  0  0  0  0  0
  196.9210  175.1040  144.0190 C   0  0  1  0  0  3  0  0  0  0  0  0
  196.7220  176.7420  142.3310 O   0  0  0  0  0  0  0  0  0  0  0  0
  196.4030  176.5160  143.6890 C   0  0  0  0  0  2  0  0  0  0  0  0
  197.3670  175.6580  141.7860 C   0  0  0  0  0  0  0  0  0  0  0  0
  197.7550  175.6240  140.5910 O   0  0  0  0  0  0  0  0  0  0  0  0
  196.1260  173.3580  145.6390 O   0  0  0  0  0  0  0  0  0  0  0  0
  195.4370  171.2810  146.2550 F   0  0  0  0  0  0  0  0  0  0  0  0
  196.0860  172.0060  145.2710 C   0  0  2  0  0  3  0  0  0  0  0  0
  197.6810  170.8990  143.7180 C   0  0  0  0  0  1  0  0  0  0  0  0
  197.5010  171.4860  145.1040 C   0  0  0  0  0  2  0  0  0  0  0  0
  1  2  2  0  0  0  0
  2  4  1  0  0  0  0
  2 54  1  0  0  0  0
  3 25  1  1  0  0  0
  3  5  1  0  0  0  0
  4  3  1  0  0  0  0
  5  4  1  6  0  0  0
  6 17  1  6  0  0  0
  6 10  1  0  0  0  0
  6  7  1  0  0  0  0
  7 23  1  6  0  0  0
  7  9  1  0  0  0  0
  8 11  1  0  0  0  0
  9 11  1  6  0  0  0
  9  5  1  0  0  0  0
 10  8  1  0  0  0  0
 12 17  1  0  0  0  0
 12 21  2  0  0  0  0
 13 18  2  0  0  0  0
 14 16  1  6  0  0  0
 14 20  1  0  0  0  0
 14 15  1  0  0  0  0
 15 12  1  0  0  0  0
 18 17  1  0  0  0  0
 19 12  2  0  0  0  0
 20 13  1  0  0  0  0
 23 22  1  0  0  0  0
 25 24  1  6  0  0  0
 26 31  1  1  0  0  0
 26 27  1  0  0  0  0
 26 25  1  0  0  0  0
 27 29  1  1  0  0  0
 28 27  1  0  0  0  0
 31 30  1  6  0  0  0
 31 32  1  0  0  0  0
 32 39  1  0  0  0  0
 34 38  1  0  0  0  0
 35 33  1  0  0  0  0
 36 35  1  0  0  0  0
 36 33  1  0  0  0  0
 37 36  1  0  0  0  0
 38 36  1  0  0  0  0
 39 40  1  6  0  0  0
 39 37  1  0  0  0  0
 39 34  1  0  0  0  0
 41 45  1  0  0  0  0
 43 48  1  6  0  0  0
 43 44  1  0  0  0  0
 44 42  1  0  0  0  0
 45 40  1  0  0  0  0
 45 42  1  0  0  0  0
 46 43  1  0  0  0  0
 47 46  1  0  0  0  0
 47 41  2  0  0  0  0
 48 49  1  1  0  0  0
 51 48  1  0  0  0  0
 51 50  1  1  0  0  0
 53 52  1  0  0  0  0
 53 51  1  0  0  0  0
 55 54  1  6  0  0  0
 55 62  1  0  0  0  0
 56 57  1  0  0  0  0
 57 55  1  6  0  0  0
 58 59  1  0  0  0  0
 59 57  1  0  0  0  0
 60 58  1  0  0  0  0
 60 56  1  0  0  0  0
 61 60  2  0  0  0  0
 64 62  1  0  0  0  0
 64 63  1  1  0  0  0
 65 66  1  0  0  0  0
 66 64  1  0  0  0  0
M  END
>  <MODEL>
5

>  <REMARK>
 VINA RESULT:      -6.2      2.659      9.672
  Name = 
  20 active torsions:
  status: ('A' for Active; 'I' for Inactive)
    1  A    between atoms: C_6  and  O_8
    2  A    between atoms: C_6  and  C_19
    3  A    between atoms: C_6  and  O_57
    4  A    between atoms: O_8  and  C_65
    5  A    between atoms: C_12  and  C_18
    6  A    between atoms: O_17  and  C_45
    7  A    between atoms: C_18  and  C_23
    8  A    between atoms: C_18  and  C_32
    9  A    between atoms: C_20  and  O_57
   10  A    between atoms: C_23  and  C_52
   11  A    between atoms: C_24  and  N_42
   12  A    between atoms: C_24  and  C_64
   13  A    between atoms: C_26  and  C_65
   14  A    between atoms: N_29  and  C_30
   15  A    between atoms: C_31  and  C_32
   16  A    between atoms: C_34  and  C_40
   17  A    between atoms: C_40  and  C_45
   18  A    between atoms: C_47  and  O_51
   19  A    between atoms: C_52  and  C_64
   20  A    between atoms: C_54  and  C_58
                            x       y       z     vdW  Elec       q    Type
                         _______ _______ _______ _____ _____    ______ ____

>  <TORSDO>
F 20

$$$$
=
 OpenBabel11062421293D

 66 72  0  0  1  0  0  0  0  0999 V2000
  194.1070  172.4560  142.7180 O   0  0  0  0  0  0  0  0  0  0  0  0
  193.2250  171.5600  142.6900 C   0  0  0  0  0  0  0  0  0  0  0  0
  190.8800  172.8370  141.7300 C   0  0  1  0  0  3  0  0  0  0  0  0
  191.9170  171.8810  142.2300 N   0  0  0  0  0  0  0  0  0  0  0  0
  190.5260  171.5030  141.8320 C   0  0  2  0  0  3  0  0  0  0  0  0
  192.3540  171.6110  138.9640 C   0  0  1  0  0  3  0  0  0  0  0  0
  190.8570  171.7400  139.2810 C   0  0  1  0  0  3  0  0  0  0  0  0
  191.7230  169.1230  138.9940 C   0  0  0  0  0  2  0  0  0  0  0  0
  190.4750  170.8030  140.4520 C   0  0  1  0  0  3  0  0  0  0  0  0
  192.7340  170.1820  138.5390 C   0  0  0  0  0  2  0  0  0  0  0  0
  191.1920  169.4330  140.3910 C   0  0  0  0  0  2  0  0  0  0  0  0
  193.7630  173.9110  138.5190 S   0  0  0  0  0  0  0  0  0  0  0  0
  192.8250  173.0530  135.5500 C   0  0  0  0  0  3  0  0  0  0  0  0
  194.1370  175.1470  136.0680 C   0  0  1  0  0  3  0  0  0  0  0  0
  193.4870  175.3110  137.4440 C   0  0  0  0  0  2  0  0  0  0  0  0
  195.4880  175.6750  136.1050 N   0  0  0  0  0  1  0  0  0  0  0  0
  192.7950  172.5790  137.9660 N   0  0  0  0  0  0  0  0  0  0  0  0
  192.2440  172.5300  136.6350 C   0  0  0  0  0  3  0  0  0  0  0  0
  195.2150  173.5230  138.5180 O   0  0  0  0  0  0  0  0  0  0  0  0
  194.1700  173.7090  135.5480 C   0  0  0  0  0  2  0  0  0  0  0  0
  193.3480  174.2930  139.9140 O   0  0  0  0  0  0  0  0  0  0  0  0
  189.9200  173.4870  138.4500 O   0  0  0  0  0  1  0  0  0  0  0  0
  190.5100  173.0680  139.5500 O   0  0  0  0  0  0  0  0  0  0  0  0
  188.9600  173.2860  143.0850 O   0  0  0  0  0  1  0  0  0  0  0  0
  190.2980  173.6340  142.8950 C   0  0  2  0  0  3  0  0  0  0  0  0
  190.3980  175.1630  142.7280 C   0  0  2  0  0  3  0  0  0  0  0  0
  191.3620  175.9000  143.6670 C   0  0  2  0  0  3  0  0  0  0  0  0
  192.1050  176.8550  142.9730 O   0  0  0  0  0  1  0  0  0  0  0  0
  192.2990  174.9210  144.3460 C   0  0  0  0  0  1  0  0  0  0  0  0
  188.4110  175.3680  141.2270 C   0  0  0  0  0  1  0  0  0  0  0  0
  189.0560  175.8710  142.5050 C   0  0  1  0  0  3  0  0  0  0  0  0
  188.0900  175.6980  143.6790 C   0  0  0  0  0  2  0  0  0  0  0  0
  186.0860  176.6040  147.4940 C   0  0  0  0  0  2  0  0  0  0  0  0
  188.6760  177.2540  145.4310 O   0  0  0  0  0  0  0  0  0  0  0  0
  185.6650  178.0390  147.1620 C   0  0  0  0  0  2  0  0  0  0  0  0
  186.6990  177.3320  146.3290 C   0  0  0  0  0  0  0  0  0  0  0  0
  186.3690  176.9200  144.9570 C   0  0  0  0  0  2  0  0  0  0  0  0
  188.0130  177.7580  146.4760 O   0  0  0  0  0  0  0  0  0  0  0  0
  187.7530  177.0130  144.3770 C   0  0  2  0  0  0  0  0  0  0  0  0
  187.8370  178.1270  143.3240 C   0  0  0  0  0  2  0  0  0  0  0  0
  185.9560  179.6930  143.7910 C   0  0  0  0  0  3  0  0  0  0  0  0
  186.0240  178.4240  141.6160 C   0  0  0  0  0  2  0  0  0  0  0  0
  183.5820  178.6400  142.0950 C   0  0  2  0  0  3  0  0  0  0  0  0
  184.6910  177.6960  141.6510 C   0  0  0  0  0  2  0  0  0  0  0  0
  186.5340  178.6760  142.9610 N   0  0  0  0  0  0  0  0  0  0  0  0
  183.6370  178.7620  143.6120 C   0  0  0  0  0  2  0  0  0  0  0  0
  184.6500  179.7740  144.0540 C   0  0  0  0  0  3  0  0  0  0  0  0
  182.2140  178.1060  141.6340 C   0  0  2  0  0  3  0  0  0  0  0  0
  182.2210  177.9080  140.2510 O   0  0  0  0  0  1  0  0  0  0  0  0
  180.6320  179.8910  140.7990 C   0  0  0  0  0  1  0  0  0  0  0  0
  181.0450  179.0340  141.9840 C   0  0  1  0  0  3  0  0  0  0  0  0
  179.0360  178.4250  141.5250 O   0  0  0  0  0  1  0  0  0  0  0  0
  179.9480  178.3150  142.4680 O   0  0  0  0  0  0  0  0  0  0  0  0
  193.5080  170.2460  143.0820 O   0  0  0  0  0  0  0  0  0  0  0  0
  194.7190  169.8130  143.7210 C   0  0  2  0  0  3  0  0  0  0  0  0
  195.0290  169.5350  146.1980 C   0  0  0  0  0  2  0  0  0  0  0  0
  195.0940  170.5220  145.0320 C   0  0  1  0  0  3  0  0  0  0  0  0
  197.2020  170.4960  146.0950 O   0  0  0  0  0  0  0  0  0  0  0  0
  196.5190  171.1030  145.0170 C   0  0  0  0  0  2  0  0  0  0  0  0
  196.3840  169.6200  146.7680 C   0  0  0  0  0  0  0  0  0  0  0  0
  196.7660  168.9610  147.7690 O   0  0  0  0  0  0  0  0  0  0  0  0
  195.7850  169.4990  142.8460 O   0  0  0  0  0  0  0  0  0  0  0  0
  195.4300  168.1670  141.0370 F   0  0  0  0  0  0  0  0  0  0  0  0
  195.3060  169.4550  141.5290 C   0  0  2  0  0  3  0  0  0  0  0  0
  197.0080  169.6310  139.7260 C   0  0  0  0  0  1  0  0  0  0  0  0
  196.1100  170.4100  140.6670 C   0  0  0  0  0  2  0  0  0  0  0  0
  2  1  2  0  0  0  0
  2 54  1  0  0  0  0
  3  5  1  0  0  0  0
  3  4  1  0  0  0  0
  3 25  1  1  0  0  0
  4  2  1  0  0  0  0
  5  4  1  1  0  0  0
  6 17  1  6  0  0  0
  6  7  1  0  0  0  0
  7 23  1  1  0  0  0
  7  9  1  0  0  0  0
  8 11  1  0  0  0  0
  9 11  1  1  0  0  0
  9  5  1  0  0  0  0
 10  6  1  0  0  0  0
 10  8  1  0  0  0  0
 12 21  2  0  0  0  0
 13 18  2  0  0  0  0
 14 16  1  1  0  0  0
 14 15  1  0  0  0  0
 15 12  1  0  0  0  0
 17 12  1  0  0  0  0
 18 17  1  0  0  0  0
 19 12  2  0  0  0  0
 20 13  1  0  0  0  0
 20 14  1  0  0  0  0
 22 23  1  0  0  0  0
 25 24  1  6  0  0  0
 26 31  1  1  0  0  0
 26 25  1  0  0  0  0
 26 27  1  0  0  0  0
 27 29  1  6  0  0  0
 28 27  1  0  0  0  0
 31 30  1  6  0  0  0
 31 32  1  0  0  0  0
 32 39  1  0  0  0  0
 34 38  1  0  0  0  0
 35 33  1  0  0  0  0
 36 38  1  0  0  0  0
 36 35  1  0  0  0  0
 36 33  1  0  0  0  0
 37 36  1  0  0  0  0
 39 40  1  6  0  0  0
 39 37  1  0  0  0  0
 39 34  1  0  0  0  0
 41 47  2  0  0  0  0
 42 44  1  0  0  0  0
 42 45  1  0  0  0  0
 43 48  1  1  0  0  0
 43 46  1  0  0  0  0
 44 43  1  0  0  0  0
 45 40  1  0  0  0  0
 45 41  1  0  0  0  0
 46 47  1  0  0  0  0
 48 49  1  6  0  0  0
 48 51  1  0  0  0  0
 51 50  1  6  0  0  0
 51 53  1  0  0  0  0
 52 53  1  0  0  0  0
 54 55  1  0  0  0  0
 55 62  1  6  0  0  0
 56 60  1  0  0  0  0
 57 55  1  6  0  0  0
 57 56  1  0  0  0  0
 58 60  1  0  0  0  0
 59 57  1  0  0  0  0
 59 58  1  0  0  0  0
 60 61  2  0  0  0  0
 64 63  1  6  0  0  0
 64 62  1  0  0  0  0
 65 66  1  0  0  0  0
 66 64  1  0  0  0  0
M  END
>  <MODEL>
6

>  <REMARK>
 VINA RESULT:      -5.6      2.907     10.132
  Name = 
  20 active torsions:
  status: ('A' for Active; 'I' for Inactive)
    1  A    between atoms: C_6  and  O_8
    2  A    between atoms: C_6  and  C_19
    3  A    between atoms: C_6  and  O_57
    4  A    between atoms: O_8  and  C_65
    5  A    between atoms: C_12  and  C_18
    6  A    between atoms: O_17  and  C_45
    7  A    between atoms: C_18  and  C_23
    8  A    between atoms: C_18  and  C_32
    9  A    between atoms: C_20  and  O_57
   10  A    between atoms: C_23  and  C_52
   11  A    between atoms: C_24  and  N_42
   12  A    between atoms: C_24  and  C_64
   13  A    between atoms: C_26  and  C_65
   14  A    between atoms: N_29  and  C_30
   15  A    between atoms: C_31  and  C_32
   16  A    between atoms: C_34  and  C_40
   17  A    between atoms: C_40  and  C_45
   18  A    between atoms: C_47  and  O_51
   19  A    between atoms: C_52  and  C_64
   20  A    between atoms: C_54  and  C_58
                            x       y       z     vdW  Elec       q    Type
                         _______ _______ _______ _____ _____    ______ ____

>  <TORSDO>
F 20

$$$$
=
 OpenBabel11062421293D

 66 72  0  0  1  0  0  0  0  0999 V2000
  187.9270  174.2410  142.6890 O   0  0  0  0  0  0  0  0  0  0  0  0
  188.4710  174.8380  141.7260 C   0  0  0  0  0  0  0  0  0  0  0  0
  190.6750  173.2160  140.9770 C   0  0  1  0  0  3  0  0  0  0  0  0
  189.6140  174.2630  141.1020 N   0  0  0  0  0  0  0  0  0  0  0  0
  190.6550  174.2240  140.0280 C   0  0  2  0  0  3  0  0  0  0  0  0
  191.4950  171.8660  137.7230 C   0  0  1  0  0  3  0  0  0  0  0  0
  191.1890  173.3690  137.6500 C   0  0  1  0  0  3  0  0  0  0  0  0
  188.9350  171.7580  137.5540 C   0  0  0  0  0  2  0  0  0  0  0  0
  190.0870  173.7420  138.6710 C   0  0  1  0  0  3  0  0  0  0  0  0
  190.2630  171.0080  137.3880 C   0  0  0  0  0  2  0  0  0  0  0  0
  188.9710  172.6750  138.7750 C   0  0  0  0  0  2  0  0  0  0  0  0
  194.0850  170.9930  137.6880 S   0  0  0  0  0  0  0  0  0  0  0  0
  193.3220  171.1170  134.5520 C   0  0  0  0  0  3  0  0  0  0  0  0
  195.6000  170.4680  135.4290 C   0  0  1  0  0  3  0  0  0  0  0  0
  195.4820  171.3870  136.6470 C   0  0  0  0  0  2  0  0  0  0  0  0
  196.4120  169.3160  135.7680 N   0  0  0  0  0  1  0  0  0  0  0  0
  192.6280  171.4900  136.8840 N   0  0  0  0  0  0  0  0  0  0  0  0
  192.5820  171.7500  135.4680 C   0  0  0  0  0  3  0  0  0  0  0  0
  194.0360  169.5160  137.9680 O   0  0  0  0  0  0  0  0  0  0  0  0
  194.2620  169.9930  134.8590 C   0  0  0  0  0  2  0  0  0  0  0  0
  194.2290  171.7430  138.9840 O   0  0  0  0  0  0  0  0  0  0  0  0
  192.3720  174.9600  136.8190 O   0  0  0  0  0  1  0  0  0  0  0  0
  192.3470  174.1310  137.8410 O   0  0  0  0  0  0  0  0  0  0  0  0
  192.8580  174.1070  141.3830 O   0  0  0  0  0  1  0  0  0  0  0  0
  191.7810  173.4660  141.9990 C   0  0  2  0  0  3  0  0  0  0  0  0
  192.2910  172.1940  142.7030 C   0  0  2  0  0  3  0  0  0  0  0  0
  191.2700  171.4040  143.5310 C   0  0  2  0  0  3  0  0  0  0  0  0
  190.5210  170.5500  142.7210 O   0  0  0  0  0  1  0  0  0  0  0  0
  190.3410  172.3460  144.2720 C   0  0  0  0  0  1  0  0  0  0  0  0
  194.6700  171.4280  142.6620 C   0  0  0  0  0  1  0  0  0  0  0  0
  193.6710  172.3350  143.3570 C   0  0  1  0  0  3  0  0  0  0  0  0
  194.1870  173.7760  143.3530 C   0  0  0  0  0  2  0  0  0  0  0  0
  190.7200  175.4460  145.4930 C   0  0  0  0  0  2  0  0  0  0  0  0
  193.5120  173.5590  145.6630 O   0  0  0  0  0  0  0  0  0  0  0  0
  191.4930  176.3940  146.4160 C   0  0  0  0  0  2  0  0  0  0  0  0
  192.2050  175.2950  145.6760 C   0  0  0  0  0  0  0  0  0  0  0  0
  193.1130  175.6350  144.5700 C   0  0  0  0  0  2  0  0  0  0  0  0
  192.6380  174.2140  146.4320 O   0  0  0  0  0  0  0  0  0  0  0  0
  194.0490  174.4660  144.7090 C   0  0  2  0  0  0  0  0  0  0  0  0
  195.4500  174.9270  145.1350 C   0  0  0  0  0  2  0  0  0  0  0  0
  197.4610  173.9350  144.0470 C   0  0  0  0  0  3  0  0  0  0  0  0
  196.5950  172.9690  146.2070 C   0  0  0  0  0  2  0  0  0  0  0  0
  197.5360  170.9880  145.0100 C   0  0  2  0  0  3  0  0  0  0  0  0
  196.3570  171.5210  145.8130 C   0  0  0  0  0  2  0  0  0  0  0  0
  196.4510  173.8670  145.0630 N   0  0  0  0  0  0  0  0  0  0  0  0
  197.3960  171.4770  143.5750 C   0  0  0  0  0  2  0  0  0  0  0  0
  197.9310  172.8650  143.4030 C   0  0  0  0  0  3  0  0  0  0  0  0
  197.5670  169.4510  145.0690 C   0  0  2  0  0  3  0  0  0  0  0  0
  197.2290  168.9180  143.8220 O   0  0  0  0  0  1  0  0  0  0  0  0
  197.1930  168.9750  147.5220 C   0  0  0  0  0  1  0  0  0  0  0  0
  196.6210  168.8580  146.1200 C   0  0  1  0  0  3  0  0  0  0  0  0
  194.6390  168.7870  146.9440 O   0  0  0  0  0  1  0  0  0  0  0  0
  195.3550  169.4490  146.0610 O   0  0  0  0  0  0  0  0  0  0  0  0
  187.9640  176.0490  141.2390 O   0  0  0  0  0  0  0  0  0  0  0  0
  187.6040  177.1820  142.0450 C   0  0  2  0  0  3  0  0  0  0  0  0
  187.4970  178.1760  144.3480 C   0  0  0  0  0  2  0  0  0  0  0  0
  187.3000  176.9030  143.5250 C   0  0  1  0  0  3  0  0  0  0  0  0
  185.2830  177.3670  144.6610 O   0  0  0  0  0  0  0  0  0  0  0  0
  185.8540  176.4340  143.7660 C   0  0  0  0  0  2  0  0  0  0  0  0
  186.1870  178.3440  145.0000 C   0  0  0  0  0  0  0  0  0  0  0  0
  185.9120  179.2850  145.7880 O   0  0  0  0  0  0  0  0  0  0  0  0
  186.7870  178.1440  141.4030 O   0  0  0  0  0  0  0  0  0  0  0  0
  186.8610  177.7510  139.1650 F   0  0  0  0  0  0  0  0  0  0  0  0
  186.1290  177.5440  140.3200 C   0  0  2  0  0  3  0  0  0  0  0  0
  184.0770  178.2720  141.5210 C   0  0  0  0  0  1  0  0  0  0  0  0
  184.7490  178.1570  140.1670 C   0  0  0  0  0  2  0  0  0  0  0  0
  2  1  2  0  0  0  0
  3  4  1  0  0  0  0
  3 25  1  1  0  0  0
  4  2  1  0  0  0  0
  5  3  1  0  0  0  0
  5  4  1  1  0  0  0
  6 17  1  6  0  0  0
  7  6  1  0  0  0  0
  7 23  1  1  0  0  0
  7  9  1  0  0  0  0
  8 11  1  0  0  0  0
  9 11  1  1  0  0  0
  9  5  1  0  0  0  0
 10  8  1  0  0  0  0
 10  6  1  0  0  0  0
 12 19  2  0  0  0  0
 12 21  2  0  0  0  0
 13 20  1  0  0  0  0
 13 18  2  0  0  0  0
 14 16  1  1  0  0  0
 14 15  1  0  0  0  0
 15 12  1  0  0  0  0
 17 12  1  0  0  0  0
 18 17  1  0  0  0  0
 20 14  1  0  0  0  0
 22 23  1  0  0  0  0
 25 24  1  6  0  0  0
 26 25  1  1  0  0  0
 26 31  1  0  0  0  0
 26 27  1  0  0  0  0
 27 29  1  6  0  0  0
 28 27  1  0  0  0  0
 31 30  1  6  0  0  0
 32 31  1  0  0  0  0
 33 36  1  0  0  0  0
 33 35  1  0  0  0  0
 34 38  1  0  0  0  0
 36 35  1  0  0  0  0
 36 38  1  0  0  0  0
 37 39  1  0  0  0  0
 37 36  1  0  0  0  0
 39 32  1  6  0  0  0
 39 40  1  0  0  0  0
 39 34  1  0  0  0  0
 41 45  1  0  0  0  0
 43 48  1  6  0  0  0
 43 44  1  0  0  0  0
 44 42  1  0  0  0  0
 45 40  1  0  0  0  0
 45 42  1  0  0  0  0
 46 43  1  0  0  0  0
 47 46  1  0  0  0  0
 47 41  2  0  0  0  0
 48 49  1  6  0  0  0
 48 51  1  0  0  0  0
 51 50  1  1  0  0  0
 53 51  1  0  0  0  0
 53 52  1  0  0  0  0
 54  2  1  0  0  0  0
 55 54  1  6  0  0  0
 56 60  1  0  0  0  0
 57 55  1  6  0  0  0
 57 59  1  0  0  0  0
 57 56  1  0  0  0  0
 58 60  1  0  0  0  0
 59 58  1  0  0  0  0
 60 61  2  0  0  0  0
 62 55  1  0  0  0  0
 64 63  1  6  0  0  0
 64 62  1  0  0  0  0
 66 64  1  0  0  0  0
 66 65  1  0  0  0  0
M  END
>  <MODEL>
7

>  <REMARK>
 VINA RESULT:      -5.5      2.204      3.600
  Name = 
  20 active torsions:
  status: ('A' for Active; 'I' for Inactive)
    1  A    between atoms: C_6  and  O_8
    2  A    between atoms: C_6  and  C_19
    3  A    between atoms: C_6  and  O_57
    4  A    between atoms: O_8  and  C_65
    5  A    between atoms: C_12  and  C_18
    6  A    between atoms: O_17  and  C_45
    7  A    between atoms: C_18  and  C_23
    8  A    between atoms: C_18  and  C_32
    9  A    between atoms: C_20  and  O_57
   10  A    between atoms: C_23  and  C_52
   11  A    between atoms: C_24  and  N_42
   12  A    between atoms: C_24  and  C_64
   13  A    between atoms: C_26  and  C_65
   14  A    between atoms: N_29  and  C_30
   15  A    between atoms: C_31  and  C_32
   16  A    between atoms: C_34  and  C_40
   17  A    between atoms: C_40  and  C_45
   18  A    between atoms: C_47  and  O_51
   19  A    between atoms: C_52  and  C_64
   20  A    between atoms: C_54  and  C_58
                            x       y       z     vdW  Elec       q    Type
                         _______ _______ _______ _____ _____    ______ ____

>  <TORSDO>
F 20

$$$$
=
 OpenBabel11062421293D

 66 72  0  0  1  0  0  0  0  0999 V2000
  193.6760  175.3190  141.9610 O   0  0  0  0  0  0  0  0  0  0  0  0
  193.9610  174.5880  142.9440 C   0  0  0  0  0  0  0  0  0  0  0  0
  191.4780  173.5980  143.8960 C   0  0  1  0  0  3  0  0  0  0  0  0
  192.9170  173.9180  143.6420 N   0  0  0  0  0  0  0  0  0  0  0  0
  192.4240  172.9490  144.6700 C   0  0  2  0  0  3  0  0  0  0  0  0
  193.3110  171.3370  141.8080 C   0  0  1  0  0  3  0  0  0  0  0  0
  192.1440  171.1940  142.7950 C   0  0  1  0  0  3  0  0  0  0  0  0
  194.4230  169.8040  143.5420 C   0  0  0  0  0  2  0  0  0  0  0  0
  192.6260  171.4760  144.2390 C   0  0  1  0  0  3  0  0  0  0  0  0
  194.4450  170.3410  142.1060 C   0  0  0  0  0  2  0  0  0  0  0  0
  194.0320  170.9000  144.5310 C   0  0  0  0  0  2  0  0  0  0  0  0
  192.5890  169.6260  139.8020 S   0  0  0  0  0  0  0  0  0  0  0  0
  192.2030  172.5330  138.4470 C   0  0  0  0  0  3  0  0  0  0  0  0
  191.8200  170.3480  137.2400 C   0  0  1  0  0  3  0  0  0  0  0  0
  192.9020  169.6210  138.0430 C   0  0  0  0  0  2  0  0  0  0  0  0
  190.7780  169.4090  136.8710 N   0  0  0  0  0  1  0  0  0  0  0  0
  192.8790  171.2240  140.4190 N   0  0  0  0  0  0  0  0  0  0  0  0
  192.9230  172.3820  139.5630 C   0  0  0  0  0  3  0  0  0  0  0  0
  191.1700  169.2180  140.0860 O   0  0  0  0  0  0  0  0  0  0  0  0
  191.1920  171.5450  137.9570 C   0  0  0  0  0  2  0  0  0  0  0  0
  193.5300  168.6520  140.4550 O   0  0  0  0  0  0  0  0  0  0  0  0
  190.0880  171.1970  142.1670 O   0  0  0  0  0  1  0  0  0  0  0  0
  191.0760  172.0240  142.4380 O   0  0  0  0  0  0  0  0  0  0  0  0
  189.5760  174.3110  145.1590 O   0  0  0  0  0  1  0  0  0  0  0  0
  190.8220  174.7260  144.6870 C   0  0  2  0  0  3  0  0  0  0  0  0
  190.6460  176.0350  143.8940 C   0  0  2  0  0  3  0  0  0  0  0  0
  191.1690  177.3190  144.5520 C   0  0  2  0  0  3  0  0  0  0  0  0
  191.2890  178.3480  143.6170 O   0  0  0  0  0  1  0  0  0  0  0  0
  192.5120  177.0720  145.2110 C   0  0  0  0  0  1  0  0  0  0  0  0
  189.2250  175.2710  141.9850 C   0  0  0  0  0  1  0  0  0  0  0  0
  189.2880  176.1830  143.1980 C   0  0  1  0  0  3  0  0  0  0  0  0
  188.1070  175.8940  144.1270 C   0  0  0  0  0  2  0  0  0  0  0  0
  185.2650  176.5500  147.4260 C   0  0  0  0  0  2  0  0  0  0  0  0
  188.1250  177.5150  145.9180 O   0  0  0  0  0  0  0  0  0  0  0  0
  184.7490  177.9210  146.9750 C   0  0  0  0  0  2  0  0  0  0  0  0
  186.0110  177.3470  146.3910 C   0  0  0  0  0  0  0  0  0  0  0  0
  186.0240  176.8940  144.9930 C   0  0  0  0  0  2  0  0  0  0  0  0
  187.2050  177.9340  146.7910 O   0  0  0  0  0  0  0  0  0  0  0  0
  187.4760  177.1580  144.7050 C   0  0  2  0  0  0  0  0  0  0  0  0
  187.6380  178.2720  143.6610 C   0  0  0  0  0  2  0  0  0  0  0  0
  185.6290  179.7270  143.8930 C   0  0  0  0  0  3  0  0  0  0  0  0
  186.0540  178.5050  141.7310 C   0  0  0  0  0  2  0  0  0  0  0  0
  183.5610  178.5830  141.8840 C   0  0  2  0  0  3  0  0  0  0  0  0
  184.7690  177.7080  141.5790 C   0  0  0  0  0  2  0  0  0  0  0  0
  186.3670  178.7580  143.1350 N   0  0  0  0  0  0  0  0  0  0  0  0
  183.4090  178.6790  143.3960 C   0  0  0  0  0  2  0  0  0  0  0  0
  184.2970  179.7340  143.9810 C   0  0  0  0  0  3  0  0  0  0  0  0
  182.2980  177.9870  141.2390 C   0  0  2  0  0  3  0  0  0  0  0  0
  182.6130  177.4300  139.9970 O   0  0  0  0  0  1  0  0  0  0  0  0
  180.0580  178.4550  140.1660 C   0  0  0  0  0  1  0  0  0  0  0  0
  181.1720  179.0090  141.0380 C   0  0  1  0  0  3  0  0  0  0  0  0
  179.8340  178.4970  142.6390 O   0  0  0  0  0  1  0  0  0  0  0  0
  180.6570  179.4520  142.2600 O   0  0  0  0  0  0  0  0  0  0  0  0
  195.2870  174.4020  143.3530 O   0  0  0  0  0  0  0  0  0  0  0  0
  196.4130  174.2480  142.4750 C   0  0  2  0  0  3  0  0  0  0  0  0
  197.4320  173.2110  144.5230 C   0  0  0  0  0  2  0  0  0  0  0  0
  197.6020  173.4420  143.0210 C   0  0  1  0  0  3  0  0  0  0  0  0
  197.6630  171.1170  143.4220 O   0  0  0  0  0  0  0  0  0  0  0  0
  197.7420  172.0550  142.3680 C   0  0  0  0  0  2  0  0  0  0  0  0
  197.4940  171.7440  144.6330 C   0  0  0  0  0  0  0  0  0  0  0  0
  197.4010  171.1180  145.7190 O   0  0  0  0  0  0  0  0  0  0  0  0
  196.7270  175.3830  141.6900 O   0  0  0  0  0  0  0  0  0  0  0  0
  197.6820  176.0520  139.7380 F   0  0  0  0  0  0  0  0  0  0  0  0
  197.1850  174.9630  140.4330 C   0  0  2  0  0  3  0  0  0  0  0  0
  196.5170  173.1290  138.8930 C   0  0  0  0  0  1  0  0  0  0  0  0
  196.0350  174.3460  139.6580 C   0  0  0  0  0  2  0  0  0  0  0  0
  1  2  2  0  0  0  0
  2 54  1  0  0  0  0
  2  4  1  0  0  0  0
  3  5  1  0  0  0  0
  3 25  1  1  0  0  0
  4  3  1  0  0  0  0
  5  4  1  6  0  0  0
  6 17  1  6  0  0  0
  6 10  1  0  0  0  0
  6  7  1  0  0  0  0
  7 23  1  6  0  0  0
  7  9  1  0  0  0  0
  8 11  1  0  0  0  0
  9 11  1  6  0  0  0
  9  5  1  0  0  0  0
 10  8  1  0  0  0  0
 12 19  2  0  0  0  0
 12 17  1  0  0  0  0
 12 21  2  0  0  0  0
 13 18  2  0  0  0  0
 14 16  1  1  0  0  0
 14 20  1  0  0  0  0
 14 15  1  0  0  0  0
 15 12  1  0  0  0  0
 18 17  1  0  0  0  0
 20 13  1  0  0  0  0
 22 23  1  0  0  0  0
 25 24  1  6  0  0  0
 26 31  1  1  0  0  0
 26 27  1  0  0  0  0
 26 25  1  0  0  0  0
 27 29  1  6  0  0  0
 28 27  1  0  0  0  0
 31 30  1  6  0  0  0
 31 32  1  0  0  0  0
 32 39  1  0  0  0  0
 34 38  1  0  0  0  0
 35 33  1  0  0  0  0
 36 38  1  0  0  0  0
 36 35  1  0  0  0  0
 36 33  1  0  0  0  0
 37 36  1  0  0  0  0
 39 40  1  6  0  0  0
 39 37  1  0  0  0  0
 39 34  1  0  0  0  0
 41 47  2  0  0  0  0
 42 45  1  0  0  0  0
 43 48  1  6  0  0  0
 43 46  1  0  0  0  0
 44 42  1  0  0  0  0
 44 43  1  0  0  0  0
 45 40  1  0  0  0  0
 45 41  1  0  0  0  0
 46 47  1  0  0  0  0
 48 49  1  6  0  0  0
 51 50  1  6  0  0  0
 51 48  1  0  0  0  0
 51 53  1  0  0  0  0
 53 52  1  0  0  0  0
 55 62  1  1  0  0  0
 55 54  1  0  0  0  0
 56 60  1  0  0  0  0
 57 55  1  6  0  0  0
 57 56  1  0  0  0  0
 58 60  1  0  0  0  0
 59 57  1  0  0  0  0
 59 58  1  0  0  0  0
 60 61  2  0  0  0  0
 64 63  1  6  0  0  0
 64 62  1  0  0  0  0
 65 66  1  0  0  0  0
 66 64  1  0  0  0  0
M  END
>  <MODEL>
8

>  <REMARK>
 VINA RESULT:      -5.4      2.726      9.854
  Name = 
  20 active torsions:
  status: ('A' for Active; 'I' for Inactive)
    1  A    between atoms: C_6  and  O_8
    2  A    between atoms: C_6  and  C_19
    3  A    between atoms: C_6  and  O_57
    4  A    between atoms: O_8  and  C_65
    5  A    between atoms: C_12  and  C_18
    6  A    between atoms: O_17  and  C_45
    7  A    between atoms: C_18  and  C_23
    8  A    between atoms: C_18  and  C_32
    9  A    between atoms: C_20  and  O_57
   10  A    between atoms: C_23  and  C_52
   11  A    between atoms: C_24  and  N_42
   12  A    between atoms: C_24  and  C_64
   13  A    between atoms: C_26  and  C_65
   14  A    between atoms: N_29  and  C_30
   15  A    between atoms: C_31  and  C_32
   16  A    between atoms: C_34  and  C_40
   17  A    between atoms: C_40  and  C_45
   18  A    between atoms: C_47  and  O_51
   19  A    between atoms: C_52  and  C_64
   20  A    between atoms: C_54  and  C_58
                            x       y       z     vdW  Elec       q    Type
                         _______ _______ _______ _____ _____    ______ ____

>  <TORSDO>
F 20

$$$$
=
 OpenBabel11062421293D

 66 72  0  0  1  0  0  0  0  0999 V2000
  189.0740  176.7550  141.6740 O   0  0  0  0  0  0  0  0  0  0  0  0
  189.1020  175.7420  142.4200 C   0  0  0  0  0  0  0  0  0  0  0  0
  191.4050  174.2840  141.6310 C   0  0  1  0  0  3  0  0  0  0  0  0
  190.1640  174.8040  142.2850 N   0  0  0  0  0  0  0  0  0  0  0  0
  190.9210  173.5930  142.7280 C   0  0  2  0  0  3  0  0  0  0  0  0
  193.7410  172.2830  144.1100 C   0  0  1  0  0  3  0  0  0  0  0  0
  192.3240  172.5560  144.6330 C   0  0  1  0  0  3  0  0  0  0  0  0
  194.0190  174.7440  144.7850 C   0  0  0  0  0  2  0  0  0  0  0  0
  191.7600  173.8530  144.0020 C   0  0  1  0  0  3  0  0  0  0  0  0
  194.7180  173.4170  144.4650 C   0  0  0  0  0  2  0  0  0  0  0  0
  192.8210  174.9700  143.8650 C   0  0  0  0  0  2  0  0  0  0  0  0
  195.9830  170.8480  144.7340 S   0  0  0  0  0  0  0  0  0  0  0  0
  193.5930  168.7740  145.3850 C   0  0  0  0  0  3  0  0  0  0  0  0
  196.0460  168.2220  145.6140 C   0  0  1  0  0  3  0  0  0  0  0  0
  196.4450  169.1440  144.4590 C   0  0  0  0  0  2  0  0  0  0  0  0
  197.1230  168.1660  146.5840 N   0  0  0  0  0  1  0  0  0  0  0  0
  194.2600  170.9960  144.5620 N   0  0  0  0  0  0  0  0  0  0  0  0
  193.3800  169.8580  144.6310 C   0  0  0  0  0  3  0  0  0  0  0  0
  196.4000  171.2930  146.1080 O   0  0  0  0  0  0  0  0  0  0  0  0
  194.7480  168.6150  146.3220 C   0  0  0  0  0  2  0  0  0  0  0  0
  196.6700  171.7000  143.7020 O   0  0  0  0  0  0  0  0  0  0  0  0
  190.3310  171.8120  144.9440 O   0  0  0  0  0  1  0  0  0  0  0  0
  191.4810  171.4640  144.4040 O   0  0  0  0  0  0  0  0  0  0  0  0
  189.8880  172.7980  140.5280 O   0  0  0  0  0  1  0  0  0  0  0  0
  191.0480  173.5520  140.3390 C   0  0  2  0  0  3  0  0  0  0  0  0
  192.1620  172.6320  139.8050 C   0  0  2  0  0  3  0  0  0  0  0  0
  191.9890  171.1260  140.0420 C   0  0  2  0  0  3  0  0  0  0  0  0
  193.1110  170.5850  140.6690 O   0  0  0  0  0  1  0  0  0  0  0  0
  191.7420  170.4060  138.7310 C   0  0  0  0  0  1  0  0  0  0  0  0
  194.2890  172.3050  141.0770 C   0  0  0  0  0  1  0  0  0  0  0  0
  193.5860  173.1540  140.0330 C   0  0  1  0  0  3  0  0  0  0  0  0
  194.4180  173.1940  138.7490 C   0  0  0  0  0  2  0  0  0  0  0  0
  195.9420  175.7660  141.9810 C   0  0  0  0  0  2  0  0  0  0  0  0
  196.6800  173.6220  139.4820 O   0  0  0  0  0  0  0  0  0  0  0  0
  196.6560  176.7950  141.0980 C   0  0  0  0  0  2  0  0  0  0  0  0
  196.2260  175.4680  140.5340 C   0  0  0  0  0  0  0  0  0  0  0  0
  195.1160  175.4130  139.5710 C   0  0  0  0  0  2  0  0  0  0  0  0
  197.2330  174.5500  140.2680 O   0  0  0  0  0  0  0  0  0  0  0  0
  195.5670  174.1970  138.8100 C   0  0  2  0  0  0  0  0  0  0  0  0
  195.9400  174.5570  137.3650 C   0  0  0  0  0  2  0  0  0  0  0  0
  194.0620  175.9500  136.5040 C   0  0  0  0  0  3  0  0  0  0  0  0
  194.5920  173.7410  135.4140 C   0  0  0  0  0  2  0  0  0  0  0  0
  192.1150  173.9450  135.1580 C   0  0  2  0  0  3  0  0  0  0  0  0
  193.2620  173.0180  135.5380 C   0  0  0  0  0  2  0  0  0  0  0  0
  194.7800  174.7090  136.4920 N   0  0  0  0  0  0  0  0  0  0  0  0
  191.8180  174.8500  136.3460 C   0  0  0  0  0  2  0  0  0  0  0  0
  192.7350  176.0330  136.3900 C   0  0  0  0  0  3  0  0  0  0  0  0
  190.8750  173.1230  134.7650 C   0  0  2  0  0  3  0  0  0  0  0  0
  189.7130  173.8310  135.0830 O   0  0  0  0  0  1  0  0  0  0  0  0
  189.4640  171.5240  136.1210 C   0  0  0  0  0  1  0  0  0  0  0  0
  190.8070  171.7520  135.4490 C   0  0  1  0  0  3  0  0  0  0  0  0
  191.1810  169.6420  135.3020 O   0  0  0  0  0  1  0  0  0  0  0  0
  191.0820  170.7170  134.5500 O   0  0  0  0  0  0  0  0  0  0  0  0
  188.1210  175.5300  143.3960 O   0  0  0  0  0  0  0  0  0  0  0  0
  187.5230  176.5510  144.2080 C   0  0  2  0  0  3  0  0  0  0  0  0
  188.5970  175.7210  146.3210 C   0  0  0  0  0  2  0  0  0  0  0  0
  188.2920  176.9580  145.4750 C   0  0  1  0  0  3  0  0  0  0  0  0
  190.6270  176.8460  145.8020 O   0  0  0  0  0  0  0  0  0  0  0  0
  189.6400  177.6360  145.1710 C   0  0  0  0  0  2  0  0  0  0  0  0
  190.0630  175.7740  146.4520 C   0  0  0  0  0  0  0  0  0  0  0  0
  190.7400  174.9300  147.0920 O   0  0  0  0  0  0  0  0  0  0  0  0
  186.1140  176.4870  144.3190 O   0  0  0  0  0  0  0  0  0  0  0  0
  184.8020  176.9510  146.1180 F   0  0  0  0  0  0  0  0  0  0  0  0
  185.6710  177.4940  145.1890 C   0  0  2  0  0  3  0  0  0  0  0  0
  183.6990  179.0070  145.1160 C   0  0  0  0  0  1  0  0  0  0  0  0
  184.9580  178.5710  144.3920 C   0  0  0  0  0  2  0  0  0  0  0  0
  1  2  2  0  0  0  0
  2 54  1  0  0  0  0
  3 25  1  6  0  0  0
  3  4  1  0  0  0  0
  3  5  1  0  0  0  0
  4  2  1  0  0  0  0
  5  4  1  1  0  0  0
  5  9  1  0  0  0  0
  6 10  1  1  0  0  0
  6 17  1  0  0  0  0
  6  7  1  0  0  0  0
  7 23  1  6  0  0  0
  9 11  1  6  0  0  0
  9  7  1  0  0  0  0
 10  8  1  0  0  0  0
 11  8  1  0  0  0  0
 12 19  2  0  0  0  0
 13 20  1  0  0  0  0
 14 20  1  0  0  0  0
 14 16  1  1  0  0  0
 15 12  1  0  0  0  0
 15 14  1  0  0  0  0
 17 18  1  0  0  0  0
 17 12  1  0  0  0  0
 18 13  2  0  0  0  0
 21 12  2  0  0  0  0
 23 22  1  0  0  0  0
 25 24  1  1  0  0  0
 26 31  1  1  0  0  0
 26 27  1  0  0  0  0
 26 25  1  0  0  0  0
 27 29  1  6  0  0  0
 27 28  1  0  0  0  0
 31 30  1  1  0  0  0
 32 39  1  0  0  0  0
 32 31  1  0  0  0  0
 34 38  1  0  0  0  0
 35 33  1  0  0  0  0
 36 35  1  0  0  0  0
 36 33  1  0  0  0  0
 37 36  1  0  0  0  0
 38 36  1  0  0  0  0
 39 40  1  6  0  0  0
 39 34  1  0  0  0  0
 39 37  1  0  0  0  0
 42 44  1  0  0  0  0
 42 45  1  0  0  0  0
 43 48  1  1  0  0  0
 43 44  1  0  0  0  0
 43 46  1  0  0  0  0
 45 41  1  0  0  0  0
 45 40  1  0  0  0  0
 46 47  1  0  0  0  0
 47 41  2  0  0  0  0
 48 49  1  1  0  0  0
 48 51  1  0  0  0  0
 51 50  1  6  0  0  0
 53 52  1  0  0  0  0
 53 51  1  0  0  0  0
 55 54  1  1  0  0  0
 55 62  1  0  0  0  0
 56 60  1  0  0  0  0
 57 55  1  6  0  0  0
 57 56  1  0  0  0  0
 58 60  1  0  0  0  0
 59 57  1  0  0  0  0
 59 58  1  0  0  0  0
 60 61  2  0  0  0  0
 62 64  1  0  0  0  0
 64 63  1  1  0  0  0
 66 65  1  0  0  0  0
 66 64  1  0  0  0  0
M  END
>  <MODEL>
9

>  <REMARK>
 VINA RESULT:      -5.3      2.783      7.003
  Name = 
  20 active torsions:
  status: ('A' for Active; 'I' for Inactive)
    1  A    between atoms: C_6  and  O_8
    2  A    between atoms: C_6  and  C_19
    3  A    between atoms: C_6  and  O_57
    4  A    between atoms: O_8  and  C_65
    5  A    between atoms: C_12  and  C_18
    6  A    between atoms: O_17  and  C_45
    7  A    between atoms: C_18  and  C_23
    8  A    between atoms: C_18  and  C_32
    9  A    between atoms: C_20  and  O_57
   10  A    between atoms: C_23  and  C_52
   11  A    between atoms: C_24  and  N_42
   12  A    between atoms: C_24  and  C_64
   13  A    between atoms: C_26  and  C_65
   14  A    between atoms: N_29  and  C_30
   15  A    between atoms: C_31  and  C_32
   16  A    between atoms: C_34  and  C_40
   17  A    between atoms: C_40  and  C_45
   18  A    between atoms: C_47  and  O_51
   19  A    between atoms: C_52  and  C_64
   20  A    between atoms: C_54  and  C_58
                            x       y       z     vdW  Elec       q    Type
                         _______ _______ _______ _____ _____    ______ ____

>  <TORSDO>
F 20

$$$$
