=
 OpenBabel11062420193D

 61 65  0  0  1  0  0  0  0  0999 V2000
  193.9420  171.6040  142.4390 C   0  0  0  0  0  0  0  0  0  0  0  0
  194.5010  170.6160  141.8760 O   0  0  0  0  0  0  0  0  0  0  0  0
  192.0600  171.6280  140.7280 C   0  0  2  0  0  3  0  0  0  0  0  0
  190.4370  172.9210  141.9910 C   0  0  1  0  0  3  0  0  0  0  0  0
  192.5990  171.9660  142.0590 N   0  0  0  0  0  0  0  0  0  0  0  0
  190.8840  172.6250  140.5480 C   0  0  0  0  0  2  0  0  0  0  0  0
  191.7090  172.8080  142.7900 C   0  0  0  0  0  2  0  0  0  0  0  0
  194.7550  172.1190  144.9940 C   0  0  0  0  0  0  0  0  0  0  0  0
  195.5070  174.8490  143.6010 C   0  0  0  0  0  2  0  0  0  0  0  0
  193.4950  174.1680  145.8690 C   0  0  0  0  0  3  0  0  0  0  0  0
  194.0820  175.2400  143.7810 N   0  0  0  0  0  2  0  0  0  0  0  0
  194.7720  172.4040  143.4360 C   0  0  1  0  0  3  0  0  0  0  0  0
  193.4150  175.2160  145.0350 C   0  0  0  0  0  0  0  0  0  0  0  0
  195.7800  173.5030  143.0420 C   0  0  1  0  0  3  0  0  0  0  0  0
  194.2170  172.9220  145.8800 C   0  0  0  0  0  3  0  0  0  0  0  0
  192.4780  177.4180  144.5720 O   0  0  0  0  0  0  0  0  0  0  0  0
  191.9940  176.3840  146.5530 O   0  0  0  0  0  1  0  0  0  0  0  0
  192.5930  176.3200  145.4580 C   0  0  0  0  0  0  0  0  0  0  0  0
  195.2440  174.2850  140.5970 C   0  0  0  0  0  0  0  0  0  0  0  0
  194.1790  174.8230  140.8850 O   0  0  0  0  0  0  0  0  0  0  0  0
  196.0890  173.6550  141.5570 N   0  0  0  0  0  2  0  0  0  0  0  0
  195.7220  174.2470  139.1380 C   0  0  0  0  0  2  0  0  0  0  0  0
  195.2240  173.1830  138.1820 N   0  0  0  0  0  0  0  0  0  0  0  0
  196.3880  172.6760  137.4420 C   0  0  0  0  0  1  0  0  0  0  0  0
  194.2710  173.6200  137.1630 C   0  0  0  0  0  2  0  0  0  0  0  0
  193.2050  174.6150  137.6670 C   0  0  0  0  0  2  0  0  0  0  0  0
  192.1480  175.8490  135.8030 C   0  0  0  0  0  0  0  0  0  0  0  0
  192.0600  176.9910  134.9880 N   0  0  0  0  0  1  0  0  0  0  0  0
  191.3560  174.7310  135.5010 N   0  0  0  0  0  1  0  0  0  0  0  0
  193.1220  175.7240  136.6920 N   0  0  0  0  0  0  0  0  0  0  0  0
  196.1330  170.0310  144.7640 C   0  0  0  0  0  1  0  0  0  0  0  0
  195.1980  170.8400  145.4800 O   0  0  0  0  0  0  0  0  0  0  0  0
  191.1780  169.6490  141.9420 F   0  0  0  0  0  0  0  0  0  0  0  0
  190.3070  170.2360  140.0200 F   0  0  0  0  0  0  0  0  0  0  0  0
  192.3330  169.3580  140.0580 F   0  0  0  0  0  0  0  0  0  0  0  0
  191.4920  170.2070  140.6890 C   0  0  0  0  0  0  0  0  0  0  0  0
  189.7320  174.2560  142.2150 C   0  0  0  0  0  2  0  0  0  0  0  0
  188.3200  174.4590  141.7030 C   0  0  1  0  0  3  0  0  0  0  0  0
  187.5040  173.3400  141.6920 O   0  0  0  0  0  1  0  0  0  0  0  0
  188.1490  178.0080  141.7850 C   0  0  0  0  0  1  0  0  0  0  0  0
  185.7810  176.7610  143.5450 C   0  0  1  0  0  3  0  0  0  0  0  0
  187.5930  175.5930  142.5000 C   0  0  2  0  0  0  0  0  0  0  0  0
  188.1100  176.0080  143.8940 C   0  0  0  0  0  3  0  0  0  0  0  0
  186.2530  176.1250  142.2390 C   0  0  2  0  0  3  0  0  0  0  0  0
  187.3770  176.3760  140.1400 O   0  0  0  0  0  1  0  0  0  0  0  0
  186.9600  176.6490  144.6150 C   0  0  0  0  0  3  0  0  0  0  0  0
  187.4500  176.7140  141.4630 C   0  0  1  0  0  0  0  0  0  0  0  0
  184.9850  178.0940  143.3000 C   0  0  1  0  0  3  0  0  0  0  0  0
  185.7870  179.1740  143.8010 C   0  0  0  0  0  3  0  0  0  0  0  0
  185.5670  179.2900  145.2790 C   0  0  0  0  0  2  0  0  0  0  0  0
  184.8890  180.2910  144.3970 C   0  0  0  0  0  2  0  0  0  0  0  0
  184.5530  178.4230  141.8440 C   0  0  0  0  0  2  0  0  0  0  0  0
  182.5440  177.6480  140.4300 O   0  0  0  0  0  1  0  0  0  0  0  0
  182.9270  178.1760  141.6610 C   0  0  2  0  0  3  0  0  0  0  0  0
  181.7300  178.9410  142.3510 C   0  0  0  0  0  2  0  0  0  0  0  0
  180.3730  178.9980  141.6180 N   0  0  0  0  0  0  0  0  0  0  0  0
  179.2820  178.8600  142.5050 C   0  0  0  0  0  3  0  0  0  0  0  0
  179.6780  179.1390  143.9500 C   0  0  0  0  0  1  0  0  0  0  0  0
  178.6740  177.3580  142.3990 C   0  0  0  0  0  1  0  0  0  0  0  0
  179.5070  179.9120  139.7380 O   0  0  0  0  0  1  0  0  0  0  0  0
  180.2510  180.1690  140.8600 N   0  0  0  0  0  2  0  0  0  0  0  0
  2  1  2  0  0  0  0
  3 36  1  1  0  0  0
  3  5  1  0  0  0  0
  4 37  1  6  0  0  0
  4  7  1  0  0  0  0
  5  1  1  0  0  0  0
  5  7  1  0  0  0  0
  6  3  1  0  0  0  0
  6  4  1  0  0  0  0
  8 32  1  0  0  0  0
  8 15  2  0  0  0  0
  9 11  1  0  0  0  0
 10 15  1  0  0  0  0
 11 13  1  0  0  0  0
 12  1  1  6  0  0  0
 12  8  1  0  0  0  0
 13 18  1  0  0  0  0
 13 10  2  0  0  0  0
 14 21  1  6  0  0  0
 14 12  1  0  0  0  0
 14  9  1  0  0  0  0
 16 18  2  0  0  0  0
 18 17  1  0  0  0  0
 19 20  2  0  0  0  0
 19 21  1  0  0  0  0
 22 19  1  0  0  0  0
 23 22  1  0  0  0  0
 24 23  1  0  0  0  0
 25 26  1  0  0  0  0
 25 23  1  0  0  0  0
 27 30  2  0  0  0  0
 28 27  1  0  0  0  0
 29 27  1  0  0  0  0
 30 26  1  0  0  0  0
 31 32  1  0  0  0  0
 34 36  1  0  0  0  0
 35 36  1  0  0  0  0
 36 33  1  0  0  0  0
 38 39  1  1  0  0  0
 38 37  1  0  0  0  0
 41 48  1  6  0  0  0
 41 46  1  0  0  0  0
 42 38  1  6  0  0  0
 42 43  1  0  0  0  0
 43 46  2  0  0  0  0
 44 42  1  0  0  0  0
 44 41  1  0  0  0  0
 45 47  1  0  0  0  0
 47 40  1  0  0  0  0
 47 44  1  0  0  0  0
 47 42  1  0  0  0  0
 48 49  1  0  0  0  0
 49 51  1  0  0  0  0
 49 50  1  0  0  0  0
 51 50  1  0  0  0  0
 52 48  1  0  0  0  0
 53 54  1  0  0  0  0
 54 52  1  0  0  0  0
 54 55  1  0  0  0  0
 56 55  1  0  0  0  0
 56 57  1  0  0  0  0
 57 58  1  0  0  0  0
 59 57  1  0  0  0  0
 60 61  1  0  0  0  0
 61 56  1  0  0  0  0
M  END
>  <MODEL>
1

>  <REMARK>
 VINA RESULT:      -6.2      0.000      0.000
  Name = 
  21 active torsions:
  status: ('A' for Active; 'I' for Inactive)
    1  A    between atoms: N_1  and  C_32
    2  A    between atoms: N_1  and  C_60
    3  A    between atoms: C_4  and  O_44
    4  A    between atoms: C_7  and  C_47
    5  A    between atoms: C_8  and  N_28
    6  A    between atoms: C_11  and  C_45
    7  A    between atoms: C_18  and  C_20
    8  A    between atoms: C_18  and  C_21
    9  A    between atoms: C_19  and  C_60
   10  A    between atoms: C_21  and  C_24
   11  A    between atoms: C_23  and  C_54
   12  A    between atoms: N_28  and  N_43
   13  A    between atoms: N_28  and  C_53
   14  A    between atoms: C_31  and  C_47
   15  A    between atoms: C_32  and  C_36
   16  A    between atoms: N_34  and  C_52
   17  A    between atoms: C_36  and  N_61
   18  A    between atoms: C_39  and  C_40
   19  A    between atoms: C_39  and  C_53
   20  A    between atoms: C_40  and  C_47
   21  A    between atoms: CA_49  and  C_50
                            x       y       z     vdW  Elec       q    Type
                         _______ _______ _______ _____ _____    ______ ____

>  <TORSDO>
F 21

$$$$
=
 OpenBabel11062420193D

 61 65  0  0  1  0  0  0  0  0999 V2000
  194.5470  173.5340  140.6270 C   0  0  0  0  0  0  0  0  0  0  0  0
  195.7910  173.3500  140.7790 O   0  0  0  0  0  0  0  0  0  0  0  0
  194.3500  174.6800  142.8890 C   0  0  2  0  0  3  0  0  0  0  0  0
  192.2340  175.8200  142.5350 C   0  0  1  0  0  3  0  0  0  0  0  0
  193.8490  174.4190  141.5260 N   0  0  0  0  0  0  0  0  0  0  0  0
  193.0940  175.1910  143.6460 C   0  0  0  0  0  2  0  0  0  0  0  0
  192.5600  174.9950  141.3190 C   0  0  0  0  0  2  0  0  0  0  0  0
  193.4850  173.3340  138.1200 C   0  0  0  0  0  0  0  0  0  0  0  0
  192.0640  170.8960  139.5310 C   0  0  0  0  0  2  0  0  0  0  0  0
  190.9360  173.5080  138.2810 C   0  0  0  0  0  3  0  0  0  0  0  0
  191.0830  171.8800  140.0650 N   0  0  0  0  0  2  0  0  0  0  0  0
  193.8480  172.7290  139.5380 C   0  0  1  0  0  3  0  0  0  0  0  0
  190.3520  172.7820  139.2470 C   0  0  0  0  0  0  0  0  0  0  0  0
  193.5020  171.2300  139.6530 C   0  0  1  0  0  3  0  0  0  0  0  0
  192.2620  173.5910  137.7240 C   0  0  0  0  0  3  0  0  0  0  0  0
  188.1890  173.4130  138.3200 O   0  0  0  0  0  0  0  0  0  0  0  0
  188.3350  172.8100  140.5200 O   0  0  0  0  0  1  0  0  0  0  0  0
  188.9390  172.9770  139.4390 C   0  0  0  0  0  0  0  0  0  0  0  0
  195.3800  169.9310  140.9430 C   0  0  0  0  0  0  0  0  0  0  0  0
  196.2210  170.0470  140.0580 O   0  0  0  0  0  0  0  0  0  0  0  0
  194.0670  170.4820  140.8540 N   0  0  0  0  0  2  0  0  0  0  0  0
  195.7040  169.1440  142.2210 C   0  0  0  0  0  2  0  0  0  0  0  0
  196.1900  169.8510  143.4690 N   0  0  0  0  0  0  0  0  0  0  0  0
  195.8820  168.9850  144.6150 C   0  0  0  0  0  1  0  0  0  0  0  0
  195.5660  171.1390  143.7720 C   0  0  0  0  0  2  0  0  0  0  0  0
  194.6270  171.1240  144.9960 C   0  0  0  0  0  2  0  0  0  0  0  0
  192.2870  171.2760  144.2120 C   0  0  0  0  0  0  0  0  0  0  0  0
  191.1140  172.0220  144.0030 N   0  0  0  0  0  1  0  0  0  0  0  0
  192.3530  169.9590  143.7330 N   0  0  0  0  0  1  0  0  0  0  0  0
  193.3970  171.8610  144.6340 N   0  0  0  0  0  0  0  0  0  0  0  0
  194.9310  175.1650  137.1880 C   0  0  0  0  0  1  0  0  0  0  0  0
  194.5430  173.7920  137.2590 O   0  0  0  0  0  0  0  0  0  0  0  0
  196.7380  175.3550  142.9900 F   0  0  0  0  0  0  0  0  0  0  0  0
  195.3370  176.4610  141.7210 F   0  0  0  0  0  0  0  0  0  0  0  0
  195.1870  176.6610  143.9160 F   0  0  0  0  0  0  0  0  0  0  0  0
  195.4020  175.7910  142.9040 C   0  0  0  0  0  0  0  0  0  0  0  0
  190.7340  175.8840  142.8040 C   0  0  0  0  0  2  0  0  0  0  0  0
  190.1610  177.0210  143.6270 C   0  0  1  0  0  3  0  0  0  0  0  0
  190.8870  178.2000  143.6320 O   0  0  0  0  0  1  0  0  0  0  0  0
  187.1560  175.3130  142.8020 C   0  0  0  0  0  1  0  0  0  0  0  0
  186.5590  178.4310  143.2140 C   0  0  1  0  0  3  0  0  0  0  0  0
  188.6940  177.3460  143.1890 C   0  0  2  0  0  0  0  0  0  0  0  0
  188.3910  177.7100  141.7190 C   0  0  0  0  0  3  0  0  0  0  0  0
  187.5690  177.6720  144.0700 C   0  0  2  0  0  3  0  0  0  0  0  0
  188.3560  175.5730  144.9130 O   0  0  0  0  0  1  0  0  0  0  0  0
  187.1070  178.4880  141.7160 C   0  0  0  0  0  3  0  0  0  0  0  0
  187.8850  176.1880  143.7850 C   0  0  1  0  0  0  0  0  0  0  0  0
  185.0760  178.0350  143.5570 C   0  0  1  0  0  3  0  0  0  0  0  0
  184.9860  177.8900  144.9820 C   0  0  0  0  0  3  0  0  0  0  0  0
  183.8910  178.7810  145.4860 C   0  0  0  0  0  2  0  0  0  0  0  0
  185.3030  179.2340  145.6900 C   0  0  0  0  0  2  0  0  0  0  0  0
  183.9440  178.9850  143.0770 C   0  0  0  0  0  2  0  0  0  0  0  0
  183.6210  178.2840  140.6190 O   0  0  0  0  0  1  0  0  0  0  0  0
  183.0510  178.2550  141.8900 C   0  0  2  0  0  3  0  0  0  0  0  0
  181.4850  178.0670  141.8090 C   0  0  0  0  0  2  0  0  0  0  0  0
  180.7280  178.7100  140.6280 N   0  0  0  0  0  0  0  0  0  0  0  0
  179.3670  178.3280  140.5960 C   0  0  0  0  0  3  0  0  0  0  0  0
  178.9670  177.5290  141.8300 C   0  0  0  0  0  1  0  0  0  0  0  0
  179.0760  177.4400  139.2690 C   0  0  0  0  0  1  0  0  0  0  0  0
  179.6460  180.6730  140.3190 O   0  0  0  0  0  1  0  0  0  0  0  0
  180.8510  180.1050  140.6400 N   0  0  0  0  0  2  0  0  0  0  0  0
  1  2  2  0  0  0  0
  1  5  1  0  0  0  0
  3 36  1  6  0  0  0
  3  6  1  0  0  0  0
  4 37  1  1  0  0  0
  4  6  1  0  0  0  0
  5  3  1  0  0  0  0
  7  5  1  0  0  0  0
  7  4  1  0  0  0  0
  8 12  1  0  0  0  0
  9 14  1  0  0  0  0
  9 11  1  0  0  0  0
 10 13  2  0  0  0  0
 12 14  1  0  0  0  0
 12  1  1  6  0  0  0
 13 18  1  0  0  0  0
 13 11  1  0  0  0  0
 14 21  1  1  0  0  0
 15  8  2  0  0  0  0
 15 10  1  0  0  0  0
 16 18  2  0  0  0  0
 18 17  1  0  0  0  0
 19 22  1  0  0  0  0
 20 19  2  0  0  0  0
 21 19  1  0  0  0  0
 22 23  1  0  0  0  0
 23 25  1  0  0  0  0
 23 24  1  0  0  0  0
 25 26  1  0  0  0  0
 27 30  2  0  0  0  0
 28 27  1  0  0  0  0
 29 27  1  0  0  0  0
 30 26  1  0  0  0  0
 31 32  1  0  0  0  0
 32  8  1  0  0  0  0
 34 36  1  0  0  0  0
 36 33  1  0  0  0  0
 36 35  1  0  0  0  0
 37 38  1  0  0  0  0
 38 39  1  6  0  0  0
 40 47  1  0  0  0  0
 41 48  1  6  0  0  0
 41 44  1  0  0  0  0
 42 38  1  1  0  0  0
 42 47  1  0  0  0  0
 42 44  1  0  0  0  0
 43 42  1  0  0  0  0
 46 43  2  0  0  0  0
 46 41  1  0  0  0  0
 47 44  1  0  0  0  0
 47 45  1  0  0  0  0
 48 49  1  0  0  0  0
 49 50  1  0  0  0  0
 49 51  1  0  0  0  0
 50 51  1  0  0  0  0
 52 48  1  0  0  0  0
 53 54  1  0  0  0  0
 54 52  1  0  0  0  0
 55 54  1  0  0  0  0
 56 61  1  0  0  0  0
 56 55  1  0  0  0  0
 57 56  1  0  0  0  0
 57 58  1  0  0  0  0
 59 57  1  0  0  0  0
 60 61  1  0  0  0  0
M  END
>  <MODEL>
2

>  <REMARK>
 VINA RESULT:      -6.1      2.913      5.602
  Name = 
  21 active torsions:
  status: ('A' for Active; 'I' for Inactive)
    1  A    between atoms: N_1  and  C_32
    2  A    between atoms: N_1  and  C_60
    3  A    between atoms: C_4  and  O_44
    4  A    between atoms: C_7  and  C_47
    5  A    between atoms: C_8  and  N_28
    6  A    between atoms: C_11  and  C_45
    7  A    between atoms: C_18  and  C_20
    8  A    between atoms: C_18  and  C_21
    9  A    between atoms: C_19  and  C_60
   10  A    between atoms: C_21  and  C_24
   11  A    between atoms: C_23  and  C_54
   12  A    between atoms: N_28  and  N_43
   13  A    between atoms: N_28  and  C_53
   14  A    between atoms: C_31  and  C_47
   15  A    between atoms: C_32  and  C_36
   16  A    between atoms: N_34  and  C_52
   17  A    between atoms: C_36  and  N_61
   18  A    between atoms: C_39  and  C_40
   19  A    between atoms: C_39  and  C_53
   20  A    between atoms: C_40  and  C_47
   21  A    between atoms: CA_49  and  C_50
                            x       y       z     vdW  Elec       q    Type
                         _______ _______ _______ _____ _____    ______ ____

>  <TORSDO>
F 21

$$$$
=
 OpenBabel11062420193D

 61 65  0  0  1  0  0  0  0  0999 V2000
  193.0740  171.6080  140.8420 C   0  0  0  0  0  0  0  0  0  0  0  0
  192.7030  170.8270  139.9160 O   0  0  0  0  0  0  0  0  0  0  0  0
  190.9450  172.9880  140.6500 C   0  0  2  0  0  3  0  0  0  0  0  0
  191.0310  174.0900  142.8130 C   0  0  1  0  0  3  0  0  0  0  0  0
  192.1210  172.5270  141.4140 N   0  0  0  0  0  0  0  0  0  0  0  0
  190.5350  174.3000  141.3710 C   0  0  0  0  0  2  0  0  0  0  0  0
  192.2540  173.2280  142.6500 C   0  0  0  0  0  2  0  0  0  0  0  0
  195.0940  170.7230  142.4510 C   0  0  0  0  0  0  0  0  0  0  0  0
  196.4380  173.3000  141.2220 C   0  0  0  0  0  2  0  0  0  0  0  0
  195.6740  172.5570  144.1410 C   0  0  0  0  0  3  0  0  0  0  0  0
  195.7080  174.0780  142.2600 N   0  0  0  0  0  2  0  0  0  0  0  0
  194.5460  171.5800  141.2360 C   0  0  1  0  0  3  0  0  0  0  0  0
  195.7890  173.8010  143.6500 C   0  0  0  0  0  0  0  0  0  0  0  0
  195.6680  172.2930  140.4550 C   0  0  1  0  0  3  0  0  0  0  0  0
  195.5380  171.2410  143.5710 C   0  0  0  0  0  3  0  0  0  0  0  0
  195.9350  176.1880  144.1190 O   0  0  0  0  0  0  0  0  0  0  0  0
  196.1910  174.6890  145.8260 O   0  0  0  0  0  1  0  0  0  0  0  0
  195.9770  174.8590  144.6070 C   0  0  0  0  0  0  0  0  0  0  0  0
  195.4190  172.2540  137.8450 C   0  0  0  0  0  0  0  0  0  0  0  0
  195.8090  171.0990  137.7150 O   0  0  0  0  0  0  0  0  0  0  0  0
  195.2920  172.9020  139.1090 N   0  0  0  0  0  2  0  0  0  0  0  0
  195.0560  173.0930  136.6100 C   0  0  0  0  0  2  0  0  0  0  0  0
  194.7490  174.5710  136.7360 N   0  0  0  0  0  0  0  0  0  0  0  0
  195.4640  175.0710  137.9180 C   0  0  0  0  0  1  0  0  0  0  0  0
  193.3460  174.9280  136.9460 C   0  0  0  0  0  2  0  0  0  0  0  0
  192.3490  173.7760  136.7050 C   0  0  0  0  0  2  0  0  0  0  0  0
  189.8940  173.7680  137.0050 C   0  0  0  0  0  0  0  0  0  0  0  0
  188.7610  173.9860  137.8070 N   0  0  0  0  0  1  0  0  0  0  0  0
  189.7220  173.4440  135.6510 N   0  0  0  0  0  1  0  0  0  0  0  0
  191.1040  174.0910  137.4380 N   0  0  0  0  0  0  0  0  0  0  0  0
  195.4510  168.4980  141.3400 C   0  0  0  0  0  1  0  0  0  0  0  0
  194.9570  169.2920  142.4210 O   0  0  0  0  0  0  0  0  0  0  0  0
  189.5100  171.2630  139.5850 F   0  0  0  0  0  0  0  0  0  0  0  0
  190.0930  171.0630  141.6870 F   0  0  0  0  0  0  0  0  0  0  0  0
  188.6370  172.6240  141.1180 F   0  0  0  0  0  0  0  0  0  0  0  0
  189.7800  172.0020  140.7530 C   0  0  0  0  0  0  0  0  0  0  0  0
  191.3200  175.3560  143.6140 C   0  0  0  0  0  2  0  0  0  0  0  0
  191.4060  175.2910  145.1260 C   0  0  1  0  0  3  0  0  0  0  0  0
  192.4240  176.0220  145.7150 O   0  0  0  0  0  1  0  0  0  0  0  0
  190.0350  178.0080  146.9620 C   0  0  0  0  0  1  0  0  0  0  0  0
  187.6890  176.0680  145.9700 C   0  0  1  0  0  3  0  0  0  0  0  0
  190.0500  175.7140  145.7840 C   0  0  2  0  0  0  0  0  0  0  0  0
  189.6460  175.1350  147.1570 C   0  0  0  0  0  3  0  0  0  0  0  0
  188.9190  176.3650  145.1170 C   0  0  2  0  0  3  0  0  0  0  0  0
  190.7660  177.8140  144.6390 O   0  0  0  0  0  1  0  0  0  0  0  0
  188.1520  175.2450  147.2560 C   0  0  0  0  0  3  0  0  0  0  0  0
  190.0650  177.2430  145.6660 C   0  0  1  0  0  0  0  0  0  0  0  0
  186.7190  177.3020  146.0600 C   0  0  1  0  0  3  0  0  0  0  0  0
  186.9040  177.9040  147.3500 C   0  0  0  0  0  3  0  0  0  0  0  0
  185.6890  177.6320  148.1840 C   0  0  0  0  0  2  0  0  0  0  0  0
  185.8360  179.0020  147.6000 C   0  0  0  0  0  2  0  0  0  0  0  0
  186.8450  178.4030  144.9700 C   0  0  0  0  0  2  0  0  0  0  0  0
  184.3130  178.4680  144.5010 O   0  0  0  0  0  1  0  0  0  0  0  0
  185.5690  178.3140  143.9190 C   0  0  2  0  0  3  0  0  0  0  0  0
  185.4720  177.5320  142.5500 C   0  0  0  0  0  2  0  0  0  0  0  0
  186.2880  178.0500  141.3480 N   0  0  0  0  0  0  0  0  0  0  0  0
  187.4770  177.3110  141.1530 C   0  0  0  0  0  3  0  0  0  0  0  0
  187.3940  175.9190  141.7680 C   0  0  0  0  0  1  0  0  0  0  0  0
  188.7330  178.1070  141.8030 C   0  0  0  0  0  1  0  0  0  0  0  0
  184.2430  178.4720  140.4770 O   0  0  0  0  0  1  0  0  0  0  0  0
  185.5190  178.0700  140.1780 N   0  0  0  0  0  2  0  0  0  0  0  0
  1  5  1  0  0  0  0
  2  1  2  0  0  0  0
  3 36  1  1  0  0  0
  3  6  1  0  0  0  0
  3  5  1  0  0  0  0
  4 37  1  6  0  0  0
  5  7  1  0  0  0  0
  6  4  1  0  0  0  0
  7  4  1  0  0  0  0
  8 15  2  0  0  0  0
  9 11  1  0  0  0  0
 11 13  1  0  0  0  0
 12  1  1  6  0  0  0
 12  8  1  0  0  0  0
 13 10  2  0  0  0  0
 13 18  1  0  0  0  0
 14 21  1  6  0  0  0
 14  9  1  0  0  0  0
 14 12  1  0  0  0  0
 15 10  1  0  0  0  0
 16 18  2  0  0  0  0
 18 17  1  0  0  0  0
 19 21  1  0  0  0  0
 20 19  2  0  0  0  0
 22 23  1  0  0  0  0
 22 19  1  0  0  0  0
 23 25  1  0  0  0  0
 23 24  1  0  0  0  0
 26 25  1  0  0  0  0
 26 30  1  0  0  0  0
 27 30  2  0  0  0  0
 27 28  1  0  0  0  0
 29 27  1  0  0  0  0
 31 32  1  0  0  0  0
 32  8  1  0  0  0  0
 33 36  1  0  0  0  0
 36 35  1  0  0  0  0
 36 34  1  0  0  0  0
 37 38  1  0  0  0  0
 38 39  1  1  0  0  0
 41 48  1  1  0  0  0
 41 46  1  0  0  0  0
 42 38  1  6  0  0  0
 42 43  1  0  0  0  0
 43 46  2  0  0  0  0
 44 47  1  0  0  0  0
 44 42  1  0  0  0  0
 44 41  1  0  0  0  0
 45 47  1  0  0  0  0
 47 42  1  0  0  0  0
 47 40  1  0  0  0  0
 48 49  1  0  0  0  0
 49 51  1  0  0  0  0
 49 50  1  0  0  0  0
 51 50  1  0  0  0  0
 52 48  1  0  0  0  0
 54 53  1  0  0  0  0
 54 52  1  0  0  0  0
 55 54  1  0  0  0  0
 56 55  1  0  0  0  0
 57 56  1  0  0  0  0
 57 58  1  0  0  0  0
 57 59  1  0  0  0  0
 61 60  1  0  0  0  0
 61 56  1  0  0  0  0
M  END
>  <MODEL>
3

>  <REMARK>
 VINA RESULT:      -6.0      2.690      4.082
  Name = 
  21 active torsions:
  status: ('A' for Active; 'I' for Inactive)
    1  A    between atoms: N_1  and  C_32
    2  A    between atoms: N_1  and  C_60
    3  A    between atoms: C_4  and  O_44
    4  A    between atoms: C_7  and  C_47
    5  A    between atoms: C_8  and  N_28
    6  A    between atoms: C_11  and  C_45
    7  A    between atoms: C_18  and  C_20
    8  A    between atoms: C_18  and  C_21
    9  A    between atoms: C_19  and  C_60
   10  A    between atoms: C_21  and  C_24
   11  A    between atoms: C_23  and  C_54
   12  A    between atoms: N_28  and  N_43
   13  A    between atoms: N_28  and  C_53
   14  A    between atoms: C_31  and  C_47
   15  A    between atoms: C_32  and  C_36
   16  A    between atoms: N_34  and  C_52
   17  A    between atoms: C_36  and  N_61
   18  A    between atoms: C_39  and  C_40
   19  A    between atoms: C_39  and  C_53
   20  A    between atoms: C_40  and  C_47
   21  A    between atoms: CA_49  and  C_50
                            x       y       z     vdW  Elec       q    Type
                         _______ _______ _______ _____ _____    ______ ____

>  <TORSDO>
F 21

$$$$
=
 OpenBabel11062420193D

 61 65  0  0  1  0  0  0  0  0999 V2000
  195.7830  172.0170  140.0570 C   0  0  0  0  0  0  0  0  0  0  0  0
  196.6300  172.8600  139.6370 O   0  0  0  0  0  0  0  0  0  0  0  0
  193.8370  173.4050  139.1860 C   0  0  2  0  0  3  0  0  0  0  0  0
  192.1340  171.6730  139.1700 C   0  0  1  0  0  3  0  0  0  0  0  0
  194.4110  172.1180  139.6240 N   0  0  0  0  0  0  0  0  0  0  0  0
  192.3070  173.1930  139.3420 C   0  0  0  0  0  2  0  0  0  0  0  0
  193.4150  171.1010  139.7180 C   0  0  0  0  0  2  0  0  0  0  0  0
  196.5280  169.4710  140.7020 C   0  0  0  0  0  0  0  0  0  0  0  0
  195.8460  170.6030  143.5680 C   0  0  0  0  0  2  0  0  0  0  0  0
  194.5800  168.3120  141.8930 C   0  0  0  0  0  3  0  0  0  0  0  0
  194.4210  170.3030  143.2590 N   0  0  0  0  0  2  0  0  0  0  0  0
  196.2630  170.9880  141.0740 C   0  0  1  0  0  3  0  0  0  0  0  0
  193.9610  169.0240  142.8480 C   0  0  0  0  0  0  0  0  0  0  0  0
  196.6330  171.3170  142.5350 C   0  0  1  0  0  3  0  0  0  0  0  0
  195.7780  168.4760  141.1110 C   0  0  0  0  0  3  0  0  0  0  0  0
  191.6950  168.1760  142.5560 O   0  0  0  0  0  0  0  0  0  0  0  0
  192.6380  168.1690  144.6390 O   0  0  0  0  0  1  0  0  0  0  0  0
  192.7800  168.4400  143.4270 C   0  0  0  0  0  0  0  0  0  0  0  0
  197.0430  173.3010  144.2010 C   0  0  0  0  0  0  0  0  0  0  0  0
  197.3810  172.5870  145.1390 O   0  0  0  0  0  0  0  0  0  0  0  0
  196.6940  172.7920  142.9150 N   0  0  0  0  0  2  0  0  0  0  0  0
  196.9560  174.8240  144.3770 C   0  0  0  0  0  2  0  0  0  0  0  0
  195.7470  175.5970  143.8920 N   0  0  0  0  0  0  0  0  0  0  0  0
  196.1290  176.2740  142.6450 C   0  0  0  0  0  1  0  0  0  0  0  0
  195.2530  176.6520  144.7750 C   0  0  0  0  0  2  0  0  0  0  0  0
  194.4090  176.1490  145.9650 C   0  0  0  0  0  2  0  0  0  0  0  0
  192.1330  175.1810  145.9760 C   0  0  0  0  0  0  0  0  0  0  0  0
  191.1170  174.4410  145.3470 N   0  0  0  0  0  1  0  0  0  0  0  0
  191.9550  175.5950  147.3040 N   0  0  0  0  0  1  0  0  0  0  0  0
  193.3340  175.2870  145.4270 N   0  0  0  0  0  0  0  0  0  0  0  0
  197.5140  169.6710  138.4010 C   0  0  0  0  0  1  0  0  0  0  0  0
  197.5390  169.1510  139.7310 O   0  0  0  0  0  0  0  0  0  0  0  0
  195.1040  174.6770  137.4690 F   0  0  0  0  0  0  0  0  0  0  0  0
  194.6490  172.5580  137.1540 F   0  0  0  0  0  0  0  0  0  0  0  0
  193.0120  174.0370  137.0420 F   0  0  0  0  0  0  0  0  0  0  0  0
  194.1330  173.6870  137.7120 C   0  0  0  0  0  0  0  0  0  0  0  0
  190.9010  171.0590  139.8250 C   0  0  0  0  0  2  0  0  0  0  0  0
  190.4950  171.4870  141.2210 C   0  0  1  0  0  3  0  0  0  0  0  0
  191.5240  171.6800  142.1270 O   0  0  0  0  0  1  0  0  0  0  0  0
  187.3240  172.6400  142.3350 C   0  0  0  0  0  1  0  0  0  0  0  0
  189.1040  175.1170  141.3620 C   0  0  1  0  0  3  0  0  0  0  0  0
  189.6240  172.7870  141.1790 C   0  0  2  0  0  0  0  0  0  0  0  0
  188.8320  173.1410  139.9020 C   0  0  0  0  0  3  0  0  0  0  0  0
  189.7000  173.9220  142.1010 C   0  0  2  0  0  3  0  0  0  0  0  0
  189.3590  172.0440  143.5470 O   0  0  0  0  0  1  0  0  0  0  0  0
  188.5840  174.6220  139.9370 C   0  0  0  0  0  3  0  0  0  0  0  0
  188.8200  172.7130  142.4820 C   0  0  1  0  0  0  0  0  0  0  0  0
  188.2390  176.0270  142.3080 C   0  0  1  0  0  3  0  0  0  0  0  0
  188.9040  177.2940  142.4170 C   0  0  0  0  0  3  0  0  0  0  0  0
  190.3520  177.0500  142.7210 C   0  0  0  0  0  2  0  0  0  0  0  0
  189.4720  177.4920  143.8480 C   0  0  0  0  0  2  0  0  0  0  0  0
  186.7550  176.2720  141.9170 C   0  0  0  0  0  2  0  0  0  0  0  0
  185.5420  178.2460  143.0450 O   0  0  0  0  0  1  0  0  0  0  0  0
  185.9260  176.9150  143.1980 C   0  0  2  0  0  3  0  0  0  0  0  0
  186.0030  176.5140  144.7230 C   0  0  0  0  0  2  0  0  0  0  0  0
  186.2650  177.6240  145.7630 N   0  0  0  0  0  0  0  0  0  0  0  0
  185.1300  177.8840  146.5630 C   0  0  0  0  0  3  0  0  0  0  0  0
  184.0610  178.6630  145.8070 C   0  0  0  0  0  1  0  0  0  0  0  0
  185.5680  178.7220  147.8830 C   0  0  0  0  0  1  0  0  0  0  0  0
  187.7640  176.0300  146.3380 O   0  0  0  0  0  1  0  0  0  0  0  0
  187.3770  177.3250  146.5600 N   0  0  0  0  0  2  0  0  0  0  0  0
  2  1  2  0  0  0  0
  3 36  1  6  0  0  0
  3  6  1  0  0  0  0
  3  5  1  0  0  0  0
  4  6  1  0  0  0  0
  4  7  1  0  0  0  0
  4 37  1  1  0  0  0
  5  7  1  0  0  0  0
  5  1  1  0  0  0  0
  8 12  1  0  0  0  0
  8 15  2  0  0  0  0
 10 13  2  0  0  0  0
 11  9  1  0  0  0  0
 12  1  1  6  0  0  0
 12 14  1  0  0  0  0
 13 11  1  0  0  0  0
 13 18  1  0  0  0  0
 14 21  1  1  0  0  0
 14  9  1  0  0  0  0
 15 10  1  0  0  0  0
 16 18  2  0  0  0  0
 18 17  1  0  0  0  0
 19 22  1  0  0  0  0
 19 20  2  0  0  0  0
 21 19  1  0  0  0  0
 23 22  1  0  0  0  0
 23 25  1  0  0  0  0
 24 23  1  0  0  0  0
 25 26  1  0  0  0  0
 27 29  1  0  0  0  0
 28 27  1  0  0  0  0
 30 26  1  0  0  0  0
 30 27  2  0  0  0  0
 31 32  1  0  0  0  0
 32  8  1  0  0  0  0
 33 36  1  0  0  0  0
 34 36  1  0  0  0  0
 35 36  1  0  0  0  0
 37 38  1  0  0  0  0
 38 39  1  1  0  0  0
 40 47  1  0  0  0  0
 41 44  1  0  0  0  0
 41 48  1  1  0  0  0
 42 38  1  6  0  0  0
 42 44  1  0  0  0  0
 42 47  1  0  0  0  0
 43 46  2  0  0  0  0
 43 42  1  0  0  0  0
 44 47  1  0  0  0  0
 46 41  1  0  0  0  0
 47 45  1  0  0  0  0
 48 49  1  0  0  0  0
 49 50  1  0  0  0  0
 49 51  1  0  0  0  0
 50 51  1  0  0  0  0
 52 48  1  0  0  0  0
 52 54  1  0  0  0  0
 53 54  1  0  0  0  0
 54 55  1  0  0  0  0
 55 56  1  0  0  0  0
 56 61  1  0  0  0  0
 56 57  1  0  0  0  0
 57 59  1  0  0  0  0
 58 57  1  0  0  0  0
 60 61  1  0  0  0  0
M  END
>  <MODEL>
4

>  <REMARK>
 VINA RESULT:      -5.7      3.507      6.176
  Name = 
  21 active torsions:
  status: ('A' for Active; 'I' for Inactive)
    1  A    between atoms: N_1  and  C_32
    2  A    between atoms: N_1  and  C_60
    3  A    between atoms: C_4  and  O_44
    4  A    between atoms: C_7  and  C_47
    5  A    between atoms: C_8  and  N_28
    6  A    between atoms: C_11  and  C_45
    7  A    between atoms: C_18  and  C_20
    8  A    between atoms: C_18  and  C_21
    9  A    between atoms: C_19  and  C_60
   10  A    between atoms: C_21  and  C_24
   11  A    between atoms: C_23  and  C_54
   12  A    between atoms: N_28  and  N_43
   13  A    between atoms: N_28  and  C_53
   14  A    between atoms: C_31  and  C_47
   15  A    between atoms: C_32  and  C_36
   16  A    between atoms: N_34  and  C_52
   17  A    between atoms: C_36  and  N_61
   18  A    between atoms: C_39  and  C_40
   19  A    between atoms: C_39  and  C_53
   20  A    between atoms: C_40  and  C_47
   21  A    between atoms: CA_49  and  C_50
                            x       y       z     vdW  Elec       q    Type
                         _______ _______ _______ _____ _____    ______ ____

>  <TORSDO>
F 21

$$$$
=
 OpenBabel11062420193D

 61 65  0  0  1  0  0  0  0  0999 V2000
  192.2890  171.6980  136.5090 C   0  0  0  0  0  0  0  0  0  0  0  0
  192.2690  172.3210  135.4060 O   0  0  0  0  0  0  0  0  0  0  0  0
  190.7430  173.4000  137.5980 C   0  0  2  0  0  3  0  0  0  0  0  0
  189.9940  172.0570  139.4790 C   0  0  1  0  0  3  0  0  0  0  0  0
  191.3410  172.0520  137.5360 N   0  0  0  0  0  0  0  0  0  0  0  0
  190.2620  173.5170  139.0700 C   0  0  0  0  0  2  0  0  0  0  0  0
  190.9980  171.2700  138.6790 C   0  0  0  0  0  2  0  0  0  0  0  0
  193.1020  169.1000  136.7120 C   0  0  0  0  0  0  0  0  0  0  0  0
  195.5350  170.5620  138.0910 C   0  0  0  0  0  2  0  0  0  0  0  0
  193.4520  168.5300  139.1830 C   0  0  0  0  0  3  0  0  0  0  0  0
  194.7100  170.5910  139.3300 N   0  0  0  0  0  2  0  0  0  0  0  0
  193.3850  170.6580  136.7070 C   0  0  1  0  0  3  0  0  0  0  0  0
  194.1250  169.4350  139.9110 C   0  0  0  0  0  0  0  0  0  0  0  0
  194.8870  170.9910  136.8290 C   0  0  1  0  0  3  0  0  0  0  0  0
  193.1770  168.3450  137.7820 C   0  0  0  0  0  3  0  0  0  0  0  0
  195.5010  169.1650  141.9040 O   0  0  0  0  0  0  0  0  0  0  0  0
  193.2280  168.9900  142.0760 O   0  0  0  0  0  1  0  0  0  0  0  0
  194.2080  169.1940  141.3270 C   0  0  0  0  0  0  0  0  0  0  0  0
  194.9690  173.5600  137.3520 C   0  0  0  0  0  0  0  0  0  0  0  0
  194.3460  173.4770  138.4050 O   0  0  0  0  0  0  0  0  0  0  0  0
  195.2990  172.4310  136.5460 N   0  0  0  0  0  2  0  0  0  0  0  0
  195.4220  174.9290  136.8250 C   0  0  0  0  0  2  0  0  0  0  0  0
  196.7800  175.4940  137.1880 N   0  0  0  0  0  0  0  0  0  0  0  0
  197.3580  176.0710  135.9670 C   0  0  0  0  0  1  0  0  0  0  0  0
  197.7720  174.5370  137.6770 C   0  0  0  0  0  2  0  0  0  0  0  0
  197.9410  174.5180  139.2110 C   0  0  0  0  0  2  0  0  0  0  0  0
  196.4770  175.6110  140.8770 C   0  0  0  0  0  0  0  0  0  0  0  0
  195.8930  176.7690  141.4180 N   0  0  0  0  0  1  0  0  0  0  0  0
  196.0920  174.3560  141.3730 N   0  0  0  0  0  1  0  0  0  0  0  0
  197.1950  175.6670  139.7650 N   0  0  0  0  0  0  0  0  0  0  0  0
  191.6350  169.1370  134.6720 C   0  0  0  0  0  1  0  0  0  0  0  0
  192.5690  168.4780  135.5300 O   0  0  0  0  0  0  0  0  0  0  0  0
  189.5330  174.6200  135.8050 F   0  0  0  0  0  0  0  0  0  0  0  0
  189.4840  172.4310  135.8700 F   0  0  0  0  0  0  0  0  0  0  0  0
  188.3750  173.5770  137.3980 F   0  0  0  0  0  0  0  0  0  0  0  0
  189.5220  173.5210  136.6850 C   0  0  0  0  0  0  0  0  0  0  0  0
  190.0780  171.7530  140.9710 C   0  0  0  0  0  2  0  0  0  0  0  0
  191.2100  172.3300  141.7980 C   0  0  1  0  0  3  0  0  0  0  0  0
  192.2760  172.8620  141.0920 O   0  0  0  0  0  1  0  0  0  0  0  0
  189.7520  172.5500  145.0310 C   0  0  0  0  0  1  0  0  0  0  0  0
  190.6720  175.4550  144.0510 C   0  0  1  0  0  3  0  0  0  0  0  0
  190.6810  173.4200  142.7890 C   0  0  2  0  0  0  0  0  0  0  0  0
  189.2810  174.0370  142.5790 C   0  0  0  0  0  3  0  0  0  0  0  0
  191.4770  174.1960  143.7430 C   0  0  2  0  0  3  0  0  0  0  0  0
  191.9940  171.9230  144.2930 O   0  0  0  0  0  1  0  0  0  0  0  0
  189.2820  175.3690  143.2720 C   0  0  0  0  0  3  0  0  0  0  0  0
  190.9570  172.8050  144.1660 C   0  0  1  0  0  0  0  0  0  0  0  0
  190.7690  175.8640  145.5660 C   0  0  1  0  0  3  0  0  0  0  0  0
  192.1190  176.2780  145.8170 C   0  0  0  0  0  3  0  0  0  0  0  0
  192.8800  175.1160  146.3810 C   0  0  0  0  0  2  0  0  0  0  0  0
  192.4470  176.1880  147.3310 C   0  0  0  0  0  2  0  0  0  0  0  0
  189.8020  176.9670  146.0810 C   0  0  0  0  0  2  0  0  0  0  0  0
  188.6960  174.9430  147.2270 O   0  0  0  0  0  1  0  0  0  0  0  0
  188.5230  176.2800  146.8750 C   0  0  2  0  0  3  0  0  0  0  0  0
  186.9910  176.6540  146.7860 C   0  0  0  0  0  2  0  0  0  0  0  0
  186.6030  178.0350  146.2190 N   0  0  0  0  0  0  0  0  0  0  0  0
  185.8890  177.9310  145.0040 C   0  0  0  0  0  3  0  0  0  0  0  0
  186.7520  178.2870  143.8000 C   0  0  0  0  0  1  0  0  0  0  0  0
  184.5950  178.9110  145.0400 C   0  0  0  0  0  1  0  0  0  0  0  0
  186.6180  178.9160  148.3030 O   0  0  0  0  0  1  0  0  0  0  0  0
  185.8810  178.7870  147.1550 N   0  0  0  0  0  2  0  0  0  0  0  0
  1  5  1  0  0  0  0
  2  1  2  0  0  0  0
  3 36  1  6  0  0  0
  3  6  1  0  0  0  0
  4 37  1  1  0  0  0
  5  3  1  0  0  0  0
  5  7  1  0  0  0  0
  6  4  1  0  0  0  0
  7  4  1  0  0  0  0
  8 15  2  0  0  0  0
  9 11  1  0  0  0  0
 10 13  2  0  0  0  0
 11 13  1  0  0  0  0
 12  1  1  6  0  0  0
 12  8  1  0  0  0  0
 12 14  1  0  0  0  0
 13 18  1  0  0  0  0
 14 21  1  1  0  0  0
 14  9  1  0  0  0  0
 15 10  1  0  0  0  0
 18 16  2  0  0  0  0
 18 17  1  0  0  0  0
 19 20  2  0  0  0  0
 21 19  1  0  0  0  0
 22 23  1  0  0  0  0
 22 19  1  0  0  0  0
 23 25  1  0  0  0  0
 24 23  1  0  0  0  0
 25 26  1  0  0  0  0
 26 30  1  0  0  0  0
 27 29  1  0  0  0  0
 27 28  1  0  0  0  0
 30 27  2  0  0  0  0
 31 32  1  0  0  0  0
 32  8  1  0  0  0  0
 33 36  1  0  0  0  0
 34 36  1  0  0  0  0
 36 35  1  0  0  0  0
 37 38  1  0  0  0  0
 38 39  1  6  0  0  0
 41 48  1  1  0  0  0
 42 38  1  6  0  0  0
 42 44  1  0  0  0  0
 42 47  1  0  0  0  0
 43 42  1  0  0  0  0
 43 46  2  0  0  0  0
 44 41  1  0  0  0  0
 44 47  1  0  0  0  0
 46 41  1  0  0  0  0
 47 45  1  0  0  0  0
 47 40  1  0  0  0  0
 48 49  1  0  0  0  0
 48 52  1  0  0  0  0
 49 50  1  0  0  0  0
 49 51  1  0  0  0  0
 50 51  1  0  0  0  0
 52 54  1  0  0  0  0
 54 53  1  0  0  0  0
 55 54  1  0  0  0  0
 56 55  1  0  0  0  0
 56 61  1  0  0  0  0
 57 59  1  0  0  0  0
 57 56  1  0  0  0  0
 58 57  1  0  0  0  0
 61 60  1  0  0  0  0
M  END
>  <MODEL>
5

>  <REMARK>
 VINA RESULT:      -5.7      3.955      6.711
  Name = 
  21 active torsions:
  status: ('A' for Active; 'I' for Inactive)
    1  A    between atoms: N_1  and  C_32
    2  A    between atoms: N_1  and  C_60
    3  A    between atoms: C_4  and  O_44
    4  A    between atoms: C_7  and  C_47
    5  A    between atoms: C_8  and  N_28
    6  A    between atoms: C_11  and  C_45
    7  A    between atoms: C_18  and  C_20
    8  A    between atoms: C_18  and  C_21
    9  A    between atoms: C_19  and  C_60
   10  A    between atoms: C_21  and  C_24
   11  A    between atoms: C_23  and  C_54
   12  A    between atoms: N_28  and  N_43
   13  A    between atoms: N_28  and  C_53
   14  A    between atoms: C_31  and  C_47
   15  A    between atoms: C_32  and  C_36
   16  A    between atoms: N_34  and  C_52
   17  A    between atoms: C_36  and  N_61
   18  A    between atoms: C_39  and  C_40
   19  A    between atoms: C_39  and  C_53
   20  A    between atoms: C_40  and  C_47
   21  A    between atoms: CA_49  and  C_50
                            x       y       z     vdW  Elec       q    Type
                         _______ _______ _______ _____ _____    ______ ____

>  <TORSDO>
F 21

$$$$
=
 OpenBabel11062420193D

 61 65  0  0  1  0  0  0  0  0999 V2000
  195.6870  175.0200  138.9860 C   0  0  0  0  0  0  0  0  0  0  0  0
  196.8140  175.5920  139.0600 O   0  0  0  0  0  0  0  0  0  0  0  0
  195.5350  174.7960  141.5160 C   0  0  2  0  0  3  0  0  0  0  0  0
  193.1420  174.4290  141.7050 C   0  0  1  0  0  3  0  0  0  0  0  0
  194.9020  174.8490  140.1840 N   0  0  0  0  0  0  0  0  0  0  0  0
  194.4740  174.0840  142.3960 C   0  0  0  0  0  2  0  0  0  0  0  0
  193.5110  174.5400  140.2490 C   0  0  0  0  0  2  0  0  0  0  0  0
  194.8770  175.3980  136.4060 C   0  0  0  0  0  0  0  0  0  0  0  0
  193.9540  172.4140  136.8560 C   0  0  0  0  0  2  0  0  0  0  0  0
  192.3510  175.0100  136.2630 C   0  0  0  0  0  3  0  0  0  0  0  0
  192.7400  172.9730  137.5110 N   0  0  0  0  0  2  0  0  0  0  0  0
  195.2680  174.4690  137.6280 C   0  0  1  0  0  3  0  0  0  0  0  0
  191.8820  173.9210  136.8930 C   0  0  0  0  0  0  0  0  0  0  0  0
  195.2660  172.9700  137.2620 C   0  0  1  0  0  3  0  0  0  0  0  0
  193.6580  175.5190  135.9380 C   0  0  0  0  0  3  0  0  0  0  0  0
  189.9490  172.5300  137.4140 O   0  0  0  0  0  1  0  0  0  0  0  0
  189.6280  174.6310  136.5720 O   0  0  0  0  0  0  0  0  0  0  0  0
  190.4510  173.7660  136.9380 C   0  0  0  0  0  0  0  0  0  0  0  0
  196.5610  170.7930  137.9400 C   0  0  0  0  0  0  0  0  0  0  0  0
  196.7290  170.4030  136.7890 O   0  0  0  0  0  0  0  0  0  0  0  0
  195.9020  172.0150  138.2650 N   0  0  0  0  0  2  0  0  0  0  0  0
  197.0530  169.9480  139.1240 C   0  0  0  0  0  2  0  0  0  0  0  0
  196.0710  169.2950  140.0750 N   0  0  0  0  0  0  0  0  0  0  0  0
  194.9480  168.7920  139.2730 C   0  0  0  0  0  1  0  0  0  0  0  0
  195.4710  170.1640  141.0880 C   0  0  0  0  0  2  0  0  0  0  0  0
  194.5460  169.4380  142.0870 C   0  0  0  0  0  2  0  0  0  0  0  0
  193.8900  170.5970  144.1700 C   0  0  0  0  0  0  0  0  0  0  0  0
  193.2650  171.6720  144.8260 N   0  0  0  0  0  1  0  0  0  0  0  0
  194.3830  169.5260  144.9310 N   0  0  0  0  0  1  0  0  0  0  0  0
  193.8110  170.4660  142.8550 N   0  0  0  0  0  0  0  0  0  0  0  0
  196.7240  175.9300  134.7880 C   0  0  0  0  0  1  0  0  0  0  0  0
  195.8600  176.2980  135.8650 O   0  0  0  0  0  0  0  0  0  0  0  0
  197.1050  176.6410  142.0650 F   0  0  0  0  0  0  0  0  0  0  0  0
  195.0960  177.0930  141.3170 F   0  0  0  0  0  0  0  0  0  0  0  0
  195.3270  176.2880  143.3610 F   0  0  0  0  0  0  0  0  0  0  0  0
  195.7700  176.1960  142.0880 C   0  0  0  0  0  0  0  0  0  0  0  0
  191.9930  173.4520  141.9360 C   0  0  0  0  0  2  0  0  0  0  0  0
  190.8870  173.3290  140.9080 C   0  0  1  0  0  3  0  0  0  0  0  0
  190.4110  172.0510  140.6680 O   0  0  0  0  0  1  0  0  0  0  0  0
  187.7550  173.1140  142.5740 C   0  0  0  0  0  1  0  0  0  0  0  0
  188.5220  176.1840  142.0860 C   0  0  1  0  0  3  0  0  0  0  0  0
  189.6740  174.2470  141.2760 C   0  0  2  0  0  0  0  0  0  0  0  0
  188.6050  174.5760  140.2100 C   0  0  0  0  0  3  0  0  0  0  0  0
  189.5640  175.1280  142.4420 C   0  0  2  0  0  3  0  0  0  0  0  0
  190.0510  172.9860  143.3970 O   0  0  0  0  0  1  0  0  0  0  0  0
  187.9380  175.8510  140.6390 C   0  0  0  0  0  3  0  0  0  0  0  0
  189.1640  173.6450  142.5900 C   0  0  1  0  0  0  0  0  0  0  0  0
  187.5990  176.5410  143.3080 C   0  0  1  0  0  3  0  0  0  0  0  0
  186.2400  176.3270  142.9010 C   0  0  0  0  0  3  0  0  0  0  0  0
  185.7210  177.5880  142.2790 C   0  0  0  0  0  2  0  0  0  0  0  0
  185.2820  177.2710  143.6740 C   0  0  0  0  0  2  0  0  0  0  0  0
  187.8470  175.7900  144.6450 C   0  0  0  0  0  2  0  0  0  0  0  0
  187.8580  177.7400  146.3290 O   0  0  0  0  0  1  0  0  0  0  0  0
  188.6470  176.7710  145.7120 C   0  0  2  0  0  3  0  0  0  0  0  0
  190.1700  177.1880  145.7170 C   0  0  0  0  0  2  0  0  0  0  0  0
  191.2140  176.1530  146.1890 N   0  0  0  0  0  0  0  0  0  0  0  0
  192.3770  176.1650  145.3860 C   0  0  0  0  0  3  0  0  0  0  0  0
  193.6110  176.5910  146.1720 C   0  0  0  0  0  1  0  0  0  0  0  0
  192.1690  177.1740  144.1320 C   0  0  0  0  0  1  0  0  0  0  0  0
  191.2520  175.1950  148.2390 O   0  0  0  0  0  1  0  0  0  0  0  0
  191.5410  176.3370  147.5390 N   0  0  0  0  0  2  0  0  0  0  0  0
  1  2  2  0  0  0  0
  1  5  1  0  0  0  0
  3 36  1  1  0  0  0
  3  6  1  0  0  0  0
  4 37  1  6  0  0  0
  4  6  1  0  0  0  0
  5  7  1  0  0  0  0
  5  3  1  0  0  0  0
  7  4  1  0  0  0  0
  8 12  1  0  0  0  0
  9 14  1  0  0  0  0
  9 11  1  0  0  0  0
 10 13  2  0  0  0  0
 12  1  1  6  0  0  0
 13 18  1  0  0  0  0
 13 11  1  0  0  0  0
 14 12  1  0  0  0  0
 14 21  1  1  0  0  0
 15 10  1  0  0  0  0
 15  8  2  0  0  0  0
 17 18  2  0  0  0  0
 18 16  1  0  0  0  0
 19 21  1  0  0  0  0
 19 22  1  0  0  0  0
 20 19  2  0  0  0  0
 22 23  1  0  0  0  0
 23 25  1  0  0  0  0
 24 23  1  0  0  0  0
 25 26  1  0  0  0  0
 26 30  1  0  0  0  0
 27 28  1  0  0  0  0
 27 29  1  0  0  0  0
 30 27  2  0  0  0  0
 31 32  1  0  0  0  0
 32  8  1  0  0  0  0
 33 36  1  0  0  0  0
 34 36  1  0  0  0  0
 36 35  1  0  0  0  0
 38 39  1  1  0  0  0
 38 37  1  0  0  0  0
 40 47  1  0  0  0  0
 41 44  1  0  0  0  0
 41 48  1  1  0  0  0
 42 38  1  6  0  0  0
 42 44  1  0  0  0  0
 42 47  1  0  0  0  0
 43 46  2  0  0  0  0
 43 42  1  0  0  0  0
 44 47  1  0  0  0  0
 46 41  1  0  0  0  0
 47 45  1  0  0  0  0
 48 52  1  0  0  0  0
 49 48  1  0  0  0  0
 49 51  1  0  0  0  0
 50 49  1  0  0  0  0
 50 51  1  0  0  0  0
 52 54  1  0  0  0  0
 54 55  1  0  0  0  0
 54 53  1  0  0  0  0
 55 56  1  0  0  0  0
 56 61  1  0  0  0  0
 57 58  1  0  0  0  0
 57 56  1  0  0  0  0
 59 57  1  0  0  0  0
 61 60  1  0  0  0  0
M  END
>  <MODEL>
6

>  <REMARK>
 VINA RESULT:      -5.6      4.302      7.768
  Name = 
  21 active torsions:
  status: ('A' for Active; 'I' for Inactive)
    1  A    between atoms: N_1  and  C_32
    2  A    between atoms: N_1  and  C_60
    3  A    between atoms: C_4  and  O_44
    4  A    between atoms: C_7  and  C_47
    5  A    between atoms: C_8  and  N_28
    6  A    between atoms: C_11  and  C_45
    7  A    between atoms: C_18  and  C_20
    8  A    between atoms: C_18  and  C_21
    9  A    between atoms: C_19  and  C_60
   10  A    between atoms: C_21  and  C_24
   11  A    between atoms: C_23  and  C_54
   12  A    between atoms: N_28  and  N_43
   13  A    between atoms: N_28  and  C_53
   14  A    between atoms: C_31  and  C_47
   15  A    between atoms: C_32  and  C_36
   16  A    between atoms: N_34  and  C_52
   17  A    between atoms: C_36  and  N_61
   18  A    between atoms: C_39  and  C_40
   19  A    between atoms: C_39  and  C_53
   20  A    between atoms: C_40  and  C_47
   21  A    between atoms: CA_49  and  C_50
                            x       y       z     vdW  Elec       q    Type
                         _______ _______ _______ _____ _____    ______ ____

>  <TORSDO>
F 21

$$$$
=
 OpenBabel11062420193D

 61 65  0  0  1  0  0  0  0  0999 V2000
  188.2750  176.3220  142.1250 C   0  0  0  0  0  0  0  0  0  0  0  0
  187.5520  176.7890  141.1960 O   0  0  0  0  0  0  0  0  0  0  0  0
  187.9240  173.9350  141.3200 C   0  0  2  0  0  3  0  0  0  0  0  0
  189.8060  172.8910  142.4470 C   0  0  1  0  0  3  0  0  0  0  0  0
  188.6990  174.9450  142.0660 N   0  0  0  0  0  0  0  0  0  0  0  0
  188.3810  172.5900  141.9450 C   0  0  0  0  0  2  0  0  0  0  0  0
  189.7540  174.3490  142.8190 C   0  0  0  0  0  2  0  0  0  0  0  0
  190.0580  177.6630  143.7000 C   0  0  0  0  0  0  0  0  0  0  0  0
  187.5500  177.5990  145.6140 C   0  0  0  0  0  2  0  0  0  0  0  0
  190.3880  176.3590  145.8770 C   0  0  0  0  0  3  0  0  0  0  0  0
  187.9750  176.2230  145.9910 N   0  0  0  0  0  2  0  0  0  0  0  0
  188.5840  177.2410  143.3020 C   0  0  1  0  0  3  0  0  0  0  0  0
  189.2730  175.9070  146.4720 C   0  0  0  0  0  0  0  0  0  0  0  0
  187.5110  177.9300  144.1700 C   0  0  1  0  0  3  0  0  0  0  0  0
  190.6730  177.2470  144.7810 C   0  0  0  0  0  3  0  0  0  0  0  0
  190.6700  175.1740  148.3300 O   0  0  0  0  0  1  0  0  0  0  0  0
  188.6200  174.2110  148.0180 O   0  0  0  0  0  0  0  0  0  0  0  0
  189.4510  175.0550  147.6190 C   0  0  0  0  0  0  0  0  0  0  0  0
  185.1780  178.9240  143.5030 C   0  0  0  0  0  0  0  0  0  0  0  0
  185.5090  180.0950  143.6620 O   0  0  0  0  0  0  0  0  0  0  0  0
  186.0670  177.8260  143.6940 N   0  0  0  0  0  2  0  0  0  0  0  0
  183.7390  178.5740  143.0980 C   0  0  0  0  0  2  0  0  0  0  0  0
  183.4120  178.1440  141.6820 N   0  0  0  0  0  0  0  0  0  0  0  0
  184.5770  178.4610  140.8450 C   0  0  0  0  0  1  0  0  0  0  0  0
  182.2780  178.8120  141.0450 C   0  0  0  0  0  2  0  0  0  0  0  0
  180.9530  178.0220  141.1040 C   0  0  0  0  0  2  0  0  0  0  0  0
  178.8200  178.3200  142.3170 C   0  0  0  0  0  0  0  0  0  0  0  0
  178.0280  179.0220  143.2420 N   0  0  0  0  0  1  0  0  0  0  0  0
  178.2430  177.2800  141.5740 N   0  0  0  0  0  1  0  0  0  0  0  0
  180.0160  178.7690  141.9690 N   0  0  0  0  0  0  0  0  0  0  0  0
  192.1970  178.0500  142.4390 C   0  0  0  0  0  1  0  0  0  0  0  0
  190.8520  178.4100  142.7620 O   0  0  0  0  0  0  0  0  0  0  0  0
  189.6710  173.9500  139.5540 F   0  0  0  0  0  0  0  0  0  0  0  0
  187.8580  172.7490  139.2950 F   0  0  0  0  0  0  0  0  0  0  0  0
  187.7160  174.9500  139.1740 F   0  0  0  0  0  0  0  0  0  0  0  0
  188.2920  173.9210  139.8350 C   0  0  0  0  0  0  0  0  0  0  0  0
  190.3120  172.0210  143.5930 C   0  0  0  0  0  2  0  0  0  0  0  0
  191.7100  171.4390  143.5390 C   0  0  1  0  0  3  0  0  0  0  0  0
  191.9740  170.5690  142.4950 O   0  0  0  0  0  1  0  0  0  0  0  0
  195.0570  171.9890  144.6000 C   0  0  0  0  0  1  0  0  0  0  0  0
  194.1380  174.3390  142.6290 C   0  0  1  0  0  3  0  0  0  0  0  0
  192.7890  172.5730  143.5210 C   0  0  2  0  0  0  0  0  0  0  0  0
  192.7210  173.7170  144.5560 C   0  0  0  0  0  3  0  0  0  0  0  0
  193.7100  172.8880  142.4270 C   0  0  2  0  0  3  0  0  0  0  0  0
  194.1140  170.5660  142.8530 O   0  0  0  0  0  1  0  0  0  0  0  0
  193.4710  174.8800  143.9740 C   0  0  0  0  0  3  0  0  0  0  0  0
  194.1100  171.8000  143.4450 C   0  0  1  0  0  0  0  0  0  0  0  0
  195.6570  174.5610  142.2910 C   0  0  1  0  0  3  0  0  0  0  0  0
  196.2620  175.2070  143.4210 C   0  0  0  0  0  3  0  0  0  0  0  0
  196.2910  176.6850  143.1690 C   0  0  0  0  0  2  0  0  0  0  0  0
  197.5710  175.9280  143.0030 C   0  0  0  0  0  2  0  0  0  0  0  0
  196.5050  173.3140  141.9130 C   0  0  0  0  0  2  0  0  0  0  0  0
  197.8580  173.5510  139.7340 O   0  0  0  0  0  1  0  0  0  0  0  0
  196.6240  173.1830  140.2670 C   0  0  2  0  0  3  0  0  0  0  0  0
  195.4800  173.2860  139.1840 C   0  0  0  0  0  2  0  0  0  0  0  0
  194.3600  172.2240  139.1940 N   0  0  0  0  0  0  0  0  0  0  0  0
  193.2820  172.5780  138.3520 C   0  0  0  0  0  3  0  0  0  0  0  0
  192.9960  174.0750  138.3850 C   0  0  0  0  0  1  0  0  0  0  0  0
  191.9470  171.7700  138.7980 C   0  0  0  0  0  1  0  0  0  0  0  0
  195.6380  171.0520  137.7400 O   0  0  0  0  0  1  0  0  0  0  0  0
  194.8550  170.9570  138.8610 N   0  0  0  0  0  2  0  0  0  0  0  0
  2  1  2  0  0  0  0
  3 36  1  6  0  0  0
  3  6  1  0  0  0  0
  3  5  1  0  0  0  0
  4  7  1  0  0  0  0
  4 37  1  1  0  0  0
  5  1  1  0  0  0  0
  5  7  1  0  0  0  0
  6  4  1  0  0  0  0
  8 15  2  0  0  0  0
  9 11  1  0  0  0  0
 10 13  2  0  0  0  0
 11 13  1  0  0  0  0
 12  1  1  6  0  0  0
 12  8  1  0  0  0  0
 12 14  1  0  0  0  0
 13 18  1  0  0  0  0
 14 21  1  6  0  0  0
 14  9  1  0  0  0  0
 15 10  1  0  0  0  0
 18 17  2  0  0  0  0
 18 16  1  0  0  0  0
 19 20  2  0  0  0  0
 19 21  1  0  0  0  0
 22 19  1  0  0  0  0
 23 22  1  0  0  0  0
 24 23  1  0  0  0  0
 25 26  1  0  0  0  0
 25 23  1  0  0  0  0
 26 30  1  0  0  0  0
 27 28  1  0  0  0  0
 29 27  1  0  0  0  0
 30 27  2  0  0  0  0
 31 32  1  0  0  0  0
 32  8  1  0  0  0  0
 33 36  1  0  0  0  0
 34 36  1  0  0  0  0
 35 36  1  0  0  0  0
 38 39  1  6  0  0  0
 38 37  1  0  0  0  0
 41 48  1  1  0  0  0
 41 46  1  0  0  0  0
 42 38  1  6  0  0  0
 42 43  1  0  0  0  0
 44 41  1  0  0  0  0
 44 47  1  0  0  0  0
 44 42  1  0  0  0  0
 45 47  1  0  0  0  0
 46 43  2  0  0  0  0
 47 42  1  0  0  0  0
 47 40  1  0  0  0  0
 48 49  1  0  0  0  0
 50 49  1  0  0  0  0
 51 50  1  0  0  0  0
 51 49  1  0  0  0  0
 52 48  1  0  0  0  0
 53 54  1  0  0  0  0
 54 52  1  0  0  0  0
 55 56  1  0  0  0  0
 55 54  1  0  0  0  0
 57 58  1  0  0  0  0
 57 59  1  0  0  0  0
 57 56  1  0  0  0  0
 60 61  1  0  0  0  0
 61 56  1  0  0  0  0
M  END
>  <MODEL>
7

>  <REMARK>
 VINA RESULT:      -5.6      2.712     10.487
  Name = 
  21 active torsions:
  status: ('A' for Active; 'I' for Inactive)
    1  A    between atoms: N_1  and  C_32
    2  A    between atoms: N_1  and  C_60
    3  A    between atoms: C_4  and  O_44
    4  A    between atoms: C_7  and  C_47
    5  A    between atoms: C_8  and  N_28
    6  A    between atoms: C_11  and  C_45
    7  A    between atoms: C_18  and  C_20
    8  A    between atoms: C_18  and  C_21
    9  A    between atoms: C_19  and  C_60
   10  A    between atoms: C_21  and  C_24
   11  A    between atoms: C_23  and  C_54
   12  A    between atoms: N_28  and  N_43
   13  A    between atoms: N_28  and  C_53
   14  A    between atoms: C_31  and  C_47
   15  A    between atoms: C_32  and  C_36
   16  A    between atoms: N_34  and  C_52
   17  A    between atoms: C_36  and  N_61
   18  A    between atoms: C_39  and  C_40
   19  A    between atoms: C_39  and  C_53
   20  A    between atoms: C_40  and  C_47
   21  A    between atoms: CA_49  and  C_50
                            x       y       z     vdW  Elec       q    Type
                         _______ _______ _______ _____ _____    ______ ____

>  <TORSDO>
F 21

$$$$
=
 OpenBabel11062420193D

 61 65  0  0  1  0  0  0  0  0999 V2000
  195.4000  171.8480  142.5980 C   0  0  0  0  0  0  0  0  0  0  0  0
  195.8620  170.8820  141.9220 O   0  0  0  0  0  0  0  0  0  0  0  0
  193.1110  171.6320  141.5080 C   0  0  2  0  0  3  0  0  0  0  0  0
  191.8080  172.8520  143.1550 C   0  0  1  0  0  3  0  0  0  0  0  0
  193.9770  172.0800  142.6160 N   0  0  0  0  0  0  0  0  0  0  0  0
  191.8460  172.5200  141.6520 C   0  0  0  0  0  2  0  0  0  0  0  0
  193.2600  172.8840  143.5520 C   0  0  0  0  0  2  0  0  0  0  0  0
  196.8530  172.5640  144.7960 C   0  0  0  0  0  0  0  0  0  0  0  0
  196.9360  175.2610  143.1600 C   0  0  0  0  0  2  0  0  0  0  0  0
  195.7150  174.5580  145.9300 C   0  0  0  0  0  3  0  0  0  0  0  0
  195.5920  175.5540  143.7280 N   0  0  0  0  0  2  0  0  0  0  0  0
  196.4030  172.7630  143.2900 C   0  0  1  0  0  3  0  0  0  0  0  0
  195.3110  175.5490  145.1200 C   0  0  0  0  0  0  0  0  0  0  0  0
  197.1580  173.9120  142.5890 C   0  0  1  0  0  3  0  0  0  0  0  0
  196.5180  173.3720  145.7730 C   0  0  0  0  0  3  0  0  0  0  0  0
  195.1540  177.8860  145.7920 O   0  0  0  0  0  0  0  0  0  0  0  0
  193.4040  176.4770  146.2110 O   0  0  0  0  0  1  0  0  0  0  0  0
  194.5480  176.6090  145.7260 C   0  0  0  0  0  0  0  0  0  0  0  0
  196.9800  175.2130  140.3200 C   0  0  0  0  0  0  0  0  0  0  0  0
  197.1020  176.3260  140.8220 O   0  0  0  0  0  0  0  0  0  0  0  0
  197.0200  174.0040  141.0740 N   0  0  0  0  0  2  0  0  0  0  0  0
  196.7500  175.0660  138.8090 C   0  0  0  0  0  2  0  0  0  0  0  0
  196.1830  173.7880  138.2280 N   0  0  0  0  0  0  0  0  0  0  0  0
  196.2080  173.9200  136.7640 C   0  0  0  0  0  1  0  0  0  0  0  0
  194.7960  173.4770  138.5700 C   0  0  0  0  0  2  0  0  0  0  0  0
  194.2420  172.2010  137.9010 C   0  0  0  0  0  2  0  0  0  0  0  0
  192.2630  172.2370  136.4200 C   0  0  0  0  0  0  0  0  0  0  0  0
  190.8730  172.3480  136.2390 N   0  0  0  0  0  1  0  0  0  0  0  0
  193.0960  172.1760  135.2930 N   0  0  0  0  0  1  0  0  0  0  0  0
  192.8090  172.4260  137.6110 N   0  0  0  0  0  0  0  0  0  0  0  0
  197.0450  170.5030  146.2190 C   0  0  0  0  0  1  0  0  0  0  0  0
  197.5260  171.3510  145.1750 O   0  0  0  0  0  0  0  0  0  0  0  0
  191.3160  169.9160  141.5100 F   0  0  0  0  0  0  0  0  0  0  0  0
  193.2910  169.4380  140.6930 F   0  0  0  0  0  0  0  0  0  0  0  0
  193.0600  169.6820  142.8760 F   0  0  0  0  0  0  0  0  0  0  0  0
  192.6910  170.1700  141.6710 C   0  0  0  0  0  0  0  0  0  0  0  0
  191.0770  174.1340  143.5400 C   0  0  0  0  0  2  0  0  0  0  0  0
  189.6040  174.2900  143.2180 C   0  0  1  0  0  3  0  0  0  0  0  0
  188.8680  173.1200  143.1300 O   0  0  0  0  0  1  0  0  0  0  0  0
  189.7210  177.6840  144.2640 C   0  0  0  0  0  1  0  0  0  0  0  0
  187.1050  176.2690  145.4480 C   0  0  1  0  0  3  0  0  0  0  0  0
  188.9020  175.2390  144.2450 C   0  0  2  0  0  0  0  0  0  0  0  0
  189.3200  175.2090  145.7320 C   0  0  0  0  0  3  0  0  0  0  0  0
  187.6410  175.9600  144.0520 C   0  0  2  0  0  3  0  0  0  0  0  0
  188.9730  176.6450  142.1840 O   0  0  0  0  0  1  0  0  0  0  0  0
  188.1640  175.7510  146.5230 C   0  0  0  0  0  3  0  0  0  0  0  0
  188.9510  176.6050  143.5510 C   0  0  1  0  0  0  0  0  0  0  0  0
  186.4490  177.6950  145.5270 C   0  0  1  0  0  3  0  0  0  0  0  0
  186.8790  178.3010  146.7550 C   0  0  0  0  0  3  0  0  0  0  0  0
  185.9990  177.8120  147.8650 C   0  0  0  0  0  2  0  0  0  0  0  0
  185.7570  179.1950  147.3470 C   0  0  0  0  0  2  0  0  0  0  0  0
  186.7190  178.6830  144.3580 C   0  0  0  0  0  2  0  0  0  0  0  0
  186.2800  178.8330  141.8240 O   0  0  0  0  0  1  0  0  0  0  0  0
  185.8880  178.2100  143.0080 C   0  0  2  0  0  3  0  0  0  0  0  0
  184.4110  177.6610  142.9010 C   0  0  0  0  0  2  0  0  0  0  0  0
  183.2940  178.6330  142.4680 N   0  0  0  0  0  0  0  0  0  0  0  0
  182.4660  178.0820  141.4640 C   0  0  0  0  0  3  0  0  0  0  0  0
  183.2030  177.9170  140.1400 C   0  0  0  0  0  1  0  0  0  0  0  0
  181.1680  179.0300  141.2380 C   0  0  0  0  0  1  0  0  0  0  0  0
  183.3070  179.0470  144.6920 O   0  0  0  0  0  1  0  0  0  0  0  0
  182.5300  179.0550  143.5640 N   0  0  0  0  0  2  0  0  0  0  0  0
  1  5  1  0  0  0  0
  2  1  2  0  0  0  0
  3  6  1  0  0  0  0
  3 36  1  1  0  0  0
  3  5  1  0  0  0  0
  4 37  1  6  0  0  0
  4  7  1  0  0  0  0
  5  7  1  0  0  0  0
  6  4  1  0  0  0  0
  8 32  1  0  0  0  0
  8 15  2  0  0  0  0
  9 11  1  0  0  0  0
 11 13  1  0  0  0  0
 12  1  1  6  0  0  0
 12  8  1  0  0  0  0
 13 18  1  0  0  0  0
 13 10  2  0  0  0  0
 14 21  1  6  0  0  0
 14  9  1  0  0  0  0
 14 12  1  0  0  0  0
 15 10  1  0  0  0  0
 18 16  2  0  0  0  0
 18 17  1  0  0  0  0
 19 20  2  0  0  0  0
 19 21  1  0  0  0  0
 22 19  1  0  0  0  0
 23 25  1  0  0  0  0
 23 22  1  0  0  0  0
 24 23  1  0  0  0  0
 26 25  1  0  0  0  0
 27 30  2  0  0  0  0
 28 27  1  0  0  0  0
 29 27  1  0  0  0  0
 30 26  1  0  0  0  0
 32 31  1  0  0  0  0
 33 36  1  0  0  0  0
 34 36  1  0  0  0  0
 36 35  1  0  0  0  0
 38 39  1  1  0  0  0
 38 37  1  0  0  0  0
 41 48  1  6  0  0  0
 41 46  1  0  0  0  0
 42 38  1  6  0  0  0
 42 43  1  0  0  0  0
 43 46  2  0  0  0  0
 44 42  1  0  0  0  0
 44 41  1  0  0  0  0
 45 47  1  0  0  0  0
 47 44  1  0  0  0  0
 47 42  1  0  0  0  0
 47 40  1  0  0  0  0
 48 49  1  0  0  0  0
 49 51  1  0  0  0  0
 49 50  1  0  0  0  0
 51 50  1  0  0  0  0
 52 48  1  0  0  0  0
 53 54  1  0  0  0  0
 54 52  1  0  0  0  0
 55 54  1  0  0  0  0
 56 55  1  0  0  0  0
 56 61  1  0  0  0  0
 57 56  1  0  0  0  0
 58 57  1  0  0  0  0
 59 57  1  0  0  0  0
 61 60  1  0  0  0  0
M  END
>  <MODEL>
8

>  <REMARK>
 VINA RESULT:      -5.6      2.240      2.686
  Name = 
  21 active torsions:
  status: ('A' for Active; 'I' for Inactive)
    1  A    between atoms: N_1  and  C_32
    2  A    between atoms: N_1  and  C_60
    3  A    between atoms: C_4  and  O_44
    4  A    between atoms: C_7  and  C_47
    5  A    between atoms: C_8  and  N_28
    6  A    between atoms: C_11  and  C_45
    7  A    between atoms: C_18  and  C_20
    8  A    between atoms: C_18  and  C_21
    9  A    between atoms: C_19  and  C_60
   10  A    between atoms: C_21  and  C_24
   11  A    between atoms: C_23  and  C_54
   12  A    between atoms: N_28  and  N_43
   13  A    between atoms: N_28  and  C_53
   14  A    between atoms: C_31  and  C_47
   15  A    between atoms: C_32  and  C_36
   16  A    between atoms: N_34  and  C_52
   17  A    between atoms: C_36  and  N_61
   18  A    between atoms: C_39  and  C_40
   19  A    between atoms: C_39  and  C_53
   20  A    between atoms: C_40  and  C_47
   21  A    between atoms: CA_49  and  C_50
                            x       y       z     vdW  Elec       q    Type
                         _______ _______ _______ _____ _____    ______ ____

>  <TORSDO>
F 21

$$$$
=
 OpenBabel11062420193D

 61 65  0  0  1  0  0  0  0  0999 V2000
  193.9410  171.6480  142.1070 C   0  0  0  0  0  0  0  0  0  0  0  0
  194.4140  170.6400  141.5040 O   0  0  0  0  0  0  0  0  0  0  0  0
  191.9530  171.7720  140.5230 C   0  0  2  0  0  3  0  0  0  0  0  0
  190.4810  173.1320  141.8960 C   0  0  1  0  0  3  0  0  0  0  0  0
  192.5940  172.0750  141.8180 N   0  0  0  0  0  0  0  0  0  0  0  0
  190.8170  172.8250  140.4250 C   0  0  0  0  0  2  0  0  0  0  0  0
  191.7950  172.9540  142.6090 C   0  0  0  0  0  2  0  0  0  0  0  0
  195.0240  172.0340  144.5830 C   0  0  0  0  0  0  0  0  0  0  0  0
  195.6120  174.8410  143.2660 C   0  0  0  0  0  2  0  0  0  0  0  0
  193.8600  174.0220  145.6980 C   0  0  0  0  0  3  0  0  0  0  0  0
  194.2140  175.2090  143.6200 N   0  0  0  0  0  2  0  0  0  0  0  0
  194.8710  172.4020  143.0500 C   0  0  1  0  0  3  0  0  0  0  0  0
  193.6870  175.1130  144.9350 C   0  0  0  0  0  0  0  0  0  0  0  0
  195.8270  173.5300  142.6090 C   0  0  1  0  0  3  0  0  0  0  0  0
  194.5830  172.7840  145.5640 C   0  0  0  0  0  3  0  0  0  0  0  0
  191.9550  175.8390  146.4880 O   0  0  0  0  0  1  0  0  0  0  0  0
  193.0100  177.3870  145.1780 O   0  0  0  0  0  0  0  0  0  0  0  0
  192.9120  176.1840  145.5030 C   0  0  0  0  0  0  0  0  0  0  0  0
  195.0040  174.3910  140.2730 C   0  0  0  0  0  0  0  0  0  0  0  0
  193.9510  174.8590  140.6940 O   0  0  0  0  0  0  0  0  0  0  0  0
  195.9730  173.7630  141.1100 N   0  0  0  0  0  2  0  0  0  0  0  0
  195.3300  174.4430  138.7730 C   0  0  0  0  0  2  0  0  0  0  0  0
  196.1740  173.3660  138.1220 N   0  0  0  0  0  0  0  0  0  0  0  0
  197.1130  174.0340  137.2100 C   0  0  0  0  0  1  0  0  0  0  0  0
  195.4610  172.3880  137.3020 C   0  0  0  0  0  2  0  0  0  0  0  0
  195.0450  171.1050  138.0530 C   0  0  0  0  0  2  0  0  0  0  0  0
  196.7150  169.4310  137.3270 C   0  0  0  0  0  0  0  0  0  0  0  0
  197.9370  168.7640  137.5150 N   0  0  0  0  0  1  0  0  0  0  0  0
  195.8600  169.0150  136.2950 N   0  0  0  0  0  1  0  0  0  0  0  0
  196.2540  170.2750  138.2390 N   0  0  0  0  0  0  0  0  0  0  0  0
  194.6560  169.6250  145.1930 C   0  0  0  0  0  1  0  0  0  0  0  0
  195.5210  170.7350  144.9480 O   0  0  0  0  0  0  0  0  0  0  0  0
  189.9210  170.3550  140.3470 F   0  0  0  0  0  0  0  0  0  0  0  0
  191.8050  169.6920  139.4470 F   0  0  0  0  0  0  0  0  0  0  0  0
  191.6080  169.7000  141.6470 F   0  0  0  0  0  0  0  0  0  0  0  0
  191.3190  170.3800  140.5160 C   0  0  0  0  0  0  0  0  0  0  0  0
  189.8550  174.4960  142.1700 C   0  0  0  0  0  2  0  0  0  0  0  0
  188.4660  174.8090  141.6500 C   0  0  1  0  0  3  0  0  0  0  0  0
  187.6430  173.7230  141.4060 O   0  0  0  0  0  1  0  0  0  0  0  0
  187.9150  178.2980  142.0380 C   0  0  0  0  0  1  0  0  0  0  0  0
  185.9220  176.6630  143.9360 C   0  0  1  0  0  3  0  0  0  0  0  0
  187.7160  175.7920  142.6100 C   0  0  2  0  0  0  0  0  0  0  0  0
  188.3440  176.1700  143.9690 C   0  0  0  0  0  3  0  0  0  0  0  0
  186.3050  176.1770  142.5400 C   0  0  2  0  0  3  0  0  0  0  0  0
  187.1410  176.7030  140.3580 O   0  0  0  0  0  1  0  0  0  0  0  0
  187.2220  176.6190  144.8600 C   0  0  0  0  0  3  0  0  0  0  0  0
  187.3310  176.9560  141.6900 C   0  0  1  0  0  0  0  0  0  0  0  0
  184.9600  177.9050  143.8880 C   0  0  1  0  0  3  0  0  0  0  0  0
  185.3710  178.8100  144.9230 C   0  0  0  0  0  3  0  0  0  0  0  0
  185.3970  178.0690  146.2250 C   0  0  0  0  0  2  0  0  0  0  0  0
  184.2440  178.9880  145.9740 C   0  0  0  0  0  2  0  0  0  0  0  0
  184.8560  178.6880  142.5490 C   0  0  0  0  0  2  0  0  0  0  0  0
  183.4370  178.5650  140.4030 O   0  0  0  0  0  1  0  0  0  0  0  0
  183.4470  178.3020  141.7710 C   0  0  2  0  0  3  0  0  0  0  0  0
  181.9800  178.2520  142.3530 C   0  0  0  0  0  2  0  0  0  0  0  0
  180.8020  178.5620  141.4060 N   0  0  0  0  0  0  0  0  0  0  0  0
  179.6660  177.7710  141.6910 C   0  0  0  0  0  3  0  0  0  0  0  0
  178.8360  177.4880  140.4440 C   0  0  0  0  0  1  0  0  0  0  0  0
  178.7370  178.5180  142.7920 C   0  0  0  0  0  1  0  0  0  0  0  0
  180.3960  180.3940  140.1420 O   0  0  0  0  0  1  0  0  0  0  0  0
  180.4750  179.9240  141.4260 N   0  0  0  0  0  2  0  0  0  0  0  0
  2  1  2  0  0  0  0
  3 36  1  1  0  0  0
  3  5  1  0  0  0  0
  4 37  1  6  0  0  0
  4  7  1  0  0  0  0
  5  1  1  0  0  0  0
  5  7  1  0  0  0  0
  6  3  1  0  0  0  0
  6  4  1  0  0  0  0
  8 32  1  0  0  0  0
  8 15  2  0  0  0  0
  9 11  1  0  0  0  0
 11 13  1  0  0  0  0
 12  1  1  6  0  0  0
 12  8  1  0  0  0  0
 13 18  1  0  0  0  0
 13 10  2  0  0  0  0
 14 21  1  6  0  0  0
 14 12  1  0  0  0  0
 14  9  1  0  0  0  0
 15 10  1  0  0  0  0
 17 18  2  0  0  0  0
 18 16  1  0  0  0  0
 19 20  2  0  0  0  0
 19 21  1  0  0  0  0
 22 19  1  0  0  0  0
 23 22  1  0  0  0  0
 24 23  1  0  0  0  0
 25 26  1  0  0  0  0
 25 23  1  0  0  0  0
 26 30  1  0  0  0  0
 27 28  1  0  0  0  0
 27 30  2  0  0  0  0
 29 27  1  0  0  0  0
 32 31  1  0  0  0  0
 33 36  1  0  0  0  0
 34 36  1  0  0  0  0
 36 35  1  0  0  0  0
 38 39  1  1  0  0  0
 38 37  1  0  0  0  0
 41 48  1  6  0  0  0
 41 46  1  0  0  0  0
 42 38  1  6  0  0  0
 42 43  1  0  0  0  0
 43 46  2  0  0  0  0
 44 42  1  0  0  0  0
 44 41  1  0  0  0  0
 45 47  1  0  0  0  0
 47 40  1  0  0  0  0
 47 44  1  0  0  0  0
 47 42  1  0  0  0  0
 48 49  1  0  0  0  0
 49 51  1  0  0  0  0
 49 50  1  0  0  0  0
 51 50  1  0  0  0  0
 52 48  1  0  0  0  0
 53 54  1  0  0  0  0
 54 55  1  0  0  0  0
 54 52  1  0  0  0  0
 56 61  1  0  0  0  0
 56 57  1  0  0  0  0
 56 55  1  0  0  0  0
 57 59  1  0  0  0  0
 58 57  1  0  0  0  0
 60 61  1  0  0  0  0
M  END
>  <MODEL>
9

>  <REMARK>
 VINA RESULT:      -5.6      1.541      2.404
  Name = 
  21 active torsions:
  status: ('A' for Active; 'I' for Inactive)
    1  A    between atoms: N_1  and  C_32
    2  A    between atoms: N_1  and  C_60
    3  A    between atoms: C_4  and  O_44
    4  A    between atoms: C_7  and  C_47
    5  A    between atoms: C_8  and  N_28
    6  A    between atoms: C_11  and  C_45
    7  A    between atoms: C_18  and  C_20
    8  A    between atoms: C_18  and  C_21
    9  A    between atoms: C_19  and  C_60
   10  A    between atoms: C_21  and  C_24
   11  A    between atoms: C_23  and  C_54
   12  A    between atoms: N_28  and  N_43
   13  A    between atoms: N_28  and  C_53
   14  A    between atoms: C_31  and  C_47
   15  A    between atoms: C_32  and  C_36
   16  A    between atoms: N_34  and  C_52
   17  A    between atoms: C_36  and  N_61
   18  A    between atoms: C_39  and  C_40
   19  A    between atoms: C_39  and  C_53
   20  A    between atoms: C_40  and  C_47
   21  A    between atoms: CA_49  and  C_50
                            x       y       z     vdW  Elec       q    Type
                         _______ _______ _______ _____ _____    ______ ____

>  <TORSDO>
F 21

$$$$
