=
 OpenBabel11062419283D

 38 44  0  0  1  0  0  0  0  0999 V2000
  190.9770  175.9300  146.7330 C   0  0  0  0  0  2  0  0  0  0  0  0
  193.5470  175.9870  144.5390 C   0  0  0  0  0  0  0  0  0  0  0  0
  194.7440  177.6420  145.9130 O   0  0  0  0  0  0  0  0  0  0  0  0
  192.2180  175.2730  147.3330 C   0  0  2  0  0  3  0  0  0  0  0  0
  193.4690  175.8220  146.7230 N   0  0  0  0  0  0  0  0  0  0  0  0
  193.7740  176.4020  143.3700 O   0  0  0  0  0  0  0  0  0  0  0  0
  193.9640  176.6670  145.7490 C   0  0  0  0  0  0  0  0  0  0  0  0
  192.9120  174.4820  146.4450 C   0  0  2  0  0  3  0  0  0  0  0  0
  192.7770  174.6900  144.8850 C   0  0  2  0  0  3  0  0  0  0  0  0
  193.5050  173.2740  144.0030 S   0  0  0  0  0  0  0  0  0  0  0  0
  191.9010  172.5860  143.5720 C   0  0  0  0  0  0  0  0  0  0  0  0
  190.5960  170.9580  142.3280 C   0  0  0  0  0  0  0  0  0  0  0  0
  190.8030  173.3650  143.6540 C   0  0  0  0  0  3  0  0  0  0  0  0
  191.7370  171.1170  143.2390 C   0  0  1  0  0  3  0  0  0  0  0  0
  192.8460  170.5180  142.3710 C   0  0  0  0  0  2  0  0  0  0  0  0
  189.4400  172.7610  143.3830 C   0  0  1  0  0  3  0  0  0  0  0  0
  188.5600  173.7420  142.9690 F   0  0  0  0  0  0  0  0  0  0  0  0
  190.8920  170.0860  141.3150 O   0  0  0  0  0  0  0  0  0  0  0  0
  189.5390  171.7120  142.3620 N   0  0  0  0  0  0  0  0  0  0  0  0
  192.2070  169.6770  141.3400 N   0  0  0  0  0  2  0  0  0  0  0  0
  189.7540  175.0400  146.9100 C   0  0  0  0  0  2  0  0  0  0  0  0
  185.9450  176.7360  145.7090 C   0  0  0  0  0  2  0  0  0  0  0  0
  188.0730  176.9940  144.3310 C   0  0  1  0  0  3  0  0  0  0  0  0
  187.4370  178.3210  146.9440 C   0  0  0  0  0  2  0  0  0  0  0  0
  188.2270  177.0070  147.0260 C   0  0  2  0  0  0  0  0  0  0  0  0
  188.9110  176.9500  145.6280 C   0  0  1  0  0  3  0  0  0  0  0  0
  186.3680  178.6970  144.4270 F   0  0  0  0  0  0  0  0  0  0  0  0
  186.5640  177.3230  144.4330 C   0  0  2  0  0  0  0  0  0  0  0  0
  186.6730  177.0520  147.0390 C   0  0  2  0  0  3  0  0  0  0  0  0
  188.5230  175.6880  146.3030 C   0  0  1  0  0  3  0  0  0  0  0  0
  186.2080  175.6120  142.7880 O   0  0  0  0  0  1  0  0  0  0  0  0
  185.8520  176.7310  143.2490 C   0  0  0  0  0  0  0  0  0  0  0  0
  184.8150  177.4220  142.6380 O   0  0  0  0  0  0  0  0  0  0  0  0
  188.1210  178.5260  142.4930 O   0  0  0  0  0  0  0  0  0  0  0  0
  188.7800  177.7780  143.2630 C   0  0  0  0  0  0  0  0  0  0  0  0
  191.0620  178.6770  143.5950 O   0  0  0  0  0  1  0  0  0  0  0  0
  190.2350  177.6740  143.1040 C   0  0  0  0  0  0  0  0  0  0  0  0
  190.7460  176.6750  142.5310 O   0  0  0  0  0  0  0  0  0  0  0  0
  1 21  1  0  0  0  0
  2  9  1  0  0  0  0
  2  7  1  0  0  0  0
  4  1  1  6  0  0  0
  5  4  1  0  0  0  0
  6  2  2  0  0  0  0
  7  3  2  0  0  0  0
  7  5  1  0  0  0  0
  8  5  1  1  0  0  0
  8  4  1  0  0  0  0
  9 10  1  6  0  0  0
  9  8  1  0  0  0  0
 11 13  2  0  0  0  0
 11 10  1  0  0  0  0
 12 19  2  0  0  0  0
 12 14  1  0  0  0  0
 14 15  1  6  0  0  0
 14 11  1  0  0  0  0
 16 17  1  6  0  0  0
 16 13  1  0  0  0  0
 18 20  1  0  0  0  0
 18 12  1  0  0  0  0
 19 16  1  0  0  0  0
 20 15  1  0  0  0  0
 22 29  1  0  0  0  0
 23 35  1  6  0  0  0
 23 28  1  0  0  0  0
 23 26  1  0  0  0  0
 24 29  1  0  0  0  0
 25 24  1  1  0  0  0
 25 29  1  0  0  0  0
 26 30  1  0  0  0  0
 26 25  1  0  0  0  0
 27 28  1  0  0  0  0
 28 22  1  0  0  0  0
 30 21  1  0  0  0  0
 30 25  1  0  0  0  0
 31 32  1  0  0  0  0
 32 28  1  0  0  0  0
 33 32  2  0  0  0  0
 34 35  2  0  0  0  0
 37 35  1  0  0  0  0
 37 36  1  0  0  0  0
 38 37  2  0  0  0  0
M  END
>  <MODEL>
1

>  <REMARK>
 VINA RESULT:      -7.6      0.000      0.000
  Name = 
  8 active torsions:
  status: ('A' for Active; 'I' for Inactive)
    1  A    between atoms: C_3  and  C_6
    2  A    between atoms: C_3  and  C_15
    3  A    between atoms: C_5  and  S_19
    4  A    between atoms: C_6  and  C_36
    5  A    between atoms: C_8  and  C_38
    6  A    between atoms: C_12  and  C_38
    7  A    between atoms: S_19  and  C_37
    8  A    between atoms: C_26  and  C_28
                            x       y       z     vdW  Elec       q    Type
                         _______ _______ _______ _____ _____    ______ ____

>  <TORSDO>
F 8

$$$$
=
 OpenBabel11062419283D

 38 44  0  0  1  0  0  0  0  0999 V2000
  191.2330  176.8090  143.9510 C   0  0  0  0  0  2  0  0  0  0  0  0
  193.9120  175.5520  142.3170 C   0  0  0  0  0  0  0  0  0  0  0  0
  195.4470  176.5980  143.9320 O   0  0  0  0  0  0  0  0  0  0  0  0
  191.9080  175.7160  144.7760 C   0  0  2  0  0  3  0  0  0  0  0  0
  193.3610  175.6030  144.4380 N   0  0  0  0  0  0  0  0  0  0  0  0
  194.5160  175.7330  141.2250 O   0  0  0  0  0  0  0  0  0  0  0  0
  194.3570  176.0640  143.5980 C   0  0  0  0  0  0  0  0  0  0  0  0
  192.3230  174.6340  144.0310 C   0  0  2  0  0  3  0  0  0  0  0  0
  192.5900  174.7630  142.4790 C   0  0  2  0  0  3  0  0  0  0  0  0
  192.7510  173.1100  141.7360 S   0  0  0  0  0  0  0  0  0  0  0  0
  191.4000  173.3830  140.5830 C   0  0  0  0  0  0  0  0  0  0  0  0
  189.0240  173.2700  140.0900 C   0  0  0  0  0  0  0  0  0  0  0  0
  191.6490  173.3730  139.2580 C   0  0  0  0  0  3  0  0  0  0  0  0
  190.0110  173.7470  141.0670 C   0  0  1  0  0  3  0  0  0  0  0  0
  189.5340  172.9870  142.3070 C   0  0  0  0  0  2  0  0  0  0  0  0
  190.5310  173.6970  138.2870 C   0  0  1  0  0  3  0  0  0  0  0  0
  190.7850  173.1180  137.0590 F   0  0  0  0  0  0  0  0  0  0  0  0
  187.9570  172.6820  140.7130 O   0  0  0  0  0  0  0  0  0  0  0  0
  189.2460  173.2210  138.8110 N   0  0  0  0  0  0  0  0  0  0  0  0
  188.1340  172.5800  142.0750 N   0  0  0  0  0  2  0  0  0  0  0  0
  190.3690  177.6980  144.8340 C   0  0  0  0  0  2  0  0  0  0  0  0
  186.7620  178.3220  142.5020 C   0  0  0  0  0  2  0  0  0  0  0  0
  186.7290  177.8440  145.0050 C   0  0  1  0  0  3  0  0  0  0  0  0
  187.3930  175.9190  142.8050 C   0  0  0  0  0  2  0  0  0  0  0  0
  188.5810  176.6460  143.4490 C   0  0  2  0  0  0  0  0  0  0  0  0
  188.0180  177.0060  144.8570 C   0  0  1  0  0  3  0  0  0  0  0  0
  184.9940  177.0870  143.5110 F   0  0  0  0  0  0  0  0  0  0  0  0
  185.8790  178.1300  143.7440 C   0  0  2  0  0  0  0  0  0  0  0  0
  187.8140  177.2190  142.2250 C   0  0  2  0  0  3  0  0  0  0  0  0
  189.0010  177.9090  144.2100 C   0  0  1  0  0  3  0  0  0  0  0  0
  185.6750  180.5090  143.9910 O   0  0  0  0  0  0  0  0  0  0  0  0
  185.0910  179.3910  143.9590 C   0  0  0  0  0  0  0  0  0  0  0  0
  183.7170  179.3340  144.1520 O   0  0  0  0  0  1  0  0  0  0  0  0
  185.4220  176.2100  146.1670 O   0  0  0  0  0  0  0  0  0  0  0  0
  185.9140  177.3700  146.1740 C   0  0  0  0  0  0  0  0  0  0  0  0
  186.7500  178.6920  148.0910 O   0  0  0  0  0  1  0  0  0  0  0  0
  185.6790  178.2500  147.3240 C   0  0  0  0  0  0  0  0  0  0  0  0
  184.5110  178.6190  147.6190 O   0  0  0  0  0  0  0  0  0  0  0  0
  1 21  1  0  0  0  0
  2  9  1  0  0  0  0
  2  7  1  0  0  0  0
  4  1  1  6  0  0  0
  5  4  1  0  0  0  0
  6  2  2  0  0  0  0
  7  3  2  0  0  0  0
  7  5  1  0  0  0  0
  8  5  1  1  0  0  0
  8  4  1  0  0  0  0
  9 10  1  1  0  0  0
  9  8  1  0  0  0  0
 11 14  1  0  0  0  0
 11 10  1  0  0  0  0
 12 18  1  0  0  0  0
 12 14  1  0  0  0  0
 13 11  2  0  0  0  0
 14 15  1  1  0  0  0
 16 17  1  6  0  0  0
 16 19  1  0  0  0  0
 16 13  1  0  0  0  0
 18 20  1  0  0  0  0
 19 12  2  0  0  0  0
 20 15  1  0  0  0  0
 22 28  1  0  0  0  0
 23 35  1  1  0  0  0
 25 24  1  6  0  0  0
 25 30  1  0  0  0  0
 25 26  1  0  0  0  0
 26 23  1  0  0  0  0
 27 28  1  0  0  0  0
 28 32  1  0  0  0  0
 28 23  1  0  0  0  0
 29 22  1  0  0  0  0
 29 24  1  0  0  0  0
 29 25  1  0  0  0  0
 30 21  1  0  0  0  0
 30 26  1  0  0  0  0
 32 31  2  0  0  0  0
 32 33  1  0  0  0  0
 34 35  2  0  0  0  0
 35 37  1  0  0  0  0
 37 38  2  0  0  0  0
 37 36  1  0  0  0  0
M  END
>  <MODEL>
2

>  <REMARK>
 VINA RESULT:      -7.6      2.827      3.959
  Name = 
  8 active torsions:
  status: ('A' for Active; 'I' for Inactive)
    1  A    between atoms: C_3  and  C_6
    2  A    between atoms: C_3  and  C_15
    3  A    between atoms: C_5  and  S_19
    4  A    between atoms: C_6  and  C_36
    5  A    between atoms: C_8  and  C_38
    6  A    between atoms: C_12  and  C_38
    7  A    between atoms: S_19  and  C_37
    8  A    between atoms: C_26  and  C_28
                            x       y       z     vdW  Elec       q    Type
                         _______ _______ _______ _____ _____    ______ ____

>  <TORSDO>
F 8

$$$$
=
 OpenBabel11062419283D

 38 44  0  0  1  0  0  0  0  0999 V2000
  191.4510  172.4980  144.6100 C   0  0  0  0  0  2  0  0  0  0  0  0
  194.1780  170.6550  145.3810 C   0  0  0  0  0  0  0  0  0  0  0  0
  193.3860  168.8050  143.9640 O   0  0  0  0  0  0  0  0  0  0  0  0
  192.3760  172.3650  143.4030 C   0  0  2  0  0  3  0  0  0  0  0  0
  193.1890  171.1120  143.4790 N   0  0  0  0  0  0  0  0  0  0  0  0
  194.6440  170.0410  146.3790 O   0  0  0  0  0  0  0  0  0  0  0  0
  193.4970  170.0210  144.2690 C   0  0  0  0  0  0  0  0  0  0  0  0
  193.7140  172.4720  143.7130 C   0  0  2  0  0  3  0  0  0  0  0  0
  194.2400  172.1870  145.1750 C   0  0  2  0  0  3  0  0  0  0  0  0
  195.9550  172.7740  145.3440 S   0  0  0  0  0  0  0  0  0  0  0  0
  195.4970  174.4970  145.1210 C   0  0  0  0  0  0  0  0  0  0  0  0
  195.9270  176.6530  144.0870 C   0  0  0  0  0  0  0  0  0  0  0  0
  194.8090  175.1300  146.0930 C   0  0  0  0  0  3  0  0  0  0  0  0
  195.7560  175.2200  143.8140 C   0  0  1  0  0  3  0  0  0  0  0  0
  197.1070  174.9190  143.1610 C   0  0  0  0  0  2  0  0  0  0  0  0
  194.3390  176.5540  145.8670 C   0  0  1  0  0  3  0  0  0  0  0  0
  194.1770  177.1980  147.0780 F   0  0  0  0  0  0  0  0  0  0  0  0
  196.9790  177.1670  143.3790 O   0  0  0  0  0  0  0  0  0  0  0  0
  195.3020  177.2830  145.0340 N   0  0  0  0  0  0  0  0  0  0  0  0
  197.6760  176.1970  142.6920 N   0  0  0  0  0  2  0  0  0  0  0  0
  190.0230  172.7880  144.1690 C   0  0  0  0  0  2  0  0  0  0  0  0
  188.3650  175.6080  147.0210 C   0  0  0  0  0  2  0  0  0  0  0  0
  188.8470  176.2140  144.5930 C   0  0  1  0  0  3  0  0  0  0  0  0
  190.8520  175.7360  146.7700 C   0  0  0  0  0  2  0  0  0  0  0  0
  190.5030  174.5250  145.8930 C   0  0  2  0  0  0  0  0  0  0  0  0
  190.0150  175.2040  144.5790 C   0  0  1  0  0  3  0  0  0  0  0  0
  189.0570  177.7990  146.3980 F   0  0  0  0  0  0  0  0  0  0  0  0
  188.3130  176.7140  145.9560 C   0  0  2  0  0  0  0  0  0  0  0  0
  189.7180  174.8740  147.1890 C   0  0  2  0  0  3  0  0  0  0  0  0
  189.4220  173.9110  144.9960 C   0  0  1  0  0  3  0  0  0  0  0  0
  186.0370  176.3630  145.2780 O   0  0  0  0  0  0  0  0  0  0  0  0
  186.8830  177.1450  145.7960 C   0  0  0  0  0  0  0  0  0  0  0  0
  186.4850  178.4150  146.1900 O   0  0  0  0  0  1  0  0  0  0  0  0
  190.0720  178.0890  143.7510 O   0  0  0  0  0  0  0  0  0  0  0  0
  189.0840  177.3210  143.6070 C   0  0  0  0  0  0  0  0  0  0  0  0
  187.1980  178.5140  142.5380 O   0  0  0  0  0  1  0  0  0  0  0  0
  188.1690  177.5220  142.4770 C   0  0  0  0  0  0  0  0  0  0  0  0
  188.2620  176.8070  141.4450 O   0  0  0  0  0  0  0  0  0  0  0  0
  2  6  2  0  0  0  0
  3  7  2  0  0  0  0
  4  5  1  0  0  0  0
  4  8  1  0  0  0  0
  4  1  1  1  0  0  0
  5  7  1  0  0  0  0
  7  2  1  0  0  0  0
  8  5  1  6  0  0  0
  8  9  1  0  0  0  0
  9 10  1  6  0  0  0
  9  2  1  0  0  0  0
 11 10  1  0  0  0  0
 11 13  2  0  0  0  0
 12 19  2  0  0  0  0
 14 15  1  1  0  0  0
 14 12  1  0  0  0  0
 14 11  1  0  0  0  0
 16 13  1  0  0  0  0
 16 17  1  1  0  0  0
 18 12  1  0  0  0  0
 19 16  1  0  0  0  0
 20 15  1  0  0  0  0
 20 18  1  0  0  0  0
 21  1  1  0  0  0  0
 21 30  1  0  0  0  0
 22 29  1  0  0  0  0
 23 35  1  6  0  0  0
 23 28  1  0  0  0  0
 24 29  1  0  0  0  0
 25 24  1  1  0  0  0
 25 29  1  0  0  0  0
 26 23  1  0  0  0  0
 26 30  1  0  0  0  0
 26 25  1  0  0  0  0
 28 27  1  0  0  0  0
 28 22  1  0  0  0  0
 30 25  1  0  0  0  0
 31 32  2  0  0  0  0
 32 28  1  0  0  0  0
 32 33  1  0  0  0  0
 35 34  2  0  0  0  0
 37 36  1  0  0  0  0
 37 35  1  0  0  0  0
 38 37  2  0  0  0  0
M  END
>  <MODEL>
3

>  <REMARK>
 VINA RESULT:      -7.6      2.846      5.117
  Name = 
  8 active torsions:
  status: ('A' for Active; 'I' for Inactive)
    1  A    between atoms: C_3  and  C_6
    2  A    between atoms: C_3  and  C_15
    3  A    between atoms: C_5  and  S_19
    4  A    between atoms: C_6  and  C_36
    5  A    between atoms: C_8  and  C_38
    6  A    between atoms: C_12  and  C_38
    7  A    between atoms: S_19  and  C_37
    8  A    between atoms: C_26  and  C_28
                            x       y       z     vdW  Elec       q    Type
                         _______ _______ _______ _____ _____    ______ ____

>  <TORSDO>
F 8

$$$$
=
 OpenBabel11062419283D

 38 44  0  0  1  0  0  0  0  0999 V2000
  189.7230  172.9340  144.8780 C   0  0  0  0  0  2  0  0  0  0  0  0
  192.1860  170.8540  143.8610 C   0  0  0  0  0  0  0  0  0  0  0  0
  190.7910  170.0320  142.0080 O   0  0  0  0  0  0  0  0  0  0  0  0
  190.3230  173.4070  143.5560 C   0  0  2  0  0  3  0  0  0  0  0  0
  190.9010  172.2640  142.7830 N   0  0  0  0  0  0  0  0  0  0  0  0
  192.7450  169.7960  144.2590 O   0  0  0  0  0  0  0  0  0  0  0  0
  191.1780  170.9110  142.8220 C   0  0  0  0  0  0  0  0  0  0  0  0
  191.6940  173.2880  143.4930 C   0  0  2  0  0  3  0  0  0  0  0  0
  192.4700  172.2700  144.4190 C   0  0  2  0  0  3  0  0  0  0  0  0
  194.2550  172.6180  144.3680 S   0  0  0  0  0  0  0  0  0  0  0  0
  194.0290  174.3650  144.7250 C   0  0  0  0  0  0  0  0  0  0  0  0
  194.8600  176.6440  144.6000 C   0  0  0  0  0  0  0  0  0  0  0  0
  193.2550  174.7320  145.7660 C   0  0  0  0  0  3  0  0  0  0  0  0
  194.5870  175.4360  143.8110 C   0  0  1  0  0  3  0  0  0  0  0  0
  195.9910  175.1610  143.2670 C   0  0  0  0  0  2  0  0  0  0  0  0
  192.9860  176.2040  146.0120 C   0  0  1  0  0  3  0  0  0  0  0  0
  192.6860  176.4160  147.3440 F   0  0  0  0  0  0  0  0  0  0  0  0
  196.0680  177.1920  144.2620 O   0  0  0  0  0  0  0  0  0  0  0  0
  194.1510  177.0070  145.6250 N   0  0  0  0  0  0  0  0  0  0  0  0
  196.7660  176.4130  143.3650 N   0  0  0  0  0  2  0  0  0  0  0  0
  189.7100  174.0610  145.9010 C   0  0  0  0  0  2  0  0  0  0  0  0
  186.3710  176.7910  145.4220 C   0  0  0  0  0  2  0  0  0  0  0  0
  188.4560  176.8830  143.9610 C   0  0  1  0  0  3  0  0  0  0  0  0
  188.2310  177.6750  146.8430 C   0  0  0  0  0  2  0  0  0  0  0  0
  188.6910  176.2360  146.5710 C   0  0  2  0  0  0  0  0  0  0  0  0
  189.3000  176.3540  145.1420 C   0  0  1  0  0  3  0  0  0  0  0  0
  187.2040  178.8520  144.5680 F   0  0  0  0  0  0  0  0  0  0  0  0
  187.0710  177.5060  144.2570 C   0  0  2  0  0  0  0  0  0  0  0  0
  187.1930  176.6200  146.7230 C   0  0  2  0  0  3  0  0  0  0  0  0
  188.6470  175.0890  145.5550 C   0  0  1  0  0  3  0  0  0  0  0  0
  186.1760  176.2950  142.3870 O   0  0  0  0  0  0  0  0  0  0  0  0
  186.2050  177.3770  143.0370 C   0  0  0  0  0  0  0  0  0  0  0  0
  185.4480  178.4550  142.5980 O   0  0  0  0  0  1  0  0  0  0  0  0
  188.7610  178.2900  142.0490 O   0  0  0  0  0  0  0  0  0  0  0  0
  189.2950  177.7160  143.0350 C   0  0  0  0  0  0  0  0  0  0  0  0
  191.6180  176.8980  142.7820 O   0  0  0  0  0  0  0  0  0  0  0  0
  190.7380  177.8600  143.2630 C   0  0  0  0  0  0  0  0  0  0  0  0
  191.1900  178.8570  143.8870 O   0  0  0  0  0  1  0  0  0  0  0  0
  1 21  1  0  0  0  0
  2  6  2  0  0  0  0
  2  9  1  0  0  0  0
  3  7  2  0  0  0  0
  4  1  1  1  0  0  0
  5  7  1  0  0  0  0
  5  4  1  0  0  0  0
  7  2  1  0  0  0  0
  8  5  1  6  0  0  0
  8  4  1  0  0  0  0
  8  9  1  0  0  0  0
  9 10  1  6  0  0  0
 10 11  1  0  0  0  0
 11 13  2  0  0  0  0
 12 19  2  0  0  0  0
 13 16  1  0  0  0  0
 14 15  1  1  0  0  0
 14 12  1  0  0  0  0
 14 11  1  0  0  0  0
 15 20  1  0  0  0  0
 16 17  1  1  0  0  0
 18 12  1  0  0  0  0
 19 16  1  0  0  0  0
 20 18  1  0  0  0  0
 22 29  1  0  0  0  0
 23 35  1  1  0  0  0
 23 28  1  0  0  0  0
 23 26  1  0  0  0  0
 25 29  1  0  0  0  0
 25 24  1  1  0  0  0
 26 30  1  0  0  0  0
 26 25  1  0  0  0  0
 28 27  1  0  0  0  0
 28 22  1  0  0  0  0
 29 24  1  0  0  0  0
 30 21  1  0  0  0  0
 30 25  1  0  0  0  0
 31 32  2  0  0  0  0
 32 28  1  0  0  0  0
 33 32  1  0  0  0  0
 34 35  2  0  0  0  0
 35 37  1  0  0  0  0
 36 37  2  0  0  0  0
 37 38  1  0  0  0  0
M  END
>  <MODEL>
4

>  <REMARK>
 VINA RESULT:      -7.5      1.798      4.447
  Name = 
  8 active torsions:
  status: ('A' for Active; 'I' for Inactive)
    1  A    between atoms: C_3  and  C_6
    2  A    between atoms: C_3  and  C_15
    3  A    between atoms: C_5  and  S_19
    4  A    between atoms: C_6  and  C_36
    5  A    between atoms: C_8  and  C_38
    6  A    between atoms: C_12  and  C_38
    7  A    between atoms: S_19  and  C_37
    8  A    between atoms: C_26  and  C_28
                            x       y       z     vdW  Elec       q    Type
                         _______ _______ _______ _____ _____    ______ ____

>  <TORSDO>
F 8

$$$$
=
 OpenBabel11062419283D

 38 44  0  0  1  0  0  0  0  0999 V2000
  191.4050  176.7680  144.3150 C   0  0  0  0  0  2  0  0  0  0  0  0
  193.8070  174.4760  143.6820 C   0  0  0  0  0  0  0  0  0  0  0  0
  195.5230  175.9270  144.6860 O   0  0  0  0  0  0  0  0  0  0  0  0
  191.9010  176.1290  145.6100 C   0  0  2  0  0  3  0  0  0  0  0  0
  193.3090  175.6430  145.4690 N   0  0  0  0  0  0  0  0  0  0  0  0
  194.4140  174.0040  142.6820 O   0  0  0  0  0  0  0  0  0  0  0  0
  194.3530  175.4740  144.5800 C   0  0  0  0  0  0  0  0  0  0  0  0
  192.1170  174.7720  145.5130 C   0  0  2  0  0  3  0  0  0  0  0  0
  192.3750  174.0820  144.1160 C   0  0  2  0  0  3  0  0  0  0  0  0
  192.2440  172.2750  144.2810 S   0  0  0  0  0  0  0  0  0  0  0  0
  191.1740  172.1170  142.8460 C   0  0  0  0  0  0  0  0  0  0  0  0
  190.5410  170.9030  140.8380 C   0  0  0  0  0  0  0  0  0  0  0  0
  190.5900  173.2190  142.3320 C   0  0  0  0  0  3  0  0  0  0  0  0
  190.8140  170.7610  142.2750 C   0  0  1  0  0  3  0  0  0  0  0  0
  191.9640  169.7520  142.2190 C   0  0  0  0  0  2  0  0  0  0  0  0
  189.6130  173.0770  141.1820 C   0  0  1  0  0  3  0  0  0  0  0  0
  189.5610  174.2500  140.4550 F   0  0  0  0  0  0  0  0  0  0  0  0
  191.1240  169.8940  140.1230 O   0  0  0  0  0  0  0  0  0  0  0  0
  190.0080  171.9640  140.3110 N   0  0  0  0  0  0  0  0  0  0  0  0
  191.9090  169.0770  140.9080 N   0  0  0  0  0  2  0  0  0  0  0  0
  190.6640  178.0670  144.6010 C   0  0  0  0  0  2  0  0  0  0  0  0
  186.9330  177.9020  142.3910 C   0  0  0  0  0  2  0  0  0  0  0  0
  187.0390  177.8600  144.9360 C   0  0  1  0  0  3  0  0  0  0  0  0
  187.8380  175.6660  143.0550 C   0  0  0  0  0  2  0  0  0  0  0  0
  188.9590  176.6130  143.5070 C   0  0  2  0  0  0  0  0  0  0  0  0
  188.4070  177.1480  144.8620 C   0  0  1  0  0  3  0  0  0  0  0  0
  185.3490  176.6810  143.6820 F   0  0  0  0  0  0  0  0  0  0  0  0
  186.1200  177.8360  143.6910 C   0  0  2  0  0  0  0  0  0  0  0  0
  188.0920  176.8850  142.2460 C   0  0  2  0  0  3  0  0  0  0  0  0
  189.2610  178.0240  144.0240 C   0  0  1  0  0  3  0  0  0  0  0  0
  185.6720  180.1830  143.9130 O   0  0  0  0  0  1  0  0  0  0  0  0
  185.2040  179.0250  143.7350 C   0  0  0  0  0  0  0  0  0  0  0  0
  183.8310  178.8580  143.6060 O   0  0  0  0  0  0  0  0  0  0  0  0
  186.4400  176.3550  146.6980 O   0  0  0  0  0  0  0  0  0  0  0  0
  186.3220  177.5100  146.2090 C   0  0  0  0  0  0  0  0  0  0  0  0
  184.1000  178.3370  146.9160 O   0  0  0  0  0  0  0  0  0  0  0  0
  185.4790  178.5020  146.8860 C   0  0  0  0  0  0  0  0  0  0  0  0
  185.9960  179.5020  147.4500 O   0  0  0  0  0  1  0  0  0  0  0  0
  1 21  1  0  0  0  0
  2  9  1  0  0  0  0
  2  7  1  0  0  0  0
  4  1  1  6  0  0  0
  5  4  1  0  0  0  0
  6  2  2  0  0  0  0
  7  3  2  0  0  0  0
  7  5  1  0  0  0  0
  8  5  1  1  0  0  0
  8  4  1  0  0  0  0
  9 10  1  1  0  0  0
  9  8  1  0  0  0  0
 11 10  1  0  0  0  0
 12 14  1  0  0  0  0
 13 11  2  0  0  0  0
 14 15  1  6  0  0  0
 14 11  1  0  0  0  0
 16 17  1  6  0  0  0
 16 13  1  0  0  0  0
 18 12  1  0  0  0  0
 18 20  1  0  0  0  0
 19 12  2  0  0  0  0
 19 16  1  0  0  0  0
 20 15  1  0  0  0  0
 22 28  1  0  0  0  0
 23 35  1  1  0  0  0
 25 24  1  6  0  0  0
 25 30  1  0  0  0  0
 25 26  1  0  0  0  0
 26 23  1  0  0  0  0
 27 28  1  0  0  0  0
 28 32  1  0  0  0  0
 28 23  1  0  0  0  0
 29 22  1  0  0  0  0
 29 24  1  0  0  0  0
 29 25  1  0  0  0  0
 30 21  1  0  0  0  0
 30 26  1  0  0  0  0
 32 31  1  0  0  0  0
 33 32  2  0  0  0  0
 35 34  2  0  0  0  0
 35 37  1  0  0  0  0
 37 36  2  0  0  0  0
 37 38  1  0  0  0  0
M  END
>  <MODEL>
5

>  <REMARK>
 VINA RESULT:      -7.5      2.072      3.234
  Name = 
  8 active torsions:
  status: ('A' for Active; 'I' for Inactive)
    1  A    between atoms: C_3  and  C_6
    2  A    between atoms: C_3  and  C_15
    3  A    between atoms: C_5  and  S_19
    4  A    between atoms: C_6  and  C_36
    5  A    between atoms: C_8  and  C_38
    6  A    between atoms: C_12  and  C_38
    7  A    between atoms: S_19  and  C_37
    8  A    between atoms: C_26  and  C_28
                            x       y       z     vdW  Elec       q    Type
                         _______ _______ _______ _____ _____    ______ ____

>  <TORSDO>
F 8

$$$$
=
 OpenBabel11062419283D

 38 44  0  0  1  0  0  0  0  0999 V2000
  191.2460  176.6820  144.2660 C   0  0  0  0  0  2  0  0  0  0  0  0
  194.1280  175.3520  143.1060 C   0  0  0  0  0  0  0  0  0  0  0  0
  195.4520  176.8610  144.5290 O   0  0  0  0  0  0  0  0  0  0  0  0
  191.9400  175.8620  145.3500 C   0  0  2  0  0  3  0  0  0  0  0  0
  193.4190  175.8120  145.1280 N   0  0  0  0  0  0  0  0  0  0  0  0
  194.7960  175.3450  142.0360 O   0  0  0  0  0  0  0  0  0  0  0  0
  194.4350  176.1690  144.2630 C   0  0  0  0  0  0  0  0  0  0  0  0
  192.4920  174.6870  144.8900 C   0  0  2  0  0  3  0  0  0  0  0  0
  192.8630  174.4980  143.3660 C   0  0  2  0  0  3  0  0  0  0  0  0
  193.2070  172.7450  143.0220 S   0  0  0  0  0  0  0  0  0  0  0  0
  191.6990  172.5300  142.0680 C   0  0  0  0  0  0  0  0  0  0  0  0
  190.4780  172.8600  139.9940 C   0  0  0  0  0  0  0  0  0  0  0  0
  190.5210  172.4070  142.7120 C   0  0  0  0  0  3  0  0  0  0  0  0
  191.7350  172.3580  140.5630 C   0  0  1  0  0  3  0  0  0  0  0  0
  192.7290  173.2610  139.8280 C   0  0  0  0  0  2  0  0  0  0  0  0
  189.2610  172.1300  141.9150 C   0  0  1  0  0  3  0  0  0  0  0  0
  188.1530  172.5800  142.6070 F   0  0  0  0  0  0  0  0  0  0  0  0
  190.7080  173.6080  138.8720 O   0  0  0  0  0  0  0  0  0  0  0  0
  189.3330  172.7830  140.6030 N   0  0  0  0  0  0  0  0  0  0  0  0
  192.0510  173.7970  138.6320 N   0  0  0  0  0  2  0  0  0  0  0  0
  190.4400  177.8190  144.8790 C   0  0  0  0  0  2  0  0  0  0  0  0
  186.8700  178.1550  142.4350 C   0  0  0  0  0  2  0  0  0  0  0  0
  186.7930  177.8110  144.9580 C   0  0  1  0  0  3  0  0  0  0  0  0
  187.5960  175.8020  142.8820 C   0  0  0  0  0  2  0  0  0  0  0  0
  188.7350  176.6150  143.5130 C   0  0  2  0  0  0  0  0  0  0  0  0
  188.1210  177.0250  144.8860 C   0  0  1  0  0  3  0  0  0  0  0  0
  185.1320  176.8980  143.4680 F   0  0  0  0  0  0  0  0  0  0  0  0
  185.9650  177.9910  143.6640 C   0  0  2  0  0  0  0  0  0  0  0  0
  187.9750  177.0870  142.2430 C   0  0  2  0  0  3  0  0  0  0  0  0
  189.0800  177.9350  144.2140 C   0  0  1  0  0  3  0  0  0  0  0  0
  185.6540  180.3460  144.0110 O   0  0  0  0  0  1  0  0  0  0  0  0
  185.1170  179.2250  143.7920 C   0  0  0  0  0  0  0  0  0  0  0  0
  183.7350  179.1380  143.6980 O   0  0  0  0  0  0  0  0  0  0  0  0
  185.4420  176.2200  146.1290 O   0  0  0  0  0  0  0  0  0  0  0  0
  185.9710  177.3630  146.1320 C   0  0  0  0  0  0  0  0  0  0  0  0
  184.4930  178.6960  147.6040 O   0  0  0  0  0  0  0  0  0  0  0  0
  185.7700  178.2520  147.2830 C   0  0  0  0  0  0  0  0  0  0  0  0
  186.7480  178.6100  147.9920 O   0  0  0  0  0  1  0  0  0  0  0  0
  1 21  1  0  0  0  0
  2  9  1  0  0  0  0
  2  7  1  0  0  0  0
  4  1  1  6  0  0  0
  5  4  1  0  0  0  0
  6  2  2  0  0  0  0
  7  3  2  0  0  0  0
  7  5  1  0  0  0  0
  8  5  1  1  0  0  0
  8  4  1  0  0  0  0
  9 10  1  1  0  0  0
  9  8  1  0  0  0  0
 11 13  2  0  0  0  0
 11 10  1  0  0  0  0
 12 14  1  0  0  0  0
 12 19  2  0  0  0  0
 14 15  1  6  0  0  0
 14 11  1  0  0  0  0
 16 17  1  1  0  0  0
 16 13  1  0  0  0  0
 18 12  1  0  0  0  0
 19 16  1  0  0  0  0
 20 18  1  0  0  0  0
 20 15  1  0  0  0  0
 22 28  1  0  0  0  0
 23 35  1  1  0  0  0
 25 24  1  6  0  0  0
 25 30  1  0  0  0  0
 25 26  1  0  0  0  0
 26 23  1  0  0  0  0
 27 28  1  0  0  0  0
 28 32  1  0  0  0  0
 28 23  1  0  0  0  0
 29 22  1  0  0  0  0
 29 24  1  0  0  0  0
 29 25  1  0  0  0  0
 30 21  1  0  0  0  0
 30 26  1  0  0  0  0
 32 31  1  0  0  0  0
 33 32  2  0  0  0  0
 34 35  2  0  0  0  0
 35 37  1  0  0  0  0
 37 36  2  0  0  0  0
 37 38  1  0  0  0  0
M  END
>  <MODEL>
6

>  <REMARK>
 VINA RESULT:      -7.4      2.441      3.447
  Name = 
  8 active torsions:
  status: ('A' for Active; 'I' for Inactive)
    1  A    between atoms: C_3  and  C_6
    2  A    between atoms: C_3  and  C_15
    3  A    between atoms: C_5  and  S_19
    4  A    between atoms: C_6  and  C_36
    5  A    between atoms: C_8  and  C_38
    6  A    between atoms: C_12  and  C_38
    7  A    between atoms: S_19  and  C_37
    8  A    between atoms: C_26  and  C_28
                            x       y       z     vdW  Elec       q    Type
                         _______ _______ _______ _____ _____    ______ ____

>  <TORSDO>
F 8

$$$$
=
 OpenBabel11062419283D

 38 44  0  0  1  0  0  0  0  0999 V2000
  192.0760  177.0180  143.6730 C   0  0  0  0  0  2  0  0  0  0  0  0
  194.8280  175.0570  143.7360 C   0  0  0  0  0  0  0  0  0  0  0  0
  196.2920  177.0330  143.8400 O   0  0  0  0  0  0  0  0  0  0  0  0
  192.7470  177.0680  145.0430 C   0  0  2  0  0  3  0  0  0  0  0  0
  194.2120  176.7820  144.9390 N   0  0  0  0  0  0  0  0  0  0  0  0
  195.4610  174.3020  142.9490 O   0  0  0  0  0  0  0  0  0  0  0  0
  195.2230  176.4090  144.0750 C   0  0  0  0  0  0  0  0  0  0  0  0
  193.2060  175.8460  145.4820 C   0  0  2  0  0  3  0  0  0  0  0  0
  193.5180  174.6760  144.4670 C   0  0  2  0  0  3  0  0  0  0  0  0
  193.7350  173.1110  145.3690 S   0  0  0  0  0  0  0  0  0  0  0  0
  192.6450  172.2040  144.2640 C   0  0  0  0  0  0  0  0  0  0  0  0
  192.2050  170.2200  142.9330 C   0  0  0  0  0  0  0  0  0  0  0  0
  191.7680  172.8820  143.4960 C   0  0  0  0  0  3  0  0  0  0  0  0
  192.6010  170.6890  144.2670 C   0  0  1  0  0  3  0  0  0  0  0  0
  193.9620  169.9990  144.3890 C   0  0  0  0  0  2  0  0  0  0  0  0
  190.7840  172.1150  142.6350 C   0  0  1  0  0  3  0  0  0  0  0  0
  190.3880  172.8900  141.5610 F   0  0  0  0  0  0  0  0  0  0  0  0
  192.9740  169.1610  142.5340 O   0  0  0  0  0  0  0  0  0  0  0  0
  191.3870  170.8660  142.1580 N   0  0  0  0  0  0  0  0  0  0  0  0
  193.9910  168.8850  143.4220 N   0  0  0  0  0  2  0  0  0  0  0  0
  191.0720  178.1520  143.5200 C   0  0  0  0  0  2  0  0  0  0  0  0
  187.5800  176.2830  141.7450 C   0  0  0  0  0  2  0  0  0  0  0  0
  187.4430  177.8640  143.7390 C   0  0  1  0  0  3  0  0  0  0  0  0
  188.5110  175.0630  143.7220 C   0  0  0  0  0  2  0  0  0  0  0  0
  189.5430  176.1820  143.5210 C   0  0  2  0  0  0  0  0  0  0  0  0
  188.8410  177.3970  144.1990 C   0  0  1  0  0  3  0  0  0  0  0  0
  185.9330  176.0070  143.4420 F   0  0  0  0  0  0  0  0  0  0  0  0
  186.6500  176.9750  142.7520 C   0  0  2  0  0  0  0  0  0  0  0  0
  188.7890  175.5160  142.3360 C   0  0  2  0  0  3  0  0  0  0  0  0
  189.7330  177.6240  143.0360 C   0  0  1  0  0  3  0  0  0  0  0  0
  186.0660  178.4640  140.9620 O   0  0  0  0  0  0  0  0  0  0  0  0
  185.6840  177.8340  141.9860 C   0  0  0  0  0  0  0  0  0  0  0  0
  184.3690  177.9630  142.4140 O   0  0  0  0  0  1  0  0  0  0  0  0
  185.9570  179.3960  144.8230 O   0  0  0  0  0  0  0  0  0  0  0  0
  186.6230  178.3300  144.9080 C   0  0  0  0  0  0  0  0  0  0  0  0
  187.4460  177.8950  147.2010 O   0  0  0  0  0  1  0  0  0  0  0  0
  186.5970  177.5560  146.1550 C   0  0  0  0  0  0  0  0  0  0  0  0
  185.8020  176.5880  146.2900 O   0  0  0  0  0  0  0  0  0  0  0  0
  2  7  1  0  0  0  0
  2  9  1  0  0  0  0
  3  7  2  0  0  0  0
  4  1  1  6  0  0  0
  4  8  1  0  0  0  0
  5  4  1  0  0  0  0
  6  2  2  0  0  0  0
  7  5  1  0  0  0  0
  8  5  1  6  0  0  0
  9 10  1  1  0  0  0
  9  8  1  0  0  0  0
 11 14  1  0  0  0  0
 11 10  1  0  0  0  0
 12 14  1  0  0  0  0
 13 11  2  0  0  0  0
 14 15  1  6  0  0  0
 16 17  1  6  0  0  0
 16 13  1  0  0  0  0
 18 12  1  0  0  0  0
 18 20  1  0  0  0  0
 19 16  1  0  0  0  0
 19 12  2  0  0  0  0
 20 15  1  0  0  0  0
 21  1  1  0  0  0  0
 22 29  1  0  0  0  0
 22 28  1  0  0  0  0
 23 26  1  0  0  0  0
 23 35  1  1  0  0  0
 25 24  1  1  0  0  0
 25 26  1  0  0  0  0
 28 27  1  0  0  0  0
 28 23  1  0  0  0  0
 29 25  1  0  0  0  0
 29 24  1  0  0  0  0
 30 21  1  0  0  0  0
 30 25  1  0  0  0  0
 30 26  1  0  0  0  0
 31 32  2  0  0  0  0
 32 33  1  0  0  0  0
 32 28  1  0  0  0  0
 34 35  2  0  0  0  0
 35 37  1  0  0  0  0
 37 38  2  0  0  0  0
 37 36  1  0  0  0  0
M  END
>  <MODEL>
7

>  <REMARK>
 VINA RESULT:      -7.3      2.158      3.050
  Name = 
  8 active torsions:
  status: ('A' for Active; 'I' for Inactive)
    1  A    between atoms: C_3  and  C_6
    2  A    between atoms: C_3  and  C_15
    3  A    between atoms: C_5  and  S_19
    4  A    between atoms: C_6  and  C_36
    5  A    between atoms: C_8  and  C_38
    6  A    between atoms: C_12  and  C_38
    7  A    between atoms: S_19  and  C_37
    8  A    between atoms: C_26  and  C_28
                            x       y       z     vdW  Elec       q    Type
                         _______ _______ _______ _____ _____    ______ ____

>  <TORSDO>
F 8

$$$$
=
 OpenBabel11062419283D

 38 44  0  0  1  0  0  0  0  0999 V2000
  190.5860  176.6230  143.6140 C   0  0  0  0  0  2  0  0  0  0  0  0
  190.1920  173.3000  144.0890 C   0  0  0  0  0  0  0  0  0  0  0  0
  188.5270  173.1920  142.2800 O   0  0  0  0  0  0  0  0  0  0  0  0
  191.1730  175.8340  142.4450 C   0  0  2  0  0  3  0  0  0  0  0  0
  190.4890  174.5130  142.2880 N   0  0  0  0  0  0  0  0  0  0  0  0
  189.6930  172.5280  144.9530 O   0  0  0  0  0  0  0  0  0  0  0  0
  189.5510  173.6630  142.8410 C   0  0  0  0  0  0  0  0  0  0  0  0
  191.8510  174.6980  142.8270 C   0  0  2  0  0  3  0  0  0  0  0  0
  191.5660  174.0010  144.2160 C   0  0  2  0  0  3  0  0  0  0  0  0
  192.8630  172.7780  144.5770 S   0  0  0  0  0  0  0  0  0  0  0  0
  194.1780  174.0030  144.5220 C   0  0  0  0  0  0  0  0  0  0  0  0
  195.0790  176.1320  145.2700 C   0  0  0  0  0  0  0  0  0  0  0  0
  194.9550  174.0900  143.4230 C   0  0  0  0  0  3  0  0  0  0  0  0
  194.5130  174.8560  145.7290 C   0  0  1  0  0  3  0  0  0  0  0  0
  193.3060  175.3760  146.5130 C   0  0  0  0  0  2  0  0  0  0  0  0
  196.1230  175.0560  143.4120 C   0  0  1  0  0  3  0  0  0  0  0  0
  196.4310  175.4140  142.1130 F   0  0  0  0  0  0  0  0  0  0  0  0
  194.5560  177.1830  145.9730 O   0  0  0  0  0  0  0  0  0  0  0  0
  195.8050  176.2520  144.2010 N   0  0  0  0  0  0  0  0  0  0  0  0
  193.5570  176.7940  146.8380 N   0  0  0  0  0  2  0  0  0  0  0  0
  189.8880  177.8830  143.1200 C   0  0  0  0  0  2  0  0  0  0  0  0
  185.6660  178.2710  144.0430 C   0  0  0  0  0  2  0  0  0  0  0  0
  187.3540  177.2770  145.6720 C   0  0  1  0  0  3  0  0  0  0  0  0
  186.3250  176.0290  143.1490 C   0  0  0  0  0  2  0  0  0  0  0  0
  187.6340  176.8200  143.0270 C   0  0  2  0  0  0  0  0  0  0  0  0
  188.1890  176.7570  144.4810 C   0  0  1  0  0  3  0  0  0  0  0  0
  185.0650  176.5300  145.5530 F   0  0  0  0  0  0  0  0  0  0  0  0
  185.8730  177.6530  145.4340 C   0  0  2  0  0  0  0  0  0  0  0  0
  186.2390  177.4790  142.8420 C   0  0  2  0  0  3  0  0  0  0  0  0
  188.4650  177.9500  143.6450 C   0  0  1  0  0  3  0  0  0  0  0  0
  186.1960  179.6410  146.7390 O   0  0  0  0  0  0  0  0  0  0  0  0
  185.4500  178.6610  146.4640 C   0  0  0  0  0  0  0  0  0  0  0  0
  184.2480  178.5090  147.1420 O   0  0  0  0  0  1  0  0  0  0  0  0
  186.6140  176.2410  147.6980 O   0  0  0  0  0  0  0  0  0  0  0  0
  187.5600  176.4170  146.8860 C   0  0  0  0  0  0  0  0  0  0  0  0
  190.0130  176.5580  147.1820 O   0  0  0  0  0  0  0  0  0  0  0  0
  188.8600  175.7840  147.1380 C   0  0  0  0  0  0  0  0  0  0  0  0
  188.9400  174.5410  147.3260 O   0  0  0  0  0  1  0  0  0  0  0  0
  2  9  1  0  0  0  0
  2  6  2  0  0  0  0
  3  7  2  0  0  0  0
  4  8  1  0  0  0  0
  4  1  1  1  0  0  0
  5  4  1  0  0  0  0
  5  7  1  0  0  0  0
  7  2  1  0  0  0  0
  8  5  1  6  0  0  0
  8  9  1  0  0  0  0
  9 10  1  6  0  0  0
 11 10  1  0  0  0  0
 11 14  1  0  0  0  0
 12 14  1  0  0  0  0
 12 18  1  0  0  0  0
 13 11  2  0  0  0  0
 14 15  1  6  0  0  0
 15 20  1  0  0  0  0
 16 17  1  6  0  0  0
 16 13  1  0  0  0  0
 16 19  1  0  0  0  0
 18 20  1  0  0  0  0
 19 12  2  0  0  0  0
 21  1  1  0  0  0  0
 21 30  1  0  0  0  0
 22 28  1  0  0  0  0
 23 35  1  1  0  0  0
 25 24  1  6  0  0  0
 25 30  1  0  0  0  0
 25 26  1  0  0  0  0
 26 23  1  0  0  0  0
 28 27  1  0  0  0  0
 28 23  1  0  0  0  0
 28 32  1  0  0  0  0
 29 25  1  0  0  0  0
 29 24  1  0  0  0  0
 29 22  1  0  0  0  0
 30 26  1  0  0  0  0
 32 31  2  0  0  0  0
 32 33  1  0  0  0  0
 35 37  1  0  0  0  0
 35 34  2  0  0  0  0
 37 36  2  0  0  0  0
 37 38  1  0  0  0  0
M  END
>  <MODEL>
8

>  <REMARK>
 VINA RESULT:      -7.3      2.796      5.233
  Name = 
  8 active torsions:
  status: ('A' for Active; 'I' for Inactive)
    1  A    between atoms: C_3  and  C_6
    2  A    between atoms: C_3  and  C_15
    3  A    between atoms: C_5  and  S_19
    4  A    between atoms: C_6  and  C_36
    5  A    between atoms: C_8  and  C_38
    6  A    between atoms: C_12  and  C_38
    7  A    between atoms: S_19  and  C_37
    8  A    between atoms: C_26  and  C_28
                            x       y       z     vdW  Elec       q    Type
                         _______ _______ _______ _____ _____    ______ ____

>  <TORSDO>
F 8

$$$$
=
 OpenBabel11062419283D

 38 44  0  0  1  0  0  0  0  0999 V2000
  191.2530  174.5230  144.9220 C   0  0  0  0  0  2  0  0  0  0  0  0
  193.3240  174.5660  142.2510 C   0  0  0  0  0  0  0  0  0  0  0  0
  195.2150  175.2490  143.6700 O   0  0  0  0  0  0  0  0  0  0  0  0
  192.2590  173.3760  144.9960 C   0  0  2  0  0  3  0  0  0  0  0  0
  193.5170  173.7120  144.2600 N   0  0  0  0  0  0  0  0  0  0  0  0
  193.5060  175.2630  141.2160 O   0  0  0  0  0  0  0  0  0  0  0  0
  194.1270  174.6530  143.4540 C   0  0  0  0  0  0  0  0  0  0  0  0
  192.4910  172.7620  143.7850 C   0  0  2  0  0  3  0  0  0  0  0  0
  192.2070  173.5080  142.4220 C   0  0  2  0  0  3  0  0  0  0  0  0
  192.2520  172.3220  141.0430 S   0  0  0  0  0  0  0  0  0  0  0  0
  190.4730  172.3900  140.7900 C   0  0  0  0  0  0  0  0  0  0  0  0
  188.5890  172.6420  139.2780 C   0  0  0  0  0  0  0  0  0  0  0  0
  189.6760  172.7750  141.8070 C   0  0  0  0  0  3  0  0  0  0  0  0
  189.8400  171.9060  139.5020 C   0  0  1  0  0  3  0  0  0  0  0  0
  190.5930  172.2830  138.2240 C   0  0  0  0  0  2  0  0  0  0  0  0
  188.1710  172.7420  141.6270 C   0  0  1  0  0  3  0  0  0  0  0  0
  187.5700  173.6460  142.4820 F   0  0  0  0  0  0  0  0  0  0  0  0
  188.4730  173.0310  137.9710 O   0  0  0  0  0  0  0  0  0  0  0  0
  187.8160  173.0520  140.2380 N   0  0  0  0  0  0  0  0  0  0  0  0
  189.6000  172.7410  137.2340 N   0  0  0  0  0  2  0  0  0  0  0  0
  189.8660  174.0540  145.3390 C   0  0  0  0  0  2  0  0  0  0  0  0
  187.6640  177.4700  146.8610 C   0  0  0  0  0  2  0  0  0  0  0  0
  187.3110  176.5250  144.5210 C   0  0  1  0  0  3  0  0  0  0  0  0
  189.6860  178.0630  145.5120 C   0  0  0  0  0  2  0  0  0  0  0  0
  189.7900  176.5330  145.5900 C   0  0  2  0  0  0  0  0  0  0  0  0
  188.7910  176.0830  144.4830 C   0  0  1  0  0  3  0  0  0  0  0  0
  187.0930  178.8730  145.0250 F   0  0  0  0  0  0  0  0  0  0  0  0
  186.8840  177.6030  145.5450 C   0  0  2  0  0  0  0  0  0  0  0  0
  189.2060  177.3920  146.7460 C   0  0  2  0  0  3  0  0  0  0  0  0
  188.9790  175.2360  145.6860 C   0  0  1  0  0  3  0  0  0  0  0  0
  185.0060  176.4140  146.4500 O   0  0  0  0  0  1  0  0  0  0  0  0
  185.4210  177.4410  145.8460 C   0  0  0  0  0  0  0  0  0  0  0  0
  184.5110  178.4080  145.4390 O   0  0  0  0  0  0  0  0  0  0  0  0
  185.5670  176.6540  142.8880 O   0  0  0  0  0  0  0  0  0  0  0  0
  186.7950  176.7850  143.1350 C   0  0  0  0  0  0  0  0  0  0  0  0
  188.0780  176.2670  141.0830 O   0  0  0  0  0  0  0  0  0  0  0  0
  187.7120  177.1840  142.0610 C   0  0  0  0  0  0  0  0  0  0  0  0
  188.1660  178.3580  142.0110 O   0  0  0  0  0  1  0  0  0  0  0  0
  1 21  1  0  0  0  0
  2  9  1  0  0  0  0
  2  7  1  0  0  0  0
  4  1  1  6  0  0  0
  5  4  1  0  0  0  0
  6  2  2  0  0  0  0
  7  3  2  0  0  0  0
  7  5  1  0  0  0  0
  8  5  1  6  0  0  0
  8  4  1  0  0  0  0
  9 10  1  6  0  0  0
  9  8  1  0  0  0  0
 11 10  1  0  0  0  0
 11 13  2  0  0  0  0
 12 14  1  0  0  0  0
 12 19  2  0  0  0  0
 14 15  1  6  0  0  0
 14 11  1  0  0  0  0
 16 13  1  0  0  0  0
 16 17  1  1  0  0  0
 18 12  1  0  0  0  0
 19 16  1  0  0  0  0
 20 18  1  0  0  0  0
 20 15  1  0  0  0  0
 21 30  1  0  0  0  0
 23 35  1  6  0  0  0
 23 28  1  0  0  0  0
 24 29  1  0  0  0  0
 25 24  1  6  0  0  0
 25 30  1  0  0  0  0
 25 29  1  0  0  0  0
 26 23  1  0  0  0  0
 26 25  1  0  0  0  0
 26 30  1  0  0  0  0
 27 28  1  0  0  0  0
 28 32  1  0  0  0  0
 28 22  1  0  0  0  0
 29 22  1  0  0  0  0
 32 31  1  0  0  0  0
 33 32  2  0  0  0  0
 34 35  2  0  0  0  0
 36 37  2  0  0  0  0
 37 35  1  0  0  0  0
 38 37  1  0  0  0  0
M  END
>  <MODEL>
9

>  <REMARK>
 VINA RESULT:      -7.2      2.401      3.055
  Name = 
  8 active torsions:
  status: ('A' for Active; 'I' for Inactive)
    1  A    between atoms: C_3  and  C_6
    2  A    between atoms: C_3  and  C_15
    3  A    between atoms: C_5  and  S_19
    4  A    between atoms: C_6  and  C_36
    5  A    between atoms: C_8  and  C_38
    6  A    between atoms: C_12  and  C_38
    7  A    between atoms: S_19  and  C_37
    8  A    between atoms: C_26  and  C_28
                            x       y       z     vdW  Elec       q    Type
                         _______ _______ _______ _____ _____    ______ ____

>  <TORSDO>
F 8

$$$$
