=
 OpenBabel11062420193D

 61 70  0  0  1  0  0  0  0  0999 V2000
  195.7440  172.7010  141.3950 C   0  0  0  0  0  1  0  0  0  0  0  0
  190.1390  170.1330  136.7720 C   0  0  0  0  0  3  0  0  0  0  0  0
  193.5260  175.2110  140.7010 C   0  0  0  0  0  2  0  0  0  0  0  0
  192.9910  172.5020  137.7160 C   0  0  1  0  0  3  0  0  0  0  0  0
  189.6360  171.8300  142.8980 C   0  0  2  0  0  3  0  0  0  0  0  0
  193.4780  175.1340  145.9930 O   0  0  0  0  0  0  0  0  0  0  0  0
  191.6550  170.8250  139.0370 C   0  0  0  0  0  0  0  0  0  0  0  0
  192.8760  174.1860  145.1540 C   0  0  0  0  0  2  0  0  0  0  0  0
  192.0850  170.3430  141.5280 C   0  0  0  0  0  2  0  0  0  0  0  0
  193.4450  173.7640  141.2140 C   0  0  2  0  0  3  0  0  0  0  0  0
  194.9450  175.6960  140.3930 C   0  0  0  0  0  2  0  0  0  0  0  0
  192.8910  177.1850  143.9530 C   0  0  0  0  0  1  0  0  0  0  0  0
  195.9380  170.6270  139.0370 O   0  0  0  0  0  1  0  0  0  0  0  0
  189.8770  169.5270  137.9970 C   0  0  0  0  0  3  0  0  0  0  0  0
  190.7490  172.8280  142.6550 C   0  0  2  0  0  3  0  0  0  0  0  0
  191.8800  171.4840  137.8010 C   0  0  0  0  0  0  0  0  0  0  0  0
  188.3730  172.2030  142.1350 C   0  0  0  0  0  2  0  0  0  0  0  0
  195.9420  175.6590  142.5770 O   0  0  0  0  0  0  0  0  0  0  0  0
  194.5770  170.8850  138.8700 C   0  0  1  0  0  3  0  0  0  0  0  0
  192.0420  172.4760  142.8090 C   0  0  2  0  0  3  0  0  0  0  0  0
  193.9640  171.3900  140.1870 C   0  0  2  0  0  3  0  0  0  0  0  0
  189.1670  174.4730  141.7020 C   0  0  2  0  0  3  0  0  0  0  0  0
  194.8340  174.7850  146.1000 C   0  0  0  0  0  2  0  0  0  0  0  0
  195.5300  176.5160  141.5360 C   0  0  0  0  0  2  0  0  0  0  0  0
  191.3760  171.6380  135.4410 F   0  0  0  0  0  0  0  0  0  0  0  0
  191.1380  171.0990  136.6640 C   0  0  0  0  0  0  0  0  0  0  0  0
  195.7090  177.2510  144.3650 C   0  0  0  0  0  1  0  0  0  0  0  0
  188.0350  173.6740  142.3240 C   0  0  0  0  0  2  0  0  0  0  0  0
  194.3680  171.8430  137.6870 C   0  0  1  0  0  3  0  0  0  0  0  0
  189.3290  171.7370  144.3800 C   0  0  0  0  0  1  0  0  0  0  0  0
  193.1530  173.4930  142.7150 C   0  0  2  0  0  3  0  0  0  0  0  0
  190.6300  169.8720  139.1180 C   0  0  0  0  0  3  0  0  0  0  0  0
  195.5960  174.8190  144.7550 C   0  0  0  0  0  2  0  0  0  0  0  0
  192.4320  171.1970  140.2970 C   0  0  1  0  0  3  0  0  0  0  0  0
  192.8360  173.4030  136.6590 O   0  0  0  0  0  1  0  0  0  0  0  0
  193.6680  175.9570  143.4730 C   0  0  1  0  0  3  0  0  0  0  0  0
  195.2120  175.9300  143.7640 C   0  0  2  0  0  0  0  0  0  0  0  0
  190.4360  174.1410  142.2700 O   0  0  0  0  0  0  0  0  0  0  0  0
  192.8630  174.6680  143.6880 C   0  0  2  0  0  3  0  0  0  0  0  0
  192.4520  171.0350  142.8410 C   0  0  0  0  0  2  0  0  0  0  0  0
  194.5450  171.1520  136.5020 F   0  0  0  0  0  0  0  0  0  0  0  0
  194.4680  172.8010  140.5690 C   0  0  2  0  0  3  0  0  0  0  0  0
  187.4480  177.6910  140.7110 N   0  0  0  0  0  0  0  0  0  0  0  0
  188.9490  175.9810  141.6430 C   0  0  1  0  0  3  0  0  0  0  0  0
  188.1720  177.6520  142.9790 N   0  0  2  0  0  0  0  0  0  0  0  0
  187.5550  176.2950  141.1500 C   0  0  1  0  0  3  0  0  0  0  0  0
  187.0810  177.3060  142.0810 C   0  0  2  0  0  3  0  0  0  0  0  0
  186.2140  177.7870  139.9590 C   0  0  0  0  0  1  0  0  0  0  0  0
  189.0810  176.5830  142.9580 N   0  0  0  0  0  2  0  0  0  0  0  0
  185.9040  177.7440  146.2740 C   0  0  0  0  0  2  0  0  0  0  0  0
  187.5970  177.8530  144.3180 C   0  0  2  0  0  3  0  0  0  0  0  0
  188.6450  177.7090  145.3210 N   0  0  0  0  0  0  0  0  0  0  0  0
  186.1310  176.8200  144.7300 S   0  0  0  0  0  0  0  0  0  0  0  0
  187.0860  177.6090  147.1160 N   0  0  0  0  0  2  0  0  0  0  0  0
  188.4270  177.6430  146.6020 C   0  0  0  0  0  0  0  0  0  0  0  0
  190.4420  176.4450  147.4890 C   0  0  0  0  0  3  0  0  0  0  0  0
  189.5680  177.5430  147.5330 C   0  0  0  0  0  0  0  0  0  0  0  0
  190.9260  178.5170  149.3000 C   0  0  0  0  0  3  0  0  0  0  0  0
  189.8250  178.5790  148.4440 C   0  0  0  0  0  3  0  0  0  0  0  0
  191.5410  176.3790  148.3500 C   0  0  0  0  0  3  0  0  0  0  0  0
  191.7830  177.4150  149.2550 C   0  0  0  0  0  3  0  0  0  0  0  0
  2 14  1  0  0  0  0
  4 35  1  6  0  0  0
  4 16  1  0  0  0  0
  5 30  1  1  0  0  0
  6 23  1  0  0  0  0
  7 32  1  0  0  0  0
  7 34  1  0  0  0  0
  8  6  1  0  0  0  0
  9 40  1  0  0  0  0
 10  3  1  1  0  0  0
 10 31  1  0  0  0  0
 11  3  1  0  0  0  0
 11 24  1  0  0  0  0
 14 32  2  0  0  0  0
 15 38  1  1  0  0  0
 15 20  1  0  0  0  0
 15  5  1  0  0  0  0
 16  7  2  0  0  0  0
 17 28  1  0  0  0  0
 17  5  1  0  0  0  0
 18 37  1  0  0  0  0
 19 13  1  1  0  0  0
 19 21  1  0  0  0  0
 20 40  1  6  0  0  0
 21 34  1  0  0  0  0
 21 42  1  0  0  0  0
 22 38  1  0  0  0  0
 22 28  1  0  0  0  0
 24 18  1  0  0  0  0
 25 26  1  0  0  0  0
 26  2  2  0  0  0  0
 26 16  1  0  0  0  0
 29  4  1  0  0  0  0
 29 19  1  0  0  0  0
 31 20  1  0  0  0  0
 31 39  1  0  0  0  0
 33 23  1  0  0  0  0
 34  9  1  0  0  0  0
 36 39  1  0  0  0  0
 36 37  1  0  0  0  0
 36 12  1  0  0  0  0
 37 27  1  0  0  0  0
 37 33  1  0  0  0  0
 39  8  1  0  0  0  0
 41 29  1  0  0  0  0
 42 10  1  0  0  0  0
 42  1  1  0  0  0  0
 43 46  1  0  0  0  0
 43 47  1  0  0  0  0
 44 22  1  0  0  0  0
 44 49  1  0  0  0  0
 45 51  1  0  0  0  0
 46 44  1  0  0  0  0
 46 47  1  0  0  0  0
 47 45  1  0  0  0  0
 48 43  1  0  0  0  0
 49 45  1  0  0  0  0
 50 54  1  0  0  0  0
 51 53  1  0  0  0  0
 51 52  1  0  0  0  0
 52 55  2  0  0  0  0
 53 50  1  0  0  0  0
 55 54  1  0  0  0  0
 55 57  1  0  0  0  0
 56 57  2  0  0  0  0
 56 60  1  0  0  0  0
 57 59  1  0  0  0  0
 59 58  2  0  0  0  0
 60 61  2  0  0  0  0
 61 58  1  0  0  0  0
M  END
>  <MODEL>
1

>  <REMARK>
 VINA RESULT:      -9.8      0.000      0.000
  Name = 
  3 active torsions:
  status: ('A' for Active; 'I' for Inactive)
    1  A    between atoms: C_19  and  C_27
    2  A    between atoms: N_20  and  C_21
    3  A    between atoms: C_51  and  C_52
                            x       y       z     vdW  Elec       q    Type
                         _______ _______ _______ _____ _____    ______ ____

>  <TORSDO>
F 3

$$$$
=
 OpenBabel11062420193D

 61 70  0  0  1  0  0  0  0  0999 V2000
  197.7050  172.2860  139.7730 C   0  0  0  0  0  1  0  0  0  0  0  0
  191.7210  169.0890  136.1180 C   0  0  0  0  0  3  0  0  0  0  0  0
  195.0240  174.4120  139.7860 C   0  0  0  0  0  2  0  0  0  0  0  0
  194.3010  171.8520  136.7100 C   0  0  1  0  0  3  0  0  0  0  0  0
  192.2670  170.2690  142.3600 C   0  0  2  0  0  3  0  0  0  0  0  0
  196.1110  173.9830  144.9480 O   0  0  0  0  0  0  0  0  0  0  0  0
  193.5550  169.8860  138.0950 C   0  0  0  0  0  0  0  0  0  0  0  0
  195.5010  173.0010  144.1540 C   0  0  0  0  0  2  0  0  0  0  0  0
  194.5730  169.3250  140.3910 C   0  0  0  0  0  2  0  0  0  0  0  0
  195.2820  172.9430  140.1570 C   0  0  2  0  0  3  0  0  0  0  0  0
  196.2520  175.1550  139.2530 C   0  0  0  0  0  2  0  0  0  0  0  0
  194.7910  176.0290  143.2790 C   0  0  0  0  0  1  0  0  0  0  0  0
  197.7170  170.4360  137.2280 O   0  0  0  0  0  1  0  0  0  0  0  0
  191.8230  168.3680  137.3040 C   0  0  0  0  0  3  0  0  0  0  0  0
  193.1330  171.4600  142.0020 C   0  0  2  0  0  3  0  0  0  0  0  0
  193.4070  170.6530  136.9110 C   0  0  0  0  0  0  0  0  0  0  0  0
  190.8280  170.4660  141.9030 C   0  0  0  0  0  2  0  0  0  0  0  0
  197.6820  175.1500  141.1820 O   0  0  0  0  0  0  0  0  0  0  0  0
  196.3290  170.4640  137.3610 C   0  0  1  0  0  3  0  0  0  0  0  0
  194.4680  171.3290  141.8620 C   0  0  2  0  0  3  0  0  0  0  0  0
  195.9370  170.7680  138.8170 C   0  0  2  0  0  3  0  0  0  0  0  0
  191.1470  172.8630  141.5510 C   0  0  2  0  0  3  0  0  0  0  0  0
  197.4960  173.8680  144.7490 C   0  0  0  0  0  2  0  0  0  0  0  0
  196.9300  175.9880  140.3340 C   0  0  0  0  0  2  0  0  0  0  0  0
  192.3970  170.8710  134.7250 F   0  0  0  0  0  0  0  0  0  0  0  0
  192.5100  170.2190  135.9110 C   0  0  0  0  0  0  0  0  0  0  0  0
  197.5870  176.5580  143.1300 C   0  0  0  0  0  1  0  0  0  0  0  0
  190.3120  171.8400  142.3010 C   0  0  0  0  0  2  0  0  0  0  0  0
  195.7270  171.4460  136.3430 C   0  0  1  0  0  3  0  0  0  0  0  0
  192.3000  170.0280  143.8560 C   0  0  0  0  0  1  0  0  0  0  0  0
  195.3600  172.5280  141.6520 C   0  0  2  0  0  3  0  0  0  0  0  0
  192.7320  168.7660  138.2820 C   0  0  0  0  0  3  0  0  0  0  0  0
  197.9410  174.1230  143.2900 C   0  0  0  0  0  2  0  0  0  0  0  0
  194.5130  170.3040  139.2080 C   0  0  1  0  0  3  0  0  0  0  0  0
  193.7860  172.7800  135.8010 O   0  0  0  0  0  1  0  0  0  0  0  0
  195.6320  174.9890  142.5350 C   0  0  1  0  0  3  0  0  0  0  0  0
  197.1870  175.2120  142.5110 C   0  0  2  0  0  0  0  0  0  0  0  0
  192.5430  172.7210  141.8200 O   0  0  0  0  0  0  0  0  0  0  0  0
  195.1030  173.5690  142.7750 C   0  0  2  0  0  3  0  0  0  0  0  0
  195.0970  169.9820  141.6680 C   0  0  0  0  0  2  0  0  0  0  0  0
  195.7540  170.8750  135.0840 F   0  0  0  0  0  0  0  0  0  0  0  0
  196.2840  172.2170  139.2300 C   0  0  2  0  0  3  0  0  0  0  0  0
  188.6970  175.7410  141.5050 N   0  0  0  0  0  0  0  0  0  0  0  0
  190.6870  174.3100  141.6860 C   0  0  1  0  0  3  0  0  0  0  0  0
  190.2200  175.8110  143.3330 N   0  0  2  0  0  0  0  0  0  0  0  0
  189.1810  174.3810  141.7700 C   0  0  1  0  0  3  0  0  0  0  0  0
  188.9400  175.2880  142.8820 C   0  0  2  0  0  3  0  0  0  0  0  0
  187.2710  175.6280  141.2740 C   0  0  0  0  0  1  0  0  0  0  0  0
  191.2100  174.9160  142.8980 N   0  0  0  0  0  2  0  0  0  0  0  0
  190.9500  176.2900  147.2390 C   0  0  0  0  0  2  0  0  0  0  0  0
  190.1700  175.8980  144.8010 C   0  0  2  0  0  3  0  0  0  0  0  0
  188.8820  176.4470  145.2080 N   0  0  0  0  0  0  0  0  0  0  0  0
  191.5630  176.7900  145.6060 S   0  0  0  0  0  0  0  0  0  0  0  0
  189.6030  176.8080  147.4470 N   0  0  0  0  0  2  0  0  0  0  0  0
  188.5980  176.8230  146.4210 C   0  0  0  0  0  0  0  0  0  0  0  0
  187.0560  178.3770  147.6430 C   0  0  0  0  0  3  0  0  0  0  0  0
  187.2450  177.3250  146.7320 C   0  0  0  0  0  0  0  0  0  0  0  0
  184.8470  177.2810  146.3280 C   0  0  0  0  0  3  0  0  0  0  0  0
  186.1280  176.7860  146.0750 C   0  0  0  0  0  3  0  0  0  0  0  0
  185.7730  178.8680  147.9020 C   0  0  0  0  0  3  0  0  0  0  0  0
  184.6690  178.3210  147.2440 C   0  0  0  0  0  3  0  0  0  0  0  0
  2 14  1  0  0  0  0
  4 35  1  6  0  0  0
  4 16  1  0  0  0  0
  5 30  1  1  0  0  0
  7 32  1  0  0  0  0
  7 34  1  0  0  0  0
  8  6  1  0  0  0  0
  9 40  1  0  0  0  0
 10  3  1  1  0  0  0
 10 31  1  0  0  0  0
 11  3  1  0  0  0  0
 11 24  1  0  0  0  0
 14 32  2  0  0  0  0
 15 38  1  1  0  0  0
 15  5  1  0  0  0  0
 16  7  2  0  0  0  0
 17 28  1  0  0  0  0
 17  5  1  0  0  0  0
 18 37  1  0  0  0  0
 19 13  1  1  0  0  0
 19 21  1  0  0  0  0
 20 40  1  6  0  0  0
 20 15  1  0  0  0  0
 21 34  1  0  0  0  0
 21 42  1  0  0  0  0
 22 44  1  0  0  0  0
 22 38  1  0  0  0  0
 22 28  1  0  0  0  0
 23  6  1  0  0  0  0
 24 18  1  0  0  0  0
 25 26  1  0  0  0  0
 26  2  2  0  0  0  0
 26 16  1  0  0  0  0
 29  4  1  0  0  0  0
 29 19  1  0  0  0  0
 31 20  1  0  0  0  0
 31 39  1  0  0  0  0
 33 23  1  0  0  0  0
 34  9  1  0  0  0  0
 36 39  1  0  0  0  0
 36 12  1  0  0  0  0
 37 36  1  0  0  0  0
 37 27  1  0  0  0  0
 37 33  1  0  0  0  0
 39  8  1  0  0  0  0
 41 29  1  0  0  0  0
 42  1  1  0  0  0  0
 42 10  1  0  0  0  0
 43 46  1  0  0  0  0
 43 47  1  0  0  0  0
 44 46  1  0  0  0  0
 44 49  1  0  0  0  0
 45 51  1  0  0  0  0
 46 47  1  0  0  0  0
 47 45  1  0  0  0  0
 48 43  1  0  0  0  0
 49 45  1  0  0  0  0
 50 54  1  0  0  0  0
 51 52  1  0  0  0  0
 51 53  1  0  0  0  0
 52 55  2  0  0  0  0
 53 50  1  0  0  0  0
 55 57  1  0  0  0  0
 55 54  1  0  0  0  0
 56 60  1  0  0  0  0
 57 56  2  0  0  0  0
 58 61  1  0  0  0  0
 59 58  2  0  0  0  0
 59 57  1  0  0  0  0
 61 60  2  0  0  0  0
M  END
>  <MODEL>
2

>  <REMARK>
 VINA RESULT:      -9.1      2.025      3.070
  Name = 
  3 active torsions:
  status: ('A' for Active; 'I' for Inactive)
    1  A    between atoms: C_19  and  C_27
    2  A    between atoms: N_20  and  C_21
    3  A    between atoms: C_51  and  C_52
                            x       y       z     vdW  Elec       q    Type
                         _______ _______ _______ _____ _____    ______ ____

>  <TORSDO>
F 3

$$$$
=
 OpenBabel11062420193D

 61 70  0  0  1  0  0  0  0  0999 V2000
  197.4580  172.5470  140.0980 C   0  0  0  0  0  1  0  0  0  0  0  0
  191.1190  172.7410  135.7210 C   0  0  0  0  0  3  0  0  0  0  0  0
  195.0030  174.3710  141.6330 C   0  0  0  0  0  2  0  0  0  0  0  0
  193.9720  174.3490  137.6990 C   0  0  1  0  0  3  0  0  0  0  0  0
  191.8950  169.7230  141.2830 C   0  0  2  0  0  3  0  0  0  0  0  0
  196.1360  170.7400  145.3130 O   0  0  0  0  0  0  0  0  0  0  0  0
  193.0590  172.0040  137.6180 C   0  0  0  0  0  0  0  0  0  0  0  0
  195.4180  170.5130  144.1300 C   0  0  0  0  0  2  0  0  0  0  0  0
  194.0580  170.0650  138.9840 C   0  0  0  0  0  2  0  0  0  0  0  0
  195.1200  172.9790  140.9910 C   0  0  2  0  0  3  0  0  0  0  0  0
  196.2890  175.2010  141.5830 C   0  0  0  0  0  2  0  0  0  0  0  0
  194.9970  173.4620  145.3800 C   0  0  0  0  0  1  0  0  0  0  0  0
  197.2390  172.6970  136.9630 O   0  0  0  0  0  1  0  0  0  0  0  0
  191.1700  171.4330  136.1910 C   0  0  0  0  0  3  0  0  0  0  0  0
  192.8680  170.8150  141.6760 C   0  0  2  0  0  3  0  0  0  0  0  0
  192.9670  173.3500  137.1810 C   0  0  0  0  0  0  0  0  0  0  0  0
  190.4740  170.2570  141.1590 C   0  0  0  0  0  2  0  0  0  0  0  0
  197.7460  173.8970  142.9760 O   0  0  0  0  0  0  0  0  0  0  0  0
  195.8630  172.7280  137.1900 C   0  0  1  0  0  3  0  0  0  0  0  0
  194.1810  170.7130  141.3840 C   0  0  2  0  0  3  0  0  0  0  0  0
  195.5300  172.0810  138.5450 C   0  0  2  0  0  3  0  0  0  0  0  0
  191.0250  172.3210  142.3470 C   0  0  2  0  0  3  0  0  0  0  0  0
  197.5000  170.6830  144.9800 C   0  0  0  0  0  2  0  0  0  0  0  0
  197.0660  175.1280  142.8920 C   0  0  0  0  0  2  0  0  0  0  0  0
  191.9430  174.9530  135.6870 F   0  0  0  0  0  0  0  0  0  0  0  0
  192.0130  173.6970  136.1990 C   0  0  0  0  0  0  0  0  0  0  0  0
  197.8280  173.7810  145.3780 C   0  0  0  0  0  1  0  0  0  0  0  0
  190.1050  171.1120  142.3620 C   0  0  0  0  0  2  0  0  0  0  0  0
  195.3430  174.1680  137.0510 C   0  0  1  0  0  3  0  0  0  0  0  0
  191.9310  168.5990  142.2990 C   0  0  0  0  0  1  0  0  0  0  0  0
  195.1840  171.7180  141.8940 C   0  0  2  0  0  3  0  0  0  0  0  0
  192.1320  171.0700  137.1310 C   0  0  0  0  0  3  0  0  0  0  0  0
  197.9410  171.7630  143.9640 C   0  0  0  0  0  2  0  0  0  0  0  0
  194.0750  171.5700  138.6720 C   0  0  1  0  0  3  0  0  0  0  0  0
  193.5350  175.6730  137.6040 O   0  0  0  0  0  1  0  0  0  0  0  0
  195.7160  173.0620  144.0890 C   0  0  1  0  0  3  0  0  0  0  0  0
  197.2840  173.1480  144.0900 C   0  0  2  0  0  0  0  0  0  0  0  0
  192.4040  171.9500  142.3610 O   0  0  0  0  0  0  0  0  0  0  0  0
  195.0520  171.8420  143.4370 C   0  0  2  0  0  3  0  0  0  0  0  0
  194.6680  169.7440  140.3480 C   0  0  0  0  0  2  0  0  0  0  0  0
  195.2900  174.5080  135.7120 F   0  0  0  0  0  0  0  0  0  0  0  0
  196.0270  172.9270  139.7410 C   0  0  2  0  0  3  0  0  0  0  0  0
  191.6670  175.3840  144.4680 N   0  0  0  0  0  0  0  0  0  0  0  0
  190.7140  173.3930  143.3850 C   0  0  1  0  0  3  0  0  0  0  0  0
  189.4650  175.2870  143.5690 N   0  0  2  0  0  0  0  0  0  0  0  0
  191.6840  174.5450  143.2630 C   0  0  1  0  0  3  0  0  0  0  0  0
  190.8290  175.7210  143.3090 C   0  0  2  0  0  3  0  0  0  0  0  0
  192.8430  176.2270  144.3920 C   0  0  0  0  0  1  0  0  0  0  0  0
  189.3810  173.9370  143.1950 N   0  0  0  0  0  2  0  0  0  0  0  0
  187.1590  176.9470  140.7510 C   0  0  0  0  0  2  0  0  0  0  0  0
  188.5710  176.1330  142.7630 C   0  0  2  0  0  3  0  0  0  0  0  0
  187.5240  176.6820  143.6180 N   0  0  0  0  0  0  0  0  0  0  0  0
  187.8620  175.3520  141.2550 S   0  0  0  0  0  0  0  0  0  0  0  0
  186.2290  177.4280  141.7660 N   0  0  0  0  0  2  0  0  0  0  0  0
  186.4760  177.3130  143.1760 C   0  0  0  0  0  0  0  0  0  0  0  0
  184.5340  178.8000  143.7260 C   0  0  0  0  0  3  0  0  0  0  0  0
  185.5000  177.8670  144.1350 C   0  0  0  0  0  0  0  0  0  0  0  0
  184.5490  177.9070  146.3740 C   0  0  0  0  0  3  0  0  0  0  0  0
  185.4940  177.4240  145.4670 C   0  0  0  0  0  3  0  0  0  0  0  0
  183.5920  179.2910  144.6340 C   0  0  0  0  0  3  0  0  0  0  0  0
  183.5990  178.8440  145.9580 C   0  0  0  0  0  3  0  0  0  0  0  0
  2 14  2  0  0  0  0
  2 26  1  0  0  0  0
  4 35  1  6  0  0  0
  5 15  1  0  0  0  0
  5 30  1  1  0  0  0
  7 34  1  0  0  0  0
  8  6  1  0  0  0  0
  9 40  1  0  0  0  0
 10  3  1  1  0  0  0
 10 31  1  0  0  0  0
 11  3  1  0  0  0  0
 11 24  1  0  0  0  0
 14 32  1  0  0  0  0
 15 38  1  1  0  0  0
 16  7  1  0  0  0  0
 16  4  1  0  0  0  0
 17  5  1  0  0  0  0
 17 28  1  0  0  0  0
 18 37  1  0  0  0  0
 19 13  1  1  0  0  0
 19 21  1  0  0  0  0
 20 40  1  6  0  0  0
 20 15  1  0  0  0  0
 20 31  1  0  0  0  0
 21 34  1  0  0  0  0
 21 42  1  0  0  0  0
 22 38  1  0  0  0  0
 22 28  1  0  0  0  0
 22 44  1  0  0  0  0
 23  6  1  0  0  0  0
 24 18  1  0  0  0  0
 25 26  1  0  0  0  0
 26 16  2  0  0  0  0
 29 19  1  0  0  0  0
 29  4  1  0  0  0  0
 31 39  1  0  0  0  0
 32  7  2  0  0  0  0
 33 37  1  0  0  0  0
 33 23  1  0  0  0  0
 34  9  1  0  0  0  0
 36 37  1  0  0  0  0
 36 12  1  0  0  0  0
 37 27  1  0  0  0  0
 39 36  1  0  0  0  0
 39  8  1  0  0  0  0
 41 29  1  0  0  0  0
 42  1  1  0  0  0  0
 42 10  1  0  0  0  0
 46 47  1  0  0  0  0
 46 44  1  0  0  0  0
 46 43  1  0  0  0  0
 47 45  1  0  0  0  0
 47 43  1  0  0  0  0
 48 43  1  0  0  0  0
 49 44  1  0  0  0  0
 49 45  1  0  0  0  0
 50 53  1  0  0  0  0
 50 54  1  0  0  0  0
 51 45  1  0  0  0  0
 51 52  1  0  0  0  0
 53 51  1  0  0  0  0
 54 55  1  0  0  0  0
 55 52  2  0  0  0  0
 55 57  1  0  0  0  0
 56 57  2  0  0  0  0
 56 60  1  0  0  0  0
 57 59  1  0  0  0  0
 59 58  2  0  0  0  0
 60 61  2  0  0  0  0
 61 58  1  0  0  0  0
M  END
>  <MODEL>
3

>  <REMARK>
 VINA RESULT:      -9.1      2.497      4.123
  Name = 
  3 active torsions:
  status: ('A' for Active; 'I' for Inactive)
    1  A    between atoms: C_19  and  C_27
    2  A    between atoms: N_20  and  C_21
    3  A    between atoms: C_51  and  C_52
                            x       y       z     vdW  Elec       q    Type
                         _______ _______ _______ _____ _____    ______ ____

>  <TORSDO>
F 3

$$$$
=
 OpenBabel11062420193D

 61 70  0  0  1  0  0  0  0  0999 V2000
  197.4340  171.4030  140.9100 C   0  0  0  0  0  1  0  0  0  0  0  0
  192.7790  173.2120  135.0410 C   0  0  0  0  0  3  0  0  0  0  0  0
  195.6930  174.2650  141.6060 C   0  0  0  0  0  2  0  0  0  0  0  0
  195.5720  173.9370  137.5540 C   0  0  1  0  0  3  0  0  0  0  0  0
  191.0890  171.1680  140.8390 C   0  0  2  0  0  3  0  0  0  0  0  0
  194.4510  171.1930  145.7330 O   0  0  0  0  0  0  0  0  0  0  0  0
  193.8110  172.1420  137.4280 C   0  0  0  0  0  0  0  0  0  0  0  0
  193.9610  171.0500  144.4270 C   0  0  0  0  0  2  0  0  0  0  0  0
  193.6200  170.2460  139.1570 C   0  0  0  0  0  2  0  0  0  0  0  0
  195.3540  172.8430  141.1300 C   0  0  2  0  0  3  0  0  0  0  0  0
  197.1870  174.5200  141.8240 C   0  0  0  0  0  2  0  0  0  0  0  0
  194.5480  174.1090  145.2840 C   0  0  0  0  0  1  0  0  0  0  0  0
  197.9410  171.0650  137.8230 O   0  0  0  0  0  1  0  0  0  0  0  0
  192.1900  172.0890  135.6120 C   0  0  0  0  0  3  0  0  0  0  0  0
  192.3230  171.8580  141.3810 C   0  0  2  0  0  3  0  0  0  0  0  0
  194.3730  173.3210  136.8760 C   0  0  0  0  0  0  0  0  0  0  0  0
  190.0730  172.1700  140.3090 C   0  0  0  0  0  2  0  0  0  0  0  0
  197.6590  173.0300  143.6470 O   0  0  0  0  0  0  0  0  0  0  0  0
  196.6860  171.6570  137.6840 C   0  0  1  0  0  3  0  0  0  0  0  0
  193.5050  171.2130  141.4470 C   0  0  2  0  0  3  0  0  0  0  0  0
  195.8470  171.4370  138.9540 C   0  0  2  0  0  3  0  0  0  0  0  0
  191.1700  174.0450  141.4290 C   0  0  2  0  0  3  0  0  0  0  0  0
  195.7060  170.5640  145.7700 C   0  0  0  0  0  2  0  0  0  0  0  0
  197.5800  174.3910  143.2910 C   0  0  0  0  0  2  0  0  0  0  0  0
  194.4300  174.8990  135.0440 F   0  0  0  0  0  0  0  0  0  0  0  0
  193.8700  173.8250  135.6560 C   0  0  0  0  0  0  0  0  0  0  0  0
  197.1940  173.3200  145.9890 C   0  0  0  0  0  1  0  0  0  0  0  0
  189.8520  173.3010  141.3020 C   0  0  0  0  0  2  0  0  0  0  0  0
  196.8460  173.1360  137.3000 C   0  0  1  0  0  3  0  0  0  0  0  0
  190.4490  170.3140  141.9160 C   0  0  0  0  0  1  0  0  0  0  0  0
  194.7070  171.8350  142.1180 C   0  0  2  0  0  3  0  0  0  0  0  0
  192.7020  171.5610  136.7950 C   0  0  0  0  0  3  0  0  0  0  0  0
  196.7510  171.1950  144.8200 C   0  0  0  0  0  2  0  0  0  0  0  0
  194.3190  171.5500  138.7400 C   0  0  1  0  0  3  0  0  0  0  0  0
  195.7490  175.2890  137.2430 O   0  0  0  0  0  1  0  0  0  0  0  0
  195.2850  173.2430  144.2600 C   0  0  1  0  0  3  0  0  0  0  0  0
  196.7130  172.7240  144.6600 C   0  0  2  0  0  0  0  0  0  0  0  0
  192.2380  173.1860  141.8290 O   0  0  0  0  0  0  0  0  0  0  0  0
  194.3260  172.2720  143.5580 C   0  0  2  0  0  3  0  0  0  0  0  0
  193.7510  169.9650  140.6540 C   0  0  0  0  0  2  0  0  0  0  0  0
  197.2140  173.2270  135.9700 F   0  0  0  0  0  0  0  0  0  0  0  0
  196.3930  172.2280  140.1650 C   0  0  2  0  0  3  0  0  0  0  0  0
  190.0080  177.5070  142.4090 N   0  0  0  0  0  0  0  0  0  0  0  0
  191.1240  175.3210  142.2620 C   0  0  1  0  0  3  0  0  0  0  0  0
  190.2900  176.0330  144.2570 N   0  0  2  0  0  0  0  0  0  0  0  0
  189.8860  176.1240  141.9340 C   0  0  1  0  0  3  0  0  0  0  0  0
  189.3550  176.4850  143.2390 C   0  0  2  0  0  3  0  0  0  0  0  0
  188.9520  178.2540  141.7580 C   0  0  0  0  0  1  0  0  0  0  0  0
  191.0720  175.0190  143.6820 N   0  0  0  0  0  2  0  0  0  0  0  0
  188.9550  174.5410  147.7220 C   0  0  0  0  0  2  0  0  0  0  0  0
  189.5000  175.5350  145.3940 C   0  0  2  0  0  3  0  0  0  0  0  0
  188.3120  176.3640  145.5560 N   0  0  0  0  0  0  0  0  0  0  0  0
  190.4050  175.3430  146.9840 S   0  0  0  0  0  0  0  0  0  0  0  0
  187.8140  175.4490  147.6960 N   0  0  0  0  0  2  0  0  0  0  0  0
  187.5110  176.3010  146.5800 C   0  0  0  0  0  0  0  0  0  0  0  0
  186.0660  178.0090  147.7100 C   0  0  0  0  0  3  0  0  0  0  0  0
  186.3100  177.1580  146.6210 C   0  0  0  0  0  0  0  0  0  0  0  0
  184.3000  178.0060  145.5430 C   0  0  0  0  0  3  0  0  0  0  0  0
  185.4180  177.1690  145.5370 C   0  0  0  0  0  3  0  0  0  0  0  0
  184.9430  178.8430  147.7210 C   0  0  0  0  0  3  0  0  0  0  0  0
  184.0610  178.8410  146.6370 C   0  0  0  0  0  3  0  0  0  0  0  0
  2 14  2  0  0  0  0
  2 26  1  0  0  0  0
  3 11  1  0  0  0  0
  4 35  1  6  0  0  0
  5 15  1  0  0  0  0
  5 30  1  1  0  0  0
  6 23  1  0  0  0  0
  7 34  1  0  0  0  0
  8  6  1  0  0  0  0
  9 40  1  0  0  0  0
 10  3  1  1  0  0  0
 10 31  1  0  0  0  0
 11 24  1  0  0  0  0
 14 32  1  0  0  0  0
 15 20  1  0  0  0  0
 15 38  1  1  0  0  0
 16  7  1  0  0  0  0
 16  4  1  0  0  0  0
 17  5  1  0  0  0  0
 17 28  1  0  0  0  0
 18 37  1  0  0  0  0
 19 13  1  1  0  0  0
 19 21  1  0  0  0  0
 20 40  1  6  0  0  0
 20 31  1  0  0  0  0
 21 42  1  0  0  0  0
 22 38  1  0  0  0  0
 22 44  1  0  0  0  0
 24 18  1  0  0  0  0
 25 26  1  0  0  0  0
 26 16  2  0  0  0  0
 28 22  1  0  0  0  0
 29  4  1  0  0  0  0
 29 19  1  0  0  0  0
 31 39  1  0  0  0  0
 32  7  2  0  0  0  0
 33 23  1  0  0  0  0
 34 21  1  0  0  0  0
 34  9  1  0  0  0  0
 36 37  1  0  0  0  0
 36 12  1  0  0  0  0
 37 33  1  0  0  0  0
 37 27  1  0  0  0  0
 39 36  1  0  0  0  0
 39  8  1  0  0  0  0
 41 29  1  0  0  0  0
 42  1  1  0  0  0  0
 42 10  1  0  0  0  0
 43 47  1  0  0  0  0
 44 49  1  0  0  0  0
 45 51  1  0  0  0  0
 46 44  1  0  0  0  0
 46 43  1  0  0  0  0
 46 47  1  0  0  0  0
 47 45  1  0  0  0  0
 48 43  1  0  0  0  0
 49 45  1  0  0  0  0
 51 52  1  0  0  0  0
 51 53  1  0  0  0  0
 52 55  2  0  0  0  0
 53 50  1  0  0  0  0
 54 50  1  0  0  0  0
 55 57  1  0  0  0  0
 55 54  1  0  0  0  0
 56 60  1  0  0  0  0
 57 56  2  0  0  0  0
 58 61  1  0  0  0  0
 59 58  2  0  0  0  0
 59 57  1  0  0  0  0
 61 60  2  0  0  0  0
M  END
>  <MODEL>
4

>  <REMARK>
 VINA RESULT:      -8.9      2.511      3.569
  Name = 
  3 active torsions:
  status: ('A' for Active; 'I' for Inactive)
    1  A    between atoms: C_19  and  C_27
    2  A    between atoms: N_20  and  C_21
    3  A    between atoms: C_51  and  C_52
                            x       y       z     vdW  Elec       q    Type
                         _______ _______ _______ _____ _____    ______ ____

>  <TORSDO>
F 3

$$$$
=
 OpenBabel11062420193D

 61 70  0  0  1  0  0  0  0  0999 V2000
  196.2950  170.2810  139.0700 C   0  0  0  0  0  1  0  0  0  0  0  0
  196.4770  171.7710  146.6280 C   0  0  0  0  0  3  0  0  0  0  0  0
  193.2150  171.2990  140.1600 C   0  0  0  0  0  2  0  0  0  0  0  0
  195.1280  170.0110  143.5100 C   0  0  1  0  0  3  0  0  0  0  0  0
  195.8110  175.9610  141.8690 C   0  0  2  0  0  3  0  0  0  0  0  0
  194.2060  174.7600  136.2800 O   0  0  0  0  0  0  0  0  0  0  0  0
  196.6080  172.0230  143.8310 C   0  0  0  0  0  0  0  0  0  0  0  0
  194.8040  174.7560  137.5480 C   0  0  0  0  0  2  0  0  0  0  0  0
  197.6140  173.3470  141.8670 C   0  0  0  0  0  2  0  0  0  0  0  0
  194.6600  171.8160  140.2610 C   0  0  2  0  0  3  0  0  0  0  0  0
  193.0670  169.9820  139.3950 C   0  0  0  0  0  2  0  0  0  0  0  0
  191.7480  173.7090  137.5320 C   0  0  0  0  0  1  0  0  0  0  0  0
  197.9010  168.7920  141.3280 O   0  0  0  0  0  1  0  0  0  0  0  0
  197.2010  172.8130  146.0560 C   0  0  0  0  0  3  0  0  0  0  0  0
  195.1070  174.8730  141.0840 C   0  0  2  0  0  3  0  0  0  0  0  0
  195.8230  170.9970  144.4170 C   0  0  0  0  0  0  0  0  0  0  0  0
  194.9970  176.3950  143.0800 C   0  0  0  0  0  2  0  0  0  0  0  0
  193.7420  170.6390  137.1870 O   0  0  0  0  0  0  0  0  0  0  0  0
  197.2750  169.6940  142.1880 C   0  0  1  0  0  3  0  0  0  0  0  0
  195.8010  174.0230  140.3010 C   0  0  2  0  0  3  0  0  0  0  0  0
  196.8690  170.9660  141.4250 C   0  0  2  0  0  3  0  0  0  0  0  0
  192.9690  175.3160  142.2450 C   0  0  2  0  0  3  0  0  0  0  0  0
  194.9060  173.8300  135.4940 C   0  0  0  0  0  2  0  0  0  0  0  0
  192.6400  170.2060  137.9500 C   0  0  0  0  0  2  0  0  0  0  0  0
  195.1320  169.8420  146.4260 F   0  0  0  0  0  0  0  0  0  0  0  0
  195.7980  170.8590  145.8220 C   0  0  0  0  0  0  0  0  0  0  0  0
  192.4840  171.8320  135.5200 C   0  0  0  0  0  1  0  0  0  0  0  0
  193.5450  176.6460  142.7010 C   0  0  0  0  0  2  0  0  0  0  0  0
  196.1040  169.0050  142.9060 C   0  0  1  0  0  3  0  0  0  0  0  0
  196.0800  177.1590  140.9790 C   0  0  0  0  0  1  0  0  0  0  0  0
  195.1050  173.0310  139.4020 C   0  0  2  0  0  3  0  0  0  0  0  0
  197.2630  172.9360  144.6700 C   0  0  0  0  0  3  0  0  0  0  0  0
  194.8340  172.3800  136.0270 C   0  0  0  0  0  2  0  0  0  0  0  0
  196.6770  172.2150  142.3180 C   0  0  1  0  0  3  0  0  0  0  0  0
  194.0460  169.3690  144.1180 O   0  0  0  0  0  1  0  0  0  0  0  0
  193.0310  172.9160  137.7920 C   0  0  1  0  0  3  0  0  0  0  0  0
  193.5050  171.9360  136.6600 C   0  0  2  0  0  0  0  0  0  0  0  0
  193.7110  174.7490  141.1640 O   0  0  0  0  0  0  0  0  0  0  0  0
  194.0850  173.7780  138.5000 C   0  0  2  0  0  3  0  0  0  0  0  0
  197.2820  173.8570  140.4640 C   0  0  0  0  0  2  0  0  0  0  0  0
  196.5980  168.1660  143.8870 F   0  0  0  0  0  0  0  0  0  0  0  0
  195.7250  170.7070  140.4160 C   0  0  2  0  0  3  0  0  0  0  0  0
  189.6360  173.8580  141.2160 N   0  0  0  0  0  0  0  0  0  0  0  0
  191.4690  175.3130  141.9690 C   0  0  1  0  0  3  0  0  0  0  0  0
  189.5140  175.2640  143.1340 N   0  0  2  0  0  0  0  0  0  0  0  0
  190.9540  173.8960  141.8600 C   0  0  1  0  0  3  0  0  0  0  0  0
  189.7540  173.9030  142.6810 C   0  0  2  0  0  3  0  0  0  0  0  0
  189.3980  172.4750  140.8590 C   0  0  0  0  0  1  0  0  0  0  0  0
  190.7360  175.9510  143.0470 N   0  0  0  0  0  2  0  0  0  0  0  0
  189.0700  175.0090  147.1020 C   0  0  0  0  0  2  0  0  0  0  0  0
  189.0270  175.1900  144.5200 C   0  0  2  0  0  3  0  0  0  0  0  0
  187.8880  176.0870  144.6800 N   0  0  0  0  0  0  0  0  0  0  0  0
  190.2850  175.4640  145.8340 S   0  0  0  0  0  0  0  0  0  0  0  0
  187.9310  175.9180  147.0530 N   0  0  0  0  0  2  0  0  0  0  0  0
  187.3530  176.3900  145.8270 C   0  0  0  0  0  0  0  0  0  0  0  0
  185.5960  177.7670  144.6880 C   0  0  0  0  0  3  0  0  0  0  0  0
  186.1720  177.2750  145.8690 C   0  0  0  0  0  0  0  0  0  0  0  0
  184.4340  178.3950  147.1510 C   0  0  0  0  0  3  0  0  0  0  0  0
  185.5770  177.5940  147.0990 C   0  0  0  0  0  3  0  0  0  0  0  0
  184.4550  178.5750  144.7380 C   0  0  0  0  0  3  0  0  0  0  0  0
  183.8740  178.8880  145.9700 C   0  0  0  0  0  3  0  0  0  0  0  0
  1 42  1  0  0  0  0
  4 35  1  1  0  0  0
  4 16  1  0  0  0  0
  5 30  1  6  0  0  0
  5 17  1  0  0  0  0
  6  8  1  0  0  0  0
  7 16  2  0  0  0  0
  7 32  1  0  0  0  0
  8 39  1  0  0  0  0
  9 34  1  0  0  0  0
 10  3  1  6  0  0  0
 10 42  1  0  0  0  0
 11  3  1  0  0  0  0
 12 36  1  0  0  0  0
 14  2  1  0  0  0  0
 15 38  1  6  0  0  0
 15  5  1  0  0  0  0
 16 26  1  0  0  0  0
 18 24  1  0  0  0  0
 19 13  1  6  0  0  0
 19 29  1  0  0  0  0
 20 40  1  1  0  0  0
 20 15  1  0  0  0  0
 21 19  1  0  0  0  0
 21 34  1  0  0  0  0
 22 28  1  0  0  0  0
 23 33  1  0  0  0  0
 23  6  1  0  0  0  0
 24 11  1  0  0  0  0
 26 25  1  0  0  0  0
 26  2  2  0  0  0  0
 27 37  1  0  0  0  0
 28 17  1  0  0  0  0
 29  4  1  0  0  0  0
 29 41  1  0  0  0  0
 31 10  1  0  0  0  0
 31 20  1  0  0  0  0
 32 14  2  0  0  0  0
 33 37  1  0  0  0  0
 34  7  1  0  0  0  0
 36 39  1  0  0  0  0
 37 18  1  0  0  0  0
 37 36  1  0  0  0  0
 38 22  1  0  0  0  0
 39 31  1  0  0  0  0
 40  9  1  0  0  0  0
 42 21  1  0  0  0  0
 43 46  1  0  0  0  0
 43 47  1  0  0  0  0
 44 22  1  0  0  0  0
 44 49  1  0  0  0  0
 45 51  1  0  0  0  0
 46 44  1  0  0  0  0
 46 47  1  0  0  0  0
 47 45  1  0  0  0  0
 48 43  1  0  0  0  0
 49 45  1  0  0  0  0
 51 52  1  0  0  0  0
 51 53  1  0  0  0  0
 52 55  2  0  0  0  0
 53 50  1  0  0  0  0
 54 50  1  0  0  0  0
 55 57  1  0  0  0  0
 55 54  1  0  0  0  0
 56 60  2  0  0  0  0
 56 57  1  0  0  0  0
 57 59  2  0  0  0  0
 59 58  1  0  0  0  0
 60 61  1  0  0  0  0
 61 58  2  0  0  0  0
M  END
>  <MODEL>
5

>  <REMARK>
 VINA RESULT:      -8.4      2.975      6.653
  Name = 
  3 active torsions:
  status: ('A' for Active; 'I' for Inactive)
    1  A    between atoms: C_19  and  C_27
    2  A    between atoms: N_20  and  C_21
    3  A    between atoms: C_51  and  C_52
                            x       y       z     vdW  Elec       q    Type
                         _______ _______ _______ _____ _____    ______ ____

>  <TORSDO>
F 3

$$$$
=
 OpenBabel11062420193D

 61 70  0  0  1  0  0  0  0  0999 V2000
  194.2230  176.7530  144.7400 C   0  0  0  0  0  1  0  0  0  0  0  0
  197.2890  172.3500  139.2080 C   0  0  0  0  0  3  0  0  0  0  0  0
  191.8700  176.0020  142.3720 C   0  0  0  0  0  2  0  0  0  0  0  0
  195.4390  175.4390  140.5040 C   0  0  1  0  0  3  0  0  0  0  0  0
  192.9640  170.6390  143.5700 C   0  0  2  0  0  3  0  0  0  0  0  0
  189.5570  174.2700  146.8060 O   0  0  0  0  0  0  0  0  0  0  0  0
  196.0070  173.2220  141.5550 C   0  0  0  0  0  0  0  0  0  0  0  0
  190.6230  173.6480  146.1400 C   0  0  0  0  0  2  0  0  0  0  0  0
  195.4030  172.6300  143.9850 C   0  0  0  0  0  2  0  0  0  0  0  0
  192.8780  175.2180  143.2290 C   0  0  2  0  0  3  0  0  0  0  0  0
  191.9000  177.5180  142.5880 C   0  0  0  0  0  2  0  0  0  0  0  0
  188.5650  175.1850  144.1800 C   0  0  0  0  0  1  0  0  0  0  0  0
  197.1190  176.8680  143.5170 O   0  0  0  0  0  1  0  0  0  0  0  0
  197.2080  171.5070  140.3120 C   0  0  0  0  0  3  0  0  0  0  0  0
  192.4520  172.0650  143.5400 C   0  0  2  0  0  3  0  0  0  0  0  0
  196.0390  174.0580  140.4090 C   0  0  0  0  0  0  0  0  0  0  0  0
  192.7050  169.9230  142.2510 C   0  0  0  0  0  2  0  0  0  0  0  0
  191.1730  177.6840  144.8700 O   0  0  0  0  0  0  0  0  0  0  0  0
  196.6710  175.8370  142.6910 C   0  0  1  0  0  3  0  0  0  0  0  0
  192.9710  173.0050  144.3550 C   0  0  2  0  0  3  0  0  0  0  0  0
  195.5090  175.0830  143.3600 C   0  0  2  0  0  3  0  0  0  0  0  0
  191.1060  171.6180  141.5140 C   0  0  2  0  0  3  0  0  0  0  0  0
  190.1100  175.2810  147.6080 C   0  0  0  0  0  2  0  0  0  0  0  0
  190.8060  177.9800  143.5420 C   0  0  0  0  0  2  0  0  0  0  0  0
  196.8520  174.4190  138.1600 F   0  0  0  0  0  0  0  0  0  0  0  0
  196.7200  173.6220  139.2510 C   0  0  0  0  0  0  0  0  0  0  0  0
  188.9410  177.5290  145.7540 C   0  0  0  0  0  1  0  0  0  0  0  0
  191.2710  170.1330  141.7880 C   0  0  0  0  0  2  0  0  0  0  0  0
  196.3260  176.3930  141.3010 C   0  0  1  0  0  3  0  0  0  0  0  0
  192.3130  169.8720  144.7040 C   0  0  0  0  0  1  0  0  0  0  0  0
  192.3760  174.3890  144.4430 C   0  0  2  0  0  3  0  0  0  0  0  0
  196.5720  171.9410  141.4730 C   0  0  0  0  0  3  0  0  0  0  0  0
  190.8500  176.3790  146.8090 C   0  0  0  0  0  2  0  0  0  0  0  0
  195.2910  173.6440  142.8350 C   0  0  1  0  0  3  0  0  0  0  0  0
  195.0970  175.9800  139.2610 O   0  0  0  0  0  1  0  0  0  0  0  0
  190.0150  175.5410  144.5160 C   0  0  1  0  0  3  0  0  0  0  0  0
  190.2460  176.7810  145.4530 C   0  0  2  0  0  0  0  0  0  0  0  0
  191.4170  172.4150  142.6580 O   0  0  0  0  0  0  0  0  0  0  0  0
  190.8580  174.2810  144.7530 C   0  0  2  0  0  3  0  0  0  0  0  0
  194.2960  172.8010  145.0260 C   0  0  0  0  0  2  0  0  0  0  0  0
  197.4940  176.6540  140.6090 F   0  0  0  0  0  0  0  0  0  0  0  0
  194.2250  175.9420  143.4520 C   0  0  2  0  0  3  0  0  0  0  0  0
  188.2570  173.9360  140.6190 N   0  0  0  0  0  0  0  0  0  0  0  0
  189.7770  172.0230  140.8840 C   0  0  1  0  0  3  0  0  0  0  0  0
  188.9420  172.5250  138.8270 N   0  0  2  0  0  0  0  0  0  0  0  0
  189.6480  173.5280  140.8430 C   0  0  1  0  0  3  0  0  0  0  0  0
  189.1880  173.7970  139.4900 C   0  0  2  0  0  3  0  0  0  0  0  0
  188.1920  175.3480  140.9350 C   0  0  0  0  0  1  0  0  0  0  0  0
  189.6810  171.5500  139.5150 N   0  0  0  0  0  2  0  0  0  0  0  0
  189.5570  173.5860  135.0180 C   0  0  0  0  0  2  0  0  0  0  0  0
  189.3840  172.6620  137.4310 C   0  0  2  0  0  3  0  0  0  0  0  0
  190.8170  172.4020  137.3500 N   0  0  0  0  0  0  0  0  0  0  0  0
  188.9420  174.2400  136.5950 S   0  0  0  0  0  0  0  0  0  0  0  0
  190.9720  173.2530  135.1330 N   0  0  0  0  0  2  0  0  0  0  0  0
  191.5420  172.6260  136.2930 C   0  0  0  0  0  0  0  0  0  0  0  0
  193.4280  171.0830  136.8770 C   0  0  0  0  0  3  0  0  0  0  0  0
  192.9770  172.2840  136.3070 C   0  0  0  0  0  0  0  0  0  0  0  0
  195.2650  172.8050  135.6650 C   0  0  0  0  0  3  0  0  0  0  0  0
  193.9090  173.1380  135.6970 C   0  0  0  0  0  3  0  0  0  0  0  0
  194.7860  170.7520  136.8520 C   0  0  0  0  0  3  0  0  0  0  0  0
  195.7050  171.6130  136.2460 C   0  0  0  0  0  3  0  0  0  0  0  0
  2 26  2  0  0  0  0
  2 14  1  0  0  0  0
  3 11  1  0  0  0  0
  4 35  1  6  0  0  0
  4 29  1  0  0  0  0
  5 30  1  1  0  0  0
  6 23  1  0  0  0  0
  7 34  1  0  0  0  0
  8  6  1  0  0  0  0
  9 40  1  0  0  0  0
 10  3  1  1  0  0  0
 10 42  1  0  0  0  0
 10 31  1  0  0  0  0
 11 24  1  0  0  0  0
 12 36  1  0  0  0  0
 14 32  2  0  0  0  0
 15 38  1  1  0  0  0
 15  5  1  0  0  0  0
 15 20  1  0  0  0  0
 16  4  1  0  0  0  0
 16  7  2  0  0  0  0
 17  5  1  0  0  0  0
 18 37  1  0  0  0  0
 19 21  1  0  0  0  0
 19 13  1  1  0  0  0
 20 31  1  0  0  0  0
 20 40  1  6  0  0  0
 21 42  1  0  0  0  0
 22 28  1  0  0  0  0
 22 38  1  0  0  0  0
 24 18  1  0  0  0  0
 25 26  1  0  0  0  0
 26 16  1  0  0  0  0
 28 17  1  0  0  0  0
 29 19  1  0  0  0  0
 31 39  1  0  0  0  0
 32  7  1  0  0  0  0
 33 23  1  0  0  0  0
 34 21  1  0  0  0  0
 34  9  1  0  0  0  0
 36 39  1  0  0  0  0
 36 37  1  0  0  0  0
 37 27  1  0  0  0  0
 37 33  1  0  0  0  0
 39  8  1  0  0  0  0
 41 29  1  0  0  0  0
 42  1  1  0  0  0  0
 43 46  1  0  0  0  0
 43 48  1  0  0  0  0
 44 22  1  0  0  0  0
 45 47  1  0  0  0  0
 45 49  1  0  0  0  0
 46 44  1  0  0  0  0
 47 43  1  0  0  0  0
 47 46  1  0  0  0  0
 49 44  1  0  0  0  0
 50 54  1  0  0  0  0
 50 53  1  0  0  0  0
 51 45  1  0  0  0  0
 52 51  1  0  0  0  0
 53 51  1  0  0  0  0
 54 55  1  0  0  0  0
 55 57  1  0  0  0  0
 55 52  2  0  0  0  0
 57 56  2  0  0  0  0
 58 59  2  0  0  0  0
 58 61  1  0  0  0  0
 59 57  1  0  0  0  0
 60 56  1  0  0  0  0
 61 60  2  0  0  0  0
M  END
>  <MODEL>
6

>  <REMARK>
 VINA RESULT:      -8.4      3.028      7.152
  Name = 
  3 active torsions:
  status: ('A' for Active; 'I' for Inactive)
    1  A    between atoms: C_19  and  C_27
    2  A    between atoms: N_20  and  C_21
    3  A    between atoms: C_51  and  C_52
                            x       y       z     vdW  Elec       q    Type
                         _______ _______ _______ _____ _____    ______ ____

>  <TORSDO>
F 3

$$$$
=
 OpenBabel11062420193D

 61 70  0  0  1  0  0  0  0  0999 V2000
  196.7140  172.4450  139.8100 C   0  0  0  0  0  1  0  0  0  0  0  0
  190.1390  173.9220  136.0720 C   0  0  0  0  0  3  0  0  0  0  0  0
  194.9270  174.8600  141.4480 C   0  0  0  0  0  2  0  0  0  0  0  0
  193.4860  174.9030  137.6440 C   0  0  1  0  0  3  0  0  0  0  0  0
  190.8210  171.0590  141.7280 C   0  0  2  0  0  3  0  0  0  0  0  0
  195.6040  171.2330  145.2420 O   0  0  0  0  0  0  0  0  0  0  0  0
  192.0590  172.8360  137.8170 C   0  0  0  0  0  0  0  0  0  0  0  0
  194.7250  171.1280  144.1550 C   0  0  0  0  0  2  0  0  0  0  0  0
  192.7350  170.7800  139.2100 C   0  0  0  0  0  2  0  0  0  0  0  0
  194.6500  173.4520  140.8960 C   0  0  2  0  0  3  0  0  0  0  0  0
  196.3540  175.3620  141.2150 C   0  0  0  0  0  2  0  0  0  0  0  0
  195.1310  174.1470  145.2310 C   0  0  0  0  0  1  0  0  0  0  0  0
  196.1870  172.5010  136.7090 O   0  0  0  0  0  1  0  0  0  0  0  0
  189.9430  172.6600  136.6250 C   0  0  0  0  0  3  0  0  0  0  0  0
  192.0550  171.9090  141.9470 C   0  0  2  0  0  3  0  0  0  0  0  0
  192.2280  174.1450  137.2980 C   0  0  0  0  0  0  0  0  0  0  0  0
  189.5550  171.9040  141.7060 C   0  0  0  0  0  2  0  0  0  0  0  0
  197.6210  173.8170  142.5460 O   0  0  0  0  0  0  0  0  0  0  0  0
  194.8880  172.8630  137.0670 C   0  0  1  0  0  3  0  0  0  0  0  0
  193.2680  171.4880  141.5350 C   0  0  2  0  0  3  0  0  0  0  0  0
  194.5700  172.3730  138.4900 C   0  0  2  0  0  3  0  0  0  0  0  0
  190.6900  173.8330  142.6880 C   0  0  2  0  0  3  0  0  0  0  0  0
  196.8730  170.8440  144.7820 C   0  0  0  0  0  2  0  0  0  0  0  0
  197.2350  175.1680  142.4430 C   0  0  0  0  0  2  0  0  0  0  0  0
  191.4370  175.8740  135.8040 F   0  0  0  0  0  0  0  0  0  0  0  0
  191.2750  174.6620  136.3930 C   0  0  0  0  0  0  0  0  0  0  0  0
  197.9410  173.7930  144.9300 C   0  0  0  0  0  1  0  0  0  0  0  0
  189.5260  172.8750  142.8770 C   0  0  0  0  0  2  0  0  0  0  0  0
  194.6990  174.3770  136.8800 C   0  0  1  0  0  3  0  0  0  0  0  0
  190.7120  170.0040  142.8110 C   0  0  0  0  0  1  0  0  0  0  0  0
  194.5250  172.2520  141.8740 C   0  0  2  0  0  3  0  0  0  0  0  0
  190.8950  172.1250  137.4890 C   0  0  0  0  0  3  0  0  0  0  0  0
  197.4330  171.7440  143.6560 C   0  0  0  0  0  2  0  0  0  0  0  0
  193.0600  172.2240  138.7940 C   0  0  1  0  0  3  0  0  0  0  0  0
  193.3550  176.2870  137.5010 O   0  0  0  0  0  1  0  0  0  0  0  0
  195.5910  173.5320  143.9070 C   0  0  1  0  0  3  0  0  0  0  0  0
  197.1280  173.2480  143.7490 C   0  0  2  0  0  0  0  0  0  0  0  0
  191.9410  173.1500  142.5930 O   0  0  0  0  0  0  0  0  0  0  0  0
  194.5980  172.4730  143.4100 C   0  0  2  0  0  3  0  0  0  0  0  0
  193.4040  170.3870  140.5270 C   0  0  0  0  0  2  0  0  0  0  0  0
  194.5760  174.6600  135.5320 F   0  0  0  0  0  0  0  0  0  0  0  0
  195.3770  173.1330  139.5690 C   0  0  2  0  0  3  0  0  0  0  0  0
  191.0170  177.4350  143.7900 N   0  0  0  0  0  0  0  0  0  0  0  0
  190.7500  174.9940  143.6750 C   0  0  1  0  0  3  0  0  0  0  0  0
  189.3270  176.2270  144.9550 N   0  0  2  0  0  0  0  0  0  0  0  0
  190.5770  176.3110  142.9550 C   0  0  1  0  0  3  0  0  0  0  0  0
  189.6060  177.0230  143.7700 C   0  0  2  0  0  3  0  0  0  0  0  0
  191.1310  178.5770  142.9060 C   0  0  0  0  0  1  0  0  0  0  0  0
  189.6840  174.9020  144.6570 N   0  0  0  0  0  2  0  0  0  0  0  0
  185.7140  176.8840  146.5430 C   0  0  0  0  0  2  0  0  0  0  0  0
  187.8910  176.3530  145.2450 C   0  0  2  0  0  3  0  0  0  0  0  0
  187.1930  176.8040  144.0470 N   0  0  0  0  0  0  0  0  0  0  0  0
  187.4500  177.3850  146.7040 S   0  0  0  0  0  0  0  0  0  0  0  0
  185.1940  177.2910  145.2430 N   0  0  0  0  0  2  0  0  0  0  0  0
  185.9510  177.1910  144.0260 C   0  0  0  0  0  0  0  0  0  0  0  0
  183.9540  177.8430  142.6600 C   0  0  0  0  0  3  0  0  0  0  0  0
  185.3310  177.5850  142.7460 C   0  0  0  0  0  0  0  0  0  0  0  0
  185.5600  178.1720  140.3960 C   0  0  0  0  0  3  0  0  0  0  0  0
  186.1270  177.7580  141.6040 C   0  0  0  0  0  3  0  0  0  0  0  0
  183.3830  178.2520  141.4500 C   0  0  0  0  0  3  0  0  0  0  0  0
  184.1860  178.4160  140.3190 C   0  0  0  0  0  3  0  0  0  0  0  0
  2 26  2  0  0  0  0
  2 14  1  0  0  0  0
  4 35  1  6  0  0  0
  5 15  1  0  0  0  0
  5 30  1  1  0  0  0
  7 34  1  0  0  0  0
  8  6  1  0  0  0  0
  9 40  1  0  0  0  0
 10  3  1  1  0  0  0
 10 31  1  0  0  0  0
 11  3  1  0  0  0  0
 11 24  1  0  0  0  0
 14 32  2  0  0  0  0
 15 38  1  1  0  0  0
 16  4  1  0  0  0  0
 16  7  2  0  0  0  0
 17  5  1  0  0  0  0
 17 28  1  0  0  0  0
 18 37  1  0  0  0  0
 19 13  1  1  0  0  0
 19 21  1  0  0  0  0
 20 40  1  6  0  0  0
 20 31  1  0  0  0  0
 20 15  1  0  0  0  0
 21 34  1  0  0  0  0
 21 42  1  0  0  0  0
 22 28  1  0  0  0  0
 22 44  1  0  0  0  0
 23  6  1  0  0  0  0
 24 18  1  0  0  0  0
 25 26  1  0  0  0  0
 26 16  1  0  0  0  0
 29 19  1  0  0  0  0
 29  4  1  0  0  0  0
 31 39  1  0  0  0  0
 32  7  1  0  0  0  0
 33 37  1  0  0  0  0
 33 23  1  0  0  0  0
 34  9  1  0  0  0  0
 36 12  1  0  0  0  0
 37 36  1  0  0  0  0
 37 27  1  0  0  0  0
 38 22  1  0  0  0  0
 39 36  1  0  0  0  0
 39  8  1  0  0  0  0
 41 29  1  0  0  0  0
 42  1  1  0  0  0  0
 42 10  1  0  0  0  0
 44 49  1  0  0  0  0
 45 51  1  0  0  0  0
 46 44  1  0  0  0  0
 46 47  1  0  0  0  0
 46 43  1  0  0  0  0
 47 43  1  0  0  0  0
 47 45  1  0  0  0  0
 48 43  1  0  0  0  0
 49 45  1  0  0  0  0
 50 53  1  0  0  0  0
 51 53  1  0  0  0  0
 52 51  1  0  0  0  0
 54 50  1  0  0  0  0
 55 52  2  0  0  0  0
 55 54  1  0  0  0  0
 56 57  1  0  0  0  0
 57 55  1  0  0  0  0
 58 59  1  0  0  0  0
 59 57  2  0  0  0  0
 60 56  2  0  0  0  0
 61 58  2  0  0  0  0
 61 60  1  0  0  0  0
M  END
>  <MODEL>
7

>  <REMARK>
 VINA RESULT:      -8.3      2.431      4.065
  Name = 
  3 active torsions:
  status: ('A' for Active; 'I' for Inactive)
    1  A    between atoms: C_19  and  C_27
    2  A    between atoms: N_20  and  C_21
    3  A    between atoms: C_51  and  C_52
                            x       y       z     vdW  Elec       q    Type
                         _______ _______ _______ _____ _____    ______ ____

>  <TORSDO>
F 3

$$$$
=
 OpenBabel11062420193D

 61 70  0  0  1  0  0  0  0  0999 V2000
  197.4600  172.6660  140.7250 C   0  0  0  0  0  1  0  0  0  0  0  0
  191.5500  173.0140  135.7920 C   0  0  0  0  0  3  0  0  0  0  0  0
  194.8950  174.4940  142.0630 C   0  0  0  0  0  2  0  0  0  0  0  0
  194.2280  174.5520  138.0510 C   0  0  1  0  0  3  0  0  0  0  0  0
  191.7810  169.8910  141.3460 C   0  0  2  0  0  3  0  0  0  0  0  0
  195.6470  170.7860  145.7630 O   0  0  0  0  0  0  0  0  0  0  0  0
  193.3010  172.2200  137.8440 C   0  0  0  0  0  0  0  0  0  0  0  0
  195.0370  170.5880  144.5160 C   0  0  0  0  0  2  0  0  0  0  0  0
  194.1500  170.2460  139.2600 C   0  0  0  0  0  2  0  0  0  0  0  0
  195.0550  173.1110  141.4080 C   0  0  2  0  0  3  0  0  0  0  0  0
  196.1890  175.3080  142.1460 C   0  0  0  0  0  2  0  0  0  0  0  0
  194.5360  173.5200  145.7760 C   0  0  0  0  0  1  0  0  0  0  0  0
  197.5300  172.8730  137.5870 O   0  0  0  0  0  1  0  0  0  0  0  0
  191.5440  171.6970  136.2410 C   0  0  0  0  0  3  0  0  0  0  0  0
  192.7270  170.9640  141.8450 C   0  0  2  0  0  3  0  0  0  0  0  0
  193.2630  173.5740  137.4250 C   0  0  0  0  0  0  0  0  0  0  0  0
  190.3840  170.4450  141.1020 C   0  0  0  0  0  2  0  0  0  0  0  0
  197.4980  173.9620  143.6420 O   0  0  0  0  0  0  0  0  0  0  0  0
  196.1390  172.9170  137.6880 C   0  0  1  0  0  3  0  0  0  0  0  0
  194.0590  170.8500  141.6720 C   0  0  2  0  0  3  0  0  0  0  0  0
  195.6770  172.2500  138.9950 C   0  0  2  0  0  3  0  0  0  0  0  0
  190.8460  172.4810  142.3720 C   0  0  2  0  0  3  0  0  0  0  0  0
  197.0350  170.7180  145.5550 C   0  0  0  0  0  2  0  0  0  0  0  0
  196.8420  175.2030  143.5180 C   0  0  0  0  0  2  0  0  0  0  0  0
  192.3980  175.2150  135.8730 F   0  0  0  0  0  0  0  0  0  0  0  0
  192.4070  173.9500  136.3670 C   0  0  0  0  0  0  0  0  0  0  0  0
  197.3580  173.8040  146.0380 C   0  0  0  0  0  1  0  0  0  0  0  0
  189.9160  171.2830  142.2810 C   0  0  0  0  0  2  0  0  0  0  0  0
  195.6500  174.3650  137.5280 C   0  0  1  0  0  3  0  0  0  0  0  0
  191.7120  168.7490  142.3400 C   0  0  0  0  0  1  0  0  0  0  0  0
  195.0220  171.8340  142.2910 C   0  0  2  0  0  3  0  0  0  0  0  0
  192.4120  171.3060  137.2580 C   0  0  0  0  0  3  0  0  0  0  0  0
  197.5790  171.8100  144.6050 C   0  0  0  0  0  2  0  0  0  0  0  0
  194.2110  171.7560  138.9780 C   0  0  1  0  0  3  0  0  0  0  0  0
  193.8160  175.8830  137.9410 O   0  0  0  0  0  1  0  0  0  0  0  0
  195.3650  173.1340  144.5490 C   0  0  1  0  0  3  0  0  0  0  0  0
  196.9280  173.2000  144.6950 C   0  0  2  0  0  0  0  0  0  0  0  0
  192.2140  172.0920  142.5060 O   0  0  0  0  0  0  0  0  0  0  0  0
  194.7510  171.9330  143.8170 C   0  0  2  0  0  3  0  0  0  0  0  0
  194.6290  169.8940  140.6680 C   0  0  0  0  0  2  0  0  0  0  0  0
  195.7240  174.7290  136.1960 F   0  0  0  0  0  0  0  0  0  0  0  0
  196.0720  173.0700  140.2460 C   0  0  2  0  0  3  0  0  0  0  0  0
  191.1550  175.7060  144.3190 N   0  0  0  0  0  0  0  0  0  0  0  0
  190.4530  173.5390  143.3980 C   0  0  1  0  0  3  0  0  0  0  0  0
  188.9300  175.2150  143.6300 N   0  0  2  0  0  0  0  0  0  0  0  0
  191.2070  174.8240  143.1480 C   0  0  1  0  0  3  0  0  0  0  0  0
  190.1780  175.8480  143.2310 C   0  0  2  0  0  3  0  0  0  0  0  0
  192.1660  176.7220  144.1070 C   0  0  0  0  0  1  0  0  0  0  0  0
  189.0370  173.8520  143.3120 N   0  0  0  0  0  2  0  0  0  0  0  0
  186.1310  177.6710  142.1660 C   0  0  0  0  0  2  0  0  0  0  0  0
  187.8440  175.8660  142.8810 C   0  0  2  0  0  3  0  0  0  0  0  0
  187.9650  175.5320  141.4660 N   0  0  0  0  0  0  0  0  0  0  0  0
  187.6690  177.6810  143.1280 S   0  0  0  0  0  0  0  0  0  0  0  0
  186.3900  177.1930  140.8130 N   0  0  0  0  0  2  0  0  0  0  0  0
  187.2740  176.1000  140.5200 C   0  0  0  0  0  0  0  0  0  0  0  0
  186.8300  176.3390  138.0650 C   0  0  0  0  0  3  0  0  0  0  0  0
  187.4450  175.6520  139.1240 C   0  0  0  0  0  0  0  0  0  0  0  0
  188.4780  174.1500  137.5130 C   0  0  0  0  0  3  0  0  0  0  0  0
  188.2730  174.5570  138.8330 C   0  0  0  0  0  3  0  0  0  0  0  0
  187.0280  175.9280  136.7440 C   0  0  0  0  0  3  0  0  0  0  0  0
  187.8530  174.8340  136.4680 C   0  0  0  0  0  3  0  0  0  0  0  0
  2 14  2  0  0  0  0
  2 26  1  0  0  0  0
  3 11  1  0  0  0  0
  4 35  1  6  0  0  0
  5 15  1  0  0  0  0
  5 30  1  1  0  0  0
  7 34  1  0  0  0  0
  8  6  1  0  0  0  0
  9 40  1  0  0  0  0
 10  3  1  1  0  0  0
 10 31  1  0  0  0  0
 11 24  1  0  0  0  0
 14 32  1  0  0  0  0
 15 38  1  1  0  0  0
 16  7  1  0  0  0  0
 16  4  1  0  0  0  0
 17  5  1  0  0  0  0
 17 28  1  0  0  0  0
 18 37  1  0  0  0  0
 19 13  1  1  0  0  0
 19 21  1  0  0  0  0
 20 40  1  6  0  0  0
 20 15  1  0  0  0  0
 20 31  1  0  0  0  0
 21 42  1  0  0  0  0
 22 38  1  0  0  0  0
 22 44  1  0  0  0  0
 23  6  1  0  0  0  0
 24 18  1  0  0  0  0
 25 26  1  0  0  0  0
 26 16  2  0  0  0  0
 28 22  1  0  0  0  0
 29 19  1  0  0  0  0
 29  4  1  0  0  0  0
 31 39  1  0  0  0  0
 32  7  2  0  0  0  0
 33 37  1  0  0  0  0
 33 23  1  0  0  0  0
 34 21  1  0  0  0  0
 34  9  1  0  0  0  0
 36 37  1  0  0  0  0
 36 12  1  0  0  0  0
 37 27  1  0  0  0  0
 39  8  1  0  0  0  0
 39 36  1  0  0  0  0
 41 29  1  0  0  0  0
 42  1  1  0  0  0  0
 42 10  1  0  0  0  0
 46 47  1  0  0  0  0
 46 44  1  0  0  0  0
 46 43  1  0  0  0  0
 47 45  1  0  0  0  0
 47 43  1  0  0  0  0
 48 43  1  0  0  0  0
 49 44  1  0  0  0  0
 49 45  1  0  0  0  0
 50 53  1  0  0  0  0
 51 53  1  0  0  0  0
 51 45  1  0  0  0  0
 52 51  1  0  0  0  0
 54 50  1  0  0  0  0
 55 54  1  0  0  0  0
 55 52  2  0  0  0  0
 56 57  1  0  0  0  0
 57 55  1  0  0  0  0
 58 59  1  0  0  0  0
 59 57  2  0  0  0  0
 60 56  2  0  0  0  0
 61 60  1  0  0  0  0
 61 58  2  0  0  0  0
M  END
>  <MODEL>
8

>  <REMARK>
 VINA RESULT:      -8.1      2.612      4.934
  Name = 
  3 active torsions:
  status: ('A' for Active; 'I' for Inactive)
    1  A    between atoms: C_19  and  C_27
    2  A    between atoms: N_20  and  C_21
    3  A    between atoms: C_51  and  C_52
                            x       y       z     vdW  Elec       q    Type
                         _______ _______ _______ _____ _____    ______ ____

>  <TORSDO>
F 3

$$$$
=
 OpenBabel11062420193D

 61 70  0  0  1  0  0  0  0  0999 V2000
  193.8970  176.7010  144.7900 C   0  0  0  0  0  1  0  0  0  0  0  0
  197.9410  172.3680  139.8640 C   0  0  0  0  0  3  0  0  0  0  0  0
  191.9020  175.6330  142.2230 C   0  0  0  0  0  2  0  0  0  0  0  0
  195.6940  175.3240  140.7860 C   0  0  1  0  0  3  0  0  0  0  0  0
  193.3190  170.4520  143.8160 C   0  0  2  0  0  3  0  0  0  0  0  0
  189.2630  173.8860  146.4660 O   0  0  0  0  0  0  0  0  0  0  0  0
  196.3310  173.2170  142.0080 C   0  0  0  0  0  0  0  0  0  0  0  0
  190.4480  173.3380  145.9530 C   0  0  0  0  0  2  0  0  0  0  0  0
  195.5120  172.6770  144.3870 C   0  0  0  0  0  2  0  0  0  0  0  0
  192.8710  174.9840  143.2250 C   0  0  2  0  0  3  0  0  0  0  0  0
  191.7740  177.1530  142.3600 C   0  0  0  0  0  2  0  0  0  0  0  0
  188.4970  174.5900  143.7030 C   0  0  0  0  0  1  0  0  0  0  0  0
  196.8910  177.0320  143.8830 O   0  0  0  0  0  1  0  0  0  0  0  0
  197.8110  171.5690  140.9960 C   0  0  0  0  0  3  0  0  0  0  0  0
  192.6910  171.8210  143.6550 C   0  0  2  0  0  3  0  0  0  0  0  0
  196.4190  174.0020  140.8300 C   0  0  0  0  0  0  0  0  0  0  0  0
  193.2740  169.6590  142.5170 C   0  0  0  0  0  2  0  0  0  0  0  0
  190.7820  177.3490  144.5380 O   0  0  0  0  0  0  0  0  0  0  0  0
  196.6310  175.9290  143.0700 C   0  0  1  0  0  3  0  0  0  0  0  0
  193.0300  172.8400  144.4710 C   0  0  2  0  0  3  0  0  0  0  0  0
  195.4720  175.1000  143.6480 C   0  0  2  0  0  3  0  0  0  0  0  0
  191.6260  171.1640  141.5220 C   0  0  2  0  0  3  0  0  0  0  0  0
  189.6310  174.9780  147.2680 C   0  0  0  0  0  2  0  0  0  0  0  0
  190.5430  177.5520  143.1640 C   0  0  0  0  0  2  0  0  0  0  0  0
  197.4460  174.3410  138.6670 F   0  0  0  0  0  0  0  0  0  0  0  0
  197.2620  173.5820  139.7770 C   0  0  0  0  0  0  0  0  0  0  0  0
  188.4860  177.0260  145.1810 C   0  0  0  0  0  1  0  0  0  0  0  0
  191.8890  169.7140  141.8910 C   0  0  0  0  0  2  0  0  0  0  0  0
  196.3980  176.3900  141.6230 C   0  0  1  0  0  3  0  0  0  0  0  0
  192.6140  169.6770  144.9120 C   0  0  0  0  0  1  0  0  0  0  0  0
  192.3100  174.1650  144.4190 C   0  0  2  0  0  3  0  0  0  0  0  0
  197.0120  171.9920  142.0560 C   0  0  0  0  0  3  0  0  0  0  0  0
  190.3570  176.1040  146.4970 C   0  0  0  0  0  2  0  0  0  0  0  0
  195.4410  173.6260  143.1790 C   0  0  1  0  0  3  0  0  0  0  0  0
  195.4480  175.7770  139.4870 O   0  0  0  0  0  1  0  0  0  0  0  0
  189.8630  175.0940  144.1750 C   0  0  1  0  0  3  0  0  0  0  0  0
  189.8780  176.3890  145.0640 C   0  0  2  0  0  0  0  0  0  0  0  0
  191.7350  172.0350  142.6480 O   0  0  0  0  0  0  0  0  0  0  0  0
  190.7820  173.9300  144.5680 C   0  0  2  0  0  3  0  0  0  0  0  0
  194.2840  172.7890  145.2910 C   0  0  0  0  0  2  0  0  0  0  0  0
  197.6090  176.7290  141.0490 F   0  0  0  0  0  0  0  0  0  0  0  0
  194.1160  175.8390  143.5540 C   0  0  2  0  0  3  0  0  0  0  0  0
  188.7730  173.1950  140.0990 N   0  0  0  0  0  0  0  0  0  0  0  0
  190.3470  171.4160  140.7310 C   0  0  1  0  0  3  0  0  0  0  0  0
  189.6900  171.6260  138.5620 N   0  0  2  0  0  0  0  0  0  0  0  0
  190.1540  172.8960  140.4950 C   0  0  1  0  0  3  0  0  0  0  0  0
  189.8130  172.9780  139.0840 C   0  0  2  0  0  3  0  0  0  0  0  0
  188.6130  174.6290  140.2330 C   0  0  0  0  0  1  0  0  0  0  0  0
  190.4030  170.7810  139.4260 N   0  0  0  0  0  2  0  0  0  0  0  0
  190.3680  171.5110  134.6190 C   0  0  0  0  0  2  0  0  0  0  0  0
  190.2570  171.6220  137.2040 C   0  0  2  0  0  3  0  0  0  0  0  0
  191.3390  172.5960  137.1300 N   0  0  0  0  0  0  0  0  0  0  0  0
  189.0570  171.8490  135.8280 S   0  0  0  0  0  0  0  0  0  0  0  0
  191.4380  172.4920  134.7550 N   0  0  0  0  0  2  0  0  0  0  0  0
  191.9150  172.9660  136.0230 C   0  0  0  0  0  0  0  0  0  0  0  0
  194.3660  173.4910  135.9940 C   0  0  0  0  0  3  0  0  0  0  0  0
  193.0340  173.9280  136.0690 C   0  0  0  0  0  0  0  0  0  0  0  0
  193.8220  176.2290  136.1370 C   0  0  0  0  0  3  0  0  0  0  0  0
  192.7740  175.3060  136.1360 C   0  0  0  0  0  3  0  0  0  0  0  0
  195.4160  174.4140  136.0020 C   0  0  0  0  0  3  0  0  0  0  0  0
  195.1440  175.7830  136.0730 C   0  0  0  0  0  3  0  0  0  0  0  0
  2 14  1  0  0  0  0
  3 11  1  0  0  0  0
  4 35  1  6  0  0  0
  4 16  1  0  0  0  0
  4 29  1  0  0  0  0
  5 30  1  1  0  0  0
  6 23  1  0  0  0  0
  7 32  1  0  0  0  0
  7 34  1  0  0  0  0
  8  6  1  0  0  0  0
  9 40  1  0  0  0  0
 10  3  1  1  0  0  0
 10 42  1  0  0  0  0
 10 31  1  0  0  0  0
 11 24  1  0  0  0  0
 12 36  1  0  0  0  0
 14 32  2  0  0  0  0
 15 38  1  1  0  0  0
 15  5  1  0  0  0  0
 15 20  1  0  0  0  0
 16  7  2  0  0  0  0
 17  5  1  0  0  0  0
 18 37  1  0  0  0  0
 19 21  1  0  0  0  0
 19 13  1  1  0  0  0
 20 40  1  6  0  0  0
 22 28  1  0  0  0  0
 22 38  1  0  0  0  0
 24 18  1  0  0  0  0
 25 26  1  0  0  0  0
 26  2  2  0  0  0  0
 26 16  1  0  0  0  0
 28 17  1  0  0  0  0
 29 19  1  0  0  0  0
 31 20  1  0  0  0  0
 31 39  1  0  0  0  0
 33 23  1  0  0  0  0
 34 21  1  0  0  0  0
 34  9  1  0  0  0  0
 36 39  1  0  0  0  0
 36 37  1  0  0  0  0
 37 27  1  0  0  0  0
 37 33  1  0  0  0  0
 39  8  1  0  0  0  0
 41 29  1  0  0  0  0
 42 21  1  0  0  0  0
 42  1  1  0  0  0  0
 43 48  1  0  0  0  0
 43 46  1  0  0  0  0
 44 22  1  0  0  0  0
 45 47  1  0  0  0  0
 45 49  1  0  0  0  0
 46 44  1  0  0  0  0
 47 43  1  0  0  0  0
 47 46  1  0  0  0  0
 49 44  1  0  0  0  0
 50 54  1  0  0  0  0
 50 53  1  0  0  0  0
 51 45  1  0  0  0  0
 52 51  1  0  0  0  0
 53 51  1  0  0  0  0
 54 55  1  0  0  0  0
 55 57  1  0  0  0  0
 55 52  2  0  0  0  0
 56 60  2  0  0  0  0
 56 57  1  0  0  0  0
 57 59  2  0  0  0  0
 59 58  1  0  0  0  0
 60 61  1  0  0  0  0
 61 58  2  0  0  0  0
M  END
>  <MODEL>
9

>  <REMARK>
 VINA RESULT:      -7.8      3.390      7.377
  Name = 
  3 active torsions:
  status: ('A' for Active; 'I' for Inactive)
    1  A    between atoms: C_19  and  C_27
    2  A    between atoms: N_20  and  C_21
    3  A    between atoms: C_51  and  C_52
                            x       y       z     vdW  Elec       q    Type
                         _______ _______ _______ _____ _____    ______ ____

>  <TORSDO>
F 3

$$$$
