=
 OpenBabel11062420383D

 32 36  0  0  1  0  0  0  0  0999 V2000
  188.5610  175.3580  147.2520 N   0  0  0  0  0  0  0  0  0  0  0  0
  188.1470  176.1380  146.2900 C   0  0  0  0  0  0  0  0  0  0  0  0
  189.7250  177.5960  145.0330 C   0  0  0  0  0  3  0  0  0  0  0  0
  188.0330  175.1280  142.8230 C   0  0  0  0  0  2  0  0  0  0  0  0
  189.7220  178.0600  142.5930 N   0  0  0  0  0  0  0  0  0  0  0  0
  190.5320  177.9440  143.7990 C   0  0  0  0  0  2  0  0  0  0  0  0
  189.2660  175.6500  142.4910 C   0  0  2  0  0  3  0  0  0  0  0  0
  188.8500  175.7350  143.9130 N   0  0  0  0  0  0  0  0  0  0  0  0
  189.1720  177.0580  141.9790 C   0  0  0  0  0  3  0  0  0  0  0  0
  188.9710  176.4930  145.1060 C   0  0  0  0  0  0  0  0  0  0  0  0
  189.8190  174.7440  147.2840 N   0  0  0  0  0  2  0  0  0  0  0  0
  190.9760  175.4500  147.8080 C   0  0  0  0  0  2  0  0  0  0  0  0
  193.7070  174.8640  144.1360 C   0  0  0  0  0  2  0  0  0  0  0  0
  191.7790  174.3890  145.7210 C   0  0  0  0  0  2  0  0  0  0  0  0
  194.6870  175.6890  144.9720 C   0  0  1  0  0  0  0  0  0  0  0  0
  192.2090  175.1470  146.9720 C   0  0  1  0  0  3  0  0  0  0  0  0
  196.0100  175.2400  144.8350 O   0  0  0  0  0  0  0  0  0  0  0  0
  192.9140  176.4470  146.6060 C   0  0  0  0  0  2  0  0  0  0  0  0
  195.6850  176.4640  144.2130 C   0  0  0  0  0  2  0  0  0  0  0  0
  194.3930  176.1870  146.3830 C   0  0  0  0  0  2  0  0  0  0  0  0
  192.9460  173.8020  144.9280 C   0  0  2  0  0  3  0  0  0  0  0  0
  193.7960  173.0460  145.7400 O   0  0  0  0  0  1  0  0  0  0  0  0
  186.8540  176.6690  146.3510 O   0  0  0  0  0  0  0  0  0  0  0  0
  186.5900  177.9440  146.8500 C   0  0  0  0  0  3  0  0  0  0  0  0
  185.9680  178.8860  146.1370 C   0  0  0  0  0  3  0  0  0  0  0  0
  185.9720  178.6030  142.3860 C   0  0  0  0  0  3  0  0  0  0  0  0
  185.4640  178.7480  144.7580 C   0  0  0  0  0  0  0  0  0  0  0  0
  183.6720  178.5140  143.1320 C   0  0  0  0  0  3  0  0  0  0  0  0
  186.3960  178.7290  143.7130 C   0  0  0  0  0  3  0  0  0  0  0  0
  184.6090  178.4950  142.0970 C   0  0  0  0  0  0  0  0  0  0  0  0
  184.0980  178.6410  144.4570 C   0  0  0  0  0  3  0  0  0  0  0  0
  184.0770  178.3370  140.4370 Cl  0  0  0  0  0  0  0  0  0  0  0  0
  1 11  1  0  0  0  0
  2 23  1  0  0  0  0
  2  1  2  0  0  0  0
  3 10  2  0  0  0  0
  4  8  1  0  0  0  0
  5  6  1  0  0  0  0
  6  3  1  0  0  0  0
  7  9  1  6  0  0  0
  7  4  1  0  0  0  0
  7  8  1  0  0  0  0
  8 10  1  0  0  0  0
  9  5  2  0  0  0  0
 10  2  1  0  0  0  0
 11 12  1  0  0  0  0
 13 21  1  0  0  0  0
 14 16  1  0  0  0  0
 15 13  1  6  0  0  0
 15 20  1  0  0  0  0
 16 12  1  1  0  0  0
 17 15  1  0  0  0  0
 18 16  1  0  0  0  0
 19 17  1  0  0  0  0
 19 15  1  0  0  0  0
 20 18  1  0  0  0  0
 21 14  1  0  0  0  0
 21 22  1  1  0  0  0
 23 24  1  0  0  0  0
 25 24  2  0  0  0  0
 26 29  1  0  0  0  0
 27 25  1  0  0  0  0
 28 31  2  0  0  0  0
 29 27  2  0  0  0  0
 30 26  2  0  0  0  0
 30 28  1  0  0  0  0
 31 27  1  0  0  0  0
 32 30  1  0  0  0  0
M  END
>  <MODEL>
1

>  <REMARK>
 VINA RESULT:      -8.3      0.000      0.000
  Name = 
  7 active torsions:
  status: ('A' for Active; 'I' for Inactive)
    1  A    between atoms: N_1  and  N_2
    2  A    between atoms: N_1  and  C_18
    3  A    between atoms: C_3  and  O_26
    4  A    between atoms: C_9  and  C_22
    5  A    between atoms: C_18  and  C_20
    6  A    between atoms: O_26  and  C_31
    7  A    between atoms: C_30  and  C_31
                            x       y       z     vdW  Elec       q    Type
                         _______ _______ _______ _____ _____    ______ ____

>  <TORSDO>
F 7

$$$$
=
 OpenBabel11062420383D

 32 36  0  0  1  0  0  0  0  0999 V2000
  189.4280  175.4620  147.0280 N   0  0  0  0  0  0  0  0  0  0  0  0
  190.5030  175.6750  146.3180 C   0  0  0  0  0  0  0  0  0  0  0  0
  190.5330  177.4390  144.5630 C   0  0  0  0  0  3  0  0  0  0  0  0
  189.3900  174.1590  143.2330 C   0  0  0  0  0  2  0  0  0  0  0  0
  189.2760  177.4500  142.4210 N   0  0  0  0  0  0  0  0  0  0  0  0
  190.4770  177.8920  143.1180 C   0  0  0  0  0  2  0  0  0  0  0  0
  189.9730  175.0960  142.4050 C   0  0  2  0  0  3  0  0  0  0  0  0
  190.2180  175.2270  143.8630 N   0  0  0  0  0  0  0  0  0  0  0  0
  189.0390  176.2230  142.0710 C   0  0  0  0  0  3  0  0  0  0  0  0
  190.4780  176.1480  144.9100 C   0  0  0  0  0  0  0  0  0  0  0  0
  188.1220  175.6690  146.5660 N   0  0  0  0  0  2  0  0  0  0  0  0
  187.2790  176.6950  147.1580 C   0  0  0  0  0  2  0  0  0  0  0  0
  185.2970  179.4660  144.0460 C   0  0  0  0  0  2  0  0  0  0  0  0
  186.1420  178.7300  146.3270 C   0  0  0  0  0  2  0  0  0  0  0  0
  185.1480  178.1610  143.2620 C   0  0  1  0  0  0  0  0  0  0  0  0
  186.2860  177.2240  146.1360 C   0  0  1  0  0  3  0  0  0  0  0  0
  183.9270  178.0940  142.5720 O   0  0  0  0  0  0  0  0  0  0  0  0
  186.7710  176.8980  144.7300 C   0  0  0  0  0  2  0  0  0  0  0  0
  185.0870  178.2960  141.7950 C   0  0  0  0  0  2  0  0  0  0  0  0
  185.5870  176.7980  143.7850 C   0  0  0  0  0  2  0  0  0  0  0  0
  184.9850  179.3420  145.5370 C   0  0  2  0  0  3  0  0  0  0  0  0
  183.7850  178.6600  145.7650 O   0  0  0  0  0  1  0  0  0  0  0  0
  191.7570  175.4640  146.9000 O   0  0  0  0  0  0  0  0  0  0  0  0
  192.5450  176.5100  147.3800 C   0  0  0  0  0  3  0  0  0  0  0  0
  193.7540  176.7900  146.8880 C   0  0  0  0  0  3  0  0  0  0  0  0
  195.9900  174.3310  145.1270 C   0  0  0  0  0  3  0  0  0  0  0  0
  194.4380  176.0770  145.7930 C   0  0  0  0  0  0  0  0  0  0  0  0
  194.9240  175.7000  143.4410 C   0  0  0  0  0  3  0  0  0  0  0  0
  195.3130  175.0370  146.1270 C   0  0  0  0  0  3  0  0  0  0  0  0
  195.7950  174.6620  143.7840 C   0  0  0  0  0  0  0  0  0  0  0  0
  194.2500  176.4050  144.4410 C   0  0  0  0  0  3  0  0  0  0  0  0
  196.6400  173.7790  142.5320 Cl  0  0  0  0  0  0  0  0  0  0  0  0
  2 23  1  0  0  0  0
  2  1  2  0  0  0  0
  3 10  2  0  0  0  0
  4  8  1  0  0  0  0
  5  6  1  0  0  0  0
  6  3  1  0  0  0  0
  7  9  1  1  0  0  0
  7  4  1  0  0  0  0
  7  8  1  0  0  0  0
  8 10  1  0  0  0  0
  9  5  2  0  0  0  0
 10  2  1  0  0  0  0
 11  1  1  0  0  0  0
 11 12  1  0  0  0  0
 13 21  1  0  0  0  0
 15 19  1  6  0  0  0
 15 20  1  0  0  0  0
 15 13  1  0  0  0  0
 16 14  1  0  0  0  0
 16 12  1  1  0  0  0
 17 15  1  0  0  0  0
 18 16  1  0  0  0  0
 19 17  1  0  0  0  0
 20 18  1  0  0  0  0
 21 22  1  6  0  0  0
 21 14  1  0  0  0  0
 23 24  1  0  0  0  0
 25 24  2  0  0  0  0
 26 29  1  0  0  0  0
 27 29  2  0  0  0  0
 27 25  1  0  0  0  0
 28 30  1  0  0  0  0
 28 31  2  0  0  0  0
 30 26  2  0  0  0  0
 31 27  1  0  0  0  0
 32 30  1  0  0  0  0
M  END
>  <MODEL>
2

>  <REMARK>
 VINA RESULT:      -7.8      2.946      7.836
  Name = 
  7 active torsions:
  status: ('A' for Active; 'I' for Inactive)
    1  A    between atoms: N_1  and  N_2
    2  A    between atoms: N_1  and  C_18
    3  A    between atoms: C_3  and  O_26
    4  A    between atoms: C_9  and  C_22
    5  A    between atoms: C_18  and  C_20
    6  A    between atoms: O_26  and  C_31
    7  A    between atoms: C_30  and  C_31
                            x       y       z     vdW  Elec       q    Type
                         _______ _______ _______ _____ _____    ______ ____

>  <TORSDO>
F 7

$$$$
=
 OpenBabel11062420383D

 32 36  0  0  1  0  0  0  0  0999 V2000
  187.9850  174.9440  141.8750 N   0  0  0  0  0  0  0  0  0  0  0  0
  189.1870  175.0080  142.3810 C   0  0  0  0  0  0  0  0  0  0  0  0
  190.0770  176.8750  143.7640 C   0  0  0  0  0  3  0  0  0  0  0  0
  189.6160  173.7610  145.7440 C   0  0  0  0  0  2  0  0  0  0  0  0
  191.3010  176.6990  145.9180 N   0  0  0  0  0  0  0  0  0  0  0  0
  190.4130  177.5130  145.0970 C   0  0  0  0  0  2  0  0  0  0  0  0
  189.5840  174.9990  146.3510 C   0  0  2  0  0  3  0  0  0  0  0  0
  189.3550  174.9520  144.8860 N   0  0  0  0  0  0  0  0  0  0  0  0
  190.9530  175.5960  146.5060 C   0  0  0  0  0  3  0  0  0  0  0  0
  189.5030  175.6700  143.6730 C   0  0  0  0  0  0  0  0  0  0  0  0
  186.8410  175.4720  142.4890 N   0  0  0  0  0  2  0  0  0  0  0  0
  186.3100  176.7620  142.0820 C   0  0  0  0  0  2  0  0  0  0  0  0
  184.2080  178.8260  145.6330 C   0  0  0  0  0  2  0  0  0  0  0  0
  184.6860  178.2560  143.2030 C   0  0  0  0  0  2  0  0  0  0  0  0
  185.4920  178.4410  146.3690 C   0  0  1  0  0  0  0  0  0  0  0  0
  186.0840  177.6520  143.2930 C   0  0  1  0  0  3  0  0  0  0  0  0
  185.9060  179.4370  147.2680 O   0  0  0  0  0  0  0  0  0  0  0  0
  186.2420  176.8340  144.5680 C   0  0  0  0  0  2  0  0  0  0  0  0
  185.3680  178.2580  147.8260 C   0  0  0  0  0  2  0  0  0  0  0  0
  186.6740  177.7380  145.7100 C   0  0  0  0  0  2  0  0  0  0  0  0
  184.4300  179.3670  144.2210 C   0  0  2  0  0  3  0  0  0  0  0  0
  185.4330  180.3410  144.1870 O   0  0  0  0  0  1  0  0  0  0  0  0
  190.2490  174.4130  141.6910 O   0  0  0  0  0  0  0  0  0  0  0  0
  190.4770  173.0370  141.7100 C   0  0  0  0  0  3  0  0  0  0  0  0
  191.4400  172.4730  142.4430 C   0  0  0  0  0  3  0  0  0  0  0  0
  193.6340  173.1840  145.4140 C   0  0  0  0  0  3  0  0  0  0  0  0
  192.3880  173.1740  143.3290 C   0  0  0  0  0  0  0  0  0  0  0  0
  193.8310  175.0500  143.8870 C   0  0  0  0  0  3  0  0  0  0  0  0
  192.7420  172.5600  144.5360 C   0  0  0  0  0  3  0  0  0  0  0  0
  194.1790  174.4280  145.0880 C   0  0  0  0  0  0  0  0  0  0  0  0
  192.9390  174.4260  143.0110 C   0  0  0  0  0  3  0  0  0  0  0  0
  195.2970  175.2090  146.1860 Cl  0  0  0  0  0  0  0  0  0  0  0  0
  1  2  2  0  0  0  0
  1 11  1  0  0  0  0
  2 10  1  0  0  0  0
  3  6  1  0  0  0  0
  5  9  2  0  0  0  0
  6  5  1  0  0  0  0
  7  4  1  6  0  0  0
  7  9  1  0  0  0  0
  8  4  1  0  0  0  0
  8  7  1  0  0  0  0
 10  3  2  0  0  0  0
 10  8  1  0  0  0  0
 12 11  1  0  0  0  0
 14 16  1  0  0  0  0
 14 21  1  0  0  0  0
 15 13  1  6  0  0  0
 15 17  1  0  0  0  0
 15 19  1  0  0  0  0
 16 12  1  6  0  0  0
 16 18  1  0  0  0  0
 17 19  1  0  0  0  0
 18 20  1  0  0  0  0
 20 15  1  0  0  0  0
 21 22  1  1  0  0  0
 21 13  1  0  0  0  0
 23 24  1  0  0  0  0
 23  2  1  0  0  0  0
 24 25  2  0  0  0  0
 25 27  1  0  0  0  0
 27 29  1  0  0  0  0
 28 30  2  0  0  0  0
 29 26  2  0  0  0  0
 30 26  1  0  0  0  0
 30 32  1  0  0  0  0
 31 27  2  0  0  0  0
 31 28  1  0  0  0  0
M  END
>  <MODEL>
3

>  <REMARK>
 VINA RESULT:      -7.6      3.205      8.063
  Name = 
  7 active torsions:
  status: ('A' for Active; 'I' for Inactive)
    1  A    between atoms: N_1  and  N_2
    2  A    between atoms: N_1  and  C_18
    3  A    between atoms: C_3  and  O_26
    4  A    between atoms: C_9  and  C_22
    5  A    between atoms: C_18  and  C_20
    6  A    between atoms: O_26  and  C_31
    7  A    between atoms: C_30  and  C_31
                            x       y       z     vdW  Elec       q    Type
                         _______ _______ _______ _____ _____    ______ ____

>  <TORSDO>
F 7

$$$$
=
 OpenBabel11062420383D

 32 36  0  0  1  0  0  0  0  0999 V2000
  188.8800  175.6210  147.2310 N   0  0  0  0  0  0  0  0  0  0  0  0
  188.2320  176.0740  146.1910 C   0  0  0  0  0  0  0  0  0  0  0  0
  188.8260  175.0470  144.0030 C   0  0  0  0  0  3  0  0  0  0  0  0
  190.5680  178.2870  144.5500 C   0  0  0  0  0  2  0  0  0  0  0  0
  190.8380  175.5090  142.6230 N   0  0  0  0  0  0  0  0  0  0  0  0
  189.4370  175.1060  142.6180 C   0  0  0  0  0  2  0  0  0  0  0  0
  190.3240  177.8180  143.2750 C   0  0  2  0  0  3  0  0  0  0  0  0
  189.5050  177.2550  144.3770 N   0  0  0  0  0  0  0  0  0  0  0  0
  191.2560  176.7090  142.8850 C   0  0  0  0  0  3  0  0  0  0  0  0
  188.7990  176.1070  144.8180 C   0  0  0  0  0  0  0  0  0  0  0  0
  190.1780  175.0950  147.1850 N   0  0  0  0  0  2  0  0  0  0  0  0
  191.3290  175.9360  147.4670 C   0  0  0  0  0  2  0  0  0  0  0  0
  195.4590  175.1680  145.5580 C   0  0  0  0  0  2  0  0  0  0  0  0
  193.6880  176.4140  146.8880 C   0  0  0  0  0  2  0  0  0  0  0  0
  194.6610  174.2040  144.6790 C   0  0  1  0  0  0  0  0  0  0  0  0
  192.4070  175.7350  146.4130 C   0  0  1  0  0  3  0  0  0  0  0  0
  195.1060  174.2070  143.3480 O   0  0  0  0  0  0  0  0  0  0  0  0
  192.6320  174.2460  146.1850 C   0  0  0  0  0  2  0  0  0  0  0  0
  195.4160  173.0680  144.1200 C   0  0  0  0  0  2  0  0  0  0  0  0
  193.1510  174.0130  144.7780 C   0  0  0  0  0  2  0  0  0  0  0  0
  194.7680  176.5070  145.8110 C   0  0  2  0  0  3  0  0  0  0  0  0
  194.2740  177.0710  144.6300 O   0  0  0  0  0  1  0  0  0  0  0  0
  186.9250  176.5440  146.3550 O   0  0  0  0  0  0  0  0  0  0  0  0
  186.6420  177.7870  146.9220 C   0  0  0  0  0  3  0  0  0  0  0  0
  186.0170  178.7610  146.2560 C   0  0  0  0  0  3  0  0  0  0  0  0
  186.0680  178.6110  142.4990 C   0  0  0  0  0  3  0  0  0  0  0  0
  185.5290  178.6960  144.8660 C   0  0  0  0  0  0  0  0  0  0  0  0
  183.7550  178.6060  143.2070 C   0  0  0  0  0  3  0  0  0  0  0  0
  186.4760  178.6690  143.8350 C   0  0  0  0  0  3  0  0  0  0  0  0
  184.7070  178.5790  142.1850 C   0  0  0  0  0  0  0  0  0  0  0  0
  184.1640  178.6650  144.5420 C   0  0  0  0  0  3  0  0  0  0  0  0
  184.1950  178.5060  140.5130 Cl  0  0  0  0  0  0  0  0  0  0  0  0
  2 23  1  0  0  0  0
  2  1  2  0  0  0  0
  3 10  2  0  0  0  0
  5  9  2  0  0  0  0
  6  5  1  0  0  0  0
  6  3  1  0  0  0  0
  7  9  1  1  0  0  0
  7  8  1  0  0  0  0
  7  4  1  0  0  0  0
  8  4  1  0  0  0  0
  8 10  1  0  0  0  0
 10  2  1  0  0  0  0
 11  1  1  0  0  0  0
 11 12  1  0  0  0  0
 13 21  1  0  0  0  0
 15 19  1  1  0  0  0
 15 20  1  0  0  0  0
 15 13  1  0  0  0  0
 16 14  1  0  0  0  0
 16 12  1  1  0  0  0
 17 19  1  0  0  0  0
 17 15  1  0  0  0  0
 18 16  1  0  0  0  0
 20 18  1  0  0  0  0
 21 22  1  6  0  0  0
 21 14  1  0  0  0  0
 23 24  1  0  0  0  0
 25 24  2  0  0  0  0
 26 29  1  0  0  0  0
 27 25  1  0  0  0  0
 28 31  2  0  0  0  0
 29 27  2  0  0  0  0
 30 26  2  0  0  0  0
 30 28  1  0  0  0  0
 31 27  1  0  0  0  0
 32 30  1  0  0  0  0
M  END
>  <MODEL>
4

>  <REMARK>
 VINA RESULT:      -7.5      1.102      2.079
  Name = 
  7 active torsions:
  status: ('A' for Active; 'I' for Inactive)
    1  A    between atoms: N_1  and  N_2
    2  A    between atoms: N_1  and  C_18
    3  A    between atoms: C_3  and  O_26
    4  A    between atoms: C_9  and  C_22
    5  A    between atoms: C_18  and  C_20
    6  A    between atoms: O_26  and  C_31
    7  A    between atoms: C_30  and  C_31
                            x       y       z     vdW  Elec       q    Type
                         _______ _______ _______ _____ _____    ______ ____

>  <TORSDO>
F 7

$$$$
=
 OpenBabel11062420383D

 32 36  0  0  1  0  0  0  0  0999 V2000
  189.3060  176.1790  146.8060 N   0  0  0  0  0  0  0  0  0  0  0  0
  190.1890  175.6240  146.0200 C   0  0  0  0  0  0  0  0  0  0  0  0
  190.0580  173.2660  145.2360 C   0  0  0  0  0  3  0  0  0  0  0  0
  189.6870  175.6930  142.4430 C   0  0  0  0  0  2  0  0  0  0  0  0
  190.4460  172.4240  142.9320 N   0  0  0  0  0  0  0  0  0  0  0  0
  189.7380  172.2180  144.1890 C   0  0  0  0  0  2  0  0  0  0  0  0
  189.1470  174.4270  142.3590 C   0  0  2  0  0  3  0  0  0  0  0  0
  189.4690  174.9430  143.7130 N   0  0  0  0  0  0  0  0  0  0  0  0
  190.1870  173.3780  142.0920 C   0  0  0  0  0  3  0  0  0  0  0  0
  189.8600  174.5720  145.0250 C   0  0  0  0  0  0  0  0  0  0  0  0
  187.9390  175.8700  146.8000 N   0  0  0  0  0  2  0  0  0  0  0  0
  186.9540  176.8560  147.2110 C   0  0  0  0  0  2  0  0  0  0  0  0
  185.5270  179.3880  143.6280 C   0  0  0  0  0  2  0  0  0  0  0  0
  186.0220  178.8380  146.0590 C   0  0  0  0  0  2  0  0  0  0  0  0
  185.4380  178.0230  142.9440 C   0  0  1  0  0  0  0  0  0  0  0  0
  186.1320  177.3180  146.0190 C   0  0  1  0  0  3  0  0  0  0  0  0
  184.3210  177.9270  142.0990 O   0  0  0  0  0  0  0  0  0  0  0  0
  186.7940  176.8540  144.7280 C   0  0  0  0  0  2  0  0  0  0  0  0
  185.5840  178.0280  141.4780 C   0  0  0  0  0  2  0  0  0  0  0  0
  185.7470  176.7010  143.6380 C   0  0  0  0  0  2  0  0  0  0  0  0
  185.0100  179.4070  145.0650 C   0  0  2  0  0  3  0  0  0  0  0  0
  183.7640  178.7810  145.1800 O   0  0  0  0  0  1  0  0  0  0  0  0
  191.5230  176.0400  146.0940 O   0  0  0  0  0  0  0  0  0  0  0  0
  192.1390  176.7650  145.0740 C   0  0  0  0  0  3  0  0  0  0  0  0
  193.2910  176.3900  144.5130 C   0  0  0  0  0  3  0  0  0  0  0  0
  196.0210  174.2520  145.9700 C   0  0  0  0  0  3  0  0  0  0  0  0
  194.0790  175.1900  144.8530 C   0  0  0  0  0  0  0  0  0  0  0  0
  194.4980  172.7970  144.7800 C   0  0  0  0  0  3  0  0  0  0  0  0
  195.2360  175.3560  145.6230 C   0  0  0  0  0  3  0  0  0  0  0  0
  195.6510  172.9720  145.5490 C   0  0  0  0  0  0  0  0  0  0  0  0
  193.7160  173.9010  144.4330 C   0  0  0  0  0  3  0  0  0  0  0  0
  196.6320  171.5900  145.9840 Cl  0  0  0  0  0  0  0  0  0  0  0  0
  2 23  1  0  0  0  0
  2  1  2  0  0  0  0
  4  8  1  0  0  0  0
  5  6  1  0  0  0  0
  6  3  1  0  0  0  0
  7  9  1  6  0  0  0
  7  4  1  0  0  0  0
  7  8  1  0  0  0  0
  8 10  1  0  0  0  0
  9  5  2  0  0  0  0
 10  3  2  0  0  0  0
 10  2  1  0  0  0  0
 11  1  1  0  0  0  0
 11 12  1  0  0  0  0
 13 21  1  0  0  0  0
 15 19  1  6  0  0  0
 15 13  1  0  0  0  0
 15 20  1  0  0  0  0
 16 14  1  0  0  0  0
 16 12  1  1  0  0  0
 17 15  1  0  0  0  0
 18 16  1  0  0  0  0
 19 17  1  0  0  0  0
 20 18  1  0  0  0  0
 21 22  1  6  0  0  0
 21 14  1  0  0  0  0
 24 23  1  0  0  0  0
 25 27  1  0  0  0  0
 25 24  2  0  0  0  0
 27 29  2  0  0  0  0
 28 30  1  0  0  0  0
 29 26  1  0  0  0  0
 30 26  2  0  0  0  0
 30 32  1  0  0  0  0
 31 28  2  0  0  0  0
 31 27  1  0  0  0  0
M  END
>  <MODEL>
5

>  <REMARK>
 VINA RESULT:      -7.5      3.442      8.162
  Name = 
  7 active torsions:
  status: ('A' for Active; 'I' for Inactive)
    1  A    between atoms: N_1  and  N_2
    2  A    between atoms: N_1  and  C_18
    3  A    between atoms: C_3  and  O_26
    4  A    between atoms: C_9  and  C_22
    5  A    between atoms: C_18  and  C_20
    6  A    between atoms: O_26  and  C_31
    7  A    between atoms: C_30  and  C_31
                            x       y       z     vdW  Elec       q    Type
                         _______ _______ _______ _____ _____    ______ ____

>  <TORSDO>
F 7

$$$$
=
 OpenBabel11062420383D

 32 36  0  0  1  0  0  0  0  0999 V2000
  189.0260  177.3240  142.6230 N   0  0  0  0  0  0  0  0  0  0  0  0
  189.9010  176.5380  143.1920 C   0  0  0  0  0  0  0  0  0  0  0  0
  189.3040  174.1470  143.5360 C   0  0  0  0  0  3  0  0  0  0  0  0
  192.4610  174.5410  141.6100 C   0  0  0  0  0  2  0  0  0  0  0  0
  190.8250  172.1880  143.4230 N   0  0  0  0  0  0  0  0  0  0  0  0
  189.4630  172.6710  143.2350 C   0  0  0  0  0  2  0  0  0  0  0  0
  191.6840  173.4090  141.4750 C   0  0  2  0  0  3  0  0  0  0  0  0
  191.0330  174.6210  142.0300 N   0  0  0  0  0  0  0  0  0  0  0  0
  191.8210  172.4780  142.6440 C   0  0  0  0  0  3  0  0  0  0  0  0
  190.0140  175.0860  142.9000 C   0  0  0  0  0  0  0  0  0  0  0  0
  188.1000  176.9080  141.6570 N   0  0  0  0  0  2  0  0  0  0  0  0
  186.6930  176.7650  141.9920 C   0  0  0  0  0  2  0  0  0  0  0  0
  184.2310  178.7510  145.3510 C   0  0  0  0  0  2  0  0  0  0  0  0
  184.9480  178.2210  142.9710 C   0  0  0  0  0  2  0  0  0  0  0  0
  185.4440  178.3730  146.2020 C   0  0  1  0  0  0  0  0  0  0  0  0
  186.3390  177.6350  143.1870 C   0  0  1  0  0  3  0  0  0  0  0  0
  185.7560  179.3620  147.1490 O   0  0  0  0  0  0  0  0  0  0  0  0
  186.3870  176.8020  144.4620 C   0  0  0  0  0  2  0  0  0  0  0  0
  185.1840  178.1680  147.6380 C   0  0  0  0  0  2  0  0  0  0  0  0
  186.6940  177.6950  145.6510 C   0  0  0  0  0  2  0  0  0  0  0  0
  184.5800  179.3140  143.9740 C   0  0  2  0  0  3  0  0  0  0  0  0
  185.5660  180.3020  144.0490 O   0  0  0  0  0  1  0  0  0  0  0  0
  190.7990  177.0770  144.1190 O   0  0  0  0  0  0  0  0  0  0  0  0
  190.5070  177.1650  145.4800 C   0  0  0  0  0  3  0  0  0  0  0  0
  191.2750  176.6150  146.4230 C   0  0  0  0  0  3  0  0  0  0  0  0
  193.5610  173.7420  145.6070 C   0  0  0  0  0  3  0  0  0  0  0  0
  192.5190  175.8540  146.2020 C   0  0  0  0  0  0  0  0  0  0  0  0
  194.9410  175.6560  146.1380 C   0  0  0  0  0  3  0  0  0  0  0  0
  192.4130  174.5090  145.8260 C   0  0  0  0  0  3  0  0  0  0  0  0
  194.8250  174.3160  145.7630 C   0  0  0  0  0  0  0  0  0  0  0  0
  193.7930  176.4220  146.3570 C   0  0  0  0  0  3  0  0  0  0  0  0
  196.2630  173.3560  145.4880 Cl  0  0  0  0  0  0  0  0  0  0  0  0
  1  2  2  0  0  0  0
  2 23  1  0  0  0  0
  4  8  1  0  0  0  0
  6  5  1  0  0  0  0
  6  3  1  0  0  0  0
  7  4  1  1  0  0  0
  7  8  1  0  0  0  0
  7  9  1  0  0  0  0
  8 10  1  0  0  0  0
  9  5  2  0  0  0  0
 10  2  1  0  0  0  0
 10  3  2  0  0  0  0
 11 12  1  0  0  0  0
 11  1  1  0  0  0  0
 14 16  1  0  0  0  0
 14 21  1  0  0  0  0
 15 13  1  6  0  0  0
 15 17  1  0  0  0  0
 15 19  1  0  0  0  0
 16 12  1  6  0  0  0
 16 18  1  0  0  0  0
 17 19  1  0  0  0  0
 18 20  1  0  0  0  0
 20 15  1  0  0  0  0
 21 22  1  1  0  0  0
 21 13  1  0  0  0  0
 23 24  1  0  0  0  0
 24 25  2  0  0  0  0
 26 30  2  0  0  0  0
 26 29  1  0  0  0  0
 27 31  1  0  0  0  0
 27 25  1  0  0  0  0
 28 31  2  0  0  0  0
 29 27  2  0  0  0  0
 30 28  1  0  0  0  0
 32 30  1  0  0  0  0
M  END
>  <MODEL>
6

>  <REMARK>
 VINA RESULT:      -7.4      3.378      8.032
  Name = 
  7 active torsions:
  status: ('A' for Active; 'I' for Inactive)
    1  A    between atoms: N_1  and  N_2
    2  A    between atoms: N_1  and  C_18
    3  A    between atoms: C_3  and  O_26
    4  A    between atoms: C_9  and  C_22
    5  A    between atoms: C_18  and  C_20
    6  A    between atoms: O_26  and  C_31
    7  A    between atoms: C_30  and  C_31
                            x       y       z     vdW  Elec       q    Type
                         _______ _______ _______ _____ _____    ______ ____

>  <TORSDO>
F 7

$$$$
=
 OpenBabel11062420383D

 32 36  0  0  1  0  0  0  0  0999 V2000
  191.0700  176.7550  147.0880 N   0  0  0  0  0  0  0  0  0  0  0  0
  191.8640  176.0480  146.3300 C   0  0  0  0  0  0  0  0  0  0  0  0
  191.5480  176.2730  143.8720 C   0  0  0  0  0  3  0  0  0  0  0  0
  189.8000  173.2900  145.2430 C   0  0  0  0  0  2  0  0  0  0  0  0
  189.7420  175.2730  142.4920 N   0  0  0  0  0  0  0  0  0  0  0  0
  191.1250  175.7330  142.5210 C   0  0  0  0  0  2  0  0  0  0  0  0
  190.2020  173.3330  143.9240 C   0  0  2  0  0  3  0  0  0  0  0  0
  190.8600  174.2700  144.8690 N   0  0  0  0  0  0  0  0  0  0  0  0
  189.3120  174.2000  143.0820 C   0  0  0  0  0  3  0  0  0  0  0  0
  191.4830  175.5380  144.9880 C   0  0  0  0  0  0  0  0  0  0  0  0
  189.7710  177.1380  146.7290 N   0  0  0  0  0  2  0  0  0  0  0  0
  188.6310  176.3020  147.0680 C   0  0  0  0  0  2  0  0  0  0  0  0
  185.4420  179.0510  145.1800 C   0  0  0  0  0  2  0  0  0  0  0  0
  186.7710  177.9350  147.0370 C   0  0  0  0  0  2  0  0  0  0  0  0
  185.6490  178.1410  143.9690 C   0  0  1  0  0  0  0  0  0  0  0  0
  187.3950  176.7510  146.3050 C   0  0  1  0  0  3  0  0  0  0  0  0
  184.4480  177.8750  143.2940 O   0  0  0  0  0  0  0  0  0  0  0  0
  187.7800  177.1320  144.8810 C   0  0  0  0  0  2  0  0  0  0  0  0
  185.3600  178.7420  142.6550 C   0  0  0  0  0  2  0  0  0  0  0  0
  186.5900  176.9410  143.9570 C   0  0  0  0  0  2  0  0  0  0  0  0
  185.3850  178.3150  146.5180 C   0  0  2  0  0  3  0  0  0  0  0  0
  184.5290  177.2100  146.4700 O   0  0  0  0  0  1  0  0  0  0  0  0
  193.1550  175.7550  146.7830 O   0  0  0  0  0  0  0  0  0  0  0  0
  194.2930  176.3470  146.2350 C   0  0  0  0  0  3  0  0  0  0  0  0
  195.3170  175.6380  145.7540 C   0  0  0  0  0  3  0  0  0  0  0  0
  196.7940  172.1900  146.0330 C   0  0  0  0  0  3  0  0  0  0  0  0
  195.4200  174.1680  145.7130 C   0  0  0  0  0  0  0  0  0  0  0  0
  194.4960  171.9540  145.3130 C   0  0  0  0  0  3  0  0  0  0  0  0
  196.6420  173.5800  146.0590 C   0  0  0  0  0  3  0  0  0  0  0  0
  195.7200  171.3780  145.6610 C   0  0  0  0  0  0  0  0  0  0  0  0
  194.3470  173.3430  145.3380 C   0  0  0  0  0  3  0  0  0  0  0  0
  195.9090  169.6380  145.6290 Cl  0  0  0  0  0  0  0  0  0  0  0  0
  2 23  1  0  0  0  0
  2  1  2  0  0  0  0
  3 10  2  0  0  0  0
  5  6  1  0  0  0  0
  5  9  2  0  0  0  0
  6  3  1  0  0  0  0
  7  9  1  6  0  0  0
  7  8  1  0  0  0  0
  7  4  1  0  0  0  0
  8 10  1  0  0  0  0
  8  4  1  0  0  0  0
 10  2  1  0  0  0  0
 11 12  1  0  0  0  0
 11  1  1  0  0  0  0
 13 21  1  0  0  0  0
 15 19  1  6  0  0  0
 15 13  1  0  0  0  0
 16 14  1  0  0  0  0
 16 12  1  1  0  0  0
 17 15  1  0  0  0  0
 18 16  1  0  0  0  0
 19 17  1  0  0  0  0
 20 15  1  0  0  0  0
 20 18  1  0  0  0  0
 21 22  1  6  0  0  0
 21 14  1  0  0  0  0
 24 23  1  0  0  0  0
 25 24  2  0  0  0  0
 26 29  1  0  0  0  0
 27 25  1  0  0  0  0
 27 29  2  0  0  0  0
 28 31  2  0  0  0  0
 28 30  1  0  0  0  0
 30 26  2  0  0  0  0
 31 27  1  0  0  0  0
 32 30  1  0  0  0  0
M  END
>  <MODEL>
7

>  <REMARK>
 VINA RESULT:      -7.4      3.461      8.364
  Name = 
  7 active torsions:
  status: ('A' for Active; 'I' for Inactive)
    1  A    between atoms: N_1  and  N_2
    2  A    between atoms: N_1  and  C_18
    3  A    between atoms: C_3  and  O_26
    4  A    between atoms: C_9  and  C_22
    5  A    between atoms: C_18  and  C_20
    6  A    between atoms: O_26  and  C_31
    7  A    between atoms: C_30  and  C_31
                            x       y       z     vdW  Elec       q    Type
                         _______ _______ _______ _____ _____    ______ ____

>  <TORSDO>
F 7

$$$$
=
 OpenBabel11062420383D

 32 36  0  0  1  0  0  0  0  0999 V2000
  190.2220  176.1160  142.3870 N   0  0  0  0  0  0  0  0  0  0  0  0
  189.2510  176.5140  143.1640 C   0  0  0  0  0  0  0  0  0  0  0  0
  189.6310  177.5880  145.3770 C   0  0  0  0  0  3  0  0  0  0  0  0
  189.6910  173.8750  145.5920 C   0  0  0  0  0  2  0  0  0  0  0  0
  190.7090  176.5760  147.3730 N   0  0  0  0  0  0  0  0  0  0  0  0
  189.7310  177.5420  146.8880 C   0  0  0  0  0  2  0  0  0  0  0  0
  189.3580  174.6440  146.6880 C   0  0  2  0  0  3  0  0  0  0  0  0
  189.2480  175.2780  145.3510 N   0  0  0  0  0  0  0  0  0  0  0  0
  190.5580  175.2890  147.3200 C   0  0  0  0  0  3  0  0  0  0  0  0
  189.3290  176.5070  144.6480 C   0  0  0  0  0  0  0  0  0  0  0  0
  191.4610  175.6510  142.8470 N   0  0  0  0  0  2  0  0  0  0  0  0
  192.6180  176.5310  142.8780 C   0  0  0  0  0  2  0  0  0  0  0  0
  195.0330  173.4940  145.3740 C   0  0  0  0  0  2  0  0  0  0  0  0
  193.0720  174.9890  144.7590 C   0  0  0  0  0  2  0  0  0  0  0  0
  196.2120  174.0810  144.5960 C   0  0  1  0  0  0  0  0  0  0  0  0
  193.7100  175.9450  143.7570 C   0  0  1  0  0  3  0  0  0  0  0  0
  197.3610  174.2080  145.3920 O   0  0  0  0  0  0  0  0  0  0  0  0
  194.7350  175.2230  142.8920 C   0  0  0  0  0  2  0  0  0  0  0  0
  197.3710  173.1890  144.4150 C   0  0  0  0  0  2  0  0  0  0  0  0
  196.0850  175.2170  143.5870 C   0  0  0  0  0  2  0  0  0  0  0  0
  194.0240  174.5320  145.8640 C   0  0  2  0  0  3  0  0  0  0  0  0
  194.6500  175.6150  146.4890 O   0  0  0  0  0  1  0  0  0  0  0  0
  188.0690  176.9900  142.5880 O   0  0  0  0  0  0  0  0  0  0  0  0
  186.9020  176.2280  142.5340 C   0  0  0  0  0  3  0  0  0  0  0  0
  185.9410  176.3080  143.4570 C   0  0  0  0  0  3  0  0  0  0  0  0
  185.9160  179.4450  145.5320 C   0  0  0  0  0  3  0  0  0  0  0  0
  185.9400  177.1840  144.6430 C   0  0  0  0  0  0  0  0  0  0  0  0
  185.9680  177.5590  147.0450 C   0  0  0  0  0  3  0  0  0  0  0  0
  185.9140  178.5700  144.4410 C   0  0  0  0  0  3  0  0  0  0  0  0
  185.9420  178.9390  146.8340 C   0  0  0  0  0  0  0  0  0  0  0  0
  185.9680  176.6850  145.9550 C   0  0  0  0  0  3  0  0  0  0  0  0
  185.9420  180.0350  148.1990 Cl  0  0  0  0  0  0  0  0  0  0  0  0
  1 11  1  0  0  0  0
  1  2  2  0  0  0  0
  2 10  1  0  0  0  0
  3  6  1  0  0  0  0
  6  5  1  0  0  0  0
  7  4  1  6  0  0  0
  7  9  1  0  0  0  0
  8  4  1  0  0  0  0
  8  7  1  0  0  0  0
  9  5  2  0  0  0  0
 10  8  1  0  0  0  0
 10  3  2  0  0  0  0
 11 12  1  0  0  0  0
 13 21  1  0  0  0  0
 14 21  1  0  0  0  0
 15 20  1  6  0  0  0
 15 13  1  0  0  0  0
 15 17  1  0  0  0  0
 16 12  1  6  0  0  0
 16 14  1  0  0  0  0
 18 20  1  0  0  0  0
 18 16  1  0  0  0  0
 19 15  1  0  0  0  0
 19 17  1  0  0  0  0
 21 22  1  6  0  0  0
 23  2  1  0  0  0  0
 24 23  1  0  0  0  0
 24 25  2  0  0  0  0
 25 27  1  0  0  0  0
 26 30  1  0  0  0  0
 27 31  2  0  0  0  0
 29 27  1  0  0  0  0
 29 26  2  0  0  0  0
 30 28  2  0  0  0  0
 30 32  1  0  0  0  0
 31 28  1  0  0  0  0
M  END
>  <MODEL>
8

>  <REMARK>
 VINA RESULT:      -7.4      2.356      3.809
  Name = 
  7 active torsions:
  status: ('A' for Active; 'I' for Inactive)
    1  A    between atoms: N_1  and  N_2
    2  A    between atoms: N_1  and  C_18
    3  A    between atoms: C_3  and  O_26
    4  A    between atoms: C_9  and  C_22
    5  A    between atoms: C_18  and  C_20
    6  A    between atoms: O_26  and  C_31
    7  A    between atoms: C_30  and  C_31
                            x       y       z     vdW  Elec       q    Type
                         _______ _______ _______ _____ _____    ______ ____

>  <TORSDO>
F 7

$$$$
=
 OpenBabel11062420383D

 32 36  0  0  1  0  0  0  0  0999 V2000
  190.3410  175.5440  145.5150 N   0  0  0  0  0  0  0  0  0  0  0  0
  190.8720  176.0900  144.4540 C   0  0  0  0  0  0  0  0  0  0  0  0
  189.7700  177.8450  143.0750 C   0  0  0  0  0  3  0  0  0  0  0  0
  188.6020  174.4270  142.1890 C   0  0  0  0  0  2  0  0  0  0  0  0
  187.6260  177.6560  141.8350 N   0  0  0  0  0  0  0  0  0  0  0  0
  188.9370  178.2900  141.8900 C   0  0  0  0  0  2  0  0  0  0  0  0
  188.5530  175.4540  141.2690 C   0  0  2  0  0  3  0  0  0  0  0  0
  189.4700  175.6160  142.4250 N   0  0  0  0  0  0  0  0  0  0  0  0
  187.4260  176.4090  141.5380 C   0  0  0  0  0  3  0  0  0  0  0  0
  190.0810  176.5610  143.2870 C   0  0  0  0  0  0  0  0  0  0  0  0
  188.9660  175.3500  145.6980 N   0  0  0  0  0  2  0  0  0  0  0  0
  188.3160  175.7650  146.9300 C   0  0  0  0  0  2  0  0  0  0  0  0
  185.7520  179.4500  145.8620 C   0  0  0  0  0  2  0  0  0  0  0  0
  187.3070  178.0020  147.2560 C   0  0  0  0  0  2  0  0  0  0  0  0
  185.0780  178.4650  144.9050 C   0  0  1  0  0  0  0  0  0  0  0  0
  187.1010  176.6280  146.6280 C   0  0  1  0  0  3  0  0  0  0  0  0
  183.6910  178.6660  144.8290 O   0  0  0  0  0  0  0  0  0  0  0  0
  186.9130  176.7410  145.1200 C   0  0  0  0  0  2  0  0  0  0  0  0
  184.4530  179.0560  143.7080 C   0  0  0  0  0  2  0  0  0  0  0  0
  185.4500  176.9900  144.8000 C   0  0  0  0  0  2  0  0  0  0  0  0
  186.0540  178.8760  147.2450 C   0  0  2  0  0  3  0  0  0  0  0  0
  184.9510  178.2060  147.7850 O   0  0  0  0  0  1  0  0  0  0  0  0
  192.2590  176.2630  144.3980 O   0  0  0  0  0  0  0  0  0  0  0  0
  192.9840  176.8380  145.4410 C   0  0  0  0  0  3  0  0  0  0  0  0
  193.9400  176.1840  146.1060 C   0  0  0  0  0  3  0  0  0  0  0  0
  196.2310  173.2590  145.5210 C   0  0  0  0  0  3  0  0  0  0  0  0
  194.3830  174.7990  145.8600 C   0  0  0  0  0  0  0  0  0  0  0  0
  193.9570  172.4340  145.4900 C   0  0  0  0  0  3  0  0  0  0  0  0
  195.7570  174.5540  145.7560 C   0  0  0  0  0  3  0  0  0  0  0  0
  195.3300  172.2000  145.3890 C   0  0  0  0  0  0  0  0  0  0  0  0
  193.4850  173.7290  145.7240 C   0  0  0  0  0  3  0  0  0  0  0  0
  195.9220  170.5790  145.0950 Cl  0  0  0  0  0  0  0  0  0  0  0  0
  1 11  1  0  0  0  0
  2  1  2  0  0  0  0
  3 10  2  0  0  0  0
  4  8  1  0  0  0  0
  5  6  1  0  0  0  0
  6  3  1  0  0  0  0
  7  9  1  1  0  0  0
  7  4  1  0  0  0  0
  7  8  1  0  0  0  0
  8 10  1  0  0  0  0
  9  5  2  0  0  0  0
 10  2  1  0  0  0  0
 11 12  1  0  0  0  0
 13 21  1  0  0  0  0
 15 19  1  6  0  0  0
 15 13  1  0  0  0  0
 16 12  1  6  0  0  0
 16 14  1  0  0  0  0
 17 15  1  0  0  0  0
 18 16  1  0  0  0  0
 19 17  1  0  0  0  0
 20 15  1  0  0  0  0
 20 18  1  0  0  0  0
 21 14  1  0  0  0  0
 21 22  1  6  0  0  0
 23  2  1  0  0  0  0
 23 24  1  0  0  0  0
 24 25  2  0  0  0  0
 26 29  1  0  0  0  0
 27 25  1  0  0  0  0
 28 31  2  0  0  0  0
 29 27  2  0  0  0  0
 30 28  1  0  0  0  0
 30 26  2  0  0  0  0
 31 27  1  0  0  0  0
 32 30  1  0  0  0  0
M  END
>  <MODEL>
9

>  <REMARK>
 VINA RESULT:      -7.3      3.223      8.027
  Name = 
  7 active torsions:
  status: ('A' for Active; 'I' for Inactive)
    1  A    between atoms: N_1  and  N_2
    2  A    between atoms: N_1  and  C_18
    3  A    between atoms: C_3  and  O_26
    4  A    between atoms: C_9  and  C_22
    5  A    between atoms: C_18  and  C_20
    6  A    between atoms: O_26  and  C_31
    7  A    between atoms: C_30  and  C_31
                            x       y       z     vdW  Elec       q    Type
                         _______ _______ _______ _____ _____    ______ ____

>  <TORSDO>
F 7

$$$$
