=
 OpenBabel11062419403D

 42 45  0  0  1  0  0  0  0  0999 V2000
  191.4940  173.3200  142.2710 C   0  0  2  0  0  3  0  0  0  0  0  0
  191.5890  175.1420  142.4570 S   0  0  0  0  0  0  0  0  0  0  0  0
  192.7630  172.7030  142.1940 O   0  0  0  0  0  0  0  0  0  0  0  0
  192.1650  173.7030  145.2760 C   0  0  0  0  0  0  0  0  0  0  0  0
  191.6840  177.4760  144.3520 C   0  0  0  0  0  1  0  0  0  0  0  0
  194.7710  172.1670  143.3350 C   0  0  0  0  0  2  0  0  0  0  0  0
  190.6280  175.1600  144.0390 C   0  0  2  0  0  3  0  0  0  0  0  0
  193.8030  171.9640  145.5230 O   0  0  0  0  0  0  0  0  0  0  0  0
  193.5140  172.9660  143.3630 C   0  0  2  0  0  3  0  0  0  0  0  0
  192.8410  172.5160  144.6550 C   0  0  2  0  0  3  0  0  0  0  0  0
  192.3020  175.7990  146.6950 C   0  0  0  0  0  2  0  0  0  0  0  0
  194.9730  171.7370  144.7730 C   0  0  2  0  0  3  0  0  0  0  0  0
  190.6100  176.4970  144.8440 C   0  0  1  0  0  0  0  0  0  0  0  0
  190.8800  174.0080  144.8410 O   0  0  0  0  0  0  0  0  0  0  0  0
  190.8540  176.1850  146.3550 C   0  0  2  0  0  3  0  0  0  0  0  0
  192.8260  174.5160  146.1040 C   0  0  0  0  0  3  0  0  0  0  0  0
  190.4890  177.2520  147.1790 O   0  0  0  0  0  1  0  0  0  0  0  0
  187.7160  176.1560  143.0050 C   0  0  0  0  0  2  0  0  0  0  0  0
  188.1060  176.0790  144.4620 C   0  0  0  0  0  2  0  0  0  0  0  0
  189.0730  178.0250  143.4140 C   0  0  0  0  0  2  0  0  0  0  0  0
  188.0840  177.4720  142.4960 N   0  0  0  0  0  0  0  0  0  0  0  0
  189.1960  177.1170  144.6380 C   0  0  2  0  0  3  0  0  0  0  0  0
  186.9100  178.3340  142.5790 C   0  0  0  0  0  2  0  0  0  0  0  0
  185.6810  177.6340  142.0040 C   0  0  2  0  0  3  0  0  0  0  0  0
  184.4670  178.6240  140.1860 O   0  0  0  0  0  1  0  0  0  0  0  0
  186.3920  177.5230  139.6170 O   0  0  0  0  0  0  0  0  0  0  0  0
  185.4770  177.9690  140.5600 C   0  0  0  0  0  0  0  0  0  0  0  0
  184.4200  177.8750  142.8420 C   0  0  0  0  0  2  0  0  0  0  0  0
  184.7920  179.8890  144.0670 O   0  0  0  0  0  0  0  0  0  0  0  0
  184.8590  177.9260  145.3350 N   0  0  0  0  0  2  0  0  0  0  0  0
  184.6890  178.6330  144.1040 C   0  0  0  0  0  0  0  0  0  0  0  0
  185.1140  178.6010  146.6000 C   0  0  0  0  0  2  0  0  0  0  0  0
  186.4450  176.7440  147.5440 C   0  0  0  0  0  1  0  0  0  0  0  0
  186.7710  178.9800  148.2720 O   0  0  0  0  0  1  0  0  0  0  0  0
  186.4740  178.2050  147.1490 C   0  0  2  0  0  3  0  0  0  0  0  0
  196.1360  173.8680  145.3870 O   0  0  0  0  0  0  0  0  0  0  0  0
  197.0680  171.8390  145.9030 O   0  0  0  0  0  1  0  0  0  0  0  0
  196.1170  172.4780  145.3830 C   0  0  0  0  0  0  0  0  0  0  0  0
  190.6630  172.9720  141.0490 C   0  0  0  0  0  2  0  0  0  0  0  0
  188.9500  172.3390  142.5780 O   0  0  0  0  0  1  0  0  0  0  0  0
  188.2240  173.0910  140.5370 O   0  0  0  0  0  0  0  0  0  0  0  0
  189.2380  172.7740  141.4340 C   0  0  0  0  0  0  0  0  0  0  0  0
  1 39  1  6  0  0  0
  1  2  1  0  0  0  0
  3  1  1  0  0  0  0
  3  9  1  0  0  0  0
  4 16  2  0  0  0  0
  6 12  1  0  0  0  0
  7  2  1  6  0  0  0
  7 14  1  0  0  0  0
  7 13  1  0  0  0  0
  9  6  1  6  0  0  0
  9 10  1  0  0  0  0
 10  4  1  1  0  0  0
 10  8  1  0  0  0  0
 12 38  1  1  0  0  0
 12  8  1  0  0  0  0
 13  5  1  6  0  0  0
 13 15  1  0  0  0  0
 14  4  1  0  0  0  0
 15 11  1  0  0  0  0
 15 17  1  1  0  0  0
 16 11  1  0  0  0  0
 18 19  1  0  0  0  0
 19 22  1  0  0  0  0
 21 23  1  0  0  0  0
 21 18  1  0  0  0  0
 21 20  1  0  0  0  0
 22 20  1  6  0  0  0
 22 13  1  0  0  0  0
 24 23  1  1  0  0  0
 24 28  1  0  0  0  0
 25 27  1  0  0  0  0
 26 27  2  0  0  0  0
 27 24  1  0  0  0  0
 28 31  1  0  0  0  0
 29 31  2  0  0  0  0
 30 32  1  0  0  0  0
 31 30  1  0  0  0  0
 32 35  1  0  0  0  0
 35 33  1  1  0  0  0
 35 34  1  0  0  0  0
 38 36  2  0  0  0  0
 38 37  1  0  0  0  0
 39 42  1  0  0  0  0
 41 42  2  0  0  0  0
 42 40  1  0  0  0  0
M  END
>  <MODEL>
1

>  <REMARK>
 VINA RESULT:      -7.6      0.000      0.000
  Name = 
  11 active torsions:
  status: ('A' for Active; 'I' for Inactive)
    1  A    between atoms: C_3  and  N_18
    2  A    between atoms: C_3  and  C_40
    3  A    between atoms: C_4  and  C_13
    4  A    between atoms: C_13  and  C_33
    5  A    between atoms: N_14  and  C_32
    6  A    between atoms: C_20  and  C_30
    7  A    between atoms: C_20  and  C_38
    8  A    between atoms: C_24  and  C_38
    9  A    between atoms: C_25  and  C_34
   10  A    between atoms: C_32  and  C_38
   11  A    between atoms: C_35  and  C_39
                            x       y       z     vdW  Elec       q    Type
                         _______ _______ _______ _____ _____    ______ ____

>  <TORSDO>
F 11

$$$$
=
 OpenBabel11062419403D

 42 45  0  0  1  0  0  0  0  0999 V2000
  191.3720  173.6700  142.1760 C   0  0  2  0  0  3  0  0  0  0  0  0
  191.1580  175.4190  142.6850 S   0  0  0  0  0  0  0  0  0  0  0  0
  192.2270  173.5160  141.0610 O   0  0  0  0  0  0  0  0  0  0  0  0
  193.9760  174.2870  143.7440 C   0  0  0  0  0  0  0  0  0  0  0  0
  192.1270  177.6670  144.4340 C   0  0  0  0  0  1  0  0  0  0  0  0
  194.4390  173.7010  140.2280 C   0  0  0  0  0  2  0  0  0  0  0  0
  191.7700  175.1270  144.4080 C   0  0  2  0  0  3  0  0  0  0  0  0
  195.5570  173.2050  142.2950 O   0  0  0  0  0  0  0  0  0  0  0  0
  193.5130  174.0300  141.3480 C   0  0  2  0  0  3  0  0  0  0  0  0
  194.1860  173.3910  142.5580 C   0  0  2  0  0  3  0  0  0  0  0  0
  194.6630  176.3190  145.0930 C   0  0  0  0  0  2  0  0  0  0  0  0
  195.7520  173.3790  140.9100 C   0  0  2  0  0  3  0  0  0  0  0  0
  192.0680  176.3870  145.2790 C   0  0  1  0  0  0  0  0  0  0  0  0
  192.7940  174.1350  144.4590 O   0  0  0  0  0  0  0  0  0  0  0  0
  193.4350  176.1910  146.0080 C   0  0  2  0  0  3  0  0  0  0  0  0
  194.8240  175.2830  144.0120 C   0  0  0  0  0  3  0  0  0  0  0  0
  193.5960  177.0800  147.0720 O   0  0  0  0  0  1  0  0  0  0  0  0
  189.3060  174.7060  146.4700 C   0  0  0  0  0  2  0  0  0  0  0  0
  190.6240  175.1860  147.0290 C   0  0  0  0  0  2  0  0  0  0  0  0
  189.5650  176.9140  145.7220 C   0  0  0  0  0  2  0  0  0  0  0  0
  188.5840  175.8550  145.9340 N   0  0  0  0  0  0  0  0  0  0  0  0
  190.9090  176.4910  146.3140 C   0  0  2  0  0  3  0  0  0  0  0  0
  187.6690  176.3350  146.9630 C   0  0  0  0  0  2  0  0  0  0  0  0
  186.7360  177.4070  146.4020 C   0  0  2  0  0  3  0  0  0  0  0  0
  184.9270  178.4270  147.6040 O   0  0  0  0  0  0  0  0  0  0  0  0
  187.0320  178.9410  148.3440 O   0  0  0  0  0  1  0  0  0  0  0  0
  186.1710  178.2720  147.4840 C   0  0  0  0  0  0  0  0  0  0  0  0
  185.6450  176.8220  145.4960 C   0  0  0  0  0  2  0  0  0  0  0  0
  184.3970  178.0680  143.8890 O   0  0  0  0  0  0  0  0  0  0  0  0
  186.6200  177.6370  143.3060 N   0  0  0  0  0  2  0  0  0  0  0  0
  185.5050  177.5540  144.1980 C   0  0  0  0  0  0  0  0  0  0  0  0
  186.5550  178.3410  142.0320 C   0  0  0  0  0  2  0  0  0  0  0  0
  186.5120  177.4290  139.7350 C   0  0  0  0  0  1  0  0  0  0  0  0
  187.7330  176.3490  141.4610 O   0  0  0  0  0  1  0  0  0  0  0  0
  187.3610  177.6040  140.9760 C   0  0  2  0  0  3  0  0  0  0  0  0
  197.5860  174.8950  141.6930 O   0  0  0  0  0  1  0  0  0  0  0  0
  196.8240  175.0020  139.5350 O   0  0  0  0  0  0  0  0  0  0  0  0
  196.7440  174.4690  140.6720 C   0  0  0  0  0  0  0  0  0  0  0  0
  190.0160  173.0500  141.8900 C   0  0  0  0  0  2  0  0  0  0  0  0
  190.1620  170.7010  142.2600 O   0  0  0  0  0  0  0  0  0  0  0  0
  189.2940  171.9230  143.9960 O   0  0  0  0  0  1  0  0  0  0  0  0
  189.8250  171.8250  142.7150 C   0  0  0  0  0  0  0  0  0  0  0  0
  1 39  1  6  0  0  0
  1  2  1  0  0  0  0
  3  9  1  0  0  0  0
  3  1  1  0  0  0  0
  4 16  2  0  0  0  0
  4 14  1  0  0  0  0
  6 12  1  0  0  0  0
  7  2  1  6  0  0  0
  7 14  1  0  0  0  0
  7 13  1  0  0  0  0
  9  6  1  6  0  0  0
  9 10  1  0  0  0  0
 10  8  1  6  0  0  0
 10  4  1  0  0  0  0
 11 15  1  0  0  0  0
 12 38  1  1  0  0  0
 12  8  1  0  0  0  0
 13  5  1  6  0  0  0
 13 15  1  0  0  0  0
 13 22  1  0  0  0  0
 15 17  1  1  0  0  0
 16 11  1  0  0  0  0
 18 19  1  0  0  0  0
 20 21  1  0  0  0  0
 21 18  1  0  0  0  0
 21 23  1  0  0  0  0
 22 20  1  6  0  0  0
 22 19  1  0  0  0  0
 24 28  1  1  0  0  0
 24 23  1  0  0  0  0
 24 27  1  0  0  0  0
 27 25  2  0  0  0  0
 27 26  1  0  0  0  0
 29 31  2  0  0  0  0
 30 31  1  0  0  0  0
 31 28  1  0  0  0  0
 32 30  1  0  0  0  0
 35 33  1  6  0  0  0
 35 34  1  0  0  0  0
 35 32  1  0  0  0  0
 37 38  2  0  0  0  0
 38 36  1  0  0  0  0
 39 42  1  0  0  0  0
 40 42  2  0  0  0  0
 42 41  1  0  0  0  0
M  END
>  <MODEL>
2

>  <REMARK>
 VINA RESULT:      -7.3      2.186      4.110
  Name = 
  11 active torsions:
  status: ('A' for Active; 'I' for Inactive)
    1  A    between atoms: C_3  and  N_18
    2  A    between atoms: C_3  and  C_40
    3  A    between atoms: C_4  and  C_13
    4  A    between atoms: C_13  and  C_33
    5  A    between atoms: N_14  and  C_32
    6  A    between atoms: C_20  and  C_30
    7  A    between atoms: C_20  and  C_38
    8  A    between atoms: C_24  and  C_38
    9  A    between atoms: C_25  and  C_34
   10  A    between atoms: C_32  and  C_38
   11  A    between atoms: C_35  and  C_39
                            x       y       z     vdW  Elec       q    Type
                         _______ _______ _______ _____ _____    ______ ____

>  <TORSDO>
F 11

$$$$
=
 OpenBabel11062419403D

 42 45  0  0  1  0  0  0  0  0999 V2000
  192.9740  174.9390  145.1890 C   0  0  2  0  0  3  0  0  0  0  0  0
  191.1760  174.6680  144.9540 S   0  0  0  0  0  0  0  0  0  0  0  0
  193.6250  173.8500  145.8120 O   0  0  0  0  0  0  0  0  0  0  0  0
  192.8450  173.0870  142.7030 C   0  0  0  0  0  0  0  0  0  0  0  0
  188.9980  173.6720  143.1330 C   0  0  0  0  0  1  0  0  0  0  0  0
  194.3100  171.5880  145.6230 C   0  0  0  0  0  2  0  0  0  0  0  0
  191.2490  174.9030  143.1190 C   0  0  2  0  0  3  0  0  0  0  0  0
  194.6490  171.5980  143.2450 O   0  0  0  0  0  0  0  0  0  0  0  0
  193.4750  172.6750  145.0380 C   0  0  2  0  0  3  0  0  0  0  0  0
  194.0020  172.7940  143.6130 C   0  0  2  0  0  3  0  0  0  0  0  0
  190.8690  172.2610  141.3470 C   0  0  0  0  0  2  0  0  0  0  0  0
  194.8550  170.8470  144.4190 C   0  0  2  0  0  3  0  0  0  0  0  0
  189.9780  174.5120  142.3020 C   0  0  1  0  0  0  0  0  0  0  0  0
  192.4670  174.4170  142.5580 O   0  0  0  0  0  0  0  0  0  0  0  0
  190.4120  173.6960  141.0430 C   0  0  2  0  0  3  0  0  0  0  0  0
  192.1190  172.1000  142.1720 C   0  0  0  0  0  3  0  0  0  0  0  0
  189.4000  173.6320  140.0830 O   0  0  0  0  0  1  0  0  0  0  0  0
  188.6600  177.4330  143.5690 C   0  0  0  0  0  2  0  0  0  0  0  0
  189.7990  177.0480  142.6560 C   0  0  0  0  0  2  0  0  0  0  0  0
  187.7810  175.8730  142.0530 C   0  0  0  0  0  2  0  0  0  0  0  0
  187.4170  176.9220  142.9990 N   0  0  0  0  0  0  0  0  0  0  0  0
  189.2990  175.8480  141.8780 C   0  0  2  0  0  3  0  0  0  0  0  0
  186.8020  177.9910  142.2210 C   0  0  0  0  0  2  0  0  0  0  0  0
  185.3640  178.2330  142.6750 C   0  0  2  0  0  3  0  0  0  0  0  0
  184.8490  178.3900  140.3360 O   0  0  0  0  0  0  0  0  0  0  0  0
  183.0500  178.2570  141.7470 O   0  0  0  0  0  1  0  0  0  0  0  0
  184.4190  178.2860  141.5160 C   0  0  0  0  0  0  0  0  0  0  0  0
  185.2330  179.4580  143.5890 C   0  0  0  0  0  2  0  0  0  0  0  0
  183.7810  178.9790  145.4200 O   0  0  0  0  0  0  0  0  0  0  0  0
  186.0640  178.9260  145.9210 N   0  0  0  0  0  2  0  0  0  0  0  0
  184.9690  179.0990  145.0180 C   0  0  0  0  0  0  0  0  0  0  0  0
  185.8780  178.5680  147.3200 C   0  0  0  0  0  2  0  0  0  0  0  0
  187.4320  176.6890  146.9140 C   0  0  0  0  0  1  0  0  0  0  0  0
  185.0810  176.3610  146.8960 O   0  0  0  0  0  1  0  0  0  0  0  0
  186.1020  177.0790  147.5220 C   0  0  2  0  0  3  0  0  0  0  0  0
  194.0310  168.6960  145.4010 O   0  0  0  0  0  1  0  0  0  0  0  0
  193.7910  169.1260  143.1630 O   0  0  0  0  0  0  0  0  0  0  0  0
  194.2000  169.5120  144.2890 C   0  0  0  0  0  0  0  0  0  0  0  0
  193.2010  176.2130  145.9830 C   0  0  0  0  0  2  0  0  0  0  0  0
  194.8720  177.9050  146.1210 O   0  0  0  0  0  1  0  0  0  0  0  0
  195.0390  176.4960  144.3190 O   0  0  0  0  0  0  0  0  0  0  0  0
  194.4090  176.9250  145.4820 C   0  0  0  0  0  0  0  0  0  0  0  0
  1  3  1  0  0  0  0
  1 39  1  1  0  0  0
  2  1  1  0  0  0  0
  7 14  1  6  0  0  0
  7  2  1  0  0  0  0
  8 10  1  0  0  0  0
  8 12  1  0  0  0  0
  9  6  1  1  0  0  0
  9  3  1  0  0  0  0
 10  4  1  6  0  0  0
 10  9  1  0  0  0  0
 11 16  1  0  0  0  0
 12 38  1  6  0  0  0
 12  6  1  0  0  0  0
 13  7  1  0  0  0  0
 13  5  1  1  0  0  0
 14  4  1  0  0  0  0
 15 17  1  6  0  0  0
 15 11  1  0  0  0  0
 15 13  1  0  0  0  0
 16  4  2  0  0  0  0
 19 18  1  0  0  0  0
 20 21  1  0  0  0  0
 21 18  1  0  0  0  0
 22 20  1  1  0  0  0
 22 13  1  0  0  0  0
 22 19  1  0  0  0  0
 23 21  1  0  0  0  0
 24 23  1  6  0  0  0
 24 28  1  0  0  0  0
 25 27  2  0  0  0  0
 27 26  1  0  0  0  0
 27 24  1  0  0  0  0
 28 31  1  0  0  0  0
 30 32  1  0  0  0  0
 31 29  2  0  0  0  0
 31 30  1  0  0  0  0
 32 35  1  0  0  0  0
 34 35  1  0  0  0  0
 35 33  1  6  0  0  0
 37 38  2  0  0  0  0
 38 36  1  0  0  0  0
 41 42  2  0  0  0  0
 42 39  1  0  0  0  0
 42 40  1  0  0  0  0
M  END
>  <MODEL>
3

>  <REMARK>
 VINA RESULT:      -7.2      1.850      3.983
  Name = 
  11 active torsions:
  status: ('A' for Active; 'I' for Inactive)
    1  A    between atoms: C_3  and  N_18
    2  A    between atoms: C_3  and  C_40
    3  A    between atoms: C_4  and  C_13
    4  A    between atoms: C_13  and  C_33
    5  A    between atoms: N_14  and  C_32
    6  A    between atoms: C_20  and  C_30
    7  A    between atoms: C_20  and  C_38
    8  A    between atoms: C_24  and  C_38
    9  A    between atoms: C_25  and  C_34
   10  A    between atoms: C_32  and  C_38
   11  A    between atoms: C_35  and  C_39
                            x       y       z     vdW  Elec       q    Type
                         _______ _______ _______ _____ _____    ______ ____

>  <TORSDO>
F 11

$$$$
=
 OpenBabel11062419403D

 42 45  0  0  1  0  0  0  0  0999 V2000
  189.2220  175.1770  142.3780 C   0  0  2  0  0  3  0  0  0  0  0  0
  189.3460  174.3160  143.9930 S   0  0  0  0  0  0  0  0  0  0  0  0
  187.8900  175.4700  142.0050 O   0  0  0  0  0  0  0  0  0  0  0  0
  188.8580  177.4630  144.4440 C   0  0  0  0  0  0  0  0  0  0  0  0
  189.6720  174.5870  146.9710 C   0  0  0  0  0  1  0  0  0  0  0  0
  185.9410  176.7350  142.4740 C   0  0  0  0  0  2  0  0  0  0  0  0
  190.4350  175.6090  144.7450 C   0  0  2  0  0  3  0  0  0  0  0  0
  187.0650  178.6550  143.3790 O   0  0  0  0  0  0  0  0  0  0  0  0
  187.2760  176.3000  142.9710 C   0  0  2  0  0  3  0  0  0  0  0  0
  188.0040  177.6170  143.2190 C   0  0  2  0  0  3  0  0  0  0  0  0
  189.0760  177.4730  146.9690 C   0  0  0  0  0  2  0  0  0  0  0  0
  185.8170  178.1700  142.9420 C   0  0  2  0  0  3  0  0  0  0  0  0
  190.6700  175.5320  146.2870 C   0  0  1  0  0  0  0  0  0  0  0  0
  190.1260  176.9200  144.2750 O   0  0  0  0  0  0  0  0  0  0  0  0
  190.5230  176.9620  146.8980 C   0  0  2  0  0  3  0  0  0  0  0  0
  188.3640  177.7040  145.6610 C   0  0  0  0  0  3  0  0  0  0  0  0
  191.0730  177.0460  148.1780 O   0  0  0  0  0  1  0  0  0  0  0  0
  193.9400  176.1010  145.3640 C   0  0  0  0  0  2  0  0  0  0  0  0
  193.1460  176.1040  146.6480 C   0  0  0  0  0  2  0  0  0  0  0  0
  192.6460  174.1450  145.3330 C   0  0  0  0  0  2  0  0  0  0  0  0
  193.8190  174.7840  144.7480 N   0  0  0  0  0  0  0  0  0  0  0  0
  192.1200  175.0010  146.4850 C   0  0  2  0  0  3  0  0  0  0  0  0
  194.9730  173.9870  145.1500 C   0  0  0  0  0  2  0  0  0  0  0  0
  194.7740  172.5190  144.7800 C   0  0  2  0  0  3  0  0  0  0  0  0
  196.6440  171.8740  146.1380 O   0  0  0  0  0  0  0  0  0  0  0  0
  194.8640  170.4330  146.1420 O   0  0  0  0  0  1  0  0  0  0  0  0
  195.4820  171.6070  145.7320 C   0  0  0  0  0  0  0  0  0  0  0  0
  195.1320  172.2270  143.3180 C   0  0  0  0  0  2  0  0  0  0  0  0
  197.3870  172.9800  143.1290 O   0  0  0  0  0  0  0  0  0  0  0  0
  195.8240  174.2020  141.8930 N   0  0  0  0  0  2  0  0  0  0  0  0
  196.1880  173.1390  142.7780 C   0  0  0  0  0  0  0  0  0  0  0  0
  196.8010  175.1200  141.3250 C   0  0  0  0  0  2  0  0  0  0  0  0
  196.8170  176.7910  143.1470 C   0  0  0  0  0  1  0  0  0  0  0  0
  195.0960  176.7750  141.5120 O   0  0  0  0  0  1  0  0  0  0  0  0
  196.4620  176.5540  141.6940 C   0  0  2  0  0  3  0  0  0  0  0  0
  184.9820  177.5410  145.2170 O   0  0  0  0  0  1  0  0  0  0  0  0
  183.8250  179.0360  143.9210 O   0  0  0  0  0  0  0  0  0  0  0  0
  184.8180  178.2740  144.0470 C   0  0  0  0  0  0  0  0  0  0  0  0
  189.9010  174.3490  141.3020 C   0  0  0  0  0  2  0  0  0  0  0  0
  191.7560  172.9540  141.8370 O   0  0  0  0  0  1  0  0  0  0  0  0
  192.2030  175.2020  141.7500 O   0  0  0  0  0  0  0  0  0  0  0  0
  191.3320  174.1240  141.6510 C   0  0  0  0  0  0  0  0  0  0  0  0
  1 39  1  6  0  0  0
  1  2  1  0  0  0  0
  3  1  1  0  0  0  0
  3  9  1  0  0  0  0
  4 16  2  0  0  0  0
  6 12  1  0  0  0  0
  7  2  1  1  0  0  0
  7 13  1  0  0  0  0
  9  6  1  6  0  0  0
  9 10  1  0  0  0  0
 10  8  1  1  0  0  0
 10  4  1  0  0  0  0
 12  8  1  0  0  0  0
 12 38  1  1  0  0  0
 13 22  1  0  0  0  0
 13 15  1  0  0  0  0
 13  5  1  1  0  0  0
 14  4  1  0  0  0  0
 14  7  1  0  0  0  0
 15 11  1  0  0  0  0
 15 17  1  1  0  0  0
 16 11  1  0  0  0  0
 18 19  1  0  0  0  0
 21 23  1  0  0  0  0
 21 20  1  0  0  0  0
 21 18  1  0  0  0  0
 22 20  1  6  0  0  0
 22 19  1  0  0  0  0
 24 28  1  6  0  0  0
 24 23  1  0  0  0  0
 24 27  1  0  0  0  0
 27 25  2  0  0  0  0
 27 26  1  0  0  0  0
 30 31  1  0  0  0  0
 31 29  2  0  0  0  0
 31 28  1  0  0  0  0
 32 35  1  0  0  0  0
 32 30  1  0  0  0  0
 34 35  1  0  0  0  0
 35 33  1  1  0  0  0
 37 38  2  0  0  0  0
 38 36  1  0  0  0  0
 39 42  1  0  0  0  0
 42 41  2  0  0  0  0
 42 40  1  0  0  0  0
M  END
>  <MODEL>
4

>  <REMARK>
 VINA RESULT:      -6.9      2.698      8.869
  Name = 
  11 active torsions:
  status: ('A' for Active; 'I' for Inactive)
    1  A    between atoms: C_3  and  N_18
    2  A    between atoms: C_3  and  C_40
    3  A    between atoms: C_4  and  C_13
    4  A    between atoms: C_13  and  C_33
    5  A    between atoms: N_14  and  C_32
    6  A    between atoms: C_20  and  C_30
    7  A    between atoms: C_20  and  C_38
    8  A    between atoms: C_24  and  C_38
    9  A    between atoms: C_25  and  C_34
   10  A    between atoms: C_32  and  C_38
   11  A    between atoms: C_35  and  C_39
                            x       y       z     vdW  Elec       q    Type
                         _______ _______ _______ _____ _____    ______ ____

>  <TORSDO>
F 11

$$$$
=
 OpenBabel11062419403D

 42 45  0  0  1  0  0  0  0  0999 V2000
  194.3600  174.4260  144.9420 C   0  0  2  0  0  3  0  0  0  0  0  0
  192.6670  174.6520  145.6080 S   0  0  0  0  0  0  0  0  0  0  0  0
  195.0710  173.3790  145.5740 O   0  0  0  0  0  0  0  0  0  0  0  0
  192.7460  172.1460  143.5920 C   0  0  0  0  0  0  0  0  0  0  0  0
  189.7550  173.9340  145.3750 C   0  0  0  0  0  1  0  0  0  0  0  0
  195.2400  171.0420  145.9330 C   0  0  0  0  0  2  0  0  0  0  0  0
  191.8480  174.3980  143.9670 C   0  0  2  0  0  3  0  0  0  0  0  0
  194.3460  170.3690  143.8090 O   0  0  0  0  0  0  0  0  0  0  0  0
  194.3900  172.1510  145.4130 C   0  0  2  0  0  3  0  0  0  0  0  0
  194.1470  171.7540  143.9620 C   0  0  2  0  0  3  0  0  0  0  0  0
  190.2630  171.6380  143.5980 C   0  0  0  0  0  2  0  0  0  0  0  0
  195.0000  169.9020  144.9660 C   0  0  2  0  0  3  0  0  0  0  0  0
  190.2980  174.2140  143.9670 C   0  0  1  0  0  0  0  0  0  0  0  0
  192.5400  173.4500  143.1560 O   0  0  0  0  0  0  0  0  0  0  0  0
  189.9250  173.0240  143.0270 C   0  0  2  0  0  3  0  0  0  0  0  0
  191.7200  171.3200  143.8110 C   0  0  0  0  0  3  0  0  0  0  0  0
  188.5730  173.0300  142.6820 O   0  0  0  0  0  1  0  0  0  0  0  0
  189.8990  177.5490  144.7380 C   0  0  0  0  0  2  0  0  0  0  0  0
  190.5900  176.7460  143.6620 C   0  0  0  0  0  2  0  0  0  0  0  0
  188.3520  175.9310  144.0380 C   0  0  0  0  0  2  0  0  0  0  0  0
  188.4810  177.2080  144.7320 N   0  0  0  0  0  0  0  0  0  0  0  0
  189.6980  175.5450  143.4260 C   0  0  2  0  0  3  0  0  0  0  0  0
  187.7810  178.1960  143.9190 C   0  0  0  0  0  2  0  0  0  0  0  0
  186.9310  177.5140  142.8480 C   0  0  2  0  0  3  0  0  0  0  0  0
  188.5420  178.3820  141.2950 O   0  0  0  0  0  1  0  0  0  0  0  0
  187.0120  176.9150  140.4300 O   0  0  0  0  0  0  0  0  0  0  0  0
  187.5540  177.6260  141.4920 C   0  0  0  0  0  0  0  0  0  0  0  0
  185.4740  177.9920  142.8610 C   0  0  0  0  0  2  0  0  0  0  0  0
  184.8860  179.7880  144.3170 O   0  0  0  0  0  0  0  0  0  0  0  0
  184.8610  177.6650  145.2950 N   0  0  0  0  0  2  0  0  0  0  0  0
  185.0490  178.5450  144.1850 C   0  0  0  0  0  0  0  0  0  0  0  0
  184.4390  178.1350  146.6080 C   0  0  0  0  0  2  0  0  0  0  0  0
  186.4060  179.1130  147.7420 C   0  0  0  0  0  1  0  0  0  0  0  0
  186.3060  176.7940  147.2420 O   0  0  0  0  0  1  0  0  0  0  0  0
  185.5280  177.8840  147.6370 C   0  0  2  0  0  3  0  0  0  0  0  0
  193.0860  168.2870  144.9570 O   0  0  0  0  0  0  0  0  0  0  0  0
  194.4960  168.4160  146.7580 O   0  0  0  0  0  1  0  0  0  0  0  0
  194.1840  168.8330  145.6130 C   0  0  0  0  0  0  0  0  0  0  0  0
  195.1320  175.7280  145.0510 C   0  0  0  0  0  2  0  0  0  0  0  0
  196.5970  176.7990  143.5080 O   0  0  0  0  0  1  0  0  0  0  0  0
  194.6120  176.0540  142.6330 O   0  0  0  0  0  0  0  0  0  0  0  0
  195.4900  176.2310  143.6950 C   0  0  0  0  0  0  0  0  0  0  0  0
  1 39  1  1  0  0  0
  1  3  1  0  0  0  0
  1  2  1  0  0  0  0
  4 16  2  0  0  0  0
  7 14  1  1  0  0  0
  7  2  1  0  0  0  0
  8 10  1  0  0  0  0
  8 12  1  0  0  0  0
  9  3  1  0  0  0  0
  9  6  1  6  0  0  0
 10  4  1  1  0  0  0
 10  9  1  0  0  0  0
 11 16  1  0  0  0  0
 12 38  1  1  0  0  0
 12  6  1  0  0  0  0
 13  7  1  0  0  0  0
 13  5  1  1  0  0  0
 14  4  1  0  0  0  0
 15 17  1  1  0  0  0
 15 11  1  0  0  0  0
 15 13  1  0  0  0  0
 19 18  1  0  0  0  0
 20 21  1  0  0  0  0
 21 18  1  0  0  0  0
 22 19  1  1  0  0  0
 22 13  1  0  0  0  0
 22 20  1  0  0  0  0
 23 21  1  0  0  0  0
 24 28  1  6  0  0  0
 24 23  1  0  0  0  0
 25 27  1  0  0  0  0
 26 27  2  0  0  0  0
 27 24  1  0  0  0  0
 28 31  1  0  0  0  0
 30 32  1  0  0  0  0
 31 29  2  0  0  0  0
 31 30  1  0  0  0  0
 32 35  1  0  0  0  0
 34 35  1  0  0  0  0
 35 33  1  6  0  0  0
 36 38  2  0  0  0  0
 38 37  1  0  0  0  0
 40 42  1  0  0  0  0
 41 42  2  0  0  0  0
 42 39  1  0  0  0  0
M  END
>  <MODEL>
5

>  <REMARK>
 VINA RESULT:      -6.9      2.039      3.796
  Name = 
  11 active torsions:
  status: ('A' for Active; 'I' for Inactive)
    1  A    between atoms: C_3  and  N_18
    2  A    between atoms: C_3  and  C_40
    3  A    between atoms: C_4  and  C_13
    4  A    between atoms: C_13  and  C_33
    5  A    between atoms: N_14  and  C_32
    6  A    between atoms: C_20  and  C_30
    7  A    between atoms: C_20  and  C_38
    8  A    between atoms: C_24  and  C_38
    9  A    between atoms: C_25  and  C_34
   10  A    between atoms: C_32  and  C_38
   11  A    between atoms: C_35  and  C_39
                            x       y       z     vdW  Elec       q    Type
                         _______ _______ _______ _____ _____    ______ ____

>  <TORSDO>
F 11

$$$$
=
 OpenBabel11062419403D

 42 45  0  0  1  0  0  0  0  0999 V2000
  189.4010  175.2740  142.8360 C   0  0  2  0  0  3  0  0  0  0  0  0
  189.6570  174.4250  144.4410 S   0  0  0  0  0  0  0  0  0  0  0  0
  188.0370  175.4710  142.5220 O   0  0  0  0  0  0  0  0  0  0  0  0
  188.9660  177.5300  144.9210 C   0  0  0  0  0  0  0  0  0  0  0  0
  190.0930  174.7210  147.4030 C   0  0  0  0  0  1  0  0  0  0  0  0
  186.0240  176.5940  143.0790 C   0  0  0  0  0  2  0  0  0  0  0  0
  190.6830  175.7940  145.1490 C   0  0  2  0  0  3  0  0  0  0  0  0
  187.0480  178.5890  143.9380 O   0  0  0  0  0  0  0  0  0  0  0  0
  187.4080  176.2560  143.5160 C   0  0  2  0  0  3  0  0  0  0  0  0
  188.0500  177.6210  143.7350 C   0  0  2  0  0  3  0  0  0  0  0  0
  189.2930  177.5570  147.4340 C   0  0  0  0  0  2  0  0  0  0  0  0
  185.8190  178.0170  143.5550 C   0  0  2  0  0  3  0  0  0  0  0  0
  190.9900  175.7340  146.6780 C   0  0  1  0  0  0  0  0  0  0  0  0
  190.2610  177.0790  144.6960 O   0  0  0  0  0  0  0  0  0  0  0  0
  190.7680  177.1500  147.2980 C   0  0  2  0  0  3  0  0  0  0  0  0
  188.5100  177.7350  146.1590 C   0  0  0  0  0  3  0  0  0  0  0  0
  191.3670  177.2750  148.5530 O   0  0  0  0  0  1  0  0  0  0  0  0
  194.0680  176.0440  145.1620 C   0  0  0  0  0  2  0  0  0  0  0  0
  193.4550  176.4230  146.4890 C   0  0  0  0  0  2  0  0  0  0  0  0
  192.8960  174.1520  145.9020 C   0  0  0  0  0  2  0  0  0  0  0  0
  193.9410  174.6010  144.9890 N   0  0  0  0  0  0  0  0  0  0  0  0
  192.4820  175.3080  146.8110 C   0  0  2  0  0  3  0  0  0  0  0  0
  195.1820  173.9800  145.4370 C   0  0  0  0  0  2  0  0  0  0  0  0
  195.8460  173.2100  144.2970 C   0  0  2  0  0  3  0  0  0  0  0  0
  197.2230  175.0820  143.7000 O   0  0  0  0  0  1  0  0  0  0  0  0
  196.2640  173.9520  141.9540 O   0  0  0  0  0  0  0  0  0  0  0  0
  196.4960  174.1290  143.3110 C   0  0  0  0  0  0  0  0  0  0  0  0
  194.8910  172.2160  143.6240 C   0  0  0  0  0  2  0  0  0  0  0  0
  193.6030  170.4670  144.6110 O   0  0  0  0  0  0  0  0  0  0  0  0
  195.9190  170.2590  144.8570 N   0  0  0  0  0  2  0  0  0  0  0  0
  194.7510  170.9320  144.3790 C   0  0  0  0  0  0  0  0  0  0  0  0
  195.8550  169.0020  145.5910 C   0  0  0  0  0  2  0  0  0  0  0  0
  197.0100  168.5010  147.7180 C   0  0  0  0  0  1  0  0  0  0  0  0
  194.6590  168.8200  147.6450 O   0  0  0  0  0  1  0  0  0  0  0  0
  195.8620  169.2590  147.0880 C   0  0  2  0  0  3  0  0  0  0  0  0
  185.0230  177.1810  145.7780 O   0  0  0  0  0  1  0  0  0  0  0  0
  183.9150  178.8740  144.7020 O   0  0  0  0  0  0  0  0  0  0  0  0
  184.8650  178.0490  144.7030 C   0  0  0  0  0  0  0  0  0  0  0  0
  190.0900  174.4960  141.7290 C   0  0  0  0  0  2  0  0  0  0  0  0
  188.6000  172.6640  141.4210 O   0  0  0  0  0  1  0  0  0  0  0  0
  188.6810  174.1730  139.6960 O   0  0  0  0  0  0  0  0  0  0  0  0
  189.0900  173.7200  140.9450 C   0  0  0  0  0  0  0  0  0  0  0  0
  1 39  1  6  0  0  0
  1  2  1  0  0  0  0
  3  1  1  0  0  0  0
  3  9  1  0  0  0  0
  4 16  2  0  0  0  0
  6 12  1  0  0  0  0
  7  2  1  1  0  0  0
  7 13  1  0  0  0  0
  9  6  1  6  0  0  0
  9 10  1  0  0  0  0
 10  8  1  1  0  0  0
 10  4  1  0  0  0  0
 12  8  1  0  0  0  0
 12 38  1  1  0  0  0
 13 22  1  0  0  0  0
 13 15  1  0  0  0  0
 13  5  1  1  0  0  0
 14  4  1  0  0  0  0
 14  7  1  0  0  0  0
 15 11  1  0  0  0  0
 15 17  1  1  0  0  0
 16 11  1  0  0  0  0
 18 19  1  0  0  0  0
 19 22  1  0  0  0  0
 21 18  1  0  0  0  0
 21 23  1  0  0  0  0
 21 20  1  0  0  0  0
 22 20  1  6  0  0  0
 24 28  1  6  0  0  0
 24 23  1  0  0  0  0
 26 27  2  0  0  0  0
 27 25  1  0  0  0  0
 27 24  1  0  0  0  0
 28 31  1  0  0  0  0
 30 32  1  0  0  0  0
 31 29  2  0  0  0  0
 31 30  1  0  0  0  0
 32 35  1  0  0  0  0
 35 34  1  0  0  0  0
 35 33  1  1  0  0  0
 37 38  2  0  0  0  0
 38 36  1  0  0  0  0
 41 42  2  0  0  0  0
 42 40  1  0  0  0  0
 42 39  1  0  0  0  0
M  END
>  <MODEL>
6

>  <REMARK>
 VINA RESULT:      -6.8      2.866      8.882
  Name = 
  11 active torsions:
  status: ('A' for Active; 'I' for Inactive)
    1  A    between atoms: C_3  and  N_18
    2  A    between atoms: C_3  and  C_40
    3  A    between atoms: C_4  and  C_13
    4  A    between atoms: C_13  and  C_33
    5  A    between atoms: N_14  and  C_32
    6  A    between atoms: C_20  and  C_30
    7  A    between atoms: C_20  and  C_38
    8  A    between atoms: C_24  and  C_38
    9  A    between atoms: C_25  and  C_34
   10  A    between atoms: C_32  and  C_38
   11  A    between atoms: C_35  and  C_39
                            x       y       z     vdW  Elec       q    Type
                         _______ _______ _______ _____ _____    ______ ____

>  <TORSDO>
F 11

$$$$
=
 OpenBabel11062419403D

 42 45  0  0  1  0  0  0  0  0999 V2000
  188.9660  177.1910  145.5620 C   0  0  2  0  0  3  0  0  0  0  0  0
  190.5450  177.2810  144.6350 S   0  0  0  0  0  0  0  0  0  0  0  0
  187.9480  178.0000  145.0070 O   0  0  0  0  0  0  0  0  0  0  0  0
  188.4680  175.3570  143.1100 C   0  0  0  0  0  0  0  0  0  0  0  0
  192.2510  176.1130  142.4490 C   0  0  0  0  0  1  0  0  0  0  0  0
  186.4880  178.3570  143.1730 C   0  0  0  0  0  2  0  0  0  0  0  0
  190.6060  175.4600  144.3060 C   0  0  2  0  0  3  0  0  0  0  0  0
  186.2320  176.0470  142.5680 O   0  0  0  0  0  0  0  0  0  0  0  0
  187.6760  177.6090  143.6750 C   0  0  2  0  0  3  0  0  0  0  0  0
  187.2620  176.1500  143.5220 C   0  0  2  0  0  3  0  0  0  0  0  0
  190.0350  174.5570  141.2860 C   0  0  0  0  0  2  0  0  0  0  0  0
  185.7390  177.3450  142.3320 C   0  0  2  0  0  3  0  0  0  0  0  0
  191.6650  174.9600  143.2750 C   0  0  1  0  0  0  0  0  0  0  0  0
  189.3080  174.8990  144.1170 O   0  0  0  0  0  0  0  0  0  0  0  0
  190.9920  173.9300  142.3120 C   0  0  2  0  0  3  0  0  0  0  0  0
  188.7940  175.2220  141.8220 C   0  0  0  0  0  3  0  0  0  0  0  0
  191.9320  173.1690  141.6150 O   0  0  0  0  0  1  0  0  0  0  0  0
  193.6640  175.3810  146.0500 C   0  0  0  0  0  2  0  0  0  0  0  0
  192.6050  174.4040  145.5980 C   0  0  0  0  0  2  0  0  0  0  0  0
  194.1970  174.8220  143.8350 C   0  0  0  0  0  2  0  0  0  0  0  0
  194.7410  175.3840  145.0650 N   0  0  0  0  0  0  0  0  0  0  0  0
  192.7940  174.2750  144.1000 C   0  0  2  0  0  3  0  0  0  0  0  0
  195.7750  174.4640  145.5230 C   0  0  0  0  0  2  0  0  0  0  0  0
  196.5160  173.8480  144.3370 C   0  0  2  0  0  3  0  0  0  0  0  0
  197.7190  171.7970  144.0110 O   0  0  0  0  0  0  0  0  0  0  0  0
  195.7780  171.6340  145.2140 O   0  0  0  0  0  1  0  0  0  0  0  0
  196.7200  172.3760  144.5160 C   0  0  0  0  0  0  0  0  0  0  0  0
  197.8230  174.5820  144.0140 C   0  0  0  0  0  2  0  0  0  0  0  0
  197.9400  176.7860  143.1080 O   0  0  0  0  0  0  0  0  0  0  0  0
  197.2230  175.1330  141.6170 N   0  0  0  0  0  2  0  0  0  0  0  0
  197.6810  175.5700  142.8990 C   0  0  0  0  0  0  0  0  0  0  0  0
  197.0720  176.0390  140.4860 C   0  0  0  0  0  2  0  0  0  0  0  0
  194.9950  174.7020  140.3930 C   0  0  0  0  0  1  0  0  0  0  0  0
  196.4280  174.8760  138.5080 O   0  0  0  0  0  1  0  0  0  0  0  0
  195.9250  175.5910  139.5960 C   0  0  2  0  0  3  0  0  0  0  0  0
  184.7550  178.0960  140.1540 O   0  0  0  0  0  0  0  0  0  0  0  0
  186.9840  177.5870  140.3150 O   0  0  0  0  0  1  0  0  0  0  0  0
  185.8640  177.6780  140.8820 C   0  0  0  0  0  0  0  0  0  0  0  0
  189.2020  177.5620  147.0150 C   0  0  0  0  0  2  0  0  0  0  0  0
  191.2140  177.0560  148.1850 O   0  0  0  0  0  1  0  0  0  0  0  0
  189.9070  175.2520  147.6380 O   0  0  0  0  0  0  0  0  0  0  0  0
  190.1680  176.6170  147.6390 C   0  0  0  0  0  0  0  0  0  0  0  0
  1 39  1  1  0  0  0
  2  1  1  0  0  0  0
  3  1  1  0  0  0  0
  4 10  1  0  0  0  0
  4 14  1  0  0  0  0
  7 14  1  6  0  0  0
  7  2  1  0  0  0  0
  9  6  1  1  0  0  0
  9  3  1  0  0  0  0
 10  8  1  6  0  0  0
 10  9  1  0  0  0  0
 11 16  1  0  0  0  0
 11 15  1  0  0  0  0
 12 38  1  6  0  0  0
 12  8  1  0  0  0  0
 12  6  1  0  0  0  0
 13  5  1  6  0  0  0
 13 22  1  0  0  0  0
 13  7  1  0  0  0  0
 15 17  1  6  0  0  0
 15 13  1  0  0  0  0
 16  4  2  0  0  0  0
 19 18  1  0  0  0  0
 20 21  1  0  0  0  0
 21 23  1  0  0  0  0
 21 18  1  0  0  0  0
 22 20  1  6  0  0  0
 22 19  1  0  0  0  0
 24 28  1  1  0  0  0
 24 27  1  0  0  0  0
 24 23  1  0  0  0  0
 25 27  2  0  0  0  0
 27 26  1  0  0  0  0
 30 31  1  0  0  0  0
 31 29  2  0  0  0  0
 31 28  1  0  0  0  0
 32 30  1  0  0  0  0
 34 35  1  0  0  0  0
 35 33  1  1  0  0  0
 35 32  1  0  0  0  0
 36 38  2  0  0  0  0
 37 38  1  0  0  0  0
 39 42  1  0  0  0  0
 41 42  2  0  0  0  0
 42 40  1  0  0  0  0
M  END
>  <MODEL>
7

>  <REMARK>
 VINA RESULT:      -6.7      3.033      9.521
  Name = 
  11 active torsions:
  status: ('A' for Active; 'I' for Inactive)
    1  A    between atoms: C_3  and  N_18
    2  A    between atoms: C_3  and  C_40
    3  A    between atoms: C_4  and  C_13
    4  A    between atoms: C_13  and  C_33
    5  A    between atoms: N_14  and  C_32
    6  A    between atoms: C_20  and  C_30
    7  A    between atoms: C_20  and  C_38
    8  A    between atoms: C_24  and  C_38
    9  A    between atoms: C_25  and  C_34
   10  A    between atoms: C_32  and  C_38
   11  A    between atoms: C_35  and  C_39
                            x       y       z     vdW  Elec       q    Type
                         _______ _______ _______ _____ _____    ______ ____

>  <TORSDO>
F 11

$$$$
=
 OpenBabel11062419403D

 42 45  0  0  1  0  0  0  0  0999 V2000
  194.7760  174.4140  144.4070 C   0  0  2  0  0  3  0  0  0  0  0  0
  193.0380  174.0380  144.8550 S   0  0  0  0  0  0  0  0  0  0  0  0
  195.7150  173.8480  145.2990 O   0  0  0  0  0  0  0  0  0  0  0  0
  194.3870  171.5050  143.4020 C   0  0  0  0  0  0  0  0  0  0  0  0
  190.6940  172.1860  144.5050 C   0  0  0  0  0  1  0  0  0  0  0  0
  196.6930  171.8580  146.1370 C   0  0  0  0  0  2  0  0  0  0  0  0
  192.6570  173.2350  143.2310 C   0  0  2  0  0  3  0  0  0  0  0  0
  196.4810  170.5730  144.1190 O   0  0  0  0  0  0  0  0  0  0  0  0
  195.5850  172.4410  145.3280 C   0  0  2  0  0  3  0  0  0  0  0  0
  195.7510  171.7680  143.9700 C   0  0  2  0  0  3  0  0  0  0  0  0
  192.3150  170.0500  143.2830 C   0  0  0  0  0  2  0  0  0  0  0  0
  197.0640  170.5870  145.4020 C   0  0  2  0  0  3  0  0  0  0  0  0
  191.3140  172.4480  143.1260 C   0  0  1  0  0  0  0  0  0  0  0  0
  193.7790  172.5350  142.6950 O   0  0  0  0  0  0  0  0  0  0  0  0
  191.5780  171.0820  142.4150 C   0  0  2  0  0  3  0  0  0  0  0  0
  193.7280  170.3790  143.6880 C   0  0  0  0  0  3  0  0  0  0  0  0
  190.4000  170.4930  141.9530 O   0  0  0  0  0  1  0  0  0  0  0  0
  190.4700  175.7220  142.4620 C   0  0  0  0  0  2  0  0  0  0  0  0
  191.0240  174.5520  141.6850 C   0  0  0  0  0  2  0  0  0  0  0  0
  189.1460  173.8730  143.0360 C   0  0  0  0  0  2  0  0  0  0  0  0
  189.1860  175.3310  143.0350 N   0  0  0  0  0  0  0  0  0  0  0  0
  190.3530  173.3280  142.2730 C   0  0  2  0  0  3  0  0  0  0  0  0
  188.1330  175.7770  142.1300 C   0  0  0  0  0  2  0  0  0  0  0  0
  187.1310  176.6680  142.8620 C   0  0  2  0  0  3  0  0  0  0  0  0
  186.3230  177.3630  140.7120 O   0  0  0  0  0  0  0  0  0  0  0  0
  184.8340  177.5410  142.4420 O   0  0  0  0  0  1  0  0  0  0  0  0
  186.0800  177.1960  141.9370 C   0  0  0  0  0  0  0  0  0  0  0  0
  187.8130  177.7820  143.6660 C   0  0  0  0  0  2  0  0  0  0  0  0
  187.1360  177.0330  145.8270 O   0  0  0  0  0  0  0  0  0  0  0  0
  189.4190  177.4800  145.5990 N   0  0  0  0  0  2  0  0  0  0  0  0
  188.0870  177.3990  145.0860 C   0  0  0  0  0  0  0  0  0  0  0  0
  189.7570  177.1140  146.9680 C   0  0  0  0  0  2  0  0  0  0  0  0
  189.3160  174.6990  147.2630 C   0  0  0  0  0  1  0  0  0  0  0  0
  191.3360  175.6800  148.0330 O   0  0  0  0  0  1  0  0  0  0  0  0
  190.3910  175.7340  147.0070 C   0  0  2  0  0  3  0  0  0  0  0  0
  196.7650  169.3440  147.5550 O   0  0  0  0  0  1  0  0  0  0  0  0
  196.0970  168.4160  145.5690 O   0  0  0  0  0  0  0  0  0  0  0  0
  196.6170  169.3890  146.1730 C   0  0  0  0  0  0  0  0  0  0  0  0
  194.9700  175.9180  144.3210 C   0  0  0  0  0  2  0  0  0  0  0  0
  194.5240  176.6560  146.5410 O   0  0  0  0  0  1  0  0  0  0  0  0
  192.9380  177.2070  144.9790 O   0  0  0  0  0  0  0  0  0  0  0  0
  194.1350  176.6050  145.3450 C   0  0  0  0  0  0  0  0  0  0  0  0
  1 39  1  1  0  0  0
  1  2  1  0  0  0  0
  1  3  1  0  0  0  0
  3  9  1  0  0  0  0
  4 16  2  0  0  0  0
  7 14  1  1  0  0  0
  7  2  1  0  0  0  0
  8 12  1  0  0  0  0
  9  6  1  1  0  0  0
 10  4  1  1  0  0  0
 10  8  1  0  0  0  0
 10  9  1  0  0  0  0
 11 16  1  0  0  0  0
 12  6  1  0  0  0  0
 12 38  1  1  0  0  0
 13  7  1  0  0  0  0
 13  5  1  1  0  0  0
 14  4  1  0  0  0  0
 15 17  1  1  0  0  0
 15 13  1  0  0  0  0
 15 11  1  0  0  0  0
 18 21  1  0  0  0  0
 19 18  1  0  0  0  0
 21 20  1  0  0  0  0
 22 19  1  1  0  0  0
 22 20  1  0  0  0  0
 22 13  1  0  0  0  0
 23 21  1  0  0  0  0
 24 23  1  6  0  0  0
 24 28  1  0  0  0  0
 25 27  2  0  0  0  0
 27 26  1  0  0  0  0
 27 24  1  0  0  0  0
 28 31  1  0  0  0  0
 30 32  1  0  0  0  0
 31 30  1  0  0  0  0
 31 29  2  0  0  0  0
 32 35  1  0  0  0  0
 35 33  1  1  0  0  0
 35 34  1  0  0  0  0
 37 38  2  0  0  0  0
 38 36  1  0  0  0  0
 39 42  1  0  0  0  0
 41 42  2  0  0  0  0
 42 40  1  0  0  0  0
M  END
>  <MODEL>
8

>  <REMARK>
 VINA RESULT:      -6.7      2.221      4.582
  Name = 
  11 active torsions:
  status: ('A' for Active; 'I' for Inactive)
    1  A    between atoms: C_3  and  N_18
    2  A    between atoms: C_3  and  C_40
    3  A    between atoms: C_4  and  C_13
    4  A    between atoms: C_13  and  C_33
    5  A    between atoms: N_14  and  C_32
    6  A    between atoms: C_20  and  C_30
    7  A    between atoms: C_20  and  C_38
    8  A    between atoms: C_24  and  C_38
    9  A    between atoms: C_25  and  C_34
   10  A    between atoms: C_32  and  C_38
   11  A    between atoms: C_35  and  C_39
                            x       y       z     vdW  Elec       q    Type
                         _______ _______ _______ _____ _____    ______ ____

>  <TORSDO>
F 11

$$$$
=
 OpenBabel11062419403D

 42 45  0  0  1  0  0  0  0  0999 V2000
  192.8400  172.8720  141.5980 C   0  0  2  0  0  3  0  0  0  0  0  0
  192.1140  174.5150  141.9670 S   0  0  0  0  0  0  0  0  0  0  0  0
  194.2530  172.8690  141.6270 O   0  0  0  0  0  0  0  0  0  0  0  0
  193.0480  173.0720  144.6860 C   0  0  0  0  0  0  0  0  0  0  0  0
  191.0370  176.3740  144.0730 C   0  0  0  0  0  1  0  0  0  0  0  0
  196.2010  173.0790  142.9620 C   0  0  0  0  0  2  0  0  0  0  0  0
  191.1260  173.8980  143.4060 C   0  0  2  0  0  3  0  0  0  0  0  0
  195.2570  172.1760  144.9760 O   0  0  0  0  0  0  0  0  0  0  0  0
  194.7230  173.2570  142.9030 C   0  0  2  0  0  3  0  0  0  0  0  0
  194.2190  172.3850  144.0480 C   0  0  2  0  0  3  0  0  0  0  0  0
  192.1470  174.8020  146.3050 C   0  0  0  0  0  2  0  0  0  0  0  0
  196.4620  172.5760  144.3660 C   0  0  2  0  0  3  0  0  0  0  0  0
  190.4650  174.9720  144.3270 C   0  0  1  0  0  0  0  0  0  0  0  0
  191.7960  172.8610  144.1200 O   0  0  0  0  0  0  0  0  0  0  0  0
  190.7060  174.5820  145.8200 C   0  0  2  0  0  3  0  0  0  0  0  0
  193.2220  173.9610  145.6670 C   0  0  0  0  0  3  0  0  0  0  0  0
  189.8510  175.2640  146.6870 O   0  0  0  0  0  1  0  0  0  0  0  0
  188.2170  175.3920  141.7490 C   0  0  0  0  0  2  0  0  0  0  0  0
  188.6190  174.2770  142.6840 C   0  0  0  0  0  2  0  0  0  0  0  0
  188.3010  176.3390  143.8930 C   0  0  0  0  0  2  0  0  0  0  0  0
  187.7690  176.5280  142.5480 N   0  0  0  0  0  0  0  0  0  0  0  0
  188.9430  174.9560  143.9990 C   0  0  2  0  0  3  0  0  0  0  0  0
  186.3170  176.4580  142.6590 C   0  0  0  0  0  2  0  0  0  0  0  0
  185.6790  177.7860  142.2590 C   0  0  2  0  0  3  0  0  0  0  0  0
  186.4890  177.9050  140.0030 O   0  0  0  0  0  0  0  0  0  0  0  0
  184.2150  178.0040  140.2530 O   0  0  0  0  0  1  0  0  0  0  0  0
  185.4950  177.8890  140.7770 C   0  0  0  0  0  0  0  0  0  0  0  0
  186.4230  178.9960  142.8390 C   0  0  0  0  0  2  0  0  0  0  0  0
  185.0400  180.3410  144.2420 O   0  0  0  0  0  0  0  0  0  0  0  0
  186.4030  178.8070  145.3630 N   0  0  0  0  0  2  0  0  0  0  0  0
  185.9000  179.4220  144.1740 C   0  0  0  0  0  0  0  0  0  0  0  0
  185.9310  179.1680  146.6930 C   0  0  0  0  0  2  0  0  0  0  0  0
  185.4960  176.7340  146.7040 C   0  0  0  0  0  1  0  0  0  0  0  0
  183.7210  178.2990  146.8950 O   0  0  0  0  0  1  0  0  0  0  0  0
  185.0480  178.0690  147.2600 C   0  0  2  0  0  3  0  0  0  0  0  0
  197.0440  173.6040  146.5740 O   0  0  0  0  0  1  0  0  0  0  0  0
  197.7470  174.5660  144.6170 O   0  0  0  0  0  0  0  0  0  0  0  0
  197.1170  173.6380  145.1870 C   0  0  0  0  0  0  0  0  0  0  0  0
  192.3390  172.3820  140.2510 C   0  0  0  0  0  2  0  0  0  0  0  0
  192.3010  170.2620  139.1660 O   0  0  0  0  0  0  0  0  0  0  0  0
  192.0750  170.2090  141.4470 O   0  0  0  0  0  1  0  0  0  0  0  0
  192.2310  170.8970  140.2500 C   0  0  0  0  0  0  0  0  0  0  0  0
  1 39  1  6  0  0  0
  1  3  1  0  0  0  0
  1  2  1  0  0  0  0
  3  9  1  0  0  0  0
  4 16  2  0  0  0  0
  6 12  1  0  0  0  0
  7  2  1  6  0  0  0
  7 14  1  0  0  0  0
  7 13  1  0  0  0  0
  9  6  1  6  0  0  0
  9 10  1  0  0  0  0
 10  4  1  1  0  0  0
 10  8  1  0  0  0  0
 12  8  1  0  0  0  0
 12 38  1  1  0  0  0
 13  5  1  6  0  0  0
 13 15  1  0  0  0  0
 14  4  1  0  0  0  0
 15 11  1  0  0  0  0
 15 17  1  1  0  0  0
 16 11  1  0  0  0  0
 18 21  1  0  0  0  0
 18 19  1  0  0  0  0
 20 22  1  0  0  0  0
 21 23  1  0  0  0  0
 21 20  1  0  0  0  0
 22 19  1  6  0  0  0
 22 13  1  0  0  0  0
 24 23  1  6  0  0  0
 24 28  1  0  0  0  0
 25 27  2  0  0  0  0
 26 27  1  0  0  0  0
 27 24  1  0  0  0  0
 28 31  1  0  0  0  0
 30 32  1  0  0  0  0
 31 29  2  0  0  0  0
 31 30  1  0  0  0  0
 32 35  1  0  0  0  0
 34 35  1  0  0  0  0
 35 33  1  6  0  0  0
 37 38  2  0  0  0  0
 38 36  1  0  0  0  0
 40 42  2  0  0  0  0
 42 39  1  0  0  0  0
 42 41  1  0  0  0  0
M  END
>  <MODEL>
9

>  <REMARK>
 VINA RESULT:      -6.7      1.619      2.080
  Name = 
  11 active torsions:
  status: ('A' for Active; 'I' for Inactive)
    1  A    between atoms: C_3  and  N_18
    2  A    between atoms: C_3  and  C_40
    3  A    between atoms: C_4  and  C_13
    4  A    between atoms: C_13  and  C_33
    5  A    between atoms: N_14  and  C_32
    6  A    between atoms: C_20  and  C_30
    7  A    between atoms: C_20  and  C_38
    8  A    between atoms: C_24  and  C_38
    9  A    between atoms: C_25  and  C_34
   10  A    between atoms: C_32  and  C_38
   11  A    between atoms: C_35  and  C_39
                            x       y       z     vdW  Elec       q    Type
                         _______ _______ _______ _____ _____    ______ ____

>  <TORSDO>
F 11

$$$$
