=
 OpenBabel11062420283D

 53 57  0  0  1  0  0  0  0  0999 V2000
  188.6500  174.9150  141.2420 C   0  0  1  0  0  3  0  0  0  0  0  0
  188.5230  174.1410  142.3960 O   0  0  0  0  0  1  0  0  0  0  0  0
  188.4960  174.0410  140.0420 C   0  0  0  0  0  3  0  0  0  0  0  0
  189.4750  173.2750  139.5530 C   0  0  0  0  0  0  0  0  0  0  0  0
  190.7520  173.2430  140.1270 O   0  0  0  0  0  0  0  0  0  0  0  0
  190.1700  171.4340  141.4170 O   0  0  0  0  0  1  0  0  0  0  0  0
  191.2420  172.1020  140.8210 C   0  0  2  0  0  3  0  0  0  0  0  0
  192.2730  172.5240  141.8670 C   0  0  1  0  0  3  0  0  0  0  0  0
  192.7790  171.3000  142.6410 C   0  0  2  0  0  3  0  0  0  0  0  0
  192.6380  171.3920  144.1260 C   0  0  2  0  0  3  0  0  0  0  0  0
  192.0610  172.5950  144.5470 O   0  0  0  0  0  1  0  0  0  0  0  0
  193.8550  171.6660  143.4750 O   0  0  0  0  0  0  0  0  0  0  0  0
  193.4370  173.2010  141.1520 C   0  0  0  0  0  2  0  0  0  0  0  0
  194.0400  172.3230  140.2480 O   0  0  0  0  0  0  0  0  0  0  0  0
  194.9700  173.1080  139.5610 C   0  0  0  0  0  2  0  0  0  0  0  0
  195.7890  173.9310  140.5400 C   0  0  0  0  0  2  0  0  0  0  0  0
  196.2740  175.2060  139.8790 C   0  0  0  0  0  1  0  0  0  0  0  0
  189.1790  172.4200  138.4490 N   0  0  0  0  0  2  0  0  0  0  0  0
  190.0120  174.1420  136.9510 C   0  0  0  0  0  2  0  0  0  0  0  0
  190.6800  174.4740  134.6930 O   0  0  0  0  0  1  0  0  0  0  0  0
  189.7000  172.6730  137.1150 C   0  0  1  0  0  3  0  0  0  0  0  0
  191.1730  174.2090  135.9710 C   0  0  2  0  0  0  0  0  0  0  0  0
  191.0210  171.9620  136.9210 C   0  0  0  0  0  2  0  0  0  0  0  0
  191.8300  172.8360  135.9810 C   0  0  0  0  0  2  0  0  0  0  0  0
  193.0090  175.0900  137.4560 O   0  0  0  0  0  1  0  0  0  0  0  0
  192.1700  175.2650  136.3580 C   0  0  0  0  0  0  0  0  0  0  0  0
  192.2580  176.3230  135.6790 O   0  0  0  0  0  0  0  0  0  0  0  0
  187.5920  176.0060  141.2460 C   0  0  0  0  0  2  0  0  0  0  0  0
  187.2020  176.3430  142.6760 C   0  0  2  0  0  3  0  0  0  0  0  0
  185.8940  175.9250  142.9440 O   0  0  0  0  0  1  0  0  0  0  0  0
  187.3890  177.8380  142.9620 C   0  0  1  0  0  3  0  0  0  0  0  0
  186.1570  178.6920  142.6600 C   0  0  0  0  0  2  0  0  0  0  0  0
  184.2580  178.9530  144.2220 C   0  0  0  0  0  1  0  0  0  0  0  0
  185.6710  179.3980  143.9110 C   0  0  0  0  0  2  0  0  0  0  0  0
  187.8940  178.0700  144.3850 C   0  0  0  0  0  2  0  0  0  0  0  0
  188.8070  176.9520  144.8750 C   0  0  0  0  0  2  0  0  0  0  0  0
  191.1560  177.3590  144.1800 C   0  0  1  0  0  0  0  0  0  0  0  0
  190.8160  176.7120  146.4330 C   0  0  1  0  0  3  0  0  0  0  0  0
  191.7810  178.5040  143.6820 O   0  0  0  0  0  1  0  0  0  0  0  0
  192.1370  176.3190  144.6910 C   0  0  1  0  0  0  0  0  0  0  0  0
  191.6290  175.7240  145.8590 O   0  0  0  0  0  0  0  0  0  0  0  0
  190.1620  177.5120  145.3060 C   0  0  2  0  0  3  0  0  0  0  0  0
  191.3520  176.0450  143.4190 C   0  0  0  0  0  2  0  0  0  0  0  0
  194.3020  176.2840  145.9590 C   0  0  0  0  0  2  0  0  0  0  0  0
  193.6460  176.6490  144.6450 C   0  0  1  0  0  3  0  0  0  0  0  0
  195.0590  174.7090  144.4000 C   0  0  1  0  0  3  0  0  0  0  0  0
  194.8680  174.9480  145.8280 N   0  0  0  0  0  2  0  0  0  0  0  0
  194.4120  175.8400  143.6220 C   0  0  0  0  0  2  0  0  0  0  0  0
  196.5150  174.6170  144.0780 C   0  0  0  0  0  0  0  0  0  0  0  0
  197.1680  175.6510  143.7740 O   0  0  0  0  0  0  0  0  0  0  0  0
  197.1660  173.3540  144.1100 N   0  0  0  0  0  1  0  0  0  0  0  0
  189.7300  174.8480  147.5160 N   0  0  0  0  0  2  0  0  0  0  0  0
  189.8670  176.1180  147.4300 C   0  0  0  0  0  3  0  0  0  0  0  0
  1 28  1  0  0  0  0
  1  2  1  1  0  0  0
  3  1  1  0  0  0  0
  4  3  2  0  0  0  0
  4  5  1  0  0  0  0
  5  7  1  0  0  0  0
  7  6  1  1  0  0  0
  7  8  1  0  0  0  0
  8 13  1  6  0  0  0
  9  8  1  6  0  0  0
  9 12  1  0  0  0  0
  9 10  1  0  0  0  0
 10 11  1  6  0  0  0
 12 10  1  0  0  0  0
 14 13  1  0  0  0  0
 15 14  1  0  0  0  0
 15 16  1  0  0  0  0
 17 16  1  0  0  0  0
 18  4  1  0  0  0  0
 19 21  1  0  0  0  0
 21 18  1  1  0  0  0
 22 20  1  6  0  0  0
 22 24  1  0  0  0  0
 22 26  1  0  0  0  0
 22 19  1  0  0  0  0
 23 21  1  0  0  0  0
 24 23  1  0  0  0  0
 26 25  1  0  0  0  0
 27 26  2  0  0  0  0
 28 29  1  0  0  0  0
 29 30  1  6  0  0  0
 29 31  1  0  0  0  0
 31 32  1  1  0  0  0
 31 35  1  0  0  0  0
 32 34  1  0  0  0  0
 34 33  1  0  0  0  0
 35 36  1  0  0  0  0
 37 39  1  6  0  0  0
 37 40  1  0  0  0  0
 37 42  1  0  0  0  0
 38 53  1  6  0  0  0
 40 43  1  6  0  0  0
 40 41  1  0  0  0  0
 41 38  1  0  0  0  0
 42 36  1  6  0  0  0
 42 38  1  0  0  0  0
 43 37  1  0  0  0  0
 45 48  1  6  0  0  0
 45 40  1  0  0  0  0
 45 44  1  0  0  0  0
 46 49  1  1  0  0  0
 46 47  1  0  0  0  0
 47 44  1  0  0  0  0
 48 46  1  0  0  0  0
 49 51  1  0  0  0  0
 50 49  2  0  0  0  0
 53 52  2  0  0  0  0
M  END
>  <MODEL>
1

>  <REMARK>
 VINA RESULT:      -5.5      0.000      0.000
  Name = 
  23 active torsions:
  status: ('A' for Active; 'I' for Inactive)
    1  A    between atoms: C_2  and  C_28
    2  A    between atoms: C_4  and  C_37
    3  A    between atoms: C_4  and  C_42
    4  A    between atoms: C_7  and  C_21
    5  A    between atoms: C_9  and  C_10
    6  A    between atoms: C_9  and  C_31
    7  A    between atoms: C_9  and  C_52
    8  A    between atoms: C_13  and  C_19
    9  A    between atoms: C_13  and  C_37
   10  A    between atoms: C_14  and  C_33
   11  A    between atoms: C_15  and  C_46
   12  A    between atoms: C_17  and  N_23
   13  A    between atoms: O_18  and  C_26
   14  A    between atoms: O_18  and  C_31
   15  A    between atoms: C_19  and  C_48
   16  A    between atoms: N_23  and  C_30
   17  A    between atoms: C_25  and  C_26
   18  A    between atoms: C_27  and  C_38
   19  A    between atoms: C_30  and  O_47
   20  A    between atoms: C_33  and  C_37
   21  A    between atoms: C_34  and  C_35
   22  A    between atoms: C_38  and  C_42
   23  A    between atoms: O_47  and  C_52
                            x       y       z     vdW  Elec       q    Type
                         _______ _______ _______ _____ _____    ______ ____

>  <TORSDO>
F 23

$$$$
=
 OpenBabel11062420283D

 53 57  0  0  1  0  0  0  0  0999 V2000
  191.0600  171.4950  142.5370 C   0  0  1  0  0  3  0  0  0  0  0  0
  190.6620  170.1950  142.2260 O   0  0  0  0  0  1  0  0  0  0  0  0
  189.8620  172.3850  142.5670 C   0  0  0  0  0  3  0  0  0  0  0  0
  189.1470  172.7000  141.4830 C   0  0  0  0  0  0  0  0  0  0  0  0
  189.4800  172.2280  140.2080 O   0  0  0  0  0  0  0  0  0  0  0  0
  189.4160  173.7230  138.4650 O   0  0  0  0  0  1  0  0  0  0  0  0
  190.2640  172.9920  139.2990 C   0  0  2  0  0  3  0  0  0  0  0  0
  191.1710  172.0710  138.4840 C   0  0  1  0  0  3  0  0  0  0  0  0
  190.6380  171.9280  137.0510 C   0  0  2  0  0  3  0  0  0  0  0  0
  189.9190  170.6480  136.7720 C   0  0  2  0  0  3  0  0  0  0  0  0
  189.8610  169.7990  137.8830 O   0  0  0  0  0  1  0  0  0  0  0  0
  191.2640  170.8420  136.4070 O   0  0  0  0  0  0  0  0  0  0  0  0
  192.5710  172.6730  138.4560 C   0  0  0  0  0  2  0  0  0  0  0  0
  192.6700  173.6510  137.4630 O   0  0  0  0  0  0  0  0  0  0  0  0
  193.3390  174.7110  138.0780 C   0  0  0  0  0  2  0  0  0  0  0  0
  194.6840  174.9430  137.4100 C   0  0  0  0  0  2  0  0  0  0  0  0
  195.8030  174.3970  138.2750 C   0  0  0  0  0  1  0  0  0  0  0  0
  187.9730  173.4940  141.6540 N   0  0  0  0  0  2  0  0  0  0  0  0
  187.9710  175.7460  140.7440 C   0  0  0  0  0  2  0  0  0  0  0  0
  188.2650  178.0130  141.3980 O   0  0  0  0  0  1  0  0  0  0  0  0
  188.0370  174.9050  141.9970 C   0  0  1  0  0  3  0  0  0  0  0  0
  187.2920  177.0430  141.1540 C   0  0  2  0  0  0  0  0  0  0  0  0
  186.8250  175.3060  142.8080 C   0  0  0  0  0  2  0  0  0  0  0  0
  186.5390  176.7510  142.4430 C   0  0  0  0  0  2  0  0  0  0  0  0
  185.3170  178.4230  140.4130 O   0  0  0  0  0  1  0  0  0  0  0  0
  186.3430  177.5350  140.0980 C   0  0  0  0  0  0  0  0  0  0  0  0
  186.4760  177.1470  138.9060 O   0  0  0  0  0  0  0  0  0  0  0  0
  191.7610  171.5010  143.8850 C   0  0  0  0  0  2  0  0  0  0  0  0
  192.9810  172.4080  143.8300 C   0  0  2  0  0  3  0  0  0  0  0  0
  193.8480  172.0090  142.8070 O   0  0  0  0  0  1  0  0  0  0  0  0
  193.6930  172.4600  145.1870 C   0  0  1  0  0  3  0  0  0  0  0  0
  195.0840  171.8270  145.1890 C   0  0  0  0  0  2  0  0  0  0  0  0
  196.4510  169.8810  145.8620 C   0  0  0  0  0  1  0  0  0  0  0  0
  195.0740  170.5050  145.9320 C   0  0  0  0  0  2  0  0  0  0  0  0
  193.7250  173.8840  145.7400 C   0  0  0  0  0  2  0  0  0  0  0  0
  192.8630  174.8480  144.9340 C   0  0  0  0  0  2  0  0  0  0  0  0
  191.0260  175.0770  146.5880 C   0  0  1  0  0  0  0  0  0  0  0  0
  191.3510  176.8990  145.1090 C   0  0  1  0  0  3  0  0  0  0  0  0
  191.0410  175.0690  147.9840 O   0  0  0  0  0  1  0  0  0  0  0  0
  189.7460  175.6550  146.0100 C   0  0  1  0  0  0  0  0  0  0  0  0
  190.0480  176.4340  144.8790 O   0  0  0  0  0  0  0  0  0  0  0  0
  192.1240  175.8130  145.8590 C   0  0  2  0  0  3  0  0  0  0  0  0
  190.0230  174.1670  145.8750 C   0  0  0  0  0  2  0  0  0  0  0  0
  188.8440  177.6740  147.1950 C   0  0  0  0  0  2  0  0  0  0  0  0
  188.6730  176.1840  146.9870 C   0  0  1  0  0  3  0  0  0  0  0  0
  186.9020  177.4200  145.9110 C   0  0  1  0  0  3  0  0  0  0  0  0
  187.9550  178.3660  146.2720 N   0  0  0  0  0  2  0  0  0  0  0  0
  187.2590  176.0530  146.4640 C   0  0  0  0  0  2  0  0  0  0  0  0
  185.5860  177.8760  146.4500 C   0  0  0  0  0  0  0  0  0  0  0  0
  184.6070  177.0840  146.5000 O   0  0  0  0  0  0  0  0  0  0  0  0
  185.4350  179.2150  146.9050 N   0  0  0  0  0  1  0  0  0  0  0  0
  191.2840  177.5180  142.7770 N   0  0  0  0  0  2  0  0  0  0  0  0
  191.9870  177.3740  143.8380 C   0  0  0  0  0  3  0  0  0  0  0  0
  1  2  1  1  0  0  0
  1  3  1  0  0  0  0
  1 28  1  0  0  0  0
  4 18  1  0  0  0  0
  4  3  2  0  0  0  0
  5  4  1  0  0  0  0
  7  6  1  6  0  0  0
  7  5  1  0  0  0  0
  8 13  1  6  0  0  0
  8  7  1  0  0  0  0
  9  8  1  1  0  0  0
 10  9  1  0  0  0  0
 10 11  1  1  0  0  0
 12 10  1  0  0  0  0
 12  9  1  0  0  0  0
 14 15  1  0  0  0  0
 14 13  1  0  0  0  0
 16 15  1  0  0  0  0
 16 17  1  0  0  0  0
 19 22  1  0  0  0  0
 19 21  1  0  0  0  0
 21 18  1  6  0  0  0
 21 23  1  0  0  0  0
 22 20  1  1  0  0  0
 22 24  1  0  0  0  0
 24 23  1  0  0  0  0
 26 25  1  0  0  0  0
 26 22  1  0  0  0  0
 27 26  2  0  0  0  0
 29 30  1  6  0  0  0
 29 28  1  0  0  0  0
 29 31  1  0  0  0  0
 31 32  1  6  0  0  0
 31 35  1  0  0  0  0
 32 34  1  0  0  0  0
 33 34  1  0  0  0  0
 36 35  1  0  0  0  0
 37 39  1  1  0  0  0
 38 53  1  6  0  0  0
 38 42  1  0  0  0  0
 40 43  1  6  0  0  0
 40 37  1  0  0  0  0
 40 45  1  0  0  0  0
 41 38  1  0  0  0  0
 41 40  1  0  0  0  0
 42 36  1  6  0  0  0
 42 37  1  0  0  0  0
 43 37  1  0  0  0  0
 45 48  1  6  0  0  0
 45 44  1  0  0  0  0
 46 47  1  0  0  0  0
 46 49  1  1  0  0  0
 46 48  1  0  0  0  0
 47 44  1  0  0  0  0
 49 50  2  0  0  0  0
 49 51  1  0  0  0  0
 52 53  2  0  0  0  0
M  END
>  <MODEL>
2

>  <REMARK>
 VINA RESULT:      -5.3      2.552      6.969
  Name = 
  23 active torsions:
  status: ('A' for Active; 'I' for Inactive)
    1  A    between atoms: C_2  and  C_28
    2  A    between atoms: C_4  and  C_37
    3  A    between atoms: C_4  and  C_42
    4  A    between atoms: C_7  and  C_21
    5  A    between atoms: C_9  and  C_10
    6  A    between atoms: C_9  and  C_31
    7  A    between atoms: C_9  and  C_52
    8  A    between atoms: C_13  and  C_19
    9  A    between atoms: C_13  and  C_37
   10  A    between atoms: C_14  and  C_33
   11  A    between atoms: C_15  and  C_46
   12  A    between atoms: C_17  and  N_23
   13  A    between atoms: O_18  and  C_26
   14  A    between atoms: O_18  and  C_31
   15  A    between atoms: C_19  and  C_48
   16  A    between atoms: N_23  and  C_30
   17  A    between atoms: C_25  and  C_26
   18  A    between atoms: C_27  and  C_38
   19  A    between atoms: C_30  and  O_47
   20  A    between atoms: C_33  and  C_37
   21  A    between atoms: C_34  and  C_35
   22  A    between atoms: C_38  and  C_42
   23  A    between atoms: O_47  and  C_52
                            x       y       z     vdW  Elec       q    Type
                         _______ _______ _______ _____ _____    ______ ____

>  <TORSDO>
F 23

$$$$
=
 OpenBabel11062420283D

 53 57  0  0  1  0  0  0  0  0999 V2000
  191.7930  172.9250  142.0650 C   0  0  1  0  0  3  0  0  0  0  0  0
  191.6590  171.5410  141.9570 O   0  0  0  0  0  1  0  0  0  0  0  0
  190.4520  173.5640  141.9230 C   0  0  0  0  0  3  0  0  0  0  0  0
  189.8810  173.8340  140.7460 C   0  0  0  0  0  0  0  0  0  0  0  0
  190.5130  173.5520  139.5290 O   0  0  0  0  0  0  0  0  0  0  0  0
  190.1340  171.3470  139.0090 O   0  0  0  0  0  1  0  0  0  0  0  0
  189.9520  172.6610  138.5730 C   0  0  2  0  0  3  0  0  0  0  0  0
  190.6010  172.8780  137.2070 C   0  0  1  0  0  3  0  0  0  0  0  0
  189.6040  172.5540  136.0850 C   0  0  2  0  0  3  0  0  0  0  0  0
  189.9400  171.3430  135.2760 C   0  0  2  0  0  3  0  0  0  0  0  0
  191.1180  170.7150  135.6950 O   0  0  0  0  0  1  0  0  0  0  0  0
  190.2410  172.6420  134.8310 O   0  0  0  0  0  0  0  0  0  0  0  0
  191.0350  174.3360  137.1050 C   0  0  0  0  0  2  0  0  0  0  0  0
  192.4280  174.4410  137.1360 O   0  0  0  0  0  0  0  0  0  0  0  0
  192.7190  175.5250  136.3040 C   0  0  0  0  0  2  0  0  0  0  0  0
  193.9990  175.2640  135.5280 C   0  0  0  0  0  2  0  0  0  0  0  0
  195.2080  175.6020  136.3780 C   0  0  0  0  0  1  0  0  0  0  0  0
  188.5580  174.3710  140.7420 N   0  0  0  0  0  2  0  0  0  0  0  0
  187.6800  176.6350  140.7020 C   0  0  0  0  0  2  0  0  0  0  0  0
  187.2660  178.4920  142.1290 O   0  0  0  0  0  1  0  0  0  0  0  0
  188.1810  175.5050  141.5700 C   0  0  1  0  0  3  0  0  0  0  0  0
  186.6570  177.3800  141.5460 C   0  0  2  0  0  0  0  0  0  0  0  0
  187.0150  175.1420  142.4620 C   0  0  0  0  0  2  0  0  0  0  0  0
  186.2130  176.4190  142.6380 C   0  0  0  0  0  2  0  0  0  0  0  0
  185.3670  177.4810  139.3830 O   0  0  0  0  0  0  0  0  0  0  0  0
  185.4750  177.8210  140.7290 C   0  0  0  0  0  0  0  0  0  0  0  0
  184.5610  178.5020  141.2670 O   0  0  0  0  0  1  0  0  0  0  0  0
  192.4090  173.2720  143.4100 C   0  0  0  0  0  2  0  0  0  0  0  0
  192.9810  174.6800  143.3700 C   0  0  2  0  0  3  0  0  0  0  0  0
  193.5000  174.9670  142.1030 O   0  0  0  0  0  1  0  0  0  0  0  0
  194.0300  174.8820  144.4700 C   0  0  1  0  0  3  0  0  0  0  0  0
  195.0390  175.9920  144.1770 C   0  0  0  0  0  2  0  0  0  0  0  0
  196.8880  174.9610  142.9000 C   0  0  0  0  0  1  0  0  0  0  0  0
  196.4590  175.4660  144.2610 C   0  0  0  0  0  2  0  0  0  0  0  0
  193.3690  175.0730  145.8350 C   0  0  0  0  0  2  0  0  0  0  0  0
  192.3130  176.1720  145.8290 C   0  0  0  0  0  2  0  0  0  0  0  0
  189.8660  175.8020  145.6340 C   0  0  1  0  0  0  0  0  0  0  0  0
  190.6470  176.6440  147.7050 C   0  0  1  0  0  3  0  0  0  0  0  0
  189.1310  174.6420  145.3820 O   0  0  0  0  0  1  0  0  0  0  0  0
  189.0260  176.9270  146.2130 C   0  0  1  0  0  0  0  0  0  0  0  0
  189.7620  177.6080  147.1980 O   0  0  0  0  0  0  0  0  0  0  0  0
  191.0540  175.7150  146.5620 C   0  0  2  0  0  3  0  0  0  0  0  0
  189.5590  177.0450  144.7950 C   0  0  0  0  0  2  0  0  0  0  0  0
  187.0730  177.4280  147.7070 C   0  0  0  0  0  2  0  0  0  0  0  0
  187.5290  176.6580  146.4860 C   0  0  1  0  0  3  0  0  0  0  0  0
  186.0840  178.4890  145.8690 C   0  0  1  0  0  3  0  0  0  0  0  0
  186.4870  178.6840  147.2590 N   0  0  0  0  0  2  0  0  0  0  0  0
  186.6150  177.1510  145.3860 C   0  0  0  0  0  2  0  0  0  0  0  0
  184.5960  178.5370  145.7460 C   0  0  0  0  0  0  0  0  0  0  0  0
  183.8640  178.1780  146.7070 O   0  0  0  0  0  0  0  0  0  0  0  0
  184.0020  178.9860  144.5350 N   0  0  0  0  0  1  0  0  0  0  0  0
  191.5580  178.0260  149.4630 N   0  0  0  0  0  2  0  0  0  0  0  0
  191.7830  177.2900  148.4400 C   0  0  0  0  0  3  0  0  0  0  0  0
  1  2  1  1  0  0  0
  1 28  1  0  0  0  0
  3  1  1  0  0  0  0
  4  3  2  0  0  0  0
  5  4  1  0  0  0  0
  7  6  1  1  0  0  0
  7  5  1  0  0  0  0
  8 13  1  1  0  0  0
  8  7  1  0  0  0  0
  9  8  1  1  0  0  0
 10 11  1  1  0  0  0
 10  9  1  0  0  0  0
 12 10  1  0  0  0  0
 12  9  1  0  0  0  0
 13 14  1  0  0  0  0
 15 14  1  0  0  0  0
 16 15  1  0  0  0  0
 16 17  1  0  0  0  0
 18  4  1  0  0  0  0
 19 22  1  0  0  0  0
 19 21  1  0  0  0  0
 21 18  1  6  0  0  0
 21 23  1  0  0  0  0
 22 20  1  1  0  0  0
 22 24  1  0  0  0  0
 23 24  1  0  0  0  0
 25 26  2  0  0  0  0
 26 27  1  0  0  0  0
 26 22  1  0  0  0  0
 29 30  1  6  0  0  0
 29 28  1  0  0  0  0
 29 31  1  0  0  0  0
 31 32  1  6  0  0  0
 31 35  1  0  0  0  0
 32 34  1  0  0  0  0
 33 34  1  0  0  0  0
 36 35  1  0  0  0  0
 37 39  1  6  0  0  0
 37 40  1  0  0  0  0
 37 42  1  0  0  0  0
 38 53  1  6  0  0  0
 40 43  1  6  0  0  0
 40 45  1  0  0  0  0
 40 41  1  0  0  0  0
 41 38  1  0  0  0  0
 42 36  1  6  0  0  0
 42 38  1  0  0  0  0
 43 37  1  0  0  0  0
 45 48  1  6  0  0  0
 45 44  1  0  0  0  0
 46 49  1  1  0  0  0
 46 47  1  0  0  0  0
 47 44  1  0  0  0  0
 48 46  1  0  0  0  0
 49 50  2  0  0  0  0
 51 49  1  0  0  0  0
 53 52  2  0  0  0  0
M  END
>  <MODEL>
3

>  <REMARK>
 VINA RESULT:      -5.3      2.530      7.159
  Name = 
  23 active torsions:
  status: ('A' for Active; 'I' for Inactive)
    1  A    between atoms: C_2  and  C_28
    2  A    between atoms: C_4  and  C_37
    3  A    between atoms: C_4  and  C_42
    4  A    between atoms: C_7  and  C_21
    5  A    between atoms: C_9  and  C_10
    6  A    between atoms: C_9  and  C_31
    7  A    between atoms: C_9  and  C_52
    8  A    between atoms: C_13  and  C_19
    9  A    between atoms: C_13  and  C_37
   10  A    between atoms: C_14  and  C_33
   11  A    between atoms: C_15  and  C_46
   12  A    between atoms: C_17  and  N_23
   13  A    between atoms: O_18  and  C_26
   14  A    between atoms: O_18  and  C_31
   15  A    between atoms: C_19  and  C_48
   16  A    between atoms: N_23  and  C_30
   17  A    between atoms: C_25  and  C_26
   18  A    between atoms: C_27  and  C_38
   19  A    between atoms: C_30  and  O_47
   20  A    between atoms: C_33  and  C_37
   21  A    between atoms: C_34  and  C_35
   22  A    between atoms: C_38  and  C_42
   23  A    between atoms: O_47  and  C_52
                            x       y       z     vdW  Elec       q    Type
                         _______ _______ _______ _____ _____    ______ ____

>  <TORSDO>
F 23

$$$$
=
 OpenBabel11062420283D

 53 57  0  0  1  0  0  0  0  0999 V2000
  191.0510  176.9180  144.7770 C   0  0  1  0  0  3  0  0  0  0  0  0
  191.4280  176.3470  143.5620 O   0  0  0  0  0  1  0  0  0  0  0  0
  189.7020  176.4110  145.1640 C   0  0  0  0  0  3  0  0  0  0  0  0
  188.5640  176.8340  144.6060 C   0  0  0  0  0  0  0  0  0  0  0  0
  188.5430  177.8170  143.6090 O   0  0  0  0  0  0  0  0  0  0  0  0
  189.1580  178.6750  141.5690 O   0  0  0  0  0  1  0  0  0  0  0  0
  188.7780  177.5110  142.2390 C   0  0  2  0  0  3  0  0  0  0  0  0
  187.5230  176.9050  141.6130 C   0  0  1  0  0  3  0  0  0  0  0  0
  186.9940  177.8120  140.4930 C   0  0  2  0  0  3  0  0  0  0  0  0
  185.5490  178.1750  140.6070 C   0  0  2  0  0  3  0  0  0  0  0  0
  184.9310  177.6150  141.7300 O   0  0  0  0  0  1  0  0  0  0  0  0
  185.9930  177.1430  139.7600 O   0  0  0  0  0  0  0  0  0  0  0  0
  187.8790  175.5360  141.0440 C   0  0  0  0  0  2  0  0  0  0  0  0
  187.9190  174.5740  142.0570 O   0  0  0  0  0  0  0  0  0  0  0  0
  188.0250  173.3560  141.3810 C   0  0  0  0  0  2  0  0  0  0  0  0
  188.8890  173.5160  140.1420 C   0  0  0  0  0  2  0  0  0  0  0  0
  188.4830  172.5080  139.0840 C   0  0  0  0  0  1  0  0  0  0  0  0
  187.3420  176.2120  145.0040 N   0  0  0  0  0  2  0  0  0  0  0  0
  186.4430  177.3020  146.9790 C   0  0  0  0  0  2  0  0  0  0  0  0
  184.4800  178.3870  147.7700 O   0  0  0  0  0  1  0  0  0  0  0  0
  186.2180  176.9760  145.5220 C   0  0  1  0  0  3  0  0  0  0  0  0
  185.7380  178.6290  147.2170 C   0  0  2  0  0  0  0  0  0  0  0  0
  186.1260  178.3150  144.8240 C   0  0  0  0  0  2  0  0  0  0  0  0
  185.5710  179.2830  145.8530 C   0  0  0  0  0  2  0  0  0  0  0  0
  187.6770  179.0640  148.7670 O   0  0  0  0  0  1  0  0  0  0  0  0
  186.5280  179.5240  148.1300 C   0  0  0  0  0  0  0  0  0  0  0  0
  186.1540  180.7140  148.3180 O   0  0  0  0  0  0  0  0  0  0  0  0
  192.0770  176.5660  145.8410 C   0  0  0  0  0  2  0  0  0  0  0  0
  191.8710  175.1340  146.3060 C   0  0  2  0  0  3  0  0  0  0  0  0
  191.6210  175.0900  147.6820 O   0  0  0  0  0  1  0  0  0  0  0  0
  193.0640  174.2500  145.9190 C   0  0  1  0  0  3  0  0  0  0  0  0
  192.6870  173.0070  145.1130 C   0  0  0  0  0  2  0  0  0  0  0  0
  191.0660  172.8140  143.2560 C   0  0  0  0  0  1  0  0  0  0  0  0
  191.2150  173.0280  144.7470 C   0  0  0  0  0  2  0  0  0  0  0  0
  194.1500  175.0640  145.2180 C   0  0  0  0  0  2  0  0  0  0  0  0
  194.7380  174.3440  144.0100 C   0  0  0  0  0  2  0  0  0  0  0  0
  194.0440  174.3390  141.6270 C   0  0  1  0  0  0  0  0  0  0  0  0
  195.9190  175.6760  142.1800 C   0  0  1  0  0  3  0  0  0  0  0  0
  192.8450  174.7200  141.0190 O   0  0  0  0  0  1  0  0  0  0  0  0
  195.2010  174.2350  140.6490 C   0  0  1  0  0  0  0  0  0  0  0  0
  196.3720  174.7300  141.2490 O   0  0  0  0  0  0  0  0  0  0  0  0
  194.5850  175.1920  142.7490 C   0  0  2  0  0  3  0  0  0  0  0  0
  194.6280  172.9710  141.2680 C   0  0  0  0  0  2  0  0  0  0  0  0
  196.1990  175.1540  138.5370 C   0  0  0  0  0  2  0  0  0  0  0  0
  194.9430  174.5890  139.1670 C   0  0  1  0  0  3  0  0  0  0  0  0
  195.9130  173.0220  137.6100 C   0  0  1  0  0  3  0  0  0  0  0  0
  196.9020  174.0650  137.8730 N   0  0  0  0  0  2  0  0  0  0  0  0
  194.6150  173.3890  138.3060 C   0  0  0  0  0  2  0  0  0  0  0  0
  195.6950  172.8710  136.1400 C   0  0  0  0  0  0  0  0  0  0  0  0
  196.4240  172.0990  135.4620 O   0  0  0  0  0  0  0  0  0  0  0  0
  194.6590  173.6060  135.5020 N   0  0  0  0  0  1  0  0  0  0  0  0
  197.5470  177.1270  143.2150 N   0  0  0  0  0  2  0  0  0  0  0  0
  196.9760  175.9810  143.1980 C   0  0  0  0  0  3  0  0  0  0  0  0
  1  2  1  6  0  0  0
  1  3  1  0  0  0  0
  1 28  1  0  0  0  0
  4 18  1  0  0  0  0
  4  3  2  0  0  0  0
  5  4  1  0  0  0  0
  7  6  1  6  0  0  0
  7  5  1  0  0  0  0
  8 13  1  6  0  0  0
  8  7  1  0  0  0  0
  9 10  1  0  0  0  0
  9  8  1  1  0  0  0
 10 11  1  1  0  0  0
 12  9  1  0  0  0  0
 12 10  1  0  0  0  0
 13 14  1  0  0  0  0
 15 14  1  0  0  0  0
 16 15  1  0  0  0  0
 17 16  1  0  0  0  0
 19 22  1  0  0  0  0
 21 18  1  6  0  0  0
 21 19  1  0  0  0  0
 22 20  1  1  0  0  0
 22 26  1  0  0  0  0
 23 21  1  0  0  0  0
 23 24  1  0  0  0  0
 24 22  1  0  0  0  0
 26 27  2  0  0  0  0
 26 25  1  0  0  0  0
 28 29  1  0  0  0  0
 29 30  1  1  0  0  0
 31 32  1  6  0  0  0
 31 29  1  0  0  0  0
 33 34  1  0  0  0  0
 34 32  1  0  0  0  0
 35 31  1  0  0  0  0
 36 35  1  0  0  0  0
 37 39  1  6  0  0  0
 37 42  1  0  0  0  0
 38 42  1  0  0  0  0
 38 53  1  1  0  0  0
 40 41  1  0  0  0  0
 40 43  1  6  0  0  0
 40 37  1  0  0  0  0
 41 38  1  0  0  0  0
 42 36  1  1  0  0  0
 43 37  1  0  0  0  0
 44 45  1  0  0  0  0
 45 48  1  6  0  0  0
 45 40  1  0  0  0  0
 46 49  1  6  0  0  0
 46 47  1  0  0  0  0
 46 48  1  0  0  0  0
 47 44  1  0  0  0  0
 50 49  2  0  0  0  0
 51 49  1  0  0  0  0
 53 52  2  0  0  0  0
M  END
>  <MODEL>
4

>  <REMARK>
 VINA RESULT:      -5.2      2.897      8.520
  Name = 
  23 active torsions:
  status: ('A' for Active; 'I' for Inactive)
    1  A    between atoms: C_2  and  C_28
    2  A    between atoms: C_4  and  C_37
    3  A    between atoms: C_4  and  C_42
    4  A    between atoms: C_7  and  C_21
    5  A    between atoms: C_9  and  C_10
    6  A    between atoms: C_9  and  C_31
    7  A    between atoms: C_9  and  C_52
    8  A    between atoms: C_13  and  C_19
    9  A    between atoms: C_13  and  C_37
   10  A    between atoms: C_14  and  C_33
   11  A    between atoms: C_15  and  C_46
   12  A    between atoms: C_17  and  N_23
   13  A    between atoms: O_18  and  C_26
   14  A    between atoms: O_18  and  C_31
   15  A    between atoms: C_19  and  C_48
   16  A    between atoms: N_23  and  C_30
   17  A    between atoms: C_25  and  C_26
   18  A    between atoms: C_27  and  C_38
   19  A    between atoms: C_30  and  O_47
   20  A    between atoms: C_33  and  C_37
   21  A    between atoms: C_34  and  C_35
   22  A    between atoms: C_38  and  C_42
   23  A    between atoms: O_47  and  C_52
                            x       y       z     vdW  Elec       q    Type
                         _______ _______ _______ _____ _____    ______ ____

>  <TORSDO>
F 23

$$$$
=
 OpenBabel11062420283D

 53 57  0  0  1  0  0  0  0  0999 V2000
  187.5710  175.4550  140.6680 C   0  0  1  0  0  3  0  0  0  0  0  0
  187.7120  175.6680  139.2970 O   0  0  0  0  0  1  0  0  0  0  0  0
  188.8880  175.0540  141.2440 C   0  0  0  0  0  3  0  0  0  0  0  0
  189.5450  173.9470  140.8870 C   0  0  0  0  0  0  0  0  0  0  0  0
  189.0340  173.0490  139.9420 O   0  0  0  0  0  0  0  0  0  0  0  0
  188.5010  172.7880  137.7230 O   0  0  0  0  0  1  0  0  0  0  0  0
  189.5560  172.9620  138.6210 C   0  0  2  0  0  3  0  0  0  0  0  0
  190.5520  171.8070  138.5240 C   0  0  1  0  0  3  0  0  0  0  0  0
  189.8860  170.5800  137.8860 C   0  0  2  0  0  3  0  0  0  0  0  0
  190.1250  169.2900  138.6020 C   0  0  2  0  0  3  0  0  0  0  0  0
  190.9240  169.4370  139.7410 O   0  0  0  0  0  1  0  0  0  0  0  0
  190.8680  169.6600  137.4650 O   0  0  0  0  0  0  0  0  0  0  0  0
  191.7310  172.2570  137.6700 C   0  0  0  0  0  2  0  0  0  0  0  0
  192.9270  172.1570  138.3850 O   0  0  0  0  0  0  0  0  0  0  0  0
  193.7300  173.1800  137.8750 C   0  0  0  0  0  2  0  0  0  0  0  0
  193.3000  174.5200  138.4460 C   0  0  0  0  0  2  0  0  0  0  0  0
  193.9020  174.7230  139.8230 C   0  0  0  0  0  1  0  0  0  0  0  0
  190.8360  173.7150  141.4500 N   0  0  0  0  0  2  0  0  0  0  0  0
  192.5240  172.0160  141.8570 C   0  0  0  0  0  2  0  0  0  0  0  0
  192.8530  169.9650  143.0140 O   0  0  0  0  0  1  0  0  0  0  0  0
  191.1430  172.5150  142.2120 C   0  0  1  0  0  3  0  0  0  0  0  0
  193.0540  171.3420  143.1130 C   0  0  2  0  0  0  0  0  0  0  0  0
  191.2020  172.8310  143.6900 C   0  0  0  0  0  2  0  0  0  0  0  0
  192.2370  171.8870  144.2760 C   0  0  0  0  0  2  0  0  0  0  0  0
  195.2220  172.4370  142.4420 O   0  0  0  0  0  0  0  0  0  0  0  0
  194.5140  171.6260  143.3260 C   0  0  0  0  0  0  0  0  0  0  0  0
  195.1100  171.1330  144.3210 O   0  0  0  0  0  1  0  0  0  0  0  0
  187.0660  176.7280  141.3290 C   0  0  0  0  0  2  0  0  0  0  0  0
  186.9830  176.5310  142.8340 C   0  0  2  0  0  3  0  0  0  0  0  0
  186.0440  175.5440  143.1540 O   0  0  0  0  0  1  0  0  0  0  0  0
  186.6790  177.8540  143.5480 C   0  0  1  0  0  3  0  0  0  0  0  0
  185.2690  177.9390  144.1340 C   0  0  0  0  0  2  0  0  0  0  0  0
  185.0070  176.9130  146.3680 C   0  0  0  0  0  1  0  0  0  0  0  0
  185.3210  178.1950  145.6280 C   0  0  0  0  0  2  0  0  0  0  0  0
  187.7420  178.1720  144.5990 C   0  0  0  0  0  2  0  0  0  0  0  0
  188.7340  177.0330  144.7960 C   0  0  0  0  0  2  0  0  0  0  0  0
  191.0950  177.5700  144.2440 C   0  0  1  0  0  0  0  0  0  0  0  0
  190.6940  176.6390  146.3850 C   0  0  1  0  0  3  0  0  0  0  0  0
  191.7080  178.7820  143.9180 O   0  0  0  0  0  1  0  0  0  0  0  0
  192.0830  176.4940  144.6580 C   0  0  1  0  0  0  0  0  0  0  0  0
  191.5500  175.7470  145.7230 O   0  0  0  0  0  0  0  0  0  0  0  0
  190.0590  177.5600  145.3430 C   0  0  2  0  0  3  0  0  0  0  0  0
  191.3490  176.3670  143.3330 C   0  0  0  0  0  2  0  0  0  0  0  0
  194.1140  176.6960  146.1180 C   0  0  0  0  0  2  0  0  0  0  0  0
  193.5840  176.8580  144.7090 C   0  0  1  0  0  3  0  0  0  0  0  0
  195.0440  174.9440  144.8740 C   0  0  1  0  0  3  0  0  0  0  0  0
  194.7100  175.3710  146.2290 N   0  0  0  0  0  2  0  0  0  0  0  0
  194.4590  175.9370  143.8870 C   0  0  0  0  0  2  0  0  0  0  0  0
  196.5250  174.8500  144.7070 C   0  0  0  0  0  0  0  0  0  0  0  0
  197.1140  175.5340  143.8280 O   0  0  0  0  0  0  0  0  0  0  0  0
  197.2750  173.9780  145.5440 N   0  0  0  0  0  1  0  0  0  0  0  0
  189.5620  174.6420  147.1330 N   0  0  0  0  0  2  0  0  0  0  0  0
  189.7260  175.9050  147.2640 C   0  0  0  0  0  3  0  0  0  0  0  0
  1  2  1  6  0  0  0
  1  3  1  0  0  0  0
  1 28  1  0  0  0  0
  4  3  2  0  0  0  0
  4 18  1  0  0  0  0
  5  4  1  0  0  0  0
  7  6  1  6  0  0  0
  7  5  1  0  0  0  0
  8 13  1  6  0  0  0
  8  7  1  0  0  0  0
  9  8  1  1  0  0  0
  9 10  1  0  0  0  0
 10 11  1  1  0  0  0
 12  9  1  0  0  0  0
 12 10  1  0  0  0  0
 13 14  1  0  0  0  0
 15 14  1  0  0  0  0
 15 16  1  0  0  0  0
 16 17  1  0  0  0  0
 19 21  1  0  0  0  0
 19 22  1  0  0  0  0
 21 18  1  6  0  0  0
 21 23  1  0  0  0  0
 22 20  1  6  0  0  0
 22 26  1  0  0  0  0
 22 24  1  0  0  0  0
 23 24  1  0  0  0  0
 25 26  2  0  0  0  0
 26 27  1  0  0  0  0
 28 29  1  0  0  0  0
 29 30  1  6  0  0  0
 29 31  1  0  0  0  0
 31 32  1  1  0  0  0
 31 35  1  0  0  0  0
 32 34  1  0  0  0  0
 34 33  1  0  0  0  0
 35 36  1  0  0  0  0
 37 39  1  6  0  0  0
 37 40  1  0  0  0  0
 37 42  1  0  0  0  0
 38 53  1  6  0  0  0
 40 43  1  6  0  0  0
 40 45  1  0  0  0  0
 40 41  1  0  0  0  0
 41 38  1  0  0  0  0
 42 36  1  6  0  0  0
 42 38  1  0  0  0  0
 43 37  1  0  0  0  0
 44 47  1  0  0  0  0
 45 48  1  6  0  0  0
 45 44  1  0  0  0  0
 46 49  1  1  0  0  0
 46 47  1  0  0  0  0
 48 46  1  0  0  0  0
 49 51  1  0  0  0  0
 50 49  2  0  0  0  0
 52 53  2  0  0  0  0
M  END
>  <MODEL>
5

>  <REMARK>
 VINA RESULT:      -5.1      1.731      4.003
  Name = 
  23 active torsions:
  status: ('A' for Active; 'I' for Inactive)
    1  A    between atoms: C_2  and  C_28
    2  A    between atoms: C_4  and  C_37
    3  A    between atoms: C_4  and  C_42
    4  A    between atoms: C_7  and  C_21
    5  A    between atoms: C_9  and  C_10
    6  A    between atoms: C_9  and  C_31
    7  A    between atoms: C_9  and  C_52
    8  A    between atoms: C_13  and  C_19
    9  A    between atoms: C_13  and  C_37
   10  A    between atoms: C_14  and  C_33
   11  A    between atoms: C_15  and  C_46
   12  A    between atoms: C_17  and  N_23
   13  A    between atoms: O_18  and  C_26
   14  A    between atoms: O_18  and  C_31
   15  A    between atoms: C_19  and  C_48
   16  A    between atoms: N_23  and  C_30
   17  A    between atoms: C_25  and  C_26
   18  A    between atoms: C_27  and  C_38
   19  A    between atoms: C_30  and  O_47
   20  A    between atoms: C_33  and  C_37
   21  A    between atoms: C_34  and  C_35
   22  A    between atoms: C_38  and  C_42
   23  A    between atoms: O_47  and  C_52
                            x       y       z     vdW  Elec       q    Type
                         _______ _______ _______ _____ _____    ______ ____

>  <TORSDO>
F 23

$$$$
=
 OpenBabel11062420283D

 53 57  0  0  1  0  0  0  0  0999 V2000
  188.7160  174.9420  141.7760 C   0  0  1  0  0  3  0  0  0  0  0  0
  188.2080  174.1170  142.7800 O   0  0  0  0  0  1  0  0  0  0  0  0
  188.5720  174.2600  140.4560 C   0  0  0  0  0  3  0  0  0  0  0  0
  189.3730  173.2760  140.0400 C   0  0  0  0  0  0  0  0  0  0  0  0
  190.4430  172.8090  140.8130 O   0  0  0  0  0  0  0  0  0  0  0  0
  190.1500  170.8510  141.9790 O   0  0  0  0  0  1  0  0  0  0  0  0
  190.7850  171.4290  140.8780 C   0  0  2  0  0  3  0  0  0  0  0  0
  192.3010  171.2670  140.9750 C   0  0  1  0  0  3  0  0  0  0  0  0
  192.9820  172.6410  141.0370 C   0  0  2  0  0  3  0  0  0  0  0  0
  193.9140  172.9330  139.9060 C   0  0  2  0  0  3  0  0  0  0  0  0
  193.9980  171.8860  138.9820 O   0  0  0  0  0  1  0  0  0  0  0  0
  194.3780  172.4850  141.1570 O   0  0  0  0  0  0  0  0  0  0  0  0
  192.6220  170.4740  142.2360 C   0  0  0  0  0  2  0  0  0  0  0  0
  193.2020  169.2440  141.9140 O   0  0  0  0  0  0  0  0  0  0  0  0
  193.9290  168.8880  143.0530 C   0  0  0  0  0  2  0  0  0  0  0  0
  193.2470  169.4210  144.3010 C   0  0  0  0  0  2  0  0  0  0  0  0
  194.2390  169.5190  145.4420 C   0  0  0  0  0  1  0  0  0  0  0  0
  189.0810  172.6470  138.7920 N   0  0  0  0  0  2  0  0  0  0  0  0
  190.7630  173.8770  137.5440 C   0  0  0  0  0  2  0  0  0  0  0  0
  191.0700  175.0440  135.4940 O   0  0  0  0  0  1  0  0  0  0  0  0
  189.3740  173.2840  137.5180 C   0  0  1  0  0  3  0  0  0  0  0  0
  191.2660  173.8070  136.1100 C   0  0  2  0  0  0  0  0  0  0  0  0
  189.4010  172.2560  136.4090 C   0  0  0  0  0  2  0  0  0  0  0  0
  190.4240  172.7550  135.4050 C   0  0  0  0  0  2  0  0  0  0  0  0
  193.6970  174.2690  136.5920 O   0  0  0  0  0  1  0  0  0  0  0  0
  192.7210  173.4370  136.0470 C   0  0  0  0  0  0  0  0  0  0  0  0
  193.0700  172.3550  135.5020 O   0  0  0  0  0  0  0  0  0  0  0  0
  187.9650  176.2630  141.7780 C   0  0  0  0  0  2  0  0  0  0  0  0
  187.1150  176.3730  143.0340 C   0  0  2  0  0  3  0  0  0  0  0  0
  185.7540  176.3850  142.7110 O   0  0  0  0  0  1  0  0  0  0  0  0
  187.5110  177.6020  143.8630 C   0  0  1  0  0  3  0  0  0  0  0  0
  186.4410  178.6930  143.9130 C   0  0  0  0  0  2  0  0  0  0  0  0
  184.4150  178.7570  145.3270 C   0  0  0  0  0  1  0  0  0  0  0  0
  185.9240  178.8750  145.3270 C   0  0  0  0  0  2  0  0  0  0  0  0
  187.9660  177.1990  145.2650 C   0  0  0  0  0  2  0  0  0  0  0  0
  189.1830  176.2820  145.2480 C   0  0  0  0  0  2  0  0  0  0  0  0
  191.2680  176.8140  144.0100 C   0  0  1  0  0  0  0  0  0  0  0  0
  191.4430  176.6780  146.3680 C   0  0  1  0  0  3  0  0  0  0  0  0
  191.5890  177.8810  143.1680 O   0  0  0  0  0  1  0  0  0  0  0  0
  192.4890  176.0600  144.5080 C   0  0  1  0  0  0  0  0  0  0  0  0
  192.3020  175.6960  145.8530 O   0  0  0  0  0  0  0  0  0  0  0  0
  190.4740  177.0980  145.2620 C   0  0  2  0  0  3  0  0  0  0  0  0
  191.5530  175.3950  143.5120 C   0  0  0  0  0  2  0  0  0  0  0  0
  194.8720  176.3930  145.2170 C   0  0  0  0  0  2  0  0  0  0  0  0
  193.8860  176.5630  144.0820 C   0  0  1  0  0  3  0  0  0  0  0  0
  195.4550  174.7910  143.6100 C   0  0  1  0  0  3  0  0  0  0  0  0
  195.5690  175.1270  145.0270 N   0  0  0  0  0  2  0  0  0  0  0  0
  194.4970  175.7660  142.9500 C   0  0  0  0  0  2  0  0  0  0  0  0
  196.7950  174.8470  142.9530 C   0  0  0  0  0  0  0  0  0  0  0  0
  197.8410  174.9730  143.6430 O   0  0  0  0  0  0  0  0  0  0  0  0
  196.8890  174.7610  141.5360 N   0  0  0  0  0  1  0  0  0  0  0  0
  191.3020  175.2450  148.3060 N   0  0  0  0  0  2  0  0  0  0  0  0
  190.7990  176.2180  147.6410 C   0  0  0  0  0  3  0  0  0  0  0  0
  1 28  1  0  0  0  0
  1  2  1  1  0  0  0
  3  1  1  0  0  0  0
  4  3  2  0  0  0  0
  4  5  1  0  0  0  0
  5  7  1  0  0  0  0
  7  8  1  0  0  0  0
  7  6  1  1  0  0  0
  8 13  1  1  0  0  0
  9  8  1  6  0  0  0
  9 12  1  0  0  0  0
 10 11  1  6  0  0  0
 10  9  1  0  0  0  0
 10 12  1  0  0  0  0
 14 13  1  0  0  0  0
 14 15  1  0  0  0  0
 15 16  1  0  0  0  0
 16 17  1  0  0  0  0
 18  4  1  0  0  0  0
 21 19  1  0  0  0  0
 21 18  1  1  0  0  0
 22 20  1  6  0  0  0
 22 19  1  0  0  0  0
 23 21  1  0  0  0  0
 24 22  1  0  0  0  0
 24 23  1  0  0  0  0
 26 22  1  0  0  0  0
 26 25  1  0  0  0  0
 27 26  2  0  0  0  0
 28 29  1  0  0  0  0
 29 30  1  6  0  0  0
 29 31  1  0  0  0  0
 31 32  1  1  0  0  0
 31 35  1  0  0  0  0
 32 34  1  0  0  0  0
 33 34  1  0  0  0  0
 36 35  1  0  0  0  0
 37 39  1  6  0  0  0
 37 40  1  0  0  0  0
 37 42  1  0  0  0  0
 38 53  1  1  0  0  0
 40 43  1  6  0  0  0
 40 41  1  0  0  0  0
 41 38  1  0  0  0  0
 42 36  1  6  0  0  0
 42 38  1  0  0  0  0
 43 37  1  0  0  0  0
 45 48  1  6  0  0  0
 45 40  1  0  0  0  0
 45 44  1  0  0  0  0
 46 49  1  6  0  0  0
 46 47  1  0  0  0  0
 47 44  1  0  0  0  0
 48 46  1  0  0  0  0
 49 50  2  0  0  0  0
 51 49  1  0  0  0  0
 53 52  2  0  0  0  0
M  END
>  <MODEL>
6

>  <REMARK>
 VINA RESULT:      -5.1      1.290      2.365
  Name = 
  23 active torsions:
  status: ('A' for Active; 'I' for Inactive)
    1  A    between atoms: C_2  and  C_28
    2  A    between atoms: C_4  and  C_37
    3  A    between atoms: C_4  and  C_42
    4  A    between atoms: C_7  and  C_21
    5  A    between atoms: C_9  and  C_10
    6  A    between atoms: C_9  and  C_31
    7  A    between atoms: C_9  and  C_52
    8  A    between atoms: C_13  and  C_19
    9  A    between atoms: C_13  and  C_37
   10  A    between atoms: C_14  and  C_33
   11  A    between atoms: C_15  and  C_46
   12  A    between atoms: C_17  and  N_23
   13  A    between atoms: O_18  and  C_26
   14  A    between atoms: O_18  and  C_31
   15  A    between atoms: C_19  and  C_48
   16  A    between atoms: N_23  and  C_30
   17  A    between atoms: C_25  and  C_26
   18  A    between atoms: C_27  and  C_38
   19  A    between atoms: C_30  and  O_47
   20  A    between atoms: C_33  and  C_37
   21  A    between atoms: C_34  and  C_35
   22  A    between atoms: C_38  and  C_42
   23  A    between atoms: O_47  and  C_52
                            x       y       z     vdW  Elec       q    Type
                         _______ _______ _______ _____ _____    ______ ____

>  <TORSDO>
F 23

$$$$
=
 OpenBabel11062420283D

 53 57  0  0  1  0  0  0  0  0999 V2000
  191.2240  171.4560  142.4050 C   0  0  1  0  0  3  0  0  0  0  0  0
  190.7260  170.1620  142.2520 O   0  0  0  0  0  1  0  0  0  0  0  0
  190.1400  172.4400  142.1160 C   0  0  0  0  0  3  0  0  0  0  0  0
  189.9510  173.0040  140.9200 C   0  0  0  0  0  0  0  0  0  0  0  0
  190.7810  172.7270  139.8270 O   0  0  0  0  0  0  0  0  0  0  0  0
  192.1800  174.4160  140.5100 O   0  0  0  0  0  1  0  0  0  0  0  0
  192.0890  173.2750  139.7110 C   0  0  2  0  0  3  0  0  0  0  0  0
  192.3940  173.6040  138.2500 C   0  0  1  0  0  3  0  0  0  0  0  0
  193.8320  174.1220  138.1090 C   0  0  2  0  0  3  0  0  0  0  0  0
  193.9870  175.3140  137.2220 C   0  0  2  0  0  3  0  0  0  0  0  0
  192.7760  175.7490  136.6730 O   0  0  0  0  0  1  0  0  0  0  0  0
  194.2580  174.0090  136.7700 O   0  0  0  0  0  0  0  0  0  0  0  0
  192.2180  172.3370  137.4220 C   0  0  0  0  0  2  0  0  0  0  0  0
  191.3350  172.5570  136.3620 O   0  0  0  0  0  0  0  0  0  0  0  0
  190.2460  171.7240  136.6320 C   0  0  0  0  0  2  0  0  0  0  0  0
  190.7280  170.3360  137.0190 C   0  0  0  0  0  2  0  0  0  0  0  0
  189.6950  169.6430  137.8850 C   0  0  0  0  0  1  0  0  0  0  0  0
  188.8280  173.8680  140.7480 N   0  0  0  0  0  2  0  0  0  0  0  0
  188.1500  176.1980  140.8460 C   0  0  0  0  0  2  0  0  0  0  0  0
  187.9250  178.0040  142.3770 O   0  0  0  0  0  1  0  0  0  0  0  0
  188.5660  174.9840  141.6430 C   0  0  1  0  0  3  0  0  0  0  0  0
  187.2110  176.9820  141.7500 C   0  0  2  0  0  0  0  0  0  0  0  0
  187.3890  174.6750  142.5410 C   0  0  0  0  0  2  0  0  0  0  0  0
  186.7050  176.0050  142.8010 C   0  0  0  0  0  2  0  0  0  0  0  0
  184.9870  178.1620  141.6470 O   0  0  0  0  0  1  0  0  0  0  0  0
  186.0580  177.5660  140.9850 C   0  0  0  0  0  0  0  0  0  0  0  0
  186.0570  177.5270  139.7250 O   0  0  0  0  0  0  0  0  0  0  0  0
  191.7430  171.6350  143.8220 C   0  0  0  0  0  2  0  0  0  0  0  0
  193.0470  172.4160  143.8000 C   0  0  2  0  0  3  0  0  0  0  0  0
  193.9270  171.8840  142.8510 O   0  0  0  0  0  1  0  0  0  0  0  0
  193.6830  172.4690  145.1950 C   0  0  1  0  0  3  0  0  0  0  0  0
  195.2040  172.3170  145.1950 C   0  0  0  0  0  2  0  0  0  0  0  0
  197.2250  173.5620  145.8850 C   0  0  0  0  0  1  0  0  0  0  0  0
  195.8820  173.6730  145.1960 C   0  0  0  0  0  2  0  0  0  0  0  0
  193.2460  173.7210  145.9540 C   0  0  0  0  0  2  0  0  0  0  0  0
  192.5700  174.7490  145.0550 C   0  0  0  0  0  2  0  0  0  0  0  0
  190.7200  175.2060  146.6460 C   0  0  1  0  0  0  0  0  0  0  0  0
  191.1800  176.8910  145.0460 C   0  0  1  0  0  3  0  0  0  0  0  0
  190.7100  175.3020  148.0390 O   0  0  0  0  0  1  0  0  0  0  0  0
  189.4880  175.8130  145.9990 C   0  0  1  0  0  0  0  0  0  0  0  0
  189.8560  176.4870  144.8210 O   0  0  0  0  0  0  0  0  0  0  0  0
  191.8730  175.8220  145.8900 C   0  0  2  0  0  3  0  0  0  0  0  0
  189.6780  174.3050  145.9800 C   0  0  0  0  0  2  0  0  0  0  0  0
  188.4280  177.9750  146.7060 C   0  0  0  0  0  2  0  0  0  0  0  0
  188.4310  176.4750  146.9110 C   0  0  1  0  0  3  0  0  0  0  0  0
  186.4450  177.1880  145.7400 C   0  0  1  0  0  3  0  0  0  0  0  0
  187.3940  178.2980  145.7310 N   0  0  0  0  0  2  0  0  0  0  0  0
  187.0110  176.0640  146.5890 C   0  0  0  0  0  2  0  0  0  0  0  0
  185.1250  177.6360  146.2750 C   0  0  0  0  0  0  0  0  0  0  0  0
  184.3750  176.8280  146.8850 O   0  0  0  0  0  0  0  0  0  0  0  0
  184.7100  178.9840  146.0910 N   0  0  0  0  0  1  0  0  0  0  0  0
  191.1950  177.6990  142.7710 N   0  0  0  0  0  2  0  0  0  0  0  0
  191.8660  177.2330  143.7580 C   0  0  0  0  0  3  0  0  0  0  0  0
  1  2  1  1  0  0  0
  1 28  1  0  0  0  0
  3  1  1  0  0  0  0
  4  3  2  0  0  0  0
  5  4  1  0  0  0  0
  7  5  1  0  0  0  0
  7  6  1  1  0  0  0
  8 13  1  6  0  0  0
  8  7  1  0  0  0  0
  9  8  1  6  0  0  0
 10 11  1  6  0  0  0
 10  9  1  0  0  0  0
 12 10  1  0  0  0  0
 12  9  1  0  0  0  0
 14 15  1  0  0  0  0
 14 13  1  0  0  0  0
 15 16  1  0  0  0  0
 16 17  1  0  0  0  0
 18  4  1  0  0  0  0
 19 21  1  0  0  0  0
 19 22  1  0  0  0  0
 21 18  1  6  0  0  0
 21 23  1  0  0  0  0
 22 20  1  1  0  0  0
 22 24  1  0  0  0  0
 23 24  1  0  0  0  0
 26 25  1  0  0  0  0
 26 22  1  0  0  0  0
 27 26  2  0  0  0  0
 29 30  1  6  0  0  0
 29 28  1  0  0  0  0
 29 31  1  0  0  0  0
 31 32  1  6  0  0  0
 31 35  1  0  0  0  0
 32 34  1  0  0  0  0
 34 33  1  0  0  0  0
 36 35  1  0  0  0  0
 37 39  1  1  0  0  0
 38 53  1  6  0  0  0
 38 42  1  0  0  0  0
 40 43  1  6  0  0  0
 40 37  1  0  0  0  0
 40 45  1  0  0  0  0
 41 38  1  0  0  0  0
 41 40  1  0  0  0  0
 42 36  1  6  0  0  0
 42 37  1  0  0  0  0
 43 37  1  0  0  0  0
 44 45  1  0  0  0  0
 45 48  1  6  0  0  0
 46 49  1  1  0  0  0
 46 48  1  0  0  0  0
 47 46  1  0  0  0  0
 47 44  1  0  0  0  0
 49 50  2  0  0  0  0
 51 49  1  0  0  0  0
 52 53  2  0  0  0  0
M  END
>  <MODEL>
7

>  <REMARK>
 VINA RESULT:      -4.9      2.487      7.199
  Name = 
  23 active torsions:
  status: ('A' for Active; 'I' for Inactive)
    1  A    between atoms: C_2  and  C_28
    2  A    between atoms: C_4  and  C_37
    3  A    between atoms: C_4  and  C_42
    4  A    between atoms: C_7  and  C_21
    5  A    between atoms: C_9  and  C_10
    6  A    between atoms: C_9  and  C_31
    7  A    between atoms: C_9  and  C_52
    8  A    between atoms: C_13  and  C_19
    9  A    between atoms: C_13  and  C_37
   10  A    between atoms: C_14  and  C_33
   11  A    between atoms: C_15  and  C_46
   12  A    between atoms: C_17  and  N_23
   13  A    between atoms: O_18  and  C_26
   14  A    between atoms: O_18  and  C_31
   15  A    between atoms: C_19  and  C_48
   16  A    between atoms: N_23  and  C_30
   17  A    between atoms: C_25  and  C_26
   18  A    between atoms: C_27  and  C_38
   19  A    between atoms: C_30  and  O_47
   20  A    between atoms: C_33  and  C_37
   21  A    between atoms: C_34  and  C_35
   22  A    between atoms: C_38  and  C_42
   23  A    between atoms: O_47  and  C_52
                            x       y       z     vdW  Elec       q    Type
                         _______ _______ _______ _____ _____    ______ ____

>  <TORSDO>
F 23

$$$$
=
 OpenBabel11062420283D

 53 57  0  0  1  0  0  0  0  0999 V2000
  193.1570  176.1730  146.3130 C   0  0  1  0  0  3  0  0  0  0  0  0
  193.7420  176.9620  147.3040 O   0  0  0  0  0  1  0  0  0  0  0  0
  191.8470  176.7670  145.9170 C   0  0  0  0  0  3  0  0  0  0  0  0
  190.9270  176.1180  145.1990 C   0  0  0  0  0  0  0  0  0  0  0  0
  191.1270  174.8110  144.7380 O   0  0  0  0  0  0  0  0  0  0  0  0
  189.6360  173.0890  145.0350 O   0  0  0  0  0  1  0  0  0  0  0  0
  190.0870  174.0540  144.1320 C   0  0  2  0  0  3  0  0  0  0  0  0
  190.5900  173.4030  142.8440 C   0  0  1  0  0  3  0  0  0  0  0  0
  189.7870  172.1320  142.5390 C   0  0  2  0  0  3  0  0  0  0  0  0
  190.5820  170.8660  142.5540 C   0  0  2  0  0  3  0  0  0  0  0  0
  191.9340  171.0730  142.8490 O   0  0  0  0  0  1  0  0  0  0  0  0
  190.2620  171.5300  141.3560 O   0  0  0  0  0  0  0  0  0  0  0  0
  190.4290  174.4020  141.7040 C   0  0  0  0  0  2  0  0  0  0  0  0
  189.5400  175.4190  142.0590 O   0  0  0  0  0  0  0  0  0  0  0  0
  188.4360  175.2300  141.2230 C   0  0  0  0  0  2  0  0  0  0  0  0
  187.4360  176.3580  141.4100 C   0  0  0  0  0  2  0  0  0  0  0  0
  188.1580  177.6580  141.7050 C   0  0  0  0  0  1  0  0  0  0  0  0
  189.6780  176.7640  144.9540 N   0  0  0  0  0  2  0  0  0  0  0  0
  187.7270  178.1020  145.5060 C   0  0  0  0  0  2  0  0  0  0  0  0
  186.4540  178.8480  147.3710 O   0  0  0  0  0  1  0  0  0  0  0  0
  188.7930  177.1720  146.0350 C   0  0  1  0  0  3  0  0  0  0  0  0
  186.5050  177.8660  146.3810 C   0  0  2  0  0  0  0  0  0  0  0  0
  188.0440  175.9770  146.5810 C   0  0  0  0  0  2  0  0  0  0  0  0
  186.6940  176.5040  147.0320 C   0  0  0  0  0  2  0  0  0  0  0  0
  184.0420  178.3400  146.1420 O   0  0  0  0  0  1  0  0  0  0  0  0
  185.2330  177.8880  145.5810 C   0  0  0  0  0  0  0  0  0  0  0  0
  185.2410  177.5000  144.3810 O   0  0  0  0  0  0  0  0  0  0  0  0
  194.0900  176.0900  145.1160 C   0  0  0  0  0  2  0  0  0  0  0  0
  194.5830  174.6630  144.9420 C   0  0  2  0  0  3  0  0  0  0  0  0
  193.9480  173.8060  145.8470 O   0  0  0  0  0  1  0  0  0  0  0  0
  196.1100  174.5860  145.0670 C   0  0  1  0  0  3  0  0  0  0  0  0
  196.6020  173.6250  146.1490 C   0  0  0  0  0  2  0  0  0  0  0  0
  196.3430  171.1880  145.8290 C   0  0  0  0  0  1  0  0  0  0  0  0
  197.2180  172.3860  145.5300 C   0  0  0  0  0  2  0  0  0  0  0  0
  196.7600  174.2890  143.7160 C   0  0  0  0  0  2  0  0  0  0  0  0
  195.7950  173.6480  142.7260 C   0  0  0  0  0  2  0  0  0  0  0  0
  195.5850  174.8190  140.5470 C   0  0  1  0  0  0  0  0  0  0  0  0
  196.0670  172.5020  140.4610 C   0  0  1  0  0  3  0  0  0  0  0  0
  196.3060  175.8840  140.0040 O   0  0  0  0  0  1  0  0  0  0  0  0
  194.7880  174.0480  139.5090 C   0  0  1  0  0  0  0  0  0  0  0  0
  194.8440  172.6730  139.7960 O   0  0  0  0  0  0  0  0  0  0  0  0
  196.3370  173.7500  141.3020 C   0  0  2  0  0  3  0  0  0  0  0  0
  194.0560  174.9030  140.5310 C   0  0  0  0  0  2  0  0  0  0  0  0
  194.7670  173.2810  137.1200 C   0  0  0  0  0  2  0  0  0  0  0  0
  194.8950  174.4840  138.0310 C   0  0  1  0  0  3  0  0  0  0  0  0
  192.7820  174.4990  136.8650 C   0  0  1  0  0  3  0  0  0  0  0  0
  193.3740  173.1730  136.7050 N   0  0  0  0  0  2  0  0  0  0  0  0
  193.7730  175.3950  137.5850 C   0  0  0  0  0  2  0  0  0  0  0  0
  192.4250  175.0740  135.5340 C   0  0  0  0  0  0  0  0  0  0  0  0
  193.3050  175.6230  134.8190 O   0  0  0  0  0  0  0  0  0  0  0  0
  191.0810  175.0050  135.0740 N   0  0  0  0  0  1  0  0  0  0  0  0
  195.0260  170.7440  141.7470 N   0  0  0  0  0  2  0  0  0  0  0  0
  196.0950  171.2050  141.2130 C   0  0  0  0  0  3  0  0  0  0  0  0
  1  2  1  1  0  0  0
  3  1  1  0  0  0  0
  4  3  2  0  0  0  0
  5  4  1  0  0  0  0
  7  5  1  0  0  0  0
  7  6  1  1  0  0  0
  8 13  1  6  0  0  0
  8  7  1  0  0  0  0
  9 10  1  0  0  0  0
  9  8  1  1  0  0  0
 10 11  1  1  0  0  0
 12  9  1  0  0  0  0
 12 10  1  0  0  0  0
 13 14  1  0  0  0  0
 15 16  1  0  0  0  0
 15 14  1  0  0  0  0
 16 17  1  0  0  0  0
 18  4  1  0  0  0  0
 19 21  1  0  0  0  0
 19 22  1  0  0  0  0
 21 18  1  6  0  0  0
 21 23  1  0  0  0  0
 22 24  1  0  0  0  0
 22 20  1  1  0  0  0
 23 24  1  0  0  0  0
 26 25  1  0  0  0  0
 26 22  1  0  0  0  0
 27 26  2  0  0  0  0
 28  1  1  0  0  0  0
 29 31  1  0  0  0  0
 29 28  1  0  0  0  0
 29 30  1  1  0  0  0
 31 35  1  6  0  0  0
 31 32  1  0  0  0  0
 34 33  1  0  0  0  0
 34 32  1  0  0  0  0
 36 35  1  0  0  0  0
 37 39  1  6  0  0  0
 37 42  1  0  0  0  0
 38 53  1  1  0  0  0
 38 42  1  0  0  0  0
 40 41  1  0  0  0  0
 40 43  1  1  0  0  0
 40 37  1  0  0  0  0
 41 38  1  0  0  0  0
 42 36  1  1  0  0  0
 43 37  1  0  0  0  0
 45 44  1  6  0  0  0
 45 40  1  0  0  0  0
 46 49  1  6  0  0  0
 46 48  1  0  0  0  0
 47 46  1  0  0  0  0
 47 44  1  0  0  0  0
 48 45  1  0  0  0  0
 50 49  2  0  0  0  0
 51 49  1  0  0  0  0
 53 52  2  0  0  0  0
M  END
>  <MODEL>
8

>  <REMARK>
 VINA RESULT:      -4.9      2.361      8.686
  Name = 
  23 active torsions:
  status: ('A' for Active; 'I' for Inactive)
    1  A    between atoms: C_2  and  C_28
    2  A    between atoms: C_4  and  C_37
    3  A    between atoms: C_4  and  C_42
    4  A    between atoms: C_7  and  C_21
    5  A    between atoms: C_9  and  C_10
    6  A    between atoms: C_9  and  C_31
    7  A    between atoms: C_9  and  C_52
    8  A    between atoms: C_13  and  C_19
    9  A    between atoms: C_13  and  C_37
   10  A    between atoms: C_14  and  C_33
   11  A    between atoms: C_15  and  C_46
   12  A    between atoms: C_17  and  N_23
   13  A    between atoms: O_18  and  C_26
   14  A    between atoms: O_18  and  C_31
   15  A    between atoms: C_19  and  C_48
   16  A    between atoms: N_23  and  C_30
   17  A    between atoms: C_25  and  C_26
   18  A    between atoms: C_27  and  C_38
   19  A    between atoms: C_30  and  O_47
   20  A    between atoms: C_33  and  C_37
   21  A    between atoms: C_34  and  C_35
   22  A    between atoms: C_38  and  C_42
   23  A    between atoms: O_47  and  C_52
                            x       y       z     vdW  Elec       q    Type
                         _______ _______ _______ _____ _____    ______ ____

>  <TORSDO>
F 23

$$$$
=
 OpenBabel11062420283D

 53 57  0  0  1  0  0  0  0  0999 V2000
  191.1580  170.8880  140.9500 C   0  0  1  0  0  3  0  0  0  0  0  0
  190.8070  169.5820  141.2910 O   0  0  0  0  0  1  0  0  0  0  0  0
  190.2750  171.8440  141.6790 C   0  0  0  0  0  3  0  0  0  0  0  0
  189.7890  172.9640  141.1380 C   0  0  0  0  0  0  0  0  0  0  0  0
  190.0900  173.3490  139.8250 O   0  0  0  0  0  0  0  0  0  0  0  0
  187.9900  172.6990  139.1580 O   0  0  0  0  0  1  0  0  0  0  0  0
  189.0840  173.5040  138.8320 C   0  0  2  0  0  3  0  0  0  0  0  0
  189.6400  173.1390  137.4570 C   0  0  1  0  0  3  0  0  0  0  0  0
  190.6000  174.2290  136.9630 C   0  0  2  0  0  3  0  0  0  0  0  0
  190.1720  174.9250  135.7110 C   0  0  2  0  0  3  0  0  0  0  0  0
  188.9550  174.4500  135.2100 O   0  0  0  0  0  1  0  0  0  0  0  0
  191.1170  173.8830  135.6970 O   0  0  0  0  0  0  0  0  0  0  0  0
  190.3820  171.8120  137.5730 C   0  0  0  0  0  2  0  0  0  0  0  0
  189.5770  170.7550  137.1400 O   0  0  0  0  0  0  0  0  0  0  0  0
  190.2250  169.6070  137.6010 C   0  0  0  0  0  2  0  0  0  0  0  0
  191.5720  169.4520  136.9160 C   0  0  0  0  0  2  0  0  0  0  0  0
  191.6100  168.1660  136.1140 C   0  0  0  0  0  1  0  0  0  0  0  0
  188.8870  173.7550  141.9110 N   0  0  0  0  0  2  0  0  0  0  0  0
  188.0480  176.0140  141.6070 C   0  0  0  0  0  2  0  0  0  0  0  0
  188.6500  178.2850  141.9780 O   0  0  0  0  0  1  0  0  0  0  0  0
  189.1410  175.1570  142.2010 C   0  0  1  0  0  3  0  0  0  0  0  0
  187.9280  177.2220  142.5230 C   0  0  2  0  0  0  0  0  0  0  0  0
  189.0760  175.4070  143.6910 C   0  0  0  0  0  2  0  0  0  0  0  0
  188.5500  176.8220  143.8530 C   0  0  0  0  0  2  0  0  0  0  0  0
  186.0470  178.8860  142.3130 O   0  0  0  0  0  0  0  0  0  0  0  0
  186.4960  177.6330  142.7210 C   0  0  0  0  0  0  0  0  0  0  0  0
  185.6830  176.8330  143.2570 O   0  0  0  0  0  1  0  0  0  0  0  0
  192.6150  171.1300  141.3070 C   0  0  0  0  0  2  0  0  0  0  0  0
  193.4900  170.9250  140.0800 C   0  0  2  0  0  3  0  0  0  0  0  0
  194.0760  169.6550  140.0970 O   0  0  0  0  0  1  0  0  0  0  0  0
  194.5430  172.0330  139.9600 C   0  0  1  0  0  3  0  0  0  0  0  0
  193.9600  173.4280  139.7330 C   0  0  0  0  0  2  0  0  0  0  0  0
  194.5150  172.8420  137.3960 C   0  0  0  0  0  1  0  0  0  0  0  0
  194.3910  173.9790  138.3870 C   0  0  0  0  0  2  0  0  0  0  0  0
  195.5030  172.0150  141.1490 C   0  0  0  0  0  2  0  0  0  0  0  0
  195.8000  173.4090  141.6870 C   0  0  0  0  0  2  0  0  0  0  0  0
  194.3960  173.2660  143.7300 C   0  0  1  0  0  0  0  0  0  0  0  0
  196.2470  174.7410  143.8200 C   0  0  1  0  0  3  0  0  0  0  0  0
  194.0950  172.1870  144.5630 O   0  0  0  0  0  1  0  0  0  0  0  0
  194.0980  174.6120  144.3670 C   0  0  1  0  0  0  0  0  0  0  0  0
  195.1060  175.5300  144.0240 O   0  0  0  0  0  0  0  0  0  0  0  0
  195.8080  173.4070  143.2150 C   0  0  2  0  0  3  0  0  0  0  0  0
  193.2360  174.1220  143.2160 C   0  0  0  0  0  2  0  0  0  0  0  0
  194.0210  175.8910  146.5250 C   0  0  0  0  0  2  0  0  0  0  0  0
  193.5610  174.6350  145.8160 C   0  0  1  0  0  3  0  0  0  0  0  0
  191.7250  176.1650  146.1490 C   0  0  1  0  0  3  0  0  0  0  0  0
  192.9660  176.8900  146.4070 N   0  0  0  0  0  2  0  0  0  0  0  0
  192.0520  174.7030  145.9010 C   0  0  0  0  0  2  0  0  0  0  0  0
  190.7910  176.3040  147.3050 C   0  0  0  0  0  0  0  0  0  0  0  0
  189.6420  175.7890  147.2640 O   0  0  0  0  0  0  0  0  0  0  0  0
  191.1990  177.0280  148.4590 N   0  0  0  0  0  1  0  0  0  0  0  0
  197.2200  176.7610  142.9250 N   0  0  0  0  0  2  0  0  0  0  0  0
  197.2860  175.4860  143.0380 C   0  0  0  0  0  3  0  0  0  0  0  0
  1  2  1  1  0  0  0
  1 28  1  0  0  0  0
  1  3  1  0  0  0  0
  4  3  2  0  0  0  0
  4 18  1  0  0  0  0
  5  4  1  0  0  0  0
  7  6  1  1  0  0  0
  7  5  1  0  0  0  0
  8 13  1  1  0  0  0
  8  7  1  0  0  0  0
  9  8  1  6  0  0  0
 10 11  1  6  0  0  0
 10  9  1  0  0  0  0
 12 10  1  0  0  0  0
 12  9  1  0  0  0  0
 14 13  1  0  0  0  0
 14 15  1  0  0  0  0
 16 15  1  0  0  0  0
 17 16  1  0  0  0  0
 19 21  1  0  0  0  0
 19 22  1  0  0  0  0
 21 18  1  1  0  0  0
 21 23  1  0  0  0  0
 22 20  1  6  0  0  0
 22 26  1  0  0  0  0
 22 24  1  0  0  0  0
 23 24  1  0  0  0  0
 25 26  2  0  0  0  0
 26 27  1  0  0  0  0
 29 30  1  1  0  0  0
 29 28  1  0  0  0  0
 31 32  1  1  0  0  0
 31 29  1  0  0  0  0
 31 35  1  0  0  0  0
 33 34  1  0  0  0  0
 34 32  1  0  0  0  0
 35 36  1  0  0  0  0
 37 40  1  0  0  0  0
 37 39  1  1  0  0  0
 38 53  1  6  0  0  0
 38 41  1  0  0  0  0
 40 43  1  6  0  0  0
 40 45  1  0  0  0  0
 41 40  1  0  0  0  0
 42 36  1  6  0  0  0
 42 37  1  0  0  0  0
 42 38  1  0  0  0  0
 43 37  1  0  0  0  0
 45 48  1  6  0  0  0
 45 44  1  0  0  0  0
 46 47  1  0  0  0  0
 46 49  1  1  0  0  0
 47 44  1  0  0  0  0
 48 46  1  0  0  0  0
 49 51  1  0  0  0  0
 50 49  2  0  0  0  0
 52 53  2  0  0  0  0
M  END
>  <MODEL>
9

>  <REMARK>
 VINA RESULT:      -4.8      2.005      7.250
  Name = 
  23 active torsions:
  status: ('A' for Active; 'I' for Inactive)
    1  A    between atoms: C_2  and  C_28
    2  A    between atoms: C_4  and  C_37
    3  A    between atoms: C_4  and  C_42
    4  A    between atoms: C_7  and  C_21
    5  A    between atoms: C_9  and  C_10
    6  A    between atoms: C_9  and  C_31
    7  A    between atoms: C_9  and  C_52
    8  A    between atoms: C_13  and  C_19
    9  A    between atoms: C_13  and  C_37
   10  A    between atoms: C_14  and  C_33
   11  A    between atoms: C_15  and  C_46
   12  A    between atoms: C_17  and  N_23
   13  A    between atoms: O_18  and  C_26
   14  A    between atoms: O_18  and  C_31
   15  A    between atoms: C_19  and  C_48
   16  A    between atoms: N_23  and  C_30
   17  A    between atoms: C_25  and  C_26
   18  A    between atoms: C_27  and  C_38
   19  A    between atoms: C_30  and  O_47
   20  A    between atoms: C_33  and  C_37
   21  A    between atoms: C_34  and  C_35
   22  A    between atoms: C_38  and  C_42
   23  A    between atoms: O_47  and  C_52
                            x       y       z     vdW  Elec       q    Type
                         _______ _______ _______ _____ _____    ______ ____

>  <TORSDO>
F 23

$$$$
