=
 OpenBabel11072409313D

 40 43  0  0  1  0  0  0  0  0999 V2000
  189.2030  175.3040  144.2480 N   0  0  1  0  0  0  0  0  0  0  0  0
  187.9810  176.5830  141.3880 N   0  0  0  0  0  2  0  0  0  0  0  0
  187.9360  175.6130  142.2290 C   0  0  0  0  0  0  0  0  0  0  0  0
  189.8870  174.5090  143.2210 C   0  0  2  0  0  3  0  0  0  0  0  0
  190.0570  176.4480  144.5470 C   0  0  0  0  0  2  0  0  0  0  0  0
  187.8730  177.3260  144.0920 C   0  0  1  0  0  3  0  0  0  0  0  0
  188.7610  174.0980  141.8470 S   0  0  0  0  0  0  0  0  0  0  0  0
  189.1580  177.6330  144.8250 C   0  0  0  0  0  2  0  0  0  0  0  0
  187.9600  175.8550  143.7010 C   0  0  2  0  0  3  0  0  0  0  0  0
  184.4590  177.9870  146.6460 C   0  0  0  0  0  3  0  0  0  0  0  0
  185.6360  177.4420  147.1590 C   0  0  0  0  0  3  0  0  0  0  0  0
  184.3820  178.3300  145.2960 C   0  0  0  0  0  3  0  0  0  0  0  0
  186.6720  177.5910  144.9590 C   0  0  0  0  0  0  0  0  0  0  0  0
  185.4730  178.1410  144.4310 C   0  0  0  0  0  0  0  0  0  0  0  0
  186.7300  177.2430  146.3220 C   0  0  0  0  0  3  0  0  0  0  0  0
  186.1280  179.2880  142.4350 O   0  0  0  0  0  0  0  0  0  0  0  0
  184.1900  178.0140  142.2650 N   0  0  0  0  0  2  0  0  0  0  0  0
  185.3020  178.5240  143.0070 C   0  0  0  0  0  0  0  0  0  0  0  0
  183.9290  178.3770  140.8800 C   0  0  0  0  0  2  0  0  0  0  0  0
  182.5470  177.8980  140.4730 C   0  0  0  0  0  2  0  0  0  0  0  0
  181.4930  178.4900  141.3930 C   0  0  0  0  0  2  0  0  0  0  0  0
  179.5880  178.2570  139.9800 O   0  0  0  0  0  0  0  0  0  0  0  0
  180.1560  180.4450  140.5180 N   0  0  0  0  0  1  0  0  0  0  0  0
  180.3550  179.0380  140.6030 C   0  0  0  0  0  0  0  0  0  0  0  0
  189.6650  172.3500  144.2030 O   0  0  0  0  0  0  0  0  0  0  0  0
  190.4510  173.2600  143.8290 C   0  0  0  0  0  0  0  0  0  0  0  0
  191.9060  173.0870  143.9990 C   0  0  0  0  0  0  0  0  0  0  0  0
  194.7300  172.6400  143.9110 C   0  0  2  0  0  3  0  0  0  0  0  0
  192.8240  174.2140  143.5700 C   0  0  0  0  0  2  0  0  0  0  0  0
  194.2530  174.0810  144.1060 C   0  0  1  0  0  3  0  0  0  0  0  0
  193.8550  171.6830  144.7120 C   0  0  0  0  0  2  0  0  0  0  0  0
  192.3950  171.9230  144.4540 C   0  0  0  0  0  3  0  0  0  0  0  0
  194.3330  174.5380  145.5650 C   0  0  0  0  0  2  0  0  0  0  0  0
  194.1250  176.0430  145.6800 C   0  0  0  0  0  2  0  0  0  0  0  0
  193.0710  176.3730  146.7250 C   0  0  0  0  0  2  0  0  0  0  0  0
  192.2160  175.1560  147.0220 C   0  0  0  0  0  2  0  0  0  0  0  0
  191.1220  175.5410  147.9960 C   0  0  0  0  0  1  0  0  0  0  0  0
  196.2010  172.4560  144.2760 C   0  0  0  0  0  2  0  0  0  0  0  0
  197.9410  174.2020  144.1750 C   0  0  0  0  0  2  0  0  0  0  0  0
  197.0680  173.4280  143.5340 C   0  0  0  0  0  3  0  0  0  0  0  0
  1  5  1  6  0  0  0
  2  3  2  0  0  0  0
  4 26  1  1  0  0  0
  4  1  1  0  0  0  0
  5  8  1  0  0  0  0
  6  8  1  0  0  0  0
  6 13  1  1  0  0  0
  7  3  1  0  0  0  0
  7  4  1  0  0  0  0
  9  3  1  6  0  0  0
  9  6  1  0  0  0  0
  9  1  1  0  0  0  0
 10 11  1  0  0  0  0
 12 10  2  0  0  0  0
 13 15  1  0  0  0  0
 14 13  2  0  0  0  0
 14 12  1  0  0  0  0
 15 11  2  0  0  0  0
 16 18  2  0  0  0  0
 17 18  1  0  0  0  0
 18 14  1  0  0  0  0
 19 17  1  0  0  0  0
 20 19  1  0  0  0  0
 20 21  1  0  0  0  0
 22 24  2  0  0  0  0
 23 24  1  0  0  0  0
 24 21  1  0  0  0  0
 26 27  1  0  0  0  0
 26 25  2  0  0  0  0
 27 32  2  0  0  0  0
 28 30  1  0  0  0  0
 28 38  1  1  0  0  0
 28 31  1  0  0  0  0
 29 27  1  0  0  0  0
 29 30  1  0  0  0  0
 30 33  1  1  0  0  0
 32 31  1  0  0  0  0
 33 34  1  0  0  0  0
 34 35  1  0  0  0  0
 35 36  1  0  0  0  0
 36 37  1  0  0  0  0
 40 39  2  0  0  0  0
 40 38  1  0  0  0  0
M  END
>  <MODEL>
1

>  <REMARK>
 VINA RESULT:      -7.6      0.000      0.000
  Name = 
  14 active torsions:
  status: ('A' for Active; 'I' for Inactive)
    1  A    between atoms: C_7  and  C_8
    2  A    between atoms: C_7  and  C_23
    3  A    between atoms: C_8  and  N_31
    4  A    between atoms: C_9  and  C_11
    5  A    between atoms: C_11  and  C_18
    6  A    between atoms: C_14  and  C_16
    7  A    between atoms: C_15  and  C_19
    8  A    between atoms: C_15  and  C_29
    9  A    between atoms: C_19  and  C_36
   10  A    between atoms: C_20  and  C_29
   11  A    between atoms: C_23  and  C_40
   12  A    between atoms: C_24  and  C_25
   13  A    between atoms: C_24  and  C_26
   14  A    between atoms: C_27  and  C_35
                            x       y       z     vdW  Elec       q    Type
                         _______ _______ _______ _____ _____    ______ ____

>  <TORSDO>
F 14

$$$$
=
 OpenBabel11072409313D

 40 43  0  0  1  0  0  0  0  0999 V2000
  189.2770  175.3640  144.7810 N   0  0  1  0  0  0  0  0  0  0  0  0
  188.3780  176.5860  141.7790 N   0  0  0  0  0  2  0  0  0  0  0  0
  188.2350  175.6360  142.6320 C   0  0  0  0  0  0  0  0  0  0  0  0
  190.0580  174.5410  143.8490 C   0  0  2  0  0  3  0  0  0  0  0  0
  190.1040  176.5090  145.1440 C   0  0  0  0  0  2  0  0  0  0  0  0
  187.9900  177.3910  144.4400 C   0  0  1  0  0  3  0  0  0  0  0  0
  189.0810  174.1080  142.3730 S   0  0  0  0  0  0  0  0  0  0  0  0
  189.1930  177.7050  145.2990 C   0  0  0  0  0  2  0  0  0  0  0  0
  188.1050  175.9110  144.0920 C   0  0  2  0  0  3  0  0  0  0  0  0
  184.3320  178.1370  146.6030 C   0  0  0  0  0  3  0  0  0  0  0  0
  185.4550  177.6320  147.2580 C   0  0  0  0  0  3  0  0  0  0  0  0
  184.3890  178.4120  145.2360 C   0  0  0  0  0  3  0  0  0  0  0  0
  186.7060  177.6850  145.1680 C   0  0  0  0  0  0  0  0  0  0  0  0
  185.5630  178.1930  144.4950 C   0  0  0  0  0  0  0  0  0  0  0  0
  186.6290  177.4050  146.5450 C   0  0  0  0  0  3  0  0  0  0  0  0
  186.3480  179.3230  142.5360 O   0  0  0  0  0  0  0  0  0  0  0  0
  184.5740  177.8580  142.2010 N   0  0  0  0  0  2  0  0  0  0  0  0
  185.5330  178.5030  143.0430 C   0  0  0  0  0  0  0  0  0  0  0  0
  184.4520  178.1400  140.7790 C   0  0  0  0  0  2  0  0  0  0  0  0
  182.9870  178.2580  140.3990 C   0  0  0  0  0  2  0  0  0  0  0  0
  182.1230  178.3090  141.6470 C   0  0  0  0  0  2  0  0  0  0  0  0
  180.5160  179.7940  140.7020 O   0  0  0  0  0  0  0  0  0  0  0  0
  179.6340  177.8850  141.6890 N   0  0  0  0  0  1  0  0  0  0  0  0
  180.7290  178.7090  141.3040 C   0  0  0  0  0  0  0  0  0  0  0  0
  189.7010  172.4580  144.9490 O   0  0  0  0  0  0  0  0  0  0  0  0
  190.5430  173.3030  144.5410 C   0  0  0  0  0  0  0  0  0  0  0  0
  191.9830  173.0640  144.7550 C   0  0  0  0  0  0  0  0  0  0  0  0
  194.6510  172.3370  145.4880 C   0  0  2  0  0  3  0  0  0  0  0  0
  192.6110  171.8280  144.1440 C   0  0  0  0  0  2  0  0  0  0  0  0
  194.1420  171.8610  144.1250 C   0  0  1  0  0  3  0  0  0  0  0  0
  194.1700  173.7570  145.7620 C   0  0  0  0  0  2  0  0  0  0  0  0
  192.6910  173.8930  145.5390 C   0  0  0  0  0  3  0  0  0  0  0  0
  194.6550  172.7240  142.9690 C   0  0  0  0  0  2  0  0  0  0  0  0
  193.6970  172.6800  141.7850 C   0  0  0  0  0  2  0  0  0  0  0  0
  193.4250  174.0750  141.2470 C   0  0  0  0  0  2  0  0  0  0  0  0
  194.1420  175.1180  142.0830 C   0  0  0  0  0  2  0  0  0  0  0  0
  193.1320  176.1180  142.6060 C   0  0  0  0  0  1  0  0  0  0  0  0
  196.1700  172.2510  145.6080 C   0  0  0  0  0  2  0  0  0  0  0  0
  197.7470  174.0600  145.0360 C   0  0  0  0  0  2  0  0  0  0  0  0
  196.7740  173.6060  145.8230 C   0  0  0  0  0  3  0  0  0  0  0  0
  1  5  1  6  0  0  0
  2  3  2  0  0  0  0
  4 26  1  1  0  0  0
  4  1  1  0  0  0  0
  5  8  1  0  0  0  0
  6 13  1  1  0  0  0
  6  8  1  0  0  0  0
  7  3  1  0  0  0  0
  7  4  1  0  0  0  0
  9  3  1  6  0  0  0
  9  6  1  0  0  0  0
  9  1  1  0  0  0  0
 10 11  1  0  0  0  0
 12 10  2  0  0  0  0
 13 15  1  0  0  0  0
 14 13  2  0  0  0  0
 14 12  1  0  0  0  0
 15 11  2  0  0  0  0
 16 18  2  0  0  0  0
 17 18  1  0  0  0  0
 18 14  1  0  0  0  0
 19 17  1  0  0  0  0
 20 19  1  0  0  0  0
 20 21  1  0  0  0  0
 22 24  2  0  0  0  0
 24 21  1  0  0  0  0
 24 23  1  0  0  0  0
 26 27  1  0  0  0  0
 26 25  2  0  0  0  0
 27 32  2  0  0  0  0
 28 38  1  6  0  0  0
 28 31  1  0  0  0  0
 29 27  1  0  0  0  0
 30 33  1  6  0  0  0
 30 29  1  0  0  0  0
 30 28  1  0  0  0  0
 32 31  1  0  0  0  0
 34 33  1  0  0  0  0
 35 34  1  0  0  0  0
 35 36  1  0  0  0  0
 36 37  1  0  0  0  0
 38 40  1  0  0  0  0
 39 40  2  0  0  0  0
M  END
>  <MODEL>
2

>  <REMARK>
 VINA RESULT:      -7.5      1.224      2.148
  Name = 
  14 active torsions:
  status: ('A' for Active; 'I' for Inactive)
    1  A    between atoms: C_7  and  C_8
    2  A    between atoms: C_7  and  C_23
    3  A    between atoms: C_8  and  N_31
    4  A    between atoms: C_9  and  C_11
    5  A    between atoms: C_11  and  C_18
    6  A    between atoms: C_14  and  C_16
    7  A    between atoms: C_15  and  C_19
    8  A    between atoms: C_15  and  C_29
    9  A    between atoms: C_19  and  C_36
   10  A    between atoms: C_20  and  C_29
   11  A    between atoms: C_23  and  C_40
   12  A    between atoms: C_24  and  C_25
   13  A    between atoms: C_24  and  C_26
   14  A    between atoms: C_27  and  C_35
                            x       y       z     vdW  Elec       q    Type
                         _______ _______ _______ _____ _____    ______ ____

>  <TORSDO>
F 14

$$$$
=
 OpenBabel11072409313D

 40 43  0  0  1  0  0  0  0  0999 V2000
  190.0400  174.0340  143.0590 N   0  0  1  0  0  0  0  0  0  0  0  0
  192.8900  172.4440  142.2490 N   0  0  0  0  0  2  0  0  0  0  0  0
  192.1720  173.4970  142.0890 C   0  0  0  0  0  0  0  0  0  0  0  0
  189.7500  173.5150  141.7170 C   0  0  2  0  0  3  0  0  0  0  0  0
  189.5970  173.0270  144.0160 C   0  0  0  0  0  2  0  0  0  0  0  0
  191.8560  173.5770  144.5990 C   0  0  1  0  0  3  0  0  0  0  0  0
  191.2000  173.6660  140.6240 S   0  0  0  0  0  0  0  0  0  0  0  0
  190.5680  173.0350  145.1750 C   0  0  0  0  0  2  0  0  0  0  0  0
  191.4890  174.1580  143.2380 C   0  0  2  0  0  3  0  0  0  0  0  0
  193.4850  176.6510  147.1510 C   0  0  0  0  0  3  0  0  0  0  0  0
  192.1080  176.4520  147.0690 C   0  0  0  0  0  3  0  0  0  0  0  0
  194.3500  175.8460  146.4080 C   0  0  0  0  0  3  0  0  0  0  0  0
  192.4590  174.6250  145.4960 C   0  0  0  0  0  0  0  0  0  0  0  0
  193.8630  174.8280  145.5730 C   0  0  0  0  0  0  0  0  0  0  0  0
  191.6000  175.4500  146.2460 C   0  0  0  0  0  3  0  0  0  0  0  0
  195.2180  174.3720  143.6530 O   0  0  0  0  0  0  0  0  0  0  0  0
  195.4070  172.8440  145.3950 N   0  0  0  0  0  2  0  0  0  0  0  0
  194.8520  174.0250  144.8100 C   0  0  0  0  0  0  0  0  0  0  0  0
  196.3470  171.9800  144.6960 C   0  0  0  0  0  2  0  0  0  0  0  0
  196.1710  170.5440  145.1560 C   0  0  0  0  0  2  0  0  0  0  0  0
  194.6950  170.2070  145.2730 C   0  0  0  0  0  2  0  0  0  0  0  0
  193.6330  168.1670  145.8970 O   0  0  0  0  0  0  0  0  0  0  0  0
  195.2450  168.9350  147.3840 N   0  0  0  0  0  1  0  0  0  0  0  0
  194.4940  169.0420  146.1790 C   0  0  0  0  0  0  0  0  0  0  0  0
  188.0540  173.7990  140.0680 O   0  0  0  0  0  0  0  0  0  0  0  0
  188.5720  174.2340  141.1310 C   0  0  0  0  0  0  0  0  0  0  0  0
  188.0200  175.4400  141.7750 C   0  0  0  0  0  0  0  0  0  0  0  0
  186.6260  177.7460  142.7380 C   0  0  2  0  0  3  0  0  0  0  0  0
  186.9370  175.2710  142.8210 C   0  0  0  0  0  2  0  0  0  0  0  0
  186.6920  176.5270  143.6620 C   0  0  1  0  0  3  0  0  0  0  0  0
  187.9570  177.9330  142.0190 C   0  0  0  0  0  2  0  0  0  0  0  0
  188.4230  176.6580  141.3780 C   0  0  0  0  0  3  0  0  0  0  0  0
  187.7580  176.6700  144.7520 C   0  0  0  0  0  2  0  0  0  0  0  0
  187.1260  176.6790  146.1390 C   0  0  0  0  0  2  0  0  0  0  0  0
  185.6110  176.5920  146.0520 C   0  0  0  0  0  2  0  0  0  0  0  0
  184.9670  177.7520  146.7880 C   0  0  0  0  0  2  0  0  0  0  0  0
  186.0400  178.5440  147.5060 C   0  0  0  0  0  1  0  0  0  0  0  0
  186.2300  179.0210  143.4780 C   0  0  0  0  0  2  0  0  0  0  0  0
  183.9320  178.4320  142.8010 C   0  0  0  0  0  2  0  0  0  0  0  0
  184.7400  179.1470  143.5800 C   0  0  0  0  0  3  0  0  0  0  0  0
  1  9  1  0  0  0  0
  1  5  1  1  0  0  0
  3  2  2  0  0  0  0
  4 26  1  6  0  0  0
  4  1  1  0  0  0  0
  5  8  1  0  0  0  0
  6  8  1  0  0  0  0
  6 13  1  1  0  0  0
  7  4  1  0  0  0  0
  7  3  1  0  0  0  0
  9  3  1  6  0  0  0
  9  6  1  0  0  0  0
 11 10  1  0  0  0  0
 12 10  2  0  0  0  0
 13 14  2  0  0  0  0
 13 15  1  0  0  0  0
 14 12  1  0  0  0  0
 15 11  2  0  0  0  0
 16 18  2  0  0  0  0
 18 17  1  0  0  0  0
 18 14  1  0  0  0  0
 19 20  1  0  0  0  0
 19 17  1  0  0  0  0
 20 21  1  0  0  0  0
 21 24  1  0  0  0  0
 22 24  2  0  0  0  0
 24 23  1  0  0  0  0
 25 26  2  0  0  0  0
 26 27  1  0  0  0  0
 27 29  1  0  0  0  0
 28 38  1  1  0  0  0
 28 30  1  0  0  0  0
 29 30  1  0  0  0  0
 30 33  1  1  0  0  0
 31 28  1  0  0  0  0
 32 27  2  0  0  0  0
 32 31  1  0  0  0  0
 33 34  1  0  0  0  0
 35 34  1  0  0  0  0
 35 36  1  0  0  0  0
 36 37  1  0  0  0  0
 38 40  1  0  0  0  0
 39 40  2  0  0  0  0
M  END
>  <MODEL>
3

>  <REMARK>
 VINA RESULT:      -7.0      3.409      9.881
  Name = 
  14 active torsions:
  status: ('A' for Active; 'I' for Inactive)
    1  A    between atoms: C_7  and  C_8
    2  A    between atoms: C_7  and  C_23
    3  A    between atoms: C_8  and  N_31
    4  A    between atoms: C_9  and  C_11
    5  A    between atoms: C_11  and  C_18
    6  A    between atoms: C_14  and  C_16
    7  A    between atoms: C_15  and  C_19
    8  A    between atoms: C_15  and  C_29
    9  A    between atoms: C_19  and  C_36
   10  A    between atoms: C_20  and  C_29
   11  A    between atoms: C_23  and  C_40
   12  A    between atoms: C_24  and  C_25
   13  A    between atoms: C_24  and  C_26
   14  A    between atoms: C_27  and  C_35
                            x       y       z     vdW  Elec       q    Type
                         _______ _______ _______ _____ _____    ______ ____

>  <TORSDO>
F 14

$$$$
=
 OpenBabel11072409313D

 40 43  0  0  1  0  0  0  0  0999 V2000
  192.8360  175.6250  145.6010 N   0  0  1  0  0  0  0  0  0  0  0  0
  192.5680  172.4160  144.6330 N   0  0  0  0  0  2  0  0  0  0  0  0
  192.1070  173.6090  144.5150 C   0  0  0  0  0  0  0  0  0  0  0  0
  191.6790  175.1510  146.3700 C   0  0  2  0  0  3  0  0  0  0  0  0
  194.0190  175.4130  146.4280 C   0  0  0  0  0  2  0  0  0  0  0  0
  194.4920  174.4310  144.2930 C   0  0  1  0  0  3  0  0  0  0  0  0
  190.6260  174.0530  145.3670 S   0  0  0  0  0  0  0  0  0  0  0  0
  195.1580  175.0280  145.5100 C   0  0  0  0  0  2  0  0  0  0  0  0
  193.0150  174.7890  144.4120 C   0  0  2  0  0  3  0  0  0  0  0  0
  196.1720  176.1040  140.6880 C   0  0  0  0  0  3  0  0  0  0  0  0
  196.2830  176.7780  141.9040 C   0  0  0  0  0  3  0  0  0  0  0  0
  195.5190  174.8720  140.6330 C   0  0  0  0  0  3  0  0  0  0  0  0
  195.0860  174.9740  143.0210 C   0  0  0  0  0  0  0  0  0  0  0  0
  194.9660  174.2870  141.7840 C   0  0  0  0  0  0  0  0  0  0  0  0
  195.7410  176.2190  143.0580 C   0  0  0  0  0  3  0  0  0  0  0  0
  194.8510  171.9020  141.9610 O   0  0  0  0  0  0  0  0  0  0  0  0
  192.9450  172.9350  141.1190 N   0  0  0  0  0  2  0  0  0  0  0  0
  194.2790  172.9780  141.6340 C   0  0  0  0  0  0  0  0  0  0  0  0
  192.2210  171.6910  140.9010 C   0  0  0  0  0  2  0  0  0  0  0  0
  190.8240  171.7960  141.4870 C   0  0  0  0  0  2  0  0  0  0  0  0
  190.2630  173.1890  141.2600 C   0  0  0  0  0  2  0  0  0  0  0  0
  188.1270  172.9260  140.2360 O   0  0  0  0  0  0  0  0  0  0  0  0
  189.8560  173.4800  138.7850 N   0  0  0  0  0  1  0  0  0  0  0  0
  189.3470  173.2000  140.0850 C   0  0  0  0  0  0  0  0  0  0  0  0
  191.3010  176.9480  147.8880 O   0  0  0  0  0  0  0  0  0  0  0  0
  190.8870  176.3190  146.8780 C   0  0  0  0  0  0  0  0  0  0  0  0
  189.6340  176.7330  146.2190 C   0  0  0  0  0  0  0  0  0  0  0  0
  187.2610  177.9160  145.1440 C   0  0  2  0  0  3  0  0  0  0  0  0
  189.7230  177.5510  144.9460 C   0  0  0  0  0  2  0  0  0  0  0  0
  188.4050  177.6230  144.1690 C   0  0  1  0  0  3  0  0  0  0  0  0
  187.1300  176.7840  146.1550 C   0  0  0  0  0  2  0  0  0  0  0  0
  188.4510  176.4510  146.7870 C   0  0  0  0  0  3  0  0  0  0  0  0
  188.1780  176.3430  143.3600 C   0  0  0  0  0  2  0  0  0  0  0  0
  188.5490  176.5460  141.8970 C   0  0  0  0  0  2  0  0  0  0  0  0
  187.8370  177.7550  141.3120 C   0  0  0  0  0  2  0  0  0  0  0  0
  186.7590  177.3190  140.3380 C   0  0  0  0  0  2  0  0  0  0  0  0
  185.5270  178.1760  140.5420 C   0  0  0  0  0  1  0  0  0  0  0  0
  185.9330  178.1580  144.4320 C   0  0  0  0  0  2  0  0  0  0  0  0
  184.1460  178.7960  146.0080 C   0  0  0  0  0  2  0  0  0  0  0  0
  184.7730  177.8410  145.3270 C   0  0  0  0  0  3  0  0  0  0  0  0
  1  4  1  0  0  0  0
  1  5  1  1  0  0  0
  3  2  2  0  0  0  0
  3  7  1  0  0  0  0
  4 26  1  6  0  0  0
  6 13  1  6  0  0  0
  6  9  1  0  0  0  0
  6  8  1  0  0  0  0
  7  4  1  0  0  0  0
  8  5  1  0  0  0  0
  9  3  1  1  0  0  0
  9  1  1  0  0  0  0
 10 11  1  0  0  0  0
 11 15  2  0  0  0  0
 12 10  2  0  0  0  0
 12 14  1  0  0  0  0
 13 15  1  0  0  0  0
 14 13  2  0  0  0  0
 17 18  1  0  0  0  0
 18 14  1  0  0  0  0
 18 16  2  0  0  0  0
 19 17  1  0  0  0  0
 19 20  1  0  0  0  0
 21 20  1  0  0  0  0
 23 24  1  0  0  0  0
 24 22  2  0  0  0  0
 24 21  1  0  0  0  0
 26 25  2  0  0  0  0
 27 32  2  0  0  0  0
 27 26  1  0  0  0  0
 28 38  1  6  0  0  0
 28 31  1  0  0  0  0
 29 27  1  0  0  0  0
 30 33  1  1  0  0  0
 30 29  1  0  0  0  0
 30 28  1  0  0  0  0
 31 32  1  0  0  0  0
 34 33  1  0  0  0  0
 35 34  1  0  0  0  0
 36 37  1  0  0  0  0
 36 35  1  0  0  0  0
 38 40  1  0  0  0  0
 40 39  2  0  0  0  0
M  END
>  <MODEL>
4

>  <REMARK>
 VINA RESULT:      -6.9      3.720      9.026
  Name = 
  14 active torsions:
  status: ('A' for Active; 'I' for Inactive)
    1  A    between atoms: C_7  and  C_8
    2  A    between atoms: C_7  and  C_23
    3  A    between atoms: C_8  and  N_31
    4  A    between atoms: C_9  and  C_11
    5  A    between atoms: C_11  and  C_18
    6  A    between atoms: C_14  and  C_16
    7  A    between atoms: C_15  and  C_19
    8  A    between atoms: C_15  and  C_29
    9  A    between atoms: C_19  and  C_36
   10  A    between atoms: C_20  and  C_29
   11  A    between atoms: C_23  and  C_40
   12  A    between atoms: C_24  and  C_25
   13  A    between atoms: C_24  and  C_26
   14  A    between atoms: C_27  and  C_35
                            x       y       z     vdW  Elec       q    Type
                         _______ _______ _______ _____ _____    ______ ____

>  <TORSDO>
F 14

$$$$
=
 OpenBabel11072409313D

 40 43  0  0  1  0  0  0  0  0999 V2000
  192.2400  175.7350  145.3670 N   0  0  1  0  0  0  0  0  0  0  0  0
  192.5520  172.4350  144.7990 N   0  0  0  0  0  2  0  0  0  0  0  0
  192.0260  173.5400  144.4100 C   0  0  0  0  0  0  0  0  0  0  0  0
  190.9720  175.1980  145.8760 C   0  0  2  0  0  3  0  0  0  0  0  0
  193.1760  175.7630  146.4850 C   0  0  0  0  0  2  0  0  0  0  0  0
  194.2920  174.6350  144.6880 C   0  0  1  0  0  3  0  0  0  0  0  0
  190.3350  173.8750  144.7950 S   0  0  0  0  0  0  0  0  0  0  0  0
  194.5500  175.4360  145.9430 C   0  0  0  0  0  2  0  0  0  0  0  0
  192.8080  174.8100  144.3820 C   0  0  2  0  0  3  0  0  0  0  0  0
  196.6390  176.0230  141.3440 C   0  0  0  0  0  3  0  0  0  0  0  0
  195.3300  176.4680  141.5280 C   0  0  0  0  0  3  0  0  0  0  0  0
  197.2020  175.1250  142.2520 C   0  0  0  0  0  3  0  0  0  0  0  0
  195.1460  175.1160  143.5460 C   0  0  0  0  0  0  0  0  0  0  0  0
  196.4770  174.6550  143.3590 C   0  0  0  0  0  0  0  0  0  0  0  0
  194.5910  176.0160  142.6170 C   0  0  0  0  0  3  0  0  0  0  0  0
  197.9320  174.0920  145.1750 O   0  0  0  0  0  0  0  0  0  0  0  0
  196.8990  172.2920  144.1270 N   0  0  0  0  0  2  0  0  0  0  0  0
  197.1480  173.6930  144.2700 C   0  0  0  0  0  0  0  0  0  0  0  0
  197.5520  171.2840  144.9500 C   0  0  0  0  0  2  0  0  0  0  0  0
  196.6580  170.9140  146.1210 C   0  0  0  0  0  2  0  0  0  0  0  0
  196.1710  169.4830  145.9780 C   0  0  0  0  0  2  0  0  0  0  0  0
  194.8830  168.7390  147.8400 O   0  0  0  0  0  0  0  0  0  0  0  0
  197.1730  168.3870  148.0190 N   0  0  0  0  0  1  0  0  0  0  0  0
  196.0230  168.8440  147.3150 C   0  0  0  0  0  0  0  0  0  0  0  0
  189.7190  176.7730  147.1490 O   0  0  0  0  0  0  0  0  0  0  0  0
  189.9640  176.2990  146.0080 C   0  0  0  0  0  0  0  0  0  0  0  0
  189.2560  176.8290  144.8270 C   0  0  0  0  0  0  0  0  0  0  0  0
  187.9760  177.4750  142.3520 C   0  0  2  0  0  3  0  0  0  0  0  0
  187.8090  176.4330  144.6130 C   0  0  0  0  0  2  0  0  0  0  0  0
  187.0810  177.2990  143.5810 C   0  0  1  0  0  3  0  0  0  0  0  0
  189.2570  178.2070  142.7350 C   0  0  0  0  0  2  0  0  0  0  0  0
  189.9140  177.5810  143.9310 C   0  0  0  0  0  3  0  0  0  0  0  0
  186.6510  178.6340  144.1950 C   0  0  0  0  0  2  0  0  0  0  0  0
  185.1350  178.7860  144.1710 C   0  0  0  0  0  2  0  0  0  0  0  0
  184.5770  178.9400  145.5760 C   0  0  0  0  0  2  0  0  0  0  0  0
  184.8060  177.6760  146.3830 C   0  0  0  0  0  2  0  0  0  0  0  0
  185.6260  178.0100  147.6120 C   0  0  0  0  0  1  0  0  0  0  0  0
  187.2660  178.1960  141.2090 C   0  0  0  0  0  2  0  0  0  0  0  0
  184.9030  178.1840  140.4990 C   0  0  0  0  0  2  0  0  0  0  0  0
  185.9920  177.4980  140.8360 C   0  0  0  0  0  3  0  0  0  0  0  0
  1  4  1  0  0  0  0
  1  5  1  1  0  0  0
  3  7  1  0  0  0  0
  3  2  2  0  0  0  0
  4 26  1  6  0  0  0
  6 13  1  6  0  0  0
  6  8  1  0  0  0  0
  7  4  1  0  0  0  0
  8  5  1  0  0  0  0
  9  3  1  1  0  0  0
  9  6  1  0  0  0  0
  9  1  1  0  0  0  0
 10 11  2  0  0  0  0
 10 12  1  0  0  0  0
 11 15  1  0  0  0  0
 12 14  2  0  0  0  0
 14 13  1  0  0  0  0
 14 18  1  0  0  0  0
 15 13  2  0  0  0  0
 17 18  1  0  0  0  0
 17 19  1  0  0  0  0
 18 16  2  0  0  0  0
 19 20  1  0  0  0  0
 21 20  1  0  0  0  0
 21 24  1  0  0  0  0
 24 22  2  0  0  0  0
 24 23  1  0  0  0  0
 26 25  2  0  0  0  0
 27 26  1  0  0  0  0
 28 38  1  6  0  0  0
 28 31  1  0  0  0  0
 28 30  1  0  0  0  0
 29 27  1  0  0  0  0
 30 33  1  1  0  0  0
 30 29  1  0  0  0  0
 31 32  1  0  0  0  0
 32 27  2  0  0  0  0
 34 33  1  0  0  0  0
 34 35  1  0  0  0  0
 35 36  1  0  0  0  0
 36 37  1  0  0  0  0
 39 40  2  0  0  0  0
 40 38  1  0  0  0  0
M  END
>  <MODEL>
5

>  <REMARK>
 VINA RESULT:      -6.9      4.026     10.977
  Name = 
  14 active torsions:
  status: ('A' for Active; 'I' for Inactive)
    1  A    between atoms: C_7  and  C_8
    2  A    between atoms: C_7  and  C_23
    3  A    between atoms: C_8  and  N_31
    4  A    between atoms: C_9  and  C_11
    5  A    between atoms: C_11  and  C_18
    6  A    between atoms: C_14  and  C_16
    7  A    between atoms: C_15  and  C_19
    8  A    between atoms: C_15  and  C_29
    9  A    between atoms: C_19  and  C_36
   10  A    between atoms: C_20  and  C_29
   11  A    between atoms: C_23  and  C_40
   12  A    between atoms: C_24  and  C_25
   13  A    between atoms: C_24  and  C_26
   14  A    between atoms: C_27  and  C_35
                            x       y       z     vdW  Elec       q    Type
                         _______ _______ _______ _____ _____    ______ ____

>  <TORSDO>
F 14

$$$$
=
 OpenBabel11072409313D

 40 43  0  0  1  0  0  0  0  0999 V2000
  189.8370  174.1610  143.2050 N   0  0  1  0  0  0  0  0  0  0  0  0
  193.0090  173.1200  142.7990 N   0  0  0  0  0  2  0  0  0  0  0  0
  192.1550  174.0540  142.5790 C   0  0  0  0  0  0  0  0  0  0  0  0
  189.8540  173.7150  141.8070 C   0  0  2  0  0  3  0  0  0  0  0  0
  189.4290  173.0190  144.0170 C   0  0  0  0  0  2  0  0  0  0  0  0
  191.4410  173.8730  145.0010 C   0  0  1  0  0  3  0  0  0  0  0  0
  191.4100  174.1870  140.9830 S   0  0  0  0  0  0  0  0  0  0  0  0
  190.1910  173.0860  145.3210 C   0  0  0  0  0  2  0  0  0  0  0  0
  191.1970  174.4990  143.6330 C   0  0  2  0  0  3  0  0  0  0  0  0
  192.0950  176.9410  147.9640 C   0  0  0  0  0  3  0  0  0  0  0  0
  190.8080  176.4810  147.6900 C   0  0  0  0  0  3  0  0  0  0  0  0
  193.1870  176.4020  147.2820 C   0  0  0  0  0  3  0  0  0  0  0  0
  191.7070  174.9250  146.0440 C   0  0  0  0  0  0  0  0  0  0  0  0
  193.0200  175.3950  146.3170 C   0  0  0  0  0  0  0  0  0  0  0  0
  190.6160  175.4840  146.7360 C   0  0  0  0  0  3  0  0  0  0  0  0
  194.6030  173.6870  145.7660 O   0  0  0  0  0  0  0  0  0  0  0  0
  194.9950  175.7620  144.7940 N   0  0  0  0  0  2  0  0  0  0  0  0
  194.2340  174.8860  145.6300 C   0  0  0  0  0  0  0  0  0  0  0  0
  196.2190  175.3520  144.1230 C   0  0  0  0  0  2  0  0  0  0  0  0
  195.9650  175.1930  142.6350 C   0  0  0  0  0  2  0  0  0  0  0  0
  197.1370  175.7450  141.8410 C   0  0  0  0  0  2  0  0  0  0  0  0
  195.6740  175.6090  139.9640 O   0  0  0  0  0  0  0  0  0  0  0  0
  197.9400  175.6160  139.4500 N   0  0  0  0  0  1  0  0  0  0  0  0
  196.8610  175.6660  140.3790 C   0  0  0  0  0  0  0  0  0  0  0  0
  188.3330  173.7700  139.9740 O   0  0  0  0  0  0  0  0  0  0  0  0
  188.6770  174.2830  141.0720 C   0  0  0  0  0  0  0  0  0  0  0  0
  187.9250  175.4310  141.6120 C   0  0  0  0  0  0  0  0  0  0  0  0
  186.1640  177.5550  142.3680 C   0  0  2  0  0  3  0  0  0  0  0  0
  186.8430  175.1690  142.6400 C   0  0  0  0  0  2  0  0  0  0  0  0
  186.3810  176.4280  143.3800 C   0  0  1  0  0  3  0  0  0  0  0  0
  187.4760  177.8950  141.6710 C   0  0  0  0  0  2  0  0  0  0  0  0
  188.1530  176.6660  141.1370 C   0  0  0  0  0  3  0  0  0  0  0  0
  187.3720  176.8080  144.4830 C   0  0  0  0  0  2  0  0  0  0  0  0
  186.7350  176.6760  145.8610 C   0  0  0  0  0  2  0  0  0  0  0  0
  186.8990  177.9550  146.6670 C   0  0  0  0  0  2  0  0  0  0  0  0
  185.5450  178.5540  146.9980 C   0  0  0  0  0  2  0  0  0  0  0  0
  184.4550  177.6200  146.5150 C   0  0  0  0  0  1  0  0  0  0  0  0
  185.5520  178.8020  143.0020 C   0  0  0  0  0  2  0  0  0  0  0  0
  183.3160  178.2880  142.0950 C   0  0  0  0  0  2  0  0  0  0  0  0
  184.0640  178.6710  143.1270 C   0  0  0  0  0  3  0  0  0  0  0  0
  1  9  1  0  0  0  0
  1  5  1  1  0  0  0
  3  2  2  0  0  0  0
  4 26  1  6  0  0  0
  4  1  1  0  0  0  0
  5  8  1  0  0  0  0
  6  8  1  0  0  0  0
  6 13  1  1  0  0  0
  7  4  1  0  0  0  0
  7  3  1  0  0  0  0
  9  3  1  6  0  0  0
  9  6  1  0  0  0  0
 11 10  1  0  0  0  0
 12 10  2  0  0  0  0
 13 14  2  0  0  0  0
 13 15  1  0  0  0  0
 14 12  1  0  0  0  0
 15 11  2  0  0  0  0
 17 18  1  0  0  0  0
 18 16  2  0  0  0  0
 18 14  1  0  0  0  0
 19 17  1  0  0  0  0
 20 19  1  0  0  0  0
 21 20  1  0  0  0  0
 22 24  2  0  0  0  0
 23 24  1  0  0  0  0
 24 21  1  0  0  0  0
 25 26  2  0  0  0  0
 26 27  1  0  0  0  0
 27 29  1  0  0  0  0
 28 38  1  1  0  0  0
 28 30  1  0  0  0  0
 29 30  1  0  0  0  0
 30 33  1  1  0  0  0
 31 28  1  0  0  0  0
 32 27  2  0  0  0  0
 32 31  1  0  0  0  0
 33 34  1  0  0  0  0
 34 35  1  0  0  0  0
 35 36  1  0  0  0  0
 37 36  1  0  0  0  0
 38 40  1  0  0  0  0
 39 40  2  0  0  0  0
M  END
>  <MODEL>
6

>  <REMARK>
 VINA RESULT:      -6.8      3.417      9.404
  Name = 
  14 active torsions:
  status: ('A' for Active; 'I' for Inactive)
    1  A    between atoms: C_7  and  C_8
    2  A    between atoms: C_7  and  C_23
    3  A    between atoms: C_8  and  N_31
    4  A    between atoms: C_9  and  C_11
    5  A    between atoms: C_11  and  C_18
    6  A    between atoms: C_14  and  C_16
    7  A    between atoms: C_15  and  C_19
    8  A    between atoms: C_15  and  C_29
    9  A    between atoms: C_19  and  C_36
   10  A    between atoms: C_20  and  C_29
   11  A    between atoms: C_23  and  C_40
   12  A    between atoms: C_24  and  C_25
   13  A    between atoms: C_24  and  C_26
   14  A    between atoms: C_27  and  C_35
                            x       y       z     vdW  Elec       q    Type
                         _______ _______ _______ _____ _____    ______ ____

>  <TORSDO>
F 14

$$$$
=
 OpenBabel11072409313D

 40 43  0  0  1  0  0  0  0  0999 V2000
  192.7220  174.6560  145.5520 N   0  0  1  0  0  0  0  0  0  0  0  0
  195.6270  176.1220  144.7000 N   0  0  0  0  0  2  0  0  0  0  0  0
  194.9010  175.6660  145.6560 C   0  0  0  0  0  0  0  0  0  0  0  0
  192.4970  176.0590  145.9200 C   0  0  2  0  0  3  0  0  0  0  0  0
  192.2540  174.4900  144.1800 C   0  0  0  0  0  2  0  0  0  0  0  0
  194.4790  173.6000  144.2560 C   0  0  1  0  0  3  0  0  0  0  0  0
  193.9890  176.7940  146.6640 S   0  0  0  0  0  0  0  0  0  0  0  0
  193.1760  173.5050  143.4960 C   0  0  0  0  0  2  0  0  0  0  0  0
  194.1610  174.3770  145.5280 C   0  0  2  0  0  3  0  0  0  0  0  0
  196.0040  169.6940  145.2740 C   0  0  0  0  0  3  0  0  0  0  0  0
  194.7950  170.1450  145.8020 C   0  0  0  0  0  3  0  0  0  0  0  0
  196.7290  170.5080  144.4020 C   0  0  0  0  0  3  0  0  0  0  0  0
  195.0290  172.2340  144.5720 C   0  0  0  0  0  0  0  0  0  0  0  0
  196.2640  171.7820  144.0360 C   0  0  0  0  0  0  0  0  0  0  0  0
  194.3140  171.4050  145.4560 C   0  0  0  0  0  3  0  0  0  0  0  0
  197.8210  173.5310  143.5390 O   0  0  0  0  0  0  0  0  0  0  0  0
  197.1060  172.2810  141.7130 N   0  0  0  0  0  2  0  0  0  0  0  0
  197.1030  172.5860  143.1110 C   0  0  0  0  0  0  0  0  0  0  0  0
  197.8650  173.0490  140.7380 C   0  0  0  0  0  2  0  0  0  0  0  0
  196.9210  173.8720  139.8800 C   0  0  0  0  0  2  0  0  0  0  0  0
  195.6300  174.1450  140.6320 C   0  0  0  0  0  2  0  0  0  0  0  0
  194.4900  176.1830  141.1070 O   0  0  0  0  0  0  0  0  0  0  0  0
  196.7800  176.2220  141.4920 N   0  0  0  0  0  1  0  0  0  0  0  0
  195.5840  175.5600  141.0970 C   0  0  0  0  0  0  0  0  0  0  0  0
  191.5170  175.9370  148.0880 O   0  0  0  0  0  0  0  0  0  0  0  0
  191.3350  176.1620  146.8620 C   0  0  0  0  0  0  0  0  0  0  0  0
  189.9890  176.5160  146.3730 C   0  0  0  0  0  0  0  0  0  0  0  0
  187.4110  177.5480  145.6830 C   0  0  2  0  0  3  0  0  0  0  0  0
  189.8680  177.5200  145.2450 C   0  0  0  0  0  2  0  0  0  0  0  0
  188.4840  177.5470  144.5910 C   0  0  1  0  0  3  0  0  0  0  0  0
  187.4990  176.2700  146.5070 C   0  0  0  0  0  2  0  0  0  0  0  0
  188.9010  176.0090  146.9760 C   0  0  0  0  0  3  0  0  0  0  0  0
  188.3230  176.3850  143.6070 C   0  0  0  0  0  2  0  0  0  0  0  0
  188.7110  176.8050  142.1940 C   0  0  0  0  0  2  0  0  0  0  0  0
  187.7910  177.8970  141.6740 C   0  0  0  0  0  2  0  0  0  0  0  0
  186.7460  177.3150  140.7410 C   0  0  0  0  0  2  0  0  0  0  0  0
  185.6030  178.2990  140.5970 C   0  0  0  0  0  1  0  0  0  0  0  0
  186.0040  177.7310  145.1210 C   0  0  0  0  0  2  0  0  0  0  0  0
  185.4200  179.7830  143.8820 C   0  0  0  0  0  2  0  0  0  0  0  0
  185.6330  179.1820  145.0500 C   0  0  0  0  0  3  0  0  0  0  0  0
  1  5  1  6  0  0  0
  1  4  1  0  0  0  0
  2  3  2  0  0  0  0
  3  7  1  0  0  0  0
  4  7  1  0  0  0  0
  4 26  1  1  0  0  0
  6 13  1  1  0  0  0
  6  9  1  0  0  0  0
  8  5  1  0  0  0  0
  8  6  1  0  0  0  0
  9  1  1  0  0  0  0
  9  3  1  6  0  0  0
 10 11  1  0  0  0  0
 12 10  2  0  0  0  0
 13 15  1  0  0  0  0
 14 12  1  0  0  0  0
 14 13  2  0  0  0  0
 15 11  2  0  0  0  0
 17 18  1  0  0  0  0
 18 16  2  0  0  0  0
 18 14  1  0  0  0  0
 19 17  1  0  0  0  0
 20 21  1  0  0  0  0
 20 19  1  0  0  0  0
 21 24  1  0  0  0  0
 24 22  2  0  0  0  0
 24 23  1  0  0  0  0
 26 25  2  0  0  0  0
 27 26  1  0  0  0  0
 27 32  2  0  0  0  0
 28 38  1  6  0  0  0
 28 31  1  0  0  0  0
 29 27  1  0  0  0  0
 30 33  1  6  0  0  0
 30 29  1  0  0  0  0
 30 28  1  0  0  0  0
 31 32  1  0  0  0  0
 34 33  1  0  0  0  0
 35 34  1  0  0  0  0
 36 35  1  0  0  0  0
 37 36  1  0  0  0  0
 39 40  2  0  0  0  0
 40 38  1  0  0  0  0
M  END
>  <MODEL>
7

>  <REMARK>
 VINA RESULT:      -6.7      4.623     10.442
  Name = 
  14 active torsions:
  status: ('A' for Active; 'I' for Inactive)
    1  A    between atoms: C_7  and  C_8
    2  A    between atoms: C_7  and  C_23
    3  A    between atoms: C_8  and  N_31
    4  A    between atoms: C_9  and  C_11
    5  A    between atoms: C_11  and  C_18
    6  A    between atoms: C_14  and  C_16
    7  A    between atoms: C_15  and  C_19
    8  A    between atoms: C_15  and  C_29
    9  A    between atoms: C_19  and  C_36
   10  A    between atoms: C_20  and  C_29
   11  A    between atoms: C_23  and  C_40
   12  A    between atoms: C_24  and  C_25
   13  A    between atoms: C_24  and  C_26
   14  A    between atoms: C_27  and  C_35
                            x       y       z     vdW  Elec       q    Type
                         _______ _______ _______ _____ _____    ______ ____

>  <TORSDO>
F 14

$$$$
=
 OpenBabel11072409313D

 40 43  0  0  1  0  0  0  0  0999 V2000
  191.0110  175.0490  142.4140 N   0  0  1  0  0  0  0  0  0  0  0  0
  192.4350  172.0150  142.6920 N   0  0  0  0  0  2  0  0  0  0  0  0
  192.0080  172.9250  141.8920 C   0  0  0  0  0  0  0  0  0  0  0  0
  189.8930  174.1400  142.1310 C   0  0  2  0  0  3  0  0  0  0  0  0
  190.9970  175.3160  143.8480 C   0  0  0  0  0  2  0  0  0  0  0  0
  193.2300  174.6360  143.3030 C   0  0  1  0  0  3  0  0  0  0  0  0
  190.4340  172.7260  141.1160 S   0  0  0  0  0  0  0  0  0  0  0  0
  192.4320  175.4330  144.3090 C   0  0  0  0  0  2  0  0  0  0  0  0
  192.2810  174.3710  142.1390 C   0  0  2  0  0  3  0  0  0  0  0  0
  196.7000  176.7760  141.8910 C   0  0  0  0  0  3  0  0  0  0  0  0
  195.5120  176.7880  141.1610 C   0  0  0  0  0  3  0  0  0  0  0  0
  196.7710  176.0720  143.0940 C   0  0  0  0  0  3  0  0  0  0  0  0
  194.4520  175.3900  142.8510 C   0  0  0  0  0  0  0  0  0  0  0  0
  195.6620  175.3700  143.5950 C   0  0  0  0  0  0  0  0  0  0  0  0
  194.4000  176.0980  141.6360 C   0  0  0  0  0  3  0  0  0  0  0  0
  195.3210  175.0800  145.9470 O   0  0  0  0  0  0  0  0  0  0  0  0
  196.5610  173.4130  144.9040 N   0  0  0  0  0  2  0  0  0  0  0  0
  195.8260  174.6400  144.8780 C   0  0  0  0  0  0  0  0  0  0  0  0
  196.8040  172.6610  146.1260 C   0  0  0  0  0  2  0  0  0  0  0  0
  196.7590  171.1720  145.8350 C   0  0  0  0  0  2  0  0  0  0  0  0
  195.5950  170.8520  144.9140 C   0  0  0  0  0  2  0  0  0  0  0  0
  194.8090  169.5930  146.7790 O   0  0  0  0  0  0  0  0  0  0  0  0
  193.6220  169.2800  144.8070 N   0  0  0  0  0  1  0  0  0  0  0  0
  194.6600  169.8920  145.5650 C   0  0  0  0  0  0  0  0  0  0  0  0
  188.4750  174.5740  140.2670 O   0  0  0  0  0  0  0  0  0  0  0  0
  188.7870  174.8850  141.4470 C   0  0  0  0  0  0  0  0  0  0  0  0
  188.0660  175.9740  142.1330 C   0  0  0  0  0  0  0  0  0  0  0  0
  186.3090  177.9050  143.3030 C   0  0  2  0  0  3  0  0  0  0  0  0
  187.4570  175.6970  143.4920 C   0  0  0  0  0  2  0  0  0  0  0  0
  187.0510  176.9620  144.2540 C   0  0  1  0  0  3  0  0  0  0  0  0
  187.2290  178.3350  142.1670 C   0  0  0  0  0  2  0  0  0  0  0  0
  187.8970  177.1570  141.5200 C   0  0  0  0  0  3  0  0  0  0  0  0
  188.2700  177.6200  144.9070 C   0  0  0  0  0  2  0  0  0  0  0  0
  188.4180  177.1810  146.3580 C   0  0  0  0  0  2  0  0  0  0  0  0
  188.3050  175.6710  146.4900 C   0  0  0  0  0  2  0  0  0  0  0  0
  189.4550  175.1190  147.3110 C   0  0  0  0  0  2  0  0  0  0  0  0
  190.5420  176.1680  147.4140 C   0  0  0  0  0  1  0  0  0  0  0  0
  185.7330  179.1230  144.0200 C   0  0  0  0  0  2  0  0  0  0  0  0
  184.3130  178.6490  145.9800 C   0  0  0  0  0  2  0  0  0  0  0  0
  184.4170  178.8010  144.6630 C   0  0  0  0  0  3  0  0  0  0  0  0
  1  5  1  1  0  0  0
  3  2  2  0  0  0  0
  4 26  1  6  0  0  0
  4  1  1  0  0  0  0
  5  8  1  0  0  0  0
  6 13  1  6  0  0  0
  6  8  1  0  0  0  0
  7  3  1  0  0  0  0
  7  4  1  0  0  0  0
  9  3  1  1  0  0  0
  9  1  1  0  0  0  0
  9  6  1  0  0  0  0
 10 12  1  0  0  0  0
 11 15  1  0  0  0  0
 11 10  2  0  0  0  0
 12 14  2  0  0  0  0
 13 14  1  0  0  0  0
 14 18  1  0  0  0  0
 15 13  2  0  0  0  0
 17 19  1  0  0  0  0
 18 17  1  0  0  0  0
 18 16  2  0  0  0  0
 20 19  1  0  0  0  0
 21 24  1  0  0  0  0
 21 20  1  0  0  0  0
 23 24  1  0  0  0  0
 24 22  2  0  0  0  0
 25 26  2  0  0  0  0
 26 27  1  0  0  0  0
 27 29  1  0  0  0  0
 28 38  1  1  0  0  0
 28 30  1  0  0  0  0
 29 30  1  0  0  0  0
 30 33  1  6  0  0  0
 31 28  1  0  0  0  0
 32 27  2  0  0  0  0
 32 31  1  0  0  0  0
 33 34  1  0  0  0  0
 34 35  1  0  0  0  0
 35 36  1  0  0  0  0
 36 37  1  0  0  0  0
 38 40  1  0  0  0  0
 40 39  2  0  0  0  0
M  END
>  <MODEL>
8

>  <REMARK>
 VINA RESULT:      -6.7      3.682     10.182
  Name = 
  14 active torsions:
  status: ('A' for Active; 'I' for Inactive)
    1  A    between atoms: C_7  and  C_8
    2  A    between atoms: C_7  and  C_23
    3  A    between atoms: C_8  and  N_31
    4  A    between atoms: C_9  and  C_11
    5  A    between atoms: C_11  and  C_18
    6  A    between atoms: C_14  and  C_16
    7  A    between atoms: C_15  and  C_19
    8  A    between atoms: C_15  and  C_29
    9  A    between atoms: C_19  and  C_36
   10  A    between atoms: C_20  and  C_29
   11  A    between atoms: C_23  and  C_40
   12  A    between atoms: C_24  and  C_25
   13  A    between atoms: C_24  and  C_26
   14  A    between atoms: C_27  and  C_35
                            x       y       z     vdW  Elec       q    Type
                         _______ _______ _______ _____ _____    ______ ____

>  <TORSDO>
F 14

$$$$
=
 OpenBabel11072409313D

 40 43  0  0  1  0  0  0  0  0999 V2000
  191.9870  175.9200  145.3960 N   0  0  1  0  0  0  0  0  0  0  0  0
  191.9880  172.6500  144.6110 N   0  0  0  0  0  2  0  0  0  0  0  0
  191.6300  173.8320  144.2600 C   0  0  0  0  0  0  0  0  0  0  0  0
  190.6210  175.5040  145.7410 C   0  0  2  0  0  3  0  0  0  0  0  0
  192.8010  175.7660  146.5960 C   0  0  0  0  0  2  0  0  0  0  0  0
  193.9630  174.6320  144.8320 C   0  0  1  0  0  3  0  0  0  0  0  0
  189.9560  174.3390  144.5080 S   0  0  0  0  0  0  0  0  0  0  0  0
  194.1780  175.3150  146.1630 C   0  0  0  0  0  2  0  0  0  0  0  0
  192.5470  175.0000  144.4020 C   0  0  2  0  0  3  0  0  0  0  0  0
  196.8400  176.0400  141.9420 C   0  0  0  0  0  3  0  0  0  0  0  0
  196.5490  176.7920  143.0800 C   0  0  0  0  0  3  0  0  0  0  0  0
  196.2030  174.8160  141.7350 C   0  0  0  0  0  3  0  0  0  0  0  0
  194.9780  175.0820  143.8160 C   0  0  0  0  0  0  0  0  0  0  0  0
  195.2670  174.3160  142.6550 C   0  0  0  0  0  0  0  0  0  0  0  0
  195.6240  176.3180  144.0060 C   0  0  0  0  0  3  0  0  0  0  0  0
  195.0080  171.9510  142.9250 O   0  0  0  0  0  0  0  0  0  0  0  0
  193.5590  172.9490  141.4040 N   0  0  0  0  0  2  0  0  0  0  0  0
  194.6280  173.0100  142.3520 C   0  0  0  0  0  0  0  0  0  0  0  0
  192.9110  171.7030  141.0210 C   0  0  0  0  0  2  0  0  0  0  0  0
  191.6660  171.9980  140.2030 C   0  0  0  0  0  2  0  0  0  0  0  0
  190.4780  172.2310  141.1210 C   0  0  0  0  0  2  0  0  0  0  0  0
  189.1170  174.1620  140.8120 O   0  0  0  0  0  0  0  0  0  0  0  0
  188.7120  172.4210  139.3270 N   0  0  0  0  0  1  0  0  0  0  0  0
  189.4170  173.0040  140.4180 C   0  0  0  0  0  0  0  0  0  0  0  0
  189.7050  177.3420  146.9470 O   0  0  0  0  0  0  0  0  0  0  0  0
  189.7330  176.7060  145.8600 C   0  0  0  0  0  0  0  0  0  0  0  0
  188.8930  177.1470  144.7310 C   0  0  0  0  0  0  0  0  0  0  0  0
  187.3100  177.5980  142.3920 C   0  0  2  0  0  3  0  0  0  0  0  0
  187.4120  176.8310  144.7640 C   0  0  0  0  0  2  0  0  0  0  0  0
  186.5910  177.6230  143.7430 C   0  0  1  0  0  3  0  0  0  0  0  0
  188.6690  178.2780  142.5070 C   0  0  0  0  0  2  0  0  0  0  0  0
  189.4560  177.7470  143.6690 C   0  0  0  0  0  3  0  0  0  0  0  0
  186.3240  179.0460  144.2430 C   0  0  0  0  0  2  0  0  0  0  0  0
  184.8560  179.2320  144.6090 C   0  0  0  0  0  2  0  0  0  0  0  0
  184.5420  178.6000  145.9560 C   0  0  0  0  0  2  0  0  0  0  0  0
  185.5390  179.0570  147.0040 C   0  0  0  0  0  2  0  0  0  0  0  0
  185.9520  177.8710  147.8510 C   0  0  0  0  0  1  0  0  0  0  0  0
  186.4830  178.2330  141.2770 C   0  0  0  0  0  2  0  0  0  0  0  0
  184.1060  178.2960  140.6190 C   0  0  0  0  0  2  0  0  0  0  0  0
  185.0990  177.6580  141.2330 C   0  0  0  0  0  3  0  0  0  0  0  0
  1  4  1  0  0  0  0
  1  5  1  1  0  0  0
  3  7  1  0  0  0  0
  3  2  2  0  0  0  0
  4 26  1  6  0  0  0
  6 13  1  6  0  0  0
  6  8  1  0  0  0  0
  7  4  1  0  0  0  0
  8  5  1  0  0  0  0
  9  3  1  1  0  0  0
  9  6  1  0  0  0  0
  9  1  1  0  0  0  0
 10 11  1  0  0  0  0
 11 15  2  0  0  0  0
 12 10  2  0  0  0  0
 12 14  1  0  0  0  0
 13 15  1  0  0  0  0
 14 13  2  0  0  0  0
 17 18  1  0  0  0  0
 18 14  1  0  0  0  0
 18 16  2  0  0  0  0
 19 17  1  0  0  0  0
 20 19  1  0  0  0  0
 20 21  1  0  0  0  0
 23 24  1  0  0  0  0
 24 22  2  0  0  0  0
 24 21  1  0  0  0  0
 26 25  2  0  0  0  0
 27 29  1  0  0  0  0
 27 26  1  0  0  0  0
 28 38  1  6  0  0  0
 28 31  1  0  0  0  0
 28 30  1  0  0  0  0
 30 33  1  1  0  0  0
 30 29  1  0  0  0  0
 31 32  1  0  0  0  0
 32 27  2  0  0  0  0
 33 34  1  0  0  0  0
 34 35  1  0  0  0  0
 35 36  1  0  0  0  0
 36 37  1  0  0  0  0
 39 40  2  0  0  0  0
 40 38  1  0  0  0  0
M  END
>  <MODEL>
9

>  <REMARK>
 VINA RESULT:      -6.7      3.528      9.100
  Name = 
  14 active torsions:
  status: ('A' for Active; 'I' for Inactive)
    1  A    between atoms: C_7  and  C_8
    2  A    between atoms: C_7  and  C_23
    3  A    between atoms: C_8  and  N_31
    4  A    between atoms: C_9  and  C_11
    5  A    between atoms: C_11  and  C_18
    6  A    between atoms: C_14  and  C_16
    7  A    between atoms: C_15  and  C_19
    8  A    between atoms: C_15  and  C_29
    9  A    between atoms: C_19  and  C_36
   10  A    between atoms: C_20  and  C_29
   11  A    between atoms: C_23  and  C_40
   12  A    between atoms: C_24  and  C_25
   13  A    between atoms: C_24  and  C_26
   14  A    between atoms: C_27  and  C_35
                            x       y       z     vdW  Elec       q    Type
                         _______ _______ _______ _____ _____    ______ ____

>  <TORSDO>
F 14

$$$$
