=
 OpenBabel11062418353D

 55 59  0  0  1  0  0  0  0  0999 V2000
  189.9650  175.8870  142.0740 C   0  0  0  0  0  2  0  0  0  0  0  0
  190.7710  171.2660  141.1480 C   0  0  0  0  0  0  0  0  0  0  0  0
  190.4790  174.7320  142.4870 C   0  0  0  0  0  0  0  0  0  0  0  0
  195.0120  174.6260  138.8970 O   0  0  0  0  0  1  0  0  0  0  0  0
  196.3560  174.4050  141.4440 C   0  0  0  0  0  2  0  0  0  0  0  0
  191.7340  171.2800  140.0770 N   0  0  0  0  0  0  0  0  0  0  0  0
  194.6680  170.9180  137.7740 O   0  0  0  0  0  0  0  0  0  0  0  0
  190.9150  174.6130  143.9340 C   0  0  2  0  0  3  0  0  0  0  0  0
  193.5800  171.9720  137.7430 P   0  0  2  0  0  0  0  0  0  0  0  0
  193.0500  171.8310  140.3990 C   0  0  0  0  0  2  0  0  0  0  0  0
  196.6230  174.7450  142.9170 C   0  0  2  0  0  3  0  0  0  0  0  0
  196.5260  172.3690  144.0870 C   0  0  0  0  0  3  0  0  0  0  0  0
  195.4370  174.7370  144.6070 C   0  0  1  0  0  0  0  0  0  0  0  0
  190.2600  170.1770  141.5230 O   0  0  0  0  0  0  0  0  0  0  0  0
  193.9790  174.3880  144.8100 C   0  0  0  0  0  3  0  0  0  0  0  0
  196.5270  176.9910  144.0200 C   0  0  0  0  0  1  0  0  0  0  0  0
  190.8700  173.7270  141.4420 C   0  0  0  0  0  2  0  0  0  0  0  0
  193.5000  172.8410  139.3400 C   0  0  1  0  0  3  0  0  0  0  0  0
  193.2390  173.7310  143.9140 C   0  0  0  0  0  3  0  0  0  0  0  0
  196.0230  175.0440  145.8380 O   0  0  0  0  0  1  0  0  0  0  0  0
  194.9580  173.8740  141.1510 C   0  0  0  0  0  2  0  0  0  0  0  0
  194.6360  176.1470  142.7830 F   0  0  0  0  0  0  0  0  0  0  0  0
  190.4080  172.4360  141.8170 O   0  0  0  0  0  0  0  0  0  0  0  0
  194.8460  173.4860  139.6800 C   0  0  2  0  0  3  0  0  0  0  0  0
  196.2440  173.6510  143.9050 C   0  0  0  0  0  0  0  0  0  0  0  0
  195.9840  171.6800  145.1600 O   0  0  0  0  0  1  0  0  0  0  0  0
  191.8140  173.4130  144.2230 C   0  0  0  0  0  2  0  0  0  0  0  0
  191.6240  170.4020  138.8890 C   0  0  2  0  0  3  0  0  0  0  0  0
  191.9610  171.1620  137.6080 C   0  0  0  0  0  2  0  0  0  0  0  0
  195.7330  175.7800  143.5490 C   0  0  1  0  0  0  0  0  0  0  0  0
  192.9980  174.3810  136.5040 C   0  0  0  0  0  2  0  0  0  0  0  0
  193.8580  175.6510  136.5330 C   0  0  2  0  0  3  0  0  0  0  0  0
  193.0730  176.8420  136.2300 N   0  0  0  0  0  0  0  0  0  0  0  0
  195.6160  174.4060  135.0580 C   0  0  0  0  0  2  0  0  0  0  0  0
  195.3380  173.3220  136.1020 C   0  0  0  0  0  2  0  0  0  0  0  0
  193.0310  178.6010  134.5370 C   0  0  0  0  0  1  0  0  0  0  0  0
  193.5630  177.3520  135.1460 C   0  0  0  0  0  0  0  0  0  0  0  0
  194.6220  176.6010  134.5670 N   0  0  0  0  0  0  0  0  0  0  0  0
  193.8270  173.0860  136.3200 C   0  0  1  0  0  3  0  0  0  0  0  0
  194.7940  175.6120  135.3780 C   0  0  0  0  0  0  0  0  0  0  0  0
  190.5580  176.3000  146.2900 O   0  0  0  0  0  0  0  0  0  0  0  0
  189.6160  175.5440  145.9420 C   0  0  0  0  0  0  0  0  0  0  0  0
  189.7750  174.6320  144.8520 N   0  0  0  0  0  2  0  0  0  0  0  0
  188.3310  175.5830  146.6920 C   0  0  0  0  0  2  0  0  0  0  0  0
  187.8700  177.0090  146.9430 C   0  0  0  0  0  2  0  0  0  0  0  0
  186.1100  178.4330  148.0020 C   0  0  0  0  0  1  0  0  0  0  0  0
  186.4040  177.0920  147.3730 C   0  0  1  0  0  3  0  0  0  0  0  0
  185.3220  176.8660  145.9350 S   0  0  0  0  0  0  0  0  0  0  0  0
  186.7890  177.2200  143.5980 C   0  0  0  0  0  1  0  0  0  0  0  0
  186.3480  177.9400  144.8710 C   0  0  1  0  0  3  0  0  0  0  0  0
  184.1160  179.1590  144.6970 C   0  0  0  0  0  1  0  0  0  0  0  0
  185.6360  179.2530  144.5370 C   0  0  0  0  0  2  0  0  0  0  0  0
  189.2870  170.4810  138.3390 O   0  0  0  0  0  0  0  0  0  0  0  0
  190.0890  168.4330  138.9920 O   0  0  0  0  0  1  0  0  0  0  0  0
  190.2660  169.7840  138.7220 C   0  0  0  0  0  0  0  0  0  0  0  0
  1  3  2  0  0  0  0
  2 14  2  0  0  0  0
  2 23  1  0  0  0  0
  3  8  1  0  0  0  0
  6 10  1  0  0  0  0
  6  2  1  0  0  0  0
  8 27  1  0  0  0  0
  8 43  1  1  0  0  0
  9  7  2  1  0  0  0
  9 18  1  0  0  0  0
 11  5  1  6  0  0  0
 11 30  1  0  0  0  0
 11 25  1  0  0  0  0
 12 26  1  0  0  0  0
 13 15  1  0  0  0  0
 13 20  1  1  0  0  0
 17 23  1  0  0  0  0
 17  3  1  0  0  0  0
 18 24  1  0  0  0  0
 18 10  1  1  0  0  0
 19 27  1  0  0  0  0
 19 15  2  0  0  0  0
 21  5  1  0  0  0  0
 22 30  1  0  0  0  0
 24  4  1  6  0  0  0
 24 21  1  0  0  0  0
 25 12  2  0  0  0  0
 25 13  1  0  0  0  0
 28 55  1  6  0  0  0
 28  6  1  0  0  0  0
 29  9  1  0  0  0  0
 29 28  1  0  0  0  0
 30 16  1  1  0  0  0
 30 13  1  0  0  0  0
 32 31  1  6  0  0  0
 33 32  1  0  0  0  0
 34 40  1  0  0  0  0
 34 35  1  0  0  0  0
 36 37  1  0  0  0  0
 37 33  2  0  0  0  0
 38 37  1  0  0  0  0
 38 40  2  0  0  0  0
 39 35  1  1  0  0  0
 39 31  1  0  0  0  0
 39  9  1  0  0  0  0
 40 32  1  0  0  0  0
 42 41  2  0  0  0  0
 42 44  1  0  0  0  0
 43 42  1  0  0  0  0
 44 45  1  0  0  0  0
 45 47  1  0  0  0  0
 47 46  1  6  0  0  0
 48 47  1  0  0  0  0
 50 49  1  6  0  0  0
 50 48  1  0  0  0  0
 52 51  1  0  0  0  0
 52 50  1  0  0  0  0
 53 55  2  0  0  0  0
 55 54  1  0  0  0  0
M  END
>  <MODEL>
1

>  <REMARK>
 VINA RESULT:      -7.4      0.000      0.000
  Name = 
  9 active torsions:
  status: ('A' for Active; 'I' for Inactive)
    1  A    between atoms: C_14  and  C_24
    2  A    between atoms: C_16  and  N_33
    3  A    between atoms: P_17  and  C_46
    4  A    between atoms: C_19  and  C_55
    5  A    between atoms: C_20  and  C_24
    6  A    between atoms: C_20  and  C_30
    7  A    between atoms: S_21  and  C_30
    8  A    between atoms: S_21  and  C_55
    9  A    between atoms: C_40  and  C_52
                            x       y       z     vdW  Elec       q    Type
                         _______ _______ _______ _____ _____    ______ ____

>  <TORSDO>
F 9

$$$$
=
 OpenBabel11062418353D

 55 59  0  0  1  0  0  0  0  0999 V2000
  191.1030  175.6440  142.4930 C   0  0  0  0  0  2  0  0  0  0  0  0
  191.2850  171.0570  141.1560 C   0  0  0  0  0  0  0  0  0  0  0  0
  191.5400  174.4150  142.7540 C   0  0  0  0  0  0  0  0  0  0  0  0
  195.5370  174.1620  138.5820 O   0  0  0  0  0  1  0  0  0  0  0  0
  197.1650  173.6060  140.9010 C   0  0  0  0  0  2  0  0  0  0  0  0
  192.0990  171.0640  139.9670 N   0  0  0  0  0  0  0  0  0  0  0  0
  194.6570  170.6080  137.2670 O   0  0  0  0  0  0  0  0  0  0  0  0
  192.1430  174.1370  144.1170 C   0  0  2  0  0  3  0  0  0  0  0  0
  193.6930  171.7620  137.4560 P   0  0  2  0  0  0  0  0  0  0  0  0
  193.4960  171.4570  140.1440 C   0  0  0  0  0  2  0  0  0  0  0  0
  197.6540  173.7970  142.3440 C   0  0  2  0  0  3  0  0  0  0  0  0
  197.4540  171.3550  143.3530 C   0  0  0  0  0  3  0  0  0  0  0  0
  196.7010  173.7670  144.1750 C   0  0  1  0  0  0  0  0  0  0  0  0
  190.7130  169.9960  141.5230 O   0  0  0  0  0  0  0  0  0  0  0  0
  195.2520  173.5450  144.5500 C   0  0  0  0  0  3  0  0  0  0  0  0
  197.9400  175.9450  143.5990 C   0  0  0  0  0  1  0  0  0  0  0  0
  191.6840  173.4650  141.6000 C   0  0  0  0  0  2  0  0  0  0  0  0
  193.9120  172.5010  139.1050 C   0  0  1  0  0  3  0  0  0  0  0  0
  194.3370  173.0380  143.7210 C   0  0  0  0  0  3  0  0  0  0  0  0
  197.4690  173.9140  145.3330 O   0  0  0  0  0  1  0  0  0  0  0  0
  195.6930  173.2380  140.7660 C   0  0  0  0  0  2  0  0  0  0  0  0
  195.8280  175.3910  142.5760 F   0  0  0  0  0  0  0  0  0  0  0  0
  191.1390  172.1980  141.9460 O   0  0  0  0  0  0  0  0  0  0  0  0
  195.3520  172.9830  139.3010 C   0  0  2  0  0  3  0  0  0  0  0  0
  197.2900  172.6680  143.2980 C   0  0  0  0  0  0  0  0  0  0  0  0
  196.9840  170.6360  144.4400 O   0  0  0  0  0  1  0  0  0  0  0  0
  192.9380  172.8350  144.1990 C   0  0  0  0  0  2  0  0  0  0  0  0
  191.7440  170.3010  138.7490 C   0  0  2  0  0  3  0  0  0  0  0  0
  191.9930  171.1260  137.4880 C   0  0  0  0  0  2  0  0  0  0  0  0
  196.9680  174.8590  143.1600 C   0  0  1  0  0  0  0  0  0  0  0  0
  193.0560  174.2400  136.3920 C   0  0  0  0  0  2  0  0  0  0  0  0
  193.9200  175.5060  136.4550 C   0  0  2  0  0  3  0  0  0  0  0  0
  193.1240  176.7130  136.2610 N   0  0  0  0  0  0  0  0  0  0  0  0
  195.6010  174.3520  134.8240 C   0  0  0  0  0  2  0  0  0  0  0  0
  195.3720  173.2080  135.8150 C   0  0  0  0  0  2  0  0  0  0  0  0
  193.0030  178.5690  134.6800 C   0  0  0  0  0  1  0  0  0  0  0  0
  193.5620  177.2870  135.1870 C   0  0  0  0  0  0  0  0  0  0  0  0
  194.5900  176.5720  134.5130 N   0  0  0  0  0  0  0  0  0  0  0  0
  193.8730  172.9590  136.0920 C   0  0  1  0  0  3  0  0  0  0  0  0
  194.7990  175.5370  135.2550 C   0  0  0  0  0  0  0  0  0  0  0  0
  192.3580  175.4870  146.6960 O   0  0  0  0  0  0  0  0  0  0  0  0
  191.2660  174.9430  146.3900 C   0  0  0  0  0  0  0  0  0  0  0  0
  191.1390  174.1910  145.1800 N   0  0  0  0  0  2  0  0  0  0  0  0
  190.1040  175.0650  147.3110 C   0  0  0  0  0  2  0  0  0  0  0  0
  188.8170  175.3510  146.5570 C   0  0  0  0  0  2  0  0  0  0  0  0
  189.0870  177.5830  145.4620 C   0  0  0  0  0  1  0  0  0  0  0  0
  188.4240  176.8300  146.5930 C   0  0  1  0  0  3  0  0  0  0  0  0
  186.6250  176.9990  146.4380 S   0  0  0  0  0  0  0  0  0  0  0  0
  186.2870  176.5020  143.7210 C   0  0  0  0  0  1  0  0  0  0  0  0
  186.7300  177.5800  144.7080 C   0  0  1  0  0  3  0  0  0  0  0  0
  185.0270  179.2090  145.6800 C   0  0  0  0  0  1  0  0  0  0  0  0
  185.9390  178.8720  144.4960 C   0  0  0  0  0  2  0  0  0  0  0  0
  190.0420  168.6090  138.8540 O   0  0  0  0  0  1  0  0  0  0  0  0
  189.2940  170.7590  138.5660 O   0  0  0  0  0  0  0  0  0  0  0  0
  190.3170  169.8330  138.7270 C   0  0  0  0  0  0  0  0  0  0  0  0
  1  3  2  0  0  0  0
  2 14  2  0  0  0  0
  2 23  1  0  0  0  0
  3  8  1  0  0  0  0
  6 10  1  0  0  0  0
  6  2  1  0  0  0  0
  8 27  1  0  0  0  0
  8 43  1  1  0  0  0
  9  7  2  6  0  0  0
  9 29  1  0  0  0  0
  9 18  1  0  0  0  0
 11  5  1  6  0  0  0
 11 30  1  0  0  0  0
 11 25  1  0  0  0  0
 12 26  1  0  0  0  0
 13 15  1  0  0  0  0
 13 20  1  1  0  0  0
 17 23  1  0  0  0  0
 17  3  1  0  0  0  0
 18 24  1  0  0  0  0
 18 10  1  1  0  0  0
 19 27  1  0  0  0  0
 19 15  2  0  0  0  0
 21  5  1  0  0  0  0
 22 30  1  0  0  0  0
 24  4  1  6  0  0  0
 24 21  1  0  0  0  0
 25 12  2  0  0  0  0
 25 13  1  0  0  0  0
 28 55  1  1  0  0  0
 28  6  1  0  0  0  0
 29 28  1  0  0  0  0
 30 16  1  1  0  0  0
 30 13  1  0  0  0  0
 32 31  1  6  0  0  0
 33 32  1  0  0  0  0
 34 40  1  0  0  0  0
 34 35  1  0  0  0  0
 36 37  1  0  0  0  0
 37 33  2  0  0  0  0
 38 37  1  0  0  0  0
 38 40  2  0  0  0  0
 39 35  1  1  0  0  0
 39 31  1  0  0  0  0
 39  9  1  0  0  0  0
 40 32  1  0  0  0  0
 42 41  2  0  0  0  0
 42 44  1  0  0  0  0
 43 42  1  0  0  0  0
 45 47  1  0  0  0  0
 45 44  1  0  0  0  0
 47 46  1  6  0  0  0
 48 47  1  0  0  0  0
 50 49  1  6  0  0  0
 50 48  1  0  0  0  0
 52 50  1  0  0  0  0
 52 51  1  0  0  0  0
 54 55  2  0  0  0  0
 55 53  1  0  0  0  0
M  END
>  <MODEL>
2

>  <REMARK>
 VINA RESULT:      -7.1      1.034      1.318
  Name = 
  9 active torsions:
  status: ('A' for Active; 'I' for Inactive)
    1  A    between atoms: C_14  and  C_24
    2  A    between atoms: C_16  and  N_33
    3  A    between atoms: P_17  and  C_46
    4  A    between atoms: C_19  and  C_55
    5  A    between atoms: C_20  and  C_24
    6  A    between atoms: C_20  and  C_30
    7  A    between atoms: S_21  and  C_30
    8  A    between atoms: S_21  and  C_55
    9  A    between atoms: C_40  and  C_52
                            x       y       z     vdW  Elec       q    Type
                         _______ _______ _______ _____ _____    ______ ____

>  <TORSDO>
F 9

$$$$
=
 OpenBabel11062418353D

 55 59  0  0  1  0  0  0  0  0999 V2000
  189.1550  172.2110  143.6080 C   0  0  0  0  0  2  0  0  0  0  0  0
  192.4350  175.6770  143.3020 C   0  0  0  0  0  0  0  0  0  0  0  0
  189.6560  173.2250  142.9070 C   0  0  0  0  0  0  0  0  0  0  0  0
  194.5340  170.6150  141.2240 O   0  0  0  0  0  1  0  0  0  0  0  0
  193.4290  171.3610  138.6620 C   0  0  0  0  0  2  0  0  0  0  0  0
  193.6800  174.9750  143.1210 N   0  0  0  0  0  0  0  0  0  0  0  0
  196.9630  173.5500  142.0100 O   0  0  0  0  0  0  0  0  0  0  0  0
  188.8650  173.7420  141.7200 C   0  0  2  0  0  3  0  0  0  0  0  0
  195.9530  172.9390  142.9600 P   0  0  2  0  0  0  0  0  0  0  0  0
  193.8200  174.2180  141.8780 C   0  0  0  0  0  2  0  0  0  0  0  0
  192.3180  171.5360  137.6170 C   0  0  2  0  0  3  0  0  0  0  0  0
  192.5520  174.0880  136.9430 C   0  0  0  0  0  3  0  0  0  0  0  0
  190.5100  172.5320  137.6290 C   0  0  1  0  0  0  0  0  0  0  0  0
  192.4330  176.9260  143.4680 O   0  0  0  0  0  0  0  0  0  0  0  0
  189.8210  173.3510  138.6970 C   0  0  0  0  0  3  0  0  0  0  0  0
  190.3900  170.0080  137.1510 C   0  0  0  0  0  1  0  0  0  0  0  0
  191.0910  173.5980  143.1440 C   0  0  0  0  0  2  0  0  0  0  0  0
  194.3300  172.8000  142.1480 C   0  0  1  0  0  3  0  0  0  0  0  0
  190.4310  173.8120  139.7910 C   0  0  0  0  0  3  0  0  0  0  0  0
  189.7470  172.5490  136.4580 O   0  0  0  0  0  1  0  0  0  0  0  0
  193.2190  172.1360  139.9580 C   0  0  0  0  0  2  0  0  0  0  0  0
  190.7810  170.8510  139.3770 F   0  0  0  0  0  0  0  0  0  0  0  0
  191.2100  175.0100  143.2620 O   0  0  0  0  0  0  0  0  0  0  0  0
  194.4260  171.9590  140.8730 C   0  0  2  0  0  3  0  0  0  0  0  0
  191.9350  172.9800  137.3260 C   0  0  0  0  0  0  0  0  0  0  0  0
  191.8340  175.2580  136.7520 O   0  0  0  0  0  1  0  0  0  0  0  0
  189.6650  174.6340  140.7740 C   0  0  0  0  0  2  0  0  0  0  0  0
  194.9150  175.3320  143.8550 C   0  0  2  0  0  3  0  0  0  0  0  0
  195.6520  174.0830  144.3360 C   0  0  0  0  0  2  0  0  0  0  0  0
  190.9290  171.1310  138.0260 C   0  0  1  0  0  0  0  0  0  0  0  0
  196.6830  171.4090  145.1520 C   0  0  0  0  0  2  0  0  0  0  0  0
  195.8190  170.3540  145.8540 C   0  0  2  0  0  3  0  0  0  0  0  0
  196.2730  170.1030  147.2170 N   0  0  0  0  0  0  0  0  0  0  0  0
  196.0520  168.8550  143.7290 C   0  0  0  0  0  2  0  0  0  0  0  0
  195.7140  170.1940  143.0670 C   0  0  0  0  0  2  0  0  0  0  0  0
  197.1370  168.2310  148.5240 C   0  0  0  0  0  1  0  0  0  0  0  0
  196.6340  168.8620  147.2730 C   0  0  0  0  0  0  0  0  0  0  0  0
  196.5490  168.1660  146.0370 N   0  0  0  0  0  0  0  0  0  0  0  0
  196.5800  171.3540  143.6080 C   0  0  1  0  0  3  0  0  0  0  0  0
  196.0710  169.0360  145.2120 C   0  0  0  0  0  0  0  0  0  0  0  0
  188.5770  176.4560  142.7550 O   0  0  0  0  0  0  0  0  0  0  0  0
  187.5400  175.7760  142.5520 C   0  0  0  0  0  0  0  0  0  0  0  0
  187.6320  174.4110  142.1340 N   0  0  0  0  0  2  0  0  0  0  0  0
  186.2040  176.3940  142.7740 C   0  0  0  0  0  2  0  0  0  0  0  0
  185.9170  176.5940  144.2530 C   0  0  0  0  0  2  0  0  0  0  0  0
  185.4670  179.0060  144.7300 C   0  0  0  0  0  1  0  0  0  0  0  0
  186.4950  177.9020  144.7980 C   0  0  1  0  0  3  0  0  0  0  0  0
  187.0100  177.6810  146.5230 S   0  0  0  0  0  0  0  0  0  0  0  0
  189.6980  177.3970  145.8600 C   0  0  0  0  0  1  0  0  0  0  0  0
  188.4120  176.5990  146.0680 C   0  0  1  0  0  3  0  0  0  0  0  0
  189.6280  174.4280  146.6200 C   0  0  0  0  0  1  0  0  0  0  0  0
  188.6220  175.4830  147.0930 C   0  0  0  0  0  2  0  0  0  0  0  0
  194.1210  175.7630  146.0820 O   0  0  0  0  0  1  0  0  0  0  0  0
  195.0640  177.5510  144.9960 O   0  0  0  0  0  0  0  0  0  0  0  0
  194.6730  176.2180  145.0430 C   0  0  0  0  0  0  0  0  0  0  0  0
  2 14  2  0  0  0  0
  3 17  1  0  0  0  0
  3  1  2  0  0  0  0
  5 21  1  0  0  0  0
  6  2  1  0  0  0  0
  6 28  1  0  0  0  0
  8 43  1  1  0  0  0
  8  3  1  0  0  0  0
  9  7  2  6  0  0  0
  9 39  1  0  0  0  0
  9 29  1  0  0  0  0
 10  6  1  0  0  0  0
 11 30  1  0  0  0  0
 11  5  1  1  0  0  0
 12 25  2  0  0  0  0
 13 20  1  6  0  0  0
 13 30  1  0  0  0  0
 13 15  1  0  0  0  0
 15 19  2  0  0  0  0
 17 23  1  0  0  0  0
 18 10  1  6  0  0  0
 18  9  1  0  0  0  0
 19 27  1  0  0  0  0
 21 24  1  0  0  0  0
 23  2  1  0  0  0  0
 24  4  1  1  0  0  0
 24 18  1  0  0  0  0
 25 11  1  0  0  0  0
 25 13  1  0  0  0  0
 26 12  1  0  0  0  0
 27  8  1  0  0  0  0
 28 29  1  0  0  0  0
 28 55  1  1  0  0  0
 30 16  1  6  0  0  0
 30 22  1  0  0  0  0
 32 31  1  6  0  0  0
 32 33  1  0  0  0  0
 33 37  2  0  0  0  0
 34 40  1  0  0  0  0
 35 34  1  0  0  0  0
 37 36  1  0  0  0  0
 38 37  1  0  0  0  0
 39 35  1  1  0  0  0
 39 31  1  0  0  0  0
 40 32  1  0  0  0  0
 40 38  2  0  0  0  0
 42 41  2  0  0  0  0
 42 44  1  0  0  0  0
 43 42  1  0  0  0  0
 44 45  1  0  0  0  0
 45 47  1  0  0  0  0
 47 46  1  1  0  0  0
 47 48  1  0  0  0  0
 50 49  1  1  0  0  0
 50 48  1  0  0  0  0
 50 52  1  0  0  0  0
 51 52  1  0  0  0  0
 54 55  2  0  0  0  0
 55 53  1  0  0  0  0
M  END
>  <MODEL>
3

>  <REMARK>
 VINA RESULT:      -7.0      3.124      7.814
  Name = 
  9 active torsions:
  status: ('A' for Active; 'I' for Inactive)
    1  A    between atoms: C_14  and  C_24
    2  A    between atoms: C_16  and  N_33
    3  A    between atoms: P_17  and  C_46
    4  A    between atoms: C_19  and  C_55
    5  A    between atoms: C_20  and  C_24
    6  A    between atoms: C_20  and  C_30
    7  A    between atoms: S_21  and  C_30
    8  A    between atoms: S_21  and  C_55
    9  A    between atoms: C_40  and  C_52
                            x       y       z     vdW  Elec       q    Type
                         _______ _______ _______ _____ _____    ______ ____

>  <TORSDO>
F 9

$$$$
=
 OpenBabel11062418353D

 55 59  0  0  1  0  0  0  0  0999 V2000
  193.7440  175.3780  138.8470 C   0  0  0  0  0  2  0  0  0  0  0  0
  194.7280  174.8930  143.5000 C   0  0  0  0  0  0  0  0  0  0  0  0
  194.2200  174.6060  139.8190 C   0  0  0  0  0  0  0  0  0  0  0  0
  189.1640  173.4390  142.3710 O   0  0  0  0  0  1  0  0  0  0  0  0
  190.1100  170.7640  141.8380 C   0  0  0  0  0  2  0  0  0  0  0  0
  193.4350  174.8460  144.1350 N   0  0  0  0  0  0  0  0  0  0  0  0
  190.3080  174.0490  146.0390 O   0  0  0  0  0  0  0  0  0  0  0  0
  194.9550  173.3350  139.4370 C   0  0  2  0  0  3  0  0  0  0  0  0
  190.4750  175.0040  144.8740 P   0  0  2  0  0  0  0  0  0  0  0  0
  192.5980  173.6930  143.8090 C   0  0  0  0  0  2  0  0  0  0  0  0
  190.7580  169.6510  141.0010 C   0  0  2  0  0  3  0  0  0  0  0  0
  192.6510  168.7390  142.6150 C   0  0  0  0  0  3  0  0  0  0  0  0
  192.5870  169.4730  140.0620 C   0  0  1  0  0  0  0  0  0  0  0  0
  195.7740  174.9330  144.2010 O   0  0  0  0  0  0  0  0  0  0  0  0
  193.7650  170.4180  139.9650 C   0  0  0  0  0  3  0  0  0  0  0  0
  190.5260  169.2440  138.5410 C   0  0  0  0  0  1  0  0  0  0  0  0
  193.7520  174.8760  141.2190 C   0  0  0  0  0  2  0  0  0  0  0  0
  191.1770  174.1280  143.4400 C   0  0  1  0  0  3  0  0  0  0  0  0
  193.9250  171.4900  140.7450 C   0  0  0  0  0  3  0  0  0  0  0  0
  192.8980  168.2690  139.4220 O   0  0  0  0  0  1  0  0  0  0  0  0
  191.0080  171.9630  142.1170 C   0  0  0  0  0  2  0  0  0  0  0  0
  191.2480  171.3910  139.3690 F   0  0  0  0  0  0  0  0  0  0  0  0
  194.8590  174.8580  142.1110 O   0  0  0  0  0  0  0  0  0  0  0  0
  190.2900  172.9500  143.0300 C   0  0  2  0  0  3  0  0  0  0  0  0
  192.1270  169.1980  141.4880 C   0  0  0  0  0  0  0  0  0  0  0  0
  193.9920  168.3960  142.6730 O   0  0  0  0  0  1  0  0  0  0  0  0
  195.1370  172.3460  140.5860 C   0  0  0  0  0  2  0  0  0  0  0  0
  193.1210  175.6020  145.3690 C   0  0  2  0  0  3  0  0  0  0  0  0
  191.7360  176.2410  145.2870 C   0  0  0  0  0  2  0  0  0  0  0  0
  191.2470  170.0290  139.6290 C   0  0  1  0  0  0  0  0  0  0  0  0
  188.0500  175.9670  145.8060 C   0  0  0  0  0  2  0  0  0  0  0  0
  187.7300  177.4210  146.1760 C   0  0  2  0  0  3  0  0  0  0  0  0
  186.5840  177.5100  147.0730 N   0  0  0  0  0  0  0  0  0  0  0  0
  187.9010  178.0260  143.6420 C   0  0  0  0  0  2  0  0  0  0  0  0
  189.1660  177.1760  143.7930 C   0  0  0  0  0  2  0  0  0  0  0  0
  184.3500  178.4970  147.0660 C   0  0  0  0  0  1  0  0  0  0  0  0
  185.6680  178.1800  146.4510 C   0  0  0  0  0  0  0  0  0  0  0  0
  186.0090  178.5520  145.1220 N   0  0  0  0  0  0  0  0  0  0  0  0
  188.8940  175.8370  144.5140 C   0  0  1  0  0  3  0  0  0  0  0  0
  187.2120  178.1120  144.9650 C   0  0  0  0  0  0  0  0  0  0  0  0
  196.0650  172.0760  137.0490 O   0  0  0  0  0  0  0  0  0  0  0  0
  196.6930  173.0290  137.5750 C   0  0  0  0  0  0  0  0  0  0  0  0
  196.2400  173.6180  138.7960 N   0  0  0  0  0  2  0  0  0  0  0  0
  197.9360  173.5310  136.9280 C   0  0  0  0  0  2  0  0  0  0  0  0
  197.6430  174.2200  135.6060 C   0  0  0  0  0  2  0  0  0  0  0  0
  196.8430  176.5730  135.3380 C   0  0  0  0  0  1  0  0  0  0  0  0
  196.4370  175.1590  135.6810 C   0  0  1  0  0  3  0  0  0  0  0  0
  195.1550  174.6150  134.5180 S   0  0  0  0  0  0  0  0  0  0  0  0
  193.4240  176.7780  134.7750 C   0  0  0  0  0  1  0  0  0  0  0  0
  193.8230  175.4620  135.4400 C   0  0  1  0  0  3  0  0  0  0  0  0
  192.9670  173.0690  135.6340 C   0  0  0  0  0  1  0  0  0  0  0  0
  192.6050  174.5570  135.6330 C   0  0  0  0  0  2  0  0  0  0  0  0
  194.3020  177.6370  144.8800 O   0  0  0  0  0  0  0  0  0  0  0  0
  194.8380  176.6260  146.8680 O   0  0  0  0  0  1  0  0  0  0  0  0
  194.1170  176.6820  145.6820 C   0  0  0  0  0  0  0  0  0  0  0  0
  1  3  2  0  0  0  0
  2  6  1  0  0  0  0
  2 14  2  0  0  0  0
  3 17  1  0  0  0  0
  5 21  1  0  0  0  0
  6 28  1  0  0  0  0
  8 43  1  1  0  0  0
  8  3  1  0  0  0  0
  8 27  1  0  0  0  0
  9 29  1  0  0  0  0
  9  7  2  1  0  0  0
 10  6  1  0  0  0  0
 11 25  1  0  0  0  0
 11  5  1  1  0  0  0
 12 26  1  0  0  0  0
 13 20  1  6  0  0  0
 13 25  1  0  0  0  0
 15 13  1  0  0  0  0
 15 19  2  0  0  0  0
 17 23  1  0  0  0  0
 18 10  1  1  0  0  0
 18  9  1  0  0  0  0
 21 24  1  0  0  0  0
 22 30  1  0  0  0  0
 23  2  1  0  0  0  0
 24  4  1  6  0  0  0
 24 18  1  0  0  0  0
 25 12  2  0  0  0  0
 27 19  1  0  0  0  0
 28 55  1  6  0  0  0
 29 28  1  0  0  0  0
 30 16  1  6  0  0  0
 30 13  1  0  0  0  0
 30 11  1  0  0  0  0
 32 31  1  6  0  0  0
 32 33  1  0  0  0  0
 34 35  1  0  0  0  0
 34 40  1  0  0  0  0
 37 36  1  0  0  0  0
 37 33  2  0  0  0  0
 38 37  1  0  0  0  0
 39 35  1  1  0  0  0
 39  9  1  0  0  0  0
 39 31  1  0  0  0  0
 40 38  2  0  0  0  0
 40 32  1  0  0  0  0
 41 42  2  0  0  0  0
 42 43  1  0  0  0  0
 44 42  1  0  0  0  0
 45 47  1  0  0  0  0
 45 44  1  0  0  0  0
 47 46  1  6  0  0  0
 48 50  1  0  0  0  0
 48 47  1  0  0  0  0
 50 49  1  6  0  0  0
 50 52  1  0  0  0  0
 52 51  1  0  0  0  0
 53 55  2  0  0  0  0
 55 54  1  0  0  0  0
M  END
>  <MODEL>
4

>  <REMARK>
 VINA RESULT:      -6.8      3.366      9.948
  Name = 
  9 active torsions:
  status: ('A' for Active; 'I' for Inactive)
    1  A    between atoms: C_14  and  C_24
    2  A    between atoms: C_16  and  N_33
    3  A    between atoms: P_17  and  C_46
    4  A    between atoms: C_19  and  C_55
    5  A    between atoms: C_20  and  C_24
    6  A    between atoms: C_20  and  C_30
    7  A    between atoms: S_21  and  C_30
    8  A    between atoms: S_21  and  C_55
    9  A    between atoms: C_40  and  C_52
                            x       y       z     vdW  Elec       q    Type
                         _______ _______ _______ _____ _____    ______ ____

>  <TORSDO>
F 9

$$$$
=
 OpenBabel11062418353D

 55 59  0  0  1  0  0  0  0  0999 V2000
  194.8770  175.7450  139.2840 C   0  0  0  0  0  2  0  0  0  0  0  0
  194.2160  172.2770  142.5070 C   0  0  0  0  0  0  0  0  0  0  0  0
  194.5690  174.4720  139.5160 C   0  0  0  0  0  0  0  0  0  0  0  0
  189.3110  175.3910  141.7430 O   0  0  0  0  0  1  0  0  0  0  0  0
  188.6580  173.5840  139.5870 C   0  0  0  0  0  2  0  0  0  0  0  0
  193.0200  172.6660  143.2100 N   0  0  0  0  0  0  0  0  0  0  0  0
  189.6450  173.0090  144.8000 O   0  0  0  0  0  0  0  0  0  0  0  0
  194.5140  173.5160  138.3410 C   0  0  2  0  0  3  0  0  0  0  0  0
  190.6090  174.1100  144.4080 P   0  0  2  0  0  0  0  0  0  0  0  0
  191.7870  172.6850  142.4240 C   0  0  0  0  0  2  0  0  0  0  0  0
  188.7380  173.0260  138.1590 C   0  0  2  0  0  3  0  0  0  0  0  0
  189.2990  170.4680  138.5680 C   0  0  0  0  0  3  0  0  0  0  0  0
  190.3010  172.3560  136.9890 C   0  0  1  0  0  0  0  0  0  0  0  0
  194.8840  171.2830  142.9010 O   0  0  0  0  0  0  0  0  0  0  0  0
  191.7860  172.2520  137.2590 C   0  0  0  0  0  3  0  0  0  0  0  0
  188.9350  174.3050  136.0150 C   0  0  0  0  0  1  0  0  0  0  0  0
  194.0080  174.1240  140.8650 C   0  0  0  0  0  2  0  0  0  0  0  0
  191.0150  173.9890  142.6380 C   0  0  1  0  0  3  0  0  0  0  0  0
  192.3300  172.3370  138.4760 C   0  0  0  0  0  3  0  0  0  0  0  0
  190.0160  171.8350  135.7240 O   0  0  0  0  0  1  0  0  0  0  0  0
  189.9760  173.5830  140.3520 C   0  0  0  0  0  2  0  0  0  0  0  0
  190.5200  174.6470  137.8010 F   0  0  0  0  0  0  0  0  0  0  0  0
  194.6440  172.9550  141.3650 O   0  0  0  0  0  0  0  0  0  0  0  0
  189.7500  174.0700  141.7800 C   0  0  2  0  0  3  0  0  0  0  0  0
  189.4310  171.6750  138.0380 C   0  0  0  0  0  0  0  0  0  0  0  0
  190.1390  169.4380  138.1770 O   0  0  0  0  0  1  0  0  0  0  0  0
  193.8060  172.1960  138.6380 C   0  0  0  0  0  2  0  0  0  0  0  0
  192.8990  172.5990  144.6840 C   0  0  2  0  0  3  0  0  0  0  0  0
  192.2000  173.8390  145.2370 C   0  0  0  0  0  2  0  0  0  0  0  0
  189.6770  173.7180  137.2090 C   0  0  1  0  0  0  0  0  0  0  0  0
  188.4020  175.6440  145.0840 C   0  0  0  0  0  2  0  0  0  0  0  0
  187.9490  176.0110  146.5020 C   0  0  2  0  0  3  0  0  0  0  0  0
  186.5380  176.3780  146.5400 N   0  0  0  0  0  0  0  0  0  0  0  0
  190.0620  177.5300  146.7060 C   0  0  0  0  0  2  0  0  0  0  0  0
  190.7040  176.2700  146.1200 C   0  0  0  0  0  2  0  0  0  0  0  0
  185.1890  178.3290  147.1180 C   0  0  0  0  0  1  0  0  0  0  0  0
  186.4780  177.6090  146.9340 C   0  0  0  0  0  0  0  0  0  0  0  0
  187.7430  178.2260  147.1370 N   0  0  0  0  0  0  0  0  0  0  0  0
  189.9360  175.7350  144.8910 C   0  0  1  0  0  3  0  0  0  0  0  0
  188.5980  177.2920  146.8880 C   0  0  0  0  0  0  0  0  0  0  0  0
  196.4110  171.4310  139.0970 O   0  0  0  0  0  0  0  0  0  0  0  0
  196.6910  172.1770  138.1240 C   0  0  0  0  0  0  0  0  0  0  0  0
  195.8400  173.2700  137.7730 N   0  0  0  0  0  2  0  0  0  0  0  0
  197.9370  171.9300  137.3490 C   0  0  0  0  0  2  0  0  0  0  0  0
  197.6430  171.6740  135.8800 C   0  0  0  0  0  2  0  0  0  0  0  0
  195.5100  171.3450  134.6190 C   0  0  0  0  0  1  0  0  0  0  0  0
  196.4310  170.7650  135.6670 C   0  0  1  0  0  3  0  0  0  0  0  0
  196.9760  169.1210  135.1280 S   0  0  0  0  0  0  0  0  0  0  0  0
  197.3000  168.2570  137.7520 C   0  0  0  0  0  1  0  0  0  0  0  0
  196.2880  168.3000  136.6080 C   0  0  1  0  0  3  0  0  0  0  0  0
  194.4820  168.4050  138.4030 C   0  0  0  0  0  1  0  0  0  0  0  0
  194.9810  168.9510  137.0620 C   0  0  0  0  0  2  0  0  0  0  0  0
  194.5680  171.3380  145.8650 O   0  0  0  0  0  1  0  0  0  0  0  0
  195.0540  173.5520  145.5170 O   0  0  0  0  0  0  0  0  0  0  0  0
  194.2170  172.4510  145.3900 C   0  0  0  0  0  0  0  0  0  0  0  0
  1  3  2  0  0  0  0
  2 14  2  0  0  0  0
  2  6  1  0  0  0  0
  3 17  1  0  0  0  0
  5 21  1  0  0  0  0
  6 28  1  0  0  0  0
  8 43  1  1  0  0  0
  8 27  1  0  0  0  0
  8  3  1  0  0  0  0
  9  7  2  1  0  0  0
  9 39  1  0  0  0  0
  9 29  1  0  0  0  0
 10  6  1  0  0  0  0
 11  5  1  1  0  0  0
 13 20  1  6  0  0  0
 13 30  1  0  0  0  0
 13 15  1  0  0  0  0
 13 25  1  0  0  0  0
 15 19  2  0  0  0  0
 17 23  1  0  0  0  0
 18 10  1  1  0  0  0
 18  9  1  0  0  0  0
 19 27  1  0  0  0  0
 21 24  1  0  0  0  0
 23  2  1  0  0  0  0
 24  4  1  6  0  0  0
 24 18  1  0  0  0  0
 25 11  1  0  0  0  0
 25 12  2  0  0  0  0
 26 12  1  0  0  0  0
 28 29  1  0  0  0  0
 28 55  1  1  0  0  0
 30 16  1  6  0  0  0
 30 22  1  0  0  0  0
 30 11  1  0  0  0  0
 32 31  1  6  0  0  0
 32 33  1  0  0  0  0
 32 40  1  0  0  0  0
 33 37  2  0  0  0  0
 34 40  1  0  0  0  0
 35 34  1  0  0  0  0
 37 36  1  0  0  0  0
 37 38  1  0  0  0  0
 39 31  1  1  0  0  0
 39 35  1  0  0  0  0
 40 38  2  0  0  0  0
 42 41  2  0  0  0  0
 43 42  1  0  0  0  0
 44 42  1  0  0  0  0
 45 44  1  0  0  0  0
 47 46  1  6  0  0  0
 47 45  1  0  0  0  0
 48 47  1  0  0  0  0
 48 50  1  0  0  0  0
 50 52  1  0  0  0  0
 50 49  1  1  0  0  0
 52 51  1  0  0  0  0
 55 54  2  0  0  0  0
 55 53  1  0  0  0  0
M  END
>  <MODEL>
5

>  <REMARK>
 VINA RESULT:      -6.2      3.800     10.507
  Name = 
  9 active torsions:
  status: ('A' for Active; 'I' for Inactive)
    1  A    between atoms: C_14  and  C_24
    2  A    between atoms: C_16  and  N_33
    3  A    between atoms: P_17  and  C_46
    4  A    between atoms: C_19  and  C_55
    5  A    between atoms: C_20  and  C_24
    6  A    between atoms: C_20  and  C_30
    7  A    between atoms: S_21  and  C_30
    8  A    between atoms: S_21  and  C_55
    9  A    between atoms: C_40  and  C_52
                            x       y       z     vdW  Elec       q    Type
                         _______ _______ _______ _____ _____    ______ ____

>  <TORSDO>
F 9

$$$$
=
 OpenBabel11062418353D

 55 59  0  0  1  0  0  0  0  0999 V2000
  191.5560  177.7840  142.6610 C   0  0  0  0  0  2  0  0  0  0  0  0
  189.5970  173.5490  141.6190 C   0  0  0  0  0  0  0  0  0  0  0  0
  191.3390  176.5260  143.0320 C   0  0  0  0  0  0  0  0  0  0  0  0
  194.9460  174.0190  139.2710 O   0  0  0  0  0  1  0  0  0  0  0  0
  195.9850  172.9870  141.7600 C   0  0  0  0  0  2  0  0  0  0  0  0
  190.3780  173.0580  140.5120 N   0  0  0  0  0  0  0  0  0  0  0  0
  192.5480  171.1930  138.0920 O   0  0  0  0  0  0  0  0  0  0  0  0
  191.6620  176.1290  144.4590 C   0  0  2  0  0  3  0  0  0  0  0  0
  192.2430  172.6770  138.1220 P   0  0  2  0  0  0  0  0  0  0  0  0
  191.7820  172.7600  140.7940 C   0  0  0  0  0  2  0  0  0  0  0  0
  196.4280  173.0620  143.2280 C   0  0  2  0  0  3  0  0  0  0  0  0
  195.0320  171.1120  144.3560 C   0  0  0  0  0  3  0  0  0  0  0  0
  195.4790  173.6610  144.9610 C   0  0  1  0  0  0  0  0  0  0  0  0
  188.5690  172.9240  141.9930 O   0  0  0  0  0  0  0  0  0  0  0  0
  194.0830  174.1850  145.2140 C   0  0  0  0  0  3  0  0  0  0  0  0
  197.6380  174.9310  144.3760 C   0  0  0  0  0  1  0  0  0  0  0  0
  191.0730  175.5150  141.9550 C   0  0  0  0  0  2  0  0  0  0  0  0
  192.7010  173.3800  139.7380 C   0  0  1  0  0  3  0  0  0  0  0  0
  193.0830  174.0930  144.3340 C   0  0  0  0  0  3  0  0  0  0  0  0
  196.1620  173.5390  146.1750 O   0  0  0  0  0  1  0  0  0  0  0  0
  194.5250  173.3450  141.5100 C   0  0  0  0  0  2  0  0  0  0  0  0
  195.5750  175.3430  143.1960 F   0  0  0  0  0  0  0  0  0  0  0  0
  189.9720  174.6950  142.3230 O   0  0  0  0  0  0  0  0  0  0  0  0
  194.1830  173.1420  140.0380 C   0  0  2  0  0  3  0  0  0  0  0  0
  195.5180  172.3360  144.2090 C   0  0  0  0  0  0  0  0  0  0  0  0
  194.2190  170.8080  145.4360 O   0  0  0  0  0  1  0  0  0  0  0  0
  191.7330  174.6210  144.6910 C   0  0  0  0  0  2  0  0  0  0  0  0
  189.7680  172.4390  139.3130 C   0  0  2  0  0  3  0  0  0  0  0  0
  190.4480  172.9240  138.0350 C   0  0  0  0  0  2  0  0  0  0  0  0
  196.2900  174.3950  143.9130 C   0  0  1  0  0  0  0  0  0  0  0  0
  192.6510  175.0080  136.6800 C   0  0  0  0  0  2  0  0  0  0  0  0
  193.8540  175.9520  136.7990 C   0  0  2  0  0  3  0  0  0  0  0  0
  193.5430  177.2870  136.3010 N   0  0  0  0  0  0  0  0  0  0  0  0
  195.3320  174.0870  135.7250 C   0  0  0  0  0  2  0  0  0  0  0  0
  194.5690  173.2520  136.7560 C   0  0  0  0  0  2  0  0  0  0  0  0
  194.3200  178.7920  134.5420 C   0  0  0  0  0  1  0  0  0  0  0  0
  194.3300  177.5100  135.2980 C   0  0  0  0  0  0  0  0  0  0  0  0
  195.1720  176.4170  134.9550 N   0  0  0  0  0  0  0  0  0  0  0  0
  193.0460  173.5110  136.7130 C   0  0  1  0  0  3  0  0  0  0  0  0
  194.8960  175.5120  135.8330 C   0  0  0  0  0  0  0  0  0  0  0  0
  189.0070  175.2040  145.2470 O   0  0  0  0  0  0  0  0  0  0  0  0
  189.4950  176.2040  145.8320 C   0  0  0  0  0  0  0  0  0  0  0  0
  190.7510  176.7510  145.4200 N   0  0  0  0  0  2  0  0  0  0  0  0
  188.7430  176.8380  146.9490 C   0  0  0  0  0  2  0  0  0  0  0  0
  187.2480  176.5990  146.8260 C   0  0  0  0  0  2  0  0  0  0  0  0
  186.8760  178.7120  148.1090 C   0  0  0  0  0  1  0  0  0  0  0  0
  186.4310  177.8890  146.9230 C   0  0  1  0  0  3  0  0  0  0  0  0
  186.6400  178.8710  145.4130 S   0  0  0  0  0  0  0  0  0  0  0  0
  184.8640  177.6100  143.6820 C   0  0  0  0  0  1  0  0  0  0  0  0
  186.2420  177.4590  144.3230 C   0  0  1  0  0  3  0  0  0  0  0  0
  186.9580  176.1320  142.2670 C   0  0  0  0  0  1  0  0  0  0  0  0
  187.3180  177.2450  143.2570 C   0  0  0  0  0  2  0  0  0  0  0  0
  187.4550  171.8700  139.6320 O   0  0  0  0  0  1  0  0  0  0  0  0
  187.8530  173.8660  138.5740 O   0  0  0  0  0  0  0  0  0  0  0  0
  188.2940  172.7000  139.1870 C   0  0  0  0  0  0  0  0  0  0  0  0
  1  3  2  0  0  0  0
  2 14  2  0  0  0  0
  2 23  1  0  0  0  0
  3  8  1  0  0  0  0
  6 10  1  0  0  0  0
  6  2  1  0  0  0  0
  8 27  1  0  0  0  0
  8 43  1  1  0  0  0
  9  7  2  6  0  0  0
  9 18  1  0  0  0  0
 11  5  1  6  0  0  0
 11 30  1  0  0  0  0
 11 25  1  0  0  0  0
 12 26  1  0  0  0  0
 13 15  1  0  0  0  0
 13 20  1  1  0  0  0
 17 23  1  0  0  0  0
 17  3  1  0  0  0  0
 18 24  1  0  0  0  0
 18 10  1  1  0  0  0
 19 27  1  0  0  0  0
 19 15  2  0  0  0  0
 21  5  1  0  0  0  0
 22 30  1  0  0  0  0
 24  4  1  6  0  0  0
 24 21  1  0  0  0  0
 25 12  2  0  0  0  0
 25 13  1  0  0  0  0
 28 55  1  6  0  0  0
 28  6  1  0  0  0  0
 29  9  1  0  0  0  0
 29 28  1  0  0  0  0
 30 16  1  1  0  0  0
 30 13  1  0  0  0  0
 32 31  1  6  0  0  0
 33 32  1  0  0  0  0
 34 40  1  0  0  0  0
 34 35  1  0  0  0  0
 36 37  1  0  0  0  0
 37 33  2  0  0  0  0
 38 37  1  0  0  0  0
 38 40  2  0  0  0  0
 39 31  1  1  0  0  0
 39 35  1  0  0  0  0
 39  9  1  0  0  0  0
 40 32  1  0  0  0  0
 41 42  2  0  0  0  0
 42 44  1  0  0  0  0
 43 42  1  0  0  0  0
 45 47  1  0  0  0  0
 45 44  1  0  0  0  0
 47 46  1  1  0  0  0
 48 47  1  0  0  0  0
 50 49  1  6  0  0  0
 50 48  1  0  0  0  0
 51 52  1  0  0  0  0
 52 50  1  0  0  0  0
 54 55  2  0  0  0  0
 55 53  1  0  0  0  0
M  END
>  <MODEL>
6

>  <REMARK>
 VINA RESULT:      -5.8      1.616      2.002
  Name = 
  9 active torsions:
  status: ('A' for Active; 'I' for Inactive)
    1  A    between atoms: C_14  and  C_24
    2  A    between atoms: C_16  and  N_33
    3  A    between atoms: P_17  and  C_46
    4  A    between atoms: C_19  and  C_55
    5  A    between atoms: C_20  and  C_24
    6  A    between atoms: C_20  and  C_30
    7  A    between atoms: S_21  and  C_30
    8  A    between atoms: S_21  and  C_55
    9  A    between atoms: C_40  and  C_52
                            x       y       z     vdW  Elec       q    Type
                         _______ _______ _______ _____ _____    ______ ____

>  <TORSDO>
F 9

$$$$
=
 OpenBabel11062418353D

 55 59  0  0  1  0  0  0  0  0999 V2000
  188.5590  172.4810  142.0450 C   0  0  0  0  0  2  0  0  0  0  0  0
  192.4620  175.2400  142.1480 C   0  0  0  0  0  0  0  0  0  0  0  0
  189.3930  173.2730  141.3760 C   0  0  0  0  0  0  0  0  0  0  0  0
  193.8830  169.6330  141.2100 O   0  0  0  0  0  1  0  0  0  0  0  0
  193.5260  170.1520  138.3910 C   0  0  0  0  0  2  0  0  0  0  0  0
  193.5480  174.3150  142.3500 N   0  0  0  0  0  0  0  0  0  0  0  0
  196.6330  172.1910  142.2220 O   0  0  0  0  0  0  0  0  0  0  0  0
  188.9960  173.7280  139.9850 C   0  0  2  0  0  3  0  0  0  0  0  0
  195.3410  171.9180  142.9650 P   0  0  2  0  0  0  0  0  0  0  0  0
  193.7930  173.3620  141.2680 C   0  0  0  0  0  2  0  0  0  0  0  0
  192.7230  170.3510  137.0980 C   0  0  2  0  0  3  0  0  0  0  0  0
  193.6090  172.6890  136.2200 C   0  0  0  0  0  3  0  0  0  0  0  0
  191.1950  171.6330  136.5660 C   0  0  1  0  0  0  0  0  0  0  0  0
  192.6790  176.4810  142.1690 O   0  0  0  0  0  0  0  0  0  0  0  0
  190.4750  172.7140  137.3400 C   0  0  0  0  0  3  0  0  0  0  0  0
  190.6700  169.1240  136.3580 C   0  0  0  0  0  1  0  0  0  0  0  0
  190.7890  173.4250  141.9060 C   0  0  0  0  0  2  0  0  0  0  0  0
  193.9350  171.9370  141.8090 C   0  0  1  0  0  3  0  0  0  0  0  0
  190.9180  173.2280  138.4900 C   0  0  0  0  0  3  0  0  0  0  0  0
  190.7200  171.6000  135.2520 O   0  0  0  0  0  1  0  0  0  0  0  0
  193.2060  171.1430  139.5040 C   0  0  0  0  0  2  0  0  0  0  0  0
  190.7400  170.2220  138.5040 F   0  0  0  0  0  0  0  0  0  0  0  0
  191.1650  174.7960  141.8910 O   0  0  0  0  0  0  0  0  0  0  0  0
  194.1290  170.9040  140.6950 C   0  0  2  0  0  3  0  0  0  0  0  0
  192.7130  171.7770  136.5640 C   0  0  0  0  0  0  0  0  0  0  0  0
  193.2020  173.9210  135.7340 O   0  0  0  0  0  1  0  0  0  0  0  0
  190.1440  174.3110  139.1640 C   0  0  0  0  0  2  0  0  0  0  0  0
  194.6440  174.5630  143.3140 C   0  0  2  0  0  3  0  0  0  0  0  0
  194.9930  173.2960  144.0930 C   0  0  0  0  0  2  0  0  0  0  0  0
  191.2260  170.2600  137.2060 C   0  0  1  0  0  0  0  0  0  0  0  0
  196.4950  170.5390  145.0730 C   0  0  0  0  0  2  0  0  0  0  0  0
  195.8770  170.3110  146.4580 C   0  0  2  0  0  3  0  0  0  0  0  0
  196.8930  170.0060  147.4590 N   0  0  0  0  0  0  0  0  0  0  0  0
  194.1300  168.7270  145.3380 C   0  0  0  0  0  2  0  0  0  0  0  0
  194.0740  169.9060  144.3630 C   0  0  0  0  0  2  0  0  0  0  0  0
  197.4630  168.1680  148.9610 C   0  0  0  0  0  1  0  0  0  0  0  0
  196.6440  168.8160  147.9010 C   0  0  0  0  0  0  0  0  0  0  0  0
  195.5520  168.1660  147.2640 N   0  0  0  0  0  0  0  0  0  0  0  0
  195.4800  170.3690  143.9160 C   0  0  1  0  0  3  0  0  0  0  0  0
  195.1050  169.0400  146.4260 C   0  0  0  0  0  0  0  0  0  0  0  0
  188.7600  176.1930  141.5300 O   0  0  0  0  0  0  0  0  0  0  0  0
  187.8410  175.8960  140.7250 C   0  0  0  0  0  0  0  0  0  0  0  0
  187.8650  174.6560  140.0150 N   0  0  0  0  0  2  0  0  0  0  0  0
  186.7040  176.8380  140.5330 C   0  0  0  0  0  2  0  0  0  0  0  0
  186.6830  177.9180  141.6010 C   0  0  0  0  0  2  0  0  0  0  0  0
  184.6290  178.5760  140.3360 C   0  0  0  0  0  1  0  0  0  0  0  0
  185.3490  178.6660  141.6610 C   0  0  1  0  0  3  0  0  0  0  0  0
  184.2950  177.9510  142.9530 S   0  0  0  0  0  0  0  0  0  0  0  0
  185.6310  179.8600  144.4740 C   0  0  0  0  0  1  0  0  0  0  0  0
  185.4840  178.3520  144.2820 C   0  0  1  0  0  3  0  0  0  0  0  0
  184.9750  178.6570  146.7610 C   0  0  0  0  0  1  0  0  0  0  0  0
  185.1140  177.6680  145.5990 C   0  0  0  0  0  2  0  0  0  0  0  0
  193.4490  175.4890  145.1820 O   0  0  0  0  0  1  0  0  0  0  0  0
  195.0470  176.8460  144.2490 O   0  0  0  0  0  0  0  0  0  0  0  0
  194.3400  175.6510  144.3030 C   0  0  0  0  0  0  0  0  0  0  0  0
  2 14  2  0  0  0  0
  2  6  1  0  0  0  0
  3 17  1  0  0  0  0
  3  1  2  0  0  0  0
  5 21  1  0  0  0  0
  6 28  1  0  0  0  0
  8 43  1  1  0  0  0
  8  3  1  0  0  0  0
  9  7  2  6  0  0  0
  9 39  1  0  0  0  0
  9 29  1  0  0  0  0
 10  6  1  0  0  0  0
 11 30  1  0  0  0  0
 11  5  1  1  0  0  0
 12 25  2  0  0  0  0
 13 20  1  6  0  0  0
 13 30  1  0  0  0  0
 13 15  1  0  0  0  0
 15 19  2  0  0  0  0
 18 10  1  6  0  0  0
 18  9  1  0  0  0  0
 19 27  1  0  0  0  0
 21 24  1  0  0  0  0
 23 17  1  0  0  0  0
 23  2  1  0  0  0  0
 24  4  1  1  0  0  0
 24 18  1  0  0  0  0
 25 13  1  0  0  0  0
 25 11  1  0  0  0  0
 26 12  1  0  0  0  0
 27  8  1  0  0  0  0
 28 29  1  0  0  0  0
 28 55  1  1  0  0  0
 30 16  1  6  0  0  0
 30 22  1  0  0  0  0
 32 31  1  6  0  0  0
 32 33  1  0  0  0  0
 33 37  2  0  0  0  0
 34 40  1  0  0  0  0
 35 34  1  0  0  0  0
 37 36  1  0  0  0  0
 38 37  1  0  0  0  0
 39 35  1  1  0  0  0
 39 31  1  0  0  0  0
 40 32  1  0  0  0  0
 40 38  2  0  0  0  0
 42 41  2  0  0  0  0
 43 42  1  0  0  0  0
 44 42  1  0  0  0  0
 44 45  1  0  0  0  0
 45 47  1  0  0  0  0
 47 46  1  6  0  0  0
 47 48  1  0  0  0  0
 48 50  1  0  0  0  0
 50 49  1  1  0  0  0
 50 52  1  0  0  0  0
 52 51  1  0  0  0  0
 54 55  2  0  0  0  0
 55 53  1  0  0  0  0
M  END
>  <MODEL>
7

>  <REMARK>
 VINA RESULT:      -5.8      3.503      8.153
  Name = 
  9 active torsions:
  status: ('A' for Active; 'I' for Inactive)
    1  A    between atoms: C_14  and  C_24
    2  A    between atoms: C_16  and  N_33
    3  A    between atoms: P_17  and  C_46
    4  A    between atoms: C_19  and  C_55
    5  A    between atoms: C_20  and  C_24
    6  A    between atoms: C_20  and  C_30
    7  A    between atoms: S_21  and  C_30
    8  A    between atoms: S_21  and  C_55
    9  A    between atoms: C_40  and  C_52
                            x       y       z     vdW  Elec       q    Type
                         _______ _______ _______ _____ _____    ______ ____

>  <TORSDO>
F 9

$$$$
=
 OpenBabel11062418353D

 55 59  0  0  1  0  0  0  0  0999 V2000
  190.0910  172.2720  144.4650 C   0  0  0  0  0  2  0  0  0  0  0  0
  193.1740  175.4430  142.6480 C   0  0  0  0  0  0  0  0  0  0  0  0
  190.4550  173.0150  143.4230 C   0  0  0  0  0  0  0  0  0  0  0  0
  195.1460  169.9680  141.9560 O   0  0  0  0  0  1  0  0  0  0  0  0
  193.6750  169.8940  139.4710 C   0  0  0  0  0  2  0  0  0  0  0  0
  194.4070  174.7080  142.5190 N   0  0  0  0  0  0  0  0  0  0  0  0
  197.5550  172.9800  141.4490 O   0  0  0  0  0  0  0  0  0  0  0  0
  189.4920  173.1460  142.2590 C   0  0  2  0  0  3  0  0  0  0  0  0
  196.7060  172.7030  142.6740 P   0  0  2  0  0  0  0  0  0  0  0  0
  194.4010  173.6020  141.5620 C   0  0  0  0  0  2  0  0  0  0  0  0
  192.4270  169.7460  138.5900 C   0  0  2  0  0  3  0  0  0  0  0  0
  192.4760  171.9620  137.1380 C   0  0  0  0  0  3  0  0  0  0  0  0
  190.6040  170.7120  138.5500 C   0  0  1  0  0  0  0  0  0  0  0  0
  193.1510  176.6820  142.4200 O   0  0  0  0  0  0  0  0  0  0  0  0
  190.0380  171.8290  139.4000 C   0  0  0  0  0  3  0  0  0  0  0  0
  190.5080  168.1660  138.8940 C   0  0  0  0  0  1  0  0  0  0  0  0
  191.8940  173.4290  143.3290 C   0  0  0  0  0  2  0  0  0  0  0  0
  194.9930  172.3330  142.1810 C   0  0  1  0  0  3  0  0  0  0  0  0
  190.7750  172.6010  140.2010 C   0  0  0  0  0  3  0  0  0  0  0  0
  189.6880  170.3730  137.5500 O   0  0  0  0  0  1  0  0  0  0  0  0
  193.6180  171.0340  140.4810 C   0  0  0  0  0  2  0  0  0  0  0  0
  191.1700  169.6530  140.6740 F   0  0  0  0  0  0  0  0  0  0  0  0
  191.9790  174.8070  142.9890 O   0  0  0  0  0  0  0  0  0  0  0  0
  194.9440  171.1380  141.2270 C   0  0  2  0  0  3  0  0  0  0  0  0
  191.9570  171.0320  137.9260 C   0  0  0  0  0  0  0  0  0  0  0  0
  191.6980  173.0210  136.6990 O   0  0  0  0  0  1  0  0  0  0  0  0
  190.1230  173.6940  140.9810 C   0  0  0  0  0  2  0  0  0  0  0  0
  195.7170  175.2640  142.9260 C   0  0  2  0  0  3  0  0  0  0  0  0
  196.5570  174.2190  143.6580 C   0  0  0  0  0  2  0  0  0  0  0  0
  191.1210  169.5000  139.2960 C   0  0  1  0  0  0  0  0  0  0  0  0
  196.7880  171.3140  145.0700 C   0  0  0  0  0  2  0  0  0  0  0  0
  196.1470  169.9500  145.3530 C   0  0  2  0  0  3  0  0  0  0  0  0
  195.9410  169.7350  146.7820 N   0  0  0  0  0  0  0  0  0  0  0  0
  197.9060  168.8720  143.7540 C   0  0  0  0  0  2  0  0  0  0  0  0
  197.4680  170.0610  142.8950 C   0  0  0  0  0  2  0  0  0  0  0  0
  196.6820  168.1710  148.5040 C   0  0  0  0  0  1  0  0  0  0  0  0
  196.6550  168.7090  147.1170 C   0  0  0  0  0  0  0  0  0  0  0  0
  197.4390  168.1660  146.0630 N   0  0  0  0  0  0  0  0  0  0  0  0
  197.4710  171.3910  143.6830 C   0  0  1  0  0  3  0  0  0  0  0  0
  197.1380  168.8880  145.0360 C   0  0  0  0  0  0  0  0  0  0  0  0
  189.3080  176.0310  142.6610 O   0  0  0  0  0  0  0  0  0  0  0  0
  188.2550  175.3470  142.7140 C   0  0  0  0  0  0  0  0  0  0  0  0
  188.3030  173.9210  142.6160 N   0  0  0  0  0  2  0  0  0  0  0  0
  186.9470  176.0310  142.9070 C   0  0  0  0  0  2  0  0  0  0  0  0
  186.3090  175.6610  144.2350 C   0  0  0  0  0  2  0  0  0  0  0  0
  188.1080  176.1560  145.9000 C   0  0  0  0  0  1  0  0  0  0  0  0
  186.7520  176.5740  145.3800 C   0  0  1  0  0  3  0  0  0  0  0  0
  186.8470  178.2910  144.8030 S   0  0  0  0  0  0  0  0  0  0  0  0
  184.8720  179.1480  146.5660 C   0  0  0  0  0  1  0  0  0  0  0  0
  185.0810  178.6090  145.1530 C   0  0  1  0  0  3  0  0  0  0  0  0
  183.3150  178.8850  143.3360 C   0  0  0  0  0  1  0  0  0  0  0  0
  184.4570  179.5440  144.1150 C   0  0  0  0  0  2  0  0  0  0  0  0
  196.3680  177.4680  143.6260 O   0  0  0  0  0  0  0  0  0  0  0  0
  194.6630  176.5050  144.8220 O   0  0  0  0  0  1  0  0  0  0  0  0
  195.6090  176.4770  143.8050 C   0  0  0  0  0  0  0  0  0  0  0  0
  2 23  1  0  0  0  0
  3  1  2  0  0  0  0
  5 21  1  0  0  0  0
  6  2  1  0  0  0  0
  6 28  1  0  0  0  0
  8 43  1  1  0  0  0
  8  3  1  0  0  0  0
  9  7  2  6  0  0  0
  9 29  1  0  0  0  0
  9 39  1  0  0  0  0
 10  6  1  0  0  0  0
 11 30  1  0  0  0  0
 11  5  1  1  0  0  0
 12 25  2  0  0  0  0
 13 20  1  6  0  0  0
 13 30  1  0  0  0  0
 13 15  1  0  0  0  0
 14  2  2  0  0  0  0
 15 19  2  0  0  0  0
 17  3  1  0  0  0  0
 18 10  1  6  0  0  0
 18  9  1  0  0  0  0
 19 27  1  0  0  0  0
 21 24  1  0  0  0  0
 23 17  1  0  0  0  0
 24  4  1  1  0  0  0
 24 18  1  0  0  0  0
 25 13  1  0  0  0  0
 25 11  1  0  0  0  0
 26 12  1  0  0  0  0
 27  8  1  0  0  0  0
 28 29  1  0  0  0  0
 28 55  1  1  0  0  0
 30 16  1  6  0  0  0
 30 22  1  0  0  0  0
 32 31  1  1  0  0  0
 32 33  1  0  0  0  0
 33 37  2  0  0  0  0
 34 40  1  0  0  0  0
 35 34  1  0  0  0  0
 37 36  1  0  0  0  0
 38 37  1  0  0  0  0
 39 35  1  6  0  0  0
 39 31  1  0  0  0  0
 40 32  1  0  0  0  0
 40 38  2  0  0  0  0
 41 42  2  0  0  0  0
 42 44  1  0  0  0  0
 43 42  1  0  0  0  0
 44 45  1  0  0  0  0
 45 47  1  0  0  0  0
 47 46  1  6  0  0  0
 48 50  1  0  0  0  0
 48 47  1  0  0  0  0
 50 49  1  1  0  0  0
 51 52  1  0  0  0  0
 52 50  1  0  0  0  0
 53 55  2  0  0  0  0
 55 54  1  0  0  0  0
M  END
>  <MODEL>
8

>  <REMARK>
 VINA RESULT:      -5.6      3.220      7.697
  Name = 
  9 active torsions:
  status: ('A' for Active; 'I' for Inactive)
    1  A    between atoms: C_14  and  C_24
    2  A    between atoms: C_16  and  N_33
    3  A    between atoms: P_17  and  C_46
    4  A    between atoms: C_19  and  C_55
    5  A    between atoms: C_20  and  C_24
    6  A    between atoms: C_20  and  C_30
    7  A    between atoms: S_21  and  C_30
    8  A    between atoms: S_21  and  C_55
    9  A    between atoms: C_40  and  C_52
                            x       y       z     vdW  Elec       q    Type
                         _______ _______ _______ _____ _____    ______ ____

>  <TORSDO>
F 9

$$$$
=
 OpenBabel11062418353D

 55 59  0  0  1  0  0  0  0  0999 V2000
  192.1190  169.7900  143.0230 C   0  0  0  0  0  2  0  0  0  0  0  0
  190.8670  172.9970  139.7060 C   0  0  0  0  0  0  0  0  0  0  0  0
  192.5130  170.6830  142.1200 C   0  0  0  0  0  0  0  0  0  0  0  0
  190.9410  175.4190  145.0420 O   0  0  0  0  0  1  0  0  0  0  0  0
  193.7400  175.9800  144.6040 C   0  0  0  0  0  2  0  0  0  0  0  0
  190.2570  174.0660  140.4560 N   0  0  0  0  0  0  0  0  0  0  0  0
  189.2120  177.2720  142.0900 O   0  0  0  0  0  0  0  0  0  0  0  0
  193.9810  170.7280  141.7410 C   0  0  2  0  0  3  0  0  0  0  0  0
  188.9340  175.8550  142.5500 P   0  0  2  0  0  0  0  0  0  0  0  0
  191.1350  174.7970  141.3690 C   0  0  0  0  0  2  0  0  0  0  0  0
  195.2370  175.6490  144.5390 C   0  0  2  0  0  3  0  0  0  0  0  0
  195.9010  176.4480  142.1000 C   0  0  0  0  0  3  0  0  0  0  0  0
  196.3280  174.2330  143.5060 C   0  0  1  0  0  0  0  0  0  0  0  0
  190.8480  173.0190  138.4460 O   0  0  0  0  0  0  0  0  0  0  0  0
  195.9070  173.1480  142.5400 C   0  0  0  0  0  3  0  0  0  0  0  0
  196.5530  174.1650  146.0670 C   0  0  0  0  0  1  0  0  0  0  0  0
  191.5530  171.7780  141.7550 C   0  0  0  0  0  2  0  0  0  0  0  0
  190.4960  174.9420  142.7520 C   0  0  1  0  0  3  0  0  0  0  0  0
  194.7070  173.0950  141.9570 C   0  0  0  0  0  3  0  0  0  0  0  0
  197.7210  174.2450  143.6200 O   0  0  0  0  0  1  0  0  0  0  0  0
  192.8600  175.1640  143.6650 C   0  0  0  0  0  2  0  0  0  0  0  0
  194.5780  173.3420  144.9540 F   0  0  0  0  0  0  0  0  0  0  0  0
  191.5200  171.9420  140.3430 O   0  0  0  0  0  0  0  0  0  0  0  0
  191.4160  175.6460  143.7520 C   0  0  2  0  0  3  0  0  0  0  0  0
  195.8260  175.6230  143.1350 C   0  0  0  0  0  0  0  0  0  0  0  0
  196.5670  176.0640  140.9480 O   0  0  0  0  0  1  0  0  0  0  0  0
  194.3990  171.9940  140.9970 C   0  0  0  0  0  2  0  0  0  0  0  0
  188.9970  174.7200  140.0370 C   0  0  2  0  0  3  0  0  0  0  0  0
  188.0730  174.9530  141.2310 C   0  0  0  0  0  2  0  0  0  0  0  0
  195.6360  174.2330  144.8530 C   0  0  1  0  0  0  0  0  0  0  0  0
  188.4170  176.9470  145.0430 C   0  0  0  0  0  2  0  0  0  0  0  0
  187.3720  178.0220  145.3660 C   0  0  2  0  0  3  0  0  0  0  0  0
  187.6800  178.7180  146.6110 N   0  0  0  0  0  0  0  0  0  0  0  0
  185.5120  176.2570  144.8740 C   0  0  0  0  0  2  0  0  0  0  0  0
  186.4160  176.0280  143.6600 C   0  0  0  0  0  2  0  0  0  0  0  0
  186.6530  179.0580  148.8000 C   0  0  0  0  0  1  0  0  0  0  0  0
  186.7020  178.4860  147.4260 C   0  0  0  0  0  0  0  0  0  0  0  0
  185.7030  177.6130  146.9170 N   0  0  0  0  0  0  0  0  0  0  0  0
  187.9020  175.8740  144.0530 C   0  0  1  0  0  3  0  0  0  0  0  0
  186.0940  177.3460  145.7160 C   0  0  0  0  0  0  0  0  0  0  0  0
  193.4800  170.1370  138.9260 O   0  0  0  0  0  0  0  0  0  0  0  0
  194.1910  169.3420  139.5910 C   0  0  0  0  0  0  0  0  0  0  0  0
  194.3890  169.5370  140.9940 N   0  0  0  0  0  2  0  0  0  0  0  0
  194.8110  168.1710  138.9120 C   0  0  0  0  0  2  0  0  0  0  0  0
  195.2920  168.5220  137.5140 C   0  0  0  0  0  2  0  0  0  0  0  0
  197.7150  168.9260  137.0550 C   0  0  0  0  0  1  0  0  0  0  0  0
  196.4220  169.5540  137.5170 C   0  0  1  0  0  3  0  0  0  0  0  0
  196.0070  170.9310  136.4110 S   0  0  0  0  0  0  0  0  0  0  0  0
  197.9080  172.5950  137.5770 C   0  0  0  0  0  1  0  0  0  0  0  0
  196.4370  172.1930  137.6610 C   0  0  1  0  0  3  0  0  0  0  0  0
  194.1550  173.0940  136.9700 C   0  0  0  0  0  1  0  0  0  0  0  0
  195.5290  173.4200  137.5630 C   0  0  0  0  0  2  0  0  0  0  0  0
  187.7820  172.7980  139.2590 O   0  0  0  0  0  1  0  0  0  0  0  0
  188.0240  174.5050  137.7450 O   0  0  0  0  0  0  0  0  0  0  0  0
  188.2330  173.9470  139.0000 C   0  0  0  0  0  0  0  0  0  0  0  0
  2 23  1  0  0  0  0
  2  6  1  0  0  0  0
  3  1  2  0  0  0  0
  6 10  1  0  0  0  0
  8 43  1  6  0  0  0
  8  3  1  0  0  0  0
  9  7  2  6  0  0  0
  9 18  1  0  0  0  0
  9 39  1  0  0  0  0
 11  5  1  6  0  0  0
 11 30  1  0  0  0  0
 12 25  2  0  0  0  0
 13 20  1  1  0  0  0
 13 30  1  0  0  0  0
 14  2  2  0  0  0  0
 15 13  1  0  0  0  0
 17  3  1  0  0  0  0
 18 10  1  6  0  0  0
 18 24  1  0  0  0  0
 19 15  2  0  0  0  0
 21 24  1  0  0  0  0
 21  5  1  0  0  0  0
 23 17  1  0  0  0  0
 24  4  1  1  0  0  0
 25 13  1  0  0  0  0
 25 11  1  0  0  0  0
 26 12  1  0  0  0  0
 27  8  1  0  0  0  0
 27 19  1  0  0  0  0
 28 55  1  6  0  0  0
 28  6  1  0  0  0  0
 28 29  1  0  0  0  0
 29  9  1  0  0  0  0
 30 22  1  0  0  0  0
 30 16  1  1  0  0  0
 32 31  1  1  0  0  0
 32 40  1  0  0  0  0
 32 33  1  0  0  0  0
 33 37  2  0  0  0  0
 34 40  1  0  0  0  0
 35 34  1  0  0  0  0
 37 36  1  0  0  0  0
 38 37  1  0  0  0  0
 39 35  1  6  0  0  0
 39 31  1  0  0  0  0
 40 38  2  0  0  0  0
 41 42  2  0  0  0  0
 42 43  1  0  0  0  0
 44 42  1  0  0  0  0
 45 47  1  0  0  0  0
 45 44  1  0  0  0  0
 47 46  1  6  0  0  0
 48 47  1  0  0  0  0
 48 50  1  0  0  0  0
 50 49  1  6  0  0  0
 51 52  1  0  0  0  0
 52 50  1  0  0  0  0
 54 55  2  0  0  0  0
 55 53  1  0  0  0  0
M  END
>  <MODEL>
9

>  <REMARK>
 VINA RESULT:      -5.3      3.543      9.170
  Name = 
  9 active torsions:
  status: ('A' for Active; 'I' for Inactive)
    1  A    between atoms: C_14  and  C_24
    2  A    between atoms: C_16  and  N_33
    3  A    between atoms: P_17  and  C_46
    4  A    between atoms: C_19  and  C_55
    5  A    between atoms: C_20  and  C_24
    6  A    between atoms: C_20  and  C_30
    7  A    between atoms: S_21  and  C_30
    8  A    between atoms: S_21  and  C_55
    9  A    between atoms: C_40  and  C_52
                            x       y       z     vdW  Elec       q    Type
                         _______ _______ _______ _____ _____    ______ ____

>  <TORSDO>
F 9

$$$$
