=
 OpenBabel11072409423D

 70 73  0  0  1  0  0  0  0  0999 V2000
  193.9220  175.2620  145.0050 S   0  0  0  0  0  0  0  0  0  0  0  0
  192.8020  175.4530  143.8560 C   0  0  2  0  0  3  0  0  0  0  0  0
  196.0130  176.8200  144.8230 O   0  0  0  0  0  0  0  0  0  0  0  0
  195.4490  175.8580  144.3150 C   0  0  0  0  0  0  0  0  0  0  0  0
  196.0130  175.2030  143.0760 C   0  0  2  0  0  3  0  0  0  0  0  0
  196.6300  173.8100  143.2330 C   0  0  1  0  0  3  0  0  0  0  0  0
  197.3730  173.1090  141.7210 S   0  0  0  0  0  0  0  0  0  0  0  0
  195.6330  168.6580  139.5570 C   0  0  0  0  0  1  0  0  0  0  0  0
  196.0820  171.0710  140.2850 C   0  0  1  0  0  3  0  0  0  0  0  0
  197.3600  170.8260  139.7680 O   0  0  0  0  0  1  0  0  0  0  0  0
  195.3670  169.7550  140.5820 C   0  0  2  0  0  3  0  0  0  0  0  0
  196.1910  171.7140  141.6550 C   0  0  1  0  0  3  0  0  0  0  0  0
  197.9370  170.2870  142.8030 C   0  0  0  0  0  1  0  0  0  0  0  0
  196.4400  170.5780  142.6450 C   0  0  2  0  0  3  0  0  0  0  0  0
  196.3750  168.1790  142.1690 O   0  0  0  0  0  1  0  0  0  0  0  0
  195.6760  169.3890  142.0410 C   0  0  2  0  0  3  0  0  0  0  0  0
  197.6640  173.8250  144.3470 C   0  0  0  0  0  2  0  0  0  0  0  0
  197.4390  172.6790  145.3180 C   0  0  0  0  0  2  0  0  0  0  0  0
  196.0890  172.8050  146.0080 C   0  0  0  0  0  1  0  0  0  0  0  0
  196.9060  176.1270  142.2600 C   0  0  0  0  0  2  0  0  0  0  0  0
  196.2290  176.4780  140.9480 C   0  0  2  0  0  3  0  0  0  0  0  0
  194.7280  176.4670  141.1260 C   0  0  0  0  0  2  0  0  0  0  0  0
  195.4150  175.2930  140.4640 C   0  0  1  0  0  3  0  0  0  0  0  0
  195.2400  175.3880  138.9580 C   0  0  0  0  0  2  0  0  0  0  0  0
  194.9530  173.7390  138.2430 S   0  0  0  0  0  0  0  0  0  0  0  0
  193.2390  174.1190  137.7550 C   0  0  0  0  0  2  0  0  0  0  0  0
  193.1800  174.5890  136.3440 C   0  0  0  0  0  0  0  0  0  0  0  0
  193.6950  173.8850  135.4390 O   0  0  0  0  0  0  0  0  0  0  0  0
  192.5660  175.8020  136.0390 O   0  0  0  0  0  0  0  0  0  0  0  0
  192.6080  178.0110  135.1140 C   0  0  0  0  0  1  0  0  0  0  0  0
  193.2830  177.0260  136.0470 C   0  0  0  0  0  2  0  0  0  0  0  0
  191.7320  176.4980  143.9860 C   0  0  0  0  0  2  0  0  0  0  0  0
  190.9260  175.3220  146.0220 C   0  0  1  0  0  3  0  0  0  0  0  0
  190.4030  176.7490  146.1600 C   0  0  1  0  0  3  0  0  0  0  0  0
  189.9480  174.3810  146.3670 O   0  0  0  0  0  1  0  0  0  0  0  0
  190.4890  176.0960  144.7850 C   0  0  1  0  0  3  0  0  0  0  0  0
  189.0430  176.7800  146.5640 O   0  0  0  0  0  0  0  0  0  0  0  0
  188.1100  177.4770  145.8100 C   0  0  0  0  0  3  0  0  0  0  0  0
  187.9630  177.1950  144.5190 C   0  0  0  0  0  3  0  0  0  0  0  0
  186.9670  177.9040  143.6520 C   0  0  2  0  0  3  0  0  0  0  0  0
  187.6420  178.5480  142.4500 C   0  0  0  0  0  2  0  0  0  0  0  0
  188.8230  176.5160  142.0530 O   0  0  0  0  0  1  0  0  0  0  0  0
  188.0390  177.4860  141.4260 C   0  0  1  0  0  3  0  0  0  0  0  0
  186.8420  176.8050  140.7420 C   0  0  2  0  0  3  0  0  0  0  0  0
  186.4740  176.7200  138.3010 S   0  0  0  0  0  0  0  0  0  0  0  0
  187.2540  175.8160  139.6690 C   0  0  0  0  0  2  0  0  0  0  0  0
  186.1250  177.7300  139.7710 C   0  0  1  0  0  3  0  0  0  0  0  0
  184.1750  179.0090  140.2700 O   0  0  0  0  0  1  0  0  0  0  0  0
  184.6320  177.7130  140.0470 C   0  0  0  0  0  2  0  0  0  0  0  0
  186.2120  178.9620  144.4500 C   0  0  0  0  0  2  0  0  0  0  0  0
  184.7670  178.5580  144.7060 C   0  0  0  0  0  2  0  0  0  0  0  0
  184.7120  177.4140  145.5450 O   0  0  0  0  0  0  0  0  0  0  0  0
  184.9150  177.5080  146.9210 C   0  0  0  0  0  0  0  0  0  0  0  0
  185.5810  176.6140  147.5100 O   0  0  0  0  0  0  0  0  0  0  0  0
  184.3880  178.5790  147.6460 O   0  0  0  0  0  1  0  0  0  0  0  0
  192.7880  174.5050  142.6930 C   0  0  0  0  0  2  0  0  0  0  0  0
  191.3740  174.0740  142.2970 C   0  0  2  0  0  3  0  0  0  0  0  0
  191.1030  172.6810  142.7740 C   0  0  0  0  0  0  0  0  0  0  0  0
  190.2100  172.4710  143.6430 O   0  0  0  0  0  0  0  0  0  0  0  0
  191.8740  171.5910  142.2500 N   0  0  0  0  0  2  0  0  0  0  0  0
  191.8960  170.2860  142.8980 C   0  0  0  0  0  2  0  0  0  0  0  0
  191.1130  169.2870  142.0580 C   0  0  0  0  0  2  0  0  0  0  0  0
  191.9850  168.6680  140.9680 C   0  0  0  0  0  2  0  0  0  0  0  0
  191.2770  168.5550  139.6170 C   0  0  2  0  0  3  0  0  0  0  0  0
  192.2390  168.7750  138.4590 C   0  0  0  0  0  1  0  0  0  0  0  0
  190.2010  169.4450  139.5340 O   0  0  0  0  0  0  0  0  0  0  0  0
  190.0240  169.6680  138.1680 C   0  0  0  0  0  2  0  0  0  0  0  0
  189.9820  171.1570  137.8880 C   0  0  0  0  0  1  0  0  0  0  0  0
  189.9880  173.5760  140.5740 O   0  0  0  0  0  1  0  0  0  0  0  0
  191.1940  174.1330  140.8530 N   0  0  0  0  0  2  0  0  0  0  0  0
  2 56  1  1  0  0  0
  2 32  1  0  0  0  0
  2  1  1  0  0  0  0
  4  3  2  0  0  0  0
  4  1  1  0  0  0  0
  5 20  1  1  0  0  0
  5  6  1  0  0  0  0
  5  4  1  0  0  0  0
  6 17  1  1  0  0  0
  7  6  1  0  0  0  0
  9 10  1  1  0  0  0
  9 11  1  0  0  0  0
  9 12  1  0  0  0  0
 11  8  1  6  0  0  0
 11 16  1  0  0  0  0
 12  7  1  6  0  0  0
 12 14  1  0  0  0  0
 14 13  1  6  0  0  0
 16 15  1  6  0  0  0
 16 14  1  0  0  0  0
 17 18  1  0  0  0  0
 18 19  1  0  0  0  0
 21 22  1  0  0  0  0
 21 20  1  1  0  0  0
 23 24  1  6  0  0  0
 23 21  1  0  0  0  0
 23 22  1  0  0  0  0
 25 24  1  0  0  0  0
 26 25  1  0  0  0  0
 27 26  1  0  0  0  0
 28 27  2  0  0  0  0
 29 31  1  0  0  0  0
 29 27  1  0  0  0  0
 30 31  1  0  0  0  0
 33 34  1  0  0  0  0
 33 35  1  1  0  0  0
 34 37  1  1  0  0  0
 36 32  1  6  0  0  0
 36 33  1  0  0  0  0
 36 34  1  0  0  0  0
 38 37  1  0  0  0  0
 39 38  2  0  0  0  0
 40 41  1  6  0  0  0
 40 50  1  0  0  0  0
 40 39  1  0  0  0  0
 43 42  1  1  0  0  0
 43 41  1  0  0  0  0
 44 43  1  6  0  0  0
 45 46  1  0  0  0  0
 45 47  1  0  0  0  0
 46 44  1  0  0  0  0
 47 49  1  1  0  0  0
 47 44  1  0  0  0  0
 49 48  1  0  0  0  0
 50 51  1  0  0  0  0
 51 52  1  0  0  0  0
 52 53  1  0  0  0  0
 53 54  2  0  0  0  0
 53 55  1  0  0  0  0
 57 56  1  6  0  0  0
 57 58  1  0  0  0  0
 58 59  2  0  0  0  0
 60 58  1  0  0  0  0
 60 61  1  0  0  0  0
 62 61  1  0  0  0  0
 63 62  1  0  0  0  0
 64 65  1  6  0  0  0
 64 63  1  0  0  0  0
 66 64  1  0  0  0  0
 67 66  1  0  0  0  0
 68 67  1  0  0  0  0
 69 70  1  0  0  0  0
 70 57  1  0  0  0  0
M  END
>  <MODEL>
1

>  <REMARK>
 VINA RESULT:      -4.0      0.000      0.000
  Name = 
  38 active torsions:
  status: ('A' for Active; 'I' for Inactive)
    1  A    between atoms: C_2  and  O_53
    2  A    between atoms: C_4  and  C_9
    3  A    between atoms: C_4  and  C_27
    4  A    between atoms: C_6  and  C_36
    5  A    between atoms: C_6  and  C_67
    6  A    between atoms: C_12  and  C_15
    7  A    between atoms: C_13  and  S_26
    8  A    between atoms: C_14  and  O_53
    9  A    between atoms: C_15  and  C_60
   10  A    between atoms: C_16  and  O_23
   11  A    between atoms: C_18  and  C_39
   12  A    between atoms: C_18  and  O_58
   13  A    between atoms: C_20  and  C_36
   14  A    between atoms: C_21  and  C_65
   15  A    between atoms: C_21  and  S_68
   16  A    between atoms: C_22  and  C_61
   17  A    between atoms: O_23  and  C_40
   18  A    between atoms: S_26  and  C_60
   19  A    between atoms: C_27  and  C_28
   20  A    between atoms: C_27  and  C_60
   21  A    between atoms: C_28  and  S_37
   22  A    between atoms: C_29  and  C_43
   23  A    between atoms: C_29  and  C_62
   24  A    between atoms: C_33  and  C_56
   25  A    between atoms: C_33  and  C_59
   26  A    between atoms: C_33  and  C_63
   27  A    between atoms: C_34  and  O_49
   28  A    between atoms: C_35  and  O_58
   29  A    between atoms: C_36  and  N_64
   30  A    between atoms: C_39  and  S_68
   31  A    between atoms: C_40  and  C_56
   32  A    between atoms: C_41  and  C_57
   33  A    between atoms: C_42  and  O_49
   34  A    between atoms: C_42  and  C_62
   35  A    between atoms: C_43  and  N_54
   36  A    between atoms: C_55  and  C_70
   37  A    between atoms: C_57  and  C_67
   38  A    between atoms: C_61  and  C_63
                            x       y       z     vdW  Elec       q    Type
                         _______ _______ _______ _____ _____    ______ ____

>  <TORSDO>
F 38

$$$$
=
 OpenBabel11072409423D

 70 73  0  0  1  0  0  0  0  0999 V2000
  194.5250  176.4550  142.1580 S   0  0  0  0  0  0  0  0  0  0  0  0
  193.7720  175.8870  143.4700 C   0  0  2  0  0  3  0  0  0  0  0  0
  193.0200  174.7360  140.8860 O   0  0  0  0  0  0  0  0  0  0  0  0
  194.0550  175.3870  140.8140 C   0  0  0  0  0  0  0  0  0  0  0  0
  194.9640  175.2550  139.6150 C   0  0  2  0  0  3  0  0  0  0  0  0
  194.4180  174.5050  138.3950 C   0  0  1  0  0  3  0  0  0  0  0  0
  192.6020  174.5210  138.2170 S   0  0  0  0  0  0  0  0  0  0  0  0
  189.8880  170.2110  136.9630 C   0  0  0  0  0  1  0  0  0  0  0  0
  191.1210  172.1380  138.1100 C   0  0  1  0  0  3  0  0  0  0  0  0
  190.1680  172.9310  137.4590 O   0  0  0  0  0  1  0  0  0  0  0  0
  191.2240  170.7710  137.4390 C   0  0  2  0  0  3  0  0  0  0  0  0
  192.5070  172.7210  137.9060 C   0  0  1  0  0  3  0  0  0  0  0  0
  192.5400  173.2300  135.4290 C   0  0  0  0  0  1  0  0  0  0  0  0
  192.9720  172.2540  136.5290 C   0  0  2  0  0  3  0  0  0  0  0  0
  191.8450  170.6460  135.0690 O   0  0  0  0  0  1  0  0  0  0  0  0
  192.3210  170.8710  136.3690 C   0  0  2  0  0  3  0  0  0  0  0  0
  195.0560  175.0470  137.1270 C   0  0  0  0  0  2  0  0  0  0  0  0
  196.5370  174.7120  137.0740 C   0  0  0  0  0  2  0  0  0  0  0  0
  197.1600  175.1940  135.7720 C   0  0  0  0  0  1  0  0  0  0  0  0
  196.3710  174.7990  139.9740 C   0  0  0  0  0  2  0  0  0  0  0  0
  196.4590  173.2850  139.9100 C   0  0  2  0  0  3  0  0  0  0  0  0
  197.3040  172.7710  141.0520 C   0  0  0  0  0  2  0  0  0  0  0  0
  197.8970  172.8700  139.6640 C   0  0  1  0  0  3  0  0  0  0  0  0
  197.9180  171.4930  139.0230 C   0  0  0  0  0  2  0  0  0  0  0  0
  197.1860  170.2570  140.1420 S   0  0  0  0  0  0  0  0  0  0  0  0
  196.9730  169.0170  138.8250 C   0  0  0  0  0  2  0  0  0  0  0  0
  196.0130  169.4960  137.7940 C   0  0  0  0  0  0  0  0  0  0  0  0
  194.9930  170.1360  138.1540 O   0  0  0  0  0  0  0  0  0  0  0  0
  196.2450  169.2260  136.4470 O   0  0  0  0  0  0  0  0  0  0  0  0
  197.2670  168.2470  134.5150 C   0  0  0  0  0  1  0  0  0  0  0  0
  197.2650  168.3330  136.0270 C   0  0  0  0  0  2  0  0  0  0  0  0
  192.6310  176.6380  144.0920 C   0  0  0  0  0  2  0  0  0  0  0  0
  191.7200  174.3360  144.3090 C   0  0  1  0  0  3  0  0  0  0  0  0
  191.5180  174.9690  145.6830 C   0  0  1  0  0  3  0  0  0  0  0  0
  190.5880  173.6180  143.9030 O   0  0  0  0  0  1  0  0  0  0  0  0
  191.3820  175.8170  144.4230 C   0  0  1  0  0  3  0  0  0  0  0  0
  190.2220  174.7140  146.2020 O   0  0  0  0  0  0  0  0  0  0  0  0
  189.2980  175.7430  146.3010 C   0  0  0  0  0  3  0  0  0  0  0  0
  188.0780  175.5840  145.7990 C   0  0  0  0  0  3  0  0  0  0  0  0
  187.0310  176.6550  145.8830 C   0  0  2  0  0  3  0  0  0  0  0  0
  187.4580  177.9020  145.1240 C   0  0  0  0  0  2  0  0  0  0  0  0
  186.5780  179.6460  143.7580 O   0  0  0  0  0  1  0  0  0  0  0  0
  186.3850  178.3110  144.1170 C   0  0  1  0  0  3  0  0  0  0  0  0
  186.3640  177.4440  142.8460 C   0  0  2  0  0  3  0  0  0  0  0  0
  187.8970  177.7130  140.9290 S   0  0  0  0  0  0  0  0  0  0  0  0
  187.7160  176.8440  142.5120 C   0  0  0  0  0  2  0  0  0  0  0  0
  186.2950  178.2770  141.5770 C   0  0  1  0  0  3  0  0  0  0  0  0
  184.2240  178.7530  140.4920 O   0  0  0  0  0  1  0  0  0  0  0  0
  185.1830  177.7610  140.6790 C   0  0  0  0  0  2  0  0  0  0  0  0
  186.7330  177.0070  147.3350 C   0  0  0  0  0  2  0  0  0  0  0  0
  186.4400  178.4900  147.5130 C   0  0  0  0  0  2  0  0  0  0  0  0
  185.0420  178.7090  147.6280 O   0  0  0  0  0  0  0  0  0  0  0  0
  184.1390  178.1570  146.7210 C   0  0  0  0  0  0  0  0  0  0  0  0
  183.6640  177.0110  146.9420 O   0  0  0  0  0  1  0  0  0  0  0  0
  183.7600  178.8610  145.5760 O   0  0  0  0  0  0  0  0  0  0  0  0
  194.2920  174.6390  144.1200 C   0  0  0  0  0  2  0  0  0  0  0  0
  195.5190  174.8950  144.9980 C   0  0  2  0  0  3  0  0  0  0  0  0
  196.6870  174.0990  144.5030 C   0  0  0  0  0  0  0  0  0  0  0  0
  197.3400  174.4910  143.4950 O   0  0  0  0  0  0  0  0  0  0  0  0
  197.0480  172.8820  145.1710 N   0  0  0  0  0  2  0  0  0  0  0  0
  197.9400  171.9060  144.5570 C   0  0  0  0  0  2  0  0  0  0  0  0
  197.9120  170.6140  145.3610 C   0  0  0  0  0  2  0  0  0  0  0  0
  196.8260  170.6450  146.4340 C   0  0  0  0  0  2  0  0  0  0  0  0
  195.7130  169.6230  146.2000 C   0  0  2  0  0  3  0  0  0  0  0  0
  195.7970  168.4670  147.1850 C   0  0  0  0  0  1  0  0  0  0  0  0
  195.7330  169.1450  144.8850 O   0  0  0  0  0  0  0  0  0  0  0  0
  194.5930  169.6860  144.2890 C   0  0  0  0  0  2  0  0  0  0  0  0
  194.0790  170.8480  145.1170 C   0  0  0  0  0  1  0  0  0  0  0  0
  194.5890  175.5900  146.9450 O   0  0  0  0  0  1  0  0  0  0  0  0
  195.2520  174.5450  146.3870 N   0  0  0  0  0  2  0  0  0  0  0  0
  1  2  1  0  0  0  0
  2 32  1  1  0  0  0
  2 56  1  0  0  0  0
  4  3  2  0  0  0  0
  4  1  1  0  0  0  0
  5 20  1  1  0  0  0
  5  4  1  0  0  0  0
  6 17  1  6  0  0  0
  6  5  1  0  0  0  0
  7  6  1  0  0  0  0
  9 10  1  6  0  0  0
 11  8  1  6  0  0  0
 11  9  1  0  0  0  0
 12  9  1  0  0  0  0
 12  7  1  6  0  0  0
 14 13  1  6  0  0  0
 14 12  1  0  0  0  0
 16 15  1  6  0  0  0
 16 14  1  0  0  0  0
 16 11  1  0  0  0  0
 18 17  1  0  0  0  0
 19 18  1  0  0  0  0
 21 20  1  1  0  0  0
 21 22  1  0  0  0  0
 23 24  1  6  0  0  0
 23 21  1  0  0  0  0
 23 22  1  0  0  0  0
 24 25  1  0  0  0  0
 26 25  1  0  0  0  0
 27 28  2  0  0  0  0
 27 26  1  0  0  0  0
 29 27  1  0  0  0  0
 30 31  1  0  0  0  0
 31 29  1  0  0  0  0
 33 35  1  6  0  0  0
 33 36  1  0  0  0  0
 33 34  1  0  0  0  0
 34 37  1  6  0  0  0
 36 32  1  1  0  0  0
 36 34  1  0  0  0  0
 37 38  1  0  0  0  0
 39 40  1  0  0  0  0
 39 38  2  0  0  0  0
 40 41  1  6  0  0  0
 40 50  1  0  0  0  0
 43 42  1  6  0  0  0
 43 41  1  0  0  0  0
 44 43  1  1  0  0  0
 45 47  1  0  0  0  0
 45 46  1  0  0  0  0
 46 44  1  0  0  0  0
 47 49  1  6  0  0  0
 47 44  1  0  0  0  0
 48 49  1  0  0  0  0
 50 51  1  0  0  0  0
 51 52  1  0  0  0  0
 53 54  1  0  0  0  0
 53 52  1  0  0  0  0
 55 53  2  0  0  0  0
 57 56  1  6  0  0  0
 57 70  1  0  0  0  0
 58 57  1  0  0  0  0
 58 60  1  0  0  0  0
 59 58  2  0  0  0  0
 61 60  1  0  0  0  0
 61 62  1  0  0  0  0
 62 63  1  0  0  0  0
 64 63  1  0  0  0  0
 64 65  1  1  0  0  0
 66 64  1  0  0  0  0
 67 66  1  0  0  0  0
 67 68  1  0  0  0  0
 70 69  1  0  0  0  0
M  END
>  <MODEL>
2

>  <REMARK>
 VINA RESULT:      -3.5      2.500      5.617
  Name = 
  38 active torsions:
  status: ('A' for Active; 'I' for Inactive)
    1  A    between atoms: C_2  and  O_53
    2  A    between atoms: C_4  and  C_9
    3  A    between atoms: C_4  and  C_27
    4  A    between atoms: C_6  and  C_36
    5  A    between atoms: C_6  and  C_67
    6  A    between atoms: C_12  and  C_15
    7  A    between atoms: C_13  and  S_26
    8  A    between atoms: C_14  and  O_53
    9  A    between atoms: C_15  and  C_60
   10  A    between atoms: C_16  and  O_23
   11  A    between atoms: C_18  and  C_39
   12  A    between atoms: C_18  and  O_58
   13  A    between atoms: C_20  and  C_36
   14  A    between atoms: C_21  and  C_65
   15  A    between atoms: C_21  and  S_68
   16  A    between atoms: C_22  and  C_61
   17  A    between atoms: O_23  and  C_40
   18  A    between atoms: S_26  and  C_60
   19  A    between atoms: C_27  and  C_28
   20  A    between atoms: C_27  and  C_60
   21  A    between atoms: C_28  and  S_37
   22  A    between atoms: C_29  and  C_43
   23  A    between atoms: C_29  and  C_62
   24  A    between atoms: C_33  and  C_56
   25  A    between atoms: C_33  and  C_59
   26  A    between atoms: C_33  and  C_63
   27  A    between atoms: C_34  and  O_49
   28  A    between atoms: C_35  and  O_58
   29  A    between atoms: C_36  and  N_64
   30  A    between atoms: C_39  and  S_68
   31  A    between atoms: C_40  and  C_56
   32  A    between atoms: C_41  and  C_57
   33  A    between atoms: C_42  and  O_49
   34  A    between atoms: C_42  and  C_62
   35  A    between atoms: C_43  and  N_54
   36  A    between atoms: C_55  and  C_70
   37  A    between atoms: C_57  and  C_67
   38  A    between atoms: C_61  and  C_63
                            x       y       z     vdW  Elec       q    Type
                         _______ _______ _______ _____ _____    ______ ____

>  <TORSDO>
F 38

$$$$
=
 OpenBabel11072409423D

 70 73  0  0  1  0  0  0  0  0999 V2000
  194.5720  176.4830  142.1770 S   0  0  0  0  0  0  0  0  0  0  0  0
  193.8700  176.0230  143.5580 C   0  0  2  0  0  3  0  0  0  0  0  0
  192.8650  175.0080  140.8560 O   0  0  0  0  0  0  0  0  0  0  0  0
  194.0480  175.3160  140.9400 C   0  0  0  0  0  0  0  0  0  0  0  0
  195.0750  174.6760  140.0370 C   0  0  2  0  0  3  0  0  0  0  0  0
  194.5690  174.0140  138.7510 C   0  0  1  0  0  3  0  0  0  0  0  0
  193.5150  175.0630  137.6940 S   0  0  0  0  0  0  0  0  0  0  0  0
  190.2160  171.0470  136.9870 C   0  0  0  0  0  1  0  0  0  0  0  0
  192.1730  172.6030  137.5360 C   0  0  1  0  0  3  0  0  0  0  0  0
  191.2420  173.2220  138.3800 O   0  0  0  0  0  1  0  0  0  0  0  0
  191.4580  171.7690  136.4760 C   0  0  2  0  0  3  0  0  0  0  0  0
  192.9010  173.6470  136.7120 C   0  0  1  0  0  3  0  0  0  0  0  0
  191.0190  175.1300  135.9010 C   0  0  0  0  0  1  0  0  0  0  0  0
  191.9820  173.9920  135.5430 C   0  0  2  0  0  3  0  0  0  0  0  0
  189.8900  172.8720  134.9460 O   0  0  0  0  0  1  0  0  0  0  0  0
  191.2440  172.6750  135.2540 C   0  0  2  0  0  3  0  0  0  0  0  0
  195.7440  173.4950  137.9390 C   0  0  0  0  0  2  0  0  0  0  0  0
  196.5760  174.6400  137.3870 C   0  0  0  0  0  2  0  0  0  0  0  0
  197.9410  174.1510  136.9270 C   0  0  0  0  0  1  0  0  0  0  0  0
  196.0600  173.7850  140.7810 C   0  0  0  0  0  2  0  0  0  0  0  0
  195.3100  172.7070  141.5420 C   0  0  2  0  0  3  0  0  0  0  0  0
  195.8550  171.3460  141.1740 C   0  0  0  0  0  2  0  0  0  0  0  0
  194.5560  171.8260  140.5630 C   0  0  1  0  0  3  0  0  0  0  0  0
  193.3880  171.1690  141.2790 C   0  0  0  0  0  2  0  0  0  0  0  0
  192.6820  169.8370  140.2600 S   0  0  0  0  0  0  0  0  0  0  0  0
  191.0160  170.0080  140.9790 C   0  0  0  0  0  2  0  0  0  0  0  0
  191.0950  170.3250  142.4310 C   0  0  0  0  0  0  0  0  0  0  0  0
  191.8450  169.6390  143.1700 O   0  0  0  0  0  0  0  0  0  0  0  0
  190.3350  171.3660  142.9600 O   0  0  0  0  0  0  0  0  0  0  0  0
  188.8230  172.4240  141.4320 C   0  0  0  0  0  1  0  0  0  0  0  0
  188.9600  171.5240  142.6430 C   0  0  0  0  0  2  0  0  0  0  0  0
  192.7560  176.8270  144.1630 C   0  0  0  0  0  2  0  0  0  0  0  0
  191.7940  174.5740  144.5770 C   0  0  1  0  0  3  0  0  0  0  0  0
  191.5080  175.3630  145.8520 C   0  0  1  0  0  3  0  0  0  0  0  0
  190.6810  173.8230  144.1770 O   0  0  0  0  0  1  0  0  0  0  0  0
  191.4730  176.0610  144.4960 C   0  0  1  0  0  3  0  0  0  0  0  0
  190.1740  175.1800  146.3030 O   0  0  0  0  0  0  0  0  0  0  0  0
  189.2220  176.1610  146.0700 C   0  0  0  0  0  3  0  0  0  0  0  0
  188.0820  175.8420  145.4650 C   0  0  0  0  0  3  0  0  0  0  0  0
  187.0090  176.8540  145.1940 C   0  0  2  0  0  3  0  0  0  0  0  0
  187.2920  177.6280  143.9150 C   0  0  0  0  0  2  0  0  0  0  0  0
  186.4080  179.6210  142.9520 O   0  0  0  0  0  1  0  0  0  0  0  0
  186.0410  178.3680  143.4470 C   0  0  1  0  0  3  0  0  0  0  0  0
  185.2380  177.6140  142.3740 C   0  0  2  0  0  3  0  0  0  0  0  0
  184.9560  178.3650  140.0370 S   0  0  0  0  0  0  0  0  0  0  0  0
  186.0300  177.3640  141.1050 C   0  0  0  0  0  2  0  0  0  0  0  0
  184.2100  178.5000  141.6890 C   0  0  1  0  0  3  0  0  0  0  0  0
  181.8400  178.7620  141.7650 O   0  0  0  0  0  1  0  0  0  0  0  0
  182.8550  177.8120  141.6840 C   0  0  0  0  0  2  0  0  0  0  0  0
  186.8680  177.8200  146.3640 C   0  0  0  0  0  2  0  0  0  0  0  0
  185.5390  177.6490  147.0870 C   0  0  0  0  0  2  0  0  0  0  0  0
  185.3920  178.6380  148.0950 O   0  0  0  0  0  0  0  0  0  0  0  0
  186.4480  179.4760  148.4560 C   0  0  0  0  0  0  0  0  0  0  0  0
  187.5280  178.9680  148.8600 O   0  0  0  0  0  1  0  0  0  0  0  0
  186.3150  180.8630  148.3730 O   0  0  0  0  0  0  0  0  0  0  0  0
  194.4110  174.8270  144.2830 C   0  0  0  0  0  2  0  0  0  0  0  0
  195.7140  175.1260  145.0300 C   0  0  2  0  0  3  0  0  0  0  0  0
  196.8330  174.3000  144.4730 C   0  0  0  0  0  0  0  0  0  0  0  0
  197.5230  174.7360  143.5100 O   0  0  0  0  0  0  0  0  0  0  0  0
  197.1030  173.0070  145.0310 N   0  0  0  0  0  2  0  0  0  0  0  0
  197.9360  172.0320  144.3390 C   0  0  0  0  0  2  0  0  0  0  0  0
  197.7430  170.6590  144.9670 C   0  0  0  0  0  2  0  0  0  0  0  0
  196.8210  170.7250  146.1830 C   0  0  0  0  0  2  0  0  0  0  0  0
  195.3440  170.5380  145.8340 C   0  0  2  0  0  3  0  0  0  0  0  0
  194.6690  169.5420  146.7650 C   0  0  0  0  0  1  0  0  0  0  0  0
  195.1850  170.1440  144.5010 O   0  0  0  0  0  0  0  0  0  0  0  0
  195.6940  168.8460  144.4470 C   0  0  0  0  0  2  0  0  0  0  0  0
  195.3150  168.1970  143.1300 C   0  0  0  0  0  1  0  0  0  0  0  0
  194.3110  174.4020  146.6560 O   0  0  0  0  0  1  0  0  0  0  0  0
  195.5750  174.8530  146.4540 N   0  0  0  0  0  2  0  0  0  0  0  0
  1  2  1  0  0  0  0
  2 32  1  1  0  0  0
  2 56  1  0  0  0  0
  3  4  2  0  0  0  0
  4  1  1  0  0  0  0
  5 20  1  1  0  0  0
  5  4  1  0  0  0  0
  6 17  1  6  0  0  0
  6  5  1  0  0  0  0
  7  6  1  0  0  0  0
  9 10  1  1  0  0  0
 11  8  1  1  0  0  0
 11  9  1  0  0  0  0
 12  9  1  0  0  0  0
 12  7  1  1  0  0  0
 14 13  1  1  0  0  0
 14 12  1  0  0  0  0
 16 15  1  1  0  0  0
 16 14  1  0  0  0  0
 16 11  1  0  0  0  0
 18 17  1  0  0  0  0
 19 18  1  0  0  0  0
 21 20  1  6  0  0  0
 22 21  1  0  0  0  0
 23 22  1  0  0  0  0
 23 24  1  1  0  0  0
 23 21  1  0  0  0  0
 25 26  1  0  0  0  0
 25 24  1  0  0  0  0
 26 27  1  0  0  0  0
 27 29  1  0  0  0  0
 27 28  2  0  0  0  0
 30 31  1  0  0  0  0
 31 29  1  0  0  0  0
 33 35  1  6  0  0  0
 33 34  1  0  0  0  0
 34 37  1  6  0  0  0
 36 32  1  1  0  0  0
 36 33  1  0  0  0  0
 36 34  1  0  0  0  0
 38 37  1  0  0  0  0
 39 38  2  0  0  0  0
 40 41  1  6  0  0  0
 40 39  1  0  0  0  0
 40 50  1  0  0  0  0
 43 42  1  6  0  0  0
 43 41  1  0  0  0  0
 44 43  1  1  0  0  0
 45 46  1  0  0  0  0
 45 47  1  0  0  0  0
 46 44  1  0  0  0  0
 47 49  1  6  0  0  0
 47 44  1  0  0  0  0
 49 48  1  0  0  0  0
 50 51  1  0  0  0  0
 51 52  1  0  0  0  0
 52 53  1  0  0  0  0
 53 54  1  0  0  0  0
 55 53  2  0  0  0  0
 57 56  1  6  0  0  0
 57 70  1  0  0  0  0
 58 57  1  0  0  0  0
 58 60  1  0  0  0  0
 59 58  2  0  0  0  0
 61 62  1  0  0  0  0
 61 60  1  0  0  0  0
 62 63  1  0  0  0  0
 64 63  1  0  0  0  0
 64 65  1  1  0  0  0
 66 64  1  0  0  0  0
 67 66  1  0  0  0  0
 68 67  1  0  0  0  0
 70 69  1  0  0  0  0
M  END
>  <MODEL>
3

>  <REMARK>
 VINA RESULT:      -3.3      2.453      5.778
  Name = 
  38 active torsions:
  status: ('A' for Active; 'I' for Inactive)
    1  A    between atoms: C_2  and  O_53
    2  A    between atoms: C_4  and  C_9
    3  A    between atoms: C_4  and  C_27
    4  A    between atoms: C_6  and  C_36
    5  A    between atoms: C_6  and  C_67
    6  A    between atoms: C_12  and  C_15
    7  A    between atoms: C_13  and  S_26
    8  A    between atoms: C_14  and  O_53
    9  A    between atoms: C_15  and  C_60
   10  A    between atoms: C_16  and  O_23
   11  A    between atoms: C_18  and  C_39
   12  A    between atoms: C_18  and  O_58
   13  A    between atoms: C_20  and  C_36
   14  A    between atoms: C_21  and  C_65
   15  A    between atoms: C_21  and  S_68
   16  A    between atoms: C_22  and  C_61
   17  A    between atoms: O_23  and  C_40
   18  A    between atoms: S_26  and  C_60
   19  A    between atoms: C_27  and  C_28
   20  A    between atoms: C_27  and  C_60
   21  A    between atoms: C_28  and  S_37
   22  A    between atoms: C_29  and  C_43
   23  A    between atoms: C_29  and  C_62
   24  A    between atoms: C_33  and  C_56
   25  A    between atoms: C_33  and  C_59
   26  A    between atoms: C_33  and  C_63
   27  A    between atoms: C_34  and  O_49
   28  A    between atoms: C_35  and  O_58
   29  A    between atoms: C_36  and  N_64
   30  A    between atoms: C_39  and  S_68
   31  A    between atoms: C_40  and  C_56
   32  A    between atoms: C_41  and  C_57
   33  A    between atoms: C_42  and  O_49
   34  A    between atoms: C_42  and  C_62
   35  A    between atoms: C_43  and  N_54
   36  A    between atoms: C_55  and  C_70
   37  A    between atoms: C_57  and  C_67
   38  A    between atoms: C_61  and  C_63
                            x       y       z     vdW  Elec       q    Type
                         _______ _______ _______ _____ _____    ______ ____

>  <TORSDO>
F 38

$$$$
=
 OpenBabel11072409423D

 70 73  0  0  1  0  0  0  0  0999 V2000
  192.7760  172.5940  143.3820 S   0  0  0  0  0  0  0  0  0  0  0  0
  191.9950  171.2760  142.8670 C   0  0  0  0  0  0  0  0  0  0  0  0
  195.1970  171.9280  142.6500 O   0  0  0  0  0  0  0  0  0  0  0  0
  194.2690  172.6940  142.4180 C   0  0  0  0  0  0  0  0  0  0  0  0
  194.3980  173.7580  141.3530 C   0  0  2  0  0  3  0  0  0  0  0  0
  194.7220  173.2940  139.9290 C   0  0  1  0  0  3  0  0  0  0  0  0
  196.3540  172.5060  139.7170 S   0  0  0  0  0  0  0  0  0  0  0  0
  197.5000  172.3400  134.6000 C   0  0  0  0  0  1  0  0  0  0  0  0
  196.5970  172.8480  136.9410 C   0  0  1  0  0  3  0  0  0  0  0  0
  197.9410  173.1030  137.2370 O   0  0  0  0  0  1  0  0  0  0  0  0
  196.4810  171.9940  135.6810 C   0  0  2  0  0  3  0  0  0  0  0  0
  195.9900  171.9580  138.0100 C   0  0  1  0  0  3  0  0  0  0  0  0
  197.7430  170.1590  138.2990 C   0  0  0  0  0  1  0  0  0  0  0  0
  196.3980  170.5290  137.6630 C   0  0  2  0  0  3  0  0  0  0  0  0
  197.5430  169.7840  135.6340 O   0  0  0  0  0  1  0  0  0  0  0  0
  196.4600  170.5250  136.1280 C   0  0  2  0  0  3  0  0  0  0  0  0
  193.6370  172.3550  139.4310 C   0  0  0  0  0  2  0  0  0  0  0  0
  192.5120  173.1250  138.7610 C   0  0  0  0  0  2  0  0  0  0  0  0
  193.0210  174.4330  138.1720 C   0  0  0  0  0  1  0  0  0  0  0  0
  195.2700  174.9310  141.7770 C   0  0  0  0  0  2  0  0  0  0  0  0
  195.0540  175.2320  143.2500 C   0  0  2  0  0  3  0  0  0  0  0  0
  193.7240  175.9230  143.4420 C   0  0  0  0  0  2  0  0  0  0  0  0
  195.0010  176.7350  143.4570 C   0  0  1  0  0  3  0  0  0  0  0  0
  195.3800  177.0550  144.8930 C   0  0  0  0  0  2  0  0  0  0  0  0
  194.6960  175.8070  146.0270 S   0  0  0  0  0  0  0  0  0  0  0  0
  193.5950  176.9960  146.8610 C   0  0  0  0  0  2  0  0  0  0  0  0
  192.1670  176.6330  146.6540 C   0  0  0  0  0  0  0  0  0  0  0  0
  191.5910  176.9810  145.5930 O   0  0  0  0  0  0  0  0  0  0  0  0
  191.4800  175.9200  147.6350 O   0  0  0  0  0  0  0  0  0  0  0  0
  189.2130  175.3730  147.0910 C   0  0  0  0  0  1  0  0  0  0  0  0
  190.6150  174.8440  147.3110 C   0  0  0  0  0  2  0  0  0  0  0  0
  190.7310  171.3910  142.0650 C   0  0  0  0  0  3  0  0  0  0  0  0
  188.6010  172.6120  142.4500 C   0  0  1  0  0  3  0  0  0  0  0  0
  189.5950  173.2400  143.4240 C   0  0  1  0  0  3  0  0  0  0  0  0
  187.8240  173.5860  141.8100 O   0  0  0  0  0  1  0  0  0  0  0  0
  190.0630  172.7690  142.0510 C   0  0  1  0  0  3  0  0  0  0  0  0
  189.5230  174.6580  143.4180 O   0  0  0  0  0  0  0  0  0  0  0  0
  188.8850  175.3160  142.3770 C   0  0  0  0  0  3  0  0  0  0  0  0
  188.3620  176.5210  142.5810 C   0  0  0  0  0  3  0  0  0  0  0  0
  187.6690  177.2880  141.4960 C   0  0  2  0  0  3  0  0  0  0  0  0
  186.4870  178.0720  142.0440 C   0  0  0  0  0  2  0  0  0  0  0  0
  186.3740  179.9020  143.5680 O   0  0  0  0  0  1  0  0  0  0  0  0
  186.7830  178.5720  143.4570 C   0  0  1  0  0  3  0  0  0  0  0  0
  186.1100  177.7410  144.5630 C   0  0  2  0  0  3  0  0  0  0  0  0
  184.2610  178.5360  145.9960 S   0  0  0  0  0  0  0  0  0  0  0  0
  184.6010  177.6840  144.4290 C   0  0  0  0  0  2  0  0  0  0  0  0
  186.0750  178.4710  145.8960 C   0  0  1  0  0  3  0  0  0  0  0  0
  186.3220  178.1190  148.2420 O   0  0  0  0  0  1  0  0  0  0  0  0
  186.6040  177.5660  146.9960 C   0  0  0  0  0  2  0  0  0  0  0  0
  187.2010  176.3530  140.3870 C   0  0  0  0  0  2  0  0  0  0  0  0
  187.1930  177.0390  139.0280 C   0  0  0  0  0  2  0  0  0  0  0  0
  186.0670  176.6240  138.2690 O   0  0  0  0  0  0  0  0  0  0  0  0
  186.2030  176.1340  136.9710 C   0  0  0  0  0  0  0  0  0  0  0  0
  187.3550  175.9140  136.5110 O   0  0  0  0  0  1  0  0  0  0  0  0
  185.0770  175.8860  136.1830 O   0  0  0  0  0  0  0  0  0  0  0  0
  192.4990  169.9260  143.2840 C   0  0  0  0  0  2  0  0  0  0  0  0
  193.9180  169.6430  142.7850 C   0  0  2  0  0  3  0  0  0  0  0  0
  193.8810  169.1300  141.3780 C   0  0  0  0  0  0  0  0  0  0  0  0
  194.9540  168.9880  140.7270 O   0  0  0  0  0  0  0  0  0  0  0  0
  192.6190  168.8150  140.7730 N   0  0  0  0  0  2  0  0  0  0  0  0
  192.4830  168.6360  139.3330 C   0  0  0  0  0  2  0  0  0  0  0  0
  191.2260  169.3430  138.8480 C   0  0  0  0  0  2  0  0  0  0  0  0
  190.5870  168.6040  137.6740 C   0  0  0  0  0  2  0  0  0  0  0  0
  190.9840  169.1740  136.3110 C   0  0  2  0  0  3  0  0  0  0  0  0
  192.1110  168.3740  135.6760 C   0  0  0  0  0  1  0  0  0  0  0  0
  191.3400  170.5230  136.4110 O   0  0  0  0  0  0  0  0  0  0  0  0
  191.9650  170.8200  135.1990 C   0  0  0  0  0  2  0  0  0  0  0  0
  192.9910  171.9170  135.4030 C   0  0  0  0  0  1  0  0  0  0  0  0
  195.2960  169.3650  144.5630 O   0  0  0  0  0  1  0  0  0  0  0  0
  194.5880  168.6690  143.6360 N   0  0  0  0  0  2  0  0  0  0  0  0
  2 56  1  0  0  0  0
  2  1  1  0  0  0  0
  4  3  2  0  0  0  0
  4  1  1  0  0  0  0
  5 20  1  1  0  0  0
  5  4  1  0  0  0  0
  6 17  1  1  0  0  0
  6  5  1  0  0  0  0
  7  6  1  0  0  0  0
  9 10  1  1  0  0  0
  9 12  1  0  0  0  0
 11  8  1  6  0  0  0
 11 16  1  0  0  0  0
 11  9  1  0  0  0  0
 12  7  1  1  0  0  0
 14 12  1  0  0  0  0
 14 13  1  1  0  0  0
 16 15  1  1  0  0  0
 16 14  1  0  0  0  0
 18 17  1  0  0  0  0
 19 18  1  0  0  0  0
 21 20  1  6  0  0  0
 21 22  1  0  0  0  0
 21 23  1  0  0  0  0
 22 23  1  0  0  0  0
 23 24  1  1  0  0  0
 24 25  1  0  0  0  0
 25 26  1  0  0  0  0
 27 26  1  0  0  0  0
 27 29  1  0  0  0  0
 28 27  2  0  0  0  0
 30 31  1  0  0  0  0
 31 29  1  0  0  0  0
 32  2  2  0  0  0  0
 33 35  1  6  0  0  0
 33 34  1  0  0  0  0
 34 37  1  6  0  0  0
 36 32  1  1  0  0  0
 36 33  1  0  0  0  0
 36 34  1  0  0  0  0
 38 39  2  0  0  0  0
 38 37  1  0  0  0  0
 40 50  1  6  0  0  0
 40 41  1  0  0  0  0
 40 39  1  0  0  0  0
 41 43  1  0  0  0  0
 43 42  1  6  0  0  0
 44 43  1  6  0  0  0
 44 47  1  0  0  0  0
 46 44  1  0  0  0  0
 46 45  1  0  0  0  0
 47 45  1  0  0  0  0
 47 49  1  1  0  0  0
 49 48  1  0  0  0  0
 51 50  1  0  0  0  0
 52 51  1  0  0  0  0
 53 52  1  0  0  0  0
 54 53  1  0  0  0  0
 55 53  2  0  0  0  0
 57 56  1  1  0  0  0
 57 70  1  0  0  0  0
 58 57  1  0  0  0  0
 59 58  2  0  0  0  0
 60 58  1  0  0  0  0
 61 60  1  0  0  0  0
 62 61  1  0  0  0  0
 63 62  1  0  0  0  0
 64 65  1  1  0  0  0
 64 66  1  0  0  0  0
 64 63  1  0  0  0  0
 67 68  1  0  0  0  0
 67 66  1  0  0  0  0
 70 69  1  0  0  0  0
M  END
>  <MODEL>
4

>  <REMARK>
 VINA RESULT:      -3.1      2.738      6.216
  Name = 
  38 active torsions:
  status: ('A' for Active; 'I' for Inactive)
    1  A    between atoms: C_2  and  O_53
    2  A    between atoms: C_4  and  C_9
    3  A    between atoms: C_4  and  C_27
    4  A    between atoms: C_6  and  C_36
    5  A    between atoms: C_6  and  C_67
    6  A    between atoms: C_12  and  C_15
    7  A    between atoms: C_13  and  S_26
    8  A    between atoms: C_14  and  O_53
    9  A    between atoms: C_15  and  C_60
   10  A    between atoms: C_16  and  O_23
   11  A    between atoms: C_18  and  C_39
   12  A    between atoms: C_18  and  O_58
   13  A    between atoms: C_20  and  C_36
   14  A    between atoms: C_21  and  C_65
   15  A    between atoms: C_21  and  S_68
   16  A    between atoms: C_22  and  C_61
   17  A    between atoms: O_23  and  C_40
   18  A    between atoms: S_26  and  C_60
   19  A    between atoms: C_27  and  C_28
   20  A    between atoms: C_27  and  C_60
   21  A    between atoms: C_28  and  S_37
   22  A    between atoms: C_29  and  C_43
   23  A    between atoms: C_29  and  C_62
   24  A    between atoms: C_33  and  C_56
   25  A    between atoms: C_33  and  C_59
   26  A    between atoms: C_33  and  C_63
   27  A    between atoms: C_34  and  O_49
   28  A    between atoms: C_35  and  O_58
   29  A    between atoms: C_36  and  N_64
   30  A    between atoms: C_39  and  S_68
   31  A    between atoms: C_40  and  C_56
   32  A    between atoms: C_41  and  C_57
   33  A    between atoms: C_42  and  O_49
   34  A    between atoms: C_42  and  C_62
   35  A    between atoms: C_43  and  N_54
   36  A    between atoms: C_55  and  C_70
   37  A    between atoms: C_57  and  C_67
   38  A    between atoms: C_61  and  C_63
                            x       y       z     vdW  Elec       q    Type
                         _______ _______ _______ _____ _____    ______ ____

>  <TORSDO>
F 38

$$$$
=
 OpenBabel11072409423D

 70 73  0  0  1  0  0  0  0  0999 V2000
  194.9710  173.6810  141.3800 S   0  0  0  0  0  0  0  0  0  0  0  0
  193.5020  173.0690  141.1020 C   0  0  0  0  0  0  0  0  0  0  0  0
  196.5500  175.0350  139.7950 O   0  0  0  0  0  0  0  0  0  0  0  0
  195.5260  174.3640  139.8330 C   0  0  0  0  0  0  0  0  0  0  0  0
  194.6980  174.1530  138.5870 C   0  0  2  0  0  3  0  0  0  0  0  0
  195.2390  174.7330  137.2750 C   0  0  1  0  0  3  0  0  0  0  0  0
  195.4970  173.5230  135.9340 S   0  0  0  0  0  0  0  0  0  0  0  0
  195.2800  168.3650  136.8650 C   0  0  0  0  0  1  0  0  0  0  0  0
  194.8340  170.8660  136.5530 C   0  0  1  0  0  3  0  0  0  0  0  0
  195.2260  170.6150  135.2320 O   0  0  0  0  0  1  0  0  0  0  0  0
  195.3360  169.7610  137.4780 C   0  0  2  0  0  3  0  0  0  0  0  0
  195.5460  172.0980  137.0800 C   0  0  1  0  0  3  0  0  0  0  0  0
  197.9400  171.7080  136.3630 C   0  0  0  0  0  1  0  0  0  0  0  0
  196.9340  171.6390  137.5180 C   0  0  2  0  0  3  0  0  0  0  0  0
  197.7460  169.3330  137.6310 O   0  0  0  0  0  1  0  0  0  0  0  0
  196.7090  170.1990  138.0070 C   0  0  2  0  0  3  0  0  0  0  0  0
  194.3250  175.8450  136.7860 C   0  0  0  0  0  2  0  0  0  0  0  0
  194.6060  176.1840  135.3330 C   0  0  0  0  0  2  0  0  0  0  0  0
  193.7810  177.3800  134.8820 C   0  0  0  0  0  1  0  0  0  0  0  0
  193.2240  174.4760  138.7810 C   0  0  0  0  0  2  0  0  0  0  0  0
  192.3680  173.4640  138.0400 C   0  0  2  0  0  3  0  0  0  0  0  0
  191.6080  174.1520  136.9290 C   0  0  0  0  0  2  0  0  0  0  0  0
  190.9020  173.8090  138.2230 C   0  0  1  0  0  3  0  0  0  0  0  0
  190.0660  172.5560  138.0260 C   0  0  0  0  0  2  0  0  0  0  0  0
  188.4350  172.7460  138.8120 S   0  0  0  0  0  0  0  0  0  0  0  0
  188.9810  174.1130  139.8860 C   0  0  0  0  0  2  0  0  0  0  0  0
  188.2550  174.0900  141.1850 C   0  0  0  0  0  0  0  0  0  0  0  0
  187.5530  175.0790  141.5150 O   0  0  0  0  0  0  0  0  0  0  0  0
  188.3650  172.9840  142.0250 O   0  0  0  0  0  0  0  0  0  0  0  0
  189.5950  171.9820  143.8200 C   0  0  0  0  0  1  0  0  0  0  0  0
  188.6850  173.1180  143.4010 C   0  0  0  0  0  2  0  0  0  0  0  0
  192.2730  173.7240  141.6630 C   0  0  0  0  0  3  0  0  0  0  0  0
  191.2120  175.8200  142.4730 C   0  0  1  0  0  3  0  0  0  0  0  0
  191.6580  175.0920  143.7380 C   0  0  1  0  0  3  0  0  0  0  0  0
  191.5110  177.1870  142.5340 O   0  0  0  0  0  1  0  0  0  0  0  0
  192.5000  175.0060  142.4690 C   0  0  1  0  0  3  0  0  0  0  0  0
  192.3040  175.9630  144.6530 O   0  0  0  0  0  0  0  0  0  0  0  0
  191.5650  176.6250  145.6230 C   0  0  0  0  0  3  0  0  0  0  0  0
  191.2630  176.0040  146.7590 C   0  0  0  0  0  3  0  0  0  0  0  0
  190.4750  176.6670  147.8490 C   0  0  2  0  0  3  0  0  0  0  0  0
  189.2340  177.3490  147.2950 C   0  0  0  0  0  2  0  0  0  0  0  0
  188.6200  175.1700  146.5510 O   0  0  0  0  0  1  0  0  0  0  0  0
  188.6180  176.5140  146.1750 C   0  0  1  0  0  3  0  0  0  0  0  0
  187.1850  176.9340  145.8030 C   0  0  2  0  0  3  0  0  0  0  0  0
  186.5200  177.9180  143.6380 S   0  0  0  0  0  0  0  0  0  0  0  0
  186.7080  176.3300  144.4970 C   0  0  0  0  0  2  0  0  0  0  0  0
  187.1130  178.3650  145.2970 C   0  0  1  0  0  3  0  0  0  0  0  0
  184.7690  178.6950  145.5900 O   0  0  0  0  0  1  0  0  0  0  0  0
  186.0190  179.1200  146.0320 C   0  0  0  0  0  2  0  0  0  0  0  0
  191.3340  177.6810  148.5960 C   0  0  0  0  0  2  0  0  0  0  0  0
  191.8630  177.1210  149.9100 C   0  0  0  0  0  2  0  0  0  0  0  0
  191.5150  177.9760  150.9890 O   0  0  0  0  0  0  0  0  0  0  0  0
  191.4940  177.5180  152.3060 C   0  0  0  0  0  0  0  0  0  0  0  0
  190.7180  178.0620  153.1370 O   0  0  0  0  0  1  0  0  0  0  0  0
  192.3210  176.4660  152.7060 O   0  0  0  0  0  0  0  0  0  0  0  0
  193.3860  171.7760  140.3500 C   0  0  0  0  0  2  0  0  0  0  0  0
  192.3040  170.8540  140.9190 C   0  0  2  0  0  3  0  0  0  0  0  0
  192.7890  170.1970  142.1740 C   0  0  0  0  0  0  0  0  0  0  0  0
  193.1440  168.9850  142.1570 O   0  0  0  0  0  0  0  0  0  0  0  0
  192.8330  170.9470  143.3950 N   0  0  0  0  0  2  0  0  0  0  0  0
  192.9710  170.2960  144.6910 C   0  0  0  0  0  2  0  0  0  0  0  0
  194.4170  169.8690  144.8960 C   0  0  0  0  0  2  0  0  0  0  0  0
  195.3790  171.0360  144.6890 C   0  0  0  0  0  2  0  0  0  0  0  0
  196.8460  170.6560  144.8980 C   0  0  2  0  0  3  0  0  0  0  0  0
  197.3320  169.6880  143.8300 C   0  0  0  0  0  1  0  0  0  0  0  0
  197.0530  170.1200  146.1730 O   0  0  0  0  0  0  0  0  0  0  0  0
  197.3570  168.7760  145.9530 C   0  0  0  0  0  2  0  0  0  0  0  0
  197.9410  168.1660  147.2120 C   0  0  0  0  0  1  0  0  0  0  0  0
  193.0180  169.5830  139.1830 O   0  0  0  0  0  1  0  0  0  0  0  0
  191.9270  169.8310  139.9530 N   0  0  0  0  0  2  0  0  0  0  0  0
  2  1  1  0  0  0  0
  2 32  2  0  0  0  0
  3  4  2  0  0  0  0
  4  1  1  0  0  0  0
  5 20  1  1  0  0  0
  5  4  1  0  0  0  0
  6 17  1  6  0  0  0
  6  5  1  0  0  0  0
  7  6  1  0  0  0  0
  9 10  1  6  0  0  0
  9 12  1  0  0  0  0
  9 11  1  0  0  0  0
 11  8  1  6  0  0  0
 11 16  1  0  0  0  0
 12  7  1  6  0  0  0
 12 14  1  0  0  0  0
 14 13  1  6  0  0  0
 14 16  1  0  0  0  0
 16 15  1  6  0  0  0
 18 17  1  0  0  0  0
 19 18  1  0  0  0  0
 21 23  1  0  0  0  0
 21 20  1  1  0  0  0
 22 21  1  0  0  0  0
 22 23  1  0  0  0  0
 23 24  1  6  0  0  0
 24 25  1  0  0  0  0
 25 26  1  0  0  0  0
 26 27  1  0  0  0  0
 27 28  2  0  0  0  0
 27 29  1  0  0  0  0
 29 31  1  0  0  0  0
 31 30  1  0  0  0  0
 33 35  1  1  0  0  0
 33 34  1  0  0  0  0
 34 37  1  1  0  0  0
 36 32  1  6  0  0  0
 36 33  1  0  0  0  0
 36 34  1  0  0  0  0
 37 38  1  0  0  0  0
 38 39  2  0  0  0  0
 40 39  1  6  0  0  0
 40 50  1  0  0  0  0
 41 40  1  0  0  0  0
 43 42  1  1  0  0  0
 43 41  1  0  0  0  0
 44 43  1  6  0  0  0
 45 46  1  0  0  0  0
 45 47  1  0  0  0  0
 46 44  1  0  0  0  0
 47 44  1  0  0  0  0
 47 49  1  1  0  0  0
 48 49  1  0  0  0  0
 50 51  1  0  0  0  0
 51 52  1  0  0  0  0
 52 53  1  0  0  0  0
 53 55  2  0  0  0  0
 53 54  1  0  0  0  0
 56  2  1  0  0  0  0
 57 56  1  6  0  0  0
 57 58  1  0  0  0  0
 58 60  1  0  0  0  0
 59 58  2  0  0  0  0
 60 61  1  0  0  0  0
 61 62  1  0  0  0  0
 63 62  1  0  0  0  0
 63 64  1  0  0  0  0
 64 65  1  6  0  0  0
 64 66  1  0  0  0  0
 67 66  1  0  0  0  0
 67 68  1  0  0  0  0
 69 70  1  0  0  0  0
 70 57  1  0  0  0  0
M  END
>  <MODEL>
5

>  <REMARK>
 VINA RESULT:      -2.7      2.917      6.337
  Name = 
  38 active torsions:
  status: ('A' for Active; 'I' for Inactive)
    1  A    between atoms: C_2  and  O_53
    2  A    between atoms: C_4  and  C_9
    3  A    between atoms: C_4  and  C_27
    4  A    between atoms: C_6  and  C_36
    5  A    between atoms: C_6  and  C_67
    6  A    between atoms: C_12  and  C_15
    7  A    between atoms: C_13  and  S_26
    8  A    between atoms: C_14  and  O_53
    9  A    between atoms: C_15  and  C_60
   10  A    between atoms: C_16  and  O_23
   11  A    between atoms: C_18  and  C_39
   12  A    between atoms: C_18  and  O_58
   13  A    between atoms: C_20  and  C_36
   14  A    between atoms: C_21  and  C_65
   15  A    between atoms: C_21  and  S_68
   16  A    between atoms: C_22  and  C_61
   17  A    between atoms: O_23  and  C_40
   18  A    between atoms: S_26  and  C_60
   19  A    between atoms: C_27  and  C_28
   20  A    between atoms: C_27  and  C_60
   21  A    between atoms: C_28  and  S_37
   22  A    between atoms: C_29  and  C_43
   23  A    between atoms: C_29  and  C_62
   24  A    between atoms: C_33  and  C_56
   25  A    between atoms: C_33  and  C_59
   26  A    between atoms: C_33  and  C_63
   27  A    between atoms: C_34  and  O_49
   28  A    between atoms: C_35  and  O_58
   29  A    between atoms: C_36  and  N_64
   30  A    between atoms: C_39  and  S_68
   31  A    between atoms: C_40  and  C_56
   32  A    between atoms: C_41  and  C_57
   33  A    between atoms: C_42  and  O_49
   34  A    between atoms: C_42  and  C_62
   35  A    between atoms: C_43  and  N_54
   36  A    between atoms: C_55  and  C_70
   37  A    between atoms: C_57  and  C_67
   38  A    between atoms: C_61  and  C_63
                            x       y       z     vdW  Elec       q    Type
                         _______ _______ _______ _____ _____    ______ ____

>  <TORSDO>
F 38

$$$$
=
 OpenBabel11072409423D

 70 73  0  0  1  0  0  0  0  0999 V2000
  188.6330  173.4500  140.1300 S   0  0  0  0  0  0  0  0  0  0  0  0
  188.2930  174.5870  139.0330 C   0  0  2  0  0  3  0  0  0  0  0  0
  191.0610  173.5970  139.1700 O   0  0  0  0  0  0  0  0  0  0  0  0
  190.2670  172.8600  139.7440 C   0  0  0  0  0  0  0  0  0  0  0  0
  190.6450  171.4370  140.0820 C   0  0  2  0  0  3  0  0  0  0  0  0
  191.9050  171.2230  140.9260 C   0  0  1  0  0  3  0  0  0  0  0  0
  193.4720  171.1710  139.9930 S   0  0  0  0  0  0  0  0  0  0  0  0
  197.4220  173.1810  142.7980 C   0  0  0  0  0  1  0  0  0  0  0  0
  195.2820  172.0700  141.9420 C   0  0  1  0  0  3  0  0  0  0  0  0
  196.1730  171.1950  141.3090 O   0  0  0  0  0  1  0  0  0  0  0  0
  195.9880  173.3700  142.3170 C   0  0  2  0  0  3  0  0  0  0  0  0
  194.2210  172.5310  140.9590 C   0  0  1  0  0  3  0  0  0  0  0  0
  195.5810  173.1290  138.9120 C   0  0  0  0  0  1  0  0  0  0  0  0
  194.8490  173.6620  140.1480 C   0  0  2  0  0  3  0  0  0  0  0  0
  197.0160  174.7240  140.5490 O   0  0  0  0  0  1  0  0  0  0  0  0
  195.8040  174.3420  141.1420 C   0  0  2  0  0  3  0  0  0  0  0  0
  191.9930  172.2920  142.0040 C   0  0  0  0  0  2  0  0  0  0  0  0
  190.8820  172.1290  143.0260 C   0  0  0  0  0  2  0  0  0  0  0  0
  191.4470  171.8120  144.4020 C   0  0  0  0  0  1  0  0  0  0  0  0
  190.6050  170.5030  138.8810 C   0  0  0  0  0  2  0  0  0  0  0  0
  190.7320  171.3020  137.5960 C   0  0  2  0  0  3  0  0  0  0  0  0
  190.5640  170.3880  136.4050 C   0  0  0  0  0  2  0  0  0  0  0  0
  191.9490  170.8300  136.8230 C   0  0  1  0  0  3  0  0  0  0  0  0
  192.4230  171.9460  135.9070 C   0  0  0  0  0  2  0  0  0  0  0  0
  194.0360  171.5300  135.1750 S   0  0  0  0  0  0  0  0  0  0  0  0
  194.2380  170.0250  136.1830 C   0  0  0  0  0  2  0  0  0  0  0  0
  195.6780  169.7170  136.3960 C   0  0  0  0  0  0  0  0  0  0  0  0
  196.1140  169.5950  137.5680 O   0  0  0  0  0  0  0  0  0  0  0  0
  196.5300  169.5770  135.3020 O   0  0  0  0  0  0  0  0  0  0  0  0
  197.5640  171.7310  135.4700 C   0  0  0  0  0  1  0  0  0  0  0  0
  196.9640  170.6940  134.5430 C   0  0  0  0  0  2  0  0  0  0  0  0
  188.2330  176.0370  139.4180 C   0  0  0  0  0  2  0  0  0  0  0  0
  187.2630  177.6910  140.9990 C   0  0  1  0  0  3  0  0  0  0  0  0
  186.4620  176.4120  141.2290 C   0  0  1  0  0  3  0  0  0  0  0  0
  187.6060  178.3060  142.2100 O   0  0  0  0  0  1  0  0  0  0  0  0
  187.9470  176.3340  140.8930 C   0  0  1  0  0  3  0  0  0  0  0  0
  186.2930  176.1300  142.6100 O   0  0  0  0  0  0  0  0  0  0  0  0
  187.3260  176.3800  143.5010 C   0  0  0  0  0  3  0  0  0  0  0  0
  187.1010  176.3040  144.8090 C   0  0  0  0  0  3  0  0  0  0  0  0
  188.1780  176.5530  145.8230 C   0  0  2  0  0  3  0  0  0  0  0  0
  189.1210  175.3640  145.9280 C   0  0  0  0  0  2  0  0  0  0  0  0
  190.4940  176.9900  144.8550 O   0  0  0  0  0  1  0  0  0  0  0  0
  190.4050  175.6270  145.1450 C   0  0  1  0  0  3  0  0  0  0  0  0
  191.6820  175.1820  145.8780 C   0  0  2  0  0  3  0  0  0  0  0  0
  193.0290  176.6200  147.3670 S   0  0  0  0  0  0  0  0  0  0  0  0
  191.6380  175.4540  147.3690 C   0  0  0  0  0  2  0  0  0  0  0  0
  192.8520  176.1200  145.6280 C   0  0  1  0  0  3  0  0  0  0  0  0
  194.9700  176.1450  144.5320 O   0  0  0  0  0  1  0  0  0  0  0  0
  194.0750  175.3220  145.2100 C   0  0  0  0  0  2  0  0  0  0  0  0
  187.5730  176.8580  147.1880 C   0  0  0  0  0  2  0  0  0  0  0  0
  187.0570  178.2880  147.2760 C   0  0  0  0  0  2  0  0  0  0  0  0
  186.2060  178.5760  146.1770 O   0  0  0  0  0  0  0  0  0  0  0  0
  184.8860  178.1270  146.1380 C   0  0  0  0  0  0  0  0  0  0  0  0
  184.4670  177.3620  147.0470 O   0  0  0  0  0  1  0  0  0  0  0  0
  184.0320  178.5180  145.1050 O   0  0  0  0  0  0  0  0  0  0  0  0
  187.9420  174.1650  137.6370 C   0  0  0  0  0  2  0  0  0  0  0  0
  188.1120  175.2940  136.6170 C   0  0  2  0  0  3  0  0  0  0  0  0
  186.7860  175.9230  136.3140 C   0  0  0  0  0  0  0  0  0  0  0  0
  186.7130  176.8810  135.4950 O   0  0  0  0  0  0  0  0  0  0  0  0
  185.6070  175.4400  136.9720 N   0  0  0  0  0  2  0  0  0  0  0  0
  184.3660  176.2040  136.9800 C   0  0  0  0  0  2  0  0  0  0  0  0
  183.7160  176.1360  135.6060 C   0  0  0  0  0  2  0  0  0  0  0  0
  182.7050  174.9950  135.5210 C   0  0  0  0  0  2  0  0  0  0  0  0
  181.6440  175.0410  136.6220 C   0  0  2  0  0  3  0  0  0  0  0  0
  181.1900  173.6460  137.0220 C   0  0  0  0  0  1  0  0  0  0  0  0
  180.5480  175.8180  136.2340 O   0  0  0  0  0  0  0  0  0  0  0  0
  179.6190  175.6680  137.2640 C   0  0  0  0  0  2  0  0  0  0  0  0
  178.2850  176.2550  136.8460 C   0  0  0  0  0  1  0  0  0  0  0  0
  189.6390  173.8770  135.7260 O   0  0  0  0  0  1  0  0  0  0  0  0
  188.7040  174.7990  135.3820 N   0  0  0  0  0  2  0  0  0  0  0  0
  2 56  1  1  0  0  0
  2 32  1  0  0  0  0
  2  1  1  0  0  0  0
  3  4  2  0  0  0  0
  4  5  1  0  0  0  0
  4  1  1  0  0  0  0
  5 20  1  6  0  0  0
  5  6  1  0  0  0  0
  6 17  1  1  0  0  0
  7  6  1  0  0  0  0
  9 10  1  6  0  0  0
  9 11  1  0  0  0  0
 11  8  1  6  0  0  0
 12  7  1  6  0  0  0
 12  9  1  0  0  0  0
 14 13  1  6  0  0  0
 14 12  1  0  0  0  0
 14 16  1  0  0  0  0
 16 15  1  6  0  0  0
 16 11  1  0  0  0  0
 17 18  1  0  0  0  0
 18 19  1  0  0  0  0
 21 20  1  1  0  0  0
 22 23  1  0  0  0  0
 22 21  1  0  0  0  0
 23 24  1  6  0  0  0
 23 21  1  0  0  0  0
 25 24  1  0  0  0  0
 25 26  1  0  0  0  0
 26 27  1  0  0  0  0
 27 28  2  0  0  0  0
 29 27  1  0  0  0  0
 31 29  1  0  0  0  0
 31 30  1  0  0  0  0
 33 34  1  0  0  0  0
 33 35  1  1  0  0  0
 34 37  1  1  0  0  0
 36 32  1  6  0  0  0
 36 33  1  0  0  0  0
 36 34  1  0  0  0  0
 37 38  1  0  0  0  0
 38 39  2  0  0  0  0
 40 39  1  6  0  0  0
 40 41  1  0  0  0  0
 40 50  1  0  0  0  0
 43 42  1  1  0  0  0
 43 41  1  0  0  0  0
 44 43  1  6  0  0  0
 44 46  1  0  0  0  0
 45 46  1  0  0  0  0
 47 49  1  1  0  0  0
 47 44  1  0  0  0  0
 47 45  1  0  0  0  0
 48 49  1  0  0  0  0
 50 51  1  0  0  0  0
 52 51  1  0  0  0  0
 53 52  1  0  0  0  0
 53 54  1  0  0  0  0
 55 53  2  0  0  0  0
 57 56  1  1  0  0  0
 58 57  1  0  0  0  0
 58 60  1  0  0  0  0
 59 58  2  0  0  0  0
 60 61  1  0  0  0  0
 62 61  1  0  0  0  0
 63 62  1  0  0  0  0
 63 64  1  0  0  0  0
 64 65  1  6  0  0  0
 66 64  1  0  0  0  0
 66 67  1  0  0  0  0
 68 67  1  0  0  0  0
 70 69  1  0  0  0  0
 70 57  1  0  0  0  0
M  END
>  <MODEL>
6

>  <REMARK>
 VINA RESULT:      -2.6      3.215      7.263
  Name = 
  38 active torsions:
  status: ('A' for Active; 'I' for Inactive)
    1  A    between atoms: C_2  and  O_53
    2  A    between atoms: C_4  and  C_9
    3  A    between atoms: C_4  and  C_27
    4  A    between atoms: C_6  and  C_36
    5  A    between atoms: C_6  and  C_67
    6  A    between atoms: C_12  and  C_15
    7  A    between atoms: C_13  and  S_26
    8  A    between atoms: C_14  and  O_53
    9  A    between atoms: C_15  and  C_60
   10  A    between atoms: C_16  and  O_23
   11  A    between atoms: C_18  and  C_39
   12  A    between atoms: C_18  and  O_58
   13  A    between atoms: C_20  and  C_36
   14  A    between atoms: C_21  and  C_65
   15  A    between atoms: C_21  and  S_68
   16  A    between atoms: C_22  and  C_61
   17  A    between atoms: O_23  and  C_40
   18  A    between atoms: S_26  and  C_60
   19  A    between atoms: C_27  and  C_28
   20  A    between atoms: C_27  and  C_60
   21  A    between atoms: C_28  and  S_37
   22  A    between atoms: C_29  and  C_43
   23  A    between atoms: C_29  and  C_62
   24  A    between atoms: C_33  and  C_56
   25  A    between atoms: C_33  and  C_59
   26  A    between atoms: C_33  and  C_63
   27  A    between atoms: C_34  and  O_49
   28  A    between atoms: C_35  and  O_58
   29  A    between atoms: C_36  and  N_64
   30  A    between atoms: C_39  and  S_68
   31  A    between atoms: C_40  and  C_56
   32  A    between atoms: C_41  and  C_57
   33  A    between atoms: C_42  and  O_49
   34  A    between atoms: C_42  and  C_62
   35  A    between atoms: C_43  and  N_54
   36  A    between atoms: C_55  and  C_70
   37  A    between atoms: C_57  and  C_67
   38  A    between atoms: C_61  and  C_63
                            x       y       z     vdW  Elec       q    Type
                         _______ _______ _______ _____ _____    ______ ____

>  <TORSDO>
F 38

$$$$
=
 OpenBabel11072409423D

 70 73  0  0  1  0  0  0  0  0999 V2000
  185.6070  176.8720  142.3110 S   0  0  0  0  0  0  0  0  0  0  0  0
  186.7640  177.4110  143.3020 C   0  0  2  0  0  3  0  0  0  0  0  0
  186.7120  178.5810  140.6690 O   0  0  0  0  0  0  0  0  0  0  0  0
  185.8050  177.7650  140.7850 C   0  0  0  0  0  0  0  0  0  0  0  0
  184.8190  177.5460  139.6610 C   0  0  2  0  0  3  0  0  0  0  0  0
  183.3360  177.4500  140.0320 C   0  0  1  0  0  3  0  0  0  0  0  0
  182.6870  178.8390  141.0220 S   0  0  0  0  0  0  0  0  0  0  0  0
  178.0040  178.2480  143.3110 C   0  0  0  0  0  1  0  0  0  0  0  0
  180.3960  178.0270  142.4280 C   0  0  1  0  0  3  0  0  0  0  0  0
  180.6130  179.1970  143.1650 O   0  0  0  0  0  1  0  0  0  0  0  0
  178.9070  177.8390  142.1520 C   0  0  2  0  0  3  0  0  0  0  0  0
  180.9820  178.1760  141.0360 C   0  0  1  0  0  3  0  0  0  0  0  0
  180.1720  180.4660  140.3310 C   0  0  0  0  0  1  0  0  0  0  0  0
  179.9540  178.9530  140.2170 C   0  0  2  0  0  3  0  0  0  0  0  0
  177.6920  179.5730  140.9130 O   0  0  0  0  0  1  0  0  0  0  0  0
  178.6050  178.5130  140.8060 C   0  0  2  0  0  3  0  0  0  0  0  0
  182.4980  177.2890  138.7740 C   0  0  0  0  0  2  0  0  0  0  0  0
  182.0710  175.8440  138.5830 C   0  0  0  0  0  2  0  0  0  0  0  0
  182.2310  175.4140  137.1330 C   0  0  0  0  0  1  0  0  0  0  0  0
  185.2340  176.4380  138.7040 C   0  0  0  0  0  2  0  0  0  0  0  0
  186.7380  176.4660  138.4970 C   0  0  2  0  0  3  0  0  0  0  0  0
  187.0520  176.8170  137.0610 C   0  0  0  0  0  2  0  0  0  0  0  0
  187.1360  175.3770  137.5190 C   0  0  1  0  0  3  0  0  0  0  0  0
  188.5910  175.0040  137.7510 C   0  0  0  0  0  2  0  0  0  0  0  0
  189.0720  173.6130  136.6810 S   0  0  0  0  0  0  0  0  0  0  0  0
  190.4250  173.0810  137.7790 C   0  0  0  0  0  2  0  0  0  0  0  0
  191.1320  171.8990  137.2180 C   0  0  0  0  0  0  0  0  0  0  0  0
  190.4610  170.9150  136.8160 O   0  0  0  0  0  0  0  0  0  0  0  0
  192.5240  171.8860  137.1500 O   0  0  0  0  0  0  0  0  0  0  0  0
  192.2590  172.3040  134.8060 C   0  0  0  0  0  1  0  0  0  0  0  0
  193.2120  171.8910  135.9090 C   0  0  0  0  0  2  0  0  0  0  0  0
  187.9330  176.5440  143.6680 C   0  0  0  0  0  2  0  0  0  0  0  0
  190.1510  175.7340  142.8900 C   0  0  1  0  0  3  0  0  0  0  0  0
  189.2390  174.5120  142.8190 C   0  0  1  0  0  3  0  0  0  0  0  0
  190.9600  175.8380  141.7520 O   0  0  0  0  0  1  0  0  0  0  0  0
  188.6860  175.8970  142.5020 C   0  0  1  0  0  3  0  0  0  0  0  0
  189.4010  173.7980  141.6020 O   0  0  0  0  0  0  0  0  0  0  0  0
  190.2890  172.7350  141.5330 C   0  0  0  0  0  3  0  0  0  0  0  0
  190.9560  172.3630  142.6210 C   0  0  0  0  0  3  0  0  0  0  0  0
  191.9230  171.2160  142.6140 C   0  0  2  0  0  3  0  0  0  0  0  0
  193.1470  171.5230  143.4620 C   0  0  0  0  0  2  0  0  0  0  0  0
  192.7170  169.3050  144.2210 O   0  0  0  0  0  1  0  0  0  0  0  0
  193.2660  170.5270  144.6140 C   0  0  1  0  0  3  0  0  0  0  0  0
  194.7100  170.3020  145.0940 C   0  0  2  0  0  3  0  0  0  0  0  0
  196.1500  168.4180  144.4030 S   0  0  0  0  0  0  0  0  0  0  0  0
  195.6940  170.1180  143.9560 C   0  0  0  0  0  2  0  0  0  0  0  0
  194.9240  168.9050  145.6540 C   0  0  1  0  0  3  0  0  0  0  0  0
  194.7650  168.4640  147.9930 O   0  0  0  0  0  1  0  0  0  0  0  0
  195.6010  168.9890  147.0110 C   0  0  0  0  0  2  0  0  0  0  0  0
  192.3490  170.8770  141.1910 C   0  0  0  0  0  2  0  0  0  0  0  0
  193.7200  171.4480  140.8560 C   0  0  0  0  0  2  0  0  0  0  0  0
  193.5890  172.7030  140.2050 O   0  0  0  0  0  0  0  0  0  0  0  0
  194.4480  173.7660  140.4880 C   0  0  0  0  0  0  0  0  0  0  0  0
  195.2580  174.1570  139.6050 O   0  0  0  0  0  0  0  0  0  0  0  0
  194.4150  174.3940  141.7350 O   0  0  0  0  0  1  0  0  0  0  0  0
  186.6060  178.7630  143.9320 C   0  0  0  0  0  2  0  0  0  0  0  0
  185.7210  178.7360  145.1810 C   0  0  2  0  0  3  0  0  0  0  0  0
  186.4570  178.1080  146.3240 C   0  0  0  0  0  0  0  0  0  0  0  0
  187.0420  178.8340  147.1760 O   0  0  0  0  0  0  0  0  0  0  0  0
  186.5040  176.6790  146.4360 N   0  0  0  0  0  2  0  0  0  0  0  0
  187.4580  176.0090  147.3100 C   0  0  0  0  0  2  0  0  0  0  0  0
  188.5720  175.3950  146.4740 C   0  0  0  0  0  2  0  0  0  0  0  0
  189.7170  174.8920  147.3490 C   0  0  0  0  0  2  0  0  0  0  0  0
  191.0120  175.6860  147.1700 C   0  0  2  0  0  3  0  0  0  0  0  0
  191.4120  176.4030  148.4510 C   0  0  0  0  0  1  0  0  0  0  0  0
  190.9040  176.5970  146.1150 O   0  0  0  0  0  0  0  0  0  0  0  0
  192.1730  176.6280  145.5360 C   0  0  0  0  0  2  0  0  0  0  0  0
  192.8240  175.2630  145.6440 C   0  0  0  0  0  1  0  0  0  0  0  0
  183.7230  178.7540  144.1110 O   0  0  0  0  0  1  0  0  0  0  0  0
  184.4910  177.9960  144.9340 N   0  0  0  0  0  2  0  0  0  0  0  0
  1  2  1  0  0  0  0
  2 32  1  1  0  0  0
  2 56  1  0  0  0  0
  3  4  2  0  0  0  0
  4  1  1  0  0  0  0
  5 20  1  1  0  0  0
  5  6  1  0  0  0  0
  5  4  1  0  0  0  0
  6 17  1  6  0  0  0
  6  7  1  0  0  0  0
  9 10  1  1  0  0  0
 11  9  1  0  0  0  0
 11  8  1  1  0  0  0
 12  7  1  1  0  0  0
 12  9  1  0  0  0  0
 14 13  1  1  0  0  0
 14 16  1  0  0  0  0
 14 12  1  0  0  0  0
 16 15  1  1  0  0  0
 16 11  1  0  0  0  0
 18 17  1  0  0  0  0
 19 18  1  0  0  0  0
 21 20  1  6  0  0  0
 22 23  1  0  0  0  0
 22 21  1  0  0  0  0
 23 24  1  1  0  0  0
 23 21  1  0  0  0  0
 25 24  1  0  0  0  0
 25 26  1  0  0  0  0
 27 26  1  0  0  0  0
 28 27  2  0  0  0  0
 29 27  1  0  0  0  0
 30 31  1  0  0  0  0
 31 29  1  0  0  0  0
 33 35  1  6  0  0  0
 34 37  1  6  0  0  0
 34 33  1  0  0  0  0
 36 34  1  0  0  0  0
 36 33  1  0  0  0  0
 36 32  1  1  0  0  0
 38 37  1  0  0  0  0
 38 39  2  0  0  0  0
 40 50  1  6  0  0  0
 40 39  1  0  0  0  0
 40 41  1  0  0  0  0
 41 43  1  0  0  0  0
 43 42  1  6  0  0  0
 44 43  1  6  0  0  0
 44 47  1  0  0  0  0
 45 47  1  0  0  0  0
 46 45  1  0  0  0  0
 46 44  1  0  0  0  0
 47 49  1  1  0  0  0
 49 48  1  0  0  0  0
 51 50  1  0  0  0  0
 52 53  1  0  0  0  0
 52 51  1  0  0  0  0
 53 55  1  0  0  0  0
 54 53  2  0  0  0  0
 57 56  1  6  0  0  0
 57 58  1  0  0  0  0
 58 60  1  0  0  0  0
 58 59  2  0  0  0  0
 60 61  1  0  0  0  0
 62 61  1  0  0  0  0
 62 63  1  0  0  0  0
 64 63  1  0  0  0  0
 64 65  1  1  0  0  0
 66 64  1  0  0  0  0
 67 68  1  0  0  0  0
 67 66  1  0  0  0  0
 69 70  1  0  0  0  0
 70 57  1  0  0  0  0
M  END
>  <MODEL>
7

>  <REMARK>
 VINA RESULT:      -2.5      3.486     11.618
  Name = 
  38 active torsions:
  status: ('A' for Active; 'I' for Inactive)
    1  A    between atoms: C_2  and  O_53
    2  A    between atoms: C_4  and  C_9
    3  A    between atoms: C_4  and  C_27
    4  A    between atoms: C_6  and  C_36
    5  A    between atoms: C_6  and  C_67
    6  A    between atoms: C_12  and  C_15
    7  A    between atoms: C_13  and  S_26
    8  A    between atoms: C_14  and  O_53
    9  A    between atoms: C_15  and  C_60
   10  A    between atoms: C_16  and  O_23
   11  A    between atoms: C_18  and  C_39
   12  A    between atoms: C_18  and  O_58
   13  A    between atoms: C_20  and  C_36
   14  A    between atoms: C_21  and  C_65
   15  A    between atoms: C_21  and  S_68
   16  A    between atoms: C_22  and  C_61
   17  A    between atoms: O_23  and  C_40
   18  A    between atoms: S_26  and  C_60
   19  A    between atoms: C_27  and  C_28
   20  A    between atoms: C_27  and  C_60
   21  A    between atoms: C_28  and  S_37
   22  A    between atoms: C_29  and  C_43
   23  A    between atoms: C_29  and  C_62
   24  A    between atoms: C_33  and  C_56
   25  A    between atoms: C_33  and  C_59
   26  A    between atoms: C_33  and  C_63
   27  A    between atoms: C_34  and  O_49
   28  A    between atoms: C_35  and  O_58
   29  A    between atoms: C_36  and  N_64
   30  A    between atoms: C_39  and  S_68
   31  A    between atoms: C_40  and  C_56
   32  A    between atoms: C_41  and  C_57
   33  A    between atoms: C_42  and  O_49
   34  A    between atoms: C_42  and  C_62
   35  A    between atoms: C_43  and  N_54
   36  A    between atoms: C_55  and  C_70
   37  A    between atoms: C_57  and  C_67
   38  A    between atoms: C_61  and  C_63
                            x       y       z     vdW  Elec       q    Type
                         _______ _______ _______ _____ _____    ______ ____

>  <TORSDO>
F 38

$$$$
=
 OpenBabel11072409423D

 70 73  0  0  1  0  0  0  0  0999 V2000
  190.5630  174.2090  144.3630 S   0  0  0  0  0  0  0  0  0  0  0  0
  191.3280  174.8830  143.1090 C   0  0  2  0  0  3  0  0  0  0  0  0
  191.3480  171.7300  144.6350 O   0  0  0  0  0  0  0  0  0  0  0  0
  191.6100  172.8890  144.9340 C   0  0  0  0  0  0  0  0  0  0  0  0
  192.7880  173.2050  145.8260 C   0  0  2  0  0  3  0  0  0  0  0  0
  193.1850  174.6780  145.9730 C   0  0  1  0  0  3  0  0  0  0  0  0
  192.6470  175.4810  147.5210 S   0  0  0  0  0  0  0  0  0  0  0  0
  187.4070  175.4920  147.2870 C   0  0  0  0  0  1  0  0  0  0  0  0
  189.9190  175.1120  146.9740 C   0  0  1  0  0  3  0  0  0  0  0  0
  189.8610  174.6740  148.3030 O   0  0  0  0  0  1  0  0  0  0  0  0
  188.7040  175.9750  146.6450 C   0  0  2  0  0  3  0  0  0  0  0  0
  191.0770  176.0760  146.7950 C   0  0  1  0  0  3  0  0  0  0  0  0
  190.8330  177.6160  148.7860 C   0  0  0  0  0  1  0  0  0  0  0  0
  190.5850  177.4360  147.2840 C   0  0  2  0  0  3  0  0  0  0  0  0
  188.3020  178.0170  147.9420 O   0  0  0  0  0  1  0  0  0  0  0  0
  189.0880  177.4320  146.9380 C   0  0  2  0  0  3  0  0  0  0  0  0
  194.6910  174.8240  145.8230 C   0  0  0  0  0  2  0  0  0  0  0  0
  195.0680  175.1380  144.3850 C   0  0  0  0  0  2  0  0  0  0  0  0
  194.8290  176.6060  144.0650 C   0  0  0  0  0  1  0  0  0  0  0  0
  193.9960  172.3180  145.5650 C   0  0  0  0  0  2  0  0  0  0  0  0
  193.8370  171.6010  144.2360 C   0  0  2  0  0  3  0  0  0  0  0  0
  193.9500  170.1080  144.4420 C   0  0  0  0  0  2  0  0  0  0  0  0
  195.1270  170.8820  143.8890 C   0  0  1  0  0  3  0  0  0  0  0  0
  195.2010  170.6850  142.3850 C   0  0  0  0  0  2  0  0  0  0  0  0
  196.9330  170.5470  141.8430 S   0  0  0  0  0  0  0  0  0  0  0  0
  197.3330  172.2680  142.2880 C   0  0  0  0  0  2  0  0  0  0  0  0
  197.0370  173.1910  141.1600 C   0  0  0  0  0  0  0  0  0  0  0  0
  197.5860  174.3220  141.1310 O   0  0  0  0  0  0  0  0  0  0  0  0
  196.1540  172.8030  140.1540 O   0  0  0  0  0  0  0  0  0  0  0  0
  197.7520  172.2410  138.4610 C   0  0  0  0  0  1  0  0  0  0  0  0
  196.4650  172.9720  138.7800 C   0  0  0  0  0  2  0  0  0  0  0  0
  191.9380  176.2500  143.2210 C   0  0  0  0  0  2  0  0  0  0  0  0
  191.3610  178.5920  142.6230 C   0  0  1  0  0  3  0  0  0  0  0  0
  190.1120  177.7820  142.2880 C   0  0  1  0  0  3  0  0  0  0  0  0
  191.0370  179.7880  143.2770 O   0  0  0  0  0  1  0  0  0  0  0  0
  190.9680  177.4030  143.4910 C   0  0  1  0  0  3  0  0  0  0  0  0
  188.9280  178.4120  142.7530 O   0  0  0  0  0  0  0  0  0  0  0  0
  187.6860  177.9090  142.3950 C   0  0  0  0  0  3  0  0  0  0  0  0
  187.4270  177.6420  141.1190 C   0  0  0  0  0  3  0  0  0  0  0  0
  186.1080  177.0870  140.6680 C   0  0  2  0  0  3  0  0  0  0  0  0
  185.9960  177.0960  139.1510 C   0  0  0  0  0  2  0  0  0  0  0  0
  187.7440  175.4980  139.4240 O   0  0  0  0  0  1  0  0  0  0  0  0
  187.2100  176.4180  138.5190 C   0  0  1  0  0  3  0  0  0  0  0  0
  186.9020  175.7040  137.1930 C   0  0  2  0  0  3  0  0  0  0  0  0
  188.2320  175.9370  135.1240 S   0  0  0  0  0  0  0  0  0  0  0  0
  188.0900  174.9430  136.6370 C   0  0  0  0  0  2  0  0  0  0  0  0
  186.8290  176.6670  136.0190 C   0  0  1  0  0  3  0  0  0  0  0  0
  184.8910  175.3070  135.7280 O   0  0  0  0  0  1  0  0  0  0  0  0
  185.5530  176.4260  135.2310 C   0  0  0  0  0  2  0  0  0  0  0  0
  184.9540  177.8740  141.2780 C   0  0  0  0  0  2  0  0  0  0  0  0
  184.0140  178.4220  140.2140 C   0  0  0  0  0  2  0  0  0  0  0  0
  182.8080  177.6730  140.1840 O   0  0  0  0  0  0  0  0  0  0  0  0
  181.5920  178.2300  140.5810 C   0  0  0  0  0  0  0  0  0  0  0  0
  180.5220  177.8070  140.0670 O   0  0  0  0  0  0  0  0  0  0  0  0
  181.5540  179.2460  141.5380 O   0  0  0  0  0  1  0  0  0  0  0  0
  191.3400  174.1610  141.7950 C   0  0  0  0  0  2  0  0  0  0  0  0
  190.0750  173.3300  141.5640 C   0  0  2  0  0  3  0  0  0  0  0  0
  190.2620  172.4130  140.3950 C   0  0  0  0  0  0  0  0  0  0  0  0
  189.9500  171.1930  140.4900 O   0  0  0  0  0  0  0  0  0  0  0  0
  190.8120  172.9270  139.1740 N   0  0  0  0  0  2  0  0  0  0  0  0
  191.3240  172.0450  138.1320 C   0  0  0  0  0  2  0  0  0  0  0  0
  192.7000  171.5310  138.5300 C   0  0  0  0  0  2  0  0  0  0  0  0
  192.9520  170.1270  137.9850 C   0  0  0  0  0  2  0  0  0  0  0  0
  191.8890  169.6640  136.9860 C   0  0  2  0  0  3  0  0  0  0  0  0
  190.7820  168.8760  137.6700 C   0  0  0  0  0  1  0  0  0  0  0  0
  192.4590  168.9110  135.9550 O   0  0  0  0  0  0  0  0  0  0  0  0
  192.1030  169.5800  134.7830 C   0  0  0  0  0  2  0  0  0  0  0  0
  192.5180  171.0350  134.8720 C   0  0  0  0  0  1  0  0  0  0  0  0
  187.8700  173.6430  141.9860 O   0  0  0  0  0  1  0  0  0  0  0  0
  188.9220  174.1880  141.3240 N   0  0  0  0  0  2  0  0  0  0  0  0
  1  4  1  0  0  0  0
  2 56  1  6  0  0  0
  2 32  1  0  0  0  0
  2  1  1  0  0  0  0
  3  4  2  0  0  0  0
  4  5  1  0  0  0  0
  5 20  1  6  0  0  0
  5  6  1  0  0  0  0
  6 17  1  1  0  0  0
  6  7  1  0  0  0  0
  9 10  1  1  0  0  0
 11 16  1  0  0  0  0
 11  9  1  0  0  0  0
 11  8  1  1  0  0  0
 12  9  1  0  0  0  0
 12 14  1  0  0  0  0
 12  7  1  1  0  0  0
 14 13  1  1  0  0  0
 16 14  1  0  0  0  0
 16 15  1  1  0  0  0
 18 17  1  0  0  0  0
 19 18  1  0  0  0  0
 21 22  1  0  0  0  0
 21 20  1  1  0  0  0
 23 24  1  6  0  0  0
 23 21  1  0  0  0  0
 23 22  1  0  0  0  0
 25 26  1  0  0  0  0
 25 24  1  0  0  0  0
 27 26  1  0  0  0  0
 28 27  2  0  0  0  0
 29 27  1  0  0  0  0
 30 31  1  0  0  0  0
 31 29  1  0  0  0  0
 33 35  1  1  0  0  0
 33 36  1  0  0  0  0
 34 33  1  0  0  0  0
 34 37  1  1  0  0  0
 34 36  1  0  0  0  0
 36 32  1  6  0  0  0
 38 37  1  0  0  0  0
 39 38  2  0  0  0  0
 40 41  1  6  0  0  0
 40 39  1  0  0  0  0
 40 50  1  0  0  0  0
 43 41  1  0  0  0  0
 43 42  1  1  0  0  0
 44 43  1  1  0  0  0
 45 47  1  0  0  0  0
 45 46  1  0  0  0  0
 46 44  1  0  0  0  0
 47 49  1  6  0  0  0
 47 44  1  0  0  0  0
 49 48  1  0  0  0  0
 51 50  1  0  0  0  0
 52 51  1  0  0  0  0
 52 53  1  0  0  0  0
 53 55  1  0  0  0  0
 54 53  2  0  0  0  0
 57 56  1  6  0  0  0
 58 59  2  0  0  0  0
 58 57  1  0  0  0  0
 60 58  1  0  0  0  0
 61 62  1  0  0  0  0
 61 60  1  0  0  0  0
 63 62  1  0  0  0  0
 64 65  1  1  0  0  0
 64 63  1  0  0  0  0
 66 64  1  0  0  0  0
 67 68  1  0  0  0  0
 67 66  1  0  0  0  0
 70 57  1  0  0  0  0
 70 69  1  0  0  0  0
M  END
>  <MODEL>
8

>  <REMARK>
 VINA RESULT:      -1.7      2.797      6.097
  Name = 
  38 active torsions:
  status: ('A' for Active; 'I' for Inactive)
    1  A    between atoms: C_2  and  O_53
    2  A    between atoms: C_4  and  C_9
    3  A    between atoms: C_4  and  C_27
    4  A    between atoms: C_6  and  C_36
    5  A    between atoms: C_6  and  C_67
    6  A    between atoms: C_12  and  C_15
    7  A    between atoms: C_13  and  S_26
    8  A    between atoms: C_14  and  O_53
    9  A    between atoms: C_15  and  C_60
   10  A    between atoms: C_16  and  O_23
   11  A    between atoms: C_18  and  C_39
   12  A    between atoms: C_18  and  O_58
   13  A    between atoms: C_20  and  C_36
   14  A    between atoms: C_21  and  C_65
   15  A    between atoms: C_21  and  S_68
   16  A    between atoms: C_22  and  C_61
   17  A    between atoms: O_23  and  C_40
   18  A    between atoms: S_26  and  C_60
   19  A    between atoms: C_27  and  C_28
   20  A    between atoms: C_27  and  C_60
   21  A    between atoms: C_28  and  S_37
   22  A    between atoms: C_29  and  C_43
   23  A    between atoms: C_29  and  C_62
   24  A    between atoms: C_33  and  C_56
   25  A    between atoms: C_33  and  C_59
   26  A    between atoms: C_33  and  C_63
   27  A    between atoms: C_34  and  O_49
   28  A    between atoms: C_35  and  O_58
   29  A    between atoms: C_36  and  N_64
   30  A    between atoms: C_39  and  S_68
   31  A    between atoms: C_40  and  C_56
   32  A    between atoms: C_41  and  C_57
   33  A    between atoms: C_42  and  O_49
   34  A    between atoms: C_42  and  C_62
   35  A    between atoms: C_43  and  N_54
   36  A    between atoms: C_55  and  C_70
   37  A    between atoms: C_57  and  C_67
   38  A    between atoms: C_61  and  C_63
                            x       y       z     vdW  Elec       q    Type
                         _______ _______ _______ _____ _____    ______ ____

>  <TORSDO>
F 38

$$$$
=
 OpenBabel11072409423D

 70 73  0  0  1  0  0  0  0  0999 V2000
  188.5790  173.7770  140.5860 S   0  0  0  0  0  0  0  0  0  0  0  0
  188.1870  174.7280  139.3390 C   0  0  0  0  0  0  0  0  0  0  0  0
  191.1670  174.1320  140.4680 O   0  0  0  0  0  0  0  0  0  0  0  0
  190.2750  173.3020  140.3340 C   0  0  0  0  0  0  0  0  0  0  0  0
  190.5970  171.8900  139.9080 C   0  0  2  0  0  3  0  0  0  0  0  0
  191.6370  171.1240  140.7330 C   0  0  1  0  0  3  0  0  0  0  0  0
  192.2750  172.0050  142.1980 S   0  0  0  0  0  0  0  0  0  0  0  0
  196.7140  170.5420  144.5810 C   0  0  0  0  0  1  0  0  0  0  0  0
  194.9020  171.4330  143.0070 C   0  0  1  0  0  3  0  0  0  0  0  0
  194.5980  172.2750  144.0830 O   0  0  0  0  0  1  0  0  0  0  0  0
  195.7000  170.2230  143.4860 C   0  0  2  0  0  3  0  0  0  0  0  0
  193.6310  170.8060  142.4640 C   0  0  1  0  0  3  0  0  0  0  0  0
  192.4410  170.0500  144.5650 C   0  0  0  0  0  1  0  0  0  0  0  0
  193.3100  169.6240  143.3760 C   0  0  2  0  0  3  0  0  0  0  0  0
  194.7180  168.7330  145.1680 O   0  0  0  0  0  1  0  0  0  0  0  0
  194.6910  169.1150  143.8190 C   0  0  2  0  0  3  0  0  0  0  0  0
  191.0720  169.7780  141.1560 C   0  0  0  0  0  2  0  0  0  0  0  0
  191.6950  168.6470  140.3580 C   0  0  0  0  0  2  0  0  0  0  0  0
  193.0300  169.0690  139.7630 C   0  0  0  0  0  1  0  0  0  0  0  0
  190.8530  171.7560  138.4130 C   0  0  0  0  0  2  0  0  0  0  0  0
  191.6660  172.9380  137.9180 C   0  0  2  0  0  3  0  0  0  0  0  0
  192.6280  172.4850  136.8440 C   0  0  0  0  0  2  0  0  0  0  0  0
  193.1300  172.7230  138.2510 C   0  0  1  0  0  3  0  0  0  0  0  0
  193.8310  174.0690  138.3180 C   0  0  0  0  0  2  0  0  0  0  0  0
  195.3820  173.9350  139.2620 S   0  0  0  0  0  0  0  0  0  0  0  0
  195.7330  172.2470  138.6750 C   0  0  0  0  0  2  0  0  0  0  0  0
  197.0940  172.1630  138.0800 C   0  0  0  0  0  0  0  0  0  0  0  0
  197.5670  173.1640  137.4850 O   0  0  0  0  0  0  0  0  0  0  0  0
  197.8260  170.9820  138.1780 O   0  0  0  0  0  0  0  0  0  0  0  0
  196.7720  168.8440  137.9480 C   0  0  0  0  0  1  0  0  0  0  0  0
  197.3480  169.8640  138.9090 C   0  0  0  0  0  2  0  0  0  0  0  0
  187.9780  176.2030  139.5290 C   0  0  0  0  0  3  0  0  0  0  0  0
  187.9120  178.2350  140.9600 C   0  0  1  0  0  3  0  0  0  0  0  0
  186.7810  177.3510  141.4800 C   0  0  1  0  0  3  0  0  0  0  0  0
  188.6490  178.7980  142.0090 O   0  0  0  0  0  1  0  0  0  0  0  0
  188.0710  176.7190  140.9680 C   0  0  1  0  0  3  0  0  0  0  0  0
  186.7720  177.2790  142.8970 O   0  0  0  0  0  0  0  0  0  0  0  0
  187.9300  176.9460  143.5840 C   0  0  0  0  0  3  0  0  0  0  0  0
  187.9940  177.1330  144.8980 C   0  0  0  0  0  3  0  0  0  0  0  0
  189.2130  176.7840  145.6990 C   0  0  2  0  0  3  0  0  0  0  0  0
  189.1880  175.3270  146.1340 C   0  0  0  0  0  2  0  0  0  0  0  0
  190.4400  175.1110  144.1170 O   0  0  0  0  0  1  0  0  0  0  0  0
  190.2320  174.5190  145.3640 C   0  0  1  0  0  3  0  0  0  0  0  0
  191.5790  174.3900  146.0950 C   0  0  2  0  0  3  0  0  0  0  0  0
  192.6960  176.2150  147.3290 S   0  0  0  0  0  0  0  0  0  0  0  0
  191.5190  174.8480  147.5390 C   0  0  0  0  0  2  0  0  0  0  0  0
  192.5700  175.4650  145.6780 C   0  0  1  0  0  3  0  0  0  0  0  0
  194.8550  175.8170  145.0910 O   0  0  0  0  0  1  0  0  0  0  0  0
  193.9010  174.8280  145.3160 C   0  0  0  0  0  2  0  0  0  0  0  0
  189.3340  177.6880  146.9200 C   0  0  0  0  0  2  0  0  0  0  0  0
  188.0350  177.7530  147.7110 C   0  0  0  0  0  2  0  0  0  0  0  0
  187.3060  178.9240  147.3730 O   0  0  0  0  0  0  0  0  0  0  0  0
  186.0300  178.8540  146.8160 C   0  0  0  0  0  0  0  0  0  0  0  0
  185.3450  177.8070  146.9700 O   0  0  0  0  0  1  0  0  0  0  0  0
  185.5090  179.9300  146.0940 O   0  0  0  0  0  0  0  0  0  0  0  0
  187.9400  174.1010  137.9990 C   0  0  0  0  0  2  0  0  0  0  0  0
  188.1740  175.0720  136.8390 C   0  0  2  0  0  3  0  0  0  0  0  0
  186.8870  175.3470  136.1240 C   0  0  0  0  0  0  0  0  0  0  0  0
  186.8380  175.2890  134.8640 O   0  0  0  0  0  0  0  0  0  0  0  0
  185.7180  175.6930  136.8800 N   0  0  0  0  0  2  0  0  0  0  0  0
  184.5460  176.2870  136.2500 C   0  0  0  0  0  2  0  0  0  0  0  0
  183.6520  175.1880  135.6960 C   0  0  0  0  0  2  0  0  0  0  0  0
  182.4060  174.9930  136.5580 C   0  0  0  0  0  2  0  0  0  0  0  0
  181.4470  173.9370  136.0070 C   0  0  2  0  0  3  0  0  0  0  0  0
  180.0210  174.4610  135.9270 C   0  0  0  0  0  1  0  0  0  0  0  0
  181.4940  172.7640  136.7690 O   0  0  0  0  0  0  0  0  0  0  0  0
  180.1580  172.4100  136.9650 C   0  0  0  0  0  2  0  0  0  0  0  0
  179.9650  170.9370  136.6620 C   0  0  0  0  0  1  0  0  0  0  0  0
  189.1890  173.1900  136.0850 O   0  0  0  0  0  1  0  0  0  0  0  0
  189.1440  174.5340  135.8950 N   0  0  0  0  0  2  0  0  0  0  0  0
  2 32  2  0  0  0  0
  2  1  1  0  0  0  0
  4  3  2  0  0  0  0
  4  1  1  0  0  0  0
  5 20  1  6  0  0  0
  5  4  1  0  0  0  0
  5  6  1  0  0  0  0
  6 17  1  1  0  0  0
  6  7  1  0  0  0  0
  9 11  1  0  0  0  0
  9 10  1  1  0  0  0
 11 16  1  0  0  0  0
 11  8  1  1  0  0  0
 12  7  1  1  0  0  0
 12  9  1  0  0  0  0
 12 14  1  0  0  0  0
 14 16  1  0  0  0  0
 14 13  1  1  0  0  0
 16 15  1  1  0  0  0
 18 17  1  0  0  0  0
 19 18  1  0  0  0  0
 21 23  1  0  0  0  0
 21 20  1  1  0  0  0
 22 21  1  0  0  0  0
 22 23  1  0  0  0  0
 23 24  1  6  0  0  0
 24 25  1  0  0  0  0
 26 25  1  0  0  0  0
 27 29  1  0  0  0  0
 27 26  1  0  0  0  0
 28 27  2  0  0  0  0
 29 31  1  0  0  0  0
 30 31  1  0  0  0  0
 33 36  1  0  0  0  0
 33 34  1  0  0  0  0
 33 35  1  1  0  0  0
 34 37  1  1  0  0  0
 36 32  1  6  0  0  0
 36 34  1  0  0  0  0
 37 38  1  0  0  0  0
 38 39  2  0  0  0  0
 40 39  1  1  0  0  0
 40 41  1  0  0  0  0
 40 50  1  0  0  0  0
 43 42  1  6  0  0  0
 43 41  1  0  0  0  0
 44 43  1  6  0  0  0
 44 46  1  0  0  0  0
 45 46  1  0  0  0  0
 47 49  1  1  0  0  0
 47 44  1  0  0  0  0
 47 45  1  0  0  0  0
 48 49  1  0  0  0  0
 50 51  1  0  0  0  0
 52 51  1  0  0  0  0
 53 54  1  0  0  0  0
 53 52  1  0  0  0  0
 55 53  2  0  0  0  0
 56  2  1  0  0  0  0
 57 56  1  1  0  0  0
 58 57  1  0  0  0  0
 58 60  1  0  0  0  0
 59 58  2  0  0  0  0
 61 60  1  0  0  0  0
 62 61  1  0  0  0  0
 62 63  1  0  0  0  0
 64 65  1  1  0  0  0
 64 63  1  0  0  0  0
 64 66  1  0  0  0  0
 66 67  1  0  0  0  0
 68 67  1  0  0  0  0
 70 69  1  0  0  0  0
 70 57  1  0  0  0  0
M  END
>  <MODEL>
9

>  <REMARK>
 VINA RESULT:      -1.7      3.266      7.073
  Name = 
  38 active torsions:
  status: ('A' for Active; 'I' for Inactive)
    1  A    between atoms: C_2  and  O_53
    2  A    between atoms: C_4  and  C_9
    3  A    between atoms: C_4  and  C_27
    4  A    between atoms: C_6  and  C_36
    5  A    between atoms: C_6  and  C_67
    6  A    between atoms: C_12  and  C_15
    7  A    between atoms: C_13  and  S_26
    8  A    between atoms: C_14  and  O_53
    9  A    between atoms: C_15  and  C_60
   10  A    between atoms: C_16  and  O_23
   11  A    between atoms: C_18  and  C_39
   12  A    between atoms: C_18  and  O_58
   13  A    between atoms: C_20  and  C_36
   14  A    between atoms: C_21  and  C_65
   15  A    between atoms: C_21  and  S_68
   16  A    between atoms: C_22  and  C_61
   17  A    between atoms: O_23  and  C_40
   18  A    between atoms: S_26  and  C_60
   19  A    between atoms: C_27  and  C_28
   20  A    between atoms: C_27  and  C_60
   21  A    between atoms: C_28  and  S_37
   22  A    between atoms: C_29  and  C_43
   23  A    between atoms: C_29  and  C_62
   24  A    between atoms: C_33  and  C_56
   25  A    between atoms: C_33  and  C_59
   26  A    between atoms: C_33  and  C_63
   27  A    between atoms: C_34  and  O_49
   28  A    between atoms: C_35  and  O_58
   29  A    between atoms: C_36  and  N_64
   30  A    between atoms: C_39  and  S_68
   31  A    between atoms: C_40  and  C_56
   32  A    between atoms: C_41  and  C_57
   33  A    between atoms: C_42  and  O_49
   34  A    between atoms: C_42  and  C_62
   35  A    between atoms: C_43  and  N_54
   36  A    between atoms: C_55  and  C_70
   37  A    between atoms: C_57  and  C_67
   38  A    between atoms: C_61  and  C_63
                            x       y       z     vdW  Elec       q    Type
                         _______ _______ _______ _____ _____    ______ ____

>  <TORSDO>
F 38

$$$$
