=
 OpenBabel11062418543D

 33 35  0  0  1  0  0  0  0  0999 V2000
  190.4050  175.4650  145.1100 C   0  0  0  0  0  0  0  0  0  0  0  0
  191.9550  176.4570  147.5490 C   0  0  0  0  0  3  0  0  0  0  0  0
  194.2530  176.9390  146.8960 O   0  0  0  0  0  1  0  0  0  0  0  0
  190.6470  176.5460  147.3220 C   0  0  0  0  0  3  0  0  0  0  0  0
  190.0810  176.6740  145.9470 C   0  0  2  0  0  3  0  0  0  0  0  0
  191.6720  175.1880  144.7900 C   0  0  0  0  0  3  0  0  0  0  0  0
  192.8800  175.8900  145.2820 C   0  0  0  0  0  0  0  0  0  0  0  0
  193.0170  176.4240  146.5180 C   0  0  0  0  0  0  0  0  0  0  0  0
  184.2320  178.2770  146.1380 Cl  0  0  0  0  0  0  0  0  0  0  0  0
  185.6980  176.5420  148.0810 F   0  0  0  0  0  0  0  0  0  0  0  0
  188.6290  177.0610  145.9560 C   0  0  0  0  0  0  0  0  0  0  0  0
  186.7400  178.2640  145.0150 C   0  0  0  0  0  0  0  0  0  0  0  0
  186.2230  179.0880  144.0220 O   0  0  0  0  0  1  0  0  0  0  0  0
  185.9260  177.8120  146.0640 C   0  0  0  0  0  0  0  0  0  0  0  0
  186.4700  176.9860  147.0580 C   0  0  0  0  0  0  0  0  0  0  0  0
  187.8170  176.6180  147.0030 C   0  0  0  0  0  3  0  0  0  0  0  0
  188.0850  177.8910  144.9640 C   0  0  0  0  0  3  0  0  0  0  0  0
  194.0700  175.8330  144.3790 C   0  0  0  0  0  2  0  0  0  0  0  0
  194.4300  174.3900  144.0710 C   0  0  0  0  0  2  0  0  0  0  0  0
  196.2700  172.9920  144.9230 C   0  0  2  0  0  3  0  0  0  0  0  0
  195.0090  173.7360  145.3080 C   0  0  1  0  0  3  0  0  0  0  0  0
  196.5160  171.9420  145.8950 N   0  0  0  0  0  1  0  0  0  0  0  0
  196.3650  174.3390  145.6060 C   0  0  0  0  0  2  0  0  0  0  0  0
  189.3230  174.5990  144.5360 C   0  0  0  0  0  2  0  0  0  0  0  0
  189.7620  173.9790  143.2920 N   0  0  0  0  0  2  0  0  0  0  0  0
  189.3060  174.5300  140.7420 O   0  0  0  0  0  0  0  0  0  0  0  0
  188.6010  174.3360  142.0560 S   0  0  0  0  0  0  0  0  0  0  0  0
  187.6140  173.2060  141.9370 O   0  0  0  0  0  0  0  0  0  0  0  0
  187.7410  175.8360  142.4880 C   0  0  2  0  0  3  0  0  0  0  0  0
  186.4040  175.5520  142.7730 O   0  0  0  0  0  1  0  0  0  0  0  0
  187.8310  176.8360  141.3820 C   0  0  0  0  0  0  0  0  0  0  0  0
  188.5690  177.8510  141.4960 O   0  0  0  0  0  1  0  0  0  0  0  0
  187.0680  176.6640  140.2360 O   0  0  0  0  0  0  0  0  0  0  0  0
  1  5  1  0  0  0  0
  4  2  2  0  0  0  0
  5 11  1  1  0  0  0
  5  4  1  0  0  0  0
  6  1  2  0  0  0  0
  6  7  1  0  0  0  0
  7  8  2  0  0  0  0
  8  3  1  0  0  0  0
  8  2  1  0  0  0  0
 11 16  1  0  0  0  0
 12 14  2  0  0  0  0
 13 12  1  0  0  0  0
 14  9  1  0  0  0  0
 14 15  1  0  0  0  0
 15 10  1  0  0  0  0
 16 15  2  0  0  0  0
 17 12  1  0  0  0  0
 17 11  2  0  0  0  0
 18  7  1  0  0  0  0
 19 18  1  0  0  0  0
 20 21  1  0  0  0  0
 20 23  1  0  0  0  0
 20 22  1  1  0  0  0
 21 19  1  6  0  0  0
 21 23  1  0  0  0  0
 24  1  1  0  0  0  0
 25 24  1  0  0  0  0
 26 27  2  0  0  0  0
 27 29  1  0  0  0  0
 27 25  1  0  0  0  0
 28 27  2  0  0  0  0
 29 30  1  6  0  0  0
 31 32  1  0  0  0  0
 31 29  1  0  0  0  0
 33 31  2  0  0  0  0
M  END
>  <MODEL>
1

>  <REMARK>
 VINA RESULT:      -7.2      0.000      0.000
  Name = 
  9 active torsions:
  status: ('A' for Active; 'I' for Inactive)
    1  A    between atoms: N_1  and  S_10
    2  A    between atoms: N_1  and  C_29
    3  A    between atoms: C_2  and  C_29
    4  A    between atoms: C_7  and  S_10
    5  A    between atoms: C_7  and  C_11
    6  A    between atoms: C_9  and  C_13
    7  A    between atoms: C_15  and  C_23
    8  A    between atoms: C_15  and  C_25
    9  A    between atoms: C_17  and  C_25
                            x       y       z     vdW  Elec       q    Type
                         _______ _______ _______ _____ _____    ______ ____

>  <TORSDO>
F 9

$$$$
=
 OpenBabel11062418543D

 33 35  0  0  1  0  0  0  0  0999 V2000
  190.7060  175.1660  145.1530 C   0  0  0  0  0  0  0  0  0  0  0  0
  191.9820  176.6650  147.4900 C   0  0  0  0  0  3  0  0  0  0  0  0
  194.3510  177.0040  147.0260 O   0  0  0  0  0  1  0  0  0  0  0  0
  190.7110  176.6970  147.0950 C   0  0  0  0  0  3  0  0  0  0  0  0
  190.3130  176.5250  145.6680 C   0  0  2  0  0  3  0  0  0  0  0  0
  191.9950  174.8310  145.0520 C   0  0  0  0  0  3  0  0  0  0  0  0
  193.1530  175.6270  145.5230 C   0  0  0  0  0  0  0  0  0  0  0  0
  193.1550  176.4150  146.6230 C   0  0  0  0  0  0  0  0  0  0  0  0
  184.5150  178.0990  144.8220 Cl  0  0  0  0  0  0  0  0  0  0  0  0
  185.6790  176.6740  147.1780 F   0  0  0  0  0  0  0  0  0  0  0  0
  188.8790  176.9000  145.4220 C   0  0  0  0  0  0  0  0  0  0  0  0
  187.1520  177.9400  144.0670 C   0  0  0  0  0  0  0  0  0  0  0  0
  186.7860  178.6080  142.9040 O   0  0  0  0  0  1  0  0  0  0  0  0
  186.1960  177.6400  145.0480 C   0  0  0  0  0  0  0  0  0  0  0  0
  186.5880  176.9710  146.2170 C   0  0  0  0  0  0  0  0  0  0  0  0
  187.9250  176.6070  146.4010 C   0  0  0  0  0  3  0  0  0  0  0  0
  188.4860  177.5730  144.2550 C   0  0  0  0  0  3  0  0  0  0  0  0
  194.4380  175.3820  144.8000 C   0  0  0  0  0  2  0  0  0  0  0  0
  194.3870  175.9950  143.4120 C   0  0  0  0  0  2  0  0  0  0  0  0
  195.8710  176.6380  141.5530 C   0  0  2  0  0  3  0  0  0  0  0  0
  195.6340  175.6120  142.6420 C   0  0  1  0  0  3  0  0  0  0  0  0
  196.6630  176.0340  140.4970 N   0  0  0  0  0  1  0  0  0  0  0  0
  196.6870  176.6840  142.8280 C   0  0  0  0  0  2  0  0  0  0  0  0
  189.6790  174.1930  144.6530 C   0  0  0  0  0  2  0  0  0  0  0  0
  190.3160  173.0850  143.9520 N   0  0  0  0  0  2  0  0  0  0  0  0
  190.9650  174.1740  141.6270 O   0  0  0  0  0  0  0  0  0  0  0  0
  189.9770  173.2330  142.2590 S   0  0  0  0  0  0  0  0  0  0  0  0
  190.0690  171.8850  141.5970 O   0  0  0  0  0  0  0  0  0  0  0  0
  188.3310  173.8860  142.0550 C   0  0  2  0  0  3  0  0  0  0  0  0
  187.4260  172.8410  141.8610 O   0  0  0  0  0  1  0  0  0  0  0  0
  188.2770  174.8360  140.9040 C   0  0  0  0  0  0  0  0  0  0  0  0
  188.1030  176.0690  141.0990 O   0  0  0  0  0  1  0  0  0  0  0  0
  188.3830  174.3520  139.6080 O   0  0  0  0  0  0  0  0  0  0  0  0
  1  5  1  0  0  0  0
  4  2  2  0  0  0  0
  5 11  1  1  0  0  0
  5  4  1  0  0  0  0
  6  1  2  0  0  0  0
  6  7  1  0  0  0  0
  7  8  2  0  0  0  0
  8  3  1  0  0  0  0
  8  2  1  0  0  0  0
  9 14  1  0  0  0  0
 11 16  1  0  0  0  0
 12 17  1  0  0  0  0
 12 14  2  0  0  0  0
 13 12  1  0  0  0  0
 14 15  1  0  0  0  0
 15 16  2  0  0  0  0
 15 10  1  0  0  0  0
 17 11  2  0  0  0  0
 18  7  1  0  0  0  0
 19 18  1  0  0  0  0
 20 22  1  6  0  0  0
 20 21  1  0  0  0  0
 20 23  1  0  0  0  0
 21 23  1  0  0  0  0
 21 19  1  1  0  0  0
 24  1  1  0  0  0  0
 25 24  1  0  0  0  0
 26 27  2  0  0  0  0
 27 25  1  0  0  0  0
 28 27  2  0  0  0  0
 29 30  1  6  0  0  0
 29 27  1  0  0  0  0
 31 32  1  0  0  0  0
 31 29  1  0  0  0  0
 33 31  2  0  0  0  0
M  END
>  <MODEL>
2

>  <REMARK>
 VINA RESULT:      -7.1      1.851      2.161
  Name = 
  9 active torsions:
  status: ('A' for Active; 'I' for Inactive)
    1  A    between atoms: N_1  and  S_10
    2  A    between atoms: N_1  and  C_29
    3  A    between atoms: C_2  and  C_29
    4  A    between atoms: C_7  and  S_10
    5  A    between atoms: C_7  and  C_11
    6  A    between atoms: C_9  and  C_13
    7  A    between atoms: C_15  and  C_23
    8  A    between atoms: C_15  and  C_25
    9  A    between atoms: C_17  and  C_25
                            x       y       z     vdW  Elec       q    Type
                         _______ _______ _______ _____ _____    ______ ____

>  <TORSDO>
F 9

$$$$
=
 OpenBabel11062418543D

 33 35  0  0  1  0  0  0  0  0999 V2000
  190.5520  175.6420  144.6360 C   0  0  0  0  0  0  0  0  0  0  0  0
  191.7710  176.3440  147.3490 C   0  0  0  0  0  3  0  0  0  0  0  0
  194.1210  176.9150  147.0470 O   0  0  0  0  0  1  0  0  0  0  0  0
  190.4990  176.4520  146.9730 C   0  0  0  0  0  3  0  0  0  0  0  0
  190.1030  176.7400  145.5640 C   0  0  2  0  0  3  0  0  0  0  0  0
  191.8530  175.4130  144.4450 C   0  0  0  0  0  3  0  0  0  0  0  0
  192.9780  176.0580  145.1630 C   0  0  0  0  0  0  0  0  0  0  0  0
  192.9510  176.4410  146.4610 C   0  0  0  0  0  0  0  0  0  0  0  0
  184.2510  178.3020  145.2110 Cl  0  0  0  0  0  0  0  0  0  0  0  0
  185.5690  176.6960  147.3600 F   0  0  0  0  0  0  0  0  0  0  0  0
  188.6530  177.1150  145.4390 C   0  0  0  0  0  0  0  0  0  0  0  0
  186.8370  178.2450  144.2870 C   0  0  0  0  0  0  0  0  0  0  0  0
  186.3950  179.0050  143.2100 O   0  0  0  0  0  1  0  0  0  0  0  0
  185.9460  177.8480  145.2940 C   0  0  0  0  0  0  0  0  0  0  0  0
  186.4150  177.0860  146.3740 C   0  0  0  0  0  0  0  0  0  0  0  0
  187.7640  176.7270  146.4450 C   0  0  0  0  0  3  0  0  0  0  0  0
  188.1840  177.8800  144.3610 C   0  0  0  0  0  3  0  0  0  0  0  0
  194.2700  176.1170  144.4140 C   0  0  0  0  0  2  0  0  0  0  0  0
  194.6930  174.7250  143.9820 C   0  0  0  0  0  2  0  0  0  0  0  0
  196.1710  172.9800  144.8990 C   0  0  2  0  0  3  0  0  0  0  0  0
  194.9940  173.8830  145.2040 C   0  0  1  0  0  3  0  0  0  0  0  0
  196.1230  171.8260  145.7780 N   0  0  0  0  0  1  0  0  0  0  0  0
  196.3710  174.2320  145.7270 C   0  0  0  0  0  2  0  0  0  0  0  0
  189.5660  174.8450  143.8340 C   0  0  0  0  0  2  0  0  0  0  0  0
  189.6640  175.1760  142.4180 N   0  0  0  0  0  2  0  0  0  0  0  0
  187.0240  175.0990  142.6130 O   0  0  0  0  0  0  0  0  0  0  0  0
  188.1500  174.8130  141.6580 S   0  0  0  0  0  0  0  0  0  0  0  0
  187.9840  175.6490  140.4180 O   0  0  0  0  0  0  0  0  0  0  0  0
  188.1230  173.0860  141.2200 C   0  0  2  0  0  3  0  0  0  0  0  0
  187.6410  172.3310  142.2910 O   0  0  0  0  0  1  0  0  0  0  0  0
  189.4870  172.6160  140.8310 C   0  0  0  0  0  0  0  0  0  0  0  0
  190.1290  171.8280  141.5750 O   0  0  0  0  0  1  0  0  0  0  0  0
  190.0640  173.0810  139.6580 O   0  0  0  0  0  0  0  0  0  0  0  0
  1  5  1  0  0  0  0
  4  2  2  0  0  0  0
  5 11  1  1  0  0  0
  5  4  1  0  0  0  0
  6  1  2  0  0  0  0
  6  7  1  0  0  0  0
  7  8  2  0  0  0  0
  8  3  1  0  0  0  0
  8  2  1  0  0  0  0
  9 14  1  0  0  0  0
 11 16  1  0  0  0  0
 12 17  1  0  0  0  0
 12 14  2  0  0  0  0
 13 12  1  0  0  0  0
 14 15  1  0  0  0  0
 15 16  2  0  0  0  0
 15 10  1  0  0  0  0
 17 11  2  0  0  0  0
 18  7  1  0  0  0  0
 19 18  1  0  0  0  0
 20 21  1  0  0  0  0
 20 23  1  0  0  0  0
 20 22  1  1  0  0  0
 21 19  1  6  0  0  0
 21 23  1  0  0  0  0
 24  1  1  0  0  0  0
 25 24  1  0  0  0  0
 27 25  1  0  0  0  0
 27 26  2  0  0  0  0
 28 27  2  0  0  0  0
 29 27  1  0  0  0  0
 29 30  1  1  0  0  0
 31 29  1  0  0  0  0
 31 32  1  0  0  0  0
 33 31  2  0  0  0  0
M  END
>  <MODEL>
3

>  <REMARK>
 VINA RESULT:      -7.1      1.240      1.987
  Name = 
  9 active torsions:
  status: ('A' for Active; 'I' for Inactive)
    1  A    between atoms: N_1  and  S_10
    2  A    between atoms: N_1  and  C_29
    3  A    between atoms: C_2  and  C_29
    4  A    between atoms: C_7  and  S_10
    5  A    between atoms: C_7  and  C_11
    6  A    between atoms: C_9  and  C_13
    7  A    between atoms: C_15  and  C_23
    8  A    between atoms: C_15  and  C_25
    9  A    between atoms: C_17  and  C_25
                            x       y       z     vdW  Elec       q    Type
                         _______ _______ _______ _____ _____    ______ ____

>  <TORSDO>
F 9

$$$$
=
 OpenBabel11062418543D

 33 35  0  0  1  0  0  0  0  0999 V2000
  190.6060  175.5460  144.4940 C   0  0  0  0  0  0  0  0  0  0  0  0
  191.5570  176.4850  147.2420 C   0  0  0  0  0  3  0  0  0  0  0  0
  193.9350  177.0070  147.1310 O   0  0  0  0  0  1  0  0  0  0  0  0
  190.3310  176.5680  146.7300 C   0  0  0  0  0  3  0  0  0  0  0  0
  190.0850  176.7290  145.2680 C   0  0  2  0  0  3  0  0  0  0  0  0
  191.9160  175.2900  144.4590 C   0  0  0  0  0  3  0  0  0  0  0  0
  192.9740  175.9900  145.2260 C   0  0  0  0  0  0  0  0  0  0  0  0
  192.8220  176.4900  146.4740 C   0  0  0  0  0  0  0  0  0  0  0  0
  184.3610  178.1880  143.8800 Cl  0  0  0  0  0  0  0  0  0  0  0  0
  186.8320  178.8980  142.3540 F   0  0  0  0  0  0  0  0  0  0  0  0
  188.6620  177.1020  144.9610 C   0  0  0  0  0  0  0  0  0  0  0  0
  186.2850  177.0190  145.4550 C   0  0  0  0  0  0  0  0  0  0  0  0
  185.2500  176.5970  146.2830 O   0  0  0  0  0  1  0  0  0  0  0  0
  186.0150  177.7670  144.3000 C   0  0  0  0  0  0  0  0  0  0  0  0
  187.0730  178.1770  143.4770 C   0  0  0  0  0  0  0  0  0  0  0  0
  188.3890  177.8410  143.8070 C   0  0  0  0  0  3  0  0  0  0  0  0
  187.6020  176.6880  145.7820 C   0  0  0  0  0  3  0  0  0  0  0  0
  194.3360  175.9690  144.6100 C   0  0  0  0  0  2  0  0  0  0  0  0
  194.2310  176.0240  143.0970 C   0  0  0  0  0  2  0  0  0  0  0  0
  195.9380  176.6240  141.4260 C   0  0  2  0  0  3  0  0  0  0  0  0
  195.5510  175.6090  142.4810 C   0  0  1  0  0  3  0  0  0  0  0  0
  196.8350  175.9970  140.4720 N   0  0  0  0  0  1  0  0  0  0  0  0
  196.5980  176.6570  142.7880 C   0  0  0  0  0  2  0  0  0  0  0  0
  189.6930  174.6860  143.6710 C   0  0  0  0  0  2  0  0  0  0  0  0
  189.8350  174.9910  142.2530 N   0  0  0  0  0  2  0  0  0  0  0  0
  187.2250  174.6320  142.5290 O   0  0  0  0  0  0  0  0  0  0  0  0
  188.2970  174.7780  141.4840 S   0  0  0  0  0  0  0  0  0  0  0  0
  187.9920  175.9640  140.6100 O   0  0  0  0  0  0  0  0  0  0  0  0
  188.3490  173.3010  140.4880 C   0  0  2  0  0  3  0  0  0  0  0  0
  189.1260  172.3290  141.1190 O   0  0  0  0  0  1  0  0  0  0  0  0
  188.8960  173.5970  139.1290 C   0  0  0  0  0  0  0  0  0  0  0  0
  190.1370  173.7220  138.9520 O   0  0  0  0  0  1  0  0  0  0  0  0
  188.0260  173.7690  138.0620 O   0  0  0  0  0  0  0  0  0  0  0  0
  1  5  1  0  0  0  0
  4  2  2  0  0  0  0
  5 11  1  1  0  0  0
  5  4  1  0  0  0  0
  6  1  2  0  0  0  0
  6  7  1  0  0  0  0
  7  8  2  0  0  0  0
  8  3  1  0  0  0  0
  8  2  1  0  0  0  0
  9 14  1  0  0  0  0
 10 15  1  0  0  0  0
 11 17  1  0  0  0  0
 12 17  2  0  0  0  0
 12 13  1  0  0  0  0
 14 12  1  0  0  0  0
 15 16  1  0  0  0  0
 15 14  2  0  0  0  0
 16 11  2  0  0  0  0
 18  7  1  0  0  0  0
 19 18  1  0  0  0  0
 20 22  1  6  0  0  0
 20 21  1  0  0  0  0
 20 23  1  0  0  0  0
 21 23  1  0  0  0  0
 21 19  1  1  0  0  0
 24  1  1  0  0  0  0
 25 24  1  0  0  0  0
 27 25  1  0  0  0  0
 27 26  2  0  0  0  0
 28 27  2  0  0  0  0
 29 30  1  1  0  0  0
 29 27  1  0  0  0  0
 31 29  1  0  0  0  0
 32 31  1  0  0  0  0
 33 31  2  0  0  0  0
M  END
>  <MODEL>
4

>  <REMARK>
 VINA RESULT:      -7.0      2.430      3.031
  Name = 
  9 active torsions:
  status: ('A' for Active; 'I' for Inactive)
    1  A    between atoms: N_1  and  S_10
    2  A    between atoms: N_1  and  C_29
    3  A    between atoms: C_2  and  C_29
    4  A    between atoms: C_7  and  S_10
    5  A    between atoms: C_7  and  C_11
    6  A    between atoms: C_9  and  C_13
    7  A    between atoms: C_15  and  C_23
    8  A    between atoms: C_15  and  C_25
    9  A    between atoms: C_17  and  C_25
                            x       y       z     vdW  Elec       q    Type
                         _______ _______ _______ _____ _____    ______ ____

>  <TORSDO>
F 9

$$$$
=
 OpenBabel11062418543D

 33 35  0  0  1  0  0  0  0  0999 V2000
  189.8560  176.3250  144.7860 C   0  0  0  0  0  0  0  0  0  0  0  0
  189.5790  174.9060  147.4780 C   0  0  0  0  0  3  0  0  0  0  0  0
  191.6360  175.1970  148.7520 O   0  0  0  0  0  1  0  0  0  0  0  0
  188.6100  175.4110  146.7170 C   0  0  0  0  0  3  0  0  0  0  0  0
  188.8180  176.6010  145.8420 C   0  0  2  0  0  3  0  0  0  0  0  0
  191.1250  176.0960  145.1330 C   0  0  0  0  0  3  0  0  0  0  0  0
  191.6510  175.9500  146.5110 C   0  0  0  0  0  0  0  0  0  0  0  0
  190.9750  175.3920  147.5420 C   0  0  0  0  0  0  0  0  0  0  0  0
  183.5730  178.9410  143.8870 Cl  0  0  0  0  0  0  0  0  0  0  0  0
  184.0290  177.3500  146.3760 F   0  0  0  0  0  0  0  0  0  0  0  0
  187.5270  177.1660  145.3220 C   0  0  0  0  0  0  0  0  0  0  0  0
  186.2670  178.4410  143.6820 C   0  0  0  0  0  0  0  0  0  0  0  0
  186.2400  179.1640  142.4950 O   0  0  0  0  0  1  0  0  0  0  0  0
  185.0970  178.2600  144.4350 C   0  0  0  0  0  0  0  0  0  0  0  0
  185.1490  177.5330  145.6330 C   0  0  0  0  0  0  0  0  0  0  0  0
  186.3610  176.9930  146.0730 C   0  0  0  0  0  3  0  0  0  0  0  0
  187.4750  177.8970  144.1260 C   0  0  0  0  0  3  0  0  0  0  0  0
  193.0930  176.3010  146.6890 C   0  0  0  0  0  2  0  0  0  0  0  0
  193.9510  175.5180  145.7120 C   0  0  0  0  0  2  0  0  0  0  0  0
  195.6910  175.7310  143.9810 C   0  0  2  0  0  3  0  0  0  0  0  0
  194.6060  176.4720  144.7340 C   0  0  1  0  0  3  0  0  0  0  0  0
  196.6650  176.6890  143.4900 N   0  0  0  0  0  1  0  0  0  0  0  0
  194.3540  175.9920  143.3210 C   0  0  0  0  0  2  0  0  0  0  0  0
  189.5210  176.3940  143.3250 C   0  0  0  0  0  2  0  0  0  0  0  0
  190.4070  175.5340  142.5510 N   0  0  0  0  0  2  0  0  0  0  0  0
  188.0970  174.2390  142.5140 O   0  0  0  0  0  0  0  0  0  0  0  0
  189.4910  174.1920  141.9500 S   0  0  0  0  0  0  0  0  0  0  0  0
  189.4300  174.2420  140.4480 O   0  0  0  0  0  0  0  0  0  0  0  0
  190.2800  172.6780  142.4640 C   0  0  2  0  0  3  0  0  0  0  0  0
  189.4410  171.5930  142.2080 O   0  0  0  0  0  1  0  0  0  0  0  0
  190.6310  172.7290  143.9150 C   0  0  0  0  0  0  0  0  0  0  0  0
  189.7320  172.6480  144.7940 O   0  0  0  0  0  1  0  0  0  0  0  0
  191.9540  172.9020  144.2960 O   0  0  0  0  0  0  0  0  0  0  0  0
  1  6  2  0  0  0  0
  1  5  1  0  0  0  0
  2  8  1  0  0  0  0
  4  2  2  0  0  0  0
  5 11  1  6  0  0  0
  5  4  1  0  0  0  0
  6  7  1  0  0  0  0
  7 18  1  0  0  0  0
  7  8  2  0  0  0  0
  8  3  1  0  0  0  0
  9 14  1  0  0  0  0
 11 16  1  0  0  0  0
 12 17  1  0  0  0  0
 12 14  2  0  0  0  0
 13 12  1  0  0  0  0
 14 15  1  0  0  0  0
 15 16  2  0  0  0  0
 15 10  1  0  0  0  0
 17 11  2  0  0  0  0
 19 18  1  0  0  0  0
 20 22  1  6  0  0  0
 20 21  1  0  0  0  0
 21 19  1  1  0  0  0
 23 20  1  0  0  0  0
 23 21  1  0  0  0  0
 24  1  1  0  0  0  0
 25 24  1  0  0  0  0
 27 29  1  0  0  0  0
 27 26  2  0  0  0  0
 27 25  1  0  0  0  0
 28 27  2  0  0  0  0
 29 30  1  1  0  0  0
 29 31  1  0  0  0  0
 31 33  2  0  0  0  0
 31 32  1  0  0  0  0
M  END
>  <MODEL>
5

>  <REMARK>
 VINA RESULT:      -6.9      2.123      3.139
  Name = 
  9 active torsions:
  status: ('A' for Active; 'I' for Inactive)
    1  A    between atoms: N_1  and  S_10
    2  A    between atoms: N_1  and  C_29
    3  A    between atoms: C_2  and  C_29
    4  A    between atoms: C_7  and  S_10
    5  A    between atoms: C_7  and  C_11
    6  A    between atoms: C_9  and  C_13
    7  A    between atoms: C_15  and  C_23
    8  A    between atoms: C_15  and  C_25
    9  A    between atoms: C_17  and  C_25
                            x       y       z     vdW  Elec       q    Type
                         _______ _______ _______ _____ _____    ______ ____

>  <TORSDO>
F 9

$$$$
=
 OpenBabel11062418543D

 33 35  0  0  1  0  0  0  0  0999 V2000
  190.6370  175.7980  144.6320 C   0  0  0  0  0  0  0  0  0  0  0  0
  192.0080  176.3660  147.3040 C   0  0  0  0  0  3  0  0  0  0  0  0
  194.3180  177.0270  146.8940 O   0  0  0  0  0  1  0  0  0  0  0  0
  190.7120  176.4580  147.0150 C   0  0  0  0  0  3  0  0  0  0  0  0
  190.2190  176.8220  145.6550 C   0  0  2  0  0  3  0  0  0  0  0  0
  191.9300  175.6220  144.3460 C   0  0  0  0  0  3  0  0  0  0  0  0
  193.0800  176.2550  145.0330 C   0  0  0  0  0  0  0  0  0  0  0  0
  193.1260  176.5550  146.3520 C   0  0  0  0  0  0  0  0  0  0  0  0
  184.3180  178.2300  145.7640 Cl  0  0  0  0  0  0  0  0  0  0  0  0
  185.8430  176.6600  147.8000 F   0  0  0  0  0  0  0  0  0  0  0  0
  188.7550  177.1590  145.6440 C   0  0  0  0  0  0  0  0  0  0  0  0
  186.8250  178.2400  144.6400 C   0  0  0  0  0  0  0  0  0  0  0  0
  186.2800  178.9880  143.6030 O   0  0  0  0  0  1  0  0  0  0  0  0
  186.0270  177.8200  145.7140 C   0  0  0  0  0  0  0  0  0  0  0  0
  186.5990  177.0720  146.7520 C   0  0  0  0  0  0  0  0  0  0  0  0
  187.9580  176.7470  146.7160 C   0  0  0  0  0  3  0  0  0  0  0  0
  188.1830  177.9110  144.6080 C   0  0  0  0  0  3  0  0  0  0  0  0
  194.3200  176.4010  144.2100 C   0  0  0  0  0  2  0  0  0  0  0  0
  194.0420  176.0210  142.7670 C   0  0  0  0  0  2  0  0  0  0  0  0
  195.9540  176.4100  141.2630 C   0  0  2  0  0  3  0  0  0  0  0  0
  195.2790  175.3930  142.1600 C   0  0  1  0  0  3  0  0  0  0  0  0
  196.7560  175.7120  140.2750 N   0  0  0  0  0  1  0  0  0  0  0  0
  196.5070  176.1340  142.6450 C   0  0  0  0  0  2  0  0  0  0  0  0
  189.6240  175.0230  143.8430 C   0  0  0  0  0  2  0  0  0  0  0  0
  189.7290  175.3320  142.4230 N   0  0  0  0  0  2  0  0  0  0  0  0
  187.1220  175.0010  142.7560 O   0  0  0  0  0  0  0  0  0  0  0  0
  188.1770  175.0970  141.6890 S   0  0  0  0  0  0  0  0  0  0  0  0
  187.8640  176.2470  140.7710 O   0  0  0  0  0  0  0  0  0  0  0  0
  188.2050  173.5790  140.7540 C   0  0  2  0  0  3  0  0  0  0  0  0
  188.8600  172.5850  141.4810 O   0  0  0  0  0  1  0  0  0  0  0  0
  188.8760  173.7810  139.4350 C   0  0  0  0  0  0  0  0  0  0  0  0
  190.1320  173.7750  139.3480 O   0  0  0  0  0  1  0  0  0  0  0  0
  188.1080  174.0130  138.3030 O   0  0  0  0  0  0  0  0  0  0  0  0
  1  5  1  0  0  0  0
  4  2  2  0  0  0  0
  5 11  1  1  0  0  0
  5  4  1  0  0  0  0
  6  1  2  0  0  0  0
  6  7  1  0  0  0  0
  7  8  2  0  0  0  0
  8  3  1  0  0  0  0
  8  2  1  0  0  0  0
 11 16  1  0  0  0  0
 12 14  2  0  0  0  0
 13 12  1  0  0  0  0
 14  9  1  0  0  0  0
 14 15  1  0  0  0  0
 15 10  1  0  0  0  0
 16 15  2  0  0  0  0
 17 12  1  0  0  0  0
 17 11  2  0  0  0  0
 18  7  1  0  0  0  0
 19 18  1  0  0  0  0
 20 22  1  6  0  0  0
 20 21  1  0  0  0  0
 20 23  1  0  0  0  0
 21 23  1  0  0  0  0
 21 19  1  1  0  0  0
 24  1  1  0  0  0  0
 25 24  1  0  0  0  0
 27 25  1  0  0  0  0
 27 26  2  0  0  0  0
 28 27  2  0  0  0  0
 29 30  1  1  0  0  0
 29 27  1  0  0  0  0
 31 29  1  0  0  0  0
 32 31  1  0  0  0  0
 33 31  2  0  0  0  0
M  END
>  <MODEL>
6

>  <REMARK>
 VINA RESULT:      -6.9      1.917      2.473
  Name = 
  9 active torsions:
  status: ('A' for Active; 'I' for Inactive)
    1  A    between atoms: N_1  and  S_10
    2  A    between atoms: N_1  and  C_29
    3  A    between atoms: C_2  and  C_29
    4  A    between atoms: C_7  and  S_10
    5  A    between atoms: C_7  and  C_11
    6  A    between atoms: C_9  and  C_13
    7  A    between atoms: C_15  and  C_23
    8  A    between atoms: C_15  and  C_25
    9  A    between atoms: C_17  and  C_25
                            x       y       z     vdW  Elec       q    Type
                         _______ _______ _______ _____ _____    ______ ____

>  <TORSDO>
F 9

$$$$
=
 OpenBabel11062418543D

 33 35  0  0  1  0  0  0  0  0999 V2000
  189.6690  176.4280  143.7470 C   0  0  0  0  0  0  0  0  0  0  0  0
  191.7000  175.5410  145.8520 C   0  0  0  0  0  3  0  0  0  0  0  0
  190.8270  176.0490  148.0700 O   0  0  0  0  0  1  0  0  0  0  0  0
  191.5260  175.0510  144.6260 C   0  0  0  0  0  3  0  0  0  0  0  0
  190.1950  175.0320  143.9540 C   0  0  2  0  0  3  0  0  0  0  0  0
  189.3620  177.1930  144.7970 C   0  0  0  0  0  3  0  0  0  0  0  0
  189.6000  176.8710  146.2240 C   0  0  0  0  0  0  0  0  0  0  0  0
  190.6550  176.1660  146.6940 C   0  0  0  0  0  0  0  0  0  0  0  0
  190.0390  171.6400  138.9250 Cl  0  0  0  0  0  0  0  0  0  0  0  0
  187.7080  172.6490  140.5020 F   0  0  0  0  0  0  0  0  0  0  0  0
  190.1830  174.1680  142.7240 C   0  0  0  0  0  0  0  0  0  0  0  0
  191.3330  173.0000  140.9310 C   0  0  0  0  0  0  0  0  0  0  0  0
  192.5250  172.6230  140.3220 O   0  0  0  0  0  1  0  0  0  0  0  0
  190.1000  172.6130  140.3870 C   0  0  0  0  0  0  0  0  0  0  0  0
  188.9100  173.0100  141.0150 C   0  0  0  0  0  0  0  0  0  0  0  0
  188.9560  173.7870  142.1760 C   0  0  0  0  0  3  0  0  0  0  0  0
  191.3730  173.7740  142.0930 C   0  0  0  0  0  3  0  0  0  0  0  0
  188.6780  177.5350  147.1960 C   0  0  0  0  0  2  0  0  0  0  0  0
  187.2570  177.0360  147.0000 C   0  0  0  0  0  2  0  0  0  0  0  0
  184.9790  177.9740  146.9870 C   0  0  2  0  0  3  0  0  0  0  0  0
  186.3920  178.1620  146.4740 C   0  0  1  0  0  3  0  0  0  0  0  0
  184.0570  178.6520  146.0940 N   0  0  0  0  0  1  0  0  0  0  0  0
  185.8910  178.9940  147.6350 C   0  0  0  0  0  2  0  0  0  0  0  0
  189.3860  176.9610  142.3740 C   0  0  0  0  0  2  0  0  0  0  0  0
  188.4010  178.0340  142.4290 N   0  0  0  0  0  2  0  0  0  0  0  0
  187.0590  176.9480  140.4210 O   0  0  0  0  0  0  0  0  0  0  0  0
  186.8900  177.4310  141.8350 S   0  0  0  0  0  0  0  0  0  0  0  0
  186.4130  176.2970  142.7020 O   0  0  0  0  0  0  0  0  0  0  0  0
  185.6900  178.7490  141.8650 C   0  0  2  0  0  3  0  0  0  0  0  0
  185.6510  179.3280  143.1350 O   0  0  0  0  0  1  0  0  0  0  0  0
  184.3360  178.2430  141.4870 C   0  0  0  0  0  0  0  0  0  0  0  0
  183.5020  177.9230  142.3750 O   0  0  0  0  0  1  0  0  0  0  0  0
  184.0100  178.0920  140.1470 O   0  0  0  0  0  0  0  0  0  0  0  0
  1  5  1  0  0  0  0
  1  6  2  0  0  0  0
  2  8  1  0  0  0  0
  4  2  2  0  0  0  0
  5 11  1  6  0  0  0
  5  4  1  0  0  0  0
  6  7  1  0  0  0  0
  7  8  2  0  0  0  0
  7 18  1  0  0  0  0
  8  3  1  0  0  0  0
  9 14  1  0  0  0  0
 10 15  1  0  0  0  0
 12 17  1  0  0  0  0
 13 12  1  0  0  0  0
 14 12  2  0  0  0  0
 14 15  1  0  0  0  0
 15 16  2  0  0  0  0
 16 11  1  0  0  0  0
 17 11  2  0  0  0  0
 19 18  1  0  0  0  0
 20 22  1  6  0  0  0
 20 23  1  0  0  0  0
 21 20  1  0  0  0  0
 21 19  1  1  0  0  0
 21 23  1  0  0  0  0
 24 25  1  0  0  0  0
 24  1  1  0  0  0  0
 26 27  2  0  0  0  0
 27 29  1  0  0  0  0
 27 25  1  0  0  0  0
 27 28  2  0  0  0  0
 29 30  1  1  0  0  0
 31 29  1  0  0  0  0
 31 32  1  0  0  0  0
 33 31  2  0  0  0  0
M  END
>  <MODEL>
7

>  <REMARK>
 VINA RESULT:      -6.8      3.900      6.734
  Name = 
  9 active torsions:
  status: ('A' for Active; 'I' for Inactive)
    1  A    between atoms: N_1  and  S_10
    2  A    between atoms: N_1  and  C_29
    3  A    between atoms: C_2  and  C_29
    4  A    between atoms: C_7  and  S_10
    5  A    between atoms: C_7  and  C_11
    6  A    between atoms: C_9  and  C_13
    7  A    between atoms: C_15  and  C_23
    8  A    between atoms: C_15  and  C_25
    9  A    between atoms: C_17  and  C_25
                            x       y       z     vdW  Elec       q    Type
                         _______ _______ _______ _____ _____    ______ ____

>  <TORSDO>
F 9

$$$$
=
 OpenBabel11062418543D

 33 35  0  0  1  0  0  0  0  0999 V2000
  189.5690  176.0490  144.2580 C   0  0  0  0  0  0  0  0  0  0  0  0
  188.6470  175.2970  147.0730 C   0  0  0  0  0  3  0  0  0  0  0  0
  186.6790  176.6150  147.6490 O   0  0  0  0  0  1  0  0  0  0  0  0
  189.3190  174.5440  146.2050 C   0  0  0  0  0  3  0  0  0  0  0  0
  189.1510  174.6810  144.7300 C   0  0  2  0  0  3  0  0  0  0  0  0
  188.8900  177.1310  144.6470 C   0  0  0  0  0  3  0  0  0  0  0  0
  187.7880  177.1730  145.6370 C   0  0  0  0  0  0  0  0  0  0  0  0
  187.6990  176.3810  146.7300 C   0  0  0  0  0  0  0  0  0  0  0  0
  191.6130  169.9750  141.7940 Cl  0  0  0  0  0  0  0  0  0  0  0  0
  192.1080  170.8040  144.6230 F   0  0  0  0  0  0  0  0  0  0  0  0
  189.7690  173.5390  143.9720 C   0  0  0  0  0  0  0  0  0  0  0  0
  189.9940  172.1880  141.9650 C   0  0  0  0  0  0  0  0  0  0  0  0
  189.6430  171.9470  140.6420 O   0  0  0  0  0  1  0  0  0  0  0  0
  190.9000  171.3480  142.6280 C   0  0  0  0  0  0  0  0  0  0  0  0
  191.2360  171.6070  143.9650 C   0  0  0  0  0  0  0  0  0  0  0  0
  190.6680  172.6960  144.6320 C   0  0  0  0  0  3  0  0  0  0  0  0
  189.4310  173.2770  142.6360 C   0  0  0  0  0  3  0  0  0  0  0  0
  186.8170  178.2970  145.4710 C   0  0  0  0  0  2  0  0  0  0  0  0
  186.6850  178.6670  144.0040 C   0  0  0  0  0  2  0  0  0  0  0  0
  185.4100  178.2860  141.9320 C   0  0  2  0  0  3  0  0  0  0  0  0
  185.4770  177.9730  143.4120 C   0  0  1  0  0  3  0  0  0  0  0  0
  184.0390  178.1330  141.4770 N   0  0  0  0  0  1  0  0  0  0  0  0
  185.9360  176.9450  142.3990 C   0  0  0  0  0  2  0  0  0  0  0  0
  190.6870  176.2280  143.2740 C   0  0  0  0  0  2  0  0  0  0  0  0
  191.8800  176.7420  143.9340 N   0  0  0  0  0  2  0  0  0  0  0  0
  192.7550  174.5960  142.6530 O   0  0  0  0  0  0  0  0  0  0  0  0
  193.1990  175.6660  143.6110 S   0  0  0  0  0  0  0  0  0  0  0  0
  194.3510  176.4300  143.0170 O   0  0  0  0  0  0  0  0  0  0  0  0
  193.7130  174.9070  145.1400 C   0  0  2  0  0  3  0  0  0  0  0  0
  192.7010  175.0280  146.0940 O   0  0  0  0  0  1  0  0  0  0  0  0
  194.9730  175.5300  145.6440 C   0  0  0  0  0  0  0  0  0  0  0  0
  196.0640  174.9020  145.5890 O   0  0  0  0  0  0  0  0  0  0  0  0
  194.9350  176.7960  146.2100 O   0  0  0  0  0  1  0  0  0  0  0  0
  1  6  2  0  0  0  0
  1  5  1  0  0  0  0
  4  2  2  0  0  0  0
  5 11  1  6  0  0  0
  5  4  1  0  0  0  0
  6  7  1  0  0  0  0
  7  8  2  0  0  0  0
  8  2  1  0  0  0  0
  8  3  1  0  0  0  0
  9 14  1  0  0  0  0
 11 16  1  0  0  0  0
 12 14  2  0  0  0  0
 12 17  1  0  0  0  0
 13 12  1  0  0  0  0
 14 15  1  0  0  0  0
 15 10  1  0  0  0  0
 15 16  2  0  0  0  0
 17 11  2  0  0  0  0
 18  7  1  0  0  0  0
 19 18  1  0  0  0  0
 20 22  1  6  0  0  0
 20 23  1  0  0  0  0
 20 21  1  0  0  0  0
 21 19  1  1  0  0  0
 23 21  1  0  0  0  0
 24 25  1  0  0  0  0
 24  1  1  0  0  0  0
 26 27  2  0  0  0  0
 27 25  1  0  0  0  0
 27 29  1  0  0  0  0
 28 27  2  0  0  0  0
 29 31  1  0  0  0  0
 29 30  1  1  0  0  0
 31 33  1  0  0  0  0
 32 31  2  0  0  0  0
M  END
>  <MODEL>
8

>  <REMARK>
 VINA RESULT:      -6.8      3.887      7.654
  Name = 
  9 active torsions:
  status: ('A' for Active; 'I' for Inactive)
    1  A    between atoms: N_1  and  S_10
    2  A    between atoms: N_1  and  C_29
    3  A    between atoms: C_2  and  C_29
    4  A    between atoms: C_7  and  S_10
    5  A    between atoms: C_7  and  C_11
    6  A    between atoms: C_9  and  C_13
    7  A    between atoms: C_15  and  C_23
    8  A    between atoms: C_15  and  C_25
    9  A    between atoms: C_17  and  C_25
                            x       y       z     vdW  Elec       q    Type
                         _______ _______ _______ _____ _____    ______ ____

>  <TORSDO>
F 9

$$$$
=
 OpenBabel11062418543D

 33 35  0  0  1  0  0  0  0  0999 V2000
  190.5560  176.0730  144.0750 C   0  0  0  0  0  0  0  0  0  0  0  0
  192.5440  176.1670  146.3940 C   0  0  0  0  0  3  0  0  0  0  0  0
  191.3750  176.8380  148.4240 O   0  0  0  0  0  1  0  0  0  0  0  0
  192.6110  175.4250  145.2900 C   0  0  0  0  0  3  0  0  0  0  0  0
  191.3930  174.9290  144.5850 C   0  0  2  0  0  3  0  0  0  0  0  0
  189.9740  176.9150  144.9310 C   0  0  0  0  0  3  0  0  0  0  0  0
  190.1540  176.9430  146.4020 C   0  0  0  0  0  0  0  0  0  0  0  0
  191.3050  176.6430  147.0470 C   0  0  0  0  0  0  0  0  0  0  0  0
  192.8170  170.6620  140.5140 Cl  0  0  0  0  0  0  0  0  0  0  0  0
  194.4450  173.0490  141.2790 F   0  0  0  0  0  0  0  0  0  0  0  0
  191.7090  173.8760  143.5610 C   0  0  0  0  0  0  0  0  0  0  0  0
  191.1690  171.8220  142.3810 C   0  0  0  0  0  0  0  0  0  0  0  0
  190.2880  170.7710  142.1540 O   0  0  0  0  0  1  0  0  0  0  0  0
  192.3860  171.8970  141.6880 C   0  0  0  0  0  0  0  0  0  0  0  0
  193.2630  172.9620  141.9380 C   0  0  0  0  0  0  0  0  0  0  0  0
  192.9240  173.9440  142.8730 C   0  0  0  0  0  3  0  0  0  0  0  0
  190.8350  172.8070  143.3140 C   0  0  0  0  0  3  0  0  0  0  0  0
  189.0110  177.5130  147.1790 C   0  0  0  0  0  2  0  0  0  0  0  0
  187.7060  176.8680  146.7470 C   0  0  0  0  0  2  0  0  0  0  0  0
  185.2750  177.2540  146.6690 C   0  0  2  0  0  3  0  0  0  0  0  0
  186.6310  177.9270  146.6290 C   0  0  1  0  0  3  0  0  0  0  0  0
  184.3010  178.1100  146.0150 N   0  0  0  0  0  1  0  0  0  0  0  0
  185.8100  177.9530  147.9000 C   0  0  0  0  0  2  0  0  0  0  0  0
  190.2750  176.2430  142.6110 C   0  0  0  0  0  2  0  0  0  0  0  0
  188.9520  175.7320  142.2760 N   0  0  0  0  0  2  0  0  0  0  0  0
  188.7980  178.2960  141.6300 O   0  0  0  0  0  0  0  0  0  0  0  0
  187.9550  177.0600  141.7810 S   0  0  0  0  0  0  0  0  0  0  0  0
  187.2880  176.7410  140.4700 O   0  0  0  0  0  0  0  0  0  0  0  0
  186.7130  177.3450  143.0270 C   0  0  2  0  0  3  0  0  0  0  0  0
  185.9050  176.2150  143.1610 O   0  0  0  0  0  1  0  0  0  0  0  0
  185.8790  178.5360  142.6830 C   0  0  0  0  0  0  0  0  0  0  0  0
  185.9020  179.5650  143.4110 O   0  0  0  0  0  1  0  0  0  0  0  0
  185.0480  178.4950  141.5730 O   0  0  0  0  0  0  0  0  0  0  0  0
  1  5  1  0  0  0  0
  1  6  2  0  0  0  0
  2  8  1  0  0  0  0
  4  2  2  0  0  0  0
  5 11  1  6  0  0  0
  5  4  1  0  0  0  0
  6  7  1  0  0  0  0
  7  8  2  0  0  0  0
  7 18  1  0  0  0  0
  8  3  1  0  0  0  0
  9 14  1  0  0  0  0
 10 15  1  0  0  0  0
 12 17  2  0  0  0  0
 13 12  1  0  0  0  0
 14 15  2  0  0  0  0
 14 12  1  0  0  0  0
 15 16  1  0  0  0  0
 16 11  2  0  0  0  0
 17 11  1  0  0  0  0
 19 18  1  0  0  0  0
 20 22  1  6  0  0  0
 20 23  1  0  0  0  0
 21 20  1  0  0  0  0
 21 19  1  1  0  0  0
 21 23  1  0  0  0  0
 24  1  1  0  0  0  0
 25 24  1  0  0  0  0
 26 27  2  0  0  0  0
 27 25  1  0  0  0  0
 27 29  1  0  0  0  0
 28 27  2  0  0  0  0
 29 30  1  6  0  0  0
 31 29  1  0  0  0  0
 31 32  1  0  0  0  0
 33 31  2  0  0  0  0
M  END
>  <MODEL>
9

>  <REMARK>
 VINA RESULT:      -6.7      3.907      6.808
  Name = 
  9 active torsions:
  status: ('A' for Active; 'I' for Inactive)
    1  A    between atoms: N_1  and  S_10
    2  A    between atoms: N_1  and  C_29
    3  A    between atoms: C_2  and  C_29
    4  A    between atoms: C_7  and  S_10
    5  A    between atoms: C_7  and  C_11
    6  A    between atoms: C_9  and  C_13
    7  A    between atoms: C_15  and  C_23
    8  A    between atoms: C_15  and  C_25
    9  A    between atoms: C_17  and  C_25
                            x       y       z     vdW  Elec       q    Type
                         _______ _______ _______ _____ _____    ______ ____

>  <TORSDO>
F 9

$$$$
