=
 OpenBabel11062423033D

 62 68  0  0  1  0  0  0  0  0999 V2000
  193.3390  175.4100  142.7890 N   0  0  0  0  0  0  0  0  0  0  0  0
  192.2210  174.6000  142.3370 C   0  0  0  0  0  2  0  0  0  0  0  0
  193.4480  175.8650  144.0060 C   0  0  0  0  0  0  0  0  0  0  0  0
  190.8480  176.1350  147.5590 C   0  0  0  0  0  3  0  0  0  0  0  0
  192.9750  175.3900  146.4390 C   0  0  0  0  0  2  0  0  0  0  0  0
  194.5910  176.6520  144.3670 N   0  0  0  0  0  2  0  0  0  0  0  0
  189.3330  174.8350  146.0490 C   0  0  0  0  0  2  0  0  0  0  0  0
  189.9760  174.8010  144.6530 C   0  0  2  0  0  3  0  0  0  0  0  0
  191.4470  174.3730  144.6960 C   0  0  2  0  0  3  0  0  0  0  0  0
  191.9250  175.0930  147.5120 C   0  0  0  0  0  2  0  0  0  0  0  0
  189.6900  176.0430  146.8900 C   0  0  0  0  0  0  0  0  0  0  0  0
  192.3750  175.5700  145.0450 C   0  0  2  0  0  3  0  0  0  0  0  0
  191.8860  173.6180  143.4350 C   0  0  1  0  0  3  0  0  0  0  0  0
  196.1550  175.5080  142.9650 C   0  0  0  0  0  0  0  0  0  0  0  0
  196.3530  174.5140  142.1360 C   0  0  0  0  0  3  0  0  0  0  0  0
  195.8950  176.4780  143.8020 C   0  0  0  0  0  3  0  0  0  0  0  0
  196.9270  174.7020  140.7890 C   0  0  0  0  0  0  0  0  0  0  0  0
  197.7500  175.6340  140.5720 O   0  0  0  0  0  0  0  0  0  0  0  0
  196.5510  173.7950  139.6500 C   0  0  2  0  0  3  0  0  0  0  0  0
  197.7200  173.4320  138.7450 C   0  0  0  0  0  1  0  0  0  0  0  0
  194.4560  174.9140  139.5180 O   0  0  0  0  0  0  0  0  0  0  0  0
  195.3620  174.3020  138.8890 C   0  0  0  0  0  0  0  0  0  0  0  0
  195.2380  174.1130  137.4640 N   0  0  0  0  0  0  0  0  0  0  0  0
  194.2340  175.8840  136.0530 C   0  0  0  0  0  3  0  0  0  0  0  0
  196.7840  176.7820  135.3410 C   0  0  0  0  0  3  0  0  0  0  0  0
  195.3680  175.2360  136.5730 C   0  0  0  0  0  0  0  0  0  0  0  0
  194.3770  176.9730  135.1870 C   0  0  0  0  0  3  0  0  0  0  0  0
  195.6510  177.4220  134.8320 C   0  0  0  0  0  3  0  0  0  0  0  0
  196.6410  175.6930  136.2060 C   0  0  0  0  0  3  0  0  0  0  0  0
  195.1610  172.8420  136.9170 O   0  0  0  0  0  0  0  0  0  0  0  0
  194.6730  170.5880  137.6130 C   0  0  0  0  0  3  0  0  0  0  0  0
  193.7850  169.5930  138.0260 C   0  0  0  0  0  0  0  0  0  0  0  0
  192.3980  169.8980  138.1430 C   0  0  0  0  0  0  0  0  0  0  0  0
  191.9640  171.1950  137.8340 C   0  0  0  0  0  3  0  0  0  0  0  0
  192.8680  172.1780  137.4270 C   0  0  0  0  0  3  0  0  0  0  0  0
  194.3650  168.2480  138.3220 C   0  0  0  0  0  1  0  0  0  0  0  0
  194.2310  171.8800  137.3230 C   0  0  0  0  0  0  0  0  0  0  0  0
  190.4080  168.4310  137.7260 C   0  0  0  0  0  1  0  0  0  0  0  0
  191.4160  168.9900  138.5560 O   0  0  0  0  0  0  0  0  0  0  0  0
  190.9300  172.6940  142.9970 O   0  0  0  0  0  0  0  0  0  0  0  0
  190.6780  170.8080  141.5280 C   0  0  0  0  0  2  0  0  0  0  0  0
  191.6190  171.8430  142.1230 C   0  0  2  0  0  3  0  0  0  0  0  0
  192.1320  169.6860  143.0480 N   0  0  0  0  0  0  0  0  0  0  0  0
  192.6430  171.0450  142.9040 C   0  0  0  0  0  2  0  0  0  0  0  0
  193.2720  168.8000  142.9140 C   0  0  0  0  0  1  0  0  0  0  0  0
  191.2720  169.4710  141.8910 C   0  0  0  0  0  2  0  0  0  0  0  0
  189.8030  176.0090  143.9620 O   0  0  0  0  0  0  0  0  0  0  0  0
  188.8040  175.7570  143.0210 C   0  0  0  0  0  2  0  0  0  0  0  0
  188.9470  176.7340  141.8740 C   0  0  0  0  0  3  0  0  0  0  0  0
  189.4840  178.0430  142.4110 C   0  0  0  0  0  2  0  0  0  0  0  0
  188.0110  177.9060  142.0960 C   0  0  0  0  0  2  0  0  0  0  0  0
  188.6780  177.1350  147.0890 C   0  0  0  0  0  2  0  0  0  0  0  0
  187.8860  177.4090  145.8210 C   0  0  0  0  0  2  0  0  0  0  0  0
  184.2140  178.6640  145.9800 C   0  0  0  0  0  2  0  0  0  0  0  0
  185.7850  177.0860  147.2250 C   0  0  0  0  0  2  0  0  0  0  0  0
  185.4980  176.3510  143.8130 O   0  0  0  0  0  0  0  0  0  0  0  0
  185.0880  178.4540  147.2230 C   0  0  1  0  0  3  0  0  0  0  0  0
  186.5070  176.7570  145.9100 C   0  0  1  0  0  3  0  0  0  0  0  0
  185.0100  178.4760  144.6920 C   0  0  0  0  0  2  0  0  0  0  0  0
  185.6620  177.1340  144.7290 C   0  0  0  0  0  0  0  0  0  0  0  0
  186.0100  179.4950  147.3490 O   0  0  0  0  0  0  0  0  0  0  0  0
  186.6030  179.2680  148.5050 O   0  0  0  0  0  1  0  0  0  0  0  0
  1  3  2  0  0  0  0
  2  1  1  0  0  0  0
  2 13  1  0  0  0  0
  3  6  1  0  0  0  0
  3 12  1  0  0  0  0
  5 10  1  0  0  0  0
  7 11  1  0  0  0  0
  8 47  1  1  0  0  0
  8  9  1  0  0  0  0
  8  7  1  0  0  0  0
  9 12  1  0  0  0  0
 10  4  1  0  0  0  0
 11 52  1  0  0  0  0
 11  4  2  0  0  0  0
 12  5  1  0  0  0  0
 13  9  1  0  0  0  0
 14 16  2  0  0  0  0
 15 14  2  0  0  0  0
 16  6  1  0  0  0  0
 17 15  1  0  0  0  0
 18 17  2  0  0  0  0
 19 17  1  0  0  0  0
 20 19  1  0  0  0  0
 22 21  2  0  0  0  0
 22 19  1  0  0  0  0
 23 22  1  0  0  0  0
 24 26  1  0  0  0  0
 25 29  1  0  0  0  0
 26 23  1  0  0  0  0
 27 24  2  0  0  0  0
 28 27  1  0  0  0  0
 28 25  2  0  0  0  0
 29 26  2  0  0  0  0
 30 37  1  0  0  0  0
 30 23  1  0  0  0  0
 31 32  1  0  0  0  0
 32 33  2  0  0  0  0
 32 36  1  0  0  0  0
 33 39  1  0  0  0  0
 34 33  1  0  0  0  0
 35 34  2  0  0  0  0
 37 35  1  0  0  0  0
 37 31  2  0  0  0  0
 38 39  1  0  0  0  0
 40 13  1  0  0  0  0
 41 46  1  0  0  0  0
 41 42  1  0  0  0  0
 42 44  1  0  0  0  0
 42 40  1  0  0  0  0
 44 43  1  0  0  0  0
 45 43  1  0  0  0  0
 46 43  1  0  0  0  0
 48 47  1  0  0  0  0
 49 51  1  0  0  0  0
 49 50  1  0  0  0  0
 49 48  1  0  0  0  0
 51 50  1  0  0  0  0
 53 58  1  0  0  0  0
 53 52  1  0  0  0  0
 54 57  1  0  0  0  0
 56 60  2  0  0  0  0
 57 55  1  0  0  0  0
 57 61  1  0  0  0  0
 58 55  1  0  0  0  0
 59 60  1  0  0  0  0
 59 54  1  0  0  0  0
 60 58  1  0  0  0  0
 61 62  1  0  0  0  0
M  END
>  <MODEL>
1

>  <REMARK>
 VINA RESULT:      -7.6      0.000      0.000
  Name = 
  17 active torsions:
  status: ('A' for Active; 'I' for Inactive)
    1  A    between atoms: O_2  and  C_28
    2  A    between atoms: C_7  and  C_45
    3  A    between atoms: C_7  and  C_57
    4  A    between atoms: C_13  and  C_21
    5  A    between atoms: O_14  and  C_21
    6  A    between atoms: O_14  and  C_34
    7  A    between atoms: O_15  and  C_23
    8  A    between atoms: O_15  and  C_54
    9  A    between atoms: C_17  and  C_24
   10  A    between atoms: C_17  and  C_50
   11  A    between atoms: N_20  and  C_53
   12  A    between atoms: C_29  and  N_43
   13  A    between atoms: O_32  and  N_43
   14  A    between atoms: O_32  and  C_61
   15  A    between atoms: C_33  and  C_50
   16  A    between atoms: O_37  and  C_48
   17  A    between atoms: C_46  and  C_57
                            x       y       z     vdW  Elec       q    Type
                         _______ _______ _______ _____ _____    ______ ____

>  <TORSDO>
F 17

$$$$
=
 OpenBabel11062423033D

 62 68  0  0  1  0  0  0  0  0999 V2000
  193.0850  175.5440  142.7560 N   0  0  0  0  0  0  0  0  0  0  0  0
  191.9420  174.8040  142.2490 C   0  0  0  0  0  2  0  0  0  0  0  0
  193.1710  175.9730  143.9840 C   0  0  0  0  0  0  0  0  0  0  0  0
  190.4540  176.3310  147.4420 C   0  0  0  0  0  3  0  0  0  0  0  0
  192.5790  175.4880  146.3890 C   0  0  0  0  0  2  0  0  0  0  0  0
  194.3400  176.6900  144.4020 N   0  0  0  0  0  2  0  0  0  0  0  0
  188.9300  175.1400  145.8520 C   0  0  0  0  0  2  0  0  0  0  0  0
  189.6240  175.0920  144.4810 C   0  0  2  0  0  3  0  0  0  0  0  0
  191.0670  174.5840  144.5720 C   0  0  2  0  0  3  0  0  0  0  0  0
  191.4740  175.2330  147.4170 C   0  0  0  0  0  2  0  0  0  0  0  0
  189.3190  176.3140  146.7280 C   0  0  0  0  0  0  0  0  0  0  0  0
  192.0440  175.7220  144.9770 C   0  0  2  0  0  3  0  0  0  0  0  0
  191.5120  173.8240  143.3160 C   0  0  1  0  0  3  0  0  0  0  0  0
  195.9920  175.2980  143.3750 C   0  0  0  0  0  0  0  0  0  0  0  0
  196.2700  174.1160  142.8830 C   0  0  0  0  0  3  0  0  0  0  0  0
  195.6540  176.4540  143.8830 C   0  0  0  0  0  3  0  0  0  0  0  0
  196.8240  173.9280  141.5280 C   0  0  0  0  0  0  0  0  0  0  0  0
  197.9410  174.4310  141.2220 O   0  0  0  0  0  0  0  0  0  0  0  0
  196.0830  173.1360  140.4870 C   0  0  2  0  0  3  0  0  0  0  0  0
  196.8780  171.9660  139.9260 C   0  0  0  0  0  1  0  0  0  0  0  0
  195.1250  175.1750  139.7230 O   0  0  0  0  0  0  0  0  0  0  0  0
  195.5020  174.0110  139.4160 C   0  0  0  0  0  0  0  0  0  0  0  0
  195.3740  173.5560  138.0530 N   0  0  0  0  0  0  0  0  0  0  0  0
  196.8690  173.2780  136.0970 C   0  0  0  0  0  3  0  0  0  0  0  0
  197.2220  176.0480  135.9560 C   0  0  0  0  0  3  0  0  0  0  0  0
  196.2170  174.1080  137.0260 C   0  0  0  0  0  0  0  0  0  0  0  0
  197.6870  173.8310  135.1060 C   0  0  0  0  0  3  0  0  0  0  0  0
  197.8630  175.2150  135.0360 C   0  0  0  0  0  3  0  0  0  0  0  0
  196.4050  175.4950  136.9470 C   0  0  0  0  0  3  0  0  0  0  0  0
  194.5680  172.4740  137.7340 O   0  0  0  0  0  0  0  0  0  0  0  0
  192.4550  171.3210  137.8300 C   0  0  0  0  0  3  0  0  0  0  0  0
  191.0590  171.3110  137.8610 C   0  0  0  0  0  0  0  0  0  0  0  0
  190.3490  172.5450  137.8060 C   0  0  0  0  0  0  0  0  0  0  0  0
  191.0790  173.7400  137.7190 C   0  0  0  0  0  3  0  0  0  0  0  0
  192.4740  173.7300  137.6940 C   0  0  0  0  0  3  0  0  0  0  0  0
  190.3940  169.9760  137.9500 C   0  0  0  0  0  1  0  0  0  0  0  0
  193.1700  172.5180  137.7590 C   0  0  0  0  0  0  0  0  0  0  0  0
  188.2340  173.8100  138.2660 C   0  0  0  0  0  1  0  0  0  0  0  0
  188.9550  172.6630  137.8390 O   0  0  0  0  0  0  0  0  0  0  0  0
  190.5240  172.9620  142.8260 O   0  0  0  0  0  0  0  0  0  0  0  0
  190.2840  170.9730  141.4970 C   0  0  0  0  0  2  0  0  0  0  0  0
  191.1940  172.1070  141.9410 C   0  0  2  0  0  3  0  0  0  0  0  0
  191.9490  170.0540  142.9340 N   0  0  0  0  0  0  0  0  0  0  0  0
  192.3420  171.4340  142.6650 C   0  0  0  0  0  2  0  0  0  0  0  0
  193.1360  169.2430  142.7440 C   0  0  0  0  0  1  0  0  0  0  0  0
  191.0070  169.7060  141.8790 C   0  0  0  0  0  2  0  0  0  0  0  0
  189.5440  176.3190  143.8060 O   0  0  0  0  0  0  0  0  0  0  0  0
  188.5730  176.1350  142.8200 C   0  0  0  0  0  2  0  0  0  0  0  0
  188.8250  177.1090  141.6900 C   0  0  0  0  0  3  0  0  0  0  0  0
  189.1820  178.4570  142.2780 C   0  0  0  0  0  2  0  0  0  0  0  0
  187.7880  178.2150  141.7440 C   0  0  0  0  0  2  0  0  0  0  0  0
  188.3620  177.4570  146.9070 C   0  0  0  0  0  2  0  0  0  0  0  0
  187.5340  177.7020  145.6570 C   0  0  0  0  0  2  0  0  0  0  0  0
  183.7730  178.6520  145.8470 C   0  0  0  0  0  2  0  0  0  0  0  0
  185.8790  179.2990  144.5600 C   0  0  0  0  0  2  0  0  0  0  0  0
  186.2340  179.5770  148.0340 O   0  0  0  0  0  0  0  0  0  0  0  0
  184.5470  178.5350  144.5280 C   0  0  1  0  0  3  0  0  0  0  0  0
  186.7360  178.9970  145.7990 C   0  0  1  0  0  3  0  0  0  0  0  0
  184.6130  178.1980  147.0370 C   0  0  0  0  0  2  0  0  0  0  0  0
  185.8910  178.9690  147.0380 C   0  0  0  0  0  0  0  0  0  0  0  0
  184.7390  177.1930  144.1960 O   0  0  0  0  0  0  0  0  0  0  0  0
  185.1460  177.2210  142.9420 O   0  0  0  0  0  1  0  0  0  0  0  0
  1  3  2  0  0  0  0
  2  1  1  0  0  0  0
  2 13  1  0  0  0  0
  3  6  1  0  0  0  0
  3 12  1  0  0  0  0
  5 10  1  0  0  0  0
  7 11  1  0  0  0  0
  8 47  1  1  0  0  0
  8  9  1  0  0  0  0
  8  7  1  0  0  0  0
  9 12  1  0  0  0  0
 10  4  1  0  0  0  0
 11 52  1  0  0  0  0
 11  4  2  0  0  0  0
 12  5  1  0  0  0  0
 13  9  1  0  0  0  0
 14 16  2  0  0  0  0
 15 14  2  0  0  0  0
 16  6  1  0  0  0  0
 17 15  1  0  0  0  0
 18 17  2  0  0  0  0
 19 17  1  0  0  0  0
 20 19  1  0  0  0  0
 22 21  2  0  0  0  0
 22 19  1  0  0  0  0
 23 22  1  0  0  0  0
 24 26  1  0  0  0  0
 25 29  1  0  0  0  0
 26 23  1  0  0  0  0
 27 24  2  0  0  0  0
 28 27  1  0  0  0  0
 28 25  2  0  0  0  0
 29 26  2  0  0  0  0
 30 37  1  0  0  0  0
 30 23  1  0  0  0  0
 31 32  1  0  0  0  0
 32 36  1  0  0  0  0
 33 39  1  0  0  0  0
 33 32  2  0  0  0  0
 34 33  1  0  0  0  0
 35 34  2  0  0  0  0
 35 37  1  0  0  0  0
 37 31  2  0  0  0  0
 39 38  1  0  0  0  0
 40 13  1  0  0  0  0
 41 46  1  0  0  0  0
 41 42  1  0  0  0  0
 42 44  1  0  0  0  0
 42 40  1  0  0  0  0
 44 43  1  0  0  0  0
 45 43  1  0  0  0  0
 46 43  1  0  0  0  0
 48 47  1  0  0  0  0
 49 51  1  0  0  0  0
 49 50  1  0  0  0  0
 49 48  1  0  0  0  0
 51 50  1  0  0  0  0
 53 58  1  0  0  0  0
 53 52  1  0  0  0  0
 54 59  1  0  0  0  0
 55 58  1  0  0  0  0
 57 55  1  0  0  0  0
 57 54  1  0  0  0  0
 58 60  1  0  0  0  0
 59 60  1  0  0  0  0
 60 56  2  0  0  0  0
 61 57  1  0  0  0  0
 62 61  1  0  0  0  0
M  END
>  <MODEL>
2

>  <REMARK>
 VINA RESULT:      -7.4      1.291      2.201
  Name = 
  17 active torsions:
  status: ('A' for Active; 'I' for Inactive)
    1  A    between atoms: O_2  and  C_28
    2  A    between atoms: C_7  and  C_45
    3  A    between atoms: C_7  and  C_57
    4  A    between atoms: C_13  and  C_21
    5  A    between atoms: O_14  and  C_21
    6  A    between atoms: O_14  and  C_34
    7  A    between atoms: O_15  and  C_23
    8  A    between atoms: O_15  and  C_54
    9  A    between atoms: C_17  and  C_24
   10  A    between atoms: C_17  and  C_50
   11  A    between atoms: N_20  and  C_53
   12  A    between atoms: C_29  and  N_43
   13  A    between atoms: O_32  and  N_43
   14  A    between atoms: O_32  and  C_61
   15  A    between atoms: C_33  and  C_50
   16  A    between atoms: O_37  and  C_48
   17  A    between atoms: C_46  and  C_57
                            x       y       z     vdW  Elec       q    Type
                         _______ _______ _______ _____ _____    ______ ____

>  <TORSDO>
F 17

$$$$
=
 OpenBabel11062423033D

 62 68  0  0  1  0  0  0  0  0999 V2000
  190.7920  171.5920  140.1930 N   0  0  0  0  0  0  0  0  0  0  0  0
  190.0030  172.0550  139.0650 C   0  0  0  0  0  2  0  0  0  0  0  0
  192.0110  171.9910  140.4250 C   0  0  0  0  0  0  0  0  0  0  0  0
  195.0900  174.2860  138.2530 C   0  0  0  0  0  3  0  0  0  0  0  0
  193.6170  173.9310  140.2630 C   0  0  0  0  0  2  0  0  0  0  0  0
  192.7150  171.4870  141.5690 N   0  0  0  0  0  2  0  0  0  0  0  0
  193.2000  174.5070  136.6270 C   0  0  0  0  0  2  0  0  0  0  0  0
  192.0600  173.5910  137.1020 C   0  0  2  0  0  3  0  0  0  0  0  0
  191.7280  173.7900  138.5850 C   0  0  2  0  0  3  0  0  0  0  0  0
  194.3240  174.9450  139.3610 C   0  0  0  0  0  2  0  0  0  0  0  0
  194.5910  174.0620  137.0290 C   0  0  0  0  0  0  0  0  0  0  0  0
  192.6950  172.9850  139.4960 C   0  0  2  0  0  3  0  0  0  0  0  0
  190.2490  173.5380  138.9030 C   0  0  1  0  0  3  0  0  0  0  0  0
  191.8200  172.0180  143.7220 C   0  0  0  0  0  0  0  0  0  0  0  0
  191.5870  172.9570  144.6050 C   0  0  0  0  0  3  0  0  0  0  0  0
  192.0850  171.1270  142.8030 C   0  0  0  0  0  3  0  0  0  0  0  0
  190.2500  173.1890  145.1860 C   0  0  0  0  0  0  0  0  0  0  0  0
  189.3860  172.2690  145.1850 O   0  0  0  0  0  0  0  0  0  0  0  0
  189.8860  174.5160  145.7930 C   0  0  2  0  0  3  0  0  0  0  0  0
  189.1180  174.4010  147.1020 C   0  0  0  0  0  1  0  0  0  0  0  0
  188.6370  174.9180  143.8080 O   0  0  0  0  0  0  0  0  0  0  0  0
  189.2180  175.4270  144.8050 C   0  0  0  0  0  0  0  0  0  0  0  0
  189.2190  176.8600  144.9760 N   0  0  0  0  0  0  0  0  0  0  0  0
  187.2240  178.1850  144.3430 C   0  0  0  0  0  3  0  0  0  0  0  0
  186.4050  178.2530  147.0150 C   0  0  0  0  0  3  0  0  0  0  0  0
  188.0030  177.5450  145.3240 C   0  0  0  0  0  0  0  0  0  0  0  0
  186.0450  178.8490  144.6990 C   0  0  0  0  0  3  0  0  0  0  0  0
  185.6360  178.8820  146.0330 C   0  0  0  0  0  3  0  0  0  0  0  0
  187.5830  177.5900  146.6600 C   0  0  0  0  0  3  0  0  0  0  0  0
  190.4050  177.5780  144.9750 O   0  0  0  0  0  0  0  0  0  0  0  0
  192.5730  176.6370  145.4370 C   0  0  0  0  0  3  0  0  0  0  0  0
  193.8000  176.1120  145.0250 C   0  0  0  0  0  0  0  0  0  0  0  0
  194.0900  176.0210  143.6330 C   0  0  0  0  0  0  0  0  0  0  0  0
  193.1300  176.4670  142.7130 C   0  0  0  0  0  3  0  0  0  0  0  0
  191.9070  176.9840  143.1440 C   0  0  0  0  0  3  0  0  0  0  0  0
  194.7430  175.6750  146.0980 C   0  0  0  0  0  1  0  0  0  0  0  0
  191.6190  177.0630  144.5110 C   0  0  0  0  0  0  0  0  0  0  0  0
  196.2590  176.2540  142.3970 C   0  0  0  0  0  1  0  0  0  0  0  0
  195.2770  175.5060  143.1000 O   0  0  0  0  0  0  0  0  0  0  0  0
  189.3870  174.0790  137.9420 O   0  0  0  0  0  0  0  0  0  0  0  0
  187.2310  175.1360  137.8470 C   0  0  0  0  0  2  0  0  0  0  0  0
  188.1400  174.1590  138.5740 C   0  0  2  0  0  3  0  0  0  0  0  0
  187.8440  176.1190  139.9300 N   0  0  0  0  0  0  0  0  0  0  0  0
  188.3160  174.7390  139.9630 C   0  0  0  0  0  2  0  0  0  0  0  0
  187.1710  176.3550  141.1930 C   0  0  0  0  0  1  0  0  0  0  0  0
  186.8340  176.1600  138.8810 C   0  0  0  0  0  2  0  0  0  0  0  0
  192.3050  172.2440  136.7980 O   0  0  0  0  0  0  0  0  0  0  0  0
  191.7720  172.0500  135.5230 C   0  0  0  0  0  2  0  0  0  0  0  0
  190.7720  170.9150  135.5710 C   0  0  0  0  0  3  0  0  0  0  0  0
  191.4170  169.7240  136.2460 C   0  0  0  0  0  2  0  0  0  0  0  0
  191.2900  169.7570  134.7390 C   0  0  0  0  0  2  0  0  0  0  0  0
  195.5010  173.4510  136.0030 C   0  0  0  0  0  2  0  0  0  0  0  0
  196.7550  172.8690  136.6340 C   0  0  0  0  0  2  0  0  0  0  0  0
  196.0740  169.5480  138.5290 C   0  0  0  0  0  2  0  0  0  0  0  0
  197.9200  170.6670  137.1690 C   0  0  0  0  0  2  0  0  0  0  0  0
  194.8780  170.4340  135.4500 O   0  0  0  0  0  0  0  0  0  0  0  0
  197.4210  170.2810  138.5690 C   0  0  1  0  0  3  0  0  0  0  0  0
  196.8640  171.3790  136.3100 C   0  0  1  0  0  3  0  0  0  0  0  0
  195.0110  170.3610  137.7960 C   0  0  0  0  0  2  0  0  0  0  0  0
  195.5300  170.7070  136.4400 C   0  0  0  0  0  0  0  0  0  0  0  0
  197.3420  171.3960  139.4060 O   0  0  0  0  0  0  0  0  0  0  0  0
  196.8290  170.9280  140.5260 O   0  0  0  0  0  1  0  0  0  0  0  0
  1  3  2  0  0  0  0
  2  1  1  0  0  0  0
  3  6  1  0  0  0  0
  4 10  1  0  0  0  0
  6 16  1  0  0  0  0
  7 11  1  0  0  0  0
  7  8  1  0  0  0  0
  8 47  1  1  0  0  0
  8  9  1  0  0  0  0
  9 13  1  0  0  0  0
  9 12  1  0  0  0  0
 10  5  1  0  0  0  0
 11  4  2  0  0  0  0
 12  5  1  0  0  0  0
 12  3  1  0  0  0  0
 13  2  1  0  0  0  0
 14 15  2  0  0  0  0
 15 17  1  0  0  0  0
 16 14  2  0  0  0  0
 17 19  1  0  0  0  0
 18 17  2  0  0  0  0
 19 20  1  0  0  0  0
 21 22  2  0  0  0  0
 22 23  1  0  0  0  0
 22 19  1  0  0  0  0
 23 26  1  0  0  0  0
 24 27  2  0  0  0  0
 24 26  1  0  0  0  0
 26 29  2  0  0  0  0
 27 28  1  0  0  0  0
 28 25  2  0  0  0  0
 29 25  1  0  0  0  0
 30 23  1  0  0  0  0
 32 31  1  0  0  0  0
 32 36  1  0  0  0  0
 33 32  2  0  0  0  0
 34 35  2  0  0  0  0
 34 33  1  0  0  0  0
 35 37  1  0  0  0  0
 37 30  1  0  0  0  0
 37 31  2  0  0  0  0
 38 39  1  0  0  0  0
 39 33  1  0  0  0  0
 40 42  1  0  0  0  0
 40 13  1  0  0  0  0
 41 42  1  0  0  0  0
 41 46  1  0  0  0  0
 42 44  1  0  0  0  0
 43 44  1  0  0  0  0
 43 45  1  0  0  0  0
 46 43  1  0  0  0  0
 48 49  1  0  0  0  0
 48 47  1  0  0  0  0
 49 50  1  0  0  0  0
 51 49  1  0  0  0  0
 51 50  1  0  0  0  0
 52 53  1  0  0  0  0
 52 11  1  0  0  0  0
 54 57  1  0  0  0  0
 55 57  1  0  0  0  0
 56 60  2  0  0  0  0
 57 61  1  0  0  0  0
 58 60  1  0  0  0  0
 58 53  1  0  0  0  0
 58 55  1  0  0  0  0
 59 54  1  0  0  0  0
 60 59  1  0  0  0  0
 61 62  1  0  0  0  0
M  END
>  <MODEL>
3

>  <REMARK>
 VINA RESULT:      -7.3      2.545     10.513
  Name = 
  17 active torsions:
  status: ('A' for Active; 'I' for Inactive)
    1  A    between atoms: O_2  and  C_28
    2  A    between atoms: C_7  and  C_45
    3  A    between atoms: C_7  and  C_57
    4  A    between atoms: C_13  and  C_21
    5  A    between atoms: O_14  and  C_21
    6  A    between atoms: O_14  and  C_34
    7  A    between atoms: O_15  and  C_23
    8  A    between atoms: O_15  and  C_54
    9  A    between atoms: C_17  and  C_24
   10  A    between atoms: C_17  and  C_50
   11  A    between atoms: N_20  and  C_53
   12  A    between atoms: C_29  and  N_43
   13  A    between atoms: O_32  and  N_43
   14  A    between atoms: O_32  and  C_61
   15  A    between atoms: C_33  and  C_50
   16  A    between atoms: O_37  and  C_48
   17  A    between atoms: C_46  and  C_57
                            x       y       z     vdW  Elec       q    Type
                         _______ _______ _______ _____ _____    ______ ____

>  <TORSDO>
F 17

$$$$
=
 OpenBabel11062423033D

 62 68  0  0  1  0  0  0  0  0999 V2000
  193.4820  175.7480  142.6050 N   0  0  0  0  0  0  0  0  0  0  0  0
  192.2860  175.1480  142.0390 C   0  0  0  0  0  2  0  0  0  0  0  0
  193.6260  175.9900  143.8780 C   0  0  0  0  0  0  0  0  0  0  0  0
  191.0330  175.9800  147.4470 C   0  0  0  0  0  3  0  0  0  0  0  0
  193.0770  175.1920  146.2090 C   0  0  0  0  0  2  0  0  0  0  0  0
  194.8450  176.5790  144.3510 N   0  0  0  0  0  2  0  0  0  0  0  0
  189.4010  175.1090  145.7600 C   0  0  0  0  0  2  0  0  0  0  0  0
  190.0510  175.2260  144.3720 C   0  0  2  0  0  3  0  0  0  0  0  0
  191.4670  174.6380  144.3370 C   0  0  2  0  0  3  0  0  0  0  0  0
  191.9900  174.8470  147.2280 C   0  0  0  0  0  2  0  0  0  0  0  0
  189.8790  176.1230  146.7800 C   0  0  0  0  0  0  0  0  0  0  0  0
  192.5160  175.6540  144.8650 C   0  0  2  0  0  3  0  0  0  0  0  0
  191.8330  174.0470  142.9700 C   0  0  1  0  0  3  0  0  0  0  0  0
  196.4750  175.1800  143.3000 C   0  0  0  0  0  0  0  0  0  0  0  0
  196.7640  173.9790  142.8660 C   0  0  0  0  0  3  0  0  0  0  0  0
  196.1280  176.3550  143.7570 C   0  0  0  0  0  3  0  0  0  0  0  0
  197.2320  173.7210  141.4890 C   0  0  0  0  0  0  0  0  0  0  0  0
  197.9400  174.5760  140.8870 O   0  0  0  0  0  0  0  0  0  0  0  0
  196.8850  172.4440  140.7770 C   0  0  2  0  0  3  0  0  0  0  0  0
  197.9410  171.9930  139.7780 C   0  0  0  0  0  1  0  0  0  0  0  0
  194.9160  173.5910  140.0940 O   0  0  0  0  0  0  0  0  0  0  0  0
  195.5060  172.4800  140.1880 C   0  0  0  0  0  0  0  0  0  0  0  0
  194.8500  171.2820  139.7230 N   0  0  0  0  0  0  0  0  0  0  0  0
  193.4670  171.4720  137.6760 C   0  0  0  0  0  3  0  0  0  0  0  0
  195.4750  170.2210  136.1870 C   0  0  0  0  0  3  0  0  0  0  0  0
  194.6530  171.0670  138.3140 C   0  0  0  0  0  0  0  0  0  0  0  0
  193.2920  171.2550  136.3050 C   0  0  0  0  0  3  0  0  0  0  0  0
  194.2950  170.6300  135.5620 C   0  0  0  0  0  3  0  0  0  0  0  0
  195.6510  170.4370  137.5570 C   0  0  0  0  0  3  0  0  0  0  0  0
  194.5490  170.2480  140.5960 O   0  0  0  0  0  0  0  0  0  0  0  0
  194.4470  171.0550  142.8640 C   0  0  0  0  0  3  0  0  0  0  0  0
  194.8660  171.0380  144.1950 C   0  0  0  0  0  0  0  0  0  0  0  0
  195.8910  170.1330  144.5950 C   0  0  0  0  0  0  0  0  0  0  0  0
  196.4550  169.2840  143.6320 C   0  0  0  0  0  3  0  0  0  0  0  0
  196.0200  169.3120  142.3050 C   0  0  0  0  0  3  0  0  0  0  0  0
  194.1940  171.9920  145.1280 C   0  0  0  0  0  1  0  0  0  0  0  0
  195.0050  170.1940  141.9170 C   0  0  0  0  0  0  0  0  0  0  0  0
  197.4970  169.2240  146.2920 C   0  0  0  0  0  1  0  0  0  0  0  0
  196.3860  170.0170  145.8990 O   0  0  0  0  0  0  0  0  0  0  0  0
  190.7860  173.3150  142.3970 O   0  0  0  0  0  0  0  0  0  0  0  0
  190.2840  173.3450  140.0470 C   0  0  0  0  0  2  0  0  0  0  0  0
  191.2590  172.9290  141.1360 C   0  0  2  0  0  3  0  0  0  0  0  0
  190.1940  170.9710  140.2400 N   0  0  0  0  0  0  0  0  0  0  0  0
  191.3150  171.4170  141.0620 C   0  0  0  0  0  2  0  0  0  0  0  0
  190.6810  169.8570  139.4490 C   0  0  0  0  0  1  0  0  0  0  0  0
  189.9220  172.0720  139.3250 C   0  0  0  0  0  2  0  0  0  0  0  0
  190.0200  176.5390  143.8820 O   0  0  0  0  0  0  0  0  0  0  0  0
  188.7460  176.7000  143.3360 C   0  0  0  0  0  2  0  0  0  0  0  0
  188.8530  176.7240  141.8270 C   0  0  0  0  0  3  0  0  0  0  0  0
  187.9530  177.8160  141.2900 C   0  0  0  0  0  2  0  0  0  0  0  0
  187.5060  176.3720  141.2240 C   0  0  0  0  0  2  0  0  0  0  0  0
  188.9910  177.2750  147.1550 C   0  0  0  0  0  2  0  0  0  0  0  0
  187.9950  177.6020  146.0550 C   0  0  0  0  0  2  0  0  0  0  0  0
  184.2620  178.5910  146.4660 C   0  0  0  0  0  2  0  0  0  0  0  0
  186.0470  177.2040  147.6480 C   0  0  0  0  0  2  0  0  0  0  0  0
  185.5410  176.2610  144.3130 O   0  0  0  0  0  0  0  0  0  0  0  0
  185.2480  178.5150  147.6380 C   0  0  1  0  0  3  0  0  0  0  0  0
  186.6830  176.8560  146.2940 C   0  0  1  0  0  3  0  0  0  0  0  0
  184.9620  178.3900  145.1250 C   0  0  0  0  0  2  0  0  0  0  0  0
  185.7180  177.1040  145.1720 C   0  0  0  0  0  0  0  0  0  0  0  0
  186.0930  179.6260  147.6330 O   0  0  0  0  0  0  0  0  0  0  0  0
  186.7180  179.5670  148.7920 O   0  0  0  0  0  1  0  0  0  0  0  0
  1  3  2  0  0  0  0
  2  1  1  0  0  0  0
  2 13  1  0  0  0  0
  3  6  1  0  0  0  0
  3 12  1  0  0  0  0
  5 10  1  0  0  0  0
  7 11  1  0  0  0  0
  8 47  1  1  0  0  0
  8  7  1  0  0  0  0
  9  8  1  0  0  0  0
  9 12  1  0  0  0  0
 10  4  1  0  0  0  0
 11 52  1  0  0  0  0
 11  4  2  0  0  0  0
 12  5  1  0  0  0  0
 13  9  1  0  0  0  0
 14 16  2  0  0  0  0
 15 14  2  0  0  0  0
 16  6  1  0  0  0  0
 17 15  1  0  0  0  0
 18 17  2  0  0  0  0
 19 17  1  0  0  0  0
 20 19  1  0  0  0  0
 21 22  2  0  0  0  0
 22 19  1  0  0  0  0
 23 22  1  0  0  0  0
 23 30  1  0  0  0  0
 24 26  1  0  0  0  0
 25 29  1  0  0  0  0
 26 23  1  0  0  0  0
 27 24  2  0  0  0  0
 28 25  2  0  0  0  0
 28 27  1  0  0  0  0
 29 26  2  0  0  0  0
 30 37  1  0  0  0  0
 31 32  1  0  0  0  0
 32 33  2  0  0  0  0
 32 36  1  0  0  0  0
 33 39  1  0  0  0  0
 34 33  1  0  0  0  0
 35 34  2  0  0  0  0
 37 35  1  0  0  0  0
 37 31  2  0  0  0  0
 39 38  1  0  0  0  0
 40 13  1  0  0  0  0
 41 42  1  0  0  0  0
 42 40  1  0  0  0  0
 43 44  1  0  0  0  0
 44 42  1  0  0  0  0
 45 43  1  0  0  0  0
 46 41  1  0  0  0  0
 46 43  1  0  0  0  0
 48 47  1  0  0  0  0
 49 48  1  0  0  0  0
 50 49  1  0  0  0  0
 51 50  1  0  0  0  0
 51 49  1  0  0  0  0
 53 58  1  0  0  0  0
 53 52  1  0  0  0  0
 54 57  1  0  0  0  0
 56 60  2  0  0  0  0
 57 55  1  0  0  0  0
 58 55  1  0  0  0  0
 59 60  1  0  0  0  0
 59 54  1  0  0  0  0
 60 58  1  0  0  0  0
 61 57  1  0  0  0  0
 61 62  1  0  0  0  0
M  END
>  <MODEL>
4

>  <REMARK>
 VINA RESULT:      -7.2      2.248      3.690
  Name = 
  17 active torsions:
  status: ('A' for Active; 'I' for Inactive)
    1  A    between atoms: O_2  and  C_28
    2  A    between atoms: C_7  and  C_45
    3  A    between atoms: C_7  and  C_57
    4  A    between atoms: C_13  and  C_21
    5  A    between atoms: O_14  and  C_21
    6  A    between atoms: O_14  and  C_34
    7  A    between atoms: O_15  and  C_23
    8  A    between atoms: O_15  and  C_54
    9  A    between atoms: C_17  and  C_24
   10  A    between atoms: C_17  and  C_50
   11  A    between atoms: N_20  and  C_53
   12  A    between atoms: C_29  and  N_43
   13  A    between atoms: O_32  and  N_43
   14  A    between atoms: O_32  and  C_61
   15  A    between atoms: C_33  and  C_50
   16  A    between atoms: O_37  and  C_48
   17  A    between atoms: C_46  and  C_57
                            x       y       z     vdW  Elec       q    Type
                         _______ _______ _______ _____ _____    ______ ____

>  <TORSDO>
F 17

$$$$
=
 OpenBabel11062423033D

 62 68  0  0  1  0  0  0  0  0999 V2000
  192.1010  171.8630  142.8130 N   0  0  0  0  0  0  0  0  0  0  0  0
  192.5680  173.0430  143.5180 C   0  0  0  0  0  2  0  0  0  0  0  0
  191.1060  171.8810  141.9700 C   0  0  0  0  0  0  0  0  0  0  0  0
  187.9680  174.7480  140.7910 C   0  0  0  0  0  3  0  0  0  0  0  0
  189.9040  173.2460  140.2200 C   0  0  0  0  0  2  0  0  0  0  0  0
  190.7150  170.6680  141.3120 N   0  0  0  0  0  2  0  0  0  0  0  0
  189.2660  176.1960  142.3680 C   0  0  0  0  0  2  0  0  0  0  0  0
  190.3130  175.3120  143.0650 C   0  0  2  0  0  3  0  0  0  0  0  0
  191.1200  174.4670  142.0730 C   0  0  2  0  0  3  0  0  0  0  0  0
  189.1450  174.5320  139.8880 C   0  0  0  0  0  2  0  0  0  0  0  0
  188.0120  175.4730  141.9180 C   0  0  0  0  0  0  0  0  0  0  0  0
  190.3570  173.1740  141.6780 C   0  0  2  0  0  3  0  0  0  0  0  0
  192.5540  174.2010  142.5470 C   0  0  1  0  0  3  0  0  0  0  0  0
  191.9870  169.4130  139.7220 C   0  0  0  0  0  0  0  0  0  0  0  0
  192.3090  169.2560  138.4630 C   0  0  0  0  0  3  0  0  0  0  0  0
  191.6230  169.6180  140.9610 C   0  0  0  0  0  3  0  0  0  0  0  0
  193.7090  169.2170  137.9970 C   0  0  0  0  0  0  0  0  0  0  0  0
  194.4110  168.1820  138.1750 O   0  0  0  0  0  0  0  0  0  0  0  0
  194.3310  170.3950  137.3010 C   0  0  2  0  0  3  0  0  0  0  0  0
  195.1370  170.0230  136.0650 C   0  0  0  0  0  1  0  0  0  0  0  0
  195.9290  170.7460  139.0270 O   0  0  0  0  0  0  0  0  0  0  0  0
  195.0920  171.2760  138.2470 C   0  0  0  0  0  0  0  0  0  0  0  0
  194.8940  172.7050  138.2770 N   0  0  0  0  0  0  0  0  0  0  0  0
  196.6530  173.2730  136.6290 C   0  0  0  0  0  3  0  0  0  0  0  0
  197.2020  175.6410  138.0100 C   0  0  0  0  0  3  0  0  0  0  0  0
  195.9200  173.5860  137.7870 C   0  0  0  0  0  0  0  0  0  0  0  0
  197.6490  174.1400  136.1660 C   0  0  0  0  0  3  0  0  0  0  0  0
  197.9230  175.3230  136.8570 C   0  0  0  0  0  3  0  0  0  0  0  0
  196.2070  174.7740  138.4730 C   0  0  0  0  0  3  0  0  0  0  0  0
  193.6640  173.2480  138.6170 O   0  0  0  0  0  0  0  0  0  0  0  0
  191.6570  172.7120  137.3970 C   0  0  0  0  0  3  0  0  0  0  0  0
  190.6600  173.0240  136.4710 C   0  0  0  0  0  0  0  0  0  0  0  0
  190.7040  174.2760  135.7920 C   0  0  0  0  0  0  0  0  0  0  0  0
  191.7560  175.1590  136.0720 C   0  0  0  0  0  3  0  0  0  0  0  0
  192.7410  174.8320  137.0040 C   0  0  0  0  0  3  0  0  0  0  0  0
  189.5930  172.0000  136.2540 C   0  0  0  0  0  1  0  0  0  0  0  0
  192.6910  173.6070  137.6790 C   0  0  0  0  0  0  0  0  0  0  0  0
  188.4720  175.2250  135.1550 C   0  0  0  0  0  1  0  0  0  0  0  0
  189.7580  174.7040  134.8530 O   0  0  0  0  0  0  0  0  0  0  0  0
  193.1560  175.3300  143.1150 O   0  0  0  0  0  0  0  0  0  0  0  0
  194.9060  174.4030  141.7540 C   0  0  0  0  0  2  0  0  0  0  0  0
  194.2070  175.6580  142.2490 C   0  0  2  0  0  3  0  0  0  0  0  0
  196.3880  175.5240  143.2470 N   0  0  0  0  0  0  0  0  0  0  0  0
  195.2660  176.4270  143.0120 C   0  0  0  0  0  2  0  0  0  0  0  0
  197.5930  176.3150  143.0970 C   0  0  0  0  0  1  0  0  0  0  0  0
  196.3520  174.5670  142.1490 C   0  0  0  0  0  2  0  0  0  0  0  0
  189.7490  174.5270  144.0820 O   0  0  0  0  0  0  0  0  0  0  0  0
  189.8440  175.2990  145.2400 C   0  0  0  0  0  2  0  0  0  0  0  0
  190.0060  174.3830  146.4340 C   0  0  0  0  0  3  0  0  0  0  0  0
  189.1480  174.9020  147.5670 C   0  0  0  0  0  2  0  0  0  0  0  0
  190.6390  175.1560  147.5750 C   0  0  0  0  0  2  0  0  0  0  0  0
  186.7340  175.6540  142.6850 C   0  0  0  0  0  2  0  0  0  0  0  0
  186.8180  176.8200  143.6560 C   0  0  0  0  0  2  0  0  0  0  0  0
  185.2870  179.7450  145.7020 C   0  0  0  0  0  2  0  0  0  0  0  0
  185.2890  177.1940  145.6600 C   0  0  0  0  0  2  0  0  0  0  0  0
  184.2610  178.6310  142.6350 O   0  0  0  0  0  0  0  0  0  0  0  0
  185.8270  178.4600  146.3420 C   0  0  1  0  0  3  0  0  0  0  0  0
  185.4190  177.2140  144.1290 C   0  0  1  0  0  3  0  0  0  0  0  0
  185.5720  179.7920  144.2040 C   0  0  0  0  0  2  0  0  0  0  0  0
  185.0270  178.5520  143.5770 C   0  0  0  0  0  0  0  0  0  0  0  0
  187.2230  178.4750  146.3580 O   0  0  0  0  0  0  0  0  0  0  0  0
  187.5450  177.8290  147.4600 O   0  0  0  0  0  1  0  0  0  0  0  0
  1  2  1  0  0  0  0
  3  1  2  0  0  0  0
  4 11  2  0  0  0  0
  5 12  1  0  0  0  0
  6  3  1  0  0  0  0
  7  8  1  0  0  0  0
  8 47  1  1  0  0  0
  9 13  1  0  0  0  0
  9  8  1  0  0  0  0
 10  5  1  0  0  0  0
 10  4  1  0  0  0  0
 11  7  1  0  0  0  0
 11 52  1  0  0  0  0
 12  3  1  0  0  0  0
 12  9  1  0  0  0  0
 13 40  1  0  0  0  0
 13  2  1  0  0  0  0
 14 16  2  0  0  0  0
 15 14  2  0  0  0  0
 16  6  1  0  0  0  0
 17 18  2  0  0  0  0
 17 15  1  0  0  0  0
 19 17  1  0  0  0  0
 19 22  1  0  0  0  0
 20 19  1  0  0  0  0
 22 23  1  0  0  0  0
 22 21  2  0  0  0  0
 23 30  1  0  0  0  0
 24 26  1  0  0  0  0
 25 29  1  0  0  0  0
 26 23  1  0  0  0  0
 26 29  2  0  0  0  0
 27 24  2  0  0  0  0
 27 28  1  0  0  0  0
 28 25  2  0  0  0  0
 31 37  1  0  0  0  0
 32 31  2  0  0  0  0
 33 34  2  0  0  0  0
 33 32  1  0  0  0  0
 34 35  1  0  0  0  0
 35 37  2  0  0  0  0
 36 32  1  0  0  0  0
 37 30  1  0  0  0  0
 39 38  1  0  0  0  0
 39 33  1  0  0  0  0
 41 46  1  0  0  0  0
 41 42  1  0  0  0  0
 42 44  1  0  0  0  0
 42 40  1  0  0  0  0
 44 43  1  0  0  0  0
 45 43  1  0  0  0  0
 46 43  1  0  0  0  0
 47 48  1  0  0  0  0
 48 49  1  0  0  0  0
 49 50  1  0  0  0  0
 49 51  1  0  0  0  0
 50 51  1  0  0  0  0
 52 53  1  0  0  0  0
 53 58  1  0  0  0  0
 54 57  1  0  0  0  0
 55 57  1  0  0  0  0
 56 60  2  0  0  0  0
 57 61  1  0  0  0  0
 58 55  1  0  0  0  0
 59 54  1  0  0  0  0
 60 58  1  0  0  0  0
 60 59  1  0  0  0  0
 61 62  1  0  0  0  0
M  END
>  <MODEL>
5

>  <REMARK>
 VINA RESULT:      -7.1      2.110      4.960
  Name = 
  17 active torsions:
  status: ('A' for Active; 'I' for Inactive)
    1  A    between atoms: O_2  and  C_28
    2  A    between atoms: C_7  and  C_45
    3  A    between atoms: C_7  and  C_57
    4  A    between atoms: C_13  and  C_21
    5  A    between atoms: O_14  and  C_21
    6  A    between atoms: O_14  and  C_34
    7  A    between atoms: O_15  and  C_23
    8  A    between atoms: O_15  and  C_54
    9  A    between atoms: C_17  and  C_24
   10  A    between atoms: C_17  and  C_50
   11  A    between atoms: N_20  and  C_53
   12  A    between atoms: C_29  and  N_43
   13  A    between atoms: O_32  and  N_43
   14  A    between atoms: O_32  and  C_61
   15  A    between atoms: C_33  and  C_50
   16  A    between atoms: O_37  and  C_48
   17  A    between atoms: C_46  and  C_57
                            x       y       z     vdW  Elec       q    Type
                         _______ _______ _______ _____ _____    ______ ____

>  <TORSDO>
F 17

$$$$
=
 OpenBabel11062423033D

 62 68  0  0  1  0  0  0  0  0999 V2000
  193.0160  176.1310  142.8070 N   0  0  0  0  0  0  0  0  0  0  0  0
  191.7020  175.6950  142.3690 C   0  0  0  0  0  2  0  0  0  0  0  0
  193.3350  176.2900  144.0620 C   0  0  0  0  0  0  0  0  0  0  0  0
  191.1960  176.3760  147.9180 C   0  0  0  0  0  3  0  0  0  0  0  0
  192.9770  175.4360  146.4100 C   0  0  0  0  0  2  0  0  0  0  0  0
  194.6610  176.7180  144.4040 N   0  0  0  0  0  2  0  0  0  0  0  0
  189.2880  175.7760  146.4120 C   0  0  0  0  0  2  0  0  0  0  0  0
  189.7800  175.8930  144.9600 C   0  0  2  0  0  3  0  0  0  0  0  0
  191.1050  175.1580  144.7290 C   0  0  2  0  0  3  0  0  0  0  0  0
  191.9850  175.1580  147.5410 C   0  0  0  0  0  2  0  0  0  0  0  0
  189.9950  176.6780  147.4030 C   0  0  0  0  0  0  0  0  0  0  0  0
  192.3180  176.0260  145.1630 C   0  0  2  0  0  3  0  0  0  0  0  0
  191.2390  174.6020  143.3060 C   0  0  1  0  0  3  0  0  0  0  0  0
  195.8720  175.3330  142.8750 C   0  0  0  0  0  0  0  0  0  0  0  0
  195.8510  174.2620  142.1230 C   0  0  0  0  0  3  0  0  0  0  0  0
  195.8310  176.3860  143.6490 C   0  0  0  0  0  3  0  0  0  0  0  0
  196.1940  174.2910  140.6870 C   0  0  0  0  0  0  0  0  0  0  0  0
  195.4980  174.9670  139.8800 O   0  0  0  0  0  0  0  0  0  0  0  0
  197.3720  173.5240  140.1540 C   0  0  2  0  0  3  0  0  0  0  0  0
  197.9410  174.0950  138.8630 C   0  0  0  0  0  1  0  0  0  0  0  0
  197.9400  171.2500  140.5560 O   0  0  0  0  0  0  0  0  0  0  0  0
  197.0980  172.0520  140.0670 C   0  0  0  0  0  0  0  0  0  0  0  0
  195.9000  171.5390  139.4480 N   0  0  0  0  0  0  0  0  0  0  0  0
  194.0850  169.8840  139.7630 C   0  0  0  0  0  3  0  0  0  0  0  0
  193.6370  170.8460  142.3500 C   0  0  0  0  0  3  0  0  0  0  0  0
  194.8710  170.9400  140.2550 C   0  0  0  0  0  0  0  0  0  0  0  0
  193.0870  169.3130  140.5610 C   0  0  0  0  0  3  0  0  0  0  0  0
  192.8640  169.7940  141.8530 C   0  0  0  0  0  3  0  0  0  0  0  0
  194.6340  171.4160  141.5520 C   0  0  0  0  0  3  0  0  0  0  0  0
  195.6400  171.7590  138.1040 O   0  0  0  0  0  0  0  0  0  0  0  0
  195.2670  173.5950  136.5900 C   0  0  0  0  0  3  0  0  0  0  0  0
  194.4810  174.6310  136.0820 C   0  0  0  0  0  0  0  0  0  0  0  0
  193.1950  174.8740  136.6470 C   0  0  0  0  0  0  0  0  0  0  0  0
  192.7590  174.0640  137.7050 C   0  0  0  0  0  3  0  0  0  0  0  0
  193.5580  173.0310  138.1960 C   0  0  0  0  0  3  0  0  0  0  0  0
  195.0560  175.4280  134.9570 C   0  0  0  0  0  1  0  0  0  0  0  0
  194.8150  172.7860  137.6340 C   0  0  0  0  0  0  0  0  0  0  0  0
  191.2860  175.7070  135.2520 C   0  0  0  0  0  1  0  0  0  0  0  0
  192.3140  175.8730  136.2170 O   0  0  0  0  0  0  0  0  0  0  0  0
  190.0550  174.0200  142.8380 O   0  0  0  0  0  0  0  0  0  0  0  0
  188.7810  174.0810  140.8010 C   0  0  0  0  0  2  0  0  0  0  0  0
  190.1590  174.0560  141.4410 C   0  0  2  0  0  3  0  0  0  0  0  0
  189.7500  171.9470  140.3660 N   0  0  0  0  0  0  0  0  0  0  0  0
  190.8010  172.7740  140.9520 C   0  0  0  0  0  2  0  0  0  0  0  0
  190.3330  171.3010  139.2060 C   0  0  0  0  0  1  0  0  0  0  0  0
  188.7420  172.8830  139.8860 C   0  0  0  0  0  2  0  0  0  0  0  0
  189.8410  177.2270  144.5280 O   0  0  0  0  0  0  0  0  0  0  0  0
  188.5330  177.5620  144.1790 C   0  0  0  0  0  2  0  0  0  0  0  0
  188.1690  176.8580  142.8890 C   0  0  0  0  0  3  0  0  0  0  0  0
  187.7870  177.8970  141.8570 C   0  0  0  0  0  2  0  0  0  0  0  0
  186.7080  177.1160  142.5740 C   0  0  0  0  0  2  0  0  0  0  0  0
  189.2950  177.8980  147.9290 C   0  0  0  0  0  2  0  0  0  0  0  0
  188.1500  178.3260  147.0250 C   0  0  0  0  0  2  0  0  0  0  0  0
  184.4050  177.9660  146.0640 C   0  0  0  0  0  2  0  0  0  0  0  0
  185.9110  179.4510  147.4890 C   0  0  0  0  0  2  0  0  0  0  0  0
  186.1380  176.0530  148.3080 O   0  0  0  0  0  0  0  0  0  0  0  0
  185.1190  179.3180  146.1800 C   0  0  1  0  0  3  0  0  0  0  0  0
  186.8250  178.2520  147.7840 C   0  0  1  0  0  3  0  0  0  0  0  0
  185.3770  176.7990  146.2120 C   0  0  0  0  0  2  0  0  0  0  0  0
  186.1190  176.9600  147.4970 C   0  0  0  0  0  0  0  0  0  0  0  0
  185.9340  179.5340  145.0680 O   0  0  0  0  0  0  0  0  0  0  0  0
  185.0900  179.7910  144.0890 O   0  0  0  0  0  1  0  0  0  0  0  0
  1  3  2  0  0  0  0
  2  1  1  0  0  0  0
  2 13  1  0  0  0  0
  3  6  1  0  0  0  0
  3 12  1  0  0  0  0
  5 10  1  0  0  0  0
  7 11  1  0  0  0  0
  8 47  1  1  0  0  0
  8  7  1  0  0  0  0
  9  8  1  0  0  0  0
  9 12  1  0  0  0  0
 10  4  1  0  0  0  0
 11  4  2  0  0  0  0
 11 52  1  0  0  0  0
 12  5  1  0  0  0  0
 13  9  1  0  0  0  0
 14 16  2  0  0  0  0
 15 14  2  0  0  0  0
 16  6  1  0  0  0  0
 17 15  1  0  0  0  0
 18 17  2  0  0  0  0
 19 17  1  0  0  0  0
 20 19  1  0  0  0  0
 22 19  1  0  0  0  0
 22 21  2  0  0  0  0
 23 22  1  0  0  0  0
 23 26  1  0  0  0  0
 24 26  2  0  0  0  0
 24 27  1  0  0  0  0
 26 29  1  0  0  0  0
 27 28  2  0  0  0  0
 28 25  1  0  0  0  0
 29 25  2  0  0  0  0
 30 23  1  0  0  0  0
 31 37  1  0  0  0  0
 32 31  2  0  0  0  0
 32 33  1  0  0  0  0
 33 34  2  0  0  0  0
 34 35  1  0  0  0  0
 36 32  1  0  0  0  0
 37 30  1  0  0  0  0
 37 35  2  0  0  0  0
 38 39  1  0  0  0  0
 39 33  1  0  0  0  0
 40 13  1  0  0  0  0
 41 42  1  0  0  0  0
 42 40  1  0  0  0  0
 43 44  1  0  0  0  0
 44 42  1  0  0  0  0
 45 43  1  0  0  0  0
 46 43  1  0  0  0  0
 46 41  1  0  0  0  0
 48 47  1  0  0  0  0
 49 48  1  0  0  0  0
 50 51  1  0  0  0  0
 50 49  1  0  0  0  0
 51 49  1  0  0  0  0
 53 58  1  0  0  0  0
 53 52  1  0  0  0  0
 54 57  1  0  0  0  0
 54 59  1  0  0  0  0
 55 58  1  0  0  0  0
 57 55  1  0  0  0  0
 59 60  1  0  0  0  0
 60 58  1  0  0  0  0
 60 56  2  0  0  0  0
 61 57  1  0  0  0  0
 62 61  1  0  0  0  0
M  END
>  <MODEL>
6

>  <REMARK>
 VINA RESULT:      -6.8      1.856      3.918
  Name = 
  17 active torsions:
  status: ('A' for Active; 'I' for Inactive)
    1  A    between atoms: O_2  and  C_28
    2  A    between atoms: C_7  and  C_45
    3  A    between atoms: C_7  and  C_57
    4  A    between atoms: C_13  and  C_21
    5  A    between atoms: O_14  and  C_21
    6  A    between atoms: O_14  and  C_34
    7  A    between atoms: O_15  and  C_23
    8  A    between atoms: O_15  and  C_54
    9  A    between atoms: C_17  and  C_24
   10  A    between atoms: C_17  and  C_50
   11  A    between atoms: N_20  and  C_53
   12  A    between atoms: C_29  and  N_43
   13  A    between atoms: O_32  and  N_43
   14  A    between atoms: O_32  and  C_61
   15  A    between atoms: C_33  and  C_50
   16  A    between atoms: O_37  and  C_48
   17  A    between atoms: C_46  and  C_57
                            x       y       z     vdW  Elec       q    Type
                         _______ _______ _______ _____ _____    ______ ____

>  <TORSDO>
F 17

$$$$
=
 OpenBabel11062423033D

 62 68  0  0  1  0  0  0  0  0999 V2000
  192.4950  171.6950  143.8060 N   0  0  0  0  0  0  0  0  0  0  0  0
  193.2550  172.0230  144.9990 C   0  0  0  0  0  2  0  0  0  0  0  0
  192.0590  172.5920  142.9660 C   0  0  0  0  0  0  0  0  0  0  0  0
  191.7270  176.9900  142.8760 C   0  0  0  0  0  3  0  0  0  0  0  0
  192.5420  174.8230  141.8890 C   0  0  0  0  0  2  0  0  0  0  0  0
  191.3220  172.1760  141.8080 N   0  0  0  0  0  2  0  0  0  0  0  0
  192.9490  176.7220  145.0440 C   0  0  0  0  0  2  0  0  0  0  0  0
  192.9930  175.2220  145.3780 C   0  0  2  0  0  3  0  0  0  0  0  0
  193.4780  174.3730  144.1970 C   0  0  2  0  0  3  0  0  0  0  0  0
  192.8100  176.3160  142.0870 C   0  0  0  0  0  2  0  0  0  0  0  0
  191.7650  177.1590  144.2050 C   0  0  0  0  0  0  0  0  0  0  0  0
  192.3230  174.0730  143.2020 C   0  0  2  0  0  3  0  0  0  0  0  0
  194.2360  173.1150  144.6400 C   0  0  1  0  0  3  0  0  0  0  0  0
  190.8590  170.6230  140.0490 C   0  0  0  0  0  0  0  0  0  0  0  0
  190.1410  170.3600  138.9870 C   0  0  0  0  0  3  0  0  0  0  0  0
  191.5410  170.9410  141.1190 C   0  0  0  0  0  3  0  0  0  0  0  0
  190.7420  169.9960  137.6880 C   0  0  0  0  0  0  0  0  0  0  0  0
  190.0850  169.3160  136.8520 O   0  0  0  0  0  0  0  0  0  0  0  0
  192.1370  170.4250  137.3300 C   0  0  2  0  0  3  0  0  0  0  0  0
  192.2720  170.9450  135.9060 C   0  0  0  0  0  1  0  0  0  0  0  0
  192.8710  168.1660  137.4550 O   0  0  0  0  0  0  0  0  0  0  0  0
  193.1560  169.3760  137.6650 C   0  0  0  0  0  0  0  0  0  0  0  0
  194.4480  169.7220  138.2090 N   0  0  0  0  0  0  0  0  0  0  0  0
  196.6370  168.6560  137.7570 C   0  0  0  0  0  3  0  0  0  0  0  0
  196.9450  170.2290  135.4660 C   0  0  0  0  0  3  0  0  0  0  0  0
  195.6320  169.5740  137.4050 C   0  0  0  0  0  0  0  0  0  0  0  0
  197.7830  168.5250  136.9650 C   0  0  0  0  0  3  0  0  0  0  0  0
  197.9370  169.3110  135.8210 C   0  0  0  0  0  3  0  0  0  0  0  0
  195.8000  170.3590  136.2570 C   0  0  0  0  0  3  0  0  0  0  0  0
  194.5580  170.3520  139.4390 O   0  0  0  0  0  0  0  0  0  0  0  0
  194.4800  172.7420  139.1480 C   0  0  0  0  0  3  0  0  0  0  0  0
  195.0250  174.0180  139.3020 C   0  0  0  0  0  0  0  0  0  0  0  0
  196.2920  174.1660  139.9360 C   0  0  0  0  0  0  0  0  0  0  0  0
  196.9600  173.0180  140.3860 C   0  0  0  0  0  3  0  0  0  0  0  0
  196.3970  171.7500  140.2270 C   0  0  0  0  0  3  0  0  0  0  0  0
  194.2210  175.1640  138.7780 C   0  0  0  0  0  1  0  0  0  0  0  0
  195.1480  171.6070  139.6140 C   0  0  0  0  0  0  0  0  0  0  0  0
  196.5430  176.3670  141.1110 C   0  0  0  0  0  1  0  0  0  0  0  0
  196.9330  175.3910  140.1560 O   0  0  0  0  0  0  0  0  0  0  0  0
  195.1160  173.3580  145.7010 O   0  0  0  0  0  0  0  0  0  0  0  0
  196.2550  172.3440  143.8430 C   0  0  0  0  0  2  0  0  0  0  0  0
  196.3580  172.8830  145.2600 C   0  0  2  0  0  3  0  0  0  0  0  0
  196.5750  170.4910  145.3080 N   0  0  0  0  0  0  0  0  0  0  0  0
  196.7720  171.6970  146.1070 C   0  0  0  0  0  2  0  0  0  0  0  0
  197.6800  169.6060  145.6190 C   0  0  0  0  0  1  0  0  0  0  0  0
  196.7280  170.9150  143.9230 C   0  0  0  0  0  2  0  0  0  0  0  0
  191.7710  174.7580  145.8870 O   0  0  0  0  0  0  0  0  0  0  0  0
  191.7390  175.1820  147.2160 C   0  0  0  0  0  2  0  0  0  0  0  0
  190.3930  174.8360  147.8140 C   0  0  0  0  0  3  0  0  0  0  0  0
  189.3810  174.7070  146.6970 C   0  0  0  0  0  2  0  0  0  0  0  0
  189.4180  175.9640  147.5370 C   0  0  0  0  0  2  0  0  0  0  0  0
  190.6360  177.9120  144.8480 C   0  0  0  0  0  2  0  0  0  0  0  0
  189.3940  177.9240  143.9740 C   0  0  0  0  0  2  0  0  0  0  0  0
  185.9540  176.5870  142.7620 C   0  0  0  0  0  2  0  0  0  0  0  0
  187.1310  177.2450  144.9280 C   0  0  0  0  0  2  0  0  0  0  0  0
  188.8450  174.7920  143.1080 O   0  0  0  0  0  0  0  0  0  0  0  0
  186.1080  177.6500  143.8570 C   0  0  1  0  0  3  0  0  0  0  0  0
  188.4720  176.7650  144.3530 C   0  0  1  0  0  3  0  0  0  0  0  0
  187.2920  176.2500  142.1120 C   0  0  0  0  0  2  0  0  0  0  0  0
  188.2540  175.8530  143.1820 C   0  0  0  0  0  0  0  0  0  0  0  0
  186.4250  178.8870  143.2920 O   0  0  0  0  0  0  0  0  0  0  0  0
  185.2570  179.4300  143.0140 O   0  0  0  0  0  1  0  0  0  0  0  0
  1  2  1  0  0  0  0
  3 12  1  0  0  0  0
  3  1  2  0  0  0  0
  4 11  2  0  0  0  0
  5 10  1  0  0  0  0
  5 12  1  0  0  0  0
  6  3  1  0  0  0  0
  7  8  1  0  0  0  0
  8 47  1  6  0  0  0
  9 13  1  0  0  0  0
  9  8  1  0  0  0  0
 10  4  1  0  0  0  0
 11 52  1  0  0  0  0
 11  7  1  0  0  0  0
 12  9  1  0  0  0  0
 13  2  1  0  0  0  0
 13 40  1  0  0  0  0
 14 16  2  0  0  0  0
 15 14  2  0  0  0  0
 16  6  1  0  0  0  0
 17 15  1  0  0  0  0
 18 17  2  0  0  0  0
 19 22  1  0  0  0  0
 19 17  1  0  0  0  0
 20 19  1  0  0  0  0
 21 22  2  0  0  0  0
 22 23  1  0  0  0  0
 23 30  1  0  0  0  0
 25 28  2  0  0  0  0
 25 29  1  0  0  0  0
 26 24  1  0  0  0  0
 26 23  1  0  0  0  0
 27 24  2  0  0  0  0
 28 27  1  0  0  0  0
 29 26  2  0  0  0  0
 30 37  1  0  0  0  0
 31 32  2  0  0  0  0
 31 37  1  0  0  0  0
 32 33  1  0  0  0  0
 33 39  1  0  0  0  0
 33 34  2  0  0  0  0
 35 34  1  0  0  0  0
 36 32  1  0  0  0  0
 37 35  2  0  0  0  0
 39 38  1  0  0  0  0
 41 46  1  0  0  0  0
 41 42  1  0  0  0  0
 42 40  1  0  0  0  0
 42 44  1  0  0  0  0
 43 45  1  0  0  0  0
 43 44  1  0  0  0  0
 46 43  1  0  0  0  0
 47 48  1  0  0  0  0
 48 49  1  0  0  0  0
 50 51  1  0  0  0  0
 50 49  1  0  0  0  0
 51 49  1  0  0  0  0
 53 58  1  0  0  0  0
 53 52  1  0  0  0  0
 54 57  1  0  0  0  0
 56 60  2  0  0  0  0
 57 55  1  0  0  0  0
 58 55  1  0  0  0  0
 59 54  1  0  0  0  0
 59 60  1  0  0  0  0
 60 58  1  0  0  0  0
 61 57  1  0  0  0  0
 62 61  1  0  0  0  0
M  END
>  <MODEL>
7

>  <REMARK>
 VINA RESULT:      -6.7      2.437      5.635
  Name = 
  17 active torsions:
  status: ('A' for Active; 'I' for Inactive)
    1  A    between atoms: O_2  and  C_28
    2  A    between atoms: C_7  and  C_45
    3  A    between atoms: C_7  and  C_57
    4  A    between atoms: C_13  and  C_21
    5  A    between atoms: O_14  and  C_21
    6  A    between atoms: O_14  and  C_34
    7  A    between atoms: O_15  and  C_23
    8  A    between atoms: O_15  and  C_54
    9  A    between atoms: C_17  and  C_24
   10  A    between atoms: C_17  and  C_50
   11  A    between atoms: N_20  and  C_53
   12  A    between atoms: C_29  and  N_43
   13  A    between atoms: O_32  and  N_43
   14  A    between atoms: O_32  and  C_61
   15  A    between atoms: C_33  and  C_50
   16  A    between atoms: O_37  and  C_48
   17  A    between atoms: C_46  and  C_57
                            x       y       z     vdW  Elec       q    Type
                         _______ _______ _______ _____ _____    ______ ____

>  <TORSDO>
F 17

$$$$
=
 OpenBabel11062423033D

 62 68  0  0  1  0  0  0  0  0999 V2000
  195.0680  172.4700  144.6030 N   0  0  0  0  0  0  0  0  0  0  0  0
  196.2660  171.7680  144.1770 C   0  0  0  0  0  2  0  0  0  0  0  0
  193.8750  172.1830  144.1610 C   0  0  0  0  0  0  0  0  0  0  0  0
  192.1750  169.6890  140.9440 C   0  0  0  0  0  3  0  0  0  0  0  0
  192.3540  170.3310  143.3700 C   0  0  0  0  0  2  0  0  0  0  0  0
  192.7460  172.9240  144.6430 N   0  0  0  0  0  2  0  0  0  0  0  0
  194.5900  169.0770  140.6950 C   0  0  0  0  0  2  0  0  0  0  0  0
  195.4070  170.0060  141.6080 C   0  0  2  0  0  3  0  0  0  0  0  0
  194.8490  170.0660  143.0340 C   0  0  2  0  0  3  0  0  0  0  0  0
  192.1120  169.2060  142.3610 C   0  0  0  0  0  2  0  0  0  0  0  0
  193.2840  169.6590  140.1920 C   0  0  0  0  0  0  0  0  0  0  0  0
  193.6700  171.0720  143.1400 C   0  0  2  0  0  3  0  0  0  0  0  0
  195.9360  170.2960  144.0910 C   0  0  1  0  0  3  0  0  0  0  0  0
  192.5400  174.7580  146.1640 C   0  0  0  0  0  0  0  0  0  0  0  0
  192.4380  176.0570  146.2990 C   0  0  0  0  0  3  0  0  0  0  0  0
  192.6490  173.4710  145.9620 C   0  0  0  0  0  3  0  0  0  0  0  0
  191.3550  176.6940  147.0740 C   0  0  0  0  0  0  0  0  0  0  0  0
  191.5870  177.1670  148.2220 O   0  0  0  0  0  0  0  0  0  0  0  0
  189.9610  176.7990  146.5220 C   0  0  2  0  0  3  0  0  0  0  0  0
  189.0670  175.6220  146.8850 C   0  0  0  0  0  1  0  0  0  0  0  0
  190.4220  178.2050  144.6590 O   0  0  0  0  0  0  0  0  0  0  0  0
  189.9540  177.1010  145.0520 C   0  0  0  0  0  0  0  0  0  0  0  0
  189.4370  176.1610  144.0880 N   0  0  0  0  0  0  0  0  0  0  0  0
  189.9810  174.2390  142.6230 C   0  0  0  0  0  3  0  0  0  0  0  0
  192.4700  175.3720  142.0390 C   0  0  0  0  0  3  0  0  0  0  0  0
  190.3340  175.4730  143.1980 C   0  0  0  0  0  0  0  0  0  0  0  0
  190.8650  173.5820  141.7610 C   0  0  0  0  0  3  0  0  0  0  0  0
  192.1080  174.1480  141.4690 C   0  0  0  0  0  3  0  0  0  0  0  0
  191.5860  176.0280  142.9010 C   0  0  0  0  0  3  0  0  0  0  0  0
  188.1040  175.7790  144.1080 O   0  0  0  0  0  0  0  0  0  0  0  0
  186.1680  177.2050  144.2580 C   0  0  0  0  0  3  0  0  0  0  0  0
  185.1340  177.9410  143.6770 C   0  0  0  0  0  0  0  0  0  0  0  0
  185.0030  177.9620  142.2580 C   0  0  0  0  0  0  0  0  0  0  0  0
  185.9190  177.2360  141.4850 C   0  0  0  0  0  3  0  0  0  0  0  0
  186.9500  176.5090  142.0840 C   0  0  0  0  0  3  0  0  0  0  0  0
  184.2180  178.6700  144.6050 C   0  0  0  0  0  1  0  0  0  0  0  0
  187.0840  176.4980  143.4770 C   0  0  0  0  0  0  0  0  0  0  0  0
  183.0400  178.0950  140.7040 C   0  0  0  0  0  1  0  0  0  0  0  0
  184.0160  178.6690  141.5610 O   0  0  0  0  0  0  0  0  0  0  0  0
  197.0920  169.5440  143.8520 O   0  0  0  0  0  0  0  0  0  0  0  0
  195.5020  168.1870  145.0380 C   0  0  0  0  0  2  0  0  0  0  0  0
  196.9560  168.4010  144.6510 C   0  0  2  0  0  3  0  0  0  0  0  0
  196.6880  168.8610  146.9930 N   0  0  0  0  0  0  0  0  0  0  0  0
  197.6880  168.6140  145.9600 C   0  0  0  0  0  2  0  0  0  0  0  0
  197.1580  168.1920  148.1910 C   0  0  0  0  0  1  0  0  0  0  0  0
  195.4880  168.1660  146.5450 C   0  0  0  0  0  2  0  0  0  0  0  0
  195.5640  171.2850  141.0550 O   0  0  0  0  0  0  0  0  0  0  0  0
  196.7770  171.2430  140.3650 C   0  0  0  0  0  2  0  0  0  0  0  0
  197.6670  172.3620  140.8600 C   0  0  0  0  0  3  0  0  0  0  0  0
  196.8480  173.6310  140.9580 C   0  0  0  0  0  2  0  0  0  0  0  0
  197.7790  173.4250  139.7840 C   0  0  0  0  0  2  0  0  0  0  0  0
  193.1760  170.1170  138.7650 C   0  0  0  0  0  2  0  0  0  0  0  0
  192.1720  171.2470  138.6090 C   0  0  0  0  0  2  0  0  0  0  0  0
  189.6560  171.4840  135.6600 C   0  0  0  0  0  2  0  0  0  0  0  0
  189.7150  171.7770  138.1930 C   0  0  0  0  0  2  0  0  0  0  0  0
  190.8230  168.6270  137.1350 O   0  0  0  0  0  0  0  0  0  0  0  0
  189.6830  172.4780  136.8280 C   0  0  1  0  0  3  0  0  0  0  0  0
  190.7860  170.6810  138.3010 C   0  0  1  0  0  3  0  0  0  0  0  0
  190.8260  170.5070  135.7230 C   0  0  0  0  0  2  0  0  0  0  0  0
  190.8170  169.8410  137.0590 C   0  0  0  0  0  0  0  0  0  0  0  0
  190.7510  173.3650  136.6860 O   0  0  0  0  0  0  0  0  0  0  0  0
  190.1930  174.4870  136.2770 O   0  0  0  0  0  1  0  0  0  0  0  0
  2  1  1  0  0  0  0
  3  1  2  0  0  0  0
  3  6  1  0  0  0  0
  4 10  1  0  0  0  0
  6 16  1  0  0  0  0
  7  8  1  0  0  0  0
  8 47  1  6  0  0  0
  8  9  1  0  0  0  0
  9 12  1  0  0  0  0
  9 13  1  0  0  0  0
 10  5  1  0  0  0  0
 11  7  1  0  0  0  0
 11  4  2  0  0  0  0
 12  5  1  0  0  0  0
 12  3  1  0  0  0  0
 13  2  1  0  0  0  0
 14 15  2  0  0  0  0
 15 17  1  0  0  0  0
 16 14  2  0  0  0  0
 17 18  2  0  0  0  0
 19 20  1  0  0  0  0
 19 17  1  0  0  0  0
 21 22  2  0  0  0  0
 22 19  1  0  0  0  0
 23 30  1  0  0  0  0
 23 22  1  0  0  0  0
 24 26  1  0  0  0  0
 25 29  1  0  0  0  0
 26 23  1  0  0  0  0
 27 24  2  0  0  0  0
 28 27  1  0  0  0  0
 28 25  2  0  0  0  0
 29 26  2  0  0  0  0
 32 31  1  0  0  0  0
 32 36  1  0  0  0  0
 33 32  2  0  0  0  0
 34 35  2  0  0  0  0
 34 33  1  0  0  0  0
 35 37  1  0  0  0  0
 37 30  1  0  0  0  0
 37 31  2  0  0  0  0
 38 39  1  0  0  0  0
 39 33  1  0  0  0  0
 40 13  1  0  0  0  0
 40 42  1  0  0  0  0
 41 46  1  0  0  0  0
 42 41  1  0  0  0  0
 42 44  1  0  0  0  0
 43 45  1  0  0  0  0
 44 43  1  0  0  0  0
 46 43  1  0  0  0  0
 48 49  1  0  0  0  0
 48 47  1  0  0  0  0
 49 50  1  0  0  0  0
 51 49  1  0  0  0  0
 51 50  1  0  0  0  0
 52 11  1  0  0  0  0
 53 52  1  0  0  0  0
 54 59  1  0  0  0  0
 54 57  1  0  0  0  0
 55 58  1  0  0  0  0
 57 55  1  0  0  0  0
 58 53  1  0  0  0  0
 59 60  1  0  0  0  0
 60 56  2  0  0  0  0
 60 58  1  0  0  0  0
 61 57  1  0  0  0  0
 62 61  1  0  0  0  0
M  END
>  <MODEL>
8

>  <REMARK>
 VINA RESULT:      -6.6      3.056      9.439
  Name = 
  17 active torsions:
  status: ('A' for Active; 'I' for Inactive)
    1  A    between atoms: O_2  and  C_28
    2  A    between atoms: C_7  and  C_45
    3  A    between atoms: C_7  and  C_57
    4  A    between atoms: C_13  and  C_21
    5  A    between atoms: O_14  and  C_21
    6  A    between atoms: O_14  and  C_34
    7  A    between atoms: O_15  and  C_23
    8  A    between atoms: O_15  and  C_54
    9  A    between atoms: C_17  and  C_24
   10  A    between atoms: C_17  and  C_50
   11  A    between atoms: N_20  and  C_53
   12  A    between atoms: C_29  and  N_43
   13  A    between atoms: O_32  and  N_43
   14  A    between atoms: O_32  and  C_61
   15  A    between atoms: C_33  and  C_50
   16  A    between atoms: O_37  and  C_48
   17  A    between atoms: C_46  and  C_57
                            x       y       z     vdW  Elec       q    Type
                         _______ _______ _______ _____ _____    ______ ____

>  <TORSDO>
F 17

$$$$
=
 OpenBabel11062423033D

 62 68  0  0  1  0  0  0  0  0999 V2000
  193.7560  172.4410  143.0220 N   0  0  0  0  0  0  0  0  0  0  0  0
  194.9060  171.5650  142.8830 C   0  0  0  0  0  2  0  0  0  0  0  0
  192.6300  172.2490  142.3930 C   0  0  0  0  0  0  0  0  0  0  0  0
  191.1950  169.6430  139.1350 C   0  0  0  0  0  3  0  0  0  0  0  0
  191.0370  170.5110  141.4920 C   0  0  0  0  0  2  0  0  0  0  0  0
  191.5420  173.1620  142.5950 N   0  0  0  0  0  2  0  0  0  0  0  0
  193.5140  168.7340  139.3870 C   0  0  0  0  0  2  0  0  0  0  0  0
  194.2770  169.6530  140.3550 C   0  0  2  0  0  3  0  0  0  0  0  0
  193.4950  169.9270  141.6440 C   0  0  2  0  0  3  0  0  0  0  0  0
  190.8260  169.3220  140.5520 C   0  0  0  0  0  2  0  0  0  0  0  0
  192.4030  169.4070  138.6050 C   0  0  0  0  0  0  0  0  0  0  0  0
  192.4590  171.0680  141.4470 C   0  0  2  0  0  3  0  0  0  0  0  0
  194.4040  170.1400  142.8600 C   0  0  1  0  0  3  0  0  0  0  0  0
  191.6550  175.0960  143.9970 C   0  0  0  0  0  0  0  0  0  0  0  0
  192.0460  176.3410  144.1090 C   0  0  0  0  0  3  0  0  0  0  0  0
  191.2930  173.8520  143.8250 C   0  0  0  0  0  3  0  0  0  0  0  0
  191.1350  177.4290  144.5140 C   0  0  0  0  0  0  0  0  0  0  0  0
  191.1030  178.5090  143.8600 O   0  0  0  0  0  0  0  0  0  0  0  0
  190.2260  177.2820  145.7020 C   0  0  2  0  0  3  0  0  0  0  0  0
  190.8760  176.5830  146.8880 C   0  0  0  0  0  1  0  0  0  0  0  0
  188.6930  175.4680  145.5840 O   0  0  0  0  0  0  0  0  0  0  0  0
  188.9000  176.6860  145.3320 C   0  0  0  0  0  0  0  0  0  0  0  0
  187.8640  177.4730  144.7080 N   0  0  0  0  0  0  0  0  0  0  0  0
  185.4560  178.0480  144.7890 C   0  0  0  0  0  3  0  0  0  0  0  0
  185.5910  178.2780  147.5720 C   0  0  0  0  0  3  0  0  0  0  0  0
  186.6780  177.8190  145.4450 C   0  0  0  0  0  0  0  0  0  0  0  0
  184.3130  178.3850  145.5210 C   0  0  0  0  0  3  0  0  0  0  0  0
  184.3800  178.5000  146.9110 C   0  0  0  0  0  3  0  0  0  0  0  0
  186.7340  177.9410  146.8410 C   0  0  0  0  0  3  0  0  0  0  0  0
  188.0570  178.0460  143.4610 O   0  0  0  0  0  0  0  0  0  0  0  0
  188.3900  176.0920  142.0920 C   0  0  0  0  0  3  0  0  0  0  0  0
  188.2050  175.3720  140.9110 C   0  0  0  0  0  0  0  0  0  0  0  0
  187.4560  175.9520  139.8470 C   0  0  0  0  0  0  0  0  0  0  0  0
  186.9270  177.2400  140.0180 C   0  0  0  0  0  3  0  0  0  0  0  0
  187.1190  177.9430  141.2090 C   0  0  0  0  0  3  0  0  0  0  0  0
  188.8210  174.0110  140.8440 C   0  0  0  0  0  1  0  0  0  0  0  0
  187.8460  177.3670  142.2570 C   0  0  0  0  0  0  0  0  0  0  0  0
  186.7320  175.9730  137.4460 C   0  0  0  0  0  1  0  0  0  0  0  0
  187.1950  175.3260  138.6230 O   0  0  0  0  0  0  0  0  0  0  0  0
  195.4750  169.2390  142.9010 O   0  0  0  0  0  0  0  0  0  0  0  0
  194.0880  169.0070  144.8500 C   0  0  0  0  0  2  0  0  0  0  0  0
  195.2470  168.4530  144.0380 C   0  0  2  0  0  3  0  0  0  0  0  0
  196.0930  169.3980  146.0770 N   0  0  0  0  0  0  0  0  0  0  0  0
  196.4490  168.5360  144.9550 C   0  0  0  0  0  2  0  0  0  0  0  0
  196.7060  168.8160  147.2560 C   0  0  0  0  0  1  0  0  0  0  0  0
  194.6500  169.2670  146.2250 C   0  0  0  0  0  2  0  0  0  0  0  0
  194.6950  170.8410  139.7360 O   0  0  0  0  0  0  0  0  0  0  0  0
  196.0380  170.6370  139.4150 C   0  0  0  0  0  2  0  0  0  0  0  0
  196.6730  171.9680  139.0740 C   0  0  0  0  0  3  0  0  0  0  0  0
  195.7720  172.7040  138.1060 C   0  0  0  0  0  2  0  0  0  0  0  0
  197.0080  171.9970  137.5950 C   0  0  0  0  0  2  0  0  0  0  0  0
  192.6040  169.7210  137.1510 C   0  0  0  0  0  2  0  0  0  0  0  0
  192.6860  171.2180  136.9020 C   0  0  0  0  0  2  0  0  0  0  0  0
  190.7400  174.4080  135.8430 C   0  0  0  0  0  2  0  0  0  0  0  0
  191.6040  173.2700  137.9570 C   0  0  0  0  0  2  0  0  0  0  0  0
  189.5070  171.2240  136.0380 O   0  0  0  0  0  0  0  0  0  0  0  0
  191.8140  174.4000  136.9380 C   0  0  1  0  0  3  0  0  0  0  0  0
  191.3780  171.8930  137.3150 C   0  0  1  0  0  3  0  0  0  0  0  0
  190.6540  173.0630  135.1280 C   0  0  0  0  0  2  0  0  0  0  0  0
  190.4410  171.9950  136.1490 C   0  0  0  0  0  0  0  0  0  0  0  0
  193.0870  174.3420  136.3690 O   0  0  0  0  0  0  0  0  0  0  0  0
  193.7710  175.2760  137.0000 O   0  0  0  0  0  1  0  0  0  0  0  0
  2  1  1  0  0  0  0
  3  6  1  0  0  0  0
  3  1  2  0  0  0  0
  4 10  1  0  0  0  0
  6 16  1  0  0  0  0
  7  8  1  0  0  0  0
  8 47  1  6  0  0  0
  8  9  1  0  0  0  0
  9 13  1  0  0  0  0
 10  5  1  0  0  0  0
 11  4  2  0  0  0  0
 11  7  1  0  0  0  0
 12  5  1  0  0  0  0
 12  9  1  0  0  0  0
 12  3  1  0  0  0  0
 13  2  1  0  0  0  0
 13 40  1  0  0  0  0
 14 15  2  0  0  0  0
 15 17  1  0  0  0  0
 16 14  2  0  0  0  0
 17 19  1  0  0  0  0
 18 17  2  0  0  0  0
 19 20  1  0  0  0  0
 22 21  2  0  0  0  0
 22 19  1  0  0  0  0
 23 22  1  0  0  0  0
 23 26  1  0  0  0  0
 24 26  2  0  0  0  0
 24 27  1  0  0  0  0
 26 29  1  0  0  0  0
 27 28  2  0  0  0  0
 28 25  1  0  0  0  0
 29 25  2  0  0  0  0
 30 23  1  0  0  0  0
 31 37  1  0  0  0  0
 32 31  2  0  0  0  0
 33 34  2  0  0  0  0
 33 32  1  0  0  0  0
 34 35  1  0  0  0  0
 35 37  2  0  0  0  0
 36 32  1  0  0  0  0
 37 30  1  0  0  0  0
 38 39  1  0  0  0  0
 39 33  1  0  0  0  0
 40 42  1  0  0  0  0
 41 46  1  0  0  0  0
 42 41  1  0  0  0  0
 42 44  1  0  0  0  0
 43 46  1  0  0  0  0
 43 45  1  0  0  0  0
 44 43  1  0  0  0  0
 48 47  1  0  0  0  0
 49 48  1  0  0  0  0
 50 49  1  0  0  0  0
 51 50  1  0  0  0  0
 51 49  1  0  0  0  0
 52 11  1  0  0  0  0
 53 52  1  0  0  0  0
 53 58  1  0  0  0  0
 54 57  1  0  0  0  0
 56 60  2  0  0  0  0
 57 55  1  0  0  0  0
 58 55  1  0  0  0  0
 59 54  1  0  0  0  0
 59 60  1  0  0  0  0
 60 58  1  0  0  0  0
 61 57  1  0  0  0  0
 61 62  1  0  0  0  0
M  END
>  <MODEL>
9

>  <REMARK>
 VINA RESULT:      -6.6      2.692      9.666
  Name = 
  17 active torsions:
  status: ('A' for Active; 'I' for Inactive)
    1  A    between atoms: O_2  and  C_28
    2  A    between atoms: C_7  and  C_45
    3  A    between atoms: C_7  and  C_57
    4  A    between atoms: C_13  and  C_21
    5  A    between atoms: O_14  and  C_21
    6  A    between atoms: O_14  and  C_34
    7  A    between atoms: O_15  and  C_23
    8  A    between atoms: O_15  and  C_54
    9  A    between atoms: C_17  and  C_24
   10  A    between atoms: C_17  and  C_50
   11  A    between atoms: N_20  and  C_53
   12  A    between atoms: C_29  and  N_43
   13  A    between atoms: O_32  and  N_43
   14  A    between atoms: O_32  and  C_61
   15  A    between atoms: C_33  and  C_50
   16  A    between atoms: O_37  and  C_48
   17  A    between atoms: C_46  and  C_57
                            x       y       z     vdW  Elec       q    Type
                         _______ _______ _______ _____ _____    ______ ____

>  <TORSDO>
F 17

$$$$
